data_PCOD9484503
_publ_section_title
;
Structure prediction by ZEFSAII (Michael W. Deem and Ramdas Pophale) SiO2 
 PCOD9484503
Probable space group: C M M M
;
_chemical_formula_sum "Si O2"
_cell_formula_units_Z 128
_cell_length_a 19.309654
_cell_length_b 20.297283
_cell_length_c 19.830830
_cell_angle_alpha 90.000000
_cell_angle_beta 90.000000
_cell_angle_gamma 90.000000
_cell_volume 7772.366845
_symmetry_space_group_name_H-M "C M M M"
_symmetry_group_IT_number 65
_symmetry_cell_setting 'orthorhombic'
loop_
_space_group_symop_operation_xyz
x,y,z
-x,-y,z
x,-y,-z
-x,y,-z
-x,-y,-z
x,y,-z
-x,y,z
x,-y,z
1/2+x,1/2+y,z
1/2-x,1/2-y,z
1/2+x,1/2-y,-z
1/2-x,1/2+y,-z
1/2-x,1/2-y,-z
1/2+x,1/2+y,-z
1/2-x,1/2+y,z
1/2+x,1/2-y,z
loop_
_atom_site_type_symbol
_atom_site_label
_atom_site_fract_x
_atom_site_fract_y
_atom_site_fract_z
Si Si1 0.078725 0.748247 0.077327
Si Si2 0.417515 0.858976 0.577740
Si Si3 0.330020 0.274797 0.425859
Si Si4 0.207035 0.573615 0.078413
Si Si5 0.080233 0.614042 0.840684
Si Si6 0.298934 0.685218 0.855570
Si Si7 0.714765 0.677145 0.293926
Si Si8 0.843974 0.578206 0.702712
O O1 0.085215 0.688538 0.130645
O O2 0.136060 0.800976 0.097036
O O3 0.000000 0.773006 0.081240
O O4 0.089768 0.724837 0.000000
O O5 0.405521 0.880513 0.500000
O O6 0.500000 0.852493 0.587515
O O7 0.378972 0.788502 0.585163
O O8 0.384857 0.906546 0.633610
O O9 0.346334 0.303153 0.500000
O O10 0.250000 0.250000 0.429431
O O11 0.331775 0.321891 0.361041
O O12 0.235321 0.500000 0.085150
O O13 0.130286 0.574977 0.109270
O O14 0.252621 0.625303 0.118999
O O15 0.205246 0.591701 0.000000
O O16 0.111042 0.604459 0.766073
O O17 0.000000 0.594311 0.842458
O O18 0.250000 0.750000 0.857828
O O19 0.321277 0.672501 0.778517
O O20 0.750000 0.750000 0.292677
O O21 0.773828 0.621444 0.298353
O O22 0.832050 0.500000 0.710745
#
# Coordination Sequence:
#
# PCOD9484503 Si02
#       8
#    16  16  16  16  16  16  16  16
#     4  10  21  36  56  83 109 134 174 231 283 324
#     4  10  21  36  54  79 111 147 184 220 260 312
#     4   9  16  30  54  76  99 137 179 219 263 307
#     4  11  23  36  52  76 104 138 182 225 267 323
#     4  11  22  36  52  72 105 147 181 212 258 316
#     4  11  20  34  57  78 103 137 176 224 273 325
#     4  10  18  33  55  76  99 134 181 226 265 307
#     4  12  23  36  53  77 110 148 185 221 263 313
#
# _framework density 16.468599999999999
#
# number of rings (size 3 to 8) (size 9 to 14) (size 15 to 20)
#    0.000    1.500    5.000    2.250    0.000    3.250 
#    0.000    1.250    0.000    0.375    0.000    1.750 
#    0.000    1.500    0.000    3.125    0.000    0.000 
#
# Total GULP energy -356825.804677 kJ/mol
# GULP energy per Si atom -5575.403198 kJ/mol
# Density = 1.643112 g / cm^3
# Si number density = 16.468600 Si / 1000 Ang^3
#
#
#
# Elastic Constant Matrix: (Units=GPa)
#
#
# Indices 1 2 3 4 5 6 
#
# 1 45.0438 30.0312 19.6460 0.0000 0.0000 0.0000
# 2 30.0312 56.6747 35.8212 0.0000 0.0000 0.0000
# 3 19.6460 35.8212 122.5603 0.0000 0.0000 0.0000
# 4 0.0000 0.0000 0.0000 50.5386 0.0000 0.0000
# 5 0.0000 0.0000 0.0000 0.0000 24.2938 0.0000
# 6 0.0000 0.0000 0.0000 0.0000 0.0000 14.6927
#
#
#
# Elastic Compliance Matrix: (Units=1/GPa)
#
#
# Indices 1 2 3 4 5 6 
#
# 1 0.034333 -0.018048 -0.000228 0.000000 0.000000 0.000000
# 2 -0.018048 0.031130 -0.006205 0.000000 0.000000 0.000000
# 3 -0.000228 -0.006205 0.010010 0.000000 0.000000 0.000000
# 4 0.000000 0.000000 0.000000 0.019787 0.000000 0.000000
# 5 0.000000 0.000000 0.000000 0.000000 0.041163 0.000000
# 6 0.000000 0.000000 0.000000 0.000000 0.000000 0.068061
#
#
# Mechanical properties :
#
#
# Convention : Reuss Voigt Hill
#
# Bulk Modulus (GPa) = 37.72366 43.91952 40.82159
# Shear Modulus (GPa) = 19.06324 27.15706 23.11015
#
# Velocity S-wave (km/s) = 3.40597 4.06522 3.75011
# Velocity P-wave (km/s) = 6.19868 6.98292 6.60246
#
# Compressibility (1/GPa) = 0.02650857
#
# Stress axis : x y z
#
# Youngs Moduli (GPa) = 29.12619 32.12301 99.90445
#
# Poissons Ratio (x) = 0.57977 0.02282
# Poissons Ratio (y) = 0.52568 0.61995
# Poissons Ratio (z) = 0.00665 0.19934
#
# Static dielectric constant tensor:
#      x y z
#    x 1.539090 0.000000 0.000000 
#    y 0.000000 1.545550 0.000000 
#    z 0.000000 0.000000 1.606140 
# 
# From -- ./inp_files/64151.got.cif
#   From: 2010.05.17/outbox.cif.g08.bks.cpg/sg65_33_cif.got.tgz:64151.got - 2010.06.03 17:01:31.
