data_PCOD9484864
_publ_section_title
;
Structure prediction by ZEFSAII (Michael W. Deem and Ramdas Pophale) SiO2 
 PCOD9484864
Probable space group: C M M M
;
_chemical_formula_sum "Si O2"
_cell_formula_units_Z 60
_cell_length_a 18.451066
_cell_length_b 7.493807
_cell_length_c 20.730582
_cell_angle_alpha 90.000000
_cell_angle_beta 90.000000
_cell_angle_gamma 90.000000
_cell_volume 2866.391194
_symmetry_space_group_name_H-M "C M M M"
_symmetry_group_IT_number 65
_symmetry_cell_setting 'orthorhombic'
loop_
_space_group_symop_operation_xyz
x,y,z
-x,-y,z
x,-y,-z
-x,y,-z
-x,-y,-z
x,y,-z
-x,y,z
x,-y,z
1/2+x,1/2+y,z
1/2-x,1/2-y,z
1/2+x,1/2-y,-z
1/2-x,1/2+y,-z
1/2-x,1/2-y,-z
1/2+x,1/2+y,-z
1/2-x,1/2+y,z
1/2+x,1/2-y,z
loop_
_atom_site_type_symbol
_atom_site_label
_atom_site_fract_x
_atom_site_fract_y
_atom_site_fract_z
Si Si1 0.083678 0.218510 0.000000
Si Si2 0.334716 0.713458 0.871795
Si Si3 0.586446 0.795657 0.401630
Si Si4 0.916292 0.215859 0.745176
Si Si5 0.636629 0.500000 0.500000
O O1 0.123811 0.279997 0.064778
O O2 0.000000 0.271222 0.000000
O O3 0.085656 0.000000 0.000000
O O4 0.345217 0.500000 0.870944
O O5 0.250000 0.750000 0.876603
O O6 0.367702 0.780295 0.804420
O O7 0.500000 0.751375 0.408791
O O8 0.604181 0.781810 0.325843
O O9 0.629931 0.656265 0.444009
O O10 0.596436 0.000000 0.422144
O O11 0.000000 0.266451 0.757006
O O12 0.913416 0.000000 0.742622
#
# Coordination Sequence:
#
# PCOD9484864 Si02
#       5
#     8  16  16  16   4
#     4   9  17  32  55  83 110 145 192 236 278 333
#     4  10  20  33  53  79 110 145 188 234 284 332
#     4  10  19  29  46  74 108 147 186 229 288 347
#     4   9  17  32  51  72 103 144 189 236 285 339
#     4  12  19  30  48  74 116 150 180 234 291 346
#
# _framework density 20.932243
#
# number of rings (size 3 to 8) (size 9 to 14) (size 15 to 20)
#    0.000    2.267    1.333    2.800    0.000    5.333 
#    0.000    0.000    0.000    3.200    0.000    0.933 
#    0.000    0.000    0.000    0.000    0.000    0.000 
#
# Total GULP energy -167108.466315 kJ/mol
# GULP energy per Si atom -5570.282211 kJ/mol
# Density = 2.088460 g / cm^3
# Si number density = 20.932243 Si / 1000 Ang^3
#
#
#
# Elastic Constant Matrix: (Units=GPa)
#
#
# Indices 1 2 3 4 5 6 
#
# 1 82.3088 6.9267 80.4175 0.0000 0.0000 0.0000
# 2 6.9267 82.0164 27.9367 0.0000 0.0000 0.0000
# 3 80.4175 27.9367 186.1161 0.0000 0.0000 0.0000
# 4 0.0000 0.0000 0.0000 88.1666 0.0000 0.0000
# 5 0.0000 0.0000 0.0000 0.0000 -7.2968 0.0000
# 6 0.0000 0.0000 0.0000 0.0000 0.0000 15.3328
#
#
#
# Elastic Compliance Matrix: (Units=1/GPa)
#
#
# Indices 1 2 3 4 5 6 
#
# 1 0.021177 0.001400 -0.009360 0.000000 0.000000 0.000000
# 2 0.001400 0.012942 -0.002548 0.000000 0.000000 0.000000
# 3 -0.009360 -0.002548 0.009800 0.000000 0.000000 0.000000
# 4 0.000000 0.000000 0.000000 0.011342 0.000000 0.000000
# 5 0.000000 0.000000 0.000000 0.000000 -0.137046 0.000000
# 6 0.000000 0.000000 0.000000 0.000000 0.000000 0.065220
#
#
# Mechanical properties :
#
#
# Convention : Reuss Voigt Hill
#
# Bulk Modulus (GPa) = 43.66262 64.55589 54.10925
# Shear Modulus (GPa) = 413.76486 34.91789 224.34137
#
# Velocity S-wave (km/s) = 14.07472 4.08872 10.36377
# Velocity P-wave (km/s) = 16.88297 7.29366 13.00446
#
# Compressibility (1/GPa) = 0.02290289
#
# Stress axis : x y z
#
# Youngs Moduli (GPa) = 47.22177 77.26662 102.04341
#
# Poissons Ratio (x) = -0.10816 0.95515
# Poissons Ratio (y) = -0.06610 0.25996
# Poissons Ratio (z) = 0.44200 0.19684
#
# Static dielectric constant tensor:
#      x y z
#    x 1.722260 0.000000 0.000000 
#    y 0.000000 1.785590 0.000000 
#    z 0.000000 0.000000 1.734880 
# 
# From -- ./inp_files/55327.got.cif
#   From: 2010.05.17/outbox.cif.g08.bks.cpg/sg65_28_cif.got.tgz:55327.got - 2010.06.03 17:01:31.
