data_PCOD9484892
_publ_section_title
;
Structure prediction by ZEFSAII (Michael W. Deem and Ramdas Pophale) SiO2 
 PCOD9484892
Probable space group: C M M M
;
_chemical_formula_sum "Si O2"
_cell_formula_units_Z 88
_cell_length_a 28.295059
_cell_length_b 19.823033
_cell_length_c 7.339382
_cell_angle_alpha 90.000000
_cell_angle_beta 90.000000
_cell_angle_gamma 90.000000
_cell_volume 4116.614508
_symmetry_space_group_name_H-M "C M M M"
_symmetry_group_IT_number 65
_symmetry_cell_setting 'orthorhombic'
loop_
_space_group_symop_operation_xyz
x,y,z
-x,-y,z
x,-y,-z
-x,y,-z
-x,-y,-z
x,y,-z
-x,y,z
x,-y,z
1/2+x,1/2+y,z
1/2-x,1/2-y,z
1/2+x,1/2-y,-z
1/2-x,1/2+y,-z
1/2-x,1/2-y,-z
1/2+x,1/2+y,-z
1/2-x,1/2+y,z
1/2+x,1/2-y,z
loop_
_atom_site_type_symbol
_atom_site_label
_atom_site_fract_x
_atom_site_fract_y
_atom_site_fract_z
Si Si1 0.500000 0.578436 0.222482
Si Si2 0.123047 0.302286 0.787513
Si Si3 0.554118 0.075040 0.719518
Si Si4 0.728220 0.177687 0.221667
Si Si5 0.095115 0.154971 0.222336
Si Si6 0.190505 0.922655 0.777775
O O1 0.500000 0.500000 0.278789
O O2 0.547237 0.617850 0.281326
O O3 0.500000 0.578165 0.000000
O O4 0.087459 0.364331 0.775490
O O5 0.174266 0.323153 0.712596
O O6 0.101313 0.232404 0.715199
O O7 0.131829 0.287638 0.000000
O O8 0.553709 0.074372 0.500000
O O9 0.500000 0.085323 0.779918
O O10 0.569457 0.000000 0.779688
O O11 0.750000 0.250000 0.269797
O O12 0.763679 0.119238 0.283061
O O13 0.727959 0.173553 0.000000
O O14 0.142167 0.114464 0.276648
O O15 0.093456 0.154542 0.000000
O O16 0.191355 0.000000 0.719093
O O17 0.190627 0.922294 0.000000
#
# Coordination Sequence:
#
# PCOD9484892 Si02
#       6
#     8  16  16  16  16  16
#     4   9  16  24  34  52  88 131 162 192 233 285
#     4  10  19  29  49  77 103 126 155 204 253 291
#     4   9  20  39  57  71  94 130 166 199 241 299
#     4   9  15  26  40  61  97 134 161 191 240 291
#     4   9  16  25  37  60  92 125 157 192 239 284
#     4   9  15  23  37  56  84 127 169 194 222 278
#
# _framework density 21.37679
#
# number of rings (size 3 to 8) (size 9 to 14) (size 15 to 20)
#    0.000    2.818    1.818    1.091    1.273    3.636 
#    0.000    2.727    0.000    0.545    0.000    0.000 
#    0.000    3.636    0.000    0.000    0.000    0.000 
#
# Total GULP energy -245703.606815 kJ/mol
# GULP energy per Si atom -5584.172882 kJ/mol
# Density = 2.132814 g / cm^3
# Si number density = 21.376790 Si / 1000 Ang^3
#
#
#
# Elastic Constant Matrix: (Units=GPa)
#
#
# Indices 1 2 3 4 5 6 
#
# 1 201.1406 150.8802 2.4616 0.0000 0.0000 0.0000
# 2 150.8802 231.4297 -2.7442 0.0000 0.0000 0.0000
# 3 2.4616 -2.7442 77.8578 0.0000 0.0000 0.0000
# 4 0.0000 0.0000 0.0000 47.3601 0.0000 0.0000
# 5 0.0000 0.0000 0.0000 0.0000 -5.6736 0.0000
# 6 0.0000 0.0000 0.0000 0.0000 0.0000 40.0598
#
#
#
# Elastic Compliance Matrix: (Units=1/GPa)
#
#
# Indices 1 2 3 4 5 6 
#
# 1 0.009752 -0.006364 -0.000533 0.000000 0.000000 0.000000
# 2 -0.006364 0.008476 0.000500 0.000000 0.000000 0.000000
# 3 -0.000533 0.000500 0.012878 0.000000 0.000000 0.000000
# 4 0.000000 0.000000 0.000000 0.021115 0.000000 0.000000
# 5 0.000000 0.000000 0.000000 0.000000 -0.176254 0.000000
# 6 0.000000 0.000000 0.000000 0.000000 0.000000 0.024963
#
#
# Mechanical properties :
#
#
# Convention : Reuss Voigt Hill
#
# Bulk Modulus (GPa) = 54.60670 90.18036 72.39353
# Shear Modulus (GPa) = -62.36547 40.33794 -11.01376
#
# Velocity S-wave (km/s) = -5.40719 4.34867 -2.27231
# Velocity P-wave (km/s) = 3.65832 8.21537 5.20139
#
# Compressibility (1/GPa) = 0.01831277
#
# Stress axis : x y z
#
# Youngs Moduli (GPa) = 102.54236 117.98020 77.64948
#
# Poissons Ratio (x) = 0.75084 0.04136
# Poissons Ratio (y) = 0.65260 -0.03882
# Poissons Ratio (z) = 0.05462 -0.05899
#
# Static dielectric constant tensor:
#      x y z
#    x 1.728660 0.000000 0.000000 
#    y 0.000000 1.721810 0.000000 
#    z 0.000000 0.000000 1.841390 
# 
# From -- ./inp_files/13991.got.cif
#   From: 2010.05.17/outbox.cif.g08.bks.cpg/sg65_7_cif.got.tgz:13991.got - 2010.06.03 17:01:31.
