data_PCOD9484973
_publ_section_title
;
Structure prediction by ZEFSAII (Michael W. Deem and Ramdas Pophale) SiO2 
 PCOD9484973
Probable space group: C M M M
;
_chemical_formula_sum "Si O2"
_cell_formula_units_Z 120
_cell_length_a 28.671806
_cell_length_b 16.068759
_cell_length_c 14.798947
_cell_angle_alpha 90.000000
_cell_angle_beta 90.000000
_cell_angle_gamma 90.000000
_cell_volume 6818.175904
_symmetry_space_group_name_H-M "C M M M"
_symmetry_group_IT_number 65
_symmetry_cell_setting 'orthorhombic'
loop_
_space_group_symop_operation_xyz
x,y,z
-x,-y,z
x,-y,-z
-x,y,-z
-x,-y,-z
x,y,-z
-x,y,z
x,-y,z
1/2+x,1/2+y,z
1/2-x,1/2-y,z
1/2+x,1/2-y,-z
1/2-x,1/2+y,-z
1/2-x,1/2-y,-z
1/2+x,1/2+y,-z
1/2-x,1/2+y,z
1/2+x,1/2-y,z
loop_
_atom_site_type_symbol
_atom_site_label
_atom_site_fract_x
_atom_site_fract_y
_atom_site_fract_z
Si Si1 0.787832 0.094722 0.209333
Si Si2 0.946937 0.709283 0.165763
Si Si3 0.746635 0.652442 0.399714
Si Si4 0.179085 0.594396 0.842779
Si Si5 0.849607 0.595157 0.634573
Si Si6 0.944284 0.590974 0.000000
Si Si7 0.051182 0.399785 0.347059
Si Si8 0.854342 0.224694 0.894270
O O1 0.780889 0.111342 0.316755
O O2 0.734880 0.098922 0.171657
O O3 0.819582 0.163367 0.159876
O O4 0.804855 0.000000 0.195205
O O5 0.933963 0.643125 0.088192
O O6 0.948805 0.656202 0.257176
O O7 0.904814 0.774239 0.155878
O O8 0.000000 0.740758 0.148923
O O9 0.727180 0.635515 0.500000
O O10 0.750000 0.750000 0.382193
O O11 0.801074 0.629148 0.399554
O O12 0.169096 0.500000 0.877990
O O13 0.154805 0.599676 0.743854
O O14 0.164665 0.679814 0.891112
O O15 0.849084 0.500000 0.607611
O O16 0.900526 0.626764 0.606060
O O17 0.923211 0.500000 0.000000
O O18 0.000000 0.582532 0.000000
O O19 0.054911 0.500000 0.327037
O O20 0.000000 0.388979 0.390504
O O21 0.858730 0.200922 0.000000
#
# Coordination Sequence:
#
# PCOD9484973 Si02
#       8
#    16  16  16  16  16   8  16  16
#     4  10  22  39  57  74 102 141 183 231 270 311
#     4  10  19  30  44  68  98 136 180 225 274 319
#     4  10  20  34  57  86 110 134 165 211 275 339
#     4   9  18  33  50  72 102 139 178 220 268 320
#     4   9  16  28  47  70 103 141 174 211 251 301
#     4   9  16  26  40  62  98 135 171 221 270 316
#     4   9  16  26  43  68  99 139 184 219 251 300
#     4  12  23  34  51  75 104 145 186 229 274 322
#
# _framework density 17.600016
#
# number of rings (size 3 to 8) (size 9 to 14) (size 15 to 20)
#    0.000    2.200    2.000    3.600    0.000    4.800 
#    0.000    1.333    0.000    0.800    0.000    2.800 
#    0.000    0.533    0.000    1.200    0.000    0.000 
#
# Total GULP energy -334084.531754 kJ/mol
# GULP energy per Si atom -5568.075529 kJ/mol
# Density = 1.755996 g / cm^3
# Si number density = 17.600016 Si / 1000 Ang^3
#
#
#
# Elastic Constant Matrix: (Units=GPa)
#
#
# Indices 1 2 3 4 5 6 
#
# 1 109.0426 52.0063 22.3295 0.0000 0.0000 0.0000
# 2 52.0063 71.1210 28.8233 0.0000 0.0000 0.0000
# 3 22.3295 28.8233 67.1485 0.0000 0.0000 0.0000
# 4 0.0000 0.0000 0.0000 34.6470 0.0000 0.0000
# 5 0.0000 0.0000 0.0000 0.0000 -88.0702 0.0000
# 6 0.0000 0.0000 0.0000 0.0000 0.0000 23.2933
#
#
#
# Elastic Compliance Matrix: (Units=1/GPa)
#
#
# Indices 1 2 3 4 5 6 
#
# 1 0.014087 -0.010172 -0.000318 0.000000 0.000000 0.000000
# 2 -0.010172 0.024367 -0.007077 0.000000 0.000000 0.000000
# 3 -0.000318 -0.007077 0.018036 0.000000 0.000000 0.000000
# 4 0.000000 0.000000 0.000000 0.028863 0.000000 0.000000
# 5 0.000000 0.000000 0.000000 0.000000 -0.011355 0.000000
# 6 0.000000 0.000000 0.000000 0.000000 0.000000 0.042931
#
#
# Mechanical properties :
#
#
# Convention : Reuss Voigt Hill
#
# Bulk Modulus (GPa) = 46.82583 50.40336 48.61459
# Shear Modulus (GPa) = 31.41061 3.58422 17.49742
#
# Velocity S-wave (km/s) = 4.22914 1.42860 3.15647
# Velocity P-wave (km/s) = 7.10710 5.60550 6.40049
#
# Compressibility (1/GPa) = 0.02135574
#
# Stress axis : x y z
#
# Youngs Moduli (GPa) = 70.98541 41.03932 55.44517
#
# Poissons Ratio (x) = 0.41746 0.01764
# Poissons Ratio (y) = 0.72208 0.39237
# Poissons Ratio (z) = 0.02259 0.29042
#
# Static dielectric constant tensor:
#      x y z
#    x 1.779470 0.000000 0.000000 
#    y 0.000000 1.869000 0.000000 
#    z 0.000000 0.000000 1.648600 
# 
# From -- ./inp_files/48105.got.cif
#   From: 2010.05.17/outbox.cif.g08.bks.cpg/sg65_25_cif.got.tgz:48105.got - 2010.06.03 17:01:31.
