data_PCOD9484233
_publ_section_title
;
Structure prediction by ZEFSAII (Michael W. Deem and Ramdas Pophale) SiO2 
 PCOD9484233
Probable space group: C M M M
;
_chemical_formula_sum "Si O2"
_cell_formula_units_Z 104
_cell_length_a 27.626130
_cell_length_b 23.843711
_cell_length_c 7.664098
_cell_angle_alpha 90.000000
_cell_angle_beta 90.000000
_cell_angle_gamma 90.000000
_cell_volume 5048.413853
_symmetry_space_group_name_H-M "C M M M"
_symmetry_group_IT_number 65
_symmetry_cell_setting 'orthorhombic'
loop_
_space_group_symop_operation_xyz
x,y,z
-x,-y,z
x,-y,-z
-x,y,-z
-x,-y,-z
x,y,-z
-x,y,z
x,-y,z
1/2+x,1/2+y,z
1/2-x,1/2-y,z
1/2+x,1/2-y,-z
1/2-x,1/2+y,-z
1/2-x,1/2-y,-z
1/2+x,1/2+y,-z
1/2-x,1/2+y,z
1/2+x,1/2-y,z
loop_
_atom_site_type_symbol
_atom_site_label
_atom_site_fract_x
_atom_site_fract_y
_atom_site_fract_z
Si Si1 0.053511 0.566051 0.208187
Si Si2 0.823749 0.936617 0.786974
Si Si3 0.213069 0.562600 0.791542
Si Si4 0.944409 0.264453 0.293704
Si Si5 0.367994 0.148328 0.308410
Si Si6 0.910550 0.139814 0.211613
Si Si7 0.000000 0.063392 0.212910
O O1 0.054408 0.500000 0.240293
O O2 0.094107 0.597435 0.311238
O O3 0.000000 0.587669 0.251279
O O4 0.061382 0.573759 0.000000
O O5 0.768219 0.929307 0.729125
O O6 0.860067 0.887822 0.729644
O O7 0.839552 0.000000 0.737134
O O8 0.823940 0.935797 0.000000
O O9 0.196050 0.500000 0.728901
O O10 0.179648 0.616440 0.757475
O O11 0.214828 0.558140 0.000000
O O12 0.947485 0.278196 0.500000
O O13 0.901750 0.304347 0.217696
O O14 0.925693 0.201097 0.274648
O O15 0.000000 0.269696 0.224142
O O16 0.355612 0.170271 0.500000
O O17 0.952625 0.097132 0.266110
O O18 0.909886 0.142365 0.000000
O O19 0.000000 0.000000 0.275016
O O20 0.000000 0.062207 0.000000
#
# Coordination Sequence:
#
# PCOD9484233 Si02
#       7
#    16  16  16  16  16  16   8
#     4   9  18  32  49  71  99 128 159 204 265 324
#     4   8  15  30  54  82 110 137 164 201 255 315
#     4   9  18  34  55  78 105 137 170 208 260 316
#     4  10  22  39  53  67  99 144 179 212 259 309
#     4  11  22  34  50  72  97 133 180 222 261 303
#     4  10  18  31  54  83 107 132 171 212 251 301
#     4   9  16  26  47  83 117 133 152 201 260 305
#
# _framework density 20.600528000000001
#
# number of rings (size 3 to 8) (size 9 to 14) (size 15 to 20)
#    0.000    2.538    0.769    3.231    0.000    6.462 
#    0.000    2.308    0.000    7.846    0.000    0.000 
#    0.000    0.000    0.000    0.000    0.000    0.000 
#
# Total GULP energy -289819.384036 kJ/mol
# GULP energy per Si atom -5573.449693 kJ/mol
# Density = 2.055364 g / cm^3
# Si number density = 20.600528 Si / 1000 Ang^3
#
#
#
# Elastic Constant Matrix: (Units=GPa)
#
#
# Indices 1 2 3 4 5 6 
#
# 1 121.8726 80.6268 7.9086 0.0000 0.0000 0.0000
# 2 80.6268 127.9067 2.9515 0.0000 0.0000 0.0000
# 3 7.9086 2.9515 26.6554 0.0000 0.0000 0.0000
# 4 0.0000 0.0000 0.0000 23.9770 0.0000 0.0000
# 5 0.0000 0.0000 0.0000 0.0000 9.5209 0.0000
# 6 0.0000 0.0000 0.0000 0.0000 0.0000 34.4326
#
#
#
# Elastic Compliance Matrix: (Units=1/GPa)
#
#
# Indices 1 2 3 4 5 6 
#
# 1 0.014353 -0.008972 -0.003265 0.000000 0.000000 0.000000
# 2 -0.008972 0.013447 0.001173 0.000000 0.000000 0.000000
# 3 -0.003265 0.001173 0.038355 0.000000 0.000000 0.000000
# 4 0.000000 0.000000 0.000000 0.041707 0.000000 0.000000
# 5 0.000000 0.000000 0.000000 0.000000 0.105032 0.000000
# 6 0.000000 0.000000 0.000000 0.000000 0.000000 0.029042
#
#
# Mechanical properties :
#
#
# Convention : Reuss Voigt Hill
#
# Bulk Modulus (GPa) = 22.71376 51.04539 36.87958
# Shear Modulus (GPa) = 17.93796 25.91596 21.92696
#
# Velocity S-wave (km/s) = 2.95405 3.55071 3.26604
# Velocity P-wave (km/s) = 4.76288 6.45310 5.67131
#
# Compressibility (1/GPa) = 0.04402618
#
# Stress axis : x y z
#
# Youngs Moduli (GPa) = 69.67314 74.36779 26.07248
#
# Poissons Ratio (x) = 0.66723 0.08513
# Poissons Ratio (y) = 0.62511 -0.03058
# Poissons Ratio (z) = 0.22748 -0.08724
#
# Static dielectric constant tensor:
#      x y z
#    x 1.750750 0.000000 0.000000 
#    y 0.000000 1.732160 0.000000 
#    z 0.000000 0.000000 1.806830 
# 
# From -- ./inp_files/16740.got.cif
#   From: 2010.05.17/outbox.cif.g08.bks.cpg/sg65_9_cif.got.tgz:16740.got - 2010.06.03 17:01:31.
