data_PCOD9484461
_publ_section_title
;
Structure prediction by ZEFSAII (Michael W. Deem and Ramdas Pophale) SiO2 
 PCOD9484461
Probable space group: C M M M
;
_chemical_formula_sum "Si O2"
_cell_formula_units_Z 88
_cell_length_a 22.664341
_cell_length_b 13.850938
_cell_length_c 15.894098
_cell_angle_alpha 90.000000
_cell_angle_beta 90.000000
_cell_angle_gamma 90.000000
_cell_volume 4989.513104
_symmetry_space_group_name_H-M "C M M M"
_symmetry_group_IT_number 65
_symmetry_cell_setting 'orthorhombic'
loop_
_space_group_symop_operation_xyz
x,y,z
-x,-y,z
x,-y,-z
-x,y,-z
-x,-y,-z
x,y,-z
-x,y,z
x,-y,z
1/2+x,1/2+y,z
1/2-x,1/2-y,z
1/2+x,1/2-y,-z
1/2-x,1/2+y,-z
1/2-x,1/2-y,-z
1/2+x,1/2+y,-z
1/2-x,1/2+y,z
1/2+x,1/2-y,z
loop_
_atom_site_type_symbol
_atom_site_label
_atom_site_fract_x
_atom_site_fract_y
_atom_site_fract_z
Si Si1 0.656815 0.243962 0.333800
Si Si2 0.655226 0.800921 0.855858
Si Si3 0.929371 0.383483 0.000000
Si Si4 0.280392 0.607189 0.100865
Si Si5 0.249613 0.113501 0.402696
Si Si6 0.931607 0.104924 0.600863
O O1 0.642884 0.200654 0.243006
O O2 0.686133 0.160472 0.390105
O O3 0.707179 0.328471 0.339031
O O4 0.601080 0.301240 0.367339
O O5 0.604877 0.839971 0.918476
O O6 0.673538 0.690523 0.876360
O O7 0.715273 0.861888 0.869317
O O8 0.922372 0.500000 0.000000
O O9 0.000000 0.362520 0.000000
O O10 0.295515 0.500000 0.131847
O O11 0.277293 0.605356 0.000000
O O12 0.229945 0.130209 0.500000
O O13 0.249509 0.000000 0.387456
O O14 0.928179 0.104772 0.500000
O O15 0.000000 0.107118 0.625010
O O16 0.906509 0.000000 0.629016
#
# Coordination Sequence:
#
# PCOD9484461 Si02
#       6
#    16  16   8  16  16  16
#     4  11  21  31  53  80 111 142 174 224 271 311
#     4  11  21  35  54  82 111 136 177 227 269 319
#     4  11  24  43  63  77  99 141 185 226 276 331
#     4  10  18  32  57  80 105 135 169 213 261 310
#     4  10  20  34  52  79 118 157 184 207 252 323
#     4   9  18  34  56  79 103 137 183 228 267 311
#
# _framework density 17.636990999999998
#
# number of rings (size 3 to 8) (size 9 to 14) (size 15 to 20)
#    0.000    1.727    1.818    6.545    0.000    6.545 
#    0.000    0.000    0.000    1.636    0.000    2.545 
#    0.000    0.000    0.000    0.000    0.000    0.000 
#
# Total GULP energy -245347.771176 kJ/mol
# GULP energy per Si atom -5576.085709 kJ/mol
# Density = 1.759685 g / cm^3
# Si number density = 17.636991 Si / 1000 Ang^3
#
#
#
# Elastic Constant Matrix: (Units=GPa)
#
#
# Indices 1 2 3 4 5 6 
#
# 1 82.2818 36.6015 25.1421 0.0000 0.0000 0.0000
# 2 36.6015 104.4104 18.0802 0.0000 0.0000 0.0000
# 3 25.1421 18.0802 57.9348 0.0000 0.0000 0.0000
# 4 0.0000 0.0000 0.0000 -1.7720 0.0000 0.0000
# 5 0.0000 0.0000 0.0000 0.0000 -7.8944 0.0000
# 6 0.0000 0.0000 0.0000 0.0000 0.0000 20.2374
#
#
#
# Elastic Compliance Matrix: (Units=1/GPa)
#
#
# Indices 1 2 3 4 5 6 
#
# 1 0.015873 -0.004621 -0.005446 0.000000 0.000000 0.000000
# 2 -0.004621 0.011470 -0.001574 0.000000 0.000000 0.000000
# 3 -0.005446 -0.001574 0.020116 0.000000 0.000000 0.000000
# 4 0.000000 0.000000 0.000000 -0.564333 0.000000 0.000000
# 5 0.000000 0.000000 0.000000 0.000000 -0.126672 0.000000
# 6 0.000000 0.000000 0.000000 0.000000 0.000000 0.049413
#
#
# Mechanical properties :
#
#
# Convention : Reuss Voigt Hill
#
# Bulk Modulus (GPa) = 41.36409 44.91939 43.14174
# Shear Modulus (GPa) = -8.88430 13.10108 2.10839
#
# Velocity S-wave (km/s) = -2.24683 2.72843 1.09455
# Velocity P-wave (km/s) = 4.09548 5.95398 5.10993
#
# Compressibility (1/GPa) = 0.02417556
#
# Stress axis : x y z
#
# Youngs Moduli (GPa) = 62.99901 87.18260 49.71267
#
# Poissons Ratio (x) = 0.40290 0.27075
# Poissons Ratio (y) = 0.29114 0.07825
# Poissons Ratio (z) = 0.34312 0.13723
#
# Static dielectric constant tensor:
#      x y z
#    x 1.617060 0.000000 0.000000 
#    y 0.000000 1.620950 0.000000 
#    z 0.000000 0.000000 1.622290 
# 
# From -- ./inp_files/45593.got.cif
#   From: 2010.05.17/outbox.cif.g08.bks.cpg/sg65_23_cif.got.tgz:45593.got - 2010.06.03 17:01:31.
