data_PCOD9484238
_publ_section_title
;
Structure prediction by ZEFSAII (Michael W. Deem and Ramdas Pophale) SiO2 
 PCOD9484238
Probable space group: C M M M
;
_chemical_formula_sum "Si O2"
_cell_formula_units_Z 64
_cell_length_a 25.676387
_cell_length_b 8.176419
_cell_length_c 15.120285
_cell_angle_alpha 90.000000
_cell_angle_beta 90.000000
_cell_angle_gamma 90.000000
_cell_volume 3174.366219
_symmetry_space_group_name_H-M "C M M M"
_symmetry_group_IT_number 65
_symmetry_cell_setting 'orthorhombic'
loop_
_space_group_symop_operation_xyz
x,y,z
-x,-y,z
x,-y,-z
-x,y,-z
-x,-y,-z
x,y,-z
-x,y,z
x,-y,z
1/2+x,1/2+y,z
1/2-x,1/2-y,z
1/2+x,1/2-y,-z
1/2-x,1/2+y,-z
1/2-x,1/2-y,-z
1/2+x,1/2+y,-z
1/2-x,1/2+y,z
1/2+x,1/2-y,z
loop_
_atom_site_type_symbol
_atom_site_label
_atom_site_fract_x
_atom_site_fract_y
_atom_site_fract_z
Si Si1 0.000000 0.309540 0.161835
Si Si2 0.887190 0.200404 0.350034
Si Si3 0.110005 0.195308 0.854104
Si Si4 0.690263 0.193951 0.000000
Si Si5 0.500000 0.689680 0.359465
Si Si6 0.190718 0.802769 0.500000
O O1 0.054496 0.268713 0.115246
O O2 0.000000 0.500000 0.186220
O O3 0.000000 0.202797 0.252163
O O4 0.881348 0.249624 0.247730
O O5 0.943783 0.258762 0.384933
O O6 0.841000 0.253856 0.413619
O O7 0.888649 0.000000 0.350816
O O8 0.104864 0.000000 0.855153
O O9 0.157784 0.244164 0.915506
O O10 0.750000 0.250000 0.000000
O O11 0.689345 0.000000 0.000000
O O12 0.500000 0.500000 0.386596
O O13 0.250000 0.750000 0.500000
O O14 0.189094 0.000000 0.500000
#
# Coordination Sequence:
#
# PCOD9484238 Si02
#       6
#     8  16  16   8   8   8
#     4  10  18  31  54  87 118 146 180 223 273 335
#     4   8  16  31  55  81 107 137 176 222 273 323
#     4  10  20  38  60  84 113 148 184 228 279 330
#     4  12  26  43  60  83 110 144 188 234 278 330
#     4   8  14  29  51  77 105 138 177 223 276 329
#     4  10  20  35  51  75 107 142 183 226 264 316
#
# _framework density 20.161504000000001
#
# number of rings (size 3 to 8) (size 9 to 14) (size 15 to 20)
#    0.000    2.500    0.000    4.500    0.000    2.000 
#    0.000   13.750    0.000    0.000    0.000   14.875 
#    0.000    0.000    0.000    0.000    0.000    0.000 
#
# Total GULP energy -178543.888126 kJ/mol
# GULP energy per Si atom -5579.496504 kJ/mol
# Density = 2.011562 g / cm^3
# Si number density = 20.161504 Si / 1000 Ang^3
#
#
#
# Elastic Constant Matrix: (Units=GPa)
#
#
# Indices 1 2 3 4 5 6 
#
# 1 231.9153 19.8892 95.9381 0.0000 0.0000 0.0000
# 2 19.8892 49.9153 17.3738 0.0000 0.0000 0.0000
# 3 95.9381 17.3738 110.2368 0.0000 0.0000 0.0000
# 4 0.0000 0.0000 0.0000 7.0749 0.0000 0.0000
# 5 0.0000 0.0000 0.0000 0.0000 31.8719 0.0000
# 6 0.0000 0.0000 0.0000 0.0000 0.0000 33.1156
#
#
#
# Elastic Compliance Matrix: (Units=1/GPa)
#
#
# Indices 1 2 3 4 5 6 
#
# 1 0.006760 -0.000683 -0.005775 0.000000 0.000000 0.000000
# 2 -0.000683 0.021266 -0.002757 0.000000 0.000000 0.000000
# 3 -0.005775 -0.002757 0.014532 0.000000 0.000000 0.000000
# 4 0.000000 0.000000 0.000000 0.141344 0.000000 0.000000
# 5 0.000000 0.000000 0.000000 0.000000 0.031376 0.000000
# 6 0.000000 0.000000 0.000000 0.000000 0.000000 0.030197
#
#
# Mechanical properties :
#
#
# Convention : Reuss Voigt Hill
#
# Bulk Modulus (GPa) = 41.44795 73.16326 57.30561
# Shear Modulus (GPa) = 18.38596 31.67025 25.02811
#
# Velocity S-wave (km/s) = 3.02310 3.96767 3.52715
# Velocity P-wave (km/s) = 5.72609 7.57345 6.71362
#
# Compressibility (1/GPa) = 0.02412664
#
# Stress axis : x y z
#
# Youngs Moduli (GPa) = 147.93915 47.02390 68.81423
#
# Poissons Ratio (x) = 0.03213 0.39741
# Poissons Ratio (y) = 0.10109 0.18971
# Poissons Ratio (z) = 0.85436 0.12964
#
# Static dielectric constant tensor:
#      x y z
#    x 1.753070 0.000000 0.000000 
#    y 0.000000 1.720690 0.000000 
#    z 0.000000 0.000000 1.742650 
# 
# From -- ./inp_files/45166.got.cif
#   From: 2010.05.17/outbox.cif.g08.bks.cpg/sg65_23_cif.got.tgz:45166.got - 2010.06.03 17:01:31.
