data_PCOD9484215
_publ_section_title
;
Structure prediction by ZEFSAII (Michael W. Deem and Ramdas Pophale) SiO2 
 PCOD9484215
Probable space group: C M M M
;
_chemical_formula_sum "Si O2"
_cell_formula_units_Z 96
_cell_length_a 10.031998
_cell_length_b 24.978172
_cell_length_c 21.981006
_cell_angle_alpha 90.000000
_cell_angle_beta 90.000000
_cell_angle_gamma 90.000000
_cell_volume 5508.021839
_symmetry_space_group_name_H-M "C M M M"
_symmetry_group_IT_number 65
_symmetry_cell_setting 'orthorhombic'
loop_
_space_group_symop_operation_xyz
x,y,z
-x,-y,z
x,-y,-z
-x,y,-z
-x,-y,-z
x,y,-z
-x,y,z
x,-y,z
1/2+x,1/2+y,z
1/2-x,1/2-y,z
1/2+x,1/2-y,-z
1/2-x,1/2+y,-z
1/2-x,1/2-y,-z
1/2+x,1/2+y,-z
1/2-x,1/2+y,z
1/2+x,1/2-y,z
loop_
_atom_site_type_symbol
_atom_site_label
_atom_site_fract_x
_atom_site_fract_y
_atom_site_fract_z
Si Si1 0.267609 0.347710 0.642603
Si Si2 0.500000 0.295441 0.432973
Si Si3 0.836425 0.804216 0.224619
Si Si4 0.500000 0.830810 0.430698
Si Si5 0.662012 0.304222 0.000000
Si Si6 0.159789 0.939759 0.566262
Si Si7 0.662417 0.500000 0.927980
Si Si8 0.660347 0.617997 0.887055
O O1 0.370681 0.313594 0.602687
O O2 0.287711 0.327345 0.710549
O O3 0.125971 0.343228 0.610916
O O4 0.306666 0.408271 0.627126
O O5 0.500000 0.319772 0.500000
O O6 0.500000 0.232622 0.437908
O O7 0.750000 0.750000 0.212770
O O8 0.805932 0.849767 0.174333
O O9 0.000000 0.795019 0.225551
O O10 0.500000 0.853469 0.500000
O O11 0.750000 0.250000 0.000000
O O12 0.694461 0.341678 0.057895
O O13 0.500000 0.293320 0.000000
O O14 0.205172 0.916882 0.500000
O O15 0.000000 0.941080 0.563630
O O16 0.210696 0.000000 0.569152
O O17 0.500000 0.500000 0.924949
O O18 0.708647 0.556691 0.898185
O O19 0.696523 0.500000 0.000000
O O20 0.500000 0.613725 0.887796
#
# Coordination Sequence:
#
# PCOD9484215 Si02
#       8
#    16   8  16   8   8  16   8  16
#     4  12  22  36  55  79 109 144 182 233 284 342
#     4  11  20  34  55  77 105 142 182 225 276 335
#     4  11  23  38  56  81 114 154 193 232 282 343
#     4  11  24  36  53  83 111 140 180 231 290 347
#     4  10  18  31  53  83 121 152 189 234 276 322
#     4   9  17  32  55  79 102 132 173 223 279 334
#     4   9  14  28  56  88 122 154 185 234 292 330
#     4   9  18  32  53  85 118 153 189 234 281 330
#
# _framework density 17.429124000000002
#
# number of rings (size 3 to 8) (size 9 to 14) (size 15 to 20)
#    0.000    1.750    2.500    4.000    1.167    1.333 
#    1.500    0.417    0.000    1.500    0.000    2.917 
#    0.000    0.000    0.000    0.000    0.000    0.000 
#
# Total GULP energy -267210.962637 kJ/mol
# GULP energy per Si atom -5566.895055 kJ/mol
# Density = 1.738945 g / cm^3
# Si number density = 17.429124 Si / 1000 Ang^3
#
#
#
# Elastic Constant Matrix: (Units=GPa)
#
#
# Indices 1 2 3 4 5 6 
#
# 1 76.0939 25.5561 38.0850 0.0000 0.0000 0.0000
# 2 25.5561 139.9060 66.8570 0.0000 0.0000 0.0000
# 3 38.0850 66.8570 145.5653 0.0000 0.0000 0.0000
# 4 0.0000 0.0000 0.0000 35.9395 0.0000 0.0000
# 5 0.0000 0.0000 0.0000 0.0000 15.7808 0.0000
# 6 0.0000 0.0000 0.0000 0.0000 0.0000 29.2311
#
#
#
# Elastic Compliance Matrix: (Units=1/GPa)
#
#
# Indices 1 2 3 4 5 6 
#
# 1 0.015259 -0.001127 -0.003475 0.000000 0.000000 0.000000
# 2 -0.001127 0.009241 -0.003949 0.000000 0.000000 0.000000
# 3 -0.003475 -0.003949 0.009593 0.000000 0.000000 0.000000
# 4 0.000000 0.000000 0.000000 0.027825 0.000000 0.000000
# 5 0.000000 0.000000 0.000000 0.000000 0.063368 0.000000
# 6 0.000000 0.000000 0.000000 0.000000 0.000000 0.034210
#
#
# Mechanical properties :
#
#
# Convention : Reuss Voigt Hill
#
# Bulk Modulus (GPa) = 58.85549 69.17350 64.01449
# Shear Modulus (GPa) = 27.43311 31.59474 29.51393
#
# Velocity S-wave (km/s) = 3.97165 4.26227 4.11952
# Velocity P-wave (km/s) = 7.40768 7.99982 7.70944
#
# Compressibility (1/GPa) = 0.01699077
#
# Stress axis : x y z
#
# Youngs Moduli (GPa) = 65.53401 108.21574 104.24444
#
# Poissons Ratio (x) = 0.12194 0.36223
# Poissons Ratio (y) = 0.07385 0.41170
# Poissons Ratio (z) = 0.22772 0.42739
#
# Static dielectric constant tensor:
#      x y z
#    x 1.791750 0.000000 0.000000 
#    y 0.000000 1.643700 0.000000 
#    z 0.000000 0.000000 1.603560 
# 
# From -- ./inp_files/61778.got.cif
#   From: 2010.05.17/outbox.cif.g08.bks.cpg/sg65_31_cif.got.tgz:61778.got - 2010.06.03 17:01:31.
