data_PCOD9484759
_publ_section_title
;
Structure prediction by ZEFSAII (Michael W. Deem and Ramdas Pophale) SiO2 
 PCOD9484759
Probable space group: C M M M
;
_chemical_formula_sum "Si O2"
_cell_formula_units_Z 80
_cell_length_a 7.311958
_cell_length_b 16.520280
_cell_length_c 28.771283
_cell_angle_alpha 90.000000
_cell_angle_beta 90.000000
_cell_angle_gamma 90.000000
_cell_volume 3475.444206
_symmetry_space_group_name_H-M "C M M M"
_symmetry_group_IT_number 65
_symmetry_cell_setting 'orthorhombic'
loop_
_space_group_symop_operation_xyz
x,y,z
-x,-y,z
x,-y,-z
-x,y,-z
-x,-y,-z
x,y,-z
-x,y,z
x,-y,z
1/2+x,1/2+y,z
1/2-x,1/2-y,z
1/2+x,1/2-y,-z
1/2-x,1/2+y,-z
1/2-x,1/2-y,-z
1/2+x,1/2+y,-z
1/2-x,1/2+y,z
1/2+x,1/2-y,z
loop_
_atom_site_type_symbol
_atom_site_label
_atom_site_fract_x
_atom_site_fract_y
_atom_site_fract_z
Si Si1 0.277911 0.908284 0.296243
Si Si2 0.279676 0.902894 0.000000
Si Si3 0.217837 0.659268 0.609073
Si Si4 0.278180 0.095413 0.899830
Si Si5 0.717250 0.843850 0.801075
Si Si6 0.276404 0.000000 0.553699
O O1 0.500000 0.902655 0.294165
O O2 0.214206 0.850530 0.337767
O O3 0.211402 0.889664 0.244360
O O4 0.232639 0.000000 0.309450
O O5 0.213607 0.871420 0.050038
O O6 0.500000 0.894429 0.000000
O O7 0.243739 0.000000 0.000000
O O8 0.250000 0.750000 0.591224
O O9 0.284262 0.582761 0.579084
O O10 0.000000 0.649717 0.610964
O O11 0.500000 0.102113 0.900417
O O12 0.210316 0.134184 0.852137
O O13 0.235601 0.000000 0.897965
O O14 0.500000 0.860551 0.803165
O O15 0.750000 0.750000 0.792582
O O16 0.500000 0.000000 0.554930
O O17 0.221870 0.000000 0.500000
#
# Coordination Sequence:
#
# PCOD9484759 Si02
#       6
#    16   8  16  16  16   8
#     4   9  16  29  50  72  92 121 162 201 235 281
#     4   7  10  18  35  58  81 101 132 183 230 260
#     4  10  19  33  54  78 104 134 170 210 252 297
#     4   8  13  23  40  61  81 106 143 185 224 263
#     4  10  19  29  43  64  91 118 147 185 228 276
#     4   9  18  34  55  77 103 139 179 210 242 296
#
# _framework density 23.018640000000001
#
# number of rings (size 3 to 8) (size 9 to 14) (size 15 to 20)
#    0.000    3.000    1.000    2.400    0.000    2.800 
#    0.000    1.000    0.000    4.200    0.000    0.000 
#    0.000    2.400    0.000    0.000    0.000    0.000 
#
# Total GULP energy -223200.598023 kJ/mol
# GULP energy per Si atom -5580.014951 kJ/mol
# Density = 2.296625 g / cm^3
# Si number density = 23.018640 Si / 1000 Ang^3
#
#
#
# Elastic Constant Matrix: (Units=GPa)
#
#
# Indices 1 2 3 4 5 6 
#
# 1 93.4180 -5.9405 11.2600 0.0000 0.0000 0.0000
# 2 -5.9405 108.7491 68.6420 0.0000 0.0000 0.0000
# 3 11.2600 68.6420 176.1080 0.0000 0.0000 0.0000
# 4 0.0000 0.0000 0.0000 10.6626 0.0000 0.0000
# 5 0.0000 0.0000 0.0000 0.0000 -23.4563 0.0000
# 6 0.0000 0.0000 0.0000 0.0000 0.0000 91.9083
#
#
#
# Elastic Compliance Matrix: (Units=1/GPa)
#
#
# Indices 1 2 3 4 5 6 
#
# 1 0.010941 0.001378 -0.001237 0.000000 0.000000 0.000000
# 2 0.001378 0.012370 -0.004909 0.000000 0.000000 0.000000
# 3 -0.001237 -0.004909 0.007671 0.000000 0.000000 0.000000
# 4 0.000000 0.000000 0.000000 0.093786 0.000000 0.000000
# 5 0.000000 0.000000 0.000000 0.000000 -0.042633 0.000000
# 6 0.000000 0.000000 0.000000 0.000000 0.000000 0.010880
#
#
# Mechanical properties :
#
#
# Convention : Reuss Voigt Hill
#
# Bulk Modulus (GPa) = 46.62865 58.46648 52.54757
# Shear Modulus (GPa) = 45.57888 36.11050 40.84469
#
# Velocity S-wave (km/s) = 4.45464 3.96504 4.21695
# Velocity P-wave (km/s) = 6.83808 6.81299 6.82555
#
# Compressibility (1/GPa) = 0.02144604
#
# Stress axis : x y z
#
# Youngs Moduli (GPa) = 91.39683 80.84334 130.36139
#
# Poissons Ratio (x) = -0.11143 0.16123
# Poissons Ratio (y) = -0.12598 0.64000
# Poissons Ratio (z) = 0.11304 0.39690
#
# Static dielectric constant tensor:
#      x y z
#    x 1.920910 0.000000 0.000000 
#    y 0.000000 1.809410 0.000000 
#    z 0.000000 0.000000 1.877290 
# 
# From -- ./inp_files/74200.got.cif
#   From: 2010.05.17/outbox.cif.g08.bks.cpg/sg65_38_cif.got.tgz:74200.got - 2010.06.03 17:01:31.
