data_PCOD9484966
_publ_section_title
;
Structure prediction by ZEFSAII (Michael W. Deem and Ramdas Pophale) SiO2 
 PCOD9484966
Probable space group: C M M M
;
_chemical_formula_sum "Si O2"
_cell_formula_units_Z 96
_cell_length_a 14.704305
_cell_length_b 21.525291
_cell_length_c 16.038065
_cell_angle_alpha 90.000000
_cell_angle_beta 90.000000
_cell_angle_gamma 90.000000
_cell_volume 5076.279228
_symmetry_space_group_name_H-M "C M M M"
_symmetry_group_IT_number 65
_symmetry_cell_setting 'orthorhombic'
loop_
_space_group_symop_operation_xyz
x,y,z
-x,-y,z
x,-y,-z
-x,y,-z
-x,-y,-z
x,y,-z
-x,y,z
x,-y,z
1/2+x,1/2+y,z
1/2-x,1/2-y,z
1/2+x,1/2-y,-z
1/2-x,1/2+y,-z
1/2-x,1/2-y,-z
1/2+x,1/2+y,-z
1/2-x,1/2+y,z
1/2+x,1/2-y,z
loop_
_atom_site_type_symbol
_atom_site_label
_atom_site_fract_x
_atom_site_fract_y
_atom_site_fract_z
Si Si1 0.709949 0.575724 0.167741
Si Si2 0.641004 0.248495 0.592998
Si Si3 0.604544 0.575418 0.000000
Si Si4 0.104520 0.871153 0.325732
Si Si5 0.610536 0.427211 0.500000
Si Si6 0.602606 0.927722 0.225987
Si Si7 0.105999 0.397132 0.408963
O O1 0.707663 0.500000 0.174707
O O2 0.657972 0.593680 0.083477
O O3 0.659869 0.604919 0.247267
O O4 0.815285 0.597167 0.170038
O O5 0.610817 0.269002 0.500000
O O6 0.750000 0.250000 0.595131
O O7 0.606607 0.296965 0.660809
O O8 0.611487 0.177363 0.601150
O O9 0.602369 0.500000 0.000000
O O10 0.500000 0.597042 0.000000
O O11 0.143453 0.897325 0.413476
O O12 0.000000 0.892141 0.317308
O O13 0.630370 0.500000 0.500000
O O14 0.500000 0.419461 0.500000
O O15 0.500000 0.900292 0.221368
O O16 0.638337 0.924251 0.321675
O O17 0.593635 0.000000 0.204883
O O18 0.146946 0.413133 0.500000
O O19 0.000000 0.415547 0.412952
#
# Coordination Sequence:
#
# PCOD9484966 Si02
#       7
#    16  16   8  16   8  16  16
#     4  10  20  34  52  76 103 133 169 212 260 312
#     4  10  19  30  44  65  95 133 174 218 253 294
#     4   9  18  34  55  77 102 131 164 206 258 314
#     4  11  20  31  49  72 101 136 173 210 254 306
#     4   9  18  30  43  64  99 139 171 202 246 302
#     4   9  18  33  51  73 102 134 170 216 263 308
#     4   9  17  29  46  66  93 132 175 214 252 294
#
# _framework density 18.911490000000001
#
# number of rings (size 3 to 8) (size 9 to 14) (size 15 to 20)
#    0.000    2.333    0.833    2.500    0.000    2.667 
#    1.500    2.083    0.000    2.500    0.000    5.250 
#    0.000    5.333    0.000    0.000    0.000    0.000 
#
# Total GULP energy -267657.510072 kJ/mol
# GULP energy per Si atom -5576.198126 kJ/mol
# Density = 1.886845 g / cm^3
# Si number density = 18.911490 Si / 1000 Ang^3
#
#
#
# Elastic Constant Matrix: (Units=GPa)
#
#
# Indices 1 2 3 4 5 6 
#
# 1 120.2085 4.1128 67.5616 0.0000 0.0000 0.0000
# 2 4.1128 27.5780 14.8406 0.0000 0.0000 0.0000
# 3 67.5616 14.8406 116.3841 0.0000 0.0000 0.0000
# 4 0.0000 0.0000 0.0000 19.5012 0.0000 0.0000
# 5 0.0000 0.0000 0.0000 0.0000 29.4322 0.0000
# 6 0.0000 0.0000 0.0000 0.0000 0.0000 12.9852
#
#
#
# Elastic Compliance Matrix: (Units=1/GPa)
#
#
# Indices 1 2 3 4 5 6 
#
# 1 0.012469 0.002186 -0.007517 0.000000 0.000000 0.000000
# 2 0.002186 0.039315 -0.006282 0.000000 0.000000 0.000000
# 3 -0.007517 -0.006282 0.013757 0.000000 0.000000 0.000000
# 4 0.000000 0.000000 0.000000 0.051279 0.000000 0.000000
# 5 0.000000 0.000000 0.000000 0.000000 0.033976 0.000000
# 6 0.000000 0.000000 0.000000 0.000000 0.000000 0.077011
#
#
# Mechanical properties :
#
#
# Convention : Reuss Voigt Hill
#
# Bulk Modulus (GPa) = 23.63257 48.57785 36.10521
# Shear Modulus (GPa) = 18.85803 24.22741 21.54272
#
# Velocity S-wave (km/s) = 3.16123 3.58312 3.37877
# Velocity P-wave (km/s) = 5.08410 6.54684 5.86128
#
# Compressibility (1/GPa) = 0.04231449
#
# Stress axis : x y z
#
# Youngs Moduli (GPa) = 80.19940 25.43530 72.69061
#
# Poissons Ratio (x) = -0.05559 0.54641
# Poissons Ratio (y) = -0.17528 0.45664
# Poissons Ratio (z) = 0.60286 0.15979
#
# Static dielectric constant tensor:
#      x y z
#    x 1.730780 0.000000 0.000000 
#    y 0.000000 1.657140 0.000000 
#    z 0.000000 0.000000 1.646660 
# 
# From -- ./inp_files/40664.got.cif
#   From: 2010.05.17/outbox.cif.g08.bks.cpg/sg65_21_cif.got.tgz:40664.got - 2010.06.03 17:01:31.
