data_PCOD9484827
_publ_section_title
;
Structure prediction by ZEFSAII (Michael W. Deem and Ramdas Pophale) SiO2 
 PCOD9484827
Probable space group: C M M M
;
_chemical_formula_sum "Si O2"
_cell_formula_units_Z 96
_cell_length_a 20.752500
_cell_length_b 29.849961
_cell_length_c 7.331275
_cell_angle_alpha 90.000000
_cell_angle_beta 90.000000
_cell_angle_gamma 90.000000
_cell_volume 4541.441257
_symmetry_space_group_name_H-M "C M M M"
_symmetry_group_IT_number 65
_symmetry_cell_setting 'orthorhombic'
loop_
_space_group_symop_operation_xyz
x,y,z
-x,-y,z
x,-y,-z
-x,y,-z
-x,-y,-z
x,y,-z
-x,y,z
x,-y,z
1/2+x,1/2+y,z
1/2-x,1/2-y,z
1/2+x,1/2-y,-z
1/2-x,1/2+y,-z
1/2-x,1/2-y,-z
1/2+x,1/2+y,-z
1/2-x,1/2+y,z
1/2+x,1/2-y,z
loop_
_atom_site_type_symbol
_atom_site_label
_atom_site_fract_x
_atom_site_fract_y
_atom_site_fract_z
Si Si1 0.212769 0.704542 0.278545
Si Si2 0.568993 0.053735 0.219641
Si Si3 0.571550 0.324971 0.220817
Si Si4 0.291203 0.947999 0.223095
Si Si5 0.806346 0.122986 0.209762
Si Si6 0.928835 0.280365 0.711014
O O1 0.211524 0.704605 0.500000
O O2 0.250000 0.750000 0.222866
O O3 0.254718 0.663020 0.214485
O O4 0.138830 0.702195 0.212179
O O5 0.500000 0.071717 0.287396
O O6 0.638605 0.070467 0.283617
O O7 0.569273 0.000000 0.254777
O O8 0.568380 0.058722 0.000000
O O9 0.500000 0.340432 0.271166
O O10 0.628363 0.356626 0.289582
O O11 0.578433 0.273707 0.284066
O O12 0.575389 0.322985 0.000000
O O13 0.231317 0.919139 0.289776
O O14 0.286486 0.000000 0.273559
O O15 0.291622 0.946237 0.000000
O O16 0.821498 0.111455 0.000000
O O17 0.930972 0.294394 0.500000
O O18 0.000000 0.290852 0.790346
#
# Coordination Sequence:
#
# PCOD9484827 Si02
#       6
#    16  16  16  16  16  16
#     4  10  19  31  46  66  91 117 145 180 220 261
#     4   7   9  15  30  51  74 102 135 169 205 245
#     4   9  17  28  42  62  88 115 144 181 221 260
#     4   8  14  25  40  59  84 113 146 182 218 258
#     4  10  19  29  45  68  90 116 149 183 224 268
#     4   9  17  30  47  64  85 117 153 181 209 255
#
# _framework density 21.138662
#
# number of rings (size 3 to 8) (size 9 to 14) (size 15 to 20)
#    0.000    3.167    1.667    1.500    0.000    1.000 
#    0.000    0.833    0.000    2.000    0.000    3.500 
#    0.000    0.000    0.000   14.000    0.000    9.333 
#
# Total GULP energy -267622.653674 kJ/mol
# GULP energy per Si atom -5575.471952 kJ/mol
# Density = 2.109055 g / cm^3
# Si number density = 21.138662 Si / 1000 Ang^3
#
#
#
# Elastic Constant Matrix: (Units=GPa)
#
#
# Indices 1 2 3 4 5 6 
#
# 1 182.9911 28.9984 0.0431 0.0000 0.0000 0.0000
# 2 28.9984 33.8700 -9.0807 0.0000 0.0000 0.0000
# 3 0.0431 -9.0807 82.7258 0.0000 0.0000 0.0000
# 4 0.0000 0.0000 0.0000 12.4981 0.0000 0.0000
# 5 0.0000 0.0000 0.0000 0.0000 -270.8677 0.0000
# 6 0.0000 0.0000 0.0000 0.0000 0.0000 25.2518
#
#
#
# Elastic Compliance Matrix: (Units=1/GPa)
#
#
# Indices 1 2 3 4 5 6 
#
# 1 0.006353 -0.005605 -0.000619 0.000000 0.000000 0.000000
# 2 -0.005605 0.035365 0.003885 0.000000 0.000000 0.000000
# 3 -0.000619 0.003885 0.012515 0.000000 0.000000 0.000000
# 4 0.000000 0.000000 0.000000 0.080012 0.000000 0.000000
# 5 0.000000 0.000000 0.000000 0.000000 -0.003692 0.000000
# 6 0.000000 0.000000 0.000000 0.000000 0.000000 0.039601
#
#
# Mechanical properties :
#
#
# Convention : Reuss Voigt Hill
#
# Bulk Modulus (GPa) = 20.17941 37.72319 28.95130
# Shear Modulus (GPa) = 26.12998 -27.98182 -0.92592
#
# Velocity S-wave (km/s) = 3.51967 -3.64225 -0.66255
# Velocity P-wave (km/s) = 5.10728 0.44308 3.62496
#
# Compressibility (1/GPa) = 0.04955545
#
# Stress axis : x y z
#
# Youngs Moduli (GPa) = 157.40236 28.27637 79.90486
#
# Poissons Ratio (x) = 0.15849 0.04943
# Poissons Ratio (y) = 0.88227 -0.31042
# Poissons Ratio (z) = 0.09737 -0.10985
#
# Static dielectric constant tensor:
#      x y z
#    x 1.808750 0.000000 0.000000 
#    y 0.000000 1.729000 0.000000 
#    z 0.000000 0.000000 1.889260 
# 
# From -- ./inp_files/12196.got.cif
#   From: 2010.05.17/outbox.cif.g08.bks.cpg/sg65_7_cif.got.tgz:12196.got - 2010.06.03 17:01:31.
