data_PCOD9484003
_publ_section_title
;
Structure prediction by ZEFSAII (Michael W. Deem and Ramdas Pophale) SiO2 
 PCOD9484003
Probable space group: C M M M
;
_chemical_formula_sum "Si O2"
_cell_formula_units_Z 88
_cell_length_a 14.564874
_cell_length_b 18.576267
_cell_length_c 17.753509
_cell_angle_alpha 90.000000
_cell_angle_beta 90.000000
_cell_angle_gamma 90.000000
_cell_volume 4803.406940
_symmetry_space_group_name_H-M "C M M M"
_symmetry_group_IT_number 65
_symmetry_cell_setting 'orthorhombic'
loop_
_space_group_symop_operation_xyz
x,y,z
-x,-y,z
x,-y,-z
-x,y,-z
-x,-y,-z
x,y,-z
-x,y,z
x,-y,z
1/2+x,1/2+y,z
1/2-x,1/2-y,z
1/2+x,1/2-y,-z
1/2-x,1/2+y,-z
1/2-x,1/2-y,-z
1/2+x,1/2+y,-z
1/2-x,1/2+y,z
1/2+x,1/2-y,z
loop_
_atom_site_type_symbol
_atom_site_label
_atom_site_fract_x
_atom_site_fract_y
_atom_site_fract_z
Si Si1 0.106364 0.302111 0.776985
Si Si2 0.220542 0.671230 0.624787
Si Si3 0.602287 0.417702 0.334477
Si Si4 0.897644 0.135292 0.170505
Si Si5 0.723303 0.835085 0.084235
Si Si6 0.609978 0.914552 0.500000
O O1 0.170308 0.318115 0.705461
O O2 0.110469 0.216715 0.795909
O O3 0.147059 0.341177 0.850855
O O4 0.000000 0.320350 0.762858
O O5 0.250000 0.750000 0.596277
O O6 0.314918 0.627890 0.633575
O O7 0.153657 0.626340 0.571241
O O8 0.500000 0.389132 0.352916
O O9 0.608029 0.500000 0.359770
O O10 0.609988 0.414316 0.243747
O O11 0.815513 0.125664 0.112285
O O12 0.000000 0.128314 0.137676
O O13 0.750000 0.750000 0.081768
O O14 0.695078 0.856115 0.000000
O O15 0.500000 0.907972 0.500000
O O16 0.632562 0.000000 0.500000
#
# Coordination Sequence:
#
# PCOD9484003 Si02
#       6
#    16  16  16  16  16   8
#     4  10  18  30  52  81 111 146 187 235 284 331
#     4  12  21  39  63  88 114 146 191 237 284 337
#     4  10  20  34  56  85 115 146 182 228 283 344
#     4   9  16  29  47  74 109 144 185 231 280 334
#     4   9  16  27  43  73 112 148 187 233 284 332
#     4  11  27  46  61  85 119 153 188 231 282 338
#
# _framework density 18.320329000000001
#
# number of rings (size 3 to 8) (size 9 to 14) (size 15 to 20)
#    0.000    1.909    3.636    1.909    0.000    1.455 
#    0.000    4.091    0.000    2.182    0.000    2.545 
#    0.000    1.455    0.000    0.000    0.000    0.000 
#
# Total GULP energy -245427.119097 kJ/mol
# GULP energy per Si atom -5577.889070 kJ/mol
# Density = 1.827863 g / cm^3
# Si number density = 18.320329 Si / 1000 Ang^3
#
#
#
# Elastic Constant Matrix: (Units=GPa)
#
#
# Indices 1 2 3 4 5 6 
#
# 1 130.9872 52.0593 45.7721 0.0000 0.0000 0.0000
# 2 52.0593 64.7527 30.8942 0.0000 0.0000 0.0000
# 3 45.7721 30.8942 81.2717 0.0000 0.0000 0.0000
# 4 0.0000 0.0000 0.0000 2.8557 0.0000 0.0000
# 5 0.0000 0.0000 0.0000 0.0000 17.1987 0.0000
# 6 0.0000 0.0000 0.0000 0.0000 0.0000 21.8116
#
#
#
# Elastic Compliance Matrix: (Units=1/GPa)
#
#
# Indices 1 2 3 4 5 6 
#
# 1 0.012114 -0.007921 -0.003812 0.000000 0.000000 0.000000
# 2 -0.007921 0.024044 -0.004679 0.000000 0.000000 0.000000
# 3 -0.003812 -0.004679 0.016230 0.000000 0.000000 0.000000
# 4 0.000000 0.000000 0.000000 0.350183 0.000000 0.000000
# 5 0.000000 0.000000 0.000000 0.000000 0.058144 0.000000
# 6 0.000000 0.000000 0.000000 0.000000 0.000000 0.045847
#
#
# Mechanical properties :
#
#
# Convention : Reuss Voigt Hill
#
# Bulk Modulus (GPa) = 51.11192 59.38476 55.24834
# Shear Modulus (GPa) = 9.15907 18.25892 13.70900
#
# Velocity S-wave (km/s) = 2.23836 3.16040 2.73846
# Velocity P-wave (km/s) = 5.88557 6.76776 6.34202
#
# Compressibility (1/GPa) = 0.01956491
#
# Stress axis : x y z
#
# Youngs Moduli (GPa) = 82.54614 41.59051 61.61518
#
# Poissons Ratio (x) = 0.32944 0.23486
# Poissons Ratio (y) = 0.65385 0.28829
# Poissons Ratio (z) = 0.31465 0.19459
#
# Static dielectric constant tensor:
#      x y z
#    x 1.630900 0.000000 0.000000 
#    y 0.000000 1.637200 0.000000 
#    z 0.000000 0.000000 1.635390 
# 
# From -- ./inp_files/52995.got.cif
#   From: 2010.05.17/outbox.cif.g08.bks.cpg/sg65_27_cif.got.tgz:52995.got - 2010.06.03 17:01:31.
