data_PCOD9484734
_publ_section_title
;
Structure prediction by ZEFSAII (Michael W. Deem and Ramdas Pophale) SiO2 
 PCOD9484734
Probable space group: C M M M
;
_chemical_formula_sum "Si O2"
_cell_formula_units_Z 96
_cell_length_a 22.164431
_cell_length_b 31.038144
_cell_length_c 7.675647
_cell_angle_alpha 90.000000
_cell_angle_beta 90.000000
_cell_angle_gamma 90.000000
_cell_volume 5280.406097
_symmetry_space_group_name_H-M "C M M M"
_symmetry_group_IT_number 65
_symmetry_cell_setting 'orthorhombic'
loop_
_space_group_symop_operation_xyz
x,y,z
-x,-y,z
x,-y,-z
-x,y,-z
-x,-y,-z
x,y,-z
-x,y,z
x,-y,z
1/2+x,1/2+y,z
1/2-x,1/2-y,z
1/2+x,1/2-y,-z
1/2-x,1/2+y,-z
1/2-x,1/2-y,-z
1/2+x,1/2+y,-z
1/2-x,1/2+y,z
1/2+x,1/2-y,z
loop_
_atom_site_type_symbol
_atom_site_label
_atom_site_fract_x
_atom_site_fract_y
_atom_site_fract_z
Si Si1 0.402431 0.339513 0.789628
Si Si2 0.301328 0.546869 0.710586
Si Si3 0.695396 0.779250 0.297607
Si Si4 0.565174 0.244033 0.704784
Si Si5 0.064474 0.065506 0.295669
Si Si6 0.233703 0.141019 0.794885
O O1 0.430287 0.295630 0.722041
O O2 0.432717 0.382868 0.721570
O O3 0.332283 0.342773 0.734246
O O4 0.405366 0.339935 0.000000
O O5 0.303627 0.548000 0.500000
O O6 0.277225 0.500000 0.763921
O O7 0.370892 0.550465 0.776196
O O8 0.266076 0.589756 0.764963
O O9 0.690343 0.765699 0.500000
O O10 0.750000 0.750000 0.221106
O O11 0.628845 0.772592 0.219217
O O12 0.716444 0.828631 0.289283
O O13 0.564275 0.232443 0.500000
O O14 0.500000 0.230351 0.779469
O O15 0.064452 0.053791 0.500000
O O16 0.000000 0.050939 0.220994
O O17 0.237196 0.148721 0.000000
#
# Coordination Sequence:
#
# PCOD9484734 Si02
#       6
#    16  16  16  16  16  16
#     4  10  19  29  42  62  89 121 158 197 234 273
#     4   9  18  32  49  67  88 116 152 196 242 285
#     4  10  19  32  51  71  92 124 162 196 231 277
#     4  10  20  32  46  66  93 123 156 195 236 274
#     4   9  17  28  42  60  84 116 154 195 238 281
#     4  10  20  32  48  69  93 122 156 197 238 278
#
# _framework density 18.180420000000002
#
# number of rings (size 3 to 8) (size 9 to 14) (size 15 to 20)
#    0.000    2.333    1.667    1.500    0.000    5.667 
#    0.000    1.667    0.000    0.000    0.000    4.667 
#    0.000    0.667    0.000    7.667    0.000    2.167 
#
# Total GULP energy -267698.635376 kJ/mol
# GULP energy per Si atom -5577.054904 kJ/mol
# Density = 1.813904 g / cm^3
# Si number density = 18.180420 Si / 1000 Ang^3
#
#
#
# Elastic Constant Matrix: (Units=GPa)
#
#
# Indices 1 2 3 4 5 6 
#
# 1 125.5580 52.6224 6.6205 0.0000 0.0000 0.0000
# 2 52.6224 91.1489 -7.1019 0.0000 0.0000 0.0000
# 3 6.6205 -7.1019 37.4569 0.0000 0.0000 0.0000
# 4 0.0000 0.0000 0.0000 34.9834 0.0000 0.0000
# 5 0.0000 0.0000 0.0000 0.0000 0.9079 0.0000
# 6 0.0000 0.0000 0.0000 0.0000 0.0000 6.2899
#
#
#
# Elastic Compliance Matrix: (Units=1/GPa)
#
#
# Indices 1 2 3 4 5 6 
#
# 1 0.010862 -0.006517 -0.003155 0.000000 0.000000 0.000000
# 2 -0.006517 0.015045 0.004004 0.000000 0.000000 0.000000
# 3 -0.003155 0.004004 0.028014 0.000000 0.000000 0.000000
# 4 0.000000 0.000000 0.000000 0.028585 0.000000 0.000000
# 5 0.000000 0.000000 0.000000 0.000000 1.101452 0.000000
# 6 0.000000 0.000000 0.000000 0.000000 0.000000 0.158985
#
#
# Mechanical properties :
#
#
# Convention : Reuss Voigt Hill
#
# Bulk Modulus (GPa) = 23.48175 39.82728 31.65452
# Shear Modulus (GPa) = 3.65370 21.90442 12.77906
#
# Velocity S-wave (km/s) = 1.41917 3.47484 2.65411
# Velocity P-wave (km/s) = 3.95340 6.16876 5.18088
#
# Compressibility (1/GPa) = 0.04258627
#
# Stress axis : x y z
#
# Youngs Moduli (GPa) = 92.06353 66.46565 35.69597
#
# Poissons Ratio (x) = 0.43314 0.11264
# Poissons Ratio (y) = 0.59996 -0.14294
# Poissons Ratio (z) = 0.29050 -0.26616
#
# Static dielectric constant tensor:
#      x y z
#    x 1.671160 0.000000 0.000000 
#    y 0.000000 1.624520 0.000000 
#    z 0.000000 0.000000 1.663490 
# 
# From -- ./inp_files/12184.got.cif
#   From: 2010.05.17/outbox.cif.g08.bks.cpg/sg65_7_cif.got.tgz:12184.got - 2010.06.03 17:01:31.
