data_PCOD9484549
_publ_section_title
;
Structure prediction by ZEFSAII (Michael W. Deem and Ramdas Pophale) SiO2 
 PCOD9484549
Probable space group: C M M M
;
_chemical_formula_sum "Si O2"
_cell_formula_units_Z 72
_cell_length_a 15.025420
_cell_length_b 36.830832
_cell_length_c 8.662199
_cell_angle_alpha 90.000000
_cell_angle_beta 90.000000
_cell_angle_gamma 90.000000
_cell_volume 4793.649837
_symmetry_space_group_name_H-M "C M M M"
_symmetry_group_IT_number 65
_symmetry_cell_setting 'orthorhombic'
loop_
_space_group_symop_operation_xyz
x,y,z
-x,-y,z
x,-y,-z
-x,y,-z
-x,-y,-z
x,y,-z
-x,y,z
x,-y,z
1/2+x,1/2+y,z
1/2-x,1/2-y,z
1/2+x,1/2-y,-z
1/2-x,1/2+y,-z
1/2-x,1/2-y,-z
1/2+x,1/2+y,-z
1/2-x,1/2+y,z
1/2+x,1/2-y,z
loop_
_atom_site_type_symbol
_atom_site_label
_atom_site_fract_x
_atom_site_fract_y
_atom_site_fract_z
Si Si1 0.607808 0.000000 0.176989
Si Si2 0.197666 0.786674 0.812686
Si Si3 0.000000 0.233744 0.186754
Si Si4 0.324055 0.149176 0.815058
Si Si5 0.104078 0.577268 0.315619
Si Si6 0.500000 0.813815 0.683132
O O1 0.633005 0.037428 0.259641
O O2 0.500000 0.000000 0.177866
O O3 0.637912 0.000000 0.000000
O O4 0.250000 0.750000 0.759626
O O5 0.245707 0.823690 0.761457
O O6 0.093352 0.785284 0.773753
O O7 0.203601 0.786020 0.000000
O O8 0.000000 0.271716 0.274807
O O9 0.000000 0.240162 0.000000
O O10 0.332843 0.108746 0.749057
O O11 0.413710 0.168690 0.759393
O O12 0.321617 0.147202 0.000000
O O13 0.103782 0.578617 0.500000
O O14 0.000000 0.583228 0.264496
O O15 0.500000 0.820238 0.500000
#
# Coordination Sequence:
#
# PCOD9484549 Si02
#       6
#     8  16   8  16  16   8
#     4   9  17  29  45  65  89 122 159 184 218 266
#     4   9  17  29  48  71  87 113 154 196 234 271
#     4  10  18  34  52  64  87 118 153 194 236 280
#     4  11  20  31  47  66  89 120 160 195 227 270
#     4  10  19  30  44  65  94 122 152 188 229 268
#     4  12  22  30  42  65  91 118 153 193 238 274
#
# _framework density 15.019871999999999
#
# number of rings (size 3 to 8) (size 9 to 14) (size 15 to 20)
#    0.000    1.889    3.333    2.667    0.000    2.222 
#    0.000    3.333    0.000    0.000    0.000    0.000 
#    0.000    0.889    0.000   10.444    0.000    2.000 
#
# Total GULP energy -200694.195390 kJ/mol
# GULP energy per Si atom -5574.838761 kJ/mol
# Density = 1.498569 g / cm^3
# Si number density = 15.019872 Si / 1000 Ang^3
#
#
#
# Elastic Constant Matrix: (Units=GPa)
#
#
# Indices 1 2 3 4 5 6 
#
# 1 85.2749 56.9777 12.9922 0.0000 0.0000 0.0000
# 2 56.9777 146.4256 33.4365 0.0000 0.0000 0.0000
# 3 12.9922 33.4365 38.0732 0.0000 0.0000 0.0000
# 4 0.0000 0.0000 0.0000 -91.6752 0.0000 0.0000
# 5 0.0000 0.0000 0.0000 0.0000 4.1317 0.0000
# 6 0.0000 0.0000 0.0000 0.0000 0.0000 -17.5013
#
#
#
# Elastic Compliance Matrix: (Units=1/GPa)
#
#
# Indices 1 2 3 4 5 6 
#
# 1 0.015847 -0.006169 0.000010 0.000000 0.000000 0.000000
# 2 -0.006169 0.010944 -0.007506 0.000000 0.000000 0.000000
# 3 0.000010 -0.007506 0.032854 0.000000 0.000000 0.000000
# 4 0.000000 0.000000 0.000000 -0.010908 0.000000 0.000000
# 5 0.000000 0.000000 0.000000 0.000000 0.242030 0.000000
# 6 0.000000 0.000000 0.000000 0.000000 0.000000 -0.057139
#
#
# Mechanical properties :
#
#
# Convention : Reuss Voigt Hill
#
# Bulk Modulus (GPa) = 30.94567 52.95403 41.94985
# Shear Modulus (GPa) = 18.40068 -9.91779 4.24145
#
# Velocity S-wave (km/s) = 3.50392 -2.57244 1.68227
# Velocity P-wave (km/s) = 6.08423 5.14871 5.63592
#
# Compressibility (1/GPa) = 0.03231470
#
# Stress axis : x y z
#
# Youngs Moduli (GPa) = 63.10353 91.37611 30.43793
#
# Poissons Ratio (x) = 0.56367 -0.00030
# Poissons Ratio (y) = 0.38926 0.22847
# Poissons Ratio (z) = -0.00061 0.68587
#
# Static dielectric constant tensor:
#      x y z
#    x 1.494640 0.000000 0.000000 
#    y 0.000000 1.514170 0.000000 
#    z 0.000000 0.000000 1.503070 
# 
# From -- ./inp_files/7761.got.cif
#   From: 2010.05.17/outbox.cif.g08.bks.cpg/sg65_4_cif.got.tgz:7761.got - 2010.06.03 17:01:31.
