data_PCOD9484858
_publ_section_title
;
Structure prediction by ZEFSAII (Michael W. Deem and Ramdas Pophale) SiO2 
 PCOD9484858
Probable space group: C M M M
;
_chemical_formula_sum "Si O2"
_cell_formula_units_Z 72
_cell_length_a 17.200637
_cell_length_b 22.275800
_cell_length_c 11.921858
_cell_angle_alpha 90.000000
_cell_angle_beta 90.000000
_cell_angle_gamma 90.000000
_cell_volume 4567.954668
_symmetry_space_group_name_H-M "C M M M"
_symmetry_group_IT_number 65
_symmetry_cell_setting 'orthorhombic'
loop_
_space_group_symop_operation_xyz
x,y,z
-x,-y,z
x,-y,-z
-x,y,-z
-x,-y,-z
x,y,-z
-x,y,z
x,-y,z
1/2+x,1/2+y,z
1/2-x,1/2-y,z
1/2+x,1/2-y,-z
1/2-x,1/2+y,-z
1/2-x,1/2-y,-z
1/2+x,1/2+y,-z
1/2-x,1/2+y,z
1/2+x,1/2-y,z
loop_
_atom_site_type_symbol
_atom_site_label
_atom_site_fract_x
_atom_site_fract_y
_atom_site_fract_z
Si Si1 0.696375 0.306325 0.295556
Si Si2 0.089844 0.728769 0.867037
Si Si3 0.411740 0.679108 0.500000
Si Si4 0.405956 0.000000 0.363936
Si Si5 0.154226 0.625240 0.273942
Si Si6 0.913179 0.677706 0.500000
O O1 0.750000 0.250000 0.338535
O O2 0.645512 0.274977 0.198425
O O3 0.639716 0.332745 0.390079
O O4 0.755595 0.357946 0.256139
O O5 0.108686 0.661874 0.821930
O O6 0.000000 0.742217 0.839696
O O7 0.101210 0.732259 0.000000
O O8 0.500000 0.654521 0.500000
O O9 0.419268 0.751226 0.500000
O O10 0.370520 0.942399 0.299824
O O11 0.500000 0.000000 0.355662
O O12 0.387889 0.000000 0.500000
O O13 0.130011 0.657199 0.389850
O O14 0.000000 0.650771 0.500000
#
# Coordination Sequence:
#
# PCOD9484858 Si02
#       6
#    16  16   8   8  16   8
#     4  10  19  29  46  71 100 129 160 199 251 298
#     4  10  20  34  52  74 101 131 162 201 249 301
#     4  11  18  26  44  71 100 126 157 198 250 309
#     4  11  22  34  51  73  99 136 174 205 235 280
#     4  11  21  32  49  71 101 131 168 206 243 283
#     4  11  17  26  46  68  97 129 158 197 243 292
#
# _framework density 15.761977999999999
#
# number of rings (size 3 to 8) (size 9 to 14) (size 15 to 20)
#    0.000    1.444    5.556    3.667    0.000    4.000 
#    0.000    0.556    0.000    2.000    0.000    3.889 
#    0.000    1.778    0.000    0.000    0.000    0.000 
#
# Total GULP energy -200606.115189 kJ/mol
# GULP energy per Si atom -5572.392089 kJ/mol
# Density = 1.572610 g / cm^3
# Si number density = 15.761978 Si / 1000 Ang^3
#
#
#
# Elastic Constant Matrix: (Units=GPa)
#
#
# Indices 1 2 3 4 5 6 
#
# 1 122.1494 45.4175 51.5634 0.0000 0.0000 0.0000
# 2 45.4175 82.7006 23.5884 0.0000 0.0000 0.0000
# 3 51.5634 23.5884 62.9357 0.0000 0.0000 0.0000
# 4 0.0000 0.0000 0.0000 4.1593 0.0000 0.0000
# 5 0.0000 0.0000 0.0000 0.0000 23.1081 0.0000
# 6 0.0000 0.0000 0.0000 0.0000 0.0000 16.6882
#
#
#
# Elastic Compliance Matrix: (Units=1/GPa)
#
#
# Indices 1 2 3 4 5 6 
#
# 1 0.014147 -0.004998 -0.009718 0.000000 0.000000 0.000000
# 2 -0.004998 0.015305 -0.001642 0.000000 0.000000 0.000000
# 3 -0.009718 -0.001642 0.024466 0.000000 0.000000 0.000000
# 4 0.000000 0.000000 0.000000 0.240422 0.000000 0.000000
# 5 0.000000 0.000000 0.000000 0.000000 0.043275 0.000000
# 6 0.000000 0.000000 0.000000 0.000000 0.000000 0.059923
#
#
# Mechanical properties :
#
#
# Convention : Reuss Voigt Hill
#
# Bulk Modulus (GPa) = 47.16054 56.54715 51.85385
# Shear Modulus (GPa) = 11.43329 18.60556 15.01942
#
# Velocity S-wave (km/s) = 2.69619 3.43943 3.09024
# Velocity P-wave (km/s) = 6.29905 7.19211 6.76034
#
# Compressibility (1/GPa) = 0.02120417
#
# Stress axis : x y z
#
# Youngs Moduli (GPa) = 70.68627 65.33973 40.87273
#
# Poissons Ratio (x) = 0.32654 0.39719
# Poissons Ratio (y) = 0.35326 0.06710
# Poissons Ratio (z) = 0.68690 0.10727
#
# Static dielectric constant tensor:
#      x y z
#    x 1.580410 0.000000 0.000000 
#    y 0.000000 1.533780 0.000000 
#    z 0.000000 0.000000 1.522000 
# 
# From -- ./inp_files/26615.got.cif
#   From: 2010.05.17/outbox.cif.g08.bks.cpg/sg65_14_cif.got.tgz:26615.got - 2010.06.03 17:01:31.
