data_PCOD9484192
_publ_section_title
;
Structure prediction by ZEFSAII (Michael W. Deem and Ramdas Pophale) SiO2 
 PCOD9484192
Probable space group: C M M M
;
_chemical_formula_sum "Si O2"
_cell_formula_units_Z 72
_cell_length_a 28.355216
_cell_length_b 17.827237
_cell_length_c 8.113638
_cell_angle_alpha 90.000000
_cell_angle_beta 90.000000
_cell_angle_gamma 90.000000
_cell_volume 4101.404705
_symmetry_space_group_name_H-M "C M M M"
_symmetry_group_IT_number 65
_symmetry_cell_setting 'orthorhombic'
loop_
_space_group_symop_operation_xyz
x,y,z
-x,-y,z
x,-y,-z
-x,y,-z
-x,-y,-z
x,y,-z
-x,y,z
x,-y,z
1/2+x,1/2+y,z
1/2-x,1/2-y,z
1/2+x,1/2-y,-z
1/2-x,1/2+y,-z
1/2-x,1/2-y,-z
1/2+x,1/2+y,-z
1/2-x,1/2+y,z
1/2+x,1/2-y,z
loop_
_atom_site_type_symbol
_atom_site_label
_atom_site_fract_x
_atom_site_fract_y
_atom_site_fract_z
Si Si1 0.213479 0.180337 0.686574
Si Si2 0.057135 0.084962 0.000000
Si Si3 0.297377 0.915411 0.198811
Si Si4 0.865514 0.717878 0.808271
Si Si5 0.444126 0.313950 0.685539
O O1 0.197298 0.166825 0.500000
O O2 0.250000 0.250000 0.685736
O O3 0.245394 0.112306 0.749374
O O4 0.170048 0.211200 0.791271
O O5 0.069692 0.129749 0.166447
O O6 0.000000 0.081271 0.000000
O O7 0.075430 0.000000 0.000000
O O8 0.336196 0.854253 0.255210
O O9 0.306556 0.000000 0.255581
O O10 0.298770 0.913777 0.000000
O O11 0.912233 0.740532 0.711318
O O12 0.876838 0.706138 0.000000
O O13 0.436441 0.343814 0.500000
O O14 0.500000 0.298571 0.702503
#
# Coordination Sequence:
#
# PCOD9484192 Si02
#       5
#    16   8  16  16  16
#     4   9  17  29  46  69  96 127 166 210 256 309
#     4   9  18  34  54  76 102 131 167 211 260 310
#     4   9  18  32  50  74 103 134 171 216 264 312
#     4  10  18  31  53  75 100 137 177 216 260 311
#     4  10  20  34  54  80 108 139 177 219 260 307
#
# _framework density 17.554962
#
# number of rings (size 3 to 8) (size 9 to 14) (size 15 to 20)
#    0.000    2.556    1.111    1.333    0.000    4.444 
#    0.000    3.333    0.000    3.333    0.000    4.667 
#    0.000    0.000    0.000    0.000    0.000    0.000 
#
# Total GULP energy -200514.458490 kJ/mol
# GULP energy per Si atom -5569.846069 kJ/mol
# Density = 1.751501 g / cm^3
# Si number density = 17.554962 Si / 1000 Ang^3
#
#
#
# Elastic Constant Matrix: (Units=GPa)
#
#
# Indices 1 2 3 4 5 6 
#
# 1 59.3453 41.1885 24.0461 0.0000 0.0000 0.0000
# 2 41.1885 108.5251 31.8746 0.0000 0.0000 0.0000
# 3 24.0461 31.8746 76.5299 0.0000 0.0000 0.0000
# 4 0.0000 0.0000 0.0000 8.1811 0.0000 0.0000
# 5 0.0000 0.0000 0.0000 0.0000 19.2198 0.0000
# 6 0.0000 0.0000 0.0000 0.0000 0.0000 19.6198
#
#
#
# Elastic Compliance Matrix: (Units=1/GPa)
#
#
# Indices 1 2 3 4 5 6 
#
# 1 0.024046 -0.007870 -0.004278 0.000000 0.000000 0.000000
# 2 -0.007870 0.013074 -0.002973 0.000000 0.000000 0.000000
# 3 -0.004278 -0.002973 0.015649 0.000000 0.000000 0.000000
# 4 0.000000 0.000000 0.000000 0.122233 0.000000 0.000000
# 5 0.000000 0.000000 0.000000 0.000000 0.052030 0.000000
# 6 0.000000 0.000000 0.000000 0.000000 0.000000 0.050969
#
#
# Mechanical properties :
#
#
# Convention : Reuss Voigt Hill
#
# Bulk Modulus (GPa) = 44.38728 48.73544 46.56136
# Shear Modulus (GPa) = 15.83532 19.22355 17.52943
#
# Velocity S-wave (km/s) = 3.00666 3.31274 3.16341
# Velocity P-wave (km/s) = 6.11498 6.51569 6.31851
#
# Compressibility (1/GPa) = 0.02252898
#
# Stress axis : x y z
#
# Youngs Moduli (GPa) = 41.58743 76.48555 63.90194
#
# Poissons Ratio (x) = 0.60192 0.27335
# Poissons Ratio (y) = 0.32728 0.18996
# Poissons Ratio (z) = 0.17789 0.22737
#
# Static dielectric constant tensor:
#      x y z
#    x 1.598880 0.000000 0.000000 
#    y 0.000000 1.604800 0.000000 
#    z 0.000000 0.000000 1.629740 
# 
# From -- ./inp_files/15985.got.cif
#   From: 2010.05.17/outbox.cif.g08.bks.cpg/sg65_8_cif.got.tgz:15985.got - 2010.06.03 17:01:31.
