data_PCOD9484056
_publ_section_title
;
Structure prediction by ZEFSAII (Michael W. Deem and Ramdas Pophale) SiO2 
 PCOD9484056
Probable space group: C M M M
;
_chemical_formula_sum "Si O2"
_cell_formula_units_Z 104
_cell_length_a 27.056446
_cell_length_b 24.585922
_cell_length_c 7.252994
_cell_angle_alpha 90.000000
_cell_angle_beta 90.000000
_cell_angle_gamma 90.000000
_cell_volume 4824.747246
_symmetry_space_group_name_H-M "C M M M"
_symmetry_group_IT_number 65
_symmetry_cell_setting 'orthorhombic'
loop_
_space_group_symop_operation_xyz
x,y,z
-x,-y,z
x,-y,-z
-x,y,-z
-x,-y,-z
x,y,-z
-x,y,z
x,-y,z
1/2+x,1/2+y,z
1/2-x,1/2-y,z
1/2+x,1/2-y,-z
1/2-x,1/2+y,-z
1/2-x,1/2-y,-z
1/2+x,1/2+y,-z
1/2-x,1/2+y,z
1/2+x,1/2-y,z
loop_
_atom_site_type_symbol
_atom_site_label
_atom_site_fract_x
_atom_site_fract_y
_atom_site_fract_z
Si Si1 0.056077 0.558460 0.276297
Si Si2 0.824841 0.939080 0.724477
Si Si3 0.210054 0.562126 0.724083
Si Si4 0.943049 0.256314 0.274845
Si Si5 0.369537 0.150049 0.276532
Si Si6 0.908617 0.138704 0.288340
Si Si7 0.000000 0.062050 0.221318
O O1 0.055927 0.558958 0.500000
O O2 0.075831 0.500000 0.219067
O O3 0.088517 0.607711 0.219129
O O4 0.000000 0.563231 0.216191
O O5 0.826656 0.938804 0.500000
O O6 0.767550 0.931987 0.774924
O O7 0.860741 0.891496 0.791483
O O8 0.840908 0.000000 0.781600
O O9 0.206511 0.561239 0.500000
O O10 0.194648 0.500000 0.780849
O O11 0.179175 0.615757 0.783086
O O12 0.944741 0.258786 0.500000
O O13 0.895896 0.293588 0.218811
O O14 0.930443 0.194976 0.213626
O O15 0.000000 0.271231 0.218510
O O16 0.365422 0.153735 0.500000
O O17 0.895905 0.151809 0.500000
O O18 0.951941 0.094438 0.284693
O O19 0.000000 0.000000 0.284485
O O20 0.000000 0.062420 0.000000
#
# Coordination Sequence:
#
# PCOD9484056 Si02
#       7
#    16  16  16  16  16  16   8
#     4   8  12  16  22  35  57  90 137 183 214 253
#     4   8  14  24  39  58  78 104 143 185 217 254
#     4   8  13  21  32  49  76 109 145 185 227 267
#     4   9  16  25  36  53  78 111 151 188 215 250
#     4   9  14  19  29  45  70 106 144 182 225 259
#     4  10  18  31  49  67  89 122 155 176 206 261
#     4  11  23  35  49  73  99 115 136 181 230 264
#
# _framework density 21.555533
#
# number of rings (size 3 to 8) (size 9 to 14) (size 15 to 20)
#    0.000    3.154    0.769    3.000    0.000    4.923 
#    0.000    0.769    0.000    4.615    0.000    0.000 
#    0.000    2.462    0.000    0.462    0.000    5.538 
#
# Total GULP energy -289691.255825 kJ/mol
# GULP energy per Si atom -5570.985689 kJ/mol
# Density = 2.150647 g / cm^3
# Si number density = 21.555533 Si / 1000 Ang^3
#
#
#
# Elastic Constant Matrix: (Units=GPa)
#
#
# Indices 1 2 3 4 5 6 
#
# 1 121.9107 63.1753 -4.3205 0.0000 0.0000 0.0000
# 2 63.1753 130.9405 -4.0353 0.0000 0.0000 0.0000
# 3 -4.3205 -4.0353 95.3283 0.0000 0.0000 0.0000
# 4 0.0000 0.0000 0.0000 655.2114 0.0000 0.0000
# 5 0.0000 0.0000 0.0000 0.0000 -54.5784 0.0000
# 6 0.0000 0.0000 0.0000 0.0000 0.0000 28.8635
#
#
#
# Elastic Compliance Matrix: (Units=1/GPa)
#
#
# Indices 1 2 3 4 5 6 
#
# 1 0.010944 -0.005272 0.000273 0.000000 0.000000 0.000000
# 2 -0.005272 0.010187 0.000192 0.000000 0.000000 0.000000
# 3 0.000273 0.000192 0.010511 0.000000 0.000000 0.000000
# 4 0.000000 0.000000 0.000000 0.001526 0.000000 0.000000
# 5 0.000000 0.000000 0.000000 0.000000 -0.018322 0.000000
# 6 0.000000 0.000000 0.000000 0.000000 0.000000 0.034646
#
#
# Mechanical properties :
#
#
# Convention : Reuss Voigt Hill
#
# Bulk Modulus (GPa) = 45.39711 50.86872 48.13291
# Shear Modulus (GPa) = 75.24726 145.45664 110.35195
#
# Velocity S-wave (km/s) = 5.91476 8.22353 7.16278
# Velocity P-wave (km/s) = 8.23116 10.66859 9.52814
#
# Compressibility (1/GPa) = 0.02202784
#
# Stress axis : x y z
#
# Youngs Moduli (GPa) = 91.37111 98.16856 95.14234
#
# Poissons Ratio (x) = 0.51754 -0.02596
# Poissons Ratio (y) = 0.48171 -0.01829
# Poissons Ratio (z) = -0.02493 -0.01887
#
# Static dielectric constant tensor:
#      x y z
#    x 1.767730 0.000000 0.000000 
#    y 0.000000 1.781260 0.000000 
#    z 0.000000 0.000000 1.868580 
# 
# From -- ./inp_files/16741.got.cif
#   From: 2010.05.17/outbox.cif.g08.bks.cpg/sg65_9_cif.got.tgz:16741.got - 2010.06.03 17:01:31.
