data_PCOD9484618
_publ_section_title
;
Structure prediction by ZEFSAII (Michael W. Deem and Ramdas Pophale) SiO2 
 PCOD9484618
Probable space group: C M M M
;
_chemical_formula_sum "Si O2"
_cell_formula_units_Z 50
_cell_length_a 13.694542
_cell_length_b 10.117010
_cell_length_c 16.397604
_cell_angle_alpha 90.000000
_cell_angle_beta 90.000000
_cell_angle_gamma 90.000000
_cell_volume 2271.852261
_symmetry_space_group_name_H-M "C M M M"
_symmetry_group_IT_number 65
_symmetry_cell_setting 'orthorhombic'
loop_
_space_group_symop_operation_xyz
x,y,z
-x,-y,z
x,-y,-z
-x,y,-z
-x,-y,-z
x,y,-z
-x,y,z
x,-y,z
1/2+x,1/2+y,z
1/2-x,1/2-y,z
1/2+x,1/2-y,-z
1/2-x,1/2+y,-z
1/2-x,1/2-y,-z
1/2+x,1/2+y,-z
1/2-x,1/2+y,z
1/2+x,1/2-y,z
loop_
_atom_site_type_symbol
_atom_site_label
_atom_site_fract_x
_atom_site_fract_y
_atom_site_fract_z
Si Si1 0.180628 0.000000 0.869266
Si Si2 0.118750 0.348867 0.408137
Si Si3 0.000000 0.000000 0.000000
Si Si4 0.611461 0.728131 0.757047
Si Si5 0.893285 0.500000 0.142337
O O1 0.171753 0.872780 0.811115
O O2 0.290585 0.000000 0.905393
O O3 0.088228 0.000000 0.929786
O O4 0.145953 0.309745 0.500000
O O5 0.152738 0.500000 0.393549
O O6 0.145329 0.251736 0.335129
O O7 0.000000 0.354282 0.405764
O O8 0.500000 0.677503 0.754854
O O9 0.607934 0.870279 0.801109
O O10 0.000000 0.500000 0.099258
#
# Coordination Sequence:
#
# PCOD9484618 Si02
#       5
#     8  16   2  16   8
#     4  12  24  44  70  92 132 173 222 260 343 418
#     4   8  13  24  50  92 135 177 221 269 322 375
#     4  12  28  52  70  98 130 184 200 256 360 448
#     4  10  18  36  64  99 129 176 223 271 319 397
#     4  10  22  40  70 100 128 164 227 275 314 379
#
# _framework density 22.008475000000001
#
# number of rings (size 3 to 8) (size 9 to 14) (size 15 to 20)
#    0.000    2.240    3.200    1.920    0.000    0.000 
#    0.000    4.400    0.000    9.600    0.000    0.000 
#    0.000    0.000    0.000    0.320    0.000    0.320 
#
# Total GULP energy -139270.436726 kJ/mol
# GULP energy per Si atom -5570.817469 kJ/mol
# Density = 2.195838 g / cm^3
# Si number density = 22.008475 Si / 1000 Ang^3
#
#
#
# Elastic Constant Matrix: (Units=GPa)
#
#
# Indices 1 2 3 4 5 6 
#
# 1 201.7419 11.7447 45.0167 0.0000 0.0000 0.0000
# 2 11.7447 104.6012 51.8509 0.0000 0.0000 0.0000
# 3 45.0167 51.8509 159.1560 0.0000 0.0000 0.0000
# 4 0.0000 0.0000 0.0000 -1.4848 0.0000 0.0000
# 5 0.0000 0.0000 0.0000 0.0000 -13.1038 0.0000
# 6 0.0000 0.0000 0.0000 0.0000 0.0000 61.5598
#
#
#
# Elastic Compliance Matrix: (Units=1/GPa)
#
#
# Indices 1 2 3 4 5 6 
#
# 1 0.005293 0.000176 -0.001555 0.000000 0.000000 0.000000
# 2 0.000176 0.011407 -0.003766 0.000000 0.000000 0.000000
# 3 -0.001555 -0.003766 0.007950 0.000000 0.000000 0.000000
# 4 0.000000 0.000000 0.000000 -0.673500 0.000000 0.000000
# 5 0.000000 0.000000 0.000000 0.000000 -0.076314 0.000000
# 6 0.000000 0.000000 0.000000 0.000000 0.000000 0.016244
#
#
# Mechanical properties :
#
#
# Convention : Reuss Voigt Hill
#
# Bulk Modulus (GPa) = 69.63096 75.85817 72.74457
# Shear Modulus (GPa) = -7.20625 33.18669 12.99022
#
# Velocity S-wave (km/s) = -1.81147 3.88739 2.43212
# Velocity P-wave (km/s) = 5.22797 7.39538 6.40403
#
# Compressibility (1/GPa) = 0.01436143
#
# Stress axis : x y z
#
# Youngs Moduli (GPa) = 188.91175 87.66372 125.78848
#
# Poissons Ratio (x) = -0.01546 0.19556
# Poissons Ratio (y) = -0.03331 0.47374
# Poissons Ratio (z) = 0.29370 0.33016
#
# Static dielectric constant tensor:
#      x y z
#    x 1.882620 0.000000 0.000000 
#    y 0.000000 1.770970 0.000000 
#    z 0.000000 0.000000 1.767740 
# 
# From -- ./inp_files/52349.got.cif
#   From: 2010.05.17/outbox.cif.g08.bks.cpg/sg65_27_cif.got.tgz:52349.got - 2010.06.03 17:01:31.
