data_PCOD9484962
_publ_section_title
;
Structure prediction by ZEFSAII (Michael W. Deem and Ramdas Pophale) SiO2 
 PCOD9484962
Probable space group: C M M M
;
_chemical_formula_sum "Si O2"
_cell_formula_units_Z 104
_cell_length_a 25.736670
_cell_length_b 8.811406
_cell_length_c 29.006632
_cell_angle_alpha 90.000000
_cell_angle_beta 90.000000
_cell_angle_gamma 90.000000
_cell_volume 6578.015185
_symmetry_space_group_name_H-M "C M M M"
_symmetry_group_IT_number 65
_symmetry_cell_setting 'orthorhombic'
loop_
_space_group_symop_operation_xyz
x,y,z
-x,-y,z
x,-y,-z
-x,y,-z
-x,-y,-z
x,y,-z
-x,y,z
x,-y,z
1/2+x,1/2+y,z
1/2-x,1/2-y,z
1/2+x,1/2-y,-z
1/2-x,1/2+y,-z
1/2-x,1/2-y,-z
1/2+x,1/2+y,-z
1/2-x,1/2+y,z
1/2+x,1/2-y,z
loop_
_atom_site_type_symbol
_atom_site_label
_atom_site_fract_x
_atom_site_fract_y
_atom_site_fract_z
Si Si1 0.891350 0.817729 0.779074
Si Si2 0.192337 0.317960 0.500000
Si Si3 0.308207 0.182722 0.398582
Si Si4 0.692122 0.682433 0.144967
Si Si5 0.000000 0.324818 0.329653
Si Si6 0.691700 0.818009 0.949498
Si Si7 0.890242 0.817852 0.671969
Si Si8 0.500000 0.173730 0.782240
O O1 0.844640 0.772290 0.812632
O O2 0.882904 0.771482 0.725734
O O3 0.946505 0.753676 0.795956
O O4 0.894485 0.000000 0.779390
O O5 0.195746 0.500000 0.500000
O O6 0.250000 0.250000 0.500000
O O7 0.170236 0.274996 0.449905
O O8 0.250000 0.250000 0.394419
O O9 0.345623 0.248409 0.359717
O O10 0.305615 0.000000 0.395313
O O11 0.695621 0.500000 0.142820
O O12 0.750000 0.750000 0.150448
O O13 0.668995 0.744820 0.096706
O O14 0.053168 0.242258 0.343479
O O15 0.000000 0.322267 0.273736
O O16 0.000000 0.500000 0.344622
O O17 0.750000 0.750000 0.950940
O O18 0.694411 0.000000 0.944588
O O19 0.667948 0.784029 0.000000
O O20 0.889156 0.000000 0.669743
O O21 0.500000 0.000000 0.797285
#
# Coordination Sequence:
#
# PCOD9484962 Si02
#       8
#    16   8  16  16   8  16  16   8
#     4   9  19  33  47  65  93 125 154 185 225 270
#     4   8  16  30  48  67  90 119 152 190 230 268
#     4  10  19  32  49  71  96 123 155 191 230 274
#     4  10  19  30  44  64  91 124 155 184 222 267
#     4   9  17  31  49  70  92 118 154 193 230 269
#     4   9  16  26  41  61  85 114 148 186 225 265
#     4  10  19  32  49  70  95 124 155 189 229 273
#     4   9  17  29  49  71  87 111 153 197 229 260
#
# _framework density 15.810238999999999
#
# number of rings (size 3 to 8) (size 9 to 14) (size 15 to 20)
#    0.000    2.615    0.000    3.231    0.000    5.846 
#    0.000    1.538    0.000    0.462    0.000    3.769 
#    0.000    4.308    0.000    0.000    0.000    0.000 
#
# Total GULP energy -289533.653622 kJ/mol
# GULP energy per Si atom -5567.954877 kJ/mol
# Density = 1.577425 g / cm^3
# Si number density = 15.810239 Si / 1000 Ang^3
#
#
#
# Elastic Constant Matrix: (Units=GPa)
#
#
# Indices 1 2 3 4 5 6 
#
# 1 92.6543 36.6290 68.3753 0.0000 0.0000 0.0000
# 2 36.6290 53.5886 41.9758 0.0000 0.0000 0.0000
# 3 68.3753 41.9758 115.8953 0.0000 0.0000 0.0000
# 4 0.0000 0.0000 0.0000 22.1613 0.0000 0.0000
# 5 0.0000 0.0000 0.0000 0.0000 -2.3367 0.0000
# 6 0.0000 0.0000 0.0000 0.0000 0.0000 25.9419
#
#
#
# Elastic Compliance Matrix: (Units=1/GPa)
#
#
# Indices 1 2 3 4 5 6 
#
# 1 0.020556 -0.006354 -0.009826 0.000000 0.000000 0.000000
# 2 -0.006354 0.028015 -0.006398 0.000000 0.000000 0.000000
# 3 -0.009826 -0.006398 0.016743 0.000000 0.000000 0.000000
# 4 0.000000 0.000000 0.000000 0.045124 0.000000 0.000000
# 5 0.000000 0.000000 0.000000 0.000000 -0.427962 0.000000
# 6 0.000000 0.000000 0.000000 0.000000 0.000000 0.038548
#
#
# Mechanical properties :
#
#
# Convention : Reuss Voigt Hill
#
# Bulk Modulus (GPa) = 49.60810 61.78870 55.69840
# Shear Modulus (GPa) = -22.01668 16.83050 -2.59309
#
# Velocity S-wave (km/s) = -3.73575 3.26626 -1.28207
# Velocity P-wave (km/s) = 3.58295 7.30690 5.75449
#
# Compressibility (1/GPa) = 0.02015800
#
# Stress axis : x y z
#
# Youngs Moduli (GPa) = 48.64750 35.69474 59.72569
#
# Poissons Ratio (x) = 0.22679 0.58689
# Poissons Ratio (y) = 0.30908 0.38215
# Poissons Ratio (z) = 0.47803 0.22839
#
# Static dielectric constant tensor:
#      x y z
#    x 1.494880 0.000000 0.000000 
#    y 0.000000 1.532040 0.000000 
#    z 0.000000 0.000000 1.565430 
# 
# From -- ./inp_files/71948.got.cif
#   From: 2010.05.17/outbox.cif.g08.bks.cpg/sg65_36_cif.got.tgz:71948.got - 2010.06.03 17:01:31.
