data_PCOD9484635
_publ_section_title
;
Structure prediction by ZEFSAII (Michael W. Deem and Ramdas Pophale) SiO2 
 PCOD9484635
Probable space group: C M M M
;
_chemical_formula_sum "Si O2"
_cell_formula_units_Z 72
_cell_length_a 9.467078
_cell_length_b 33.147102
_cell_length_c 12.739286
_cell_angle_alpha 90.000000
_cell_angle_beta 90.000000
_cell_angle_gamma 90.000000
_cell_volume 3997.666932
_symmetry_space_group_name_H-M "C M M M"
_symmetry_group_IT_number 65
_symmetry_cell_setting 'orthorhombic'
loop_
_space_group_symop_operation_xyz
x,y,z
-x,-y,z
x,-y,-z
-x,y,-z
-x,-y,-z
x,y,-z
-x,y,z
x,-y,z
1/2+x,1/2+y,z
1/2-x,1/2-y,z
1/2+x,1/2-y,-z
1/2-x,1/2+y,-z
1/2-x,1/2-y,-z
1/2+x,1/2+y,-z
1/2-x,1/2+y,z
1/2+x,1/2-y,z
loop_
_atom_site_type_symbol
_atom_site_label
_atom_site_fract_x
_atom_site_fract_y
_atom_site_fract_z
Si Si1 0.500000 0.856246 0.111729
Si Si2 0.750000 0.750000 0.262031
Si Si3 0.000000 0.396568 0.618950
Si Si4 0.780107 0.415204 0.796213
Si Si5 0.669348 0.500000 0.873854
Si Si6 0.500000 0.619515 0.122288
Si Si7 0.500000 0.194848 0.318814
Si Si8 0.000000 0.215096 0.119817
O O1 0.628576 0.887088 0.126248
O O2 0.500000 0.822068 0.199321
O O3 0.500000 0.836315 0.000000
O O4 0.644274 0.779107 0.328704
O O5 0.861411 0.772478 0.185932
O O6 0.135500 0.411061 0.686913
O O7 0.000000 0.411105 0.500000
O O8 0.000000 0.347518 0.619876
O O9 0.751409 0.460823 0.831165
O O10 0.630151 0.394765 0.808435
O O11 0.500000 0.500000 0.845107
O O12 0.674233 0.500000 0.000000
O O13 0.500000 0.667104 0.112582
O O14 0.500000 0.602837 0.000000
O O15 0.000000 0.231157 0.000000
#
# Coordination Sequence:
#
# PCOD9484635 Si02
#       8
#     8   8   8  16   8   8   8   8
#     4  10  19  32  49  76 114 158 198 226 265 336
#     4  10  19  32  47  74 108 138 176 232 288 332
#     4  10  23  45  64  78 104 150 202 248 286 326
#     4  10  21  35  56  84 114 150 191 235 280 330
#     4  11  20  33  57  92 130 158 175 215 279 342
#     4  11  19  32  54  84 119 154 185 220 276 347
#     4   9  20  35  55  77 105 140 178 232 289 342
#     4  10  19  27  43  69 106 152 188 214 258 334
#
# _framework density 18.010505999999999
#
# number of rings (size 3 to 8) (size 9 to 14) (size 15 to 20)
#    0.000    2.111    1.111    5.000    0.000    6.222 
#    0.000    5.000    0.000    0.667    0.000    0.000 
#    0.000    0.000    0.000    0.000    0.000    0.000 
#
# Total GULP energy -200509.656545 kJ/mol
# GULP energy per Si atom -5569.712682 kJ/mol
# Density = 1.796951 g / cm^3
# Si number density = 18.010506 Si / 1000 Ang^3
#
#
#
# Elastic Constant Matrix: (Units=GPa)
#
#
# Indices 1 2 3 4 5 6 
#
# 1 159.9336 43.3443 33.4551 0.0000 0.0000 0.0000
# 2 43.3443 102.7727 11.7112 0.0000 0.0000 0.0000
# 3 33.4551 11.7112 98.7701 0.0000 0.0000 0.0000
# 4 0.0000 0.0000 0.0000 -6.3556 0.0000 0.0000
# 5 0.0000 0.0000 0.0000 0.0000 -23.2718 0.0000
# 6 0.0000 0.0000 0.0000 0.0000 0.0000 -44.2065
#
#
#
# Elastic Compliance Matrix: (Units=1/GPa)
#
#
# Indices 1 2 3 4 5 6 
#
# 1 0.007501 -0.002914 -0.002195 0.000000 0.000000 0.000000
# 2 -0.002914 0.010995 -0.000317 0.000000 0.000000 0.000000
# 3 -0.002195 -0.000317 0.010906 0.000000 0.000000 0.000000
# 4 0.000000 0.000000 0.000000 -0.157342 0.000000 0.000000
# 5 0.000000 0.000000 0.000000 0.000000 -0.042970 0.000000
# 6 0.000000 0.000000 0.000000 0.000000 0.000000 -0.022621
#
#
# Mechanical properties :
#
#
# Convention : Reuss Voigt Hill
#
# Bulk Modulus (GPa) = 53.90636 59.83307 56.86971
# Shear Modulus (GPa) = -28.32923 3.43093 -12.44915
#
# Velocity S-wave (km/s) = -3.97032 1.38170 -2.63195
# Velocity P-wave (km/s) = 2.99626 5.98655 4.73373
#
# Compressibility (1/GPa) = 0.01855069
#
# Stress axis : x y z
#
# Youngs Moduli (GPa) = 133.30755 90.94957 91.69511
#
# Poissons Ratio (x) = 0.26499 0.20131
# Poissons Ratio (y) = 0.38840 0.02905
# Poissons Ratio (z) = 0.29266 0.02881
#
# Static dielectric constant tensor:
#      x y z
#    x 1.319600 0.000000 0.000000 
#    y 0.000000 1.652600 0.000000 
#    z 0.000000 0.000000 1.604660 
# 
# From -- ./inp_files/37106.got.cif
#   From: 2010.05.17/outbox.cif.g08.bks.cpg/sg65_19_cif.got.tgz:37106.got - 2010.06.03 17:01:31.
