data_PCOD9484976
_publ_section_title
;
Structure prediction by ZEFSAII (Michael W. Deem and Ramdas Pophale) SiO2 
 PCOD9484976
Probable space group: C M M M
;
_chemical_formula_sum "Si O2"
_cell_formula_units_Z 80
_cell_length_a 9.800811
_cell_length_b 27.905313
_cell_length_c 18.181874
_cell_angle_alpha 90.000000
_cell_angle_beta 90.000000
_cell_angle_gamma 90.000000
_cell_volume 4972.646150
_symmetry_space_group_name_H-M "C M M M"
_symmetry_group_IT_number 65
_symmetry_cell_setting 'orthorhombic'
loop_
_space_group_symop_operation_xyz
x,y,z
-x,-y,z
x,-y,-z
-x,y,-z
-x,-y,-z
x,y,-z
-x,y,z
x,-y,z
1/2+x,1/2+y,z
1/2-x,1/2-y,z
1/2+x,1/2-y,-z
1/2-x,1/2+y,-z
1/2-x,1/2-y,-z
1/2+x,1/2+y,-z
1/2-x,1/2+y,z
1/2+x,1/2-y,z
loop_
_atom_site_type_symbol
_atom_site_label
_atom_site_fract_x
_atom_site_fract_y
_atom_site_fract_z
Si Si1 0.162705 0.101251 0.348358
Si Si2 0.250000 0.750000 0.301219
Si Si3 0.339751 0.201347 0.085523
Si Si4 0.350787 0.178631 0.417508
Si Si5 0.157497 0.160795 0.206242
Si Si6 0.334028 0.500000 0.585602
O O1 0.236598 0.139882 0.399484
O O2 0.189066 0.118718 0.264765
O O3 0.000000 0.104590 0.358682
O O4 0.207499 0.048223 0.371769
O O5 0.343357 0.780337 0.356366
O O6 0.174169 0.789220 0.251434
O O7 0.500000 0.209297 0.104555
O O8 0.250000 0.250000 0.091076
O O9 0.265245 0.164758 0.140338
O O10 0.334537 0.186404 0.000000
O O11 0.334065 0.197769 0.500000
O O12 0.500000 0.155420 0.412896
O O13 0.000000 0.156576 0.181677
O O14 0.500000 0.500000 0.584529
O O15 0.289624 0.500000 0.500000
#
# Coordination Sequence:
#
# PCOD9484976 Si02
#       6
#    16   8  16  16  16   8
#     4   9  19  33  50  72  94 121 160 200 244 292
#     4  10  19  30  45  62  88 126 164 190 229 280
#     4  10  20  32  48  70  97 129 162 194 230 275
#     4  10  20  32  45  64  91 123 160 201 242 283
#     4  10  19  30  46  69  96 125 159 197 235 278
#     4   9  16  30  53  75  96 125 160 202 249 295
#
# _framework density 16.088013
#
# number of rings (size 3 to 8) (size 9 to 14) (size 15 to 20)
#    0.000    2.300    1.000    2.100    0.000    6.400 
#    0.000    0.500    0.000    1.800    0.000    0.700 
#    0.000    5.600    0.000    0.000    0.000    0.000 
#
# Total GULP energy -222842.644176 kJ/mol
# GULP energy per Si atom -5571.066104 kJ/mol
# Density = 1.605140 g / cm^3
# Si number density = 16.088013 Si / 1000 Ang^3
#
#
#
# Elastic Constant Matrix: (Units=GPa)
#
#
# Indices 1 2 3 4 5 6 
#
# 1 79.8581 23.9361 53.4819 0.0000 0.0000 0.0000
# 2 23.9361 81.2703 39.5269 0.0000 0.0000 0.0000
# 3 53.4819 39.5269 98.6428 0.0000 0.0000 0.0000
# 4 0.0000 0.0000 0.0000 17.6569 0.0000 0.0000
# 5 0.0000 0.0000 0.0000 0.0000 78.5242 0.0000
# 6 0.0000 0.0000 0.0000 0.0000 0.0000 9.7999
#
#
#
# Elastic Compliance Matrix: (Units=1/GPa)
#
#
# Indices 1 2 3 4 5 6 
#
# 1 0.019698 -0.000754 -0.010378 0.000000 0.000000 0.000000
# 2 -0.000754 0.015312 -0.005727 0.000000 0.000000 0.000000
# 3 -0.010378 -0.005727 0.018059 0.000000 0.000000 0.000000
# 4 0.000000 0.000000 0.000000 0.056635 0.000000 0.000000
# 5 0.000000 0.000000 0.000000 0.000000 0.012735 0.000000
# 6 0.000000 0.000000 0.000000 0.000000 0.000000 0.102042
#
#
# Mechanical properties :
#
#
# Convention : Reuss Voigt Hill
#
# Bulk Modulus (GPa) = 51.67466 54.85120 53.26293
# Shear Modulus (GPa) = 18.89295 30.71797 24.80546
#
# Velocity S-wave (km/s) = 3.43060 4.37437 3.93091
# Velocity P-wave (km/s) = 6.91966 7.72541 7.33361
#
# Compressibility (1/GPa) = 0.01935184
#
# Stress axis : x y z
#
# Youngs Moduli (GPa) = 50.76551 65.30816 55.37432
#
# Poissons Ratio (x) = 0.04926 0.57466
# Poissons Ratio (y) = 0.03829 0.31711
# Poissons Ratio (z) = 0.52683 0.37400
#
# Static dielectric constant tensor:
#      x y z
#    x 1.556480 0.000000 0.000000 
#    y 0.000000 1.523820 0.000000 
#    z 0.000000 0.000000 1.558690 
# 
# From -- ./inp_files/50150.got.cif
#   From: 2010.05.17/outbox.cif.g08.bks.cpg/sg65_26_cif.got.tgz:50150.got - 2010.06.03 17:01:31.
