data_PCOD9484829
_publ_section_title
;
Structure prediction by ZEFSAII (Michael W. Deem and Ramdas Pophale) SiO2 
 PCOD9484829
Probable space group: C M M M
;
_chemical_formula_sum "Si O2"
_cell_formula_units_Z 104
_cell_length_a 18.305595
_cell_length_b 33.550010
_cell_length_c 7.244310
_cell_angle_alpha 90.000000
_cell_angle_beta 90.000000
_cell_angle_gamma 90.000000
_cell_volume 4449.113961
_symmetry_space_group_name_H-M "C M M M"
_symmetry_group_IT_number 65
_symmetry_cell_setting 'orthorhombic'
loop_
_space_group_symop_operation_xyz
x,y,z
-x,-y,z
x,-y,-z
-x,y,-z
-x,-y,-z
x,y,-z
-x,y,z
x,-y,z
1/2+x,1/2+y,z
1/2-x,1/2-y,z
1/2+x,1/2-y,-z
1/2-x,1/2+y,-z
1/2-x,1/2-y,-z
1/2+x,1/2+y,-z
1/2-x,1/2+y,z
1/2+x,1/2-y,z
loop_
_atom_site_type_symbol
_atom_site_label
_atom_site_fract_x
_atom_site_fract_y
_atom_site_fract_z
Si Si1 0.192114 0.384655 0.707857
Si Si2 0.083202 0.317087 0.725071
Si Si3 0.346813 0.583613 0.275005
Si Si4 0.085214 0.000000 0.274894
Si Si5 0.331131 0.261132 0.275625
Si Si6 0.080801 0.836063 0.275861
Si Si7 0.583679 0.045309 0.777097
O O1 0.211312 0.370825 0.500000
O O2 0.143372 0.349145 0.789590
O O3 0.267491 0.401008 0.788910
O O4 0.138383 0.422305 0.701868
O O5 0.082163 0.319298 0.500000
O O6 0.111678 0.273324 0.775897
O O7 0.000000 0.324996 0.785331
O O8 0.344186 0.581648 0.500000
O O9 0.373431 0.540194 0.214812
O O10 0.401900 0.618821 0.222336
O O11 0.085322 0.000000 0.500000
O O12 0.000000 0.000000 0.219665
O O13 0.329347 0.261640 0.500000
O O14 0.250000 0.250000 0.213826
O O15 0.359073 0.304257 0.214894
O O16 0.081765 0.835501 0.500000
O O17 0.000000 0.823723 0.217584
O O18 0.500000 0.053563 0.722721
O O19 0.601675 0.000000 0.722807
O O20 0.586555 0.047026 0.000000
#
# Coordination Sequence:
#
# PCOD9484829 Si02
#       7
#    16  16  16   8  16  16  16
#     4  10  19  29  45  68  95 121 150 188 231 275
#     4   9  16  25  36  54  82 114 145 178 220 268
#     4   9  17  26  37  57  85 114 148 189 231 273
#     4   9  16  26  38  52  78 117 150 180 227 281
#     4   9  15  22  33  49  75 112 152 188 224 268
#     4   9  15  23  35  51  76 116 159 191 225 278
#     4   9  19  35  51  66  88 120 156 192 229 270
#
# _framework density 23.375439
#
# number of rings (size 3 to 8) (size 9 to 14) (size 15 to 20)
#    0.000    2.846    0.000    2.769    1.077    8.615 
#    0.000    0.769    0.000    0.000    0.000    0.000 
#    0.000    8.615    0.000    1.538    0.000    0.000 
#
# Total GULP energy -290620.455348 kJ/mol
# GULP energy per Si atom -5588.854911 kJ/mol
# Density = 2.332224 g / cm^3
# Si number density = 23.375439 Si / 1000 Ang^3
#
#
#
# Elastic Constant Matrix: (Units=GPa)
#
#
# Indices 1 2 3 4 5 6 
#
# 1 123.2509 92.2524 2.2907 0.0000 0.0000 0.0000
# 2 92.2524 156.4091 1.2296 0.0000 0.0000 0.0000
# 3 2.2907 1.2296 107.1151 0.0000 0.0000 0.0000
# 4 0.0000 0.0000 0.0000 -0.1791 0.0000 0.0000
# 5 0.0000 0.0000 0.0000 0.0000 -11.7726 0.0000
# 6 0.0000 0.0000 0.0000 0.0000 0.0000 -14.9177
#
#
#
# Elastic Compliance Matrix: (Units=1/GPa)
#
#
# Indices 1 2 3 4 5 6 
#
# 1 0.014531 -0.008569 -0.000212 0.000000 0.000000 0.000000
# 2 -0.008569 0.011447 0.000052 0.000000 0.000000 0.000000
# 3 -0.000212 0.000052 0.009340 0.000000 0.000000 0.000000
# 4 0.000000 0.000000 0.000000 -5.583991 0.000000 0.000000
# 5 0.000000 0.000000 0.000000 0.000000 -0.084943 0.000000
# 6 0.000000 0.000000 0.000000 0.000000 0.000000 -0.067034
#
#
# Mechanical properties :
#
#
# Convention : Reuss Voigt Hill
#
# Bulk Modulus (GPa) = 55.99417 64.25783 60.12600
# Shear Modulus (GPa) = -0.88071 14.02628 6.57278
#
# Velocity S-wave (km/s) = -0.61448 2.45224 1.67867
# Velocity P-wave (km/s) = 4.84797 5.96381 5.43461
#
# Compressibility (1/GPa) = 0.01785900
#
# Stress axis : x y z
#
# Youngs Moduli (GPa) = 68.81617 87.35659 107.06980
#
# Poissons Ratio (x) = 0.74858 0.02274
# Poissons Ratio (y) = 0.58970 -0.00555
# Poissons Ratio (z) = 0.01462 -0.00453
#
# Static dielectric constant tensor:
#      x y z
#    x 1.835920 0.000000 0.000000 
#    y 0.000000 1.816360 0.000000 
#    z 0.000000 0.000000 1.903110 
# 
# From -- ./inp_files/27715.got.cif
#   From: 2010.05.17/outbox.cif.g08.bks.cpg/sg65_14_cif.got.tgz:27715.got - 2010.06.03 17:01:31.
