data_PCOD9484371
_publ_section_title
;
Structure prediction by ZEFSAII (Michael W. Deem and Ramdas Pophale) SiO2 
 PCOD9484371
Probable space group: C M M M
;
_chemical_formula_sum "Si O2"
_cell_formula_units_Z 90
_cell_length_a 22.825393
_cell_length_b 20.588280
_cell_length_c 9.919682
_cell_angle_alpha 90.000000
_cell_angle_beta 90.000000
_cell_angle_gamma 90.000000
_cell_volume 4661.611536
_symmetry_space_group_name_H-M "C M M M"
_symmetry_group_IT_number 65
_symmetry_cell_setting 'orthorhombic'
loop_
_space_group_symop_operation_xyz
x,y,z
-x,-y,z
x,-y,-z
-x,y,-z
-x,-y,-z
x,y,-z
-x,y,z
x,-y,z
1/2+x,1/2+y,z
1/2-x,1/2-y,z
1/2+x,1/2-y,-z
1/2-x,1/2+y,-z
1/2-x,1/2-y,-z
1/2+x,1/2+y,-z
1/2-x,1/2+y,z
1/2+x,1/2-y,z
loop_
_atom_site_type_symbol
_atom_site_label
_atom_site_fract_x
_atom_site_fract_y
_atom_site_fract_z
Si Si1 0.430915 0.754835 0.654117
Si Si2 0.000000 0.500000 0.500000
Si Si3 0.612369 0.357494 0.842590
Si Si4 0.239710 0.500000 0.349041
Si Si5 0.740921 0.384709 0.849367
Si Si6 0.624651 0.140059 0.847412
Si Si7 0.105213 0.500000 0.724412
Si Si8 0.432529 0.500000 0.162553
O O1 0.409134 0.749492 0.500000
O O2 0.500000 0.766822 0.648635
O O3 0.419357 0.690500 0.741158
O O4 0.402146 0.813841 0.734970
O O5 0.948027 0.500000 0.618965
O O6 0.682008 0.343396 0.836500
O O7 0.599492 0.432469 0.802907
O O8 0.594013 0.349147 0.000000
O O9 0.261831 0.500000 0.500000
O O10 0.259895 0.438000 0.265842
O O11 0.168864 0.500000 0.347412
O O12 0.804710 0.352700 0.842262
O O13 0.737493 0.415152 0.000000
O O14 0.607073 0.065719 0.813615
O O15 0.605742 0.156588 0.000000
O O16 0.500000 0.500000 0.211633
O O17 0.434497 0.500000 0.000000
#
# Coordination Sequence:
#
# PCOD9484371 Si02
#       8
#    16   2  16   8  16  16   8   8
#     4  11  26  43  60  82 119 160 197 238 298 360
#     4  12  24  36  58  88 124 160 198 250 314 348
#     4  10  20  38  63  90 118 154 197 241 292 349
#     4  10  18  32  53  84 119 156 195 232 287 354
#     4   9  19  35  58  85 117 152 192 244 299 351
#     4  10  22  41  63  88 117 153 200 251 299 352
#     4  10  23  37  60  86 119 157 198 245 301 349
#     4   9  17  30  56  91 120 147 188 237 279 330
#
# _framework density 19.306629000000001
#
# number of rings (size 3 to 8) (size 9 to 14) (size 15 to 20)
#    0.000    2.044    0.444    2.133    2.489    7.822 
#    0.000    4.444    0.000    1.600    0.000    0.000 
#    0.000    0.000    0.000    0.000    0.000    0.000 
#
# Total GULP energy -250783.243069 kJ/mol
# GULP energy per Si atom -5572.960957 kJ/mol
# Density = 1.926269 g / cm^3
# Si number density = 19.306629 Si / 1000 Ang^3
#
#
#
# Elastic Constant Matrix: (Units=GPa)
#
#
# Indices 1 2 3 4 5 6 
#
# 1 84.0910 11.6073 28.6869 0.0000 0.0000 0.0000
# 2 11.6073 87.0693 40.4916 0.0000 0.0000 0.0000
# 3 28.6869 40.4916 138.0518 0.0000 0.0000 0.0000
# 4 0.0000 0.0000 0.0000 27.9909 0.0000 0.0000
# 5 0.0000 0.0000 0.0000 0.0000 22.6902 0.0000
# 6 0.0000 0.0000 0.0000 0.0000 0.0000 15.0213
#
#
#
# Elastic Compliance Matrix: (Units=1/GPa)
#
#
# Indices 1 2 3 4 5 6 
#
# 1 0.012821 -0.000544 -0.002505 0.000000 0.000000 0.000000
# 2 -0.000544 0.013322 -0.003794 0.000000 0.000000 0.000000
# 3 -0.002505 -0.003794 0.008877 0.000000 0.000000 0.000000
# 4 0.000000 0.000000 0.000000 0.035726 0.000000 0.000000
# 5 0.000000 0.000000 0.000000 0.000000 0.044072 0.000000
# 6 0.000000 0.000000 0.000000 0.000000 0.000000 0.066572
#
#
# Mechanical properties :
#
#
# Convention : Reuss Voigt Hill
#
# Bulk Modulus (GPa) = 46.87382 52.30929 49.59156
# Shear Modulus (GPa) = 24.72938 28.36890 26.54914
#
# Velocity S-wave (km/s) = 3.58281 3.83742 3.71230
# Velocity P-wave (km/s) = 6.43791 6.84011 6.64206
#
# Compressibility (1/GPa) = 0.02133387
#
# Stress axis : x y z
#
# Youngs Moduli (GPa) = 77.99428 75.06230 112.65040
#
# Poissons Ratio (x) = 0.04087 0.28214
# Poissons Ratio (y) = 0.04247 0.42744
# Poissons Ratio (z) = 0.19534 0.28481
#
# Static dielectric constant tensor:
#      x y z
#    x 1.687750 0.000000 0.000000 
#    y 0.000000 1.673070 0.000000 
#    z 0.000000 0.000000 1.658660 
# 
# From -- ./inp_files/14094.got.cif
#   From: 2010.05.17/outbox.cif.g08.bks.cpg/sg65_8_cif.got.tgz:14094.got - 2010.06.03 17:01:31.
