data_PCOD9484376
_publ_section_title
;
Structure prediction by ZEFSAII (Michael W. Deem and Ramdas Pophale) SiO2 
 PCOD9484376
Probable space group: C M M M
;
_chemical_formula_sum "Si O2"
_cell_formula_units_Z 80
_cell_length_a 22.550684
_cell_length_b 22.011199
_cell_length_c 7.416716
_cell_angle_alpha 90.000000
_cell_angle_beta 90.000000
_cell_angle_gamma 90.000000
_cell_volume 3681.417470
_symmetry_space_group_name_H-M "C M M M"
_symmetry_group_IT_number 65
_symmetry_cell_setting 'orthorhombic'
loop_
_space_group_symop_operation_xyz
x,y,z
-x,-y,z
x,-y,-z
-x,y,-z
-x,-y,-z
x,y,-z
-x,y,z
x,-y,z
1/2+x,1/2+y,z
1/2-x,1/2-y,z
1/2+x,1/2-y,-z
1/2-x,1/2+y,-z
1/2-x,1/2-y,-z
1/2+x,1/2+y,-z
1/2-x,1/2+y,z
1/2+x,1/2-y,z
loop_
_atom_site_type_symbol
_atom_site_label
_atom_site_fract_x
_atom_site_fract_y
_atom_site_fract_z
Si Si1 0.000000 0.069389 0.220717
Si Si2 0.735450 0.319708 0.220971
Si Si3 0.064631 0.705127 0.288393
Si Si4 0.430794 0.000000 0.220779
Si Si5 0.845576 0.607703 0.798119
Si Si6 0.101636 0.840824 0.783210
O O1 0.058635 0.105708 0.279923
O O2 0.000000 0.000000 0.278438
O O3 0.000000 0.070215 0.000000
O O4 0.750000 0.250000 0.275830
O O5 0.784092 0.368865 0.284825
O O6 0.669539 0.338247 0.279036
O O7 0.737736 0.319707 0.000000
O O8 0.068411 0.691120 0.500000
O O9 0.116554 0.669389 0.193393
O O10 0.072283 0.776625 0.264696
O O11 0.000000 0.685883 0.221061
O O12 0.391261 0.941920 0.279165
O O13 0.500000 0.000000 0.280454
O O14 0.433700 0.000000 0.000000
O O15 0.831487 0.585391 0.000000
O O16 0.103779 0.844426 0.000000
#
# Coordination Sequence:
#
# PCOD9484376 Si02
#       6
#     8  16  16   8  16  16
#     4   9  18  32  51  79 107 134 177 220 253 301
#     4   9  16  28  49  78 106 130 168 213 254 309
#     4  11  22  33  49  77 106 130 171 223 264 305
#     4   9  18  32  51  77 103 134 180 219 246 303
#     4  10  19  34  54  74 104 140 173 212 261 311
#     4  10  18  32  54  75 103 140 171 209 261 308
#
# _framework density 21.730758999999999
#
# number of rings (size 3 to 8) (size 9 to 14) (size 15 to 20)
#    0.000    2.200    3.000    1.200    0.000    2.000 
#    1.800    2.500    0.000    3.000    0.000    0.000 
#    0.000    0.000    0.000    0.000    0.000    0.000 
#
# Total GULP energy -223286.358989 kJ/mol
# GULP energy per Si atom -5582.158975 kJ/mol
# Density = 2.168130 g / cm^3
# Si number density = 21.730759 Si / 1000 Ang^3
#
#
#
# Elastic Constant Matrix: (Units=GPa)
#
#
# Indices 1 2 3 4 5 6 
#
# 1 184.7564 55.2896 16.7982 0.0000 0.0000 0.0000
# 2 55.2896 124.4229 4.4657 0.0000 0.0000 0.0000
# 3 16.7982 4.4657 71.7545 0.0000 0.0000 0.0000
# 4 0.0000 0.0000 0.0000 -65.8917 0.0000 0.0000
# 5 0.0000 0.0000 0.0000 0.0000 -6.8735 0.0000
# 6 0.0000 0.0000 0.0000 0.0000 0.0000 33.7600
#
#
#
# Elastic Compliance Matrix: (Units=1/GPa)
#
#
# Indices 1 2 3 4 5 6 
#
# 1 0.006364 -0.002781 -0.001317 0.000000 0.000000 0.000000
# 2 -0.002781 0.009270 0.000074 0.000000 0.000000 0.000000
# 3 -0.001317 0.000074 0.014240 0.000000 0.000000 0.000000
# 4 0.000000 0.000000 0.000000 -0.015176 0.000000 0.000000
# 5 0.000000 0.000000 0.000000 0.000000 -0.145487 0.000000
# 6 0.000000 0.000000 0.000000 0.000000 0.000000 0.029621
#
#
# Mechanical properties :
#
#
# Convention : Reuss Voigt Hill
#
# Bulk Modulus (GPa) = 45.81411 59.33786 52.57598
# Shear Modulus (GPa) = -58.24499 12.49099 -22.87700
#
# Velocity S-wave (km/s) = -5.18278 2.40011 -3.24813
# Velocity P-wave (km/s) = 3.83231 5.91996 3.19056
#
# Compressibility (1/GPa) = 0.02182734
#
# Stress axis : x y z
#
# Youngs Moduli (GPa) = 157.12228 107.87261 70.22431
#
# Poissons Ratio (x) = 0.29998 0.09248
# Poissons Ratio (y) = 0.43694 -0.00520
# Poissons Ratio (z) = 0.20691 -0.00799
#
# Static dielectric constant tensor:
#      x y z
#    x 1.810380 0.000000 0.000000 
#    y 0.000000 1.755100 0.000000 
#    z 0.000000 0.000000 1.822000 
# 
# From -- ./inp_files/11550.got.cif
#   From: 2010.05.17/outbox.cif.g08.bks.cpg/sg65_6_cif.got.tgz:11550.got - 2010.06.03 17:01:31.
