data_PCOD9484936
_publ_section_title
;
Structure prediction by ZEFSAII (Michael W. Deem and Ramdas Pophale) SiO2 
 PCOD9484936
Probable space group: C M M M
;
_chemical_formula_sum "Si O2"
_cell_formula_units_Z 112
_cell_length_a 28.776938
_cell_length_b 7.328365
_cell_length_c 24.752927
_cell_angle_alpha 90.000000
_cell_angle_beta 90.000000
_cell_angle_gamma 90.000000
_cell_volume 5220.092924
_symmetry_space_group_name_H-M "C M M M"
_symmetry_group_IT_number 65
_symmetry_cell_setting 'orthorhombic'
loop_
_space_group_symop_operation_xyz
x,y,z
-x,-y,z
x,-y,-z
-x,y,-z
-x,-y,-z
x,y,-z
-x,y,z
x,-y,z
1/2+x,1/2+y,z
1/2-x,1/2-y,z
1/2+x,1/2-y,-z
1/2-x,1/2+y,-z
1/2-x,1/2-y,-z
1/2+x,1/2+y,-z
1/2-x,1/2+y,z
1/2+x,1/2-y,z
loop_
_atom_site_type_symbol
_atom_site_label
_atom_site_fract_x
_atom_site_fract_y
_atom_site_fract_z
Si Si1 0.447557 0.222201 0.167469
Si Si2 0.356431 0.777086 0.771485
Si Si3 0.302744 0.782895 0.668350
Si Si4 0.606022 0.777531 0.939666
Si Si5 0.549644 0.217011 0.434899
Si Si6 0.303904 0.216940 0.878116
Si Si7 0.847790 0.276903 0.561720
O O1 0.500000 0.283397 0.177724
O O2 0.408008 0.278471 0.210143
O O3 0.428842 0.277188 0.108198
O O4 0.447920 0.000000 0.167920
O O5 0.337925 0.713313 0.713870
O O6 0.321121 0.718392 0.819185
O O7 0.356221 0.000000 0.770674
O O8 0.250000 0.750000 0.685142
O O9 0.312462 0.715463 0.607751
O O10 0.309551 0.000000 0.666067
O O11 0.657862 0.718812 0.921384
O O12 0.605381 0.000000 0.940360
O O13 0.594667 0.716203 0.000000
O O14 0.549257 0.238370 0.500000
O O15 0.500000 0.290127 0.414491
O O16 0.600570 0.282870 0.419083
O O17 0.549279 0.000000 0.423938
O O18 0.250000 0.250000 0.889173
O O19 0.309296 0.000000 0.876765
O O20 0.839170 0.217057 0.500000
O O21 0.848245 0.500000 0.559588
#
# Coordination Sequence:
#
# PCOD9484936 Si02
#       7
#    16  16  16  16  16  16  16
#     4   8  13  22  37  56  80 109 134 159 197 243
#     4   8  15  27  40  56  79 104 130 162 202 242
#     4  10  19  30  44  60  80 107 136 166 200 238
#     4   8  14  23  34  52  79 108 136 165 198 236
#     4   7   9  15  29  48  71  99 125 147 178 224
#     4   9  16  26  40  56  77 106 136 167 202 236
#     4   8  14  24  37  55  80 107 133 163 200 238
#
# _framework density 21.455556999999999
#
# number of rings (size 3 to 8) (size 9 to 14) (size 15 to 20)
#    0.000    3.714    0.000    3.429    0.000    0.857 
#    0.000    2.143    0.000    4.286    0.000    0.000 
#    0.000   16.000    0.000    8.714    0.000    8.571 
#
# Total GULP energy -312047.162410 kJ/mol
# GULP energy per Si atom -5572.270757 kJ/mol
# Density = 2.140672 g / cm^3
# Si number density = 21.455557 Si / 1000 Ang^3
#
#
#
# Elastic Constant Matrix: (Units=GPa)
#
#
# Indices 1 2 3 4 5 6 
#
# 1 146.6714 -3.1373 69.3018 0.0000 0.0000 0.0000
# 2 -3.1373 77.8476 4.3429 0.0000 0.0000 0.0000
# 3 69.3018 4.3429 129.9714 0.0000 0.0000 0.0000
# 4 0.0000 0.0000 0.0000 -14.8099 0.0000 0.0000
# 5 0.0000 0.0000 0.0000 0.0000 16.6974 0.0000
# 6 0.0000 0.0000 0.0000 0.0000 0.0000 -1.1367
#
#
#
# Elastic Compliance Matrix: (Units=1/GPa)
#
#
# Indices 1 2 3 4 5 6 
#
# 1 0.009146 0.000642 -0.004898 0.000000 0.000000 0.000000
# 2 0.000642 0.012915 -0.000774 0.000000 0.000000 0.000000
# 3 -0.004898 -0.000774 0.010332 0.000000 0.000000 0.000000
# 4 0.000000 0.000000 0.000000 -0.067523 0.000000 0.000000
# 5 0.000000 0.000000 0.000000 0.000000 0.059889 0.000000
# 6 0.000000 0.000000 0.000000 0.000000 0.000000 -0.879728
#
#
# Mechanical properties :
#
#
# Convention : Reuss Voigt Hill
#
# Bulk Modulus (GPa) = 44.77865 55.05613 49.91739
# Shear Modulus (GPa) = -5.97040 19.08237 6.55598
#
# Velocity S-wave (km/s) = -1.66995 2.98550 1.74993
# Velocity P-wave (km/s) = 4.14698 6.13193 5.23440
#
# Compressibility (1/GPa) = 0.02233207
#
# Stress axis : x y z
#
# Youngs Moduli (GPa) = 109.33647 77.43150 96.79024
#
# Poissons Ratio (x) = -0.04970 0.47410
# Poissons Ratio (y) = -0.07018 0.07489
# Poissons Ratio (z) = 0.53555 0.05991
#
# Static dielectric constant tensor:
#      x y z
#    x 1.787120 0.000000 0.000000 
#    y 0.000000 1.903450 0.000000 
#    z 0.000000 0.000000 1.751420 
# 
# From -- ./inp_files/69236.got.cif
#   From: 2010.05.17/outbox.cif.g08.bks.cpg/sg65_35_cif.got.tgz:69236.got - 2010.06.03 17:01:31.
