data_PCOD9484883
_publ_section_title
;
Structure prediction by ZEFSAII (Michael W. Deem and Ramdas Pophale) SiO2 
 PCOD9484883
Probable space group: C M M M
;
_chemical_formula_sum "Si O2"
_cell_formula_units_Z 72
_cell_length_a 15.627390
_cell_length_b 29.652250
_cell_length_c 7.501364
_cell_angle_alpha 90.000000
_cell_angle_beta 90.000000
_cell_angle_gamma 90.000000
_cell_volume 3476.036624
_symmetry_space_group_name_H-M "C M M M"
_symmetry_group_IT_number 65
_symmetry_cell_setting 'orthorhombic'
loop_
_space_group_symop_operation_xyz
x,y,z
-x,-y,z
x,-y,-z
-x,y,-z
-x,-y,-z
x,y,-z
-x,y,z
x,-y,z
1/2+x,1/2+y,z
1/2-x,1/2-y,z
1/2+x,1/2-y,-z
1/2-x,1/2+y,-z
1/2-x,1/2-y,-z
1/2+x,1/2+y,-z
1/2-x,1/2+y,z
1/2+x,1/2-y,z
loop_
_atom_site_type_symbol
_atom_site_label
_atom_site_fract_x
_atom_site_fract_y
_atom_site_fract_z
Si Si1 0.403749 0.815845 0.207123
Si Si2 0.769939 0.138355 0.296676
Si Si3 0.097263 0.788897 0.284451
Si Si4 0.187476 0.448243 0.280499
Si Si5 0.000000 0.445193 0.296062
O O1 0.500000 0.825068 0.277272
O O2 0.324637 0.839980 0.298909
O O3 0.389390 0.761975 0.218781
O O4 0.402291 0.828649 0.000000
O O5 0.799494 0.131733 0.500000
O O6 0.834614 0.174743 0.216235
O O7 0.755693 0.088614 0.219120
O O8 0.104426 0.786158 0.500000
O O9 0.000000 0.802058 0.239793
O O10 0.184736 0.447566 0.500000
O O11 0.203157 0.500000 0.228808
O O12 0.092163 0.433711 0.217345
O O13 0.000000 0.500000 0.301861
O O14 0.000000 0.428778 0.500000
#
# Coordination Sequence:
#
# PCOD9484883 Si02
#       5
#    16  16  16  16   8
#     4  10  21  34  47  67  96 125 151 184 230 281
#     4  10  19  29  48  73  92 119 158 194 228 267
#     4   9  18  33  49  66  92 123 155 192 232 273
#     4   8  14  24  39  63  93 119 147 185 224 264
#     4   7  10  18  32  52  81 113 139 169 211 253
#
# _framework density 20.713245000000001
#
# number of rings (size 3 to 8) (size 9 to 14) (size 15 to 20)
#    0.000    3.000    0.000    2.667    1.556    4.889 
#    0.000    0.000    0.000    1.333    0.000    6.222 
#    0.000    0.000    0.000    7.556    0.000    8.000 
#
# Total GULP energy -200833.067233 kJ/mol
# GULP energy per Si atom -5578.696312 kJ/mol
# Density = 2.066610 g / cm^3
# Si number density = 20.713245 Si / 1000 Ang^3
#
#
#
# Elastic Constant Matrix: (Units=GPa)
#
#
# Indices 1 2 3 4 5 6 
#
# 1 51.6804 47.5138 0.5596 0.0000 0.0000 0.0000
# 2 47.5138 95.9065 2.6884 0.0000 0.0000 0.0000
# 3 0.5596 2.6884 60.7568 0.0000 0.0000 0.0000
# 4 0.0000 0.0000 0.0000 -138.2388 0.0000 0.0000
# 5 0.0000 0.0000 0.0000 0.0000 -4.0726 0.0000
# 6 0.0000 0.0000 0.0000 0.0000 0.0000 34.7424
#
#
#
# Elastic Compliance Matrix: (Units=1/GPa)
#
#
# Indices 1 2 3 4 5 6 
#
# 1 0.035547 -0.017624 0.000452 0.000000 0.000000 0.000000
# 2 -0.017624 0.019177 -0.000686 0.000000 0.000000 0.000000
# 3 0.000452 -0.000686 0.016485 0.000000 0.000000 0.000000
# 4 0.000000 0.000000 0.000000 -0.007234 0.000000 0.000000
# 5 0.000000 0.000000 0.000000 0.000000 -0.245543 0.000000
# 6 0.000000 0.000000 0.000000 0.000000 0.000000 0.028783
#
#
# Mechanical properties :
#
#
# Convention : Reuss Voigt Hill
#
# Bulk Modulus (GPa) = 28.17291 34.42970 31.30131
# Shear Modulus (GPa) = -47.51179 -11.00834 -29.26006
#
# Velocity S-wave (km/s) = -4.79455 -2.30785 -3.76257
# Velocity P-wave (km/s) = 4.12545 3.09137 1.93167
#
# Compressibility (1/GPa) = 0.03549509
#
# Stress axis : x y z
#
# Youngs Moduli (GPa) = 28.13140 52.14561 60.66024
#
# Poissons Ratio (x) = 0.91899 -0.02744
# Poissons Ratio (y) = 0.49577 0.04163
# Poissons Ratio (z) = -0.01273 0.03579
#
# Static dielectric constant tensor:
#      x y z
#    x 1.733190 0.000000 0.000000 
#    y 0.000000 1.762250 0.000000 
#    z 0.000000 0.000000 1.829910 
# 
# From -- ./inp_files/7229.got.cif
#   From: 2010.05.17/outbox.cif.g08.bks.cpg/sg65_4_cif.got.tgz:7229.got - 2010.06.03 17:01:31.
