data_PCOD9484838
_publ_section_title
;
Structure prediction by ZEFSAII (Michael W. Deem and Ramdas Pophale) SiO2 
 PCOD9484838
Probable space group: C M M M
;
_chemical_formula_sum "Si O2"
_cell_formula_units_Z 88
_cell_length_a 14.212090
_cell_length_b 14.355952
_cell_length_c 18.694536
_cell_angle_alpha 90.000000
_cell_angle_beta 90.000000
_cell_angle_gamma 90.000000
_cell_volume 3814.210321
_symmetry_space_group_name_H-M "C M M M"
_symmetry_group_IT_number 65
_symmetry_cell_setting 'orthorhombic'
loop_
_space_group_symop_operation_xyz
x,y,z
-x,-y,z
x,-y,-z
-x,y,-z
-x,-y,-z
x,y,-z
-x,y,z
x,-y,z
1/2+x,1/2+y,z
1/2-x,1/2-y,z
1/2+x,1/2-y,-z
1/2-x,1/2+y,-z
1/2-x,1/2-y,-z
1/2+x,1/2+y,-z
1/2-x,1/2+y,z
1/2+x,1/2-y,z
loop_
_atom_site_type_symbol
_atom_site_label
_atom_site_fract_x
_atom_site_fract_y
_atom_site_fract_z
Si Si1 0.614587 0.000000 0.415686
Si Si2 0.639115 0.106929 0.077068
Si Si3 0.863492 0.255160 0.197020
Si Si4 0.892549 0.297460 0.639172
Si Si5 0.887940 0.898647 0.585487
Si Si6 0.866901 0.107572 0.080349
O O1 0.645883 0.099408 0.380901
O O2 0.500000 0.000000 0.409864
O O3 0.639713 0.000000 0.500000
O O4 0.606897 0.162035 0.145032
O O5 0.752936 0.111847 0.078340
O O6 0.612007 0.000000 0.080375
O O7 0.609592 0.145278 0.000000
O O8 0.750000 0.250000 0.201720
O O9 0.896056 0.278013 0.276242
O O10 0.894326 0.165499 0.150492
O O11 0.847998 0.200772 0.610409
O O12 0.000000 0.299027 0.609951
O O13 0.880727 0.899816 0.500000
O O14 0.000000 0.898317 0.603939
O O15 0.850857 0.000000 0.611925
O O16 0.893346 0.000000 0.087611
O O17 0.896131 0.138576 0.000000
#
# Coordination Sequence:
#
# PCOD9484838 Si02
#       6
#     8  16  16  16  16  16
#     4   9  18  34  56  76  93 125 174 214 239 278
#     4   8  14  25  43  65  88 119 162 207 239 271
#     4  10  19  29  45  70  98 128 156 195 246 297
#     4  10  20  32  49  75 102 128 159 202 249 290
#     4   8  14  27  49  73  93 116 152 197 237 277
#     4   8  14  26  44  66  91 121 163 207 238 274
#
# _framework density 23.071615999999999
#
# number of rings (size 3 to 8) (size 9 to 14) (size 15 to 20)
#    0.000    3.182    0.000    2.727    1.273    5.091 
#    0.000    0.000    0.000    4.364    0.000    2.545 
#    0.000    0.000    0.000    0.000    0.000    0.000 
#
# Total GULP energy -245348.010623 kJ/mol
# GULP energy per Si atom -5576.091151 kJ/mol
# Density = 2.301910 g / cm^3
# Si number density = 23.071616 Si / 1000 Ang^3
#
#
#
# Elastic Constant Matrix: (Units=GPa)
#
#
# Indices 1 2 3 4 5 6 
#
# 1 97.9415 18.3735 -2.8080 0.0000 0.0000 0.0000
# 2 18.3735 242.1815 95.9477 0.0000 0.0000 0.0000
# 3 -2.8080 95.9477 122.8239 0.0000 0.0000 0.0000
# 4 0.0000 0.0000 0.0000 42.9958 0.0000 0.0000
# 5 0.0000 0.0000 0.0000 0.0000 13.7495 0.0000
# 6 0.0000 0.0000 0.0000 0.0000 0.0000 -4.9628
#
#
#
# Elastic Compliance Matrix: (Units=1/GPa)
#
#
# Indices 1 2 3 4 5 6 
#
# 1 0.010488 -0.001290 0.001247 0.000000 0.000000 0.000000
# 2 -0.001290 0.006138 -0.004825 0.000000 0.000000 0.000000
# 3 0.001247 -0.004825 0.011939 0.000000 0.000000 0.000000
# 4 0.000000 0.000000 0.000000 0.023258 0.000000 0.000000
# 5 0.000000 0.000000 0.000000 0.000000 0.072730 0.000000
# 6 0.000000 0.000000 0.000000 0.000000 0.000000 -0.201501
#
#
# Mechanical properties :
#
#
# Convention : Reuss Voigt Hill
#
# Bulk Modulus (GPa) = 53.10340 76.21927 64.66133
# Shear Modulus (GPa) = -82.05354 33.78544 -24.13405
#
# Velocity S-wave (km/s) = -5.97009 3.83086 -3.23778
# Velocity P-wave (km/s) = 4.94528 7.25776 3.75627
#
# Compressibility (1/GPa) = 0.01883119
#
# Stress axis : x y z
#
# Youngs Moduli (GPa) = 95.34786 162.90729 83.75739
#
# Poissons Ratio (x) = 0.21013 -0.10448
# Poissons Ratio (y) = 0.12299 0.40411
# Poissons Ratio (z) = -0.11894 0.78598
#
# Static dielectric constant tensor:
#      x y z
#    x 1.946220 0.000000 0.000000 
#    y 0.000000 1.885100 0.000000 
#    z 0.000000 0.000000 1.792820 
# 
# From -- ./inp_files/43971.got.cif
#   From: 2010.05.17/outbox.cif.g08.bks.cpg/sg65_22_cif.got.tgz:43971.got - 2010.06.03 17:01:31.
