data_PCOD9484716
_publ_section_title
;
Structure prediction by ZEFSAII (Michael W. Deem and Ramdas Pophale) SiO2 
 PCOD9484716
Probable space group: C M M M
;
_chemical_formula_sum "Si O2"
_cell_formula_units_Z 104
_cell_length_a 9.504716
_cell_length_b 31.519377
_cell_length_c 20.719621
_cell_angle_alpha 90.000000
_cell_angle_beta 90.000000
_cell_angle_gamma 90.000000
_cell_volume 6207.240559
_symmetry_space_group_name_H-M "C M M M"
_symmetry_group_IT_number 65
_symmetry_cell_setting 'orthorhombic'
loop_
_space_group_symop_operation_xyz
x,y,z
-x,-y,z
x,-y,-z
-x,y,-z
-x,-y,-z
x,y,-z
-x,y,z
x,-y,z
1/2+x,1/2+y,z
1/2-x,1/2-y,z
1/2+x,1/2-y,-z
1/2-x,1/2+y,-z
1/2-x,1/2-y,-z
1/2+x,1/2+y,-z
1/2-x,1/2+y,z
1/2+x,1/2-y,z
loop_
_atom_site_type_symbol
_atom_site_label
_atom_site_fract_x
_atom_site_fract_y
_atom_site_fract_z
Si Si1 0.841531 0.047570 0.422381
Si Si2 0.837723 0.208466 0.240690
Si Si3 0.162058 0.208592 0.398297
Si Si4 0.659813 0.450262 0.805522
Si Si5 0.658837 0.128260 0.393773
Si Si6 0.340245 0.127487 0.239365
Si Si7 0.000000 0.948819 0.072299
O O1 0.846398 0.045600 0.500000
O O2 0.730312 0.083111 0.405391
O O3 0.000000 0.058741 0.399901
O O4 0.808103 0.000000 0.398486
O O5 0.750000 0.250000 0.221511
O O6 0.839663 0.208196 0.319489
O O7 0.758648 0.166189 0.217154
O O8 0.000000 0.209940 0.219799
O O9 0.250000 0.250000 0.417981
O O10 0.242461 0.166015 0.419095
O O11 0.000000 0.209907 0.419516
O O12 0.500000 0.445748 0.777462
O O13 0.698322 0.500000 0.799686
O O14 0.767059 0.417294 0.775650
O O15 0.632568 0.439022 0.881284
O O16 0.500000 0.130726 0.419247
O O17 0.651530 0.132922 0.316530
O O18 0.500000 0.129709 0.214178
O O19 0.000000 0.000000 0.068364
O O20 0.000000 0.931566 0.000000
#
# Coordination Sequence:
#
# PCOD9484716 Si02
#       7
#    16  16  16  16  16  16   8
#     4   9  19  36  54  69  85 109 146 193 237 272
#     4   9  16  26  41  60  85 119 155 188 223 264
#     4   9  16  27  44  65  89 117 149 183 220 267
#     4   8  16  28  43  64  88 119 153 186 225 267
#     4  10  20  31  45  67  92 121 154 183 222 274
#     4  10  19  29  41  62  96 129 152 182 223 271
#     4   7  12  26  48  68  86 114 155 197 229 263
#
# _framework density 16.754626999999999
#
# number of rings (size 3 to 8) (size 9 to 14) (size 15 to 20)
#    0.462    2.538    0.000    2.308    0.000    7.077 
#    0.000    3.846    0.000    0.923    0.000    2.154 
#    0.000    0.615    0.000    0.000    0.000    0.000 
#
# Total GULP energy -289531.117511 kJ/mol
# GULP energy per Si atom -5567.906106 kJ/mol
# Density = 1.671649 g / cm^3
# Si number density = 16.754627 Si / 1000 Ang^3
#
#
#
# Elastic Constant Matrix: (Units=GPa)
#
#
# Indices 1 2 3 4 5 6 
#
# 1 166.9264 99.5321 10.6172 0.0000 0.0000 0.0000
# 2 99.5321 123.8685 2.8710 0.0000 0.0000 0.0000
# 3 10.6172 2.8710 22.3962 0.0000 0.0000 0.0000
# 4 0.0000 0.0000 0.0000 10.0879 0.0000 0.0000
# 5 0.0000 0.0000 0.0000 0.0000 6.5636 0.0000
# 6 0.0000 0.0000 0.0000 0.0000 0.0000 28.0030
#
#
#
# Elastic Compliance Matrix: (Units=1/GPa)
#
#
# Indices 1 2 3 4 5 6 
#
# 1 0.011925 -0.009479 -0.004438 0.000000 0.000000 0.000000
# 2 -0.009479 0.015632 0.002490 0.000000 0.000000 0.000000
# 3 -0.004438 0.002490 0.046435 0.000000 0.000000 0.000000
# 4 0.000000 0.000000 0.000000 0.099129 0.000000 0.000000
# 5 0.000000 0.000000 0.000000 0.000000 0.152355 0.000000
# 6 0.000000 0.000000 0.000000 0.000000 0.000000 0.035710
#
#
# Mechanical properties :
#
#
# Convention : Reuss Voigt Hill
#
# Bulk Modulus (GPa) = 19.55513 59.91464 39.73489
# Shear Modulus (GPa) = 12.46609 22.27562 17.37085
#
# Velocity S-wave (km/s) = 2.73067 3.65021 3.22340
# Velocity P-wave (km/s) = 4.65176 7.32141 6.13360
#
# Compressibility (1/GPa) = 0.05113748
#
# Stress axis : x y z
#
# Youngs Moduli (GPa) = 83.85654 63.97004 21.53540
#
# Poissons Ratio (x) = 0.60639 0.09558
# Poissons Ratio (y) = 0.79490 -0.05362
# Poissons Ratio (z) = 0.37216 -0.15927
#
# Static dielectric constant tensor:
#      x y z
#    x 1.573290 0.000000 0.000000 
#    y 0.000000 1.562750 0.000000 
#    z 0.000000 0.000000 1.580940 
# 
# From -- ./inp_files/68500.got.cif
#   From: 2010.05.17/outbox.cif.g08.bks.cpg/sg65_35_cif.got.tgz:68500.got - 2010.06.03 17:01:31.
