data_PCOD9484947
_publ_section_title
;
Structure prediction by ZEFSAII (Michael W. Deem and Ramdas Pophale) SiO2 
 PCOD9484947
Probable space group: C M M M
;
_chemical_formula_sum "Si O2"
_cell_formula_units_Z 96
_cell_length_a 8.096112
_cell_length_b 28.251198
_cell_length_c 25.292171
_cell_angle_alpha 90.000000
_cell_angle_beta 90.000000
_cell_angle_gamma 90.000000
_cell_volume 5784.948351
_symmetry_space_group_name_H-M "C M M M"
_symmetry_group_IT_number 65
_symmetry_cell_setting 'orthorhombic'
loop_
_space_group_symop_operation_xyz
x,y,z
-x,-y,z
x,-y,-z
-x,y,-z
-x,-y,-z
x,y,-z
-x,y,z
x,-y,z
1/2+x,1/2+y,z
1/2-x,1/2-y,z
1/2+x,1/2-y,-z
1/2-x,1/2+y,-z
1/2-x,1/2-y,-z
1/2+x,1/2+y,-z
1/2-x,1/2+y,z
1/2+x,1/2-y,z
loop_
_atom_site_type_symbol
_atom_site_label
_atom_site_fract_x
_atom_site_fract_y
_atom_site_fract_z
Si Si1 0.800588 0.694770 0.056831
Si Si2 0.696478 0.302862 0.614614
Si Si3 0.200031 0.304982 0.827848
Si Si4 0.802985 0.352775 0.721159
Si Si5 0.800704 0.052662 0.334370
Si Si6 0.798029 0.897574 0.558895
O O1 0.750000 0.750000 0.056753
O O2 0.742876 0.676799 0.114240
O O3 0.000000 0.691990 0.056703
O O4 0.741907 0.674734 0.000000
O O5 0.500000 0.304297 0.613392
O O6 0.750000 0.250000 0.601423
O O7 0.749910 0.318159 0.673517
O O8 0.755720 0.344550 0.575560
O O9 0.250000 0.250000 0.822352
O O10 0.261639 0.334295 0.777452
O O11 0.000000 0.306583 0.827715
O O12 0.749078 0.405437 0.704987
O O13 0.000000 0.351980 0.723139
O O14 0.745408 0.068401 0.393280
O O15 0.000000 0.051826 0.335350
O O16 0.741039 0.000000 0.321218
O O17 0.742297 0.910003 0.500000
O O18 0.000000 0.898178 0.558510
#
# Coordination Sequence:
#
# PCOD9484947 Si02
#       6
#    16  16  16  16  16  16
#     4   8  13  22  35  51  75 107 140 171 200 230
#     4  10  19  30  44  62  85 113 143 172 203 240
#     4   9  17  26  38  59  84 112 144 172 200 235
#     4  10  19  30  44  62  85 111 140 173 206 244
#     4   9  18  32  49  67  85 105 130 164 208 255
#     4   8  15  28  45  65  86 106 131 164 201 244
#
# _framework density 16.594791000000001
#
# number of rings (size 3 to 8) (size 9 to 14) (size 15 to 20)
#    0.000    3.000    0.000    2.500    0.000    3.667 
#    0.000    1.667    0.000   12.000    0.000    4.667 
#    0.000    0.667    0.000    8.333    0.000    1.333 
#
# Total GULP energy -267242.750689 kJ/mol
# GULP energy per Si atom -5567.557306 kJ/mol
# Density = 1.655702 g / cm^3
# Si number density = 16.594791 Si / 1000 Ang^3
#
#
#
# Elastic Constant Matrix: (Units=GPa)
#
#
# Indices 1 2 3 4 5 6 
#
# 1 13.7668 3.6625 2.6841 0.0000 0.0000 0.0000
# 2 3.6625 56.0411 14.9989 0.0000 0.0000 0.0000
# 3 2.6841 14.9989 115.8936 0.0000 0.0000 0.0000
# 4 0.0000 0.0000 0.0000 11.3959 0.0000 0.0000
# 5 0.0000 0.0000 0.0000 0.0000 11.1720 0.0000
# 6 0.0000 0.0000 0.0000 0.0000 0.0000 17.7792
#
#
#
# Elastic Compliance Matrix: (Units=1/GPa)
#
#
# Indices 1 2 3 4 5 6 
#
# 1 0.074066 -0.004539 -0.001128 0.000000 0.000000 0.000000
# 2 -0.004539 0.018762 -0.002323 0.000000 0.000000 0.000000
# 3 -0.001128 -0.002323 0.008955 0.000000 0.000000 0.000000
# 4 0.000000 0.000000 0.000000 0.087751 0.000000 0.000000
# 5 0.000000 0.000000 0.000000 0.000000 0.089509 0.000000
# 6 0.000000 0.000000 0.000000 0.000000 0.000000 0.056245
#
#
# Mechanical properties :
#
#
# Convention : Reuss Voigt Hill
#
# Bulk Modulus (GPa) = 11.65445 25.37697 18.51571
# Shear Modulus (GPa) = 13.16238 19.02648 16.09443
#
# Velocity S-wave (km/s) = 2.81937 3.38972 3.11762
# Velocity P-wave (km/s) = 4.19960 5.53585 4.91336
#
# Compressibility (1/GPa) = 0.08580415
#
# Stress axis : x y z
#
# Youngs Moduli (GPa) = 13.50151 53.29803 111.66468
#
# Poissons Ratio (x) = 0.24190 0.12596
# Poissons Ratio (y) = 0.06128 0.25941
# Poissons Ratio (z) = 0.01523 0.12382
#
# Static dielectric constant tensor:
#      x y z
#    x 1.595110 0.000000 0.000000 
#    y 0.000000 1.528740 0.000000 
#    z 0.000000 0.000000 1.610320 
# 
# From -- ./inp_files/68041.got.cif
#   From: 2010.05.17/outbox.cif.g08.bks.cpg/sg65_35_cif.got.tgz:68041.got - 2010.06.03 17:01:31.
