data_PCOD9484912
_publ_section_title
;
Structure prediction by ZEFSAII (Michael W. Deem and Ramdas Pophale) SiO2 
 PCOD9484912
Probable space group: C M M M
;
_chemical_formula_sum "Si O2"
_cell_formula_units_Z 90
_cell_length_a 32.128720
_cell_length_b 23.940516
_cell_length_c 8.922162
_cell_angle_alpha 90.000000
_cell_angle_beta 90.000000
_cell_angle_gamma 90.000000
_cell_volume 6862.731929
_symmetry_space_group_name_H-M "C M M M"
_symmetry_group_IT_number 65
_symmetry_cell_setting 'orthorhombic'
loop_
_space_group_symop_operation_xyz
x,y,z
-x,-y,z
x,-y,-z
-x,y,-z
-x,-y,-z
x,y,-z
-x,y,z
x,-y,z
1/2+x,1/2+y,z
1/2-x,1/2-y,z
1/2+x,1/2-y,-z
1/2-x,1/2+y,-z
1/2-x,1/2-y,-z
1/2+x,1/2+y,-z
1/2-x,1/2+y,z
1/2+x,1/2-y,z
loop_
_atom_site_type_symbol
_atom_site_label
_atom_site_fract_x
_atom_site_fract_y
_atom_site_fract_z
Si Si1 0.792530 0.786690 0.673075
Si Si2 0.222213 0.500000 0.680188
Si Si3 0.625067 0.000000 0.318368
Si Si4 0.500000 0.000000 0.000000
Si Si5 0.587280 0.881333 0.319857
Si Si6 0.000000 0.616118 0.165385
Si Si7 0.838949 0.688107 0.821584
Si Si8 0.744714 0.884068 0.821581
O O1 0.803855 0.795861 0.500000
O O2 0.750000 0.750000 0.675263
O O3 0.826027 0.748352 0.757123
O O4 0.780197 0.843911 0.754662
O O5 0.223556 0.500000 0.500000
O O6 0.173394 0.500000 0.727765
O O7 0.242742 0.444108 0.744363
O O8 0.602406 0.056646 0.268727
O O9 0.624616 0.000000 0.500000
O O10 0.500000 0.950108 0.128090
O O11 0.586940 0.880492 0.500000
O O12 0.541798 0.870232 0.254476
O O13 0.621107 0.837995 0.258036
O O14 0.000000 0.643541 0.000000
O O15 0.799565 0.646943 0.791997
O O16 0.844780 0.690730 0.000000
O O17 0.749279 0.889096 0.000000
#
# Coordination Sequence:
#
# PCOD9484912 Si02
#       8
#    16   8   8   2  16   8  16  16
#     4   9  17  29  45  61  80 106 135 168 206 251
#     4  11  19  30  43  60  84 111 143 175 214 255
#     4   9  19  29  42  59  79 103 135 179 217 255
#     4   8  20  36  50  56  80 108 138 176 220 274
#     4  11  20  33  48  63  80 105 140 178 219 264
#     4  10  21  35  45  61  79 106 134 174 220 265
#     4  10  19  30  44  64  83 106 133 172 216 257
#     4  10  19  30  42  61  84 109 136 172 212 253
#
# _framework density 13.114311000000001
#
# number of rings (size 3 to 8) (size 9 to 14) (size 15 to 20)
#    0.267    1.778    1.778    3.200    0.000    3.556 
#    0.000    1.778    0.000    0.000    0.000    0.000 
#    0.000    0.000    0.000    0.000    0.000    0.889 
#
# Total GULP energy -250667.270957 kJ/mol
# GULP energy per Si atom -5570.383799 kJ/mol
# Density = 1.308446 g / cm^3
# Si number density = 13.114311 Si / 1000 Ang^3
#
#
#
# Elastic Constant Matrix: (Units=GPa)
#
#
# Indices 1 2 3 4 5 6 
#
# 1 78.9343 55.1638 46.1159 0.0000 0.0000 0.0000
# 2 55.1638 95.5978 54.4445 0.0000 0.0000 0.0000
# 3 46.1159 54.4445 79.4236 0.0000 0.0000 0.0000
# 4 0.0000 0.0000 0.0000 22.9564 0.0000 0.0000
# 5 0.0000 0.0000 0.0000 0.0000 19.6912 0.0000
# 6 0.0000 0.0000 0.0000 0.0000 0.0000 6.2046
#
#
#
# Elastic Compliance Matrix: (Units=1/GPa)
#
#
# Indices 1 2 3 4 5 6 
#
# 1 0.023452 -0.009478 -0.007120 0.000000 0.000000 0.000000
# 2 -0.009478 0.020990 -0.008885 0.000000 0.000000 0.000000
# 3 -0.007120 -0.008885 0.022816 0.000000 0.000000 0.000000
# 4 0.000000 0.000000 0.000000 0.043561 0.000000 0.000000
# 5 0.000000 0.000000 0.000000 0.000000 0.050784 0.000000
# 6 0.000000 0.000000 0.000000 0.000000 0.000000 0.161171
#
#
# Mechanical properties :
#
#
# Convention : Reuss Voigt Hill
#
# Bulk Modulus (GPa) = 61.38247 62.82267 62.10257
# Shear Modulus (GPa) = 13.18666 16.31920 14.75293
#
# Velocity S-wave (km/s) = 3.17443 3.53141 3.35766
# Velocity P-wave (km/s) = 7.76810 8.03963 7.90503
#
# Compressibility (1/GPa) = 0.01629130
#
# Stress axis : x y z
#
# Youngs Moduli (GPa) = 42.63985 47.64178 43.82939
#
# Poissons Ratio (x) = 0.45154 0.31207
# Poissons Ratio (y) = 0.40414 0.38944
# Poissons Ratio (z) = 0.30360 0.42331
#
# Static dielectric constant tensor:
#      x y z
#    x 1.406330 0.000000 0.000000 
#    y 0.000000 1.412240 0.000000 
#    z 0.000000 0.000000 1.439830 
# 
# From -- ./inp_files/18596.got.cif
#   From: 2010.05.17/outbox.cif.g08.bks.cpg/sg65_10_cif.got.tgz:18596.got - 2010.06.03 17:01:31.
