data_PCOD9484840
_publ_section_title
;
Structure prediction by ZEFSAII (Michael W. Deem and Ramdas Pophale) SiO2 
 PCOD9484840
Probable space group: C M M M
;
_chemical_formula_sum "Si O2"
_cell_formula_units_Z 96
_cell_length_a 9.233811
_cell_length_b 27.578502
_cell_length_c 22.089578
_cell_angle_alpha 90.000000
_cell_angle_beta 90.000000
_cell_angle_gamma 90.000000
_cell_volume 5625.214309
_symmetry_space_group_name_H-M "C M M M"
_symmetry_group_IT_number 65
_symmetry_cell_setting 'orthorhombic'
loop_
_space_group_symop_operation_xyz
x,y,z
-x,-y,z
x,-y,-z
-x,y,-z
-x,-y,-z
x,y,-z
-x,y,z
x,-y,z
1/2+x,1/2+y,z
1/2-x,1/2-y,z
1/2+x,1/2-y,-z
1/2-x,1/2+y,-z
1/2-x,1/2-y,-z
1/2+x,1/2+y,-z
1/2-x,1/2+y,z
1/2+x,1/2-y,z
loop_
_atom_site_type_symbol
_atom_site_label
_atom_site_fract_x
_atom_site_fract_y
_atom_site_fract_z
Si Si1 0.166678 0.297720 0.270186
Si Si2 0.323987 0.500000 0.930001
Si Si3 0.826514 0.100932 0.868945
Si Si4 0.832971 0.059318 0.500000
Si Si5 0.171666 0.896015 0.274646
Si Si6 0.663409 0.057635 0.380970
Si Si7 0.832812 0.299095 0.877190
O O1 0.250000 0.250000 0.290756
O O2 0.257720 0.344251 0.288952
O O3 0.165821 0.297062 0.196457
O O4 0.000000 0.299541 0.289810
O O5 0.500000 0.500000 0.925963
O O6 0.277500 0.550676 0.899656
O O7 0.282530 0.500000 0.000000
O O8 0.802584 0.095260 0.796748
O O9 0.747163 0.149970 0.891324
O O10 0.000000 0.106954 0.878308
O O11 0.750520 0.075934 0.439533
O O12 0.000000 0.074509 0.500000
O O13 0.832585 0.000000 0.500000
O O14 0.250479 0.932493 0.319491
O O15 0.000000 0.896315 0.284343
O O16 0.500000 0.077396 0.377925
O O17 0.653019 0.000000 0.388690
O O18 0.750000 0.250000 0.897571
O O19 0.000000 0.299154 0.897613
#
# Coordination Sequence:
#
# PCOD9484840 Si02
#       7
#    16   8  16   8  16  16  16
#     4   9  16  27  43  64  94 126 158 192 237 292
#     4   9  18  34  55  75  97 132 175 212 247 295
#     4   9  18  31  49  73 100 130 167 209 252 299
#     4   9  17  31  49  67  88 121 164 203 241 287
#     4  10  19  29  45  70  99 127 160 200 246 291
#     4  10  20  32  46  66  95 129 163 200 243 289
#     4   9  16  27  46  71  99 128 158 197 248 302
#
# _framework density 17.066016000000001
#
# number of rings (size 3 to 8) (size 9 to 14) (size 15 to 20)
#    0.000    2.667    0.000    2.250    1.167    6.667 
#    0.000    0.417    0.000    1.500    0.000    0.583 
#    0.000    0.000    0.000    0.000    0.000    0.000 
#
# Total GULP energy -267413.768272 kJ/mol
# GULP energy per Si atom -5571.120172 kJ/mol
# Density = 1.702717 g / cm^3
# Si number density = 17.066016 Si / 1000 Ang^3
#
#
#
# Elastic Constant Matrix: (Units=GPa)
#
#
# Indices 1 2 3 4 5 6 
#
# 1 120.2123 58.9270 47.3782 0.0000 0.0000 0.0000
# 2 58.9270 101.0526 42.3366 0.0000 0.0000 0.0000
# 3 47.3782 42.3366 39.6619 0.0000 0.0000 0.0000
# 4 0.0000 0.0000 0.0000 -6.0789 0.0000 0.0000
# 5 0.0000 0.0000 0.0000 0.0000 9.8200 0.0000
# 6 0.0000 0.0000 0.0000 0.0000 0.0000 29.4767
#
#
#
# Elastic Compliance Matrix: (Units=1/GPa)
#
#
# Indices 1 2 3 4 5 6 
#
# 1 0.016034 -0.002398 -0.016594 0.000000 0.000000 0.000000
# 2 -0.002398 0.018260 -0.016627 0.000000 0.000000 0.000000
# 3 -0.016594 -0.016627 0.062784 0.000000 0.000000 0.000000
# 4 0.000000 0.000000 0.000000 -0.164503 0.000000 0.000000
# 5 0.000000 0.000000 0.000000 0.000000 0.101833 0.000000
# 6 0.000000 0.000000 0.000000 0.000000 0.000000 0.033925
#
#
# Mechanical properties :
#
#
# Convention : Reuss Voigt Hill
#
# Bulk Modulus (GPa) = 38.69956 62.02337 50.36146
# Shear Modulus (GPa) = 33.74169 14.12923 23.93546
#
# Velocity S-wave (km/s) = 4.45131 2.88047 3.74909
# Velocity P-wave (km/s) = 7.01032 6.89093 6.95088
#
# Compressibility (1/GPa) = 0.02584009
#
# Stress axis : x y z
#
# Youngs Moduli (GPa) = 62.36737 54.76410 15.92767
#
# Poissons Ratio (x) = 0.13131 0.26430
# Poissons Ratio (y) = 0.14955 0.26483
# Poissons Ratio (z) = 1.03492 0.91057
#
# Static dielectric constant tensor:
#      x y z
#    x 1.582530 0.000000 0.000000 
#    y 0.000000 1.599840 0.000000 
#    z 0.000000 0.000000 1.559440 
# 
# From -- ./inp_files/67890.got.cif
#   From: 2010.05.17/outbox.cif.g08.bks.cpg/sg65_34_cif.got.tgz:67890.got - 2010.06.03 17:01:31.
