data_PCOD9484765
_publ_section_title
;
Structure prediction by ZEFSAII (Michael W. Deem and Ramdas Pophale) SiO2 
 PCOD9484765
Probable space group: C M M M
;
_chemical_formula_sum "Si O2"
_cell_formula_units_Z 80
_cell_length_a 19.515648
_cell_length_b 7.377165
_cell_length_c 26.815181
_cell_angle_alpha 90.000000
_cell_angle_beta 90.000000
_cell_angle_gamma 90.000000
_cell_volume 3860.585775
_symmetry_space_group_name_H-M "C M M M"
_symmetry_group_IT_number 65
_symmetry_cell_setting 'orthorhombic'
loop_
_space_group_symop_operation_xyz
x,y,z
-x,-y,z
x,-y,-z
-x,y,-z
-x,-y,-z
x,y,-z
-x,y,z
x,-y,z
1/2+x,1/2+y,z
1/2-x,1/2-y,z
1/2+x,1/2-y,-z
1/2-x,1/2+y,-z
1/2-x,1/2-y,-z
1/2+x,1/2+y,-z
1/2-x,1/2+y,z
1/2+x,1/2-y,z
loop_
_atom_site_type_symbol
_atom_site_label
_atom_site_fract_x
_atom_site_fract_y
_atom_site_fract_z
Si Si1 0.579206 0.222002 0.000000
Si Si2 0.169750 0.283331 0.907329
Si Si3 0.169124 0.716653 0.500000
Si Si4 0.170004 0.716527 0.204230
Si Si5 0.420879 0.779206 0.295527
Si Si6 0.579326 0.220979 0.407396
O O1 0.620428 0.283223 0.950965
O O2 0.500000 0.277082 0.000000
O O3 0.580141 0.000000 0.000000
O O4 0.161375 0.500000 0.905619
O O5 0.250000 0.250000 0.918338
O O6 0.154507 0.213212 0.851527
O O7 0.160238 0.500000 0.500000
O O8 0.250000 0.750000 0.500000
O O9 0.130188 0.784084 0.450545
O O10 0.159442 0.500000 0.202508
O O11 0.250000 0.750000 0.213489
O O12 0.125257 0.786556 0.250032
O O13 0.500000 0.728403 0.288101
O O14 0.400512 0.721739 0.351413
O O15 0.418252 0.000000 0.295585
O O16 0.500000 0.273929 0.416541
O O17 0.579741 0.000000 0.407517
#
# Coordination Sequence:
#
# PCOD9484765 Si02
#       6
#     8  16   8  16  16  16
#     4   9  17  28  43  65  88 107 134 176 218 247
#     4   9  17  29  45  63  84 112 142 170 203 247
#     4  10  19  29  43  65  89 110 136 172 212 250
#     4   9  17  28  43  64  87 111 139 170 206 247
#     4   8  14  25  42  64  86 107 137 177 212 240
#     4   8  14  26  44  63  82 108 143 177 205 239
#
# _framework density 20.722245000000001
#
# number of rings (size 3 to 8) (size 9 to 14) (size 15 to 20)
#    0.000    3.300    0.000    1.800    0.000    2.800 
#    0.000    4.000    0.000    3.000    0.000    8.400 
#    0.000    0.000    0.000    0.000    0.000    0.000 
#
# Total GULP energy -223164.312759 kJ/mol
# GULP energy per Si atom -5579.107819 kJ/mol
# Density = 2.067508 g / cm^3
# Si number density = 20.722245 Si / 1000 Ang^3
#
#
#
# Elastic Constant Matrix: (Units=GPa)
#
#
# Indices 1 2 3 4 5 6 
#
# 1 144.6022 0.9821 168.4642 0.0000 0.0000 0.0000
# 2 0.9821 74.3284 10.6437 0.0000 0.0000 0.0000
# 3 168.4642 10.6437 256.2006 0.0000 0.0000 0.0000
# 4 0.0000 0.0000 0.0000 -3.2445 0.0000 0.0000
# 5 0.0000 0.0000 0.0000 0.0000 46.5103 0.0000
# 6 0.0000 0.0000 0.0000 0.0000 0.0000 17.3339
#
#
#
# Elastic Compliance Matrix: (Units=1/GPa)
#
#
# Indices 1 2 3 4 5 6 
#
# 1 0.029995 0.002443 -0.019825 0.000000 0.000000 0.000000
# 2 0.002443 0.013733 -0.002177 0.000000 0.000000 0.000000
# 3 -0.019825 -0.002177 0.017029 0.000000 0.000000 0.000000
# 4 0.000000 0.000000 0.000000 -0.308214 0.000000 0.000000
# 5 0.000000 0.000000 0.000000 0.000000 0.021501 0.000000
# 6 0.000000 0.000000 0.000000 0.000000 0.000000 0.057691
#
#
# Mechanical properties :
#
#
# Convention : Reuss Voigt Hill
#
# Bulk Modulus (GPa) = 46.21060 92.81236 69.51148
# Shear Modulus (GPa) = -41.00547 31.78935 -4.60806
#
# Velocity S-wave (km/s) = -4.45321 3.92097 -1.49283
# Velocity P-wave (km/s) = 2.02313 8.08608 5.53586
#
# Compressibility (1/GPa) = 0.02164006
#
# Stress axis : x y z
#
# Youngs Moduli (GPa) = 33.33893 72.81611 58.72248
#
# Poissons Ratio (x) = -0.17786 1.16415
# Poissons Ratio (y) = -0.08143 0.12782
# Poissons Ratio (z) = 0.66093 0.15849
#
# Static dielectric constant tensor:
#      x y z
#    x 1.675760 0.000000 0.000000 
#    y 0.000000 1.816060 0.000000 
#    z 0.000000 0.000000 1.746540 
# 
# From -- ./inp_files/70419.got.cif
#   From: 2010.05.17/outbox.cif.g08.bks.cpg/sg65_36_cif.got.tgz:70419.got - 2010.06.03 17:01:31.
