data_PCOD9484275
_publ_section_title
;
Structure prediction by ZEFSAII (Michael W. Deem and Ramdas Pophale) SiO2 
 PCOD9484275
Probable space group: C M M M
;
_chemical_formula_sum "Si O2"
_cell_formula_units_Z 64
_cell_length_a 8.386000
_cell_length_b 14.544385
_cell_length_c 22.860135
_cell_angle_alpha 90.000000
_cell_angle_beta 90.000000
_cell_angle_gamma 90.000000
_cell_volume 2788.232666
_symmetry_space_group_name_H-M "C M M M"
_symmetry_group_IT_number 65
_symmetry_cell_setting 'orthorhombic'
loop_
_space_group_symop_operation_xyz
x,y,z
-x,-y,z
x,-y,-z
-x,y,-z
-x,-y,-z
x,y,-z
-x,y,z
x,-y,z
1/2+x,1/2+y,z
1/2-x,1/2-y,z
1/2+x,1/2-y,-z
1/2-x,1/2+y,-z
1/2-x,1/2-y,-z
1/2+x,1/2+y,-z
1/2-x,1/2+y,z
1/2+x,1/2-y,z
loop_
_atom_site_type_symbol
_atom_site_label
_atom_site_fract_x
_atom_site_fract_y
_atom_site_fract_z
Si Si1 0.500000 0.887612 0.567570
Si Si2 0.676977 0.107164 0.751079
Si Si3 0.810572 0.145463 0.122497
Si Si4 0.189580 0.355994 0.000000
Si Si5 0.175750 0.112448 0.366801
O O1 0.500000 0.859918 0.500000
O O2 0.335088 0.858358 0.598706
O O3 0.500000 0.000000 0.569965
O O4 0.500000 0.149936 0.748857
O O5 0.742185 0.109598 0.816638
O O6 0.794311 0.141711 0.700651
O O7 0.659095 0.000000 0.736284
O O8 0.750000 0.250000 0.121532
O O9 0.000000 0.140754 0.123433
O O10 0.750523 0.103680 0.061272
O O11 0.250000 0.250000 0.000000
O O12 0.000000 0.356790 0.000000
O O13 0.000000 0.144168 0.386750
O O14 0.171277 0.000000 0.370432
#
# Coordination Sequence:
#
# PCOD9484275 Si02
#       5
#     8  16  16   8  16
#     4   9  16  26  40  62  94 129 165 205 246 295
#     4  10  19  33  52  73 100 135 170 207 256 309
#     4  11  21  34  52  75 101 130 166 211 254 303
#     4  10  18  32  51  70  95 128 165 201 255 309
#     4   9  16  27  43  64  92 129 167 202 248 302
#
# _framework density 22.953609
#
# number of rings (size 3 to 8) (size 9 to 14) (size 15 to 20)
#    0.000    2.125    1.250    5.625    0.000    2.000 
#    0.000    3.125    0.000    3.750    0.000    0.000 
#    0.000    1.000    0.500    0.000    0.000    0.000 
#
# Total GULP energy -178701.890394 kJ/mol
# GULP energy per Si atom -5584.434075 kJ/mol
# Density = 2.290137 g / cm^3
# Si number density = 22.953609 Si / 1000 Ang^3
#
#
#
# Elastic Constant Matrix: (Units=GPa)
#
#
# Indices 1 2 3 4 5 6 
#
# 1 241.7399 5.8298 89.2663 0.0000 0.0000 0.0000
# 2 5.8298 52.0582 -3.6165 0.0000 0.0000 0.0000
# 3 89.2663 -3.6165 161.5291 0.0000 0.0000 0.0000
# 4 0.0000 0.0000 0.0000 17.8821 0.0000 0.0000
# 5 0.0000 0.0000 0.0000 0.0000 18.7935 0.0000
# 6 0.0000 0.0000 0.0000 0.0000 0.0000 13.0275
#
#
#
# Elastic Compliance Matrix: (Units=1/GPa)
#
#
# Indices 1 2 3 4 5 6 
#
# 1 0.005229 -0.000788 -0.002908 0.000000 0.000000 0.000000
# 2 -0.000788 0.019358 0.000869 0.000000 0.000000 0.000000
# 3 -0.002908 0.000869 0.007817 0.000000 0.000000 0.000000
# 4 0.000000 0.000000 0.000000 0.055922 0.000000 0.000000
# 5 0.000000 0.000000 0.000000 0.000000 0.053210 0.000000
# 6 0.000000 0.000000 0.000000 0.000000 0.000000 0.076761
#
#
# Mechanical properties :
#
#
# Convention : Reuss Voigt Hill
#
# Bulk Modulus (GPa) = 37.38140 70.92071 54.15105
# Shear Modulus (GPa) = 21.47153 34.19713 27.83433
#
# Velocity S-wave (km/s) = 3.06180 3.86403 3.48607
# Velocity P-wave (km/s) = 5.36847 7.13247 6.31239
#
# Compressibility (1/GPa) = 0.02675128
#
# Stress axis : x y z
#
# Youngs Moduli (GPa) = 191.22939 51.65871 127.92502
#
# Poissons Ratio (x) = 0.04069 0.37195
# Poissons Ratio (y) = 0.15061 -0.11112
# Poissons Ratio (z) = 0.55600 -0.04487
#
# Static dielectric constant tensor:
#      x y z
#    x 1.817210 0.000000 0.000000 
#    y 0.000000 1.912990 0.000000 
#    z 0.000000 0.000000 1.858760 
# 
# From -- ./inp_files/58871.got.cif
#   From: 2010.05.17/outbox.cif.g08.bks.cpg/sg65_30_cif.got.tgz:58871.got - 2010.06.03 17:01:31.
