data_PCOD9484412
_publ_section_title
;
Structure prediction by ZEFSAII (Michael W. Deem and Ramdas Pophale) SiO2 
 PCOD9484412
Probable space group: C M M M
;
_chemical_formula_sum "Si O2"
_cell_formula_units_Z 104
_cell_length_a 27.151984
_cell_length_b 9.112449
_cell_length_c 25.381682
_cell_angle_alpha 90.000000
_cell_angle_beta 90.000000
_cell_angle_gamma 90.000000
_cell_volume 6279.962905
_symmetry_space_group_name_H-M "C M M M"
_symmetry_group_IT_number 65
_symmetry_cell_setting 'orthorhombic'
loop_
_space_group_symop_operation_xyz
x,y,z
-x,-y,z
x,-y,-z
-x,y,-z
-x,-y,-z
x,y,-z
-x,y,z
x,-y,z
1/2+x,1/2+y,z
1/2-x,1/2-y,z
1/2+x,1/2-y,-z
1/2-x,1/2+y,-z
1/2-x,1/2-y,-z
1/2+x,1/2+y,-z
1/2-x,1/2+y,z
1/2+x,1/2-y,z
loop_
_atom_site_type_symbol
_atom_site_label
_atom_site_fract_x
_atom_site_fract_y
_atom_site_fract_z
Si Si1 0.500000 0.326778 0.563089
Si Si2 0.400197 0.675097 0.940235
Si Si3 0.058428 0.665737 0.157927
Si Si4 0.301394 0.823956 0.562190
Si Si5 0.904642 0.322175 0.615750
Si Si6 0.702527 0.165734 0.936581
Si Si7 0.556983 0.178363 0.271820
O O1 0.500000 0.500000 0.576439
O O2 0.500000 0.312309 0.500000
O O3 0.549231 0.250459 0.585756
O O4 0.399627 0.500000 0.939295
O O5 0.432483 0.738719 0.893392
O O6 0.346176 0.739557 0.929160
O O7 0.414681 0.721289 0.000000
O O8 0.077829 0.500000 0.149172
O O9 0.076427 0.726647 0.214405
O O10 0.000000 0.654621 0.165593
O O11 0.308002 0.789680 0.500000
O O12 0.250000 0.750000 0.579517
O O13 0.351328 0.779545 0.592569
O O14 0.296535 0.000000 0.567214
O O15 0.908974 0.500000 0.610998
O O16 0.911365 0.282165 0.677267
O O17 0.750000 0.250000 0.915286
O O18 0.697890 0.000000 0.916277
O O19 0.708616 0.154771 0.000000
O O20 0.500000 0.226330 0.280033
O O21 0.555937 0.000000 0.268993
#
# Coordination Sequence:
#
# PCOD9484412 Si02
#       7
#     8  16  16  16  16  16  16
#     4  11  23  33  43  71 113 143 160 193 254 309
#     4  10  20  32  46  67  96 127 160 198 241 290
#     4   9  18  32  50  70  93 123 161 201 244 298
#     4   9  18  31  48  72 100 133 173 211 248 292
#     4  10  18  32  55  76  96 129 174 215 248 297
#     4   9  16  27  45  68  93 120 150 185 229 283
#     4   8  14  28  51  75  94 117 156 204 249 293
#
# _framework density 16.560607000000001
#
# number of rings (size 3 to 8) (size 9 to 14) (size 15 to 20)
#    0.000    2.692    0.769    2.538    0.000    5.231 
#    0.000    3.846    0.000    0.923    0.000    2.154 
#    0.000    0.000    0.000    0.000    0.000    0.000 
#
# Total GULP energy -289535.616903 kJ/mol
# GULP energy per Si atom -5567.992633 kJ/mol
# Density = 1.652291 g / cm^3
# Si number density = 16.560607 Si / 1000 Ang^3
#
#
#
# Elastic Constant Matrix: (Units=GPa)
#
#
# Indices 1 2 3 4 5 6 
#
# 1 95.5824 29.8390 59.9489 0.0000 0.0000 0.0000
# 2 29.8390 43.4095 38.6582 0.0000 0.0000 0.0000
# 3 59.9489 38.6582 110.7967 0.0000 0.0000 0.0000
# 4 0.0000 0.0000 0.0000 10.3694 0.0000 0.0000
# 5 0.0000 0.0000 0.0000 0.0000 18.4175 0.0000
# 6 0.0000 0.0000 0.0000 0.0000 0.0000 23.8387
#
#
#
# Elastic Compliance Matrix: (Units=1/GPa)
#
#
# Indices 1 2 3 4 5 6 
#
# 1 0.016533 -0.004930 -0.007225 0.000000 0.000000 0.000000
# 2 -0.004930 0.034891 -0.009506 0.000000 0.000000 0.000000
# 3 -0.007225 -0.009506 0.016252 0.000000 0.000000 0.000000
# 4 0.000000 0.000000 0.000000 0.096438 0.000000 0.000000
# 5 0.000000 0.000000 0.000000 0.000000 0.054296 0.000000
# 6 0.000000 0.000000 0.000000 0.000000 0.000000 0.041949
#
#
# Mechanical properties :
#
#
# Convention : Reuss Voigt Hill
#
# Bulk Modulus (GPa) = 41.06373 56.29790 48.68082
# Shear Modulus (GPa) = 16.03595 18.61462 17.32528
#
# Velocity S-wave (km/s) = 3.11516 3.35629 3.23797
# Velocity P-wave (km/s) = 6.14726 7.00632 6.59080
#
# Compressibility (1/GPa) = 0.02435239
#
# Stress axis : x y z
#
# Youngs Moduli (GPa) = 60.48526 28.66059 61.53124
#
# Poissons Ratio (x) = 0.14129 0.44459
# Poissons Ratio (y) = 0.29819 0.58494
# Poissons Ratio (z) = 0.43703 0.27246
#
# Static dielectric constant tensor:
#      x y z
#    x 1.556910 0.000000 0.000000 
#    y 0.000000 1.562720 0.000000 
#    z 0.000000 0.000000 1.578650 
# 
# From -- ./inp_files/71785.got.cif
#   From: 2010.05.17/outbox.cif.g08.bks.cpg/sg65_36_cif.got.tgz:71785.got - 2010.06.03 17:01:31.
