data_PCOD9484920
_publ_section_title
;
Structure prediction by ZEFSAII (Michael W. Deem and Ramdas Pophale) SiO2 
 PCOD9484920
Probable space group: C M M M
;
_chemical_formula_sum "Si O2"
_cell_formula_units_Z 96
_cell_length_a 9.033769
_cell_length_b 25.862107
_cell_length_c 28.158112
_cell_angle_alpha 90.000000
_cell_angle_beta 90.000000
_cell_angle_gamma 90.000000
_cell_volume 6578.644484
_symmetry_space_group_name_H-M "C M M M"
_symmetry_group_IT_number 65
_symmetry_cell_setting 'orthorhombic'
loop_
_space_group_symop_operation_xyz
x,y,z
-x,-y,z
x,-y,-z
-x,y,-z
-x,-y,-z
x,y,-z
-x,y,z
x,-y,z
1/2+x,1/2+y,z
1/2-x,1/2-y,z
1/2+x,1/2-y,-z
1/2-x,1/2+y,-z
1/2-x,1/2-y,-z
1/2+x,1/2+y,-z
1/2-x,1/2+y,z
1/2+x,1/2-y,z
loop_
_atom_site_type_symbol
_atom_site_label
_atom_site_fract_x
_atom_site_fract_y
_atom_site_fract_z
Si Si1 0.321579 0.898383 0.113563
Si Si2 0.829108 0.436994 0.500000
Si Si3 0.176666 0.805906 0.055659
Si Si4 0.829765 0.562864 0.693706
Si Si5 0.823936 0.061837 0.792054
Si Si6 0.829027 0.936964 0.402943
Si Si7 0.679585 0.000000 0.945864
O O1 0.500000 0.895050 0.114170
O O2 0.251544 0.848430 0.088931
O O3 0.259248 0.908462 0.166041
O O4 0.276851 0.948574 0.082331
O O5 0.826214 0.500000 0.500000
O O6 0.748173 0.420239 0.548202
O O7 0.000000 0.421212 0.500000
O O8 0.250000 0.750000 0.063762
O O9 0.000000 0.803544 0.063183
O O10 0.202492 0.819348 0.000000
O O11 0.829542 0.500000 0.692506
O O12 0.737975 0.577359 0.740453
O O13 0.755995 0.580166 0.644441
O O14 0.000000 0.579605 0.697231
O O15 0.000000 0.069690 0.794619
O O16 0.795568 0.000000 0.797809
O O17 0.000000 0.921293 0.401615
O O18 0.826043 0.000000 0.402893
O O19 0.500000 0.000000 0.947250
O O20 0.733834 0.000000 0.000000
#
# Coordination Sequence:
#
# PCOD9484920 Si02
#       7
#    16   8  16  16  16  16   8
#     4  11  20  32  50  70  94 120 148 180 217 261
#     4   9  15  21  29  41  59  83 115 157 204 249
#     4  10  21  37  55  74  94 117 146 180 218 260
#     4   9  16  25  37  51  69  95 130 167 206 252
#     4  10  19  30  43  60  85 113 142 176 215 257
#     4   9  15  22  31  44  62  86 118 158 206 252
#     4   9  18  30  45  67  93 119 145 172 209 258
#
# _framework density 14.592672
#
# number of rings (size 3 to 8) (size 9 to 14) (size 15 to 20)
#    0.000    2.333    0.833    3.250    0.000    7.333 
#    0.000    0.000    0.000    2.000    0.000    0.000 
#    0.000    0.000    0.000    0.000    0.000    0.000 
#
# Total GULP energy -267617.063325 kJ/mol
# GULP energy per Si atom -5575.355486 kJ/mol
# Density = 1.455946 g / cm^3
# Si number density = 14.592672 Si / 1000 Ang^3
#
#
#
# Elastic Constant Matrix: (Units=GPa)
#
#
# Indices 1 2 3 4 5 6 
#
# 1 106.3548 35.0173 73.1117 0.0000 0.0000 0.0000
# 2 35.0173 43.6683 45.6933 0.0000 0.0000 0.0000
# 3 73.1117 45.6933 150.2345 0.0000 0.0000 0.0000
# 4 0.0000 0.0000 0.0000 7.1249 0.0000 0.0000
# 5 0.0000 0.0000 0.0000 0.0000 30.0166 0.0000
# 6 0.0000 0.0000 0.0000 0.0000 0.0000 14.8120
#
#
#
# Elastic Compliance Matrix: (Units=1/GPa)
#
#
# Indices 1 2 3 4 5 6 
#
# 1 0.015317 -0.006575 -0.005454 0.000000 0.000000 0.000000
# 2 -0.006575 0.036413 -0.007875 0.000000 0.000000 0.000000
# 3 -0.005454 -0.007875 0.011706 0.000000 0.000000 0.000000
# 4 0.000000 0.000000 0.000000 0.140353 0.000000 0.000000
# 5 0.000000 0.000000 0.000000 0.000000 0.033315 0.000000
# 6 0.000000 0.000000 0.000000 0.000000 0.000000 0.067513
#
#
# Mechanical properties :
#
#
# Convention : Reuss Voigt Hill
#
# Bulk Modulus (GPa) = 42.32549 67.54466 54.93507
# Shear Modulus (GPa) = 14.19246 20.15304 17.17275
#
# Velocity S-wave (km/s) = 3.12200 3.72026 3.43418
# Velocity P-wave (km/s) = 6.48563 8.05239 7.31110
#
# Compressibility (1/GPa) = 0.02362643
#
# Stress axis : x y z
#
# Youngs Moduli (GPa) = 65.28820 27.46289 85.42954
#
# Poissons Ratio (x) = 0.18058 0.46593
# Poissons Ratio (y) = 0.42930 0.67275
# Poissons Ratio (z) = 0.35608 0.21627
#
# Static dielectric constant tensor:
#      x y z
#    x 1.485000 0.000000 0.000000 
#    y 0.000000 1.444680 0.000000 
#    z 0.000000 0.000000 1.481970 
# 
# From -- ./inp_files/73517.got.cif
#   From: 2010.05.17/outbox.cif.g08.bks.cpg/sg65_37_cif.got.tgz:73517.got - 2010.06.03 17:01:31.
