data_PCOD9484610
_publ_section_title
;
Structure prediction by ZEFSAII (Michael W. Deem and Ramdas Pophale) SiO2 
 PCOD9484610
Probable space group: C M M M
;
_chemical_formula_sum "Si O2"
_cell_formula_units_Z 88
_cell_length_a 7.733970
_cell_length_b 23.917917
_cell_length_c 23.785392
_cell_angle_alpha 90.000000
_cell_angle_beta 90.000000
_cell_angle_gamma 90.000000
_cell_volume 4399.832576
_symmetry_space_group_name_H-M "C M M M"
_symmetry_group_IT_number 65
_symmetry_cell_setting 'orthorhombic'
loop_
_space_group_symop_operation_xyz
x,y,z
-x,-y,z
x,-y,-z
-x,y,-z
-x,-y,-z
x,y,-z
-x,y,z
x,-y,z
1/2+x,1/2+y,z
1/2-x,1/2-y,z
1/2+x,1/2-y,-z
1/2-x,1/2+y,-z
1/2-x,1/2-y,-z
1/2+x,1/2+y,-z
1/2-x,1/2+y,z
1/2+x,1/2-y,z
loop_
_atom_site_type_symbol
_atom_site_label
_atom_site_fract_x
_atom_site_fract_y
_atom_site_fract_z
Si Si1 0.208771 0.815855 0.500000
Si Si2 0.787867 0.882252 0.169855
Si Si3 0.292347 0.314674 0.278070
Si Si4 0.208075 0.813942 0.936394
Si Si5 0.793979 0.877522 0.611833
Si Si6 0.795756 0.500000 0.647865
Si Si7 0.207890 0.000000 0.219227
O O1 0.250000 0.750000 0.500000
O O2 0.274263 0.847589 0.444187
O O3 0.000000 0.820291 0.500000
O O4 0.731014 0.840802 0.219613
O O5 0.729265 0.857613 0.110257
O O6 0.000000 0.882846 0.168761
O O7 0.730116 0.943920 0.188350
O O8 0.500000 0.320952 0.277783
O O9 0.250000 0.250000 0.282986
O O10 0.223476 0.348547 0.331691
O O11 0.250000 0.750000 0.920004
O O12 0.000000 0.818259 0.938239
O O13 0.274022 0.822955 0.000000
O O14 0.767316 0.943609 0.617828
O O15 0.000000 0.868018 0.611645
O O16 0.745548 0.500000 0.714040
O O17 0.000000 0.500000 0.645483
O O18 0.000000 0.000000 0.215285
#
# Coordination Sequence:
#
# PCOD9484610 Si02
#       7
#     8  16  16  16  16   8   8
#     4  10  22  39  62  87 113 146 184 220 265 320
#     4   9  17  30  51  75  98 136 178 214 260 315
#     4  10  19  31  50  75 103 135 173 215 262 312
#     4   9  17  30  48  73 105 137 173 215 259 311
#     4  10  21  39  59  79 108 148 182 213 261 327
#     4  12  24  37  57  85 110 137 179 232 276 309
#     4  10  18  36  58  73 102 144 178 214 268 333
#
# _framework density 20.000761000000001
#
# number of rings (size 3 to 8) (size 9 to 14) (size 15 to 20)
#    0.000    2.182    1.818    1.909    0.000    1.818 
#    0.000    3.182    0.000    2.727    0.000    0.000 
#    0.000    3.636    0.000    0.000    0.000    0.000 
#
# Total GULP energy -245649.188519 kJ/mol
# GULP energy per Si atom -5582.936103 kJ/mol
# Density = 1.995524 g / cm^3
# Si number density = 20.000761 Si / 1000 Ang^3
#
#
#
# Elastic Constant Matrix: (Units=GPa)
#
#
# Indices 1 2 3 4 5 6 
#
# 1 26.1670 -15.6015 5.9270 0.0000 0.0000 0.0000
# 2 -15.6015 157.3451 94.7112 0.0000 0.0000 0.0000
# 3 5.9270 94.7112 154.3070 0.0000 0.0000 0.0000
# 4 0.0000 0.0000 0.0000 39.6401 0.0000 0.0000
# 5 0.0000 0.0000 0.0000 0.0000 1.5433 0.0000
# 6 0.0000 0.0000 0.0000 0.0000 0.0000 24.5611
#
#
#
# Elastic Compliance Matrix: (Units=1/GPa)
#
#
# Indices 1 2 3 4 5 6 
#
# 1 0.045028 0.008732 -0.007089 0.000000 0.000000 0.000000
# 2 0.008732 0.011773 -0.007561 0.000000 0.000000 0.000000
# 3 -0.007089 -0.007561 0.011394 0.000000 0.000000 0.000000
# 4 0.000000 0.000000 0.000000 0.025227 0.000000 0.000000
# 5 0.000000 0.000000 0.000000 0.000000 0.647972 0.000000
# 6 0.000000 0.000000 0.000000 0.000000 0.000000 0.040715
#
#
# Mechanical properties :
#
#
# Convention : Reuss Voigt Hill
#
# Bulk Modulus (GPa) = 17.74384 56.43250 37.08817
# Shear Modulus (GPa) = 6.15210 30.00106 18.07658
#
# Velocity S-wave (km/s) = 1.75574 3.87718 3.00958
# Velocity P-wave (km/s) = 3.60569 6.95124 5.53718
#
# Compressibility (1/GPa) = 0.05635758
#
# Stress axis : x y z
#
# Youngs Moduli (GPa) = 22.20843 84.94277 87.76653
#
# Poissons Ratio (x) = -0.74171 0.62218
# Poissons Ratio (y) = -0.19392 0.66363
# Poissons Ratio (z) = 0.15744 0.64227
#
# Static dielectric constant tensor:
#      x y z
#    x 1.729920 0.000000 0.000000 
#    y 0.000000 1.476070 0.000000 
#    z 0.000000 0.000000 1.715290 
# 
# From -- ./inp_files/59867.got.cif
#   From: 2010.05.17/outbox.cif.g08.bks.cpg/sg65_30_cif.got.tgz:59867.got - 2010.06.03 17:01:31.
