data_PCOD9484305
_publ_section_title
;
Structure prediction by ZEFSAII (Michael W. Deem and Ramdas Pophale) SiO2 
 PCOD9484305
Probable space group: C M M M
;
_chemical_formula_sum "Si O2"
_cell_formula_units_Z 104
_cell_length_a 8.641153
_cell_length_b 29.535662
_cell_length_c 23.960528
_cell_angle_alpha 90.000000
_cell_angle_beta 90.000000
_cell_angle_gamma 90.000000
_cell_volume 6115.258053
_symmetry_space_group_name_H-M "C M M M"
_symmetry_group_IT_number 65
_symmetry_cell_setting 'orthorhombic'
loop_
_space_group_symop_operation_xyz
x,y,z
-x,-y,z
x,-y,-z
-x,y,-z
-x,-y,-z
x,y,-z
-x,y,z
x,-y,z
1/2+x,1/2+y,z
1/2-x,1/2-y,z
1/2+x,1/2-y,-z
1/2-x,1/2+y,-z
1/2-x,1/2-y,-z
1/2+x,1/2+y,-z
1/2-x,1/2+y,z
1/2+x,1/2-y,z
loop_
_atom_site_type_symbol
_atom_site_label
_atom_site_fract_x
_atom_site_fract_y
_atom_site_fract_z
Si Si1 0.315048 0.199480 0.334221
Si Si2 0.313577 0.051212 0.602261
Si Si3 0.312290 0.145376 0.221807
Si Si4 0.814999 0.698692 0.000000
Si Si5 0.815394 0.143848 0.561803
Si Si6 0.184623 0.801114 0.883537
Si Si7 0.312138 0.950013 0.266373
O O1 0.500000 0.200966 0.335470
O O2 0.250000 0.250000 0.333285
O O3 0.269659 0.172821 0.277907
O O4 0.257677 0.172634 0.388422
O O5 0.500000 0.055686 0.597564
O O6 0.233925 0.091702 0.569845
O O7 0.273681 0.055916 0.668102
O O8 0.272630 0.000000 0.584780
O O9 0.500000 0.146634 0.216737
O O10 0.238405 0.168937 0.168402
O O11 0.261685 0.093426 0.231426
O O12 0.750000 0.750000 0.000000
O O13 0.751817 0.679501 0.941784
O O14 0.000000 0.699167 0.000000
O O15 0.765477 0.159210 0.500000
O O16 0.000000 0.147447 0.565337
O O17 0.250000 0.750000 0.876258
O O18 0.000000 0.798476 0.887008
O O19 0.500000 0.950359 0.264419
O O20 0.257948 0.000000 0.248534
#
# Coordination Sequence:
#
# PCOD9484305 Si02
#       7
#    16  16  16   8  16  16  16
#     4  11  23  39  58  78 101 133 171 218 266 315
#     4   9  17  33  57  81 103 131 168 210 259 315
#     4  10  19  33  54  81 108 136 172 212 258 306
#     4  10  18  32  52  74 105 144 183 222 260 301
#     4  11  24  39  54  74 102 135 172 214 263 320
#     4  11  21  33  50  76 110 147 183 218 257 303
#     4   8  14  28  52  79 105 132 165 207 254 305
#
# _framework density 17.006641999999999
#
# number of rings (size 3 to 8) (size 9 to 14) (size 15 to 20)
#    0.000    2.000    1.538    5.308    0.000    4.615 
#    0.000    1.538    0.000    0.462    0.000    0.538 
#    0.000    4.308    0.000    0.000    0.000    0.000 
#
# Total GULP energy -290219.602130 kJ/mol
# GULP energy per Si atom -5581.146195 kJ/mol
# Density = 1.696793 g / cm^3
# Si number density = 17.006642 Si / 1000 Ang^3
#
#
#
# Elastic Constant Matrix: (Units=GPa)
#
#
# Indices 1 2 3 4 5 6 
#
# 1 60.2284 33.5611 50.3434 0.0000 0.0000 0.0000
# 2 33.5611 109.8967 71.7807 0.0000 0.0000 0.0000
# 3 50.3434 71.7807 149.0385 0.0000 0.0000 0.0000
# 4 0.0000 0.0000 0.0000 20.0301 0.0000 0.0000
# 5 0.0000 0.0000 0.0000 0.0000 25.5517 0.0000
# 6 0.0000 0.0000 0.0000 0.0000 0.0000 23.3855
#
#
#
# Elastic Compliance Matrix: (Units=1/GPa)
#
#
# Indices 1 2 3 4 5 6 
#
# 1 0.023769 -0.002939 -0.006613 0.000000 0.000000 0.000000
# 2 -0.002939 0.013639 -0.005576 0.000000 0.000000 0.000000
# 3 -0.006613 -0.005576 0.011629 0.000000 0.000000 0.000000
# 4 0.000000 0.000000 0.000000 0.049925 0.000000 0.000000
# 5 0.000000 0.000000 0.000000 0.000000 0.039136 0.000000
# 6 0.000000 0.000000 0.000000 0.000000 0.000000 0.042761
#
#
# Mechanical properties :
#
#
# Convention : Reuss Voigt Hill
#
# Bulk Modulus (GPa) = 53.24762 70.05933 61.65347
# Shear Modulus (GPa) = 23.00142 24.69201 23.84671
#
# Velocity S-wave (km/s) = 3.68162 3.81452 3.74866
# Velocity P-wave (km/s) = 7.03209 7.79009 7.42077
#
# Compressibility (1/GPa) = 0.01878018
#
# Stress axis : x y z
#
# Youngs Moduli (GPa) = 42.07120 73.31808 85.99035
#
# Poissons Ratio (x) = 0.21550 0.56869
# Poissons Ratio (y) = 0.12366 0.47950
# Poissons Ratio (z) = 0.27823 0.40883
#
# Static dielectric constant tensor:
#      x y z
#    x 1.574000 0.000000 0.000000 
#    y 0.000000 1.580910 0.000000 
#    z 0.000000 0.000000 1.579850 
# 
# From -- ./inp_files/60885.got.cif
#   From: 2010.05.17/outbox.cif.g08.bks.cpg/sg65_31_cif.got.tgz:60885.got - 2010.06.03 17:01:31.
