data_PCOD9484242
_publ_section_title
;
Structure prediction by ZEFSAII (Michael W. Deem and Ramdas Pophale) SiO2 
 PCOD9484242
Probable space group: C M M M
;
_chemical_formula_sum "Si O2"
_cell_formula_units_Z 64
_cell_length_a 17.241985
_cell_length_b 14.383086
_cell_length_c 15.000127
_cell_angle_alpha 90.000000
_cell_angle_beta 90.000000
_cell_angle_gamma 90.000000
_cell_volume 3719.925791
_symmetry_space_group_name_H-M "C M M M"
_symmetry_group_IT_number 65
_symmetry_cell_setting 'orthorhombic'
loop_
_space_group_symop_operation_xyz
x,y,z
-x,-y,z
x,-y,-z
-x,y,-z
-x,-y,-z
x,y,-z
-x,y,z
x,-y,z
1/2+x,1/2+y,z
1/2-x,1/2-y,z
1/2+x,1/2-y,-z
1/2-x,1/2+y,-z
1/2-x,1/2-y,-z
1/2+x,1/2+y,-z
1/2-x,1/2+y,z
1/2+x,1/2-y,z
loop_
_atom_site_type_symbol
_atom_site_label
_atom_site_fract_x
_atom_site_fract_y
_atom_site_fract_z
Si Si1 0.812068 0.831002 0.225742
Si Si2 0.087813 0.500000 0.173907
Si Si3 0.737040 0.500000 0.104546
Si Si4 0.726463 0.890877 0.400014
Si Si5 0.913656 0.684147 0.297285
O O1 0.750000 0.750000 0.204978
O O2 0.787835 0.872550 0.321935
O O3 0.891411 0.774918 0.239686
O O4 0.800367 0.910736 0.153433
O O5 0.168845 0.500000 0.119673
O O6 0.091372 0.407483 0.234900
O O7 0.000000 0.500000 0.131975
O O8 0.721706 0.500000 0.000000
O O9 0.752874 0.868943 0.500000
O O10 0.651400 0.831396 0.372210
O O11 0.705598 0.000000 0.397263
O O12 0.000000 0.690388 0.333494
#
# Coordination Sequence:
#
# PCOD9484242 Si02
#       5
#    16   8   8  16  16
#     4  10  19  36  55  79 110 139 184 224 267 322
#     4  10  18  35  54  80 113 135 163 216 281 328
#     4  12  22  37  59  82 106 141 185 229 269 321
#     4  10  18  31  55  81 109 145 181 220 268 324
#     4  10  19  33  55  78 111 145 175 218 273 326
#
# _framework density 17.204643999999998
#
# number of rings (size 3 to 8) (size 9 to 14) (size 15 to 20)
#    0.000    1.750    7.500    0.000    0.000    5.750 
#    0.000    1.875    0.000    1.500    0.000    1.750 
#    0.000    0.000    0.000    0.000    0.000    0.000 
#
# Total GULP energy -178253.954185 kJ/mol
# GULP energy per Si atom -5570.436068 kJ/mol
# Density = 1.716549 g / cm^3
# Si number density = 17.204644 Si / 1000 Ang^3
#
#
#
# Elastic Constant Matrix: (Units=GPa)
#
#
# Indices 1 2 3 4 5 6 
#
# 1 44.5054 13.6688 22.5416 0.0000 0.0000 0.0000
# 2 13.6688 98.4786 54.9287 0.0000 0.0000 0.0000
# 3 22.5416 54.9287 121.7421 0.0000 0.0000 0.0000
# 4 0.0000 0.0000 0.0000 9.5503 0.0000 0.0000
# 5 0.0000 0.0000 0.0000 0.0000 12.1425 0.0000
# 6 0.0000 0.0000 0.0000 0.0000 0.0000 15.6537
#
#
#
# Elastic Compliance Matrix: (Units=1/GPa)
#
#
# Indices 1 2 3 4 5 6 
#
# 1 0.024897 -0.001182 -0.004077 0.000000 0.000000 0.000000
# 2 -0.001182 0.013625 -0.005929 0.000000 0.000000 0.000000
# 3 -0.004077 -0.005929 0.011644 0.000000 0.000000 0.000000
# 4 0.000000 0.000000 0.000000 0.104709 0.000000 0.000000
# 5 0.000000 0.000000 0.000000 0.000000 0.082356 0.000000
# 6 0.000000 0.000000 0.000000 0.000000 0.000000 0.063883
#
#
# Mechanical properties :
#
#
# Convention : Reuss Voigt Hill
#
# Bulk Modulus (GPa) = 35.98196 49.66715 42.82455
# Shear Modulus (GPa) = 15.02620 19.04176 17.03398
#
# Velocity S-wave (km/s) = 2.95851 3.33044 3.14997
# Velocity P-wave (km/s) = 5.71225 6.61213 6.17860
#
# Compressibility (1/GPa) = 0.02779170
#
# Stress axis : x y z
#
# Youngs Moduli (GPa) = 40.16558 73.39200 85.88163
#
# Poissons Ratio (x) = 0.08674 0.35011
# Poissons Ratio (y) = 0.04747 0.50918
# Poissons Ratio (z) = 0.16374 0.43513
#
# Static dielectric constant tensor:
#      x y z
#    x 1.597910 0.000000 0.000000 
#    y 0.000000 1.615590 0.000000 
#    z 0.000000 0.000000 1.577030 
# 
# From -- ./inp_files/39689.got.cif
#   From: 2010.05.17/outbox.cif.g08.bks.cpg/sg65_20_cif.got.tgz:39689.got - 2010.06.03 17:01:31.
