data_PCOD9484669
_publ_section_title
;
Structure prediction by ZEFSAII (Michael W. Deem and Ramdas Pophale) SiO2 
 PCOD9484669
Probable space group: C M M M
;
_chemical_formula_sum "Si O2"
_cell_formula_units_Z 104
_cell_length_a 8.902650
_cell_length_b 24.240704
_cell_length_c 28.645633
_cell_angle_alpha 90.000000
_cell_angle_beta 90.000000
_cell_angle_gamma 90.000000
_cell_volume 6181.913897
_symmetry_space_group_name_H-M "C M M M"
_symmetry_group_IT_number 65
_symmetry_cell_setting 'orthorhombic'
loop_
_space_group_symop_operation_xyz
x,y,z
-x,-y,z
x,-y,-z
-x,y,-z
-x,-y,-z
x,y,-z
-x,y,z
x,-y,z
1/2+x,1/2+y,z
1/2-x,1/2-y,z
1/2+x,1/2-y,-z
1/2-x,1/2+y,-z
1/2-x,1/2-y,-z
1/2+x,1/2+y,-z
1/2-x,1/2+y,z
1/2+x,1/2-y,z
loop_
_atom_site_type_symbol
_atom_site_label
_atom_site_fract_x
_atom_site_fract_y
_atom_site_fract_z
Si Si1 0.324419 0.433163 0.448592
Si Si2 0.819632 0.189267 0.820807
Si Si3 0.172972 0.500000 0.898764
Si Si4 0.326996 0.000000 0.213307
Si Si5 0.817105 0.377658 0.092665
Si Si6 0.679015 0.065020 0.351674
Si Si7 0.820717 0.106399 0.740344
Si Si8 0.819940 0.689831 0.000000
O O1 0.272068 0.414043 0.500000
O O2 0.500000 0.418389 0.443427
O O3 0.317455 0.500000 0.449525
O O4 0.233035 0.416629 0.402929
O O5 0.750000 0.250000 0.823859
O O6 0.752672 0.151287 0.862013
O O7 0.783621 0.159928 0.771381
O O8 0.000000 0.191938 0.825599
O O9 0.172288 0.500000 0.842533
O O10 0.237411 0.440828 0.912958
O O11 0.000000 0.500000 0.915748
O O12 0.245017 0.946002 0.231989
O O13 0.500000 0.000000 0.229909
O O14 0.000000 0.378645 0.098013
O O15 0.778132 0.343122 0.046702
O O16 0.500000 0.067124 0.348717
O O17 0.751533 0.101382 0.311027
O O18 0.724208 0.000000 0.345000
O O19 0.000000 0.101929 0.737424
O O20 0.750000 0.750000 0.000000
O O21 0.000000 0.694696 0.000000
#
# Coordination Sequence:
#
# PCOD9484669 Si02
#       8
#    16  16   8   8  16  16  16   8
#     4   8  14  25  40  58  86 128 172 211 254 301
#     4  11  24  39  56  78 101 133 172 211 255 305
#     4   9  18  32  55  82 107 134 166 205 254 303
#     4  11  19  31  52  77 102 133 168 204 250 301
#     4  10  20  37  58  82 108 137 169 209 255 305
#     4  10  19  28  42  67  97 131 171 211 254 301
#     4  11  22  34  50  73 102 134 169 210 254 304
#     4  10  22  37  57  79 105 138 177 218 257 302
#
# _framework density 16.823269
#
# number of rings (size 3 to 8) (size 9 to 14) (size 15 to 20)
#    0.000    2.000    2.308    2.538    0.000    4.923 
#    0.000    3.462    0.000    0.000    0.000    1.615 
#    0.000    0.615    0.000    2.000    0.000    2.462 
#
# Total GULP energy -290053.818417 kJ/mol
# GULP energy per Si atom -5577.958046 kJ/mol
# Density = 1.678498 g / cm^3
# Si number density = 16.823269 Si / 1000 Ang^3
#
#
#
# Elastic Constant Matrix: (Units=GPa)
#
#
# Indices 1 2 3 4 5 6 
#
# 1 40.6883 32.6800 46.6494 0.0000 0.0000 0.0000
# 2 32.6800 119.4613 59.3011 0.0000 0.0000 0.0000
# 3 46.6494 59.3011 133.3056 0.0000 0.0000 0.0000
# 4 0.0000 0.0000 0.0000 5.3451 0.0000 0.0000
# 5 0.0000 0.0000 0.0000 0.0000 26.1523 0.0000
# 6 0.0000 0.0000 0.0000 0.0000 0.0000 13.3081
#
#
#
# Elastic Compliance Matrix: (Units=1/GPa)
#
#
# Indices 1 2 3 4 5 6 
#
# 1 0.043792 -0.005612 -0.012828 0.000000 0.000000 0.000000
# 2 -0.005612 0.011462 -0.003135 0.000000 0.000000 0.000000
# 3 -0.012828 -0.003135 0.013385 0.000000 0.000000 0.000000
# 4 0.000000 0.000000 0.000000 0.187086 0.000000 0.000000
# 5 0.000000 0.000000 0.000000 0.000000 0.038238 0.000000
# 6 0.000000 0.000000 0.000000 0.000000 0.000000 0.075142
#
#
# Mechanical properties :
#
#
# Convention : Reuss Voigt Hill
#
# Bulk Modulus (GPa) = 39.23225 63.41293 51.32259
# Shear Modulus (GPa) = 11.88347 19.28276 15.58312
#
# Velocity S-wave (km/s) = 2.66065 3.38922 3.04679
# Velocity P-wave (km/s) = 5.72797 7.28637 6.55365
#
# Compressibility (1/GPa) = 0.02548923
#
# Stress axis : x y z
#
# Youngs Moduli (GPa) = 22.83516 87.24142 74.70777
#
# Poissons Ratio (x) = 0.48958 0.95838
# Poissons Ratio (y) = 0.12815 0.23423
# Poissons Ratio (z) = 0.29294 0.27353
#
# Static dielectric constant tensor:
#      x y z
#    x 1.565580 0.000000 0.000000 
#    y 0.000000 1.551090 0.000000 
#    z 0.000000 0.000000 1.579890 
# 
# From -- ./inp_files/73658.got.cif
#   From: 2010.05.17/outbox.cif.g08.bks.cpg/sg65_37_cif.got.tgz:73658.got - 2010.06.03 17:01:31.
