data_PCOD9484798
_publ_section_title
;
Structure prediction by ZEFSAII (Michael W. Deem and Ramdas Pophale) SiO2 
 PCOD9484798
Probable space group: C M M M
;
_chemical_formula_sum "Si O2"
_cell_formula_units_Z 104
_cell_length_a 9.383913
_cell_length_b 27.820843
_cell_length_c 23.535622
_cell_angle_alpha 90.000000
_cell_angle_beta 90.000000
_cell_angle_gamma 90.000000
_cell_volume 6144.406480
_symmetry_space_group_name_H-M "C M M M"
_symmetry_group_IT_number 65
_symmetry_cell_setting 'orthorhombic'
loop_
_space_group_symop_operation_xyz
x,y,z
-x,-y,z
x,-y,-z
-x,y,-z
-x,-y,-z
x,y,-z
-x,y,z
x,-y,z
1/2+x,1/2+y,z
1/2-x,1/2-y,z
1/2+x,1/2-y,-z
1/2-x,1/2+y,-z
1/2-x,1/2-y,-z
1/2+x,1/2+y,-z
1/2-x,1/2+y,z
1/2+x,1/2-y,z
loop_
_atom_site_type_symbol
_atom_site_label
_atom_site_fract_x
_atom_site_fract_y
_atom_site_fract_z
Si Si1 0.167544 0.395369 0.398093
Si Si2 0.665159 0.058521 0.063792
Si Si3 0.836414 0.203434 0.732757
Si Si4 0.839734 0.057236 0.827884
Si Si5 0.662491 0.000000 0.567465
Si Si6 0.165093 0.609281 0.261444
Si Si7 0.834486 0.798447 0.405780
O O1 0.224830 0.448014 0.415904
O O2 0.172059 0.395643 0.329538
O O3 0.253771 0.348585 0.419877
O O4 0.000000 0.391360 0.415503
O O5 0.500000 0.072172 0.072820
O O6 0.763559 0.075988 0.115037
O O7 0.668444 0.000000 0.064354
O O8 0.708624 0.073334 0.000000
O O9 0.750000 0.250000 0.750891
O O10 0.751533 0.157171 0.753015
O O11 0.836048 0.202908 0.663436
O O12 0.000000 0.203940 0.750849
O O13 0.743571 0.068150 0.773368
O O14 0.000000 0.076235 0.820859
O O15 0.848766 0.000000 0.834011
O O16 0.500000 0.000000 0.591736
O O17 0.654164 0.000000 0.500000
O O18 0.000000 0.612319 0.245592
O O19 0.750000 0.750000 0.424154
O O20 0.000000 0.798047 0.424519
#
# Coordination Sequence:
#
# PCOD9484798 Si02
#       7
#    16  16  16  16   8  16  16
#     4   9  18  31  49  72  95 123 160 197 238 287
#     4   8  14  26  43  60  79 109 151 193 231 272
#     4   9  16  27  43  63  90 119 150 182 222 273
#     4  10  20  30  40  59  89 123 156 191 232 274
#     4   9  18  34  55  75  95 123 162 205 242 281
#     4  10  19  29  44  65  92 122 154 189 229 276
#     4   9  16  27  46  71  98 124 151 187 233 283
#
# _framework density 16.925964
#
# number of rings (size 3 to 8) (size 9 to 14) (size 15 to 20)
#    0.000    2.846    0.000    2.308    1.077    5.538 
#    0.000    1.923    0.000    1.385    0.000    0.000 
#    0.000    0.615    0.000    2.308    0.000    3.538 
#
# Total GULP energy -289561.342141 kJ/mol
# GULP energy per Si atom -5568.487349 kJ/mol
# Density = 1.688744 g / cm^3
# Si number density = 16.925964 Si / 1000 Ang^3
#
#
#
# Elastic Constant Matrix: (Units=GPa)
#
#
# Indices 1 2 3 4 5 6 
#
# 1 120.2276 53.9576 25.6938 0.0000 0.0000 0.0000
# 2 53.9576 103.5489 12.5717 0.0000 0.0000 0.0000
# 3 25.6938 12.5717 22.2879 0.0000 0.0000 0.0000
# 4 0.0000 0.0000 0.0000 -23.4800 0.0000 0.0000
# 5 0.0000 0.0000 0.0000 0.0000 -297.2229 0.0000
# 6 0.0000 0.0000 0.0000 0.0000 0.0000 26.1872
#
#
#
# Elastic Compliance Matrix: (Units=1/GPa)
#
#
# Indices 1 2 3 4 5 6 
#
# 1 0.013430 -0.005495 -0.012383 0.000000 0.000000 0.000000
# 2 -0.005495 0.012615 -0.000781 0.000000 0.000000 0.000000
# 3 -0.012383 -0.000781 0.059583 0.000000 0.000000 0.000000
# 4 0.000000 0.000000 0.000000 -0.042589 0.000000 0.000000
# 5 0.000000 0.000000 0.000000 0.000000 -0.003364 0.000000
# 6 0.000000 0.000000 0.000000 0.000000 0.000000 0.038187
#
#
# Mechanical properties :
#
#
# Convention : Reuss Voigt Hill
#
# Bulk Modulus (GPa) = 20.69943 47.83451 34.26697
# Shear Modulus (GPa) = 38.08585 -48.64705 -5.28060
#
# Velocity S-wave (km/s) = 4.74871 -5.36689 -1.76822
# Velocity P-wave (km/s) = 6.50561 3.17526 4.01502
#
# Compressibility (1/GPa) = 0.04831050
#
# Stress axis : x y z
#
# Youngs Moduli (GPa) = 74.46079 79.26852 16.78328
#
# Poissons Ratio (x) = 0.43556 0.20782
# Poissons Ratio (y) = 0.40914 0.01311
# Poissons Ratio (z) = 0.92203 0.06194
#
# Static dielectric constant tensor:
#      x y z
#    x 1.584510 0.000000 0.000000 
#    y 0.000000 1.603810 0.000000 
#    z 0.000000 0.000000 1.564540 
# 
# From -- ./inp_files/68193.got.cif
#   From: 2010.05.17/outbox.cif.g08.bks.cpg/sg65_35_cif.got.tgz:68193.got - 2010.06.03 17:01:31.
