data_PCOD9484446
_publ_section_title
;
Structure prediction by ZEFSAII (Michael W. Deem and Ramdas Pophale) SiO2 
 PCOD9484446
Probable space group: C M M M
;
_chemical_formula_sum "Si O2"
_cell_formula_units_Z 92
_cell_length_a 23.295739
_cell_length_b 14.468329
_cell_length_c 12.741777
_cell_angle_alpha 90.000000
_cell_angle_beta 90.000000
_cell_angle_gamma 90.000000
_cell_volume 4294.621240
_symmetry_space_group_name_H-M "C M M M"
_symmetry_group_IT_number 65
_symmetry_cell_setting 'orthorhombic'
loop_
_space_group_symop_operation_xyz
x,y,z
-x,-y,z
x,-y,-z
-x,y,-z
-x,-y,-z
x,y,-z
-x,y,z
x,-y,z
1/2+x,1/2+y,z
1/2-x,1/2-y,z
1/2+x,1/2-y,-z
1/2-x,1/2+y,-z
1/2-x,1/2-y,-z
1/2+x,1/2+y,-z
1/2-x,1/2+y,z
1/2+x,1/2-y,z
loop_
_atom_site_type_symbol
_atom_site_label
_atom_site_fract_x
_atom_site_fract_y
_atom_site_fract_z
Si Si1 0.605441 0.112416 0.617720
Si Si2 0.936382 0.643782 0.845174
Si Si3 0.066120 0.113833 0.500000
Si Si4 0.264073 0.889671 0.377548
Si Si5 0.564841 0.639655 0.881000
Si Si6 0.887371 0.500000 0.000000
Si Si7 0.854988 0.107514 0.310203
O O1 0.587097 0.141220 0.500000
O O2 0.570780 0.141417 0.719869
O O3 0.671221 0.145203 0.635992
O O4 0.604794 0.000000 0.616506
O O5 0.933430 0.749330 0.879915
O O6 0.892161 0.580419 0.907561
O O7 0.000000 0.607871 0.873025
O O8 0.101633 0.145995 0.602007
O O9 0.000000 0.144289 0.500000
O O10 0.064304 0.000000 0.500000
O O11 0.248702 0.876360 0.500000
O O12 0.209570 0.853129 0.313168
O O13 0.269394 0.000000 0.358758
O O14 0.500000 0.612187 0.847255
O O15 0.613123 0.609852 0.800121
O O16 0.573546 0.607744 0.000000
O O17 0.847581 0.000000 0.340404
#
# Coordination Sequence:
#
# PCOD9484446 Si02
#       7
#    16  16   8  16  16   4  16
#     4   9  18  32  54  83 112 139 172 219 274 332
#     4  11  21  36  58  82 108 137 177 226 271 324
#     4   9  16  26  46  80 107 127 174 230 263 301
#     4   8  14  29  53  79 106 141 183 219 258 312
#     4  10  22  38  53  74 108 143 177 226 275 316
#     4  12  21  36  66  86  96 142 198 218 261 334
#     4  10  18  32  56  78 105 146 184 220 263 315
#
# _framework density 21.422146000000001
#
# number of rings (size 3 to 8) (size 9 to 14) (size 15 to 20)
#    0.000    2.348    2.609    2.348    0.000    1.739 
#    1.565    2.609    1.913    3.130    0.000    0.000 
#    0.000    0.000    0.000    0.000    0.000    0.000 
#
# Total GULP energy -256282.861023 kJ/mol
# GULP energy per Si atom -5571.366544 kJ/mol
# Density = 2.137339 g / cm^3
# Si number density = 21.422146 Si / 1000 Ang^3
#
#
#
# Elastic Constant Matrix: (Units=GPa)
#
#
# Indices 1 2 3 4 5 6 
#
# 1 63.6105 -7.1742 33.3093 0.0000 0.0000 0.0000
# 2 -7.1742 67.1516 -0.2949 0.0000 0.0000 0.0000
# 3 33.3093 -0.2949 118.4918 0.0000 0.0000 0.0000
# 4 0.0000 0.0000 0.0000 23.3998 0.0000 0.0000
# 5 0.0000 0.0000 0.0000 0.0000 60.0803 0.0000
# 6 0.0000 0.0000 0.0000 0.0000 0.0000 8.9948
#
#
#
# Elastic Compliance Matrix: (Units=1/GPa)
#
#
# Indices 1 2 3 4 5 6 
#
# 1 0.018692 0.001974 -0.005250 0.000000 0.000000 0.000000
# 2 0.001974 0.015100 -0.000517 0.000000 0.000000 0.000000
# 3 -0.005250 -0.000517 0.009914 0.000000 0.000000 0.000000
# 4 0.000000 0.000000 0.000000 0.042735 0.000000 0.000000
# 5 0.000000 0.000000 0.000000 0.000000 0.016644 0.000000
# 6 0.000000 0.000000 0.000000 0.000000 0.000000 0.111176
#
#
# Mechanical properties :
#
#
# Convention : Reuss Voigt Hill
#
# Bulk Modulus (GPa) = 27.68527 33.43715 30.56121
# Shear Modulus (GPa) = 21.37775 33.38922 27.38348
#
# Velocity S-wave (km/s) = 3.16243 3.95223 3.57918
# Velocity P-wave (km/s) = 5.12702 6.03899 5.60160
#
# Compressibility (1/GPa) = 0.03612030
#
# Stress axis : x y z
#
# Youngs Moduli (GPa) = 53.49807 66.22388 100.86887
#
# Poissons Ratio (x) = -0.13072 0.52953
# Poissons Ratio (y) = -0.10560 0.05218
# Poissons Ratio (z) = 0.28085 0.03426
#
# Static dielectric constant tensor:
#      x y z
#    x 1.794930 0.000000 0.000000 
#    y 0.000000 1.844890 0.000000 
#    z 0.000000 0.000000 1.753540 
# 
# From -- ./inp_files/30809.got.cif
#   From: 2010.05.17/outbox.cif.g08.bks.cpg/sg65_16_cif.got.tgz:30809.got - 2010.06.03 17:01:31.
