data_PCOD9484538
_publ_section_title
;
Structure prediction by ZEFSAII (Michael W. Deem and Ramdas Pophale) SiO2 
 PCOD9484538
Probable space group: C M M M
;
_chemical_formula_sum "Si O2"
_cell_formula_units_Z 112
_cell_length_a 14.703265
_cell_length_b 28.195925
_cell_length_c 14.323968
_cell_angle_alpha 90.000000
_cell_angle_beta 90.000000
_cell_angle_gamma 90.000000
_cell_volume 5938.318313
_symmetry_space_group_name_H-M "C M M M"
_symmetry_group_IT_number 65
_symmetry_cell_setting 'orthorhombic'
loop_
_space_group_symop_operation_xyz
x,y,z
-x,-y,z
x,-y,-z
-x,y,-z
-x,-y,-z
x,y,-z
-x,y,z
x,-y,z
1/2+x,1/2+y,z
1/2-x,1/2-y,z
1/2+x,1/2-y,-z
1/2-x,1/2+y,-z
1/2-x,1/2-y,-z
1/2+x,1/2+y,-z
1/2-x,1/2+y,z
1/2+x,1/2-y,z
loop_
_atom_site_type_symbol
_atom_site_label
_atom_site_fract_x
_atom_site_fract_y
_atom_site_fract_z
Si Si1 0.708188 0.360489 0.388983
Si Si2 0.101244 0.822922 0.896816
Si Si3 0.851281 0.768094 0.282695
Si Si4 0.707199 0.419496 0.893885
Si Si5 0.100035 0.665409 0.303339
Si Si6 0.103499 0.620241 0.106086
Si Si7 0.392227 0.446947 0.710971
O O1 0.706933 0.360672 0.500000
O O2 0.657820 0.313413 0.349803
O O3 0.812374 0.357469 0.352260
O O4 0.658047 0.406323 0.347449
O O5 0.107752 0.785945 0.814020
O O6 0.174139 0.864626 0.885239
O O7 0.000000 0.844921 0.893549
O O8 0.112836 0.801659 0.000000
O O9 0.750000 0.750000 0.262583
O O10 0.898525 0.721577 0.322966
O O11 0.815931 0.417755 0.880250
O O12 0.652823 0.445711 0.813604
O O13 0.687109 0.434849 0.000000
O O14 0.111192 0.657039 0.191552
O O15 0.000000 0.646255 0.329327
O O16 0.000000 0.601362 0.110332
O O17 0.116227 0.639496 0.000000
O O18 0.500000 0.437074 0.716880
O O19 0.380546 0.500000 0.671626
#
# Coordination Sequence:
#
# PCOD9484538 Si02
#       7
#    16  16  16  16  16  16  16
#     4  11  24  43  62  81 112 153 195 248 307 353
#     4  10  19  30  49  78 114 156 196 233 276 334
#     4  10  20  34  54  83 117 156 198 238 282 339
#     4  10  18  33  58  87 120 157 190 226 278 341
#     4  10  20  35  59  90 121 156 198 241 285 340
#     4   9  17  31  55  87 122 160 198 230 268 327
#     4  11  24  42  65  91 116 145 188 240 293 353
#
# _framework density 18.860558999999999
#
# number of rings (size 3 to 8) (size 9 to 14) (size 15 to 20)
#    0.000    1.857    2.857    1.714    0.000    6.000 
#    0.000    2.857    0.000    1.714    0.000    3.000 
#    0.000    0.000    0.000    0.000    0.000    0.000 
#
# Total GULP energy -312285.657747 kJ/mol
# GULP energy per Si atom -5576.529603 kJ/mol
# Density = 1.881763 g / cm^3
# Si number density = 18.860559 Si / 1000 Ang^3
#
#
#
# Elastic Constant Matrix: (Units=GPa)
#
#
# Indices 1 2 3 4 5 6 
#
# 1 133.5469 54.9246 53.6442 0.0000 0.0000 0.0000
# 2 54.9246 85.8820 52.9256 0.0000 0.0000 0.0000
# 3 53.6442 52.9256 119.1099 0.0000 0.0000 0.0000
# 4 0.0000 0.0000 0.0000 -3.1532 0.0000 0.0000
# 5 0.0000 0.0000 0.0000 0.0000 0.0563 0.0000
# 6 0.0000 0.0000 0.0000 0.0000 0.0000 27.7907
#
#
#
# Elastic Compliance Matrix: (Units=1/GPa)
#
#
# Indices 1 2 3 4 5 6 
#
# 1 0.010651 -0.005309 -0.002438 0.000000 0.000000 0.000000
# 2 -0.005309 0.018681 -0.005910 0.000000 0.000000 0.000000
# 3 -0.002438 -0.005910 0.012119 0.000000 0.000000 0.000000
# 4 0.000000 0.000000 0.000000 -0.317135 0.000000 0.000000
# 5 0.000000 0.000000 0.000000 0.000000 17.752221 0.000000
# 6 0.000000 0.000000 0.000000 0.000000 0.000000 0.035983
#
#
# Mechanical properties :
#
#
# Convention : Reuss Voigt Hill
#
# Bulk Modulus (GPa) = 70.73101 73.50305 72.11703
# Shear Modulus (GPa) = 0.28499 16.74173 8.51336
#
# Velocity S-wave (km/s) = 0.38914 2.98259 2.12689
# Velocity P-wave (km/s) = 6.14698 7.13566 6.65969
#
# Compressibility (1/GPa) = 0.01413807
#
# Stress axis : x y z
#
# Youngs Moduli (GPa) = 93.88981 53.52947 82.51215
#
# Poissons Ratio (x) = 0.28420 0.20114
# Poissons Ratio (y) = 0.49849 0.48762
# Poissons Ratio (z) = 0.22888 0.31634
#
# Static dielectric constant tensor:
#      x y z
#    x 1.692090 0.000000 0.000000 
#    y 0.000000 1.650300 0.000000 
#    z 0.000000 0.000000 1.647840 
# 
# From -- ./inp_files/40810.got.cif
#   From: 2010.05.17/outbox.cif.g08.bks.cpg/sg65_21_cif.got.tgz:40810.got - 2010.06.03 17:01:31.
