data_PCOD9484839
_publ_section_title
;
Structure prediction by ZEFSAII (Michael W. Deem and Ramdas Pophale) SiO2 
 PCOD9484839
Probable space group: C M M M
;
_chemical_formula_sum "Si O2"
_cell_formula_units_Z 68
_cell_length_a 7.543386
_cell_length_b 14.517177
_cell_length_c 24.345113
_cell_angle_alpha 90.000000
_cell_angle_beta 90.000000
_cell_angle_gamma 90.000000
_cell_volume 2666.000939
_symmetry_space_group_name_H-M "C M M M"
_symmetry_group_IT_number 65
_symmetry_cell_setting 'orthorhombic'
loop_
_space_group_symop_operation_xyz
x,y,z
-x,-y,z
x,-y,-z
-x,y,-z
-x,-y,-z
x,y,-z
-x,y,z
x,-y,z
1/2+x,1/2+y,z
1/2-x,1/2-y,z
1/2+x,1/2-y,-z
1/2-x,1/2+y,-z
1/2-x,1/2-y,-z
1/2+x,1/2+y,-z
1/2-x,1/2+y,z
1/2+x,1/2-y,z
loop_
_atom_site_type_symbol
_atom_site_label
_atom_site_fract_x
_atom_site_fract_y
_atom_site_fract_z
Si Si1 0.301168 0.608912 0.297654
Si Si2 0.000000 0.828938 0.500000
Si Si3 0.713184 0.640052 0.940844
Si Si4 0.804991 0.612387 0.582848
Si Si5 0.212141 0.142144 0.177082
O O1 0.500000 0.650368 0.295896
O O2 0.318956 0.500000 0.305220
O O3 0.207216 0.639752 0.353072
O O4 0.217034 0.617917 0.237339
O O5 0.153697 0.842311 0.452438
O O6 0.500000 0.627206 0.940534
O O7 0.750000 0.750000 0.941343
O O8 0.778681 0.604421 0.881650
O O9 0.779520 0.605136 0.000000
O O10 0.785736 0.500000 0.578366
O O11 0.000000 0.636543 0.561908
O O12 0.250000 0.250000 0.173250
O O13 0.000000 0.122435 0.178925
#
# Coordination Sequence:
#
# PCOD9484839 Si02
#       5
#    16   4  16  16  16
#     4   9  17  31  47  64  94 131 163 198 244 295
#     4  12  19  30  48  70 104 132 156 204 253 294
#     4   8  13  22  37  59  87 117 150 194 244 288
#     4  10  19  29  45  70  98 129 163 199 245 298
#     4   9  17  28  45  68  93 122 161 203 244 291
#
# _framework density 25.506367999999998
#
# number of rings (size 3 to 8) (size 9 to 14) (size 15 to 20)
#    0.000    2.824    1.176    1.412    0.000    1.882 
#    0.000    0.000    0.000    0.706    0.000    5.765 
#    0.000    0.000    0.000   44.000    0.000   24.000 
#
# Total GULP energy -189311.068089 kJ/mol
# GULP energy per Si atom -5567.972591 kJ/mol
# Density = 2.544831 g / cm^3
# Si number density = 25.506368 Si / 1000 Ang^3
#
#
#
# Elastic Constant Matrix: (Units=GPa)
#
#
# Indices 1 2 3 4 5 6 
#
# 1 131.8016 11.1933 74.7930 0.0000 0.0000 0.0000
# 2 11.1933 79.6197 3.6317 0.0000 0.0000 0.0000
# 3 74.7930 3.6317 317.5165 0.0000 0.0000 0.0000
# 4 0.0000 0.0000 0.0000 44.4994 0.0000 0.0000
# 5 0.0000 0.0000 0.0000 0.0000 24.6184 0.0000
# 6 0.0000 0.0000 0.0000 0.0000 0.0000 1.3157
#
#
#
# Elastic Compliance Matrix: (Units=1/GPa)
#
#
# Indices 1 2 3 4 5 6 
#
# 1 0.008862 -0.001151 -0.002074 0.000000 0.000000 0.000000
# 2 -0.001151 0.012716 0.000126 0.000000 0.000000 0.000000
# 3 -0.002074 0.000126 0.003637 0.000000 0.000000 0.000000
# 4 0.000000 0.000000 0.000000 0.022472 0.000000 0.000000
# 5 0.000000 0.000000 0.000000 0.000000 0.040620 0.000000
# 6 0.000000 0.000000 0.000000 0.000000 0.000000 0.760034
#
#
# Mechanical properties :
#
#
# Convention : Reuss Voigt Hill
#
# Bulk Modulus (GPa) = 52.59059 78.68596 65.63828
# Shear Modulus (GPa) = 5.80802 43.37469 24.59136
#
# Velocity S-wave (km/s) = 1.51064 4.12824 3.10841
# Velocity P-wave (km/s) = 4.86889 7.32391 6.21875
#
# Compressibility (1/GPa) = 0.01901481
#
# Stress axis : x y z
#
# Youngs Moduli (GPa) = 112.84069 78.64217 274.97996
#
# Poissons Ratio (x) = 0.09054 0.57040
# Poissons Ratio (y) = 0.12991 -0.03458
# Poissons Ratio (z) = 0.23407 -0.00989
#
# Static dielectric constant tensor:
#      x y z
#    x 1.962050 0.000000 0.000000 
#    y 0.000000 2.066550 0.000000 
#    z 0.000000 0.000000 2.066400 
# 
# From -- ./inp_files/67095.got.cif
#   From: 2010.05.17/outbox.cif.g08.bks.cpg/sg65_34_cif.got.tgz:67095.got - 2010.06.03 17:01:31.
