data_PCOD9484592
_publ_section_title
;
Structure prediction by ZEFSAII (Michael W. Deem and Ramdas Pophale) SiO2 
 PCOD9484592
Probable space group: C M M M
;
_chemical_formula_sum "Si O2"
_cell_formula_units_Z 120
_cell_length_a 14.258345
_cell_length_b 21.983156
_cell_length_c 21.924517
_cell_angle_alpha 90.000000
_cell_angle_beta 90.000000
_cell_angle_gamma 90.000000
_cell_volume 6872.095644
_symmetry_space_group_name_H-M "C M M M"
_symmetry_group_IT_number 65
_symmetry_cell_setting 'orthorhombic'
loop_
_space_group_symop_operation_xyz
x,y,z
-x,-y,z
x,-y,-z
-x,y,-z
-x,-y,-z
x,y,-z
-x,y,z
x,-y,z
1/2+x,1/2+y,z
1/2-x,1/2-y,z
1/2+x,1/2-y,-z
1/2-x,1/2+y,-z
1/2-x,1/2-y,-z
1/2+x,1/2+y,-z
1/2-x,1/2+y,z
1/2+x,1/2-y,z
loop_
_atom_site_type_symbol
_atom_site_label
_atom_site_fract_x
_atom_site_fract_y
_atom_site_fract_z
Si Si1 0.892268 0.500000 0.926107
Si Si2 0.110608 0.070704 0.427466
Si Si3 0.894566 0.717540 0.694610
Si Si4 0.688558 0.129682 0.069822
Si Si5 0.107690 0.071318 0.767619
Si Si6 0.857193 0.268099 0.166246
Si Si7 0.795459 0.846280 0.670779
Si Si8 0.601638 0.359523 0.107091
O O1 0.840370 0.562203 0.909009
O O2 0.000000 0.500000 0.904815
O O3 0.893587 0.500000 0.000000
O O4 0.124829 0.077471 0.500000
O O5 0.172509 0.116173 0.388134
O O6 0.000000 0.081518 0.415157
O O7 0.129606 0.000000 0.411341
O O8 0.897314 0.714297 0.768383
O O9 0.856625 0.784746 0.677536
O O10 0.813490 0.672125 0.671929
O O11 0.000000 0.707635 0.671325
O O12 0.645291 0.178693 0.116167
O O13 0.801490 0.136326 0.070662
O O14 0.655703 0.139159 0.000000
O O15 0.177581 0.111976 0.728474
O O16 0.110624 0.092814 0.837434
O O17 0.000000 0.082233 0.746139
O O18 0.127101 0.000000 0.761929
O O19 0.750000 0.250000 0.179676
O O20 0.899900 0.207311 0.137552
O O21 0.500000 0.369488 0.076692
#
# Coordination Sequence:
#
# PCOD9484592 Si02
#       8
#     8  16  16  16  16  16  16  16
#     4   9  20  40  59  73  91 123 174 226 266 311
#     4   9  18  33  56  88 121 150 185 230 272 308
#     4  11  21  34  53  79 110 145 183 225 275 325
#     4  10  22  38  56  78 103 134 176 224 271 330
#     4  10  19  31  52  80 106 137 178 221 267 325
#     4  10  18  35  56  78 105 141 176 222 277 324
#     4  11  19  33  55  82 109 150 184 222 270 318
#     4  10  20  33  52  79 110 139 167 211 270 334
#
# _framework density 17.461922000000001
#
# number of rings (size 3 to 8) (size 9 to 14) (size 15 to 20)
#    0.000    1.933    2.667    3.200    0.933    4.800 
#    0.000    1.333    0.000    4.000    0.000    0.933 
#    0.000    0.000    0.000    0.000    0.000    0.000 
#
# Total GULP energy -334778.611118 kJ/mol
# GULP energy per Si atom -5579.643519 kJ/mol
# Density = 1.742218 g / cm^3
# Si number density = 17.461922 Si / 1000 Ang^3
#
#
#
# Elastic Constant Matrix: (Units=GPa)
#
#
# Indices 1 2 3 4 5 6 
#
# 1 118.1946 56.2166 29.7170 0.0000 0.0000 0.0000
# 2 56.2166 100.4333 38.1852 0.0000 0.0000 0.0000
# 3 29.7170 38.1852 64.8154 0.0000 0.0000 0.0000
# 4 0.0000 0.0000 0.0000 27.2042 0.0000 0.0000
# 5 0.0000 0.0000 0.0000 0.0000 -450.5355 0.0000
# 6 0.0000 0.0000 0.0000 0.0000 0.0000 11.4412
#
#
#
# Elastic Compliance Matrix: (Units=1/GPa)
#
#
# Indices 1 2 3 4 5 6 
#
# 1 0.011717 -0.005820 -0.001944 0.000000 0.000000 0.000000
# 2 -0.005820 0.015721 -0.006594 0.000000 0.000000 0.000000
# 3 -0.001944 -0.006594 0.020204 0.000000 0.000000 0.000000
# 4 0.000000 0.000000 0.000000 0.036759 0.000000 0.000000
# 5 0.000000 0.000000 0.000000 0.000000 -0.002220 0.000000
# 6 0.000000 0.000000 0.000000 0.000000 0.000000 0.087403
#
#
# Mechanical properties :
#
#
# Convention : Reuss Voigt Hill
#
# Bulk Modulus (GPa) = 52.82995 59.07565 55.95280
# Shear Modulus (GPa) = 24.43682 -71.75639 -23.65978
#
# Velocity S-wave (km/s) = 3.74496 -6.41734 -3.68494
# Velocity P-wave (km/s) = 7.00141 4.58313 3.74263
#
# Compressibility (1/GPa) = 0.01892866
#
# Stress axis : x y z
#
# Youngs Moduli (GPa) = 85.34393 63.60784 49.49465
#
# Poissons Ratio (x) = 0.37018 0.09620
# Poissons Ratio (y) = 0.49667 0.32636
# Poissons Ratio (z) = 0.16588 0.41942
#
# Static dielectric constant tensor:
#      x y z
#    x 1.605080 0.000000 0.000000 
#    y 0.000000 1.581030 0.000000 
#    z 0.000000 0.000000 1.586160 
# 
# From -- ./inp_files/63056.got.cif
#   From: 2010.05.17/outbox.cif.g08.bks.cpg/sg65_32_cif.got.tgz:63056.got - 2010.06.03 17:01:31.
