data_PCOD9484935
_publ_section_title
;
Structure prediction by ZEFSAII (Michael W. Deem and Ramdas Pophale) SiO2 
 PCOD9484935
Probable space group: C M M M
;
_chemical_formula_sum "Si O2"
_cell_formula_units_Z 104
_cell_length_a 16.257226
_cell_length_b 23.805162
_cell_length_c 17.392895
_cell_angle_alpha 90.000000
_cell_angle_beta 90.000000
_cell_angle_gamma 90.000000
_cell_volume 6731.152959
_symmetry_space_group_name_H-M "C M M M"
_symmetry_group_IT_number 65
_symmetry_cell_setting 'orthorhombic'
loop_
_space_group_symop_operation_xyz
x,y,z
-x,-y,z
x,-y,-z
-x,y,-z
-x,-y,-z
x,y,-z
-x,y,z
x,-y,z
1/2+x,1/2+y,z
1/2-x,1/2-y,z
1/2+x,1/2-y,-z
1/2-x,1/2+y,-z
1/2-x,1/2-y,-z
1/2+x,1/2+y,-z
1/2-x,1/2+y,z
1/2+x,1/2-y,z
loop_
_atom_site_type_symbol
_atom_site_label
_atom_site_fract_x
_atom_site_fract_y
_atom_site_fract_z
Si Si1 0.402445 0.563593 0.000000
Si Si2 0.872930 0.364688 0.087613
Si Si3 0.407158 0.568182 0.411100
Si Si4 0.595239 0.734199 0.089679
Si Si5 0.729348 0.432068 0.287770
Si Si6 0.090276 0.432712 0.759912
Si Si7 0.685702 0.630233 0.132182
O O1 0.372859 0.596433 0.074934
O O2 0.368861 0.500000 0.000000
O O3 0.500000 0.561383 0.000000
O O4 0.897096 0.300322 0.104863
O O5 0.903890 0.404427 0.155892
O O6 0.774618 0.367651 0.092680
O O7 0.899413 0.378148 0.000000
O O8 0.396682 0.585624 0.500000
O O9 0.500000 0.585602 0.385576
O O10 0.407617 0.500000 0.410446
O O11 0.330432 0.585175 0.357811
O O12 0.500000 0.717994 0.097654
O O13 0.651230 0.693228 0.139456
O O14 0.619388 0.726008 0.000000
O O15 0.724230 0.500000 0.280771
O O16 0.827260 0.417460 0.288194
O O17 0.694837 0.402363 0.211717
O O18 0.092996 0.500000 0.769196
O O19 0.000000 0.418034 0.726726
#
# Coordination Sequence:
#
# PCOD9484935 Si02
#       7
#     8  16  16  16  16  16  16
#     4  11  22  32  41  56  83 119 153 184 220 264
#     4  10  19  31  45  63  80 111 152 199 236 271
#     4   8  14  26  45  68  92 117 145 178 218 266
#     4  10  19  30  44  59  81 110 147 191 234 272
#     4   9  18  30  45  66  91 120 151 183 223 269
#     4   9  18  31  45  63  89 118 148 186 233 276
#     4  11  19  31  44  60  83 116 152 189 224 266
#
# _framework density 15.450547
#
# number of rings (size 3 to 8) (size 9 to 14) (size 15 to 20)
#    0.000    2.385    1.538    2.308    0.000    4.308 
#    0.000    2.308    0.000    0.462    0.000    3.231 
#    0.000    9.846    0.000    3.077    0.000    0.923 
#
# Total GULP energy -289591.244426 kJ/mol
# GULP energy per Si atom -5569.062393 kJ/mol
# Density = 1.541538 g / cm^3
# Si number density = 15.450547 Si / 1000 Ang^3
#
#
#
# Elastic Constant Matrix: (Units=GPa)
#
#
# Indices 1 2 3 4 5 6 
#
# 1 119.2289 20.0661 54.6841 0.0000 0.0000 0.0000
# 2 20.0661 22.3415 12.4499 0.0000 0.0000 0.0000
# 3 54.6841 12.4499 63.9813 0.0000 0.0000 0.0000
# 4 0.0000 0.0000 0.0000 3.5983 0.0000 0.0000
# 5 0.0000 0.0000 0.0000 0.0000 14.6419 0.0000
# 6 0.0000 0.0000 0.0000 0.0000 0.0000 23.2953
#
#
#
# Elastic Compliance Matrix: (Units=1/GPa)
#
#
# Indices 1 2 3 4 5 6 
#
# 1 0.014699 -0.006955 -0.011210 0.000000 0.000000 0.000000
# 2 -0.006955 0.053495 -0.004465 0.000000 0.000000 0.000000
# 3 -0.011210 -0.004465 0.026079 0.000000 0.000000 0.000000
# 4 0.000000 0.000000 0.000000 0.277909 0.000000 0.000000
# 5 0.000000 0.000000 0.000000 0.000000 0.068297 0.000000
# 6 0.000000 0.000000 0.000000 0.000000 0.000000 0.042927
#
#
# Mechanical properties :
#
#
# Convention : Reuss Voigt Hill
#
# Bulk Modulus (GPa) = 20.40257 42.21687 31.30972
# Shear Modulus (GPa) = 9.17425 16.19721 12.68573
#
# Velocity S-wave (km/s) = 2.43941 3.24130 2.86851
# Velocity P-wave (km/s) = 4.60087 6.43360 5.59282
#
# Compressibility (1/GPa) = 0.04901343
#
# Stress axis : x y z
#
# Youngs Moduli (GPa) = 68.03114 18.69343 38.34479
#
# Poissons Ratio (x) = 0.13002 0.42984
# Poissons Ratio (y) = 0.47318 0.17120
# Poissons Ratio (z) = 0.76261 0.08346
#
# Static dielectric constant tensor:
#      x y z
#    x 1.562380 0.000000 0.000000 
#    y 0.000000 1.515590 0.000000 
#    z 0.000000 0.000000 1.484010 
# 
# From -- ./inp_files/53502.got.cif
#   From: 2010.05.17/outbox.cif.g08.bks.cpg/sg65_27_cif.got.tgz:53502.got - 2010.06.03 17:01:31.
