data_PCOD9484499
_publ_section_title
;
Structure prediction by ZEFSAII (Michael W. Deem and Ramdas Pophale) SiO2 
 PCOD9484499
Probable space group: C M M M
;
_chemical_formula_sum "Si O2"
_cell_formula_units_Z 104
_cell_length_a 30.798859
_cell_length_b 9.287185
_cell_length_c 20.372431
_cell_angle_alpha 90.000000
_cell_angle_beta 90.000000
_cell_angle_gamma 90.000000
_cell_volume 5827.222216
_symmetry_space_group_name_H-M "C M M M"
_symmetry_group_IT_number 65
_symmetry_cell_setting 'orthorhombic'
loop_
_space_group_symop_operation_xyz
x,y,z
-x,-y,z
x,-y,-z
-x,y,-z
-x,-y,-z
x,y,-z
-x,y,z
x,-y,z
1/2+x,1/2+y,z
1/2-x,1/2-y,z
1/2+x,1/2-y,-z
1/2-x,1/2+y,-z
1/2-x,1/2-y,-z
1/2+x,1/2+y,-z
1/2-x,1/2+y,z
1/2+x,1/2-y,z
loop_
_atom_site_type_symbol
_atom_site_label
_atom_site_fract_x
_atom_site_fract_y
_atom_site_fract_z
Si Si1 0.858448 0.824852 0.194049
Si Si2 0.705214 0.671430 0.075116
Si Si3 0.323353 0.330576 0.577588
Si Si4 0.950592 0.169097 0.225815
Si Si5 0.422708 0.338306 0.622643
Si Si6 0.205724 0.326321 0.704594
Si Si7 0.500000 0.150734 0.423496
O O1 0.831592 0.796228 0.128055
O O2 0.908646 0.776464 0.186144
O O3 0.833591 0.741835 0.252703
O O4 0.857565 0.000000 0.207091
O O5 0.712633 0.500000 0.076969
O O6 0.750000 0.750000 0.092009
O O7 0.693536 0.710710 0.000000
O O8 0.317294 0.299404 0.500000
O O9 0.311415 0.500000 0.588546
O O10 0.374042 0.316877 0.597688
O O11 0.299895 0.226173 0.629089
O O12 0.931665 0.175131 0.299823
O O13 0.000000 0.229521 0.222026
O O14 0.954767 0.000000 0.209482
O O15 0.435231 0.500000 0.603683
O O16 0.456282 0.231300 0.592107
O O17 0.207272 0.500000 0.709523
O O18 0.250000 0.250000 0.728960
O O19 0.500000 0.133367 0.500000
O O20 0.500000 0.000000 0.386559
#
# Coordination Sequence:
#
# PCOD9484499 Si02
#       7
#    16  16  16  16  16  16   8
#     4  10  19  35  58  81 112 146 182 227 268 316
#     4   9  18  32  53  83 116 149 181 218 267 320
#     4  10  21  38  58  77 100 133 177 228 280 333
#     4   9  16  29  53  80 103 134 178 222 263 312
#     4  10  18  33  55  74  94 128 176 222 267 328
#     4  12  25  39  57  80 108 140 180 225 274 333
#     4  11  23  33  43  67 103 135 166 215 280 336
#
# _framework density 17.847269000000001
#
# number of rings (size 3 to 8) (size 9 to 14) (size 15 to 20)
#    0.000    1.923    2.308    2.538    0.000    4.308 
#    0.000    0.000    0.000    0.462    0.000    3.231 
#    0.000    0.000    0.000    5.231    0.000    5.538 
#
# Total GULP energy -289735.960308 kJ/mol
# GULP energy per Si atom -5571.845391 kJ/mol
# Density = 1.780665 g / cm^3
# Si number density = 17.847269 Si / 1000 Ang^3
#
#
#
# Elastic Constant Matrix: (Units=GPa)
#
#
# Indices 1 2 3 4 5 6 
#
# 1 119.1973 41.9536 47.3630 0.0000 0.0000 0.0000
# 2 41.9536 56.2623 31.1576 0.0000 0.0000 0.0000
# 3 47.3630 31.1576 75.6760 0.0000 0.0000 0.0000
# 4 0.0000 0.0000 0.0000 15.5021 0.0000 0.0000
# 5 0.0000 0.0000 0.0000 0.0000 24.5922 0.0000
# 6 0.0000 0.0000 0.0000 0.0000 0.0000 6.9467
#
#
#
# Elastic Compliance Matrix: (Units=1/GPa)
#
#
# Indices 1 2 3 4 5 6 
#
# 1 0.012829 -0.006632 -0.005299 0.000000 0.000000 0.000000
# 2 -0.006632 0.026452 -0.006740 0.000000 0.000000 0.000000
# 3 -0.005299 -0.006740 0.019306 0.000000 0.000000 0.000000
# 4 0.000000 0.000000 0.000000 0.064507 0.000000 0.000000
# 5 0.000000 0.000000 0.000000 0.000000 0.040663 0.000000
# 6 0.000000 0.000000 0.000000 0.000000 0.000000 0.143952
#
#
# Mechanical properties :
#
#
# Convention : Reuss Voigt Hill
#
# Bulk Modulus (GPa) = 47.07026 54.67598 50.87312
# Shear Modulus (GPa) = 14.19919 18.11899 16.15909
#
# Velocity S-wave (km/s) = 2.82369 3.18972 3.01227
# Velocity P-wave (km/s) = 6.08787 6.65340 6.37691
#
# Compressibility (1/GPa) = 0.02124484
#
# Stress axis : x y z
#
# Youngs Moduli (GPa) = 77.94738 37.80458 51.79846
#
# Poissons Ratio (x) = 0.25072 0.27447
# Poissons Ratio (y) = 0.51695 0.34913
# Poissons Ratio (z) = 0.41303 0.25481
#
# Static dielectric constant tensor:
#      x y z
#    x 1.626690 0.000000 0.000000 
#    y 0.000000 1.421020 0.000000 
#    z 0.000000 0.000000 1.644360 
# 
# From -- ./inp_files/66384.got.cif
#   From: 2010.05.17/outbox.cif.g08.bks.cpg/sg65_34_cif.got.tgz:66384.got - 2010.06.03 17:01:31.
