data_PCOD9484633
_publ_section_title
;
Structure prediction by ZEFSAII (Michael W. Deem and Ramdas Pophale) SiO2 
 PCOD9484633
Probable space group: C M M M
;
_chemical_formula_sum "Si O2"
_cell_formula_units_Z 88
_cell_length_a 21.130839
_cell_length_b 30.880132
_cell_length_c 7.375826
_cell_angle_alpha 90.000000
_cell_angle_beta 90.000000
_cell_angle_gamma 90.000000
_cell_volume 4812.896829
_symmetry_space_group_name_H-M "C M M M"
_symmetry_group_IT_number 65
_symmetry_cell_setting 'orthorhombic'
loop_
_space_group_symop_operation_xyz
x,y,z
-x,-y,z
x,-y,-z
-x,y,-z
-x,-y,-z
x,y,-z
-x,y,z
x,-y,z
1/2+x,1/2+y,z
1/2-x,1/2-y,z
1/2+x,1/2-y,-z
1/2-x,1/2+y,-z
1/2-x,1/2-y,-z
1/2+x,1/2+y,-z
1/2-x,1/2+y,z
1/2+x,1/2-y,z
loop_
_atom_site_type_symbol
_atom_site_label
_atom_site_fract_x
_atom_site_fract_y
_atom_site_fract_z
Si Si1 0.931313 0.218868 0.211101
Si Si2 0.859868 0.450731 0.721878
Si Si3 0.792756 0.210368 0.788645
Si Si4 0.302380 0.134979 0.281093
Si Si5 0.000000 0.447189 0.706966
Si Si6 0.068128 0.679056 0.719160
O O1 0.863327 0.205447 0.290086
O O2 0.930003 0.271066 0.222224
O O3 0.000000 0.205505 0.289389
O O4 0.932495 0.205656 0.000000
O O5 0.863012 0.451030 0.500000
O O6 0.847596 0.500000 0.778996
O O7 0.808360 0.415070 0.774943
O O8 0.930750 0.436911 0.783567
O O9 0.750000 0.250000 0.711872
O O10 0.753941 0.165945 0.779056
O O11 0.802554 0.221854 0.000000
O O12 0.301208 0.135916 0.500000
O O13 0.368447 0.156165 0.218800
O O14 0.000000 0.500000 0.699293
O O15 0.000000 0.430129 0.500000
O O16 0.069088 0.678129 0.500000
O O17 0.000000 0.660391 0.777104
#
# Coordination Sequence:
#
# PCOD9484633 Si02
#       6
#    16  16  16  16   8  16
#     4   9  17  30  46  59  75 106 144 173 198 238
#     4   8  14  24  37  56  82 109 139 174 209 243
#     4  10  19  31  44  60  84 111 138 169 207 248
#     4  10  19  27  41  63  84 111 142 174 210 245
#     4   7  10  18  34  54  77 107 139 173 209 237
#     4   9  17  26  36  56  85 111 137 172 209 239
#
# _framework density 18.284206000000001
#
# number of rings (size 3 to 8) (size 9 to 14) (size 15 to 20)
#    0.000    3.000    1.818    1.091    1.273    1.091 
#    0.000    0.000    0.000    0.545    0.000    0.000 
#    0.000    2.909    0.000    9.091    0.000    0.000 
#
# Total GULP energy -245211.385401 kJ/mol
# GULP energy per Si atom -5572.986032 kJ/mol
# Density = 1.824259 g / cm^3
# Si number density = 18.284206 Si / 1000 Ang^3
#
#
#
# Elastic Constant Matrix: (Units=GPa)
#
#
# Indices 1 2 3 4 5 6 
#
# 1 167.5780 64.0779 7.0640 0.0000 0.0000 0.0000
# 2 64.0779 82.3439 -7.1723 0.0000 0.0000 0.0000
# 3 7.0640 -7.1723 63.8047 0.0000 0.0000 0.0000
# 4 0.0000 0.0000 0.0000 16.4533 0.0000 0.0000
# 5 0.0000 0.0000 0.0000 0.0000 15.3976 0.0000
# 6 0.0000 0.0000 0.0000 0.0000 0.0000 30.3388
#
#
#
# Elastic Compliance Matrix: (Units=1/GPa)
#
#
# Indices 1 2 3 4 5 6 
#
# 1 0.008682 -0.006907 -0.001738 0.000000 0.000000 0.000000
# 2 -0.006907 0.017760 0.002761 0.000000 0.000000 0.000000
# 3 -0.001738 0.002761 0.016176 0.000000 0.000000 0.000000
# 4 0.000000 0.000000 0.000000 0.060778 0.000000 0.000000
# 5 0.000000 0.000000 0.000000 0.000000 0.064945 0.000000
# 6 0.000000 0.000000 0.000000 0.000000 0.000000 0.032961
#
#
# Mechanical properties :
#
#
# Convention : Reuss Voigt Hill
#
# Bulk Modulus (GPa) = 32.41543 49.07396 40.74470
# Shear Modulus (GPa) = 22.38617 29.08842 25.73729
#
# Velocity S-wave (km/s) = 3.50286 3.99294 3.75590
# Velocity P-wave (km/s) = 5.84185 6.93945 6.41417
#
# Compressibility (1/GPa) = 0.03084950
#
# Stress axis : x y z
#
# Youngs Moduli (GPa) = 115.18334 56.30702 61.82154
#
# Poissons Ratio (x) = 0.38893 0.10742
# Poissons Ratio (y) = 0.79561 -0.17070
# Poissons Ratio (z) = 0.20015 -0.15547
#
# Static dielectric constant tensor:
#      x y z
#    x 1.666430 0.000000 0.000000 
#    y 0.000000 1.626270 0.000000 
#    z 0.000000 0.000000 2.157210 
# 
# From -- ./inp_files/12651.got.cif
#   From: 2010.05.17/outbox.cif.g08.bks.cpg/sg65_7_cif.got.tgz:12651.got - 2010.06.03 17:01:31.
