data_PCOD9484455
_publ_section_title
;
Structure prediction by ZEFSAII (Michael W. Deem and Ramdas Pophale) SiO2 
 PCOD9484455
Probable space group: C M M M
;
_chemical_formula_sum "Si O2"
_cell_formula_units_Z 96
_cell_length_a 20.083338
_cell_length_b 15.763493
_cell_length_c 14.389941
_cell_angle_alpha 90.000000
_cell_angle_beta 90.000000
_cell_angle_gamma 90.000000
_cell_volume 4555.618721
_symmetry_space_group_name_H-M "C M M M"
_symmetry_group_IT_number 65
_symmetry_cell_setting 'orthorhombic'
loop_
_space_group_symop_operation_xyz
x,y,z
-x,-y,z
x,-y,-z
-x,y,-z
-x,-y,-z
x,y,-z
-x,y,z
x,-y,z
1/2+x,1/2+y,z
1/2-x,1/2-y,z
1/2+x,1/2-y,-z
1/2-x,1/2+y,-z
1/2-x,1/2-y,-z
1/2+x,1/2+y,-z
1/2-x,1/2+y,z
1/2+x,1/2-y,z
loop_
_atom_site_type_symbol
_atom_site_label
_atom_site_fract_x
_atom_site_fract_y
_atom_site_fract_z
Si Si1 0.669706 0.754539 0.391894
Si Si2 0.723012 0.652175 0.890387
Si Si3 0.924234 0.373071 0.899565
Si Si4 0.327719 0.090094 0.741947
Si Si5 0.077674 0.903609 0.612757
Si Si6 0.427710 0.331382 0.891312
O O1 0.651653 0.768223 0.500000
O O2 0.750000 0.750000 0.387363
O O3 0.655661 0.834529 0.327681
O O4 0.629409 0.670473 0.359596
O O5 0.750000 0.750000 0.888375
O O6 0.766426 0.607473 0.811659
O O7 0.645738 0.641522 0.861074
O O8 0.729214 0.626079 0.000000
O O9 0.887721 0.411971 0.814069
O O10 0.924386 0.271045 0.888720
O O11 0.000000 0.400178 0.902631
O O12 0.892353 0.391740 0.000000
O O13 0.318087 0.000000 0.693304
O O14 0.081252 0.906708 0.500000
O O15 0.000000 0.883970 0.635184
O O16 0.092668 0.000000 0.646044
O O17 0.500000 0.357647 0.850332
O O18 0.430360 0.355276 0.000000
#
# Coordination Sequence:
#
# PCOD9484455 Si02
#       6
#    16  16  16  16  16  16
#     4  10  23  42  63  87 119 162 210 258 315 379
#     4  10  18  32  56  83 114 152 198 256 316 371
#     4   9  18  34  56  84 118 157 202 250 300 356
#     4  12  25  37  54  83 122 168 216 258 298 353
#     4   8  15  33  66 102 125 142 178 246 329 397
#     4   8  14  27  52  83 109 140 188 244 306 372
#
# _framework density 21.072879
#
# number of rings (size 3 to 8) (size 9 to 14) (size 15 to 20)
#    0.000    2.500    1.667    2.500    0.000    3.333 
#    0.000    2.500    0.000    0.500    0.000    5.833 
#    0.000    0.667    0.000    5.833    0.000    0.833 
#
# Total GULP energy -267614.686643 kJ/mol
# GULP energy per Si atom -5575.305972 kJ/mol
# Density = 2.102492 g / cm^3
# Si number density = 21.072879 Si / 1000 Ang^3
#
#
#
# Elastic Constant Matrix: (Units=GPa)
#
#
# Indices 1 2 3 4 5 6 
#
# 1 147.8624 58.7822 31.6213 0.0000 0.0000 0.0000
# 2 58.7822 122.3705 54.1650 0.0000 0.0000 0.0000
# 3 31.6213 54.1650 86.3048 0.0000 0.0000 0.0000
# 4 0.0000 0.0000 0.0000 -0.2109 0.0000 0.0000
# 5 0.0000 0.0000 0.0000 0.0000 -37.7776 0.0000
# 6 0.0000 0.0000 0.0000 0.0000 0.0000 -4.0170
#
#
#
# Elastic Compliance Matrix: (Units=1/GPa)
#
#
# Indices 1 2 3 4 5 6 
#
# 1 0.008395 -0.003699 -0.000755 0.000000 0.000000 0.000000
# 2 -0.003699 0.012945 -0.006769 0.000000 0.000000 0.000000
# 3 -0.000755 -0.006769 0.016112 0.000000 0.000000 0.000000
# 4 0.000000 0.000000 0.000000 -4.742462 0.000000 0.000000
# 5 0.000000 0.000000 0.000000 0.000000 -0.026471 0.000000
# 6 0.000000 0.000000 0.000000 0.000000 0.000000 -0.248943
#
#
# Mechanical properties :
#
#
# Convention : Reuss Voigt Hill
#
# Bulk Modulus (GPa) = 66.63644 71.74164 69.18904
# Shear Modulus (GPa) = -1.00949 5.73020 2.36035
#
# Velocity S-wave (km/s) = -0.69288 1.65080 1.05949
# Velocity P-wave (km/s) = 5.57229 6.14426 5.86525
#
# Compressibility (1/GPa) = 0.01500680
#
# Stress axis : x y z
#
# Youngs Moduli (GPa) = 119.12200 77.25166 62.06739
#
# Poissons Ratio (x) = 0.28572 0.04683
# Poissons Ratio (y) = 0.44058 0.42013
# Poissons Ratio (z) = 0.08988 0.52292
#
# Static dielectric constant tensor:
#      x y z
#    x 1.770370 0.000000 0.000000 
#    y 0.000000 1.058280 0.000000 
#    z 0.000000 0.000000 1.773530 
# 
# From -- ./inp_files/44107.got.cif
#   From: 2010.05.17/outbox.cif.g08.bks.cpg/sg65_23_cif.got.tgz:44107.got - 2010.06.03 17:01:31.
