data_PCOD9484500
_publ_section_title
;
Structure prediction by ZEFSAII (Michael W. Deem and Ramdas Pophale) SiO2 
 PCOD9484500
Probable space group: C M M M
;
_chemical_formula_sum "Si O2"
_cell_formula_units_Z 88
_cell_length_a 24.099694
_cell_length_b 9.111335
_cell_length_c 23.494663
_cell_angle_alpha 90.000000
_cell_angle_beta 90.000000
_cell_angle_gamma 90.000000
_cell_volume 5158.967157
_symmetry_space_group_name_H-M "C M M M"
_symmetry_group_IT_number 65
_symmetry_cell_setting 'orthorhombic'
loop_
_space_group_symop_operation_xyz
x,y,z
-x,-y,z
x,-y,-z
-x,y,-z
-x,-y,-z
x,y,-z
-x,y,z
x,-y,z
1/2+x,1/2+y,z
1/2-x,1/2-y,z
1/2+x,1/2-y,-z
1/2-x,1/2+y,-z
1/2-x,1/2-y,-z
1/2+x,1/2+y,-z
1/2-x,1/2+y,z
1/2+x,1/2-y,z
loop_
_atom_site_type_symbol
_atom_site_label
_atom_site_fract_x
_atom_site_fract_y
_atom_site_fract_z
Si Si1 0.387701 0.170358 0.774901
Si Si2 0.432700 0.831636 0.000000
Si Si3 0.000000 0.664029 0.297894
Si Si4 0.500000 0.672303 0.588276
Si Si5 0.434415 0.675115 0.117227
Si Si6 0.884720 0.324502 0.437403
Si Si7 0.690072 0.822446 0.671026
O O1 0.445406 0.173882 0.740094
O O2 0.397762 0.265075 0.830959
O O3 0.341230 0.218806 0.729648
O O4 0.377347 0.000000 0.790521
O O5 0.416852 0.748488 0.057744
O O6 0.500000 0.832773 0.000000
O O7 0.413634 0.000000 0.000000
O O8 0.000000 0.788936 0.344826
O O9 0.000000 0.500000 0.325333
O O10 0.500000 0.500000 0.577256
O O11 0.555964 0.746206 0.565527
O O12 0.500000 0.713328 0.127283
O O13 0.431172 0.500000 0.113124
O O14 0.859563 0.295163 0.500000
O O15 0.893191 0.500000 0.432633
O O16 0.847058 0.279462 0.383823
O O17 0.750000 0.750000 0.667791
O O18 0.694186 0.000000 0.670332
#
# Coordination Sequence:
#
# PCOD9484500 Si02
#       7
#    16   8   8   8  16  16  16
#     4  10  19  33  54  76 101 136 178 217 258 315
#     4   9  17  29  45  67 102 149 190 213 243 300
#     4  10  18  33  55  75 103 139 177 214 258 322
#     4  12  23  33  52  83 115 137 165 214 269 315
#     4  10  19  29  45  74 111 143 174 215 264 308
#     4  10  21  39  60  78 102 141 180 211 257 325
#     4  10  22  39  57  78 102 134 177 225 270 316
#
# _framework density 17.057677999999999
#
# number of rings (size 3 to 8) (size 9 to 14) (size 15 to 20)
#    0.000    1.909    2.727    1.909    0.000    5.818 
#    0.000    0.000    0.000    0.000    0.000    0.636 
#    0.000    0.000    0.000    0.000    0.000    0.000 
#
# Total GULP energy -245502.660342 kJ/mol
# GULP energy per Si atom -5579.605917 kJ/mol
# Density = 1.701885 g / cm^3
# Si number density = 17.057678 Si / 1000 Ang^3
#
#
#
# Elastic Constant Matrix: (Units=GPa)
#
#
# Indices 1 2 3 4 5 6 
#
# 1 95.4146 34.5443 59.0874 0.0000 0.0000 0.0000
# 2 34.5443 55.0726 62.1737 0.0000 0.0000 0.0000
# 3 59.0874 62.1737 158.0487 0.0000 0.0000 0.0000
# 4 0.0000 0.0000 0.0000 12.4670 0.0000 0.0000
# 5 0.0000 0.0000 0.0000 0.0000 30.7420 0.0000
# 6 0.0000 0.0000 0.0000 0.0000 0.0000 24.7102
#
#
#
# Elastic Compliance Matrix: (Units=1/GPa)
#
#
# Indices 1 2 3 4 5 6 
#
# 1 0.014461 -0.005338 -0.003306 0.000000 0.000000 0.000000
# 2 -0.005338 0.034634 -0.011629 0.000000 0.000000 0.000000
# 3 -0.003306 -0.011629 0.012138 0.000000 0.000000 0.000000
# 4 0.000000 0.000000 0.000000 0.080212 0.000000 0.000000
# 5 0.000000 0.000000 0.000000 0.000000 0.032529 0.000000
# 6 0.000000 0.000000 0.000000 0.000000 0.000000 0.040469
#
#
# Mechanical properties :
#
#
# Convention : Reuss Voigt Hill
#
# Bulk Modulus (GPa) = 48.34025 68.90518 58.62272
# Shear Modulus (GPa) = 19.09234 23.76586 21.42910
#
# Velocity S-wave (km/s) = 3.34920 3.73670 3.54824
# Velocity P-wave (km/s) = 6.58460 7.68767 7.15742
#
# Compressibility (1/GPa) = 0.02068669
#
# Stress axis : x y z
#
# Youngs Moduli (GPa) = 69.15327 28.87296 82.38584
#
# Poissons Ratio (x) = 0.15411 0.27241
# Poissons Ratio (y) = 0.36911 0.95808
# Poissons Ratio (z) = 0.22865 0.33577
#
# Static dielectric constant tensor:
#      x y z
#    x 1.546650 0.000000 0.000000 
#    y 0.000000 1.574670 0.000000 
#    z 0.000000 0.000000 1.591890 
# 
# From -- ./inp_files/71109.got.cif
#   From: 2010.05.17/outbox.cif.g08.bks.cpg/sg65_36_cif.got.tgz:71109.got - 2010.06.03 17:01:31.
