data_PCOD9484851
_publ_section_title
;
Structure prediction by ZEFSAII (Michael W. Deem and Ramdas Pophale) SiO2 
 PCOD9484851
Probable space group: C M M M
;
_chemical_formula_sum "Si O2"
_cell_formula_units_Z 80
_cell_length_a 7.459515
_cell_length_b 20.785615
_cell_length_c 23.170639
_cell_angle_alpha 90.000000
_cell_angle_beta 90.000000
_cell_angle_gamma 90.000000
_cell_volume 3592.621639
_symmetry_space_group_name_H-M "C M M M"
_symmetry_group_IT_number 65
_symmetry_cell_setting 'orthorhombic'
loop_
_space_group_symop_operation_xyz
x,y,z
-x,-y,z
x,-y,-z
-x,y,-z
-x,-y,-z
x,y,-z
-x,y,z
x,-y,z
1/2+x,1/2+y,z
1/2-x,1/2-y,z
1/2+x,1/2-y,-z
1/2-x,1/2+y,-z
1/2-x,1/2-y,-z
1/2+x,1/2+y,-z
1/2-x,1/2+y,z
1/2+x,1/2-y,z
loop_
_atom_site_type_symbol
_atom_site_label
_atom_site_fract_x
_atom_site_fract_y
_atom_site_fract_z
Si Si1 0.214540 0.819679 0.184910
Si Si2 0.718616 0.428067 0.728903
Si Si3 0.214804 0.173303 0.500000
Si Si4 0.201923 0.500000 0.069576
Si Si5 0.781420 0.926862 0.596100
Si Si6 0.793728 0.856625 0.935307
O O1 0.250000 0.750000 0.210506
O O2 0.283586 0.875366 0.226263
O O3 0.290384 0.822306 0.119757
O O4 0.000000 0.828505 0.180048
O O5 0.500000 0.426397 0.728836
O O6 0.772155 0.500000 0.746106
O O7 0.773360 0.417066 0.662597
O O8 0.250000 0.250000 0.500000
O O9 0.278798 0.131230 0.555031
O O10 0.000000 0.168451 0.500000
O O11 0.291793 0.567844 0.082697
O O12 0.000000 0.500000 0.092440
O O13 0.194479 0.500000 0.000000
O O14 0.000000 0.927131 0.594933
O O15 0.727560 0.000000 0.578486
O O16 0.000000 0.836136 0.940362
O O17 0.714358 0.849792 0.000000
#
# Coordination Sequence:
#
# PCOD9484851 Si02
#       6
#    16  16   8   8  16  16
#     4  10  21  34  50  71  97 128 162 200 245 293
#     4   8  15  29  50  73  94 121 162 206 243 282
#     4  10  19  29  45  73 105 132 160 194 240 286
#     4   9  17  29  47  73  99 121 149 192 245 290
#     4   8  14  27  48  72  95 123 164 208 239 271
#     4   9  18  32  49  69  94 126 163 199 238 289
#
# _framework density 22.267861
#
# number of rings (size 3 to 8) (size 9 to 14) (size 15 to 20)
#    0.000    3.100    0.000    1.800    1.400    4.400 
#    0.000    0.000    0.000    1.200    0.000    2.800 
#    0.000    0.000    0.000    0.000    0.000    0.000 
#
# Total GULP energy -223091.905686 kJ/mol
# GULP energy per Si atom -5577.297642 kJ/mol
# Density = 2.221718 g / cm^3
# Si number density = 22.267861 Si / 1000 Ang^3
#
#
#
# Elastic Constant Matrix: (Units=GPa)
#
#
# Indices 1 2 3 4 5 6 
#
# 1 69.1171 -1.6643 8.9189 0.0000 0.0000 0.0000
# 2 -1.6643 182.6878 116.6510 0.0000 0.0000 0.0000
# 3 8.9189 116.6510 134.0513 0.0000 0.0000 0.0000
# 4 0.0000 0.0000 0.0000 -276.1200 0.0000 0.0000
# 5 0.0000 0.0000 0.0000 0.0000 -8.8737 0.0000
# 6 0.0000 0.0000 0.0000 0.0000 0.0000 8.9608
#
#
#
# Elastic Compliance Matrix: (Units=1/GPa)
#
#
# Indices 1 2 3 4 5 6 
#
# 1 0.014830 0.001722 -0.002485 0.000000 0.000000 0.000000
# 2 0.001722 0.012518 -0.011008 0.000000 0.000000 0.000000
# 3 -0.002485 -0.011008 0.017204 0.000000 0.000000 0.000000
# 4 0.000000 0.000000 0.000000 -0.003622 0.000000 0.000000
# 5 0.000000 0.000000 0.000000 0.000000 -0.112693 0.000000
# 6 0.000000 0.000000 0.000000 0.000000 0.000000 0.111597
#
#
# Mechanical properties :
#
#
# Convention : Reuss Voigt Hill
#
# Bulk Modulus (GPa) = 47.59501 70.40748 59.00124
# Shear Modulus (GPa) = 71.04114 -37.74321 16.64896
#
# Velocity S-wave (km/s) = 5.65440 -4.12146 2.73732
# Velocity P-wave (km/s) = 8.00312 3.00641 6.04518
#
# Compressibility (1/GPa) = 0.02101061
#
# Stress axis : x y z
#
# Youngs Moduli (GPa) = 67.42931 79.88205 58.12480
#
# Poissons Ratio (x) = -0.13755 0.14445
# Poissons Ratio (y) = -0.11611 0.63984
# Poissons Ratio (z) = 0.16757 0.87935
#
# Static dielectric constant tensor:
#      x y z
#    x 1.870790 0.000000 0.000000 
#    y 0.000000 1.810410 0.000000 
#    z 0.000000 0.000000 1.824850 
# 
# From -- ./inp_files/67287.got.cif
#   From: 2010.05.17/outbox.cif.g08.bks.cpg/sg65_34_cif.got.tgz:67287.got - 2010.06.03 17:01:31.
