data_PCOD9484688
_publ_section_title
;
Structure prediction by ZEFSAII (Michael W. Deem and Ramdas Pophale) SiO2 
 PCOD9484688
Probable space group: C M M M
;
_chemical_formula_sum "Si O2"
_cell_formula_units_Z 88
_cell_length_a 21.695701
_cell_length_b 24.879949
_cell_length_c 7.405213
_cell_angle_alpha 90.000000
_cell_angle_beta 90.000000
_cell_angle_gamma 90.000000
_cell_volume 3997.244629
_symmetry_space_group_name_H-M "C M M M"
_symmetry_group_IT_number 65
_symmetry_cell_setting 'orthorhombic'
loop_
_space_group_symop_operation_xyz
x,y,z
-x,-y,z
x,-y,-z
-x,y,-z
-x,-y,-z
x,y,-z
-x,y,z
x,-y,z
1/2+x,1/2+y,z
1/2-x,1/2-y,z
1/2+x,1/2-y,-z
1/2-x,1/2+y,-z
1/2-x,1/2-y,-z
1/2+x,1/2+y,-z
1/2-x,1/2+y,z
1/2+x,1/2-y,z
loop_
_atom_site_type_symbol
_atom_site_label
_atom_site_fract_x
_atom_site_fract_y
_atom_site_fract_z
Si Si1 0.313887 0.775971 0.286506
Si Si2 0.000000 0.564073 0.780300
Si Si3 0.303764 0.000000 0.791276
Si Si4 0.867083 0.607291 0.782050
Si Si5 0.838509 0.000000 0.719022
Si Si6 0.567960 0.410578 0.280405
Si Si7 0.567676 0.286452 0.279645
O O1 0.312681 0.764366 0.500000
O O2 0.250000 0.750000 0.214953
O O3 0.329683 0.839053 0.269348
O O4 0.374461 0.746570 0.211835
O O5 0.061917 0.596288 0.724179
O O6 0.000000 0.500000 0.725455
O O7 0.000000 0.562533 0.000000
O O8 0.330545 0.945084 0.714582
O O9 0.230720 0.000000 0.783434
O O10 0.324387 0.000000 0.000000
O O11 0.868119 0.608396 0.000000
O O12 0.877113 0.051714 0.779917
O O13 0.837012 0.000000 0.500000
O O14 0.568345 0.411737 0.500000
O O15 0.500000 0.429876 0.224451
O O16 0.574276 0.348712 0.227296
O O17 0.567536 0.284868 0.500000
O O18 0.500000 0.266896 0.221752
#
# Coordination Sequence:
#
# PCOD9484688 Si02
#       7
#    16   8   8  16   8  16  16
#     4  10  22  36  54  80 113 147 181 223 271 324
#     4   9  16  34  63  87 107 139 185 232 277 334
#     4  10  22  38  53  75 108 143 172 206 266 333
#     4  10  21  38  60  82 106 140 183 226 271 327
#     4  10  19  28  51  81 103 129 172 224 262 302
#     4   8  14  26  46  73 102 131 170 217 257 298
#     4   8  15  29  47  68 101 142 173 203 254 312
#
# _framework density 22.015166000000001
#
# number of rings (size 3 to 8) (size 9 to 14) (size 15 to 20)
#    0.000    2.818    0.909    1.364    3.818    2.182 
#    0.000    0.000    0.000    1.636    0.000    2.545 
#    0.000    0.000    0.000    0.000    0.000    0.000 
#
# Total GULP energy -245499.043130 kJ/mol
# GULP energy per Si atom -5579.523708 kJ/mol
# Density = 2.196506 g / cm^3
# Si number density = 22.015166 Si / 1000 Ang^3
#
#
#
# Elastic Constant Matrix: (Units=GPa)
#
#
# Indices 1 2 3 4 5 6 
#
# 1 223.1148 117.9796 0.3199 0.0000 0.0000 0.0000
# 2 117.9796 135.3706 -7.8165 0.0000 0.0000 0.0000
# 3 0.3199 -7.8165 71.1981 0.0000 0.0000 0.0000
# 4 0.0000 0.0000 0.0000 5.6307 0.0000 0.0000
# 5 0.0000 0.0000 0.0000 0.0000 2.9773 0.0000
# 6 0.0000 0.0000 0.0000 0.0000 0.0000 39.8231
#
#
#
# Elastic Compliance Matrix: (Units=1/GPa)
#
#
# Indices 1 2 3 4 5 6 
#
# 1 0.008363 -0.007337 -0.000843 0.000000 0.000000 0.000000
# 2 -0.007337 0.013872 0.001556 0.000000 0.000000 0.000000
# 3 -0.000843 0.001556 0.014220 0.000000 0.000000 0.000000
# 4 0.000000 0.000000 0.000000 0.177598 0.000000 0.000000
# 5 0.000000 0.000000 0.000000 0.000000 0.335880 0.000000
# 6 0.000000 0.000000 0.000000 0.000000 0.000000 0.025111
#
#
# Mechanical properties :
#
#
# Convention : Reuss Voigt Hill
#
# Bulk Modulus (GPa) = 43.09321 72.29437 57.69379
# Shear Modulus (GPa) = 8.38886 30.96625 19.67756
#
# Velocity S-wave (km/s) = 1.95417 3.75452 2.99292
# Velocity P-wave (km/s) = 4.97077 7.19061 6.18116
#
# Compressibility (1/GPa) = 0.02320551
#
# Stress axis : x y z
#
# Youngs Moduli (GPa) = 119.57302 72.08921 70.32388
#
# Poissons Ratio (x) = 0.52894 0.05929
# Poissons Ratio (y) = 0.87735 -0.10942
# Poissons Ratio (z) = 0.10081 -0.11216
#
# Static dielectric constant tensor:
#      x y z
#    x 1.784000 0.000000 0.000000 
#    y 0.000000 1.786780 0.000000 
#    z 0.000000 0.000000 1.854830 
# 
# From -- ./inp_files/11913.got.cif
#   From: 2010.05.17/outbox.cif.g08.bks.cpg/sg65_6_cif.got.tgz:11913.got - 2010.06.03 17:01:31.
