data_PCOD9484657
_publ_section_title
;
Structure prediction by ZEFSAII (Michael W. Deem and Ramdas Pophale) SiO2 
 PCOD9484657
Probable space group: C M M M
;
_chemical_formula_sum "Si O2"
_cell_formula_units_Z 80
_cell_length_a 27.400031
_cell_length_b 17.253624
_cell_length_c 12.054576
_cell_angle_alpha 90.000000
_cell_angle_beta 90.000000
_cell_angle_gamma 90.000000
_cell_volume 5698.798784
_symmetry_space_group_name_H-M "C M M M"
_symmetry_group_IT_number 65
_symmetry_cell_setting 'orthorhombic'
loop_
_space_group_symop_operation_xyz
x,y,z
-x,-y,z
x,-y,-z
-x,y,-z
-x,-y,-z
x,y,-z
-x,y,z
x,-y,z
1/2+x,1/2+y,z
1/2-x,1/2-y,z
1/2+x,1/2-y,-z
1/2-x,1/2+y,-z
1/2-x,1/2-y,-z
1/2+x,1/2+y,-z
1/2-x,1/2+y,z
1/2+x,1/2-y,z
loop_
_atom_site_type_symbol
_atom_site_label
_atom_site_fract_x
_atom_site_fract_y
_atom_site_fract_z
Si Si1 0.834229 0.408912 0.000000
Si Si2 0.716021 0.409079 0.000000
Si Si3 0.557727 0.908831 0.369386
Si Si4 0.142899 0.337641 0.236407
Si Si5 0.295286 0.307621 0.788682
Si Si6 0.266263 0.909106 0.631416
O O1 0.775207 0.402530 0.000000
O O2 0.853868 0.368974 0.888902
O O3 0.846338 0.500000 0.000000
O O4 0.697361 0.365006 0.891178
O O5 0.704106 0.500000 0.000000
O O6 0.567900 0.895274 0.500000
O O7 0.500000 0.896890 0.351671
O O8 0.591731 0.856679 0.292995
O O9 0.568269 0.000000 0.347560
O O10 0.159578 0.248270 0.236227
O O11 0.184251 0.383200 0.307164
O O12 0.250000 0.250000 0.818362
O O13 0.276303 0.357190 0.684578
O O14 0.270536 0.897109 0.500000
O O15 0.257832 0.000000 0.653118
#
# Coordination Sequence:
#
# PCOD9484657 Si02
#       6
#     8   8  16  16  16  16
#     4  11  19  27  44  64  85 119 155 181 210 254
#     4  11  18  30  46  60  87 124 158 183 210 252
#     4   9  18  33  51  68  87 115 152 188 219 258
#     4  11  20  29  45  64  90 116 148 185 224 260
#     4  10  19  28  41  62  89 116 148 186 218 255
#     4  10  19  29  41  59  86 119 151 180 215 262
#
# _framework density 14.038046
#
# number of rings (size 3 to 8) (size 9 to 14) (size 15 to 20)
#    0.000    1.800    4.000    4.500    0.000    6.000 
#    0.000    0.500    0.000    1.800    0.000    0.000 
#    0.000    4.000    0.000   11.000    0.000    0.000 
#
# Total GULP energy -223171.010249 kJ/mol
# GULP energy per Si atom -5579.275256 kJ/mol
# Density = 1.400610 g / cm^3
# Si number density = 14.038046 Si / 1000 Ang^3
#
#
#
# Elastic Constant Matrix: (Units=GPa)
#
#
# Indices 1 2 3 4 5 6 
#
# 1 54.0047 35.7783 39.3099 0.0000 0.0000 0.0000
# 2 35.7783 96.1187 62.0898 0.0000 0.0000 0.0000
# 3 39.3099 62.0898 96.8755 0.0000 0.0000 0.0000
# 4 0.0000 0.0000 0.0000 71.5985 0.0000 0.0000
# 5 0.0000 0.0000 0.0000 0.0000 8.7490 0.0000
# 6 0.0000 0.0000 0.0000 0.0000 0.0000 9.9927
#
#
#
# Elastic Compliance Matrix: (Units=1/GPa)
#
#
# Indices 1 2 3 4 5 6 
#
# 1 0.027728 -0.005210 -0.007912 0.000000 0.000000 0.000000
# 2 -0.005210 0.018733 -0.009893 0.000000 0.000000 0.000000
# 3 -0.007912 -0.009893 0.019873 0.000000 0.000000 0.000000
# 4 0.000000 0.000000 0.000000 0.013967 0.000000 0.000000
# 5 0.000000 0.000000 0.000000 0.000000 0.114299 0.000000
# 6 0.000000 0.000000 0.000000 0.000000 0.000000 0.100073
#
#
# Mechanical properties :
#
#
# Convention : Reuss Voigt Hill
#
# Bulk Modulus (GPa) = 49.24842 57.92832 53.58837
# Shear Modulus (GPa) = 14.38966 25.38943 19.88955
#
# Velocity S-wave (km/s) = 3.20511 4.25740 3.76817
# Velocity P-wave (km/s) = 6.98965 8.09457 7.56232
#
# Compressibility (1/GPa) = 0.02030522
#
# Stress axis : x y z
#
# Youngs Moduli (GPa) = 36.06483 53.38035 50.31858
#
# Poissons Ratio (x) = 0.27812 0.39812
# Poissons Ratio (y) = 0.18791 0.49778
# Poissons Ratio (z) = 0.28534 0.52807
#
# Static dielectric constant tensor:
#      x y z
#    x 1.440860 0.000000 0.000000 
#    y 0.000000 1.464570 0.000000 
#    z 0.000000 0.000000 1.464820 
# 
# From -- ./inp_files/27303.got.cif
#   From: 2010.05.17/outbox.cif.g08.bks.cpg/sg65_14_cif.got.tgz:27303.got - 2010.06.03 17:01:31.
