data_PCOD9484099
_publ_section_title
;
Structure prediction by ZEFSAII (Michael W. Deem and Ramdas Pophale) SiO2 
 PCOD9484099
Probable space group: C M M M
;
_chemical_formula_sum "Si O2"
_cell_formula_units_Z 80
_cell_length_a 24.372182
_cell_length_b 8.488909
_cell_length_c 21.134419
_cell_angle_alpha 90.000000
_cell_angle_beta 90.000000
_cell_angle_gamma 90.000000
_cell_volume 4372.568319
_symmetry_space_group_name_H-M "C M M M"
_symmetry_group_IT_number 65
_symmetry_cell_setting 'orthorhombic'
loop_
_space_group_symop_operation_xyz
x,y,z
-x,-y,z
x,-y,-z
-x,y,-z
-x,-y,-z
x,y,-z
-x,y,z
x,-y,z
1/2+x,1/2+y,z
1/2-x,1/2-y,z
1/2+x,1/2-y,-z
1/2-x,1/2+y,-z
1/2-x,1/2-y,-z
1/2+x,1/2+y,-z
1/2-x,1/2+y,z
1/2+x,1/2-y,z
loop_
_atom_site_type_symbol
_atom_site_label
_atom_site_fract_x
_atom_site_fract_y
_atom_site_fract_z
Si Si1 0.562908 0.810500 0.428252
Si Si2 0.500000 0.313809 0.231339
Si Si3 0.500000 0.815974 0.094525
Si Si4 0.121939 0.690924 0.069556
Si Si5 0.612582 0.312523 0.694730
Si Si6 0.311783 0.310751 0.191285
O O1 0.576042 0.759155 0.500000
O O2 0.500000 0.755825 0.414263
O O3 0.605331 0.756588 0.375049
O O4 0.561503 0.000000 0.427876
O O5 0.500000 0.500000 0.213378
O O6 0.500000 0.208150 0.169499
O O7 0.445570 0.282693 0.271065
O O8 0.441431 0.751932 0.072025
O O9 0.500000 0.000000 0.077163
O O10 0.121626 0.500000 0.074271
O O11 0.154617 0.755673 0.129523
O O12 0.144820 0.732649 0.000000
O O13 0.619331 0.500000 0.688565
O O14 0.658527 0.253994 0.743962
O O15 0.312472 0.500000 0.191983
O O16 0.250000 0.250000 0.187940
#
# Coordination Sequence:
#
# PCOD9484099 Si02
#       6
#    16   8   8  16  16  16
#     4   9  18  31  49  79 117 150 178 210 253 310
#     4  10  18  31  50  78 112 140 172 219 272 324
#     4  10  19  32  54  83 113 143 176 214 263 324
#     4  10  21  37  57  82 112 144 178 219 269 325
#     4  10  20  34  54  79 109 142 176 218 267 320
#     4  11  24  41  59  79 104 138 185 234 277 322
#
# _framework density 18.295883
#
# number of rings (size 3 to 8) (size 9 to 14) (size 15 to 20)
#    0.000    2.000    3.000    1.500    0.000    4.800 
#    0.000    1.000    0.000    2.400    0.000    0.000 
#    0.000    0.000    0.000    0.000    0.000    0.000 
#
# Total GULP energy -223098.584788 kJ/mol
# GULP energy per Si atom -5577.464620 kJ/mol
# Density = 1.825424 g / cm^3
# Si number density = 18.295883 Si / 1000 Ang^3
#
#
#
# Elastic Constant Matrix: (Units=GPa)
#
#
# Indices 1 2 3 4 5 6 
#
# 1 117.5127 23.0632 72.4451 0.0000 0.0000 0.0000
# 2 23.0632 14.4145 34.3844 0.0000 0.0000 0.0000
# 3 72.4451 34.3844 175.5227 0.0000 0.0000 0.0000
# 4 0.0000 0.0000 0.0000 13.5406 0.0000 0.0000
# 5 0.0000 0.0000 0.0000 0.0000 18.0924 0.0000
# 6 0.0000 0.0000 0.0000 0.0000 0.0000 11.8482
#
#
#
# Elastic Compliance Matrix: (Units=1/GPa)
#
#
# Indices 1 2 3 4 5 6 
#
# 1 0.012926 -0.014934 -0.002410 0.000000 0.000000 0.000000
# 2 -0.014934 0.147484 -0.022728 0.000000 0.000000 0.000000
# 3 -0.002410 -0.022728 0.011144 0.000000 0.000000 0.000000
# 4 0.000000 0.000000 0.000000 0.073852 0.000000 0.000000
# 5 0.000000 0.000000 0.000000 0.000000 0.055272 0.000000
# 6 0.000000 0.000000 0.000000 0.000000 0.000000 0.084401
#
#
# Mechanical properties :
#
#
# Convention : Reuss Voigt Hill
#
# Bulk Modulus (GPa) = 10.93956 63.02612 36.98284
# Shear Modulus (GPa) = 10.08691 20.53339 15.31015
#
# Velocity S-wave (km/s) = 2.35057 3.35370 2.89590
# Velocity P-wave (km/s) = 3.65502 7.03701 5.60708
#
# Compressibility (1/GPa) = 0.09141132
#
# Stress axis : x y z
#
# Youngs Moduli (GPa) = 77.36252 6.78041 89.73338
#
# Poissons Ratio (x) = 0.10126 0.21622
# Poissons Ratio (y) = 1.15532 2.03944
# Poissons Ratio (z) = 0.18641 0.15410
#
# Static dielectric constant tensor:
#      x y z
#    x 1.619620 0.000000 0.000000 
#    y 0.000000 1.631500 0.000000 
#    z 0.000000 0.000000 1.642470 
# 
# From -- ./inp_files/59697.got.cif
#   From: 2010.05.17/outbox.cif.g08.bks.cpg/sg65_30_cif.got.tgz:59697.got - 2010.06.03 17:01:31.
