data_PCOD9484965
_publ_section_title
;
Structure prediction by ZEFSAII (Michael W. Deem and Ramdas Pophale) SiO2 
 PCOD9484965
Probable space group: C M M M
;
_chemical_formula_sum "Si O2"
_cell_formula_units_Z 120
_cell_length_a 29.033258
_cell_length_b 8.670936
_cell_length_c 29.517635
_cell_angle_alpha 90.000000
_cell_angle_beta 90.000000
_cell_angle_gamma 90.000000
_cell_volume 7430.932431
_symmetry_space_group_name_H-M "C M M M"
_symmetry_group_IT_number 65
_symmetry_cell_setting 'orthorhombic'
loop_
_space_group_symop_operation_xyz
x,y,z
-x,-y,z
x,-y,-z
-x,y,-z
-x,-y,-z
x,y,-z
-x,y,z
x,-y,z
1/2+x,1/2+y,z
1/2-x,1/2-y,z
1/2+x,1/2-y,-z
1/2-x,1/2+y,-z
1/2-x,1/2-y,-z
1/2+x,1/2+y,-z
1/2-x,1/2+y,z
1/2+x,1/2-y,z
loop_
_atom_site_type_symbol
_atom_site_label
_atom_site_fract_x
_atom_site_fract_y
_atom_site_fract_z
Si Si1 0.802052 0.685352 0.648349
Si Si2 0.802009 0.686055 0.451360
Si Si3 0.052511 0.685756 0.226709
Si Si4 0.698656 0.314054 0.822621
Si Si5 0.643157 0.684627 0.266947
Si Si6 0.447413 0.814138 0.120851
Si Si7 0.355174 0.315269 0.913702
Si Si8 0.801676 0.316224 0.000000
O O1 0.799790 0.500000 0.650567
O O2 0.750000 0.750000 0.653414
O O3 0.820435 0.731944 0.598118
O O4 0.834003 0.747279 0.688180
O O5 0.823319 0.734546 0.500000
O O6 0.800507 0.500000 0.451399
O O7 0.750000 0.750000 0.451696
O O8 0.055982 0.500000 0.229097
O O9 0.091338 0.760529 0.257544
O O10 0.059863 0.729393 0.173807
O O11 0.000000 0.728595 0.238579
O O12 0.700338 0.500000 0.822307
O O13 0.750000 0.250000 0.824093
O O14 0.672786 0.263534 0.776935
O O15 0.670436 0.266655 0.867224
O O16 0.644759 0.500000 0.269004
O O17 0.500000 0.771645 0.108830
O O18 0.407866 0.738366 0.091016
O O19 0.443920 0.000000 0.118155
O O20 0.353025 0.500000 0.917198
O O21 0.328953 0.241889 0.955908
O O22 0.750000 0.250000 0.000000
O O23 0.799342 0.500000 0.000000
#
# Coordination Sequence:
#
# PCOD9484965 Si02
#       8
#    16  16  16  16  16  16  16   8
#     4  10  19  30  44  65  95 133 171 209 253 297
#     4   8  14  25  41  60  84 118 163 210 252 294
#     4   9  18  33  53  76 101 131 167 204 246 295
#     4  10  22  35  49  71  98 130 167 203 239 285
#     4  11  21  33  47  70 101 134 169 203 246 295
#     4   9  18  34  57  84 110 136 166 202 248 299
#     4  11  22  39  59  82 107 135 171 208 250 297
#     4  12  26  44  63  84 107 136 170 209 255 297
#
# _framework density 16.148713999999998
#
# number of rings (size 3 to 8) (size 9 to 14) (size 15 to 20)
#    0.000    2.133    1.333    3.400    0.000    5.333 
#    0.000    1.667    0.000    2.000    0.000    0.000 
#    0.000    0.533    0.000    6.133    0.000    1.733 
#
# Total GULP energy -334642.921075 kJ/mol
# GULP energy per Si atom -5577.382018 kJ/mol
# Density = 1.611196 g / cm^3
# Si number density = 16.148714 Si / 1000 Ang^3
#
#
#
# Elastic Constant Matrix: (Units=GPa)
#
#
# Indices 1 2 3 4 5 6 
#
# 1 121.5550 37.7324 77.8985 0.0000 0.0000 0.0000
# 2 37.7324 40.1205 44.2326 0.0000 0.0000 0.0000
# 3 77.8985 44.2326 154.1516 0.0000 0.0000 0.0000
# 4 0.0000 0.0000 0.0000 20.6266 0.0000 0.0000
# 5 0.0000 0.0000 0.0000 0.0000 15.5956 0.0000
# 6 0.0000 0.0000 0.0000 0.0000 0.0000 28.5567
#
#
#
# Elastic Compliance Matrix: (Units=1/GPa)
#
#
# Indices 1 2 3 4 5 6 
#
# 1 0.013593 -0.007622 -0.004682 0.000000 0.000000 0.000000
# 2 -0.007622 0.040733 -0.007836 0.000000 0.000000 0.000000
# 3 -0.004682 -0.007836 0.011102 0.000000 0.000000 0.000000
# 4 0.000000 0.000000 0.000000 0.048481 0.000000 0.000000
# 5 0.000000 0.000000 0.000000 0.000000 0.064121 0.000000
# 6 0.000000 0.000000 0.000000 0.000000 0.000000 0.035018
#
#
# Mechanical properties :
#
#
# Convention : Reuss Voigt Hill
#
# Bulk Modulus (GPa) = 39.76643 70.61712 55.19178
# Shear Modulus (GPa) = 19.10507 23.35335 21.22921
#
# Velocity S-wave (km/s) = 3.44331 3.80694 3.62968
# Velocity P-wave (km/s) = 6.36295 7.94657 7.19844
#
# Compressibility (1/GPa) = 0.02514684
#
# Stress axis : x y z
#
# Youngs Moduli (GPa) = 73.56590 24.55025 90.07664
#
# Poissons Ratio (x) = 0.18713 0.42174
# Poissons Ratio (y) = 0.56074 0.70586
# Poissons Ratio (z) = 0.34444 0.19238
#
# Static dielectric constant tensor:
#      x y z
#    x 1.516540 0.000000 0.000000 
#    y 0.000000 1.546280 0.000000 
#    z 0.000000 0.000000 1.561860 
# 
# From -- ./inp_files/73985.got.cif
#   From: 2010.05.17/outbox.cif.g08.bks.cpg/sg65_37_cif.got.tgz:73985.got - 2010.06.03 17:01:31.
