data_PCOD9484679
_publ_section_title
;
Structure prediction by ZEFSAII (Michael W. Deem and Ramdas Pophale) SiO2 
 PCOD9484679
Probable space group: C M M M
;
_chemical_formula_sum "Si O2"
_cell_formula_units_Z 96
_cell_length_a 28.516849
_cell_length_b 7.821902
_cell_length_c 26.377045
_cell_angle_alpha 90.000000
_cell_angle_beta 90.000000
_cell_angle_gamma 90.000000
_cell_volume 5883.558103
_symmetry_space_group_name_H-M "C M M M"
_symmetry_group_IT_number 65
_symmetry_cell_setting 'orthorhombic'
loop_
_space_group_symop_operation_xyz
x,y,z
-x,-y,z
x,-y,-z
-x,y,-z
-x,-y,-z
x,y,-z
-x,y,z
x,-y,z
1/2+x,1/2+y,z
1/2-x,1/2-y,z
1/2+x,1/2-y,-z
1/2-x,1/2+y,-z
1/2-x,1/2-y,-z
1/2+x,1/2+y,-z
1/2-x,1/2+y,z
1/2+x,1/2-y,z
loop_
_atom_site_type_symbol
_atom_site_label
_atom_site_fract_x
_atom_site_fract_y
_atom_site_fract_z
Si Si1 0.555505 0.792210 0.555605
Si Si2 0.694729 0.705379 0.500000
Si Si3 0.104443 0.297908 0.342499
Si Si4 0.195542 0.204251 0.389721
Si Si5 0.557267 0.000000 0.058298
Si Si6 0.445255 0.792882 0.241355
Si Si7 0.442971 0.310177 0.129098
O O1 0.572609 0.730807 0.500000
O O2 0.500000 0.754201 0.559003
O O3 0.581006 0.726035 0.605969
O O4 0.559644 0.000000 0.555095
O O5 0.689368 0.500000 0.500000
O O6 0.750000 0.750000 0.500000
O O7 0.678536 0.771856 0.445328
O O8 0.093791 0.500000 0.342397
O O9 0.159848 0.273175 0.348347
O O10 0.083255 0.230366 0.290202
O O11 0.250000 0.250000 0.382808
O O12 0.192323 0.000000 0.390496
O O13 0.572539 0.834354 0.090026
O O14 0.500000 0.000000 0.057894
O O15 0.572547 0.000000 0.000000
O O16 0.500000 0.746682 0.247957
O O17 0.428454 0.725069 0.187049
O O18 0.443021 0.000000 0.238652
O O19 0.500000 0.302723 0.130069
O O20 0.429007 0.500000 0.113419
#
# Coordination Sequence:
#
# PCOD9484679 Si02
#       7
#    16   8  16  16   8  16  16
#     4   8  14  25  40  60  86 111 137 173 217 265
#     4   8  16  30  46  60  73  96 125 159 210 265
#     4  10  19  28  44  68  86 107 142 180 220 272
#     4  10  20  34  48  62  82 105 133 174 221 276
#     4   9  16  26  40  60  88 120 155 193 231 269
#     4   9  16  28  44  61  87 119 152 191 227 263
#     4   9  16  26  41  60  84 117 155 195 234 266
#
# _framework density 16.316655999999998
#
# number of rings (size 3 to 8) (size 9 to 14) (size 15 to 20)
#    0.000    2.917    0.833    1.500    1.167    3.667 
#    0.000    1.667    0.000    1.500    0.000    1.167 
#    0.000    0.000    0.000    0.000    0.000    0.833 
#
# Total GULP energy -267502.309780 kJ/mol
# GULP energy per Si atom -5572.964787 kJ/mol
# Density = 1.627952 g / cm^3
# Si number density = 16.316656 Si / 1000 Ang^3
#
#
#
# Elastic Constant Matrix: (Units=GPa)
#
#
# Indices 1 2 3 4 5 6 
#
# 1 34.1782 7.3640 40.9936 0.0000 0.0000 0.0000
# 2 7.3640 57.6121 47.9515 0.0000 0.0000 0.0000
# 3 40.9936 47.9515 145.2969 0.0000 0.0000 0.0000
# 4 0.0000 0.0000 0.0000 3.1326 0.0000 0.0000
# 5 0.0000 0.0000 0.0000 0.0000 7.8085 0.0000
# 6 0.0000 0.0000 0.0000 0.0000 0.0000 7.9806
#
#
#
# Elastic Compliance Matrix: (Units=1/GPa)
#
#
# Indices 1 2 3 4 5 6 
#
# 1 0.046077 0.006798 -0.015243 0.000000 0.000000 0.000000
# 2 0.006798 0.024934 -0.010147 0.000000 0.000000 0.000000
# 3 -0.015243 -0.010147 0.014532 0.000000 0.000000 0.000000
# 4 0.000000 0.000000 0.000000 0.319228 0.000000 0.000000
# 5 0.000000 0.000000 0.000000 0.000000 0.128065 0.000000
# 6 0.000000 0.000000 0.000000 0.000000 0.000000 0.125304
#
#
# Mechanical properties :
#
#
# Convention : Reuss Voigt Hill
#
# Bulk Modulus (GPa) = 20.67910 47.74505 34.21208
# Shear Modulus (GPa) = 7.02796 13.16953 10.09875
#
# Velocity S-wave (km/s) = 2.07764 2.84407 2.49051
# Velocity P-wave (km/s) = 4.29611 6.33325 5.41141
#
# Compressibility (1/GPa) = 0.04835801
#
# Stress axis : x y z
#
# Youngs Moduli (GPa) = 21.70281 40.10612 68.81426
#
# Poissons Ratio (x) = -0.27263 1.04897
# Poissons Ratio (y) = -0.14753 0.69824
# Poissons Ratio (z) = 0.33083 0.40694
#
# Static dielectric constant tensor:
#      x y z
#    x 1.529670 0.000000 0.000000 
#    y 0.000000 1.589560 0.000000 
#    z 0.000000 0.000000 1.560150 
# 
# From -- ./inp_files/71742.got.cif
#   From: 2010.05.17/outbox.cif.g08.bks.cpg/sg65_36_cif.got.tgz:71742.got - 2010.06.03 17:01:31.
