data_PCOD9484689
_publ_section_title
;
Structure prediction by ZEFSAII (Michael W. Deem and Ramdas Pophale) SiO2 
 PCOD9484689
Probable space group: C M M M
;
_chemical_formula_sum "Si O2"
_cell_formula_units_Z 112
_cell_length_a 32.870607
_cell_length_b 32.751432
_cell_length_c 9.113891
_cell_angle_alpha 90.000000
_cell_angle_beta 90.000000
_cell_angle_gamma 90.000000
_cell_volume 9811.645482
_symmetry_space_group_name_H-M "C M M M"
_symmetry_group_IT_number 65
_symmetry_cell_setting 'orthorhombic'
loop_
_space_group_symop_operation_xyz
x,y,z
-x,-y,z
x,-y,-z
-x,y,-z
-x,-y,-z
x,y,-z
-x,y,z
x,-y,z
1/2+x,1/2+y,z
1/2-x,1/2-y,z
1/2+x,1/2-y,-z
1/2-x,1/2+y,-z
1/2-x,1/2-y,-z
1/2+x,1/2+y,-z
1/2-x,1/2+y,z
1/2+x,1/2-y,z
loop_
_atom_site_type_symbol
_atom_site_label
_atom_site_fract_x
_atom_site_fract_y
_atom_site_fract_z
Si Si1 0.418323 0.500000 0.822500
Si Si2 0.254715 0.346404 0.830766
Si Si3 0.301696 0.583884 0.674507
Si Si4 0.117334 0.861662 0.325797
Si Si5 0.663042 0.291174 0.169070
Si Si6 0.952749 0.912507 0.177037
Si Si7 0.208768 0.722319 0.669669
Si Si8 0.177161 0.000000 0.176669
O O1 0.439892 0.541713 0.774616
O O2 0.370854 0.500000 0.781856
O O3 0.420167 0.500000 0.000000
O O4 0.267363 0.386539 0.741410
O O5 0.295398 0.318134 0.830524
O O6 0.220362 0.319067 0.753709
O O7 0.245004 0.355433 0.000000
O O8 0.296660 0.579133 0.500000
O O9 0.344911 0.607036 0.699855
O O10 0.303611 0.540749 0.755879
O O11 0.112657 0.857147 0.500000
O O12 0.130483 0.818950 0.253206
O O13 0.077631 0.880930 0.252585
O O14 0.674758 0.249375 0.250164
O O15 0.651698 0.284422 0.000000
O O16 0.000000 0.905379 0.210677
O O17 0.947674 0.910377 0.000000
O O18 0.198734 0.714875 0.500000
O O19 0.250000 0.750000 0.671611
O O20 0.179927 0.000000 0.000000
#
# Coordination Sequence:
#
# PCOD9484689 Si02
#       8
#     8  16  16  16  16  16  16   8
#     4   9  17  29  44  57  67  79 103 137 173 213
#     4   9  16  25  37  52  69  89 112 133 155 187
#     4  10  19  29  39  52  69  88 109 136 170 204
#     4  10  19  29  40  53  70  87 106 132 166 205
#     4   9  16  25  38  53  69  88 110 131 153 186
#     4  10  19  31  45  57  68  84 107 136 172 215
#     4   9  15  23  35  52  73  92 108 127 154 185
#     4  11  19  28  43  55  66  86 112 141 173 211
#
# _framework density 11.415006999999999
#
# number of rings (size 3 to 8) (size 9 to 14) (size 15 to 20)
#    0.000    2.429    1.429    2.571    0.000    7.429 
#    0.000    0.357    0.000    0.857    0.000    0.000 
#    0.000    0.000    0.000    0.000    0.000    0.000 
#
# Total GULP energy -312091.068291 kJ/mol
# GULP energy per Si atom -5573.054791 kJ/mol
# Density = 1.138903 g / cm^3
# Si number density = 11.415007 Si / 1000 Ang^3
#
#
#
# Elastic Constant Matrix: (Units=GPa)
#
#
# Indices 1 2 3 4 5 6 
#
# 1 44.7784 51.2034 35.2650 0.0000 0.0000 0.0000
# 2 51.2034 84.6971 57.8929 0.0000 0.0000 0.0000
# 3 35.2650 57.8929 79.7647 0.0000 0.0000 0.0000
# 4 0.0000 0.0000 0.0000 17.8200 0.0000 0.0000
# 5 0.0000 0.0000 0.0000 0.0000 12.9658 0.0000
# 6 0.0000 0.0000 0.0000 0.0000 0.0000 10.9645
#
#
#
# Elastic Compliance Matrix: (Units=1/GPa)
#
#
# Indices 1 2 3 4 5 6 
#
# 1 0.072350 -0.043412 -0.000479 0.000000 0.000000 0.000000
# 2 -0.043412 0.049479 -0.016719 0.000000 0.000000 0.000000
# 3 -0.000479 -0.016719 0.024883 0.000000 0.000000 0.000000
# 4 0.000000 0.000000 0.000000 0.056117 0.000000 0.000000
# 5 0.000000 0.000000 0.000000 0.000000 0.077126 0.000000
# 6 0.000000 0.000000 0.000000 0.000000 0.000000 0.091204
#
#
# Mechanical properties :
#
#
# Convention : Reuss Voigt Hill
#
# Bulk Modulus (GPa) = 39.22599 55.32919 47.27759
# Shear Modulus (GPa) = 9.98257 12.67533 11.32895
#
# Velocity S-wave (km/s) = 2.96042 3.33590 3.15375
# Velocity P-wave (km/s) = 6.79144 7.96325 7.40057
#
# Compressibility (1/GPa) = 0.02549330
#
# Stress axis : x y z
#
# Youngs Moduli (GPa) = 13.82178 20.21066 40.18814
#
# Poissons Ratio (x) = 0.87738 0.01924
# Poissons Ratio (y) = 0.60002 0.67190
# Poissons Ratio (z) = 0.00662 0.33790
#
# Static dielectric constant tensor:
#      x y z
#    x 1.337760 0.000000 0.000000 
#    y 0.000000 1.358280 0.000000 
#    z 0.000000 0.000000 1.380720 
# 
# From -- ./inp_files/19227.got.cif
#   From: 2010.05.17/outbox.cif.g08.bks.cpg/sg65_10_cif.got.tgz:19227.got - 2010.06.03 17:01:31.
