data_PCOD9484358
_publ_section_title
;
Structure prediction by ZEFSAII (Michael W. Deem and Ramdas Pophale) SiO2 
 PCOD9484358
Probable space group: C M M M
;
_chemical_formula_sum "Si O2"
_cell_formula_units_Z 72
_cell_length_a 19.645140
_cell_length_b 8.636447
_cell_length_c 23.912634
_cell_angle_alpha 90.000000
_cell_angle_beta 90.000000
_cell_angle_gamma 90.000000
_cell_volume 4057.118167
_symmetry_space_group_name_H-M "C M M M"
_symmetry_group_IT_number 65
_symmetry_cell_setting 'orthorhombic'
loop_
_space_group_symop_operation_xyz
x,y,z
-x,-y,z
x,-y,-z
-x,y,-z
-x,-y,-z
x,y,-z
-x,y,z
x,-y,z
1/2+x,1/2+y,z
1/2-x,1/2-y,z
1/2+x,1/2-y,-z
1/2-x,1/2+y,-z
1/2-x,1/2-y,-z
1/2+x,1/2+y,-z
1/2-x,1/2+y,z
1/2+x,1/2-y,z
loop_
_atom_site_type_symbol
_atom_site_label
_atom_site_fract_x
_atom_site_fract_y
_atom_site_fract_z
Si Si1 0.325858 0.812959 0.062806
Si Si2 0.079983 0.184876 0.285923
Si Si3 0.327153 0.315130 0.500000
Si Si4 0.826670 0.684287 0.616477
Si Si5 0.420640 0.186603 0.835247
O O1 0.250000 0.750000 0.071554
O O2 0.375360 0.761868 0.112424
O O3 0.323974 0.000000 0.063806
O O4 0.347969 0.765997 0.000000
O O5 0.126541 0.265294 0.332094
O O6 0.099887 0.237907 0.223515
O O7 0.000000 0.225930 0.293292
O O8 0.086492 0.000000 0.290808
O O9 0.326421 0.500000 0.500000
O O10 0.250000 0.250000 0.500000
O O11 0.356257 0.252699 0.558331
O O12 0.822421 0.500000 0.611923
O O13 0.750000 0.750000 0.623847
O O14 0.500000 0.223557 0.845124
O O15 0.415032 0.000000 0.829953
#
# Coordination Sequence:
#
# PCOD9484358 Si02
#       5
#    16  16   8  16  16
#     4   9  18  32  50  73 101 132 165 205 254 305
#     4  10  21  37  55  76 105 139 174 215 264 313
#     4  10  18  32  53  78 109 140 173 213 259 307
#     4  11  21  35  56  81 108 138 176 217 259 308
#     4   9  18  33  52  73  98 131 171 212 254 303
#
# _framework density 17.746587999999999
#
# number of rings (size 3 to 8) (size 9 to 14) (size 15 to 20)
#    0.000    2.222    0.000    5.000    0.000    3.556 
#    0.000    5.000    0.000    3.333    0.000    6.222 
#    0.000    0.000    0.000    0.000    0.000    0.000 
#
# Total GULP energy -200869.633001 kJ/mol
# GULP energy per Si atom -5579.712028 kJ/mol
# Density = 1.770620 g / cm^3
# Si number density = 17.746588 Si / 1000 Ang^3
#
#
#
# Elastic Constant Matrix: (Units=GPa)
#
#
# Indices 1 2 3 4 5 6 
#
# 1 59.6544 38.7326 88.1895 0.0000 0.0000 0.0000
# 2 38.7326 86.8696 67.6612 0.0000 0.0000 0.0000
# 3 88.1895 67.6612 193.3867 0.0000 0.0000 0.0000
# 4 0.0000 0.0000 0.0000 28.2108 0.0000 0.0000
# 5 0.0000 0.0000 0.0000 0.0000 142.7846 0.0000
# 6 0.0000 0.0000 0.0000 0.0000 0.0000 23.8113
#
#
#
# Elastic Compliance Matrix: (Units=1/GPa)
#
#
# Indices 1 2 3 4 5 6 
#
# 1 0.054184 -0.006754 -0.022346 0.000000 0.000000 0.000000
# 2 -0.006754 0.016665 -0.002751 0.000000 0.000000 0.000000
# 3 -0.022346 -0.002751 0.016324 0.000000 0.000000 0.000000
# 4 0.000000 0.000000 0.000000 0.035447 0.000000 0.000000
# 5 0.000000 0.000000 0.000000 0.000000 0.007004 0.000000
# 6 0.000000 0.000000 0.000000 0.000000 0.000000 0.041997
#
#
# Mechanical properties :
#
#
# Convention : Reuss Voigt Hill
#
# Bulk Modulus (GPa) = 42.60543 81.00860 61.80701
# Shear Modulus (GPa) = 20.56370 48.64984 34.60677
#
# Velocity S-wave (km/s) = 3.40772 5.24148 4.42073
# Velocity P-wave (km/s) = 6.28834 9.07620 7.80771
#
# Compressibility (1/GPa) = 0.02347119
#
# Stress axis : x y z
#
# Youngs Moduli (GPa) = 18.45569 60.00426 61.25965
#
# Poissons Ratio (x) = 0.40526 1.36893
# Poissons Ratio (y) = 0.12465 0.16852
# Poissons Ratio (z) = 0.41242 0.16506
#
# Static dielectric constant tensor:
#      x y z
#    x 1.606760 0.000000 0.000000 
#    y 0.000000 1.599410 0.000000 
#    z 0.000000 0.000000 1.615540 
# 
# From -- ./inp_files/59256.got.cif
#   From: 2010.05.17/outbox.cif.g08.bks.cpg/sg65_30_cif.got.tgz:59256.got - 2010.06.03 17:01:31.
