data_PCOD9484790
_publ_section_title
;
Structure prediction by ZEFSAII (Michael W. Deem and Ramdas Pophale) SiO2 
 PCOD9484790
Probable space group: C M M M
;
_chemical_formula_sum "Si O2"
_cell_formula_units_Z 88
_cell_length_a 7.797360
_cell_length_b 20.167141
_cell_length_c 29.060903
_cell_angle_alpha 90.000000
_cell_angle_beta 90.000000
_cell_angle_gamma 90.000000
_cell_volume 4569.840323
_symmetry_space_group_name_H-M "C M M M"
_symmetry_group_IT_number 65
_symmetry_cell_setting 'orthorhombic'
loop_
_space_group_symop_operation_xyz
x,y,z
-x,-y,z
x,-y,-z
-x,y,-z
-x,-y,-z
x,y,-z
-x,y,z
x,-y,z
1/2+x,1/2+y,z
1/2-x,1/2-y,z
1/2+x,1/2-y,-z
1/2-x,1/2+y,-z
1/2-x,1/2-y,-z
1/2+x,1/2+y,-z
1/2-x,1/2+y,z
1/2+x,1/2-y,z
loop_
_atom_site_type_symbol
_atom_site_label
_atom_site_fract_x
_atom_site_fract_y
_atom_site_fract_z
Si Si1 0.296938 0.325868 0.632362
Si Si2 0.709364 0.424262 0.185753
Si Si3 0.293345 0.327695 0.000000
Si Si4 0.790600 0.076103 0.918979
Si Si5 0.294240 0.924962 0.551203
Si Si6 0.293140 0.326455 0.735044
O O1 0.500000 0.328885 0.636177
O O2 0.250000 0.250000 0.621643
O O3 0.246842 0.375092 0.591908
O O4 0.226787 0.342315 0.683488
O O5 0.500000 0.422401 0.185635
O O6 0.759151 0.500000 0.195995
O O7 0.763292 0.408889 0.133425
O O8 0.771559 0.374175 0.224720
O O9 0.250000 0.250000 0.000000
O O10 0.232104 0.369088 0.044596
O O11 0.500000 0.331582 0.000000
O O12 0.000000 0.076070 0.919564
O O13 0.739289 0.000000 0.930355
O O14 0.232594 0.904629 0.500000
O O15 0.500000 0.928095 0.548874
O O16 0.231167 0.000000 0.560172
O O17 0.500000 0.332631 0.734428
O O18 0.250000 0.250000 0.744356
#
# Coordination Sequence:
#
# PCOD9484790 Si02
#       6
#    16  16   8  16  16  16
#     4  10  20  33  50  72  98 128 162 198 235 278
#     4   8  14  26  45  68  91 116 151 193 232 269
#     4  10  19  29  43  67  95 118 148 190 232 274
#     4   8  14  26  45  66  87 116 155 194 227 264
#     4   9  19  36  55  74  98 127 157 192 237 286
#     4   9  18  31  47  68  94 123 153 188 230 275
#
# _framework density 19.256689000000001
#
# number of rings (size 3 to 8) (size 9 to 14) (size 15 to 20)
#    0.000    3.091    0.000    2.455    0.000    4.364 
#    0.000    2.727    0.000    1.636    0.000    2.545 
#    0.000    0.000    0.000    0.000    0.000    0.000 
#
# Total GULP energy -245270.023196 kJ/mol
# GULP energy per Si atom -5574.318709 kJ/mol
# Density = 1.921286 g / cm^3
# Si number density = 19.256689 Si / 1000 Ang^3
#
#
#
# Elastic Constant Matrix: (Units=GPa)
#
#
# Indices 1 2 3 4 5 6 
#
# 1 23.5086 6.3381 11.5153 0.0000 0.0000 0.0000
# 2 6.3381 157.5810 161.2917 0.0000 0.0000 0.0000
# 3 11.5153 161.2917 207.8247 0.0000 0.0000 0.0000
# 4 0.0000 0.0000 0.0000 57.6921 0.0000 0.0000
# 5 0.0000 0.0000 0.0000 0.0000 2.7125 0.0000
# 6 0.0000 0.0000 0.0000 0.0000 0.0000 18.4172
#
#
#
# Elastic Compliance Matrix: (Units=1/GPa)
#
#
# Indices 1 2 3 4 5 6 
#
# 1 0.044127 0.003539 -0.005192 0.000000 0.000000 0.000000
# 2 0.003539 0.031145 -0.024367 0.000000 0.000000 0.000000
# 3 -0.005192 -0.024367 0.024011 0.000000 0.000000 0.000000
# 4 0.000000 0.000000 0.000000 0.017333 0.000000 0.000000
# 5 0.000000 0.000000 0.000000 0.000000 0.368657 0.000000
# 6 0.000000 0.000000 0.000000 0.000000 0.000000 0.054297
#
#
# Mechanical properties :
#
#
# Convention : Reuss Voigt Hill
#
# Bulk Modulus (GPa) = 21.16751 83.02269 52.09510
# Shear Modulus (GPa) = 8.23239 29.74899 18.99069
#
# Velocity S-wave (km/s) = 2.06987 3.93474 3.14377
# Velocity P-wave (km/s) = 4.09007 7.99063 6.34739
#
# Compressibility (1/GPa) = 0.04724222
#
# Stress axis : x y z
#
# Youngs Moduli (GPa) = 22.66210 32.10809 41.64786
#
# Poissons Ratio (x) = -0.11363 0.21622
# Poissons Ratio (y) = -0.08020 1.01485
# Poissons Ratio (z) = 0.11765 0.78239
#
# Static dielectric constant tensor:
#      x y z
#    x 1.711120 0.000000 0.000000 
#    y 0.000000 1.624450 0.000000 
#    z 0.000000 0.000000 1.696380 
# 
# From -- ./inp_files/76519.got.cif
#   From: 2010.05.17/outbox.cif.g08.bks.cpg/sg65_39_cif.got.tgz:76519.got - 2010.06.03 17:01:31.
