data_PCOD9484010
_publ_section_title
;
Structure prediction by ZEFSAII (Michael W. Deem and Ramdas Pophale) SiO2 
 PCOD9484010
Probable space group: C M M M
;
_chemical_formula_sum "Si O2"
_cell_formula_units_Z 104
_cell_length_a 28.300172
_cell_length_b 22.985942
_cell_length_c 8.292674
_cell_angle_alpha 90.000000
_cell_angle_beta 90.000000
_cell_angle_gamma 90.000000
_cell_volume 5394.435123
_symmetry_space_group_name_H-M "C M M M"
_symmetry_group_IT_number 65
_symmetry_cell_setting 'orthorhombic'
loop_
_space_group_symop_operation_xyz
x,y,z
-x,-y,z
x,-y,-z
-x,y,-z
-x,-y,-z
x,y,-z
-x,y,z
x,-y,z
1/2+x,1/2+y,z
1/2-x,1/2-y,z
1/2+x,1/2-y,-z
1/2-x,1/2+y,-z
1/2-x,1/2-y,-z
1/2+x,1/2+y,-z
1/2-x,1/2+y,z
1/2+x,1/2-y,z
loop_
_atom_site_type_symbol
_atom_site_label
_atom_site_fract_x
_atom_site_fract_y
_atom_site_fract_z
Si Si1 0.946554 0.116001 0.824062
Si Si2 0.946445 0.366988 0.195600
Si Si3 0.779127 0.334638 0.308443
Si Si4 0.146780 0.433601 0.694683
Si Si5 0.945073 0.931224 0.500000
Si Si6 0.584975 0.259890 0.809409
Si Si7 0.686781 0.710384 0.810024
O O1 0.922754 0.089881 0.666642
O O2 0.949222 0.185369 0.801107
O O3 0.000000 0.092067 0.831464
O O4 0.924123 0.105611 0.000000
O O5 0.903871 0.408317 0.250643
O O6 0.933687 0.301356 0.254419
O O7 0.000000 0.382263 0.248240
O O8 0.947018 0.366867 0.000000
O O9 0.786341 0.326077 0.500000
O O10 0.811049 0.389376 0.256100
O O11 0.723106 0.333729 0.273938
O O12 0.796017 0.276853 0.215893
O O13 0.147037 0.434277 0.500000
O O14 0.153323 0.500000 0.751680
O O15 0.000000 0.908796 0.500000
O O16 0.946727 0.000000 0.500000
O O17 0.633944 0.284994 0.741617
O O18 0.593921 0.248835 0.000000
O O19 0.686223 0.696770 0.000000
#
# Coordination Sequence:
#
# PCOD9484010 Si02
#       7
#    16  16  16  16   8  16  16
#     4   9  17  31  50  73 105 144 180 219 272 325
#     4  10  20  35  55  79 109 144 184 231 279 326
#     4  10  19  33  51  76 104 131 171 218 265 317
#     4  10  22  39  56  74 104 147 189 229 273 327
#     4   9  18  32  48  72 102 131 177 229 261 310
#     4   9  17  31  51  77 108 140 172 213 272 336
#     4  10  18  30  53  79 106 132 161 211 270 323
#
# _framework density 19.279128
#
# number of rings (size 3 to 8) (size 9 to 14) (size 15 to 20)
#    0.000    2.385    1.538    2.308    0.000    3.692 
#    4.154    3.077    0.000    0.923    0.000    2.154 
#    0.000    0.000    0.000    0.000    0.000    0.000 
#
# Total GULP energy -289498.252574 kJ/mol
# GULP energy per Si atom -5567.274088 kJ/mol
# Density = 1.923525 g / cm^3
# Si number density = 19.279128 Si / 1000 Ang^3
#
#
#
# Elastic Constant Matrix: (Units=GPa)
#
#
# Indices 1 2 3 4 5 6 
#
# 1 117.7983 46.3440 8.7184 0.0000 0.0000 0.0000
# 2 46.3440 92.8331 31.6571 0.0000 0.0000 0.0000
# 3 8.7184 31.6571 54.9363 0.0000 0.0000 0.0000
# 4 0.0000 0.0000 0.0000 21.3776 0.0000 0.0000
# 5 0.0000 0.0000 0.0000 0.0000 -80.3594 0.0000
# 6 0.0000 0.0000 0.0000 0.0000 0.0000 20.3654
#
#
#
# Elastic Compliance Matrix: (Units=1/GPa)
#
#
# Indices 1 2 3 4 5 6 
#
# 1 0.010692 -0.005923 0.001716 0.000000 0.000000 0.000000
# 2 -0.005923 0.016688 -0.008676 0.000000 0.000000 0.000000
# 3 0.001716 -0.008676 0.022930 0.000000 0.000000 0.000000
# 4 0.000000 0.000000 0.000000 0.046778 0.000000 0.000000
# 5 0.000000 0.000000 0.000000 0.000000 -0.012444 0.000000
# 6 0.000000 0.000000 0.000000 0.000000 0.000000 0.049103
#
#
# Mechanical properties :
#
#
# Convention : Reuss Voigt Hill
#
# Bulk Modulus (GPa) = 40.74299 48.77850 44.76075
# Shear Modulus (GPa) = 29.81614 4.19993 17.00804
#
# Velocity S-wave (km/s) = 3.93689 1.47757 2.97341
# Velocity P-wave (km/s) = 6.46873 5.31668 5.92079
#
# Compressibility (1/GPa) = 0.02454410
#
# Stress axis : x y z
#
# Youngs Moduli (GPa) = 93.52519 59.92462 43.61055
#
# Poissons Ratio (x) = 0.35494 -0.07485
# Poissons Ratio (y) = 0.55396 0.37838
# Poissons Ratio (z) = -0.16052 0.51992
#
# Static dielectric constant tensor:
#      x y z
#    x 1.759220 0.000000 0.000000 
#    y 0.000000 1.653800 0.000000 
#    z 0.000000 0.000000 1.717500 
# 
# From -- ./inp_files/18611.got.cif
#   From: 2010.05.17/outbox.cif.g08.bks.cpg/sg65_10_cif.got.tgz:18611.got - 2010.06.03 17:01:31.
