data_PCOD9484604
_publ_section_title
;
Structure prediction by ZEFSAII (Michael W. Deem and Ramdas Pophale) SiO2 
 PCOD9484604
Probable space group: C M M M
;
_chemical_formula_sum "Si O2"
_cell_formula_units_Z 96
_cell_length_a 22.567589
_cell_length_b 8.460300
_cell_length_c 25.037671
_cell_angle_alpha 90.000000
_cell_angle_beta 90.000000
_cell_angle_gamma 90.000000
_cell_volume 4780.406801
_symmetry_space_group_name_H-M "C M M M"
_symmetry_group_IT_number 65
_symmetry_cell_setting 'orthorhombic'
loop_
_space_group_symop_operation_xyz
x,y,z
-x,-y,z
x,-y,-z
-x,y,-z
-x,-y,-z
x,y,-z
-x,y,z
x,-y,z
1/2+x,1/2+y,z
1/2-x,1/2-y,z
1/2+x,1/2-y,-z
1/2-x,1/2+y,-z
1/2-x,1/2-y,-z
1/2+x,1/2+y,-z
1/2-x,1/2+y,z
1/2+x,1/2-y,z
loop_
_atom_site_type_symbol
_atom_site_label
_atom_site_fract_x
_atom_site_fract_y
_atom_site_fract_z
Si Si1 0.500000 0.818790 0.575520
Si Si2 0.185642 0.189202 0.062196
Si Si3 0.684167 0.691704 0.331283
Si Si4 0.108634 0.818328 0.764143
Si Si5 0.931285 0.312575 0.876583
Si Si6 0.500000 0.671679 0.316811
Si Si7 0.627729 0.311000 0.442743
O O1 0.500000 0.805537 0.639665
O O2 0.559031 0.732949 0.557108
O O3 0.500000 0.000000 0.559226
O O4 0.250000 0.250000 0.083657
O O5 0.124331 0.244406 0.089781
O O6 0.187385 0.000000 0.064795
O O7 0.182981 0.239909 0.000000
O O8 0.679102 0.500000 0.329681
O O9 0.750000 0.750000 0.337213
O O10 0.660447 0.747973 0.273480
O O11 0.651574 0.747929 0.385494
O O12 0.086666 0.724809 0.815467
O O13 0.055861 0.823686 0.721371
O O14 0.121720 0.000000 0.781140
O O15 0.932534 0.500000 0.885356
O O16 0.000000 0.254112 0.886221
O O17 0.500000 0.500000 0.345418
O O18 0.653627 0.252926 0.500000
O O19 0.635265 0.500000 0.441998
#
# Coordination Sequence:
#
# PCOD9484604 Si02
#       7
#     8  16  16  16  16   8  16
#     4  12  23  33  54  87 118 141 175 233 294 349
#     4  10  22  42  68  95 126 169 219 266 314 368
#     4  10  22  39  58  82 109 145 191 237 289 347
#     4  10  20  37  61  84 112 151 197 244 291 351
#     4  11  24  39  60  95 135 170 208 257 314 371
#     4  10  18  35  61  82 107 148 192 231 282 350
#     4  10  21  39  60  79 105 145 189 230 282 355
#
# _framework density 20.081970999999999
#
# number of rings (size 3 to 8) (size 9 to 14) (size 15 to 20)
#    0.000    1.667    2.500    2.000    0.000    6.667 
#    0.000    3.333    0.000    0.000    0.000    0.000 
#    0.000    0.000    0.000    0.000    0.000    0.000 
#
# Total GULP energy -267555.058578 kJ/mol
# GULP energy per Si atom -5574.063720 kJ/mol
# Density = 2.003626 g / cm^3
# Si number density = 20.081971 Si / 1000 Ang^3
#
#
#
# Elastic Constant Matrix: (Units=GPa)
#
#
# Indices 1 2 3 4 5 6 
#
# 1 146.7907 14.7917 57.5307 0.0000 0.0000 0.0000
# 2 14.7917 20.0171 18.2146 0.0000 0.0000 0.0000
# 3 57.5307 18.2146 87.7248 0.0000 0.0000 0.0000
# 4 0.0000 0.0000 0.0000 2.8130 0.0000 0.0000
# 5 0.0000 0.0000 0.0000 0.0000 0.2093 0.0000
# 6 0.0000 0.0000 0.0000 0.0000 0.0000 29.4377
#
#
#
# Elastic Compliance Matrix: (Units=1/GPa)
#
#
# Indices 1 2 3 4 5 6 
#
# 1 0.009211 -0.001615 -0.005706 0.000000 0.000000 0.000000
# 2 -0.001615 0.061878 -0.011789 0.000000 0.000000 0.000000
# 3 -0.005706 -0.011789 0.017589 0.000000 0.000000 0.000000
# 4 0.000000 0.000000 0.000000 0.355498 0.000000 0.000000
# 5 0.000000 0.000000 0.000000 0.000000 4.777248 0.000000
# 6 0.000000 0.000000 0.000000 0.000000 0.000000 0.033970
#
#
# Mechanical properties :
#
#
# Convention : Reuss Voigt Hill
#
# Bulk Modulus (GPa) = 19.81791 48.40075 34.10933
# Shear Modulus (GPa) = 0.94154 17.42503 9.18329
#
# Velocity S-wave (km/s) = 0.68547 2.94886 2.14075
# Velocity P-wave (km/s) = 3.24290 5.97899 4.80961
#
# Compressibility (1/GPa) = 0.05045940
#
# Stress axis : x y z
#
# Youngs Moduli (GPa) = 108.56257 16.16082 56.85443
#
# Poissons Ratio (x) = 0.02610 0.32438
# Poissons Ratio (y) = 0.17533 0.67025
# Poissons Ratio (z) = 0.61941 0.19052
#
# Static dielectric constant tensor:
#      x y z
#    x 1.754270 0.000000 0.000000 
#    y 0.000000 1.709090 0.000000 
#    z 0.000000 0.000000 1.734690 
# 
# From -- ./inp_files/71440.got.cif
#   From: 2010.05.17/outbox.cif.g08.bks.cpg/sg65_36_cif.got.tgz:71440.got - 2010.06.03 17:01:31.
