data_PCOD9484739
_publ_section_title
;
Structure prediction by ZEFSAII (Michael W. Deem and Ramdas Pophale) SiO2 
 PCOD9484739
Probable space group: C M M M
;
_chemical_formula_sum "Si O2"
_cell_formula_units_Z 104
_cell_length_a 18.437047
_cell_length_b 28.866173
_cell_length_c 12.520128
_cell_angle_alpha 90.000000
_cell_angle_beta 90.000000
_cell_angle_gamma 90.000000
_cell_volume 6663.299616
_symmetry_space_group_name_H-M "C M M M"
_symmetry_group_IT_number 65
_symmetry_cell_setting 'orthorhombic'
loop_
_space_group_symop_operation_xyz
x,y,z
-x,-y,z
x,-y,-z
-x,y,-z
-x,-y,-z
x,y,-z
-x,y,z
x,-y,z
1/2+x,1/2+y,z
1/2-x,1/2-y,z
1/2+x,1/2-y,-z
1/2-x,1/2+y,-z
1/2-x,1/2-y,-z
1/2+x,1/2+y,-z
1/2-x,1/2+y,z
1/2+x,1/2-y,z
loop_
_atom_site_type_symbol
_atom_site_label
_atom_site_fract_x
_atom_site_fract_y
_atom_site_fract_z
Si Si1 0.417510 0.299982 0.778744
Si Si2 0.783625 0.800130 0.626606
Si Si3 0.146786 0.366201 0.374099
Si Si4 0.820534 0.308211 0.000000
Si Si5 0.587480 0.053806 0.000000
Si Si6 0.921029 0.689146 0.192838
Si Si7 0.913290 0.444417 0.762112
Si Si8 0.655013 0.303765 0.000000
O O1 0.500000 0.315371 0.756565
O O2 0.356690 0.310529 0.690851
O O3 0.419060 0.244094 0.788613
O O4 0.388766 0.316625 0.893919
O O5 0.798024 0.795888 0.500000
O O6 0.750000 0.750000 0.662150
O O7 0.723941 0.840362 0.642370
O O8 0.132128 0.366408 0.500000
O O9 0.091814 0.335072 0.305361
O O10 0.134669 0.416596 0.322759
O O11 0.860388 0.323819 0.107242
O O12 0.736956 0.321991 0.000000
O O13 0.832370 0.252199 0.000000
O O14 0.607742 0.071716 0.882611
O O15 0.500000 0.054234 0.000000
O O16 0.610370 0.000000 0.000000
O O17 0.000000 0.676876 0.148317
O O18 0.904544 0.500000 0.755461
O O19 0.000000 0.435320 0.746663
#
# Coordination Sequence:
#
# PCOD9484739 Si02
#       8
#    16  16  16   8   8  16  16   8
#     4  10  19  31  48  67  89 117 155 199 244 290
#     4  10  20  35  50  64  89 126 167 206 245 289
#     4  11  22  33  46  65  92 128 167 204 245 294
#     4   9  17  28  43  61  84 120 156 194 238 285
#     4   7  12  27  50  71  91 119 155 195 239 283
#     4  10  19  29  42  63  90 118 157 203 239 280
#     4   9  18  33  52  73  98 128 162 202 247 293
#     4   9  17  27  45  64  86 117 151 193 242 297
#
# _framework density 15.607882999999999
#
# number of rings (size 3 to 8) (size 9 to 14) (size 15 to 20)
#    0.000    2.385    1.538    2.769    2.154    4.308 
#    0.000    4.615    0.000    0.000    0.000    0.000 
#    0.000    0.615    0.000    3.385    0.000   10.462 
#
# Total GULP energy -289769.460992 kJ/mol
# GULP energy per Si atom -5572.489634 kJ/mol
# Density = 1.557236 g / cm^3
# Si number density = 15.607883 Si / 1000 Ang^3
#
#
#
# Elastic Constant Matrix: (Units=GPa)
#
#
# Indices 1 2 3 4 5 6 
#
# 1 98.3899 28.9279 58.4205 0.0000 0.0000 0.0000
# 2 28.9279 50.5532 31.3705 0.0000 0.0000 0.0000
# 3 58.4205 31.3705 106.0364 0.0000 0.0000 0.0000
# 4 0.0000 0.0000 0.0000 6.1651 0.0000 0.0000
# 5 0.0000 0.0000 0.0000 0.0000 -21.2826 0.0000
# 6 0.0000 0.0000 0.0000 0.0000 0.0000 15.8986
#
#
#
# Elastic Compliance Matrix: (Units=1/GPa)
#
#
# Indices 1 2 3 4 5 6 
#
# 1 0.015894 -0.004484 -0.007430 0.000000 0.000000 0.000000
# 2 -0.004484 0.025494 -0.005072 0.000000 0.000000 0.000000
# 3 -0.007430 -0.005072 0.015025 0.000000 0.000000 0.000000
# 4 0.000000 0.000000 0.000000 0.162204 0.000000 0.000000
# 5 0.000000 0.000000 0.000000 0.000000 -0.046987 0.000000
# 6 0.000000 0.000000 0.000000 0.000000 0.000000 0.062899
#
#
# Mechanical properties :
#
#
# Convention : Reuss Voigt Hill
#
# Bulk Modulus (GPa) = 44.56166 54.71301 49.63734
# Shear Modulus (GPa) = 18.11722 9.24028 13.67875
#
# Velocity S-wave (km/s) = 3.41071 2.43580 2.96362
# Velocity P-wave (km/s) = 6.64254 6.56061 6.60170
#
# Compressibility (1/GPa) = 0.02244081
#
# Stress axis : x y z
#
# Youngs Moduli (GPa) = 62.91800 39.22429 66.55686
#
# Poissons Ratio (x) = 0.17589 0.49452
# Poissons Ratio (y) = 0.28213 0.33757
# Poissons Ratio (z) = 0.46748 0.19894
#
# Static dielectric constant tensor:
#      x y z
#    x 1.522080 0.000000 0.000000 
#    y 0.000000 1.542140 0.000000 
#    z 0.000000 0.000000 1.543150 
# 
# From -- ./inp_files/27743.got.cif
#   From: 2010.05.17/outbox.cif.g08.bks.cpg/sg65_14_cif.got.tgz:27743.got - 2010.06.03 17:01:31.
