data_PCOD9484710
_publ_section_title
;
Structure prediction by ZEFSAII (Michael W. Deem and Ramdas Pophale) SiO2 
 PCOD9484710
Probable space group: C M M M
;
_chemical_formula_sum "Si O2"
_cell_formula_units_Z 88
_cell_length_a 24.384227
_cell_length_b 31.066023
_cell_length_c 8.723302
_cell_angle_alpha 90.000000
_cell_angle_beta 90.000000
_cell_angle_gamma 90.000000
_cell_volume 6608.084078
_symmetry_space_group_name_H-M "C M M M"
_symmetry_group_IT_number 65
_symmetry_cell_setting 'orthorhombic'
loop_
_space_group_symop_operation_xyz
x,y,z
-x,-y,z
x,-y,-z
-x,y,-z
-x,-y,-z
x,y,-z
-x,y,z
x,-y,z
1/2+x,1/2+y,z
1/2-x,1/2-y,z
1/2+x,1/2-y,-z
1/2-x,1/2+y,-z
1/2-x,1/2-y,-z
1/2+x,1/2+y,-z
1/2-x,1/2+y,z
1/2+x,1/2-y,z
loop_
_atom_site_type_symbol
_atom_site_label
_atom_site_fract_x
_atom_site_fract_y
_atom_site_fract_z
Si Si1 0.500000 0.759091 0.684292
Si Si2 0.435087 0.000000 0.184111
Si Si3 0.281923 0.295698 0.675815
Si Si4 0.000000 0.642252 0.685555
Si Si5 0.883038 0.750138 0.183478
Si Si6 0.893442 0.411006 0.315590
Si Si7 0.821096 0.661520 0.183428
O O1 0.500000 0.757461 0.500000
O O2 0.500000 0.808916 0.738210
O O3 0.442759 0.741128 0.746965
O O4 0.404202 0.957952 0.247267
O O5 0.500000 0.000000 0.232885
O O6 0.434441 0.000000 0.000000
O O7 0.290656 0.308954 0.500000
O O8 0.250000 0.250000 0.674378
O O9 0.338738 0.284864 0.758957
O O10 0.240173 0.327334 0.761322
O O11 0.053612 0.616822 0.734392
O O12 0.000000 0.643080 0.500000
O O13 0.859748 0.702521 0.231699
O O14 0.885463 0.750197 0.000000
O O15 0.891912 0.413503 0.500000
O O16 0.842999 0.382631 0.255534
O O17 0.823131 0.659301 0.000000
#
# Coordination Sequence:
#
# PCOD9484710 Si02
#       7
#     8   8  16   8  16  16  16
#     4  11  19  29  42  60  83 110 141 173 209 252
#     4  11  23  35  45  61  83 107 135 174 221 264
#     4   9  17  29  44  60  78 104 135 168 204 246
#     4   9  18  28  42  59  78 102 135 175 212 250
#     4  10  19  29  41  60  84 108 134 169 211 250
#     4  11  20  33  48  62  78 105 140 175 214 260
#     4  10  19  30  44  62  82 104 132 172 214 252
#
# _framework density 13.317022
#
# number of rings (size 3 to 8) (size 9 to 14) (size 15 to 20)
#    0.000    1.909    2.727    2.727    0.000    4.000 
#    0.000    0.000    0.000    0.000    0.000    0.000 
#    0.000    0.000    0.000    0.000    0.000    0.909 
#
# Total GULP energy -245346.058717 kJ/mol
# GULP energy per Si atom -5576.046789 kJ/mol
# Density = 1.328671 g / cm^3
# Si number density = 13.317022 Si / 1000 Ang^3
#
#
#
# Elastic Constant Matrix: (Units=GPa)
#
#
# Indices 1 2 3 4 5 6 
#
# 1 111.5201 48.9895 40.4774 0.0000 0.0000 0.0000
# 2 48.9895 65.6919 27.5709 0.0000 0.0000 0.0000
# 3 40.4774 27.5709 61.6238 0.0000 0.0000 0.0000
# 4 0.0000 0.0000 0.0000 18.0803 0.0000 0.0000
# 5 0.0000 0.0000 0.0000 0.0000 22.9709 0.0000
# 6 0.0000 0.0000 0.0000 0.0000 0.0000 16.4862
#
#
#
# Elastic Compliance Matrix: (Units=1/GPa)
#
#
# Indices 1 2 3 4 5 6 
#
# 1 0.014912 -0.008630 -0.005934 0.000000 0.000000 0.000000
# 2 -0.008630 0.023736 -0.004951 0.000000 0.000000 0.000000
# 3 -0.005934 -0.004951 0.022340 0.000000 0.000000 0.000000
# 4 0.000000 0.000000 0.000000 0.055309 0.000000 0.000000
# 5 0.000000 0.000000 0.000000 0.000000 0.043533 0.000000
# 6 0.000000 0.000000 0.000000 0.000000 0.000000 0.060657
#
#
# Mechanical properties :
#
#
# Convention : Reuss Voigt Hill
#
# Bulk Modulus (GPa) = 45.54016 52.54570 49.04293
# Shear Modulus (GPa) = 18.73807 19.62734 19.18271
#
# Velocity S-wave (km/s) = 3.75517 3.84325 3.79946
# Velocity P-wave (km/s) = 7.28512 7.69657 7.49367
#
# Compressibility (1/GPa) = 0.02195864
#
# Stress axis : x y z
#
# Youngs Moduli (GPa) = 67.06125 42.12933 44.76238
#
# Poissons Ratio (x) = 0.36358 0.26560
# Poissons Ratio (y) = 0.57874 0.22163
# Poissons Ratio (z) = 0.39792 0.20859
#
# Static dielectric constant tensor:
#      x y z
#    x 1.438850 0.000000 0.000000 
#    y 0.000000 1.418030 0.000000 
#    z 0.000000 0.000000 1.445180 
# 
# From -- ./inp_files/12676.got.cif
#   From: 2010.05.17/outbox.cif.g08.bks.cpg/sg65_7_cif.got.tgz:12676.got - 2010.06.03 17:01:31.
