data_PCOD9484243
_publ_section_title
;
Structure prediction by ZEFSAII (Michael W. Deem and Ramdas Pophale) SiO2 
 PCOD9484243
Probable space group: C M M M
;
_chemical_formula_sum "Si O2"
_cell_formula_units_Z 88
_cell_length_a 18.483806
_cell_length_b 31.647208
_cell_length_c 7.883778
_cell_angle_alpha 90.000000
_cell_angle_beta 90.000000
_cell_angle_gamma 90.000000
_cell_volume 4611.701505
_symmetry_space_group_name_H-M "C M M M"
_symmetry_group_IT_number 65
_symmetry_cell_setting 'orthorhombic'
loop_
_space_group_symop_operation_xyz
x,y,z
-x,-y,z
x,-y,-z
-x,y,-z
-x,-y,-z
x,y,-z
-x,y,z
x,-y,z
1/2+x,1/2+y,z
1/2-x,1/2-y,z
1/2+x,1/2-y,-z
1/2-x,1/2+y,-z
1/2-x,1/2-y,-z
1/2+x,1/2+y,-z
1/2-x,1/2+y,z
1/2+x,1/2-y,z
loop_
_atom_site_type_symbol
_atom_site_label
_atom_site_fract_x
_atom_site_fract_y
_atom_site_fract_z
Si Si1 0.086297 0.086482 0.000000
Si Si2 0.673137 0.082466 0.793731
Si Si3 0.917374 0.500000 0.206829
Si Si4 0.083966 0.664786 0.794659
Si Si5 0.173799 0.950230 0.691932
Si Si6 0.411892 0.258677 0.688004
Si Si7 0.411686 0.315872 0.000000
O O1 0.117675 0.064175 0.833665
O O2 0.110544 0.135508 0.000000
O O3 0.000000 0.085067 0.000000
O O4 0.624582 0.042262 0.741853
O O5 0.633832 0.125722 0.743078
O O6 0.752437 0.075533 0.720036
O O7 0.678579 0.082008 0.000000
O O8 0.000000 0.500000 0.265511
O O9 0.918559 0.500000 0.000000
O O10 0.108201 0.710189 0.725451
O O11 0.000000 0.657591 0.744115
O O12 0.084708 0.667311 0.000000
O O13 0.147120 0.944200 0.500000
O O14 0.190506 0.000000 0.715570
O O15 0.388595 0.271298 0.500000
O O16 0.500000 0.259144 0.692479
O O17 0.387036 0.290291 0.834296
O O18 0.500000 0.315343 0.000000
#
# Coordination Sequence:
#
# PCOD9484243 Si02
#       7
#     8  16   8  16  16  16   8
#     4  11  25  44  70  96 117 141 177 234 306 370
#     4  10  18  31  55  81 116 164 207 246 287 335
#     4   9  16  26  47  83 119 157 209 258 293 322
#     4   9  16  27  47  81 121 160 209 257 287 319
#     4  11  24  42  65  90 120 157 196 233 283 355
#     4   9  16  28  50  79 114 156 194 232 285 343
#     4   9  18  35  57  85 115 140 174 230 293 359
#
# _framework density 19.081893000000001
#
# number of rings (size 3 to 8) (size 9 to 14) (size 15 to 20)
#    0.000    2.273    2.727    0.818    0.000    4.727 
#    0.000    2.727    0.000    4.364    0.000    2.545 
#    0.000    0.000    0.000    0.000    0.000    0.000 
#
# Total GULP energy -245652.286801 kJ/mol
# GULP energy per Si atom -5583.006518 kJ/mol
# Density = 1.903846 g / cm^3
# Si number density = 19.081893 Si / 1000 Ang^3
#
#
#
# Elastic Constant Matrix: (Units=GPa)
#
#
# Indices 1 2 3 4 5 6 
#
# 1 57.1458 19.5205 31.9518 0.0000 0.0000 0.0000
# 2 19.5205 75.0780 55.1786 0.0000 0.0000 0.0000
# 3 31.9518 55.1786 106.3411 0.0000 0.0000 0.0000
# 4 0.0000 0.0000 0.0000 -1.6260 0.0000 0.0000
# 5 0.0000 0.0000 0.0000 0.0000 -0.5036 0.0000
# 6 0.0000 0.0000 0.0000 0.0000 0.0000 -36.2529
#
#
#
# Elastic Compliance Matrix: (Units=1/GPa)
#
#
# Indices 1 2 3 4 5 6 
#
# 1 0.021115 -0.001337 -0.005651 0.000000 0.000000 0.000000
# 2 -0.001337 0.021615 -0.010814 0.000000 0.000000 0.000000
# 3 -0.005651 -0.010814 0.016713 0.000000 0.000000 0.000000
# 4 0.000000 0.000000 0.000000 -0.615011 0.000000 0.000000
# 5 0.000000 0.000000 0.000000 0.000000 -1.985570 0.000000
# 6 0.000000 0.000000 0.000000 0.000000 0.000000 -0.027584
#
#
# Mechanical properties :
#
#
# Convention : Reuss Voigt Hill
#
# Bulk Modulus (GPa) = 41.94701 50.20742 46.07722
# Shear Modulus (GPa) = -1.98006 1.11777 -0.43115
#
# Velocity S-wave (km/s) = -1.01976 0.76619 -0.47585
# Velocity P-wave (km/s) = 4.54354 5.21070 4.88852
#
# Compressibility (1/GPa) = 0.02383960
#
# Stress axis : x y z
#
# Youngs Moduli (GPa) = 47.35913 46.26486 59.83521
#
# Poissons Ratio (x) = 0.06186 0.33810
# Poissons Ratio (y) = 0.06333 0.64704
# Poissons Ratio (z) = 0.26761 0.50030
#
# Static dielectric constant tensor:
#      x y z
#    x 1.631520 0.000000 0.000000 
#    y 0.000000 1.637500 0.000000 
#    z 0.000000 0.000000 1.687800 
# 
# From -- ./inp_files/10209.got.cif
#   From: 2010.05.17/outbox.cif.g08.bks.cpg/sg65_6_cif.got.tgz:10209.got - 2010.06.03 17:01:31.
