data_PCOD9484241
_publ_section_title
;
Structure prediction by ZEFSAII (Michael W. Deem and Ramdas Pophale) SiO2 
 PCOD9484241
Probable space group: C M M M
;
_chemical_formula_sum "Si O2"
_cell_formula_units_Z 104
_cell_length_a 26.403391
_cell_length_b 18.965177
_cell_length_c 12.018592
_cell_angle_alpha 90.000000
_cell_angle_beta 90.000000
_cell_angle_gamma 90.000000
_cell_volume 6018.249655
_symmetry_space_group_name_H-M "C M M M"
_symmetry_group_IT_number 65
_symmetry_cell_setting 'orthorhombic'
loop_
_space_group_symop_operation_xyz
x,y,z
-x,-y,z
x,-y,-z
-x,y,-z
-x,-y,-z
x,y,-z
-x,y,z
x,-y,z
1/2+x,1/2+y,z
1/2-x,1/2-y,z
1/2+x,1/2-y,-z
1/2-x,1/2+y,-z
1/2-x,1/2-y,-z
1/2+x,1/2+y,-z
1/2-x,1/2+y,z
1/2+x,1/2-y,z
loop_
_atom_site_type_symbol
_atom_site_label
_atom_site_fract_x
_atom_site_fract_y
_atom_site_fract_z
Si Si1 0.402701 0.347815 0.128419
Si Si2 0.216409 0.415521 0.232446
Si Si3 0.056122 0.714199 0.232777
Si Si4 0.344607 0.811576 0.631317
Si Si5 0.556584 0.130458 0.000000
Si Si6 0.294719 0.700971 0.796443
Si Si7 0.332556 0.080479 0.000000
Si Si8 0.558966 0.500000 0.865429
O O1 0.435036 0.296123 0.205388
O O2 0.345033 0.319104 0.135606
O O3 0.411553 0.428361 0.165173
O O4 0.419586 0.342053 0.000000
O O5 0.220861 0.500000 0.236024
O O6 0.182466 0.383647 0.330672
O O7 0.268768 0.372804 0.235781
O O8 0.189473 0.391327 0.115998
O O9 0.099697 0.689259 0.315168
O O10 0.000000 0.700823 0.276136
O O11 0.060576 0.676540 0.112255
O O12 0.345025 0.802755 0.500000
O O13 0.314060 0.748243 0.692700
O O14 0.606868 0.083894 0.000000
O O15 0.500000 0.097704 0.000000
O O16 0.250000 0.750000 0.848731
O O17 0.315541 0.000000 0.000000
O O18 0.500000 0.500000 0.827652
O O19 0.557453 0.500000 0.000000
#
# Coordination Sequence:
#
# PCOD9484241 Si02
#       8
#    16  16  16  16   8  16   8   8
#     4  10  19  30  47  75 110 143 176 214 258 325
#     4  10  21  36  55  80 109 145 177 214 265 325
#     4  10  19  32  54  82 106 137 177 219 269 322
#     4  10  21  39  57  76 104 137 183 234 271 312
#     4  10  18  31  55  80 108 138 176 218 261 318
#     4   9  21  35  50  78 103 140 176 223 269 314
#     4  10  20  35  52  78 114 144 172 212 260 325
#     4   9  18  30  44  68 105 147 179 211 260 314
#
# _framework density 17.280771999999999
#
# number of rings (size 3 to 8) (size 9 to 14) (size 15 to 20)
#    0.000    2.231    2.308    0.462    2.154    4.462 
#    0.000    0.000    0.000    0.462    0.000    1.077 
#    0.000    5.846    0.000    0.000    0.000    0.000 
#
# Total GULP energy -289637.615683 kJ/mol
# GULP energy per Si atom -5569.954148 kJ/mol
# Density = 1.724144 g / cm^3
# Si number density = 17.280772 Si / 1000 Ang^3
#
#
#
# Elastic Constant Matrix: (Units=GPa)
#
#
# Indices 1 2 3 4 5 6 
#
# 1 88.3905 22.1938 17.6211 0.0000 0.0000 0.0000
# 2 22.1938 83.0300 14.3632 0.0000 0.0000 0.0000
# 3 17.6211 14.3632 64.6254 0.0000 0.0000 0.0000
# 4 0.0000 0.0000 0.0000 15.0990 0.0000 0.0000
# 5 0.0000 0.0000 0.0000 0.0000 5.5377 0.0000
# 6 0.0000 0.0000 0.0000 0.0000 0.0000 19.9334
#
#
#
# Elastic Compliance Matrix: (Units=1/GPa)
#
#
# Indices 1 2 3 4 5 6 
#
# 1 0.012594 -0.002883 -0.002793 0.000000 0.000000 0.000000
# 2 -0.002883 0.013185 -0.002144 0.000000 0.000000 0.000000
# 3 -0.002793 -0.002144 0.016712 0.000000 0.000000 0.000000
# 4 0.000000 0.000000 0.000000 0.066230 0.000000 0.000000
# 5 0.000000 0.000000 0.000000 0.000000 0.180581 0.000000
# 6 0.000000 0.000000 0.000000 0.000000 0.000000 0.050167
#
#
# Mechanical properties :
#
#
# Convention : Reuss Voigt Hill
#
# Bulk Modulus (GPa) = 37.24376 38.26687 37.75532
# Shear Modulus (GPa) = 13.73395 20.23853 16.98624
#
# Velocity S-wave (km/s) = 2.82220 3.42593 3.13861
# Velocity P-wave (km/s) = 5.67615 6.15155 5.91863
#
# Compressibility (1/GPa) = 0.02685013
#
# Stress axis : x y z
#
# Youngs Moduli (GPa) = 79.40156 75.84112 59.83727
#
# Poissons Ratio (x) = 0.21867 0.16714
# Poissons Ratio (y) = 0.22893 0.12831
# Poissons Ratio (z) = 0.22178 0.16263
#
# Static dielectric constant tensor:
#      x y z
#    x 1.612610 0.000000 0.000000 
#    y 0.000000 1.605500 0.000000 
#    z 0.000000 0.000000 1.565050 
# 
# From -- ./inp_files/32582.got.cif
#   From: 2010.05.17/outbox.cif.g08.bks.cpg/sg65_17_cif.got.tgz:32582.got - 2010.06.03 17:01:31.
