data_PCOD9484869
_publ_section_title
;
Structure prediction by ZEFSAII (Michael W. Deem and Ramdas Pophale) SiO2 
 PCOD9484869
Probable space group: C M M M
;
_chemical_formula_sum "Si O2"
_cell_formula_units_Z 120
_cell_length_a 14.223630
_cell_length_b 21.462706
_cell_length_c 25.567474
_cell_angle_alpha 90.000000
_cell_angle_beta 90.000000
_cell_angle_gamma 90.000000
_cell_volume 7805.176818
_symmetry_space_group_name_H-M "C M M M"
_symmetry_group_IT_number 65
_symmetry_cell_setting 'orthorhombic'
loop_
_space_group_symop_operation_xyz
x,y,z
-x,-y,z
x,-y,-z
-x,y,-z
-x,-y,-z
x,y,-z
-x,y,z
x,-y,z
1/2+x,1/2+y,z
1/2-x,1/2-y,z
1/2+x,1/2-y,-z
1/2-x,1/2+y,-z
1/2-x,1/2-y,-z
1/2+x,1/2+y,-z
1/2-x,1/2+y,z
1/2+x,1/2-y,z
loop_
_atom_site_type_symbol
_atom_site_label
_atom_site_fract_x
_atom_site_fract_y
_atom_site_fract_z
Si Si1 0.107221 0.739311 0.600917
Si Si2 0.709661 0.147340 0.737868
Si Si3 0.390628 0.276733 0.721205
Si Si4 0.608231 0.628125 0.440931
Si Si5 0.887874 0.500000 0.439557
Si Si6 0.709574 0.886394 0.617795
Si Si7 0.389481 0.075247 0.828766
Si Si8 0.613823 0.926474 0.943733
O O1 0.120204 0.770445 0.658222
O O2 0.115953 0.796502 0.561522
O O3 0.176622 0.681417 0.596493
O O4 0.000000 0.715143 0.598816
O O5 0.644795 0.209340 0.740625
O O6 0.816922 0.171932 0.740927
O O7 0.697829 0.117446 0.680243
O O8 0.674939 0.102553 0.783404
O O9 0.500000 0.287896 0.733034
O O10 0.628248 0.606990 0.500000
O O11 0.500000 0.613168 0.427847
O O12 0.683698 0.602619 0.400358
O O13 0.854768 0.500000 0.500000
O O14 0.851665 0.439469 0.409043
O O15 0.000000 0.500000 0.440008
O O16 0.500000 0.092039 0.820795
O O17 0.357812 0.098079 0.886719
O O18 0.385800 0.000000 0.828803
O O19 0.500000 0.923379 0.943446
O O20 0.637769 0.000000 0.944274
O O21 0.645968 0.899771 0.000000
#
# Coordination Sequence:
#
# PCOD9484869 Si02
#       8
#    16  16  16  16   8  16  16  16
#     4   9  17  31  50  72  92 109 137 179 228 274
#     4  10  19  29  47  72  92 118 151 181 224 274
#     4   9  17  31  48  66  91 118 147 186 226 267
#     4  10  20  33  52  75  91 106 137 185 236 278
#     4  11  26  42  51  63  85 117 153 179 206 263
#     4  11  21  35  51  67  89 121 147 177 219 268
#     4   9  17  27  41  67 102 130 153 188 224 261
#     4   7  10  19  36  58  88 127 161 185 218 259
#
# _framework density 15.374411
#
# number of rings (size 3 to 8) (size 9 to 14) (size 15 to 20)
#    0.000    2.600    1.333    2.800    0.933    3.200 
#    0.000    1.667    0.000    1.600    0.000    1.867 
#    0.000    1.600    0.000    3.333    0.000    0.267 
#
# Total GULP energy -334160.049208 kJ/mol
# GULP energy per Si atom -5569.334153 kJ/mol
# Density = 1.533942 g / cm^3
# Si number density = 15.374411 Si / 1000 Ang^3
#
#
#
# Elastic Constant Matrix: (Units=GPa)
#
#
# Indices 1 2 3 4 5 6 
#
# 1 87.3833 24.5707 42.9853 0.0000 0.0000 0.0000
# 2 24.5707 27.5347 30.7123 0.0000 0.0000 0.0000
# 3 42.9853 30.7123 99.5351 0.0000 0.0000 0.0000
# 4 0.0000 0.0000 0.0000 11.4069 0.0000 0.0000
# 5 0.0000 0.0000 0.0000 0.0000 15.8434 0.0000
# 6 0.0000 0.0000 0.0000 0.0000 0.0000 22.8957
#
#
#
# Elastic Compliance Matrix: (Units=1/GPa)
#
#
# Indices 1 2 3 4 5 6 
#
# 1 0.016197 -0.010142 -0.003866 0.000000 0.000000 0.000000
# 2 -0.010142 0.061727 -0.014666 0.000000 0.000000 0.000000
# 3 -0.003866 -0.014666 0.016241 0.000000 0.000000 0.000000
# 4 0.000000 0.000000 0.000000 0.087666 0.000000 0.000000
# 5 0.000000 0.000000 0.000000 0.000000 0.063118 0.000000
# 6 0.000000 0.000000 0.000000 0.000000 0.000000 0.043676
#
#
# Mechanical properties :
#
#
# Convention : Reuss Voigt Hill
#
# Bulk Modulus (GPa) = 27.16075 45.66552 36.41313
# Shear Modulus (GPa) = 13.95688 17.77484 15.86586
#
# Velocity S-wave (km/s) = 3.01624 3.40388 3.21591
# Velocity P-wave (km/s) = 5.46213 6.72423 6.12577
#
# Compressibility (1/GPa) = 0.03681784
#
# Stress axis : x y z
#
# Youngs Moduli (GPa) = 61.73943 16.20039 61.57069
#
# Poissons Ratio (x) = 0.16430 0.23800
# Poissons Ratio (y) = 0.62616 0.90302
# Poissons Ratio (z) = 0.23866 0.23760
#
# Static dielectric constant tensor:
#      x y z
#    x 1.526520 0.000000 0.000000 
#    y 0.000000 1.514190 0.000000 
#    z 0.000000 0.000000 1.534790 
# 
# From -- ./inp_files/70247.got.cif
#   From: 2010.05.17/outbox.cif.g08.bks.cpg/sg65_36_cif.got.tgz:70247.got - 2010.06.03 17:01:31.
