data_PCOD9484331
_publ_section_title
;
Structure prediction by ZEFSAII (Michael W. Deem and Ramdas Pophale) SiO2 
 PCOD9484331
Probable space group: C M M M
;
_chemical_formula_sum "Si O2"
_cell_formula_units_Z 80
_cell_length_a 8.443953
_cell_length_b 19.090133
_cell_length_c 27.360642
_cell_angle_alpha 90.000000
_cell_angle_beta 90.000000
_cell_angle_gamma 90.000000
_cell_volume 4410.431132
_symmetry_space_group_name_H-M "C M M M"
_symmetry_group_IT_number 65
_symmetry_cell_setting 'orthorhombic'
loop_
_space_group_symop_operation_xyz
x,y,z
-x,-y,z
x,-y,-z
-x,y,-z
-x,-y,-z
x,y,-z
-x,y,z
x,-y,z
1/2+x,1/2+y,z
1/2-x,1/2-y,z
1/2+x,1/2-y,-z
1/2-x,1/2+y,-z
1/2-x,1/2-y,-z
1/2+x,1/2+y,-z
1/2-x,1/2+y,z
1/2+x,1/2-y,z
loop_
_atom_site_type_symbol
_atom_site_label
_atom_site_fract_x
_atom_site_fract_y
_atom_site_fract_z
Si Si1 0.808346 0.670876 0.000000
Si Si2 0.312031 0.670400 0.602611
Si Si3 0.684159 0.085230 0.800132
Si Si4 0.306070 0.081320 0.093303
Si Si5 0.688094 0.830212 0.500000
Si Si6 0.307916 0.918275 0.693598
O O1 0.750000 0.750000 0.000000
O O2 0.755245 0.629482 0.048542
O O3 0.000000 0.670185 0.000000
O O4 0.500000 0.672364 0.600360
O O5 0.250000 0.750000 0.606946
O O6 0.248726 0.639386 0.551223
O O7 0.255266 0.626723 0.649044
O O8 0.500000 0.107319 0.800180
O O9 0.752106 0.105483 0.852965
O O10 0.751293 0.106339 0.747378
O O11 0.684626 0.000000 0.800051
O O12 0.500000 0.082007 0.094835
O O13 0.260904 0.000000 0.085596
O O14 0.500000 0.829687 0.500000
O O15 0.750000 0.750000 0.500000
O O16 0.500000 0.915002 0.694217
O O17 0.264354 0.000000 0.687665
#
# Coordination Sequence:
#
# PCOD9484331 Si02
#       6
#     8  16  16  16   8  16
#     4  10  19  29  43  65  95 126 152 188 238 288
#     4  11  21  34  52  74 100 129 164 203 242 285
#     4   7  11  22  43  69  93 117 150 194 238 278
#     4   8  13  24  45  70  89 112 156 204 234 265
#     4  10  18  32  53  74  97 126 163 203 243 287
#     4   9  17  31  51  74 100 129 159 194 242 296
#
# _framework density 18.138817
#
# number of rings (size 3 to 8) (size 9 to 14) (size 15 to 20)
#    0.000    3.000    0.000    6.600    0.000    1.600 
#    0.000    1.500    0.000    7.800    0.000    2.800 
#    0.000    0.000    0.000    0.000    0.000    0.000 
#
# Total GULP energy -222745.164549 kJ/mol
# GULP energy per Si atom -5568.629114 kJ/mol
# Density = 1.809753 g / cm^3
# Si number density = 18.138817 Si / 1000 Ang^3
#
#
#
# Elastic Constant Matrix: (Units=GPa)
#
#
# Indices 1 2 3 4 5 6 
#
# 1 43.0758 19.5947 40.2752 0.0000 0.0000 0.0000
# 2 19.5947 58.0213 81.7923 0.0000 0.0000 0.0000
# 3 40.2752 81.7923 245.3754 0.0000 0.0000 0.0000
# 4 0.0000 0.0000 0.0000 59.6763 0.0000 0.0000
# 5 0.0000 0.0000 0.0000 0.0000 10.5071 0.0000
# 6 0.0000 0.0000 0.0000 0.0000 0.0000 18.8658
#
#
#
# Elastic Compliance Matrix: (Units=1/GPa)
#
#
# Indices 1 2 3 4 5 6 
#
# 1 0.028387 -0.005694 -0.002761 0.000000 0.000000 0.000000
# 2 -0.005694 0.033655 -0.010284 0.000000 0.000000 0.000000
# 3 -0.002761 -0.010284 0.007957 0.000000 0.000000 0.000000
# 4 0.000000 0.000000 0.000000 0.016757 0.000000 0.000000
# 5 0.000000 0.000000 0.000000 0.000000 0.095174 0.000000
# 6 0.000000 0.000000 0.000000 0.000000 0.000000 0.053006
#
#
# Mechanical properties :
#
#
# Convention : Reuss Voigt Hill
#
# Bulk Modulus (GPa) = 30.75029 69.97743 50.36386
# Shear Modulus (GPa) = 17.65201 31.46385 24.55793
#
# Velocity S-wave (km/s) = 3.12294 4.16939 3.68351
# Velocity P-wave (km/s) = 5.47661 7.86390 6.77622
#
# Compressibility (1/GPa) = 0.03252002
#
# Stress axis : x y z
#
# Youngs Moduli (GPa) = 35.22764 29.71319 125.68224
#
# Poissons Ratio (x) = 0.16919 0.34704
# Poissons Ratio (y) = 0.20059 1.29249
# Poissons Ratio (z) = 0.09727 0.30556
#
# Static dielectric constant tensor:
#      x y z
#    x 1.743780 0.000000 0.000000 
#    y 0.000000 1.589030 0.000000 
#    z 0.000000 0.000000 1.680840 
# 
# From -- ./inp_files/67397.got.cif
#   From: 2010.05.17/outbox.cif.g08.bks.cpg/sg65_34_cif.got.tgz:67397.got - 2010.06.03 17:01:31.
