data_PCOD9484753
_publ_section_title
;
Structure prediction by ZEFSAII (Michael W. Deem and Ramdas Pophale) SiO2 
 PCOD9484753
Probable space group: C M M M
;
_chemical_formula_sum "Si O2"
_cell_formula_units_Z 88
_cell_length_a 7.310471
_cell_length_b 14.568876
_cell_length_c 31.574014
_cell_angle_alpha 90.000000
_cell_angle_beta 90.000000
_cell_angle_gamma 90.000000
_cell_volume 3362.801270
_symmetry_space_group_name_H-M "C M M M"
_symmetry_group_IT_number 65
_symmetry_cell_setting 'orthorhombic'
loop_
_space_group_symop_operation_xyz
x,y,z
-x,-y,z
x,-y,-z
-x,y,-z
-x,-y,-z
x,y,-z
-x,y,z
x,-y,z
1/2+x,1/2+y,z
1/2-x,1/2-y,z
1/2+x,1/2-y,-z
1/2-x,1/2+y,-z
1/2-x,1/2-y,-z
1/2+x,1/2+y,-z
1/2-x,1/2+y,z
1/2+x,1/2-y,z
loop_
_atom_site_type_symbol
_atom_site_label
_atom_site_fract_x
_atom_site_fract_y
_atom_site_fract_z
Si Si1 0.793517 0.608577 0.592458
Si Si2 0.717943 0.894512 0.772206
Si Si3 0.216535 0.643054 0.500000
Si Si4 0.779157 0.390401 0.682170
Si Si5 0.781911 0.888617 0.954573
Si Si6 0.718266 0.605515 0.135595
O O1 0.810328 0.500000 0.599737
O O2 0.708318 0.614924 0.545900
O O3 0.708886 0.643905 0.636535
O O4 0.000000 0.648471 0.588367
O O5 0.500000 0.899235 0.767453
O O6 0.786806 0.853366 0.727666
O O7 0.749074 0.852095 0.818331
O O8 0.787732 0.000000 0.774959
O O9 0.250000 0.750000 0.500000
O O10 0.000000 0.615758 0.500000
O O11 0.742401 0.500000 0.685086
O O12 0.000000 0.380015 0.679459
O O13 0.710747 0.854767 0.909000
O O14 0.000000 0.871622 0.955686
O O15 0.759743 0.000000 0.953671
O O16 0.706672 0.856556 0.000000
O O17 0.500000 0.601380 0.131243
O O18 0.787429 0.500000 0.137988
#
# Coordination Sequence:
#
# PCOD9484753 Si02
#       6
#    16  16   8  16  16  16
#     4   8  13  23  41  62  78  95 128 167 190 209
#     4   8  12  17  25  37  53  71  88 111 152 201
#     4  10  19  29  43  63  85 106 126 154 192 228
#     4   7  10  17  30  48  66  81 102 137 174 202
#     4   7   9  13  20  28  37  52  79 114 147 178
#     4   8  12  16  22  32  45  62  85 114 148 187
#
# _framework density 26.168659999999999
#
# number of rings (size 3 to 8) (size 9 to 14) (size 15 to 20)
#    0.000    4.182    0.000    4.091    0.000    1.091 
#    0.000    0.000    0.000    2.727    0.000    6.364 
#    0.000    0.000    0.000    0.000    0.000    0.000 
#
# Total GULP energy -244984.565310 kJ/mol
# GULP energy per Si atom -5567.831030 kJ/mol
# Density = 2.610910 g / cm^3
# Si number density = 26.168660 Si / 1000 Ang^3
#
#
#
# Elastic Constant Matrix: (Units=GPa)
#
#
# Indices 1 2 3 4 5 6 
#
# 1 111.4823 -8.3130 18.6690 0.0000 0.0000 0.0000
# 2 -8.3130 82.4205 12.8068 0.0000 0.0000 0.0000
# 3 18.6690 12.8068 421.6641 0.0000 0.0000 0.0000
# 4 0.0000 0.0000 0.0000 -71.1355 0.0000 0.0000
# 5 0.0000 0.0000 0.0000 0.0000 -0.0716 0.0000
# 6 0.0000 0.0000 0.0000 0.0000 0.0000 -6.3979
#
#
#
# Elastic Compliance Matrix: (Units=1/GPa)
#
#
# Indices 1 2 3 4 5 6 
#
# 1 0.009116 0.000987 -0.000434 0.000000 0.000000 0.000000
# 2 0.000987 0.012297 -0.000417 0.000000 0.000000 0.000000
# 3 -0.000434 -0.000417 0.002403 0.000000 0.000000 0.000000
# 4 0.000000 0.000000 0.000000 -0.014058 0.000000 0.000000
# 5 0.000000 0.000000 0.000000 0.000000-13.957140 0.000000
# 6 0.000000 0.000000 0.000000 0.000000 0.000000 -0.156300
#
#
# Mechanical properties :
#
#
# Convention : Reuss Voigt Hill
#
# Bulk Modulus (GPa) = 41.51262 73.54360 57.52811
# Shear Modulus (GPa) = -0.35471 23.97257 11.80893
#
# Velocity S-wave (km/s) = -0.36857 3.02996 2.12660
# Velocity P-wave (km/s) = 3.96444 6.35654 5.29728
#
# Compressibility (1/GPa) = 0.02408906
#
# Stress axis : x y z
#
# Youngs Moduli (GPa) = 109.69442 81.31891 416.07309
#
# Poissons Ratio (x) = -0.08025 0.18041
# Poissons Ratio (y) = -0.10825 0.17358
# Poissons Ratio (z) = 0.04756 0.03392
#
# Static dielectric constant tensor:
#      x y z
#    x -2.404050 0.000000 0.000000 
#    y 0.000000 2.081020 0.000000 
#    z 0.000000 0.000000 2.220590 
# 
# From -- ./inp_files/77482.got.cif
#   From: 2010.05.17/outbox.cif.g08.bks.cpg/sg65_39_cif.got.tgz:77482.got - 2010.06.03 17:01:31.
