data_PCOD9484515
_publ_section_title
;
Structure prediction by ZEFSAII (Michael W. Deem and Ramdas Pophale) SiO2 
 PCOD9484515
Probable space group: C M M M
;
_chemical_formula_sum "Si O2"
_cell_formula_units_Z 64
_cell_length_a 29.822340
_cell_length_b 15.258608
_cell_length_c 7.779418
_cell_angle_alpha 90.000000
_cell_angle_beta 90.000000
_cell_angle_gamma 90.000000
_cell_volume 3540.003901
_symmetry_space_group_name_H-M "C M M M"
_symmetry_group_IT_number 65
_symmetry_cell_setting 'orthorhombic'
loop_
_space_group_symop_operation_xyz
x,y,z
-x,-y,z
x,-y,-z
-x,y,-z
-x,-y,-z
x,y,-z
-x,y,z
x,-y,z
1/2+x,1/2+y,z
1/2-x,1/2-y,z
1/2+x,1/2-y,-z
1/2-x,1/2+y,-z
1/2-x,1/2-y,-z
1/2+x,1/2+y,-z
1/2-x,1/2+y,z
1/2+x,1/2-y,z
loop_
_atom_site_type_symbol
_atom_site_label
_atom_site_fract_x
_atom_site_fract_y
_atom_site_fract_z
Si Si1 0.080483 0.405158 0.000000
Si Si2 0.851250 0.364928 0.303185
Si Si3 0.551175 0.290495 0.000000
Si Si4 0.722583 0.000000 0.206883
Si Si5 0.619344 0.672078 0.696889
Si Si6 0.325828 0.500000 0.792640
O O1 0.112830 0.399676 0.166211
O O2 0.052430 0.315885 0.000000
O O3 0.057464 0.500000 0.000000
O O4 0.865050 0.381950 0.500000
O O5 0.804972 0.415269 0.270161
O O6 0.850837 0.260049 0.278209
O O7 0.579110 0.321721 0.833589
O O8 0.500000 0.320830 0.000000
O O9 0.774009 0.000000 0.263374
O O10 0.721260 0.000000 0.000000
O O11 0.603013 0.672982 0.500000
O O12 0.648596 0.586170 0.728886
O O13 0.326801 0.500000 0.000000
#
# Coordination Sequence:
#
# PCOD9484515 Si02
#       6
#     8  16   8   8  16   8
#     4  10  18  33  55  84 120 149 187 223 273 333
#     4  10  19  33  55  82 114 156 193 225 271 324
#     4  10  22  40  62  87 114 144 183 236 289 342
#     4  11  21  33  55  86 118 153 195 236 266 323
#     4  10  22  40  61  83 113 151 188 232 286 339
#     4  11  23  39  59  83 114 151 192 238 286 328
#
# _framework density 18.079077000000002
#
# number of rings (size 3 to 8) (size 9 to 14) (size 15 to 20)
#    0.000    1.750    3.750    0.750    0.000    3.750 
#    0.000    6.250    0.000    1.500    0.000    7.000 
#    0.000    0.000    0.000    0.000    0.000    0.000 
#
# Total GULP energy -178571.045042 kJ/mol
# GULP energy per Si atom -5580.345158 kJ/mol
# Density = 1.803793 g / cm^3
# Si number density = 18.079077 Si / 1000 Ang^3
#
#
#
# Elastic Constant Matrix: (Units=GPa)
#
#
# Indices 1 2 3 4 5 6 
#
# 1 132.0530 62.6844 58.7455 0.0000 0.0000 0.0000
# 2 62.6844 124.5283 44.2702 0.0000 0.0000 0.0000
# 3 58.7455 44.2702 131.3172 0.0000 0.0000 0.0000
# 4 0.0000 0.0000 0.0000 30.7683 0.0000 0.0000
# 5 0.0000 0.0000 0.0000 0.0000 2.3625 0.0000
# 6 0.0000 0.0000 0.0000 0.0000 0.0000 31.7263
#
#
#
# Elastic Compliance Matrix: (Units=1/GPa)
#
#
# Indices 1 2 3 4 5 6 
#
# 1 0.011236 -0.004396 -0.003545 0.000000 0.000000 0.000000
# 2 -0.004396 0.010844 -0.001689 0.000000 0.000000 0.000000
# 3 -0.003545 -0.001689 0.009770 0.000000 0.000000 0.000000
# 4 0.000000 0.000000 0.000000 0.032501 0.000000 0.000000
# 5 0.000000 0.000000 0.000000 0.000000 0.423274 0.000000
# 6 0.000000 0.000000 0.000000 0.000000 0.000000 0.031520
#
#
# Mechanical properties :
#
#
# Convention : Reuss Voigt Hill
#
# Bulk Modulus (GPa) = 79.42281 79.92209 79.67245
# Shear Modulus (GPa) = 9.21487 27.78463 18.49975
#
# Velocity S-wave (km/s) = 2.26010 3.92451 3.20233
# Velocity P-wave (km/s) = 7.13000 8.05224 7.60511
#
# Compressibility (1/GPa) = 0.01259084
#
# Stress axis : x y z
#
# Youngs Moduli (GPa) = 88.99715 92.22035 102.35099
#
# Poissons Ratio (x) = 0.40540 0.36280
# Poissons Ratio (y) = 0.39123 0.17288
# Poissons Ratio (z) = 0.31546 0.15577
#
# Static dielectric constant tensor:
#      x y z
#    x 1.568510 0.000000 0.000000 
#    y 0.000000 1.631100 0.000000 
#    z 0.000000 0.000000 1.632400 
# 
# From -- ./inp_files/17977.got.cif
#   From: 2010.05.17/outbox.cif.g08.bks.cpg/sg65_9_cif.got.tgz:17977.got - 2010.06.03 17:01:31.
