data_PCOD9484129
_publ_section_title
;
Structure prediction by ZEFSAII (Michael W. Deem and Ramdas Pophale) SiO2 
 PCOD9484129
Probable space group: C M M M
;
_chemical_formula_sum "Si O2"
_cell_formula_units_Z 88
_cell_length_a 17.394011
_cell_length_b 29.246471
_cell_length_c 7.401175
_cell_angle_alpha 90.000000
_cell_angle_beta 90.000000
_cell_angle_gamma 90.000000
_cell_volume 3765.077182
_symmetry_space_group_name_H-M "C M M M"
_symmetry_group_IT_number 65
_symmetry_cell_setting 'orthorhombic'
loop_
_space_group_symop_operation_xyz
x,y,z
-x,-y,z
x,-y,-z
-x,y,-z
-x,-y,-z
x,y,-z
-x,y,z
x,-y,z
1/2+x,1/2+y,z
1/2-x,1/2-y,z
1/2+x,1/2-y,-z
1/2-x,1/2+y,-z
1/2-x,1/2-y,-z
1/2+x,1/2+y,-z
1/2-x,1/2+y,z
1/2+x,1/2-y,z
loop_
_atom_site_type_symbol
_atom_site_label
_atom_site_fract_x
_atom_site_fract_y
_atom_site_fract_z
Si Si1 0.155645 0.399359 0.715446
Si Si2 0.319555 0.278834 0.705090
Si Si3 0.500000 0.947058 0.720615
Si Si4 0.188171 0.947623 0.720633
Si Si5 0.414267 0.194756 0.214079
Si Si6 0.912699 0.864323 0.279010
O O1 0.156344 0.405576 0.500000
O O2 0.232490 0.423753 0.782036
O O3 0.146155 0.345541 0.748666
O O4 0.077553 0.422691 0.784808
O O5 0.294148 0.290134 0.500000
O O6 0.250000 0.250000 0.791519
O O7 0.388437 0.242232 0.701003
O O8 0.353534 0.325231 0.784483
O O9 0.500000 0.944926 0.500000
O O10 0.500000 0.000000 0.770921
O O11 0.189450 0.948346 0.500000
O O12 0.119172 0.913957 0.772601
O O13 0.182211 0.000000 0.780399
O O14 0.500000 0.180842 0.276063
O O15 0.416662 0.201515 0.000000
O O16 0.912557 0.861942 0.500000
O O17 0.000000 0.856268 0.220176
#
# Coordination Sequence:
#
# PCOD9484129 Si02
#       6
#    16  16   8  16  16  16
#     4  10  18  31  51  75 103 137 178 221 265 311
#     4  10  20  35  56  80 105 137 180 225 271 322
#     4   9  16  26  45  73  99 127 171 223 268 311
#     4   9  17  29  48  75 104 133 169 216 264 310
#     4  11  23  36  51  75 109 145 181 219 263 319
#     4   9  17  29  46  72 105 138 171 209 258 319
#
# _framework density 23.372693999999999
#
# number of rings (size 3 to 8) (size 9 to 14) (size 15 to 20)
#    0.000    2.273    0.909    2.727    0.000    7.636 
#    0.000    1.818    0.000    2.727    0.000    0.000 
#    0.000    0.000    0.000    7.818    0.000    8.000 
#
# Total GULP energy -245971.346488 kJ/mol
# GULP energy per Si atom -5590.257875 kJ/mol
# Density = 2.331950 g / cm^3
# Si number density = 23.372694 Si / 1000 Ang^3
#
#
#
# Elastic Constant Matrix: (Units=GPa)
#
#
# Indices 1 2 3 4 5 6 
#
# 1 118.3270 51.3584 9.1825 0.0000 0.0000 0.0000
# 2 51.3584 163.2096 -2.7680 0.0000 0.0000 0.0000
# 3 9.1825 -2.7680 82.3700 0.0000 0.0000 0.0000
# 4 0.0000 0.0000 0.0000 -125.1025 0.0000 0.0000
# 5 0.0000 0.0000 0.0000 0.0000 2.1868 0.0000
# 6 0.0000 0.0000 0.0000 0.0000 0.0000 38.5801
#
#
#
# Elastic Compliance Matrix: (Units=1/GPa)
#
#
# Indices 1 2 3 4 5 6 
#
# 1 0.009907 -0.003138 -0.001210 0.000000 0.000000 0.000000
# 2 -0.003138 0.007125 0.000589 0.000000 0.000000 0.000000
# 3 -0.001210 0.000589 0.012295 0.000000 0.000000 0.000000
# 4 0.000000 0.000000 0.000000 -0.007993 0.000000 0.000000
# 5 0.000000 0.000000 0.000000 0.000000 0.457289 0.000000
# 6 0.000000 0.000000 0.000000 0.000000 0.000000 0.025920
#
#
# Mechanical properties :
#
#
# Convention : Reuss Voigt Hill
#
# Bulk Modulus (GPa) = 45.85205 53.27249 49.56227
# Shear Modulus (GPa) = 9.62780 3.54180 6.58480
#
# Velocity S-wave (km/s) = 2.03180 1.23233 1.68030
# Velocity P-wave (km/s) = 5.01644 4.98668 5.00158
#
# Compressibility (1/GPa) = 0.02180927
#
# Stress axis : x y z
#
# Youngs Moduli (GPa) = 100.93792 140.35955 81.33375
#
# Poissons Ratio (x) = 0.44046 0.09840
# Poissons Ratio (y) = 0.31675 -0.04793
# Poissons Ratio (z) = 0.12212 -0.08271
#
# Static dielectric constant tensor:
#      x y z
#    x 1.871680 0.000000 0.000000 
#    y 0.000000 1.834390 0.000000 
#    z 0.000000 0.000000 1.920640 
# 
# From -- ./inp_files/10071.got.cif
#   From: 2010.05.17/outbox.cif.g08.bks.cpg/sg65_6_cif.got.tgz:10071.got - 2010.06.03 17:01:31.
