data_PCOD9484302
_publ_section_title
;
Structure prediction by ZEFSAII (Michael W. Deem and Ramdas Pophale) SiO2 
 PCOD9484302
Probable space group: C M M M
;
_chemical_formula_sum "Si O2"
_cell_formula_units_Z 80
_cell_length_a 25.495270
_cell_length_b 20.939474
_cell_length_c 8.642503
_cell_angle_alpha 90.000000
_cell_angle_beta 90.000000
_cell_angle_gamma 90.000000
_cell_volume 4613.865419
_symmetry_space_group_name_H-M "C M M M"
_symmetry_group_IT_number 65
_symmetry_cell_setting 'orthorhombic'
loop_
_space_group_symop_operation_xyz
x,y,z
-x,-y,z
x,-y,-z
-x,y,-z
-x,-y,-z
x,y,-z
-x,y,z
x,-y,z
1/2+x,1/2+y,z
1/2-x,1/2-y,z
1/2+x,1/2-y,-z
1/2-x,1/2+y,-z
1/2-x,1/2-y,-z
1/2+x,1/2+y,-z
1/2-x,1/2+y,z
1/2+x,1/2-y,z
loop_
_atom_site_type_symbol
_atom_site_label
_atom_site_fract_x
_atom_site_fract_y
_atom_site_fract_z
Si Si1 0.500000 0.757608 0.679622
Si Si2 0.224711 0.071527 0.815824
Si Si3 0.000000 0.102128 0.679811
Si Si4 0.614232 0.390295 0.686446
Si Si5 0.890130 0.747428 0.183010
Si Si6 0.287687 0.809700 0.315676
O O1 0.500000 0.776150 0.500000
O O2 0.500000 0.679718 0.683839
O O3 0.446664 0.777972 0.762700
O O4 0.164801 0.077020 0.758343
O O5 0.258742 0.125919 0.734456
O O6 0.243961 0.000000 0.782093
O O7 0.225827 0.081871 0.000000
O O8 0.942732 0.084253 0.743677
O O9 0.000000 0.082157 0.500000
O O10 0.615367 0.395667 0.500000
O O11 0.617928 0.315462 0.731373
O O12 0.842758 0.701833 0.231810
O O13 0.890057 0.758612 0.000000
O O14 0.295599 0.808691 0.500000
O O15 0.250000 0.750000 0.274952
#
# Coordination Sequence:
#
# PCOD9484302 Si02
#       6
#     8  16   8  16  16  16
#     4   9  17  31  49  74 111 144 177 218 264 320
#     4  11  24  39  54  76 107 142 180 227 280 329
#     4   7  14  27  46  70  97 131 174 221 260 301
#     4  10  18  32  52  74 102 140 182 224 270 320
#     4  11  20  31  52  81 112 142 176 222 275 320
#     4  11  22  36  57  82 107 141 184 226 271 326
#
# _framework density 17.339041000000002
#
# number of rings (size 3 to 8) (size 9 to 14) (size 15 to 20)
#    0.000    1.800    2.000    5.100    0.000    2.400 
#    0.000    2.000    0.000    3.000    0.000    0.700 
#    0.000    5.600    0.000    0.000    0.000    0.000 
#
# Total GULP energy -223293.491884 kJ/mol
# GULP energy per Si atom -5582.337297 kJ/mol
# Density = 1.729958 g / cm^3
# Si number density = 17.339041 Si / 1000 Ang^3
#
#
#
# Elastic Constant Matrix: (Units=GPa)
#
#
# Indices 1 2 3 4 5 6 
#
# 1 105.8348 27.8012 18.0978 0.0000 0.0000 0.0000
# 2 27.8012 53.3848 9.9902 0.0000 0.0000 0.0000
# 3 18.0978 9.9902 41.7019 0.0000 0.0000 0.0000
# 4 0.0000 0.0000 0.0000 32.8352 0.0000 0.0000
# 5 0.0000 0.0000 0.0000 0.0000 20.9182 0.0000
# 6 0.0000 0.0000 0.0000 0.0000 0.0000 10.9112
#
#
#
# Elastic Compliance Matrix: (Units=1/GPa)
#
#
# Indices 1 2 3 4 5 6 
#
# 1 0.011470 -0.005278 -0.003713 0.000000 0.000000 0.000000
# 2 -0.005278 0.022040 -0.002989 0.000000 0.000000 0.000000
# 3 -0.003713 -0.002989 0.026307 0.000000 0.000000 0.000000
# 4 0.000000 0.000000 0.000000 0.030455 0.000000 0.000000
# 5 0.000000 0.000000 0.000000 0.000000 0.047805 0.000000
# 6 0.000000 0.000000 0.000000 0.000000 0.000000 0.091649
#
#
# Mechanical properties :
#
#
# Convention : Reuss Voigt Hill
#
# Bulk Modulus (GPa) = 27.88957 34.74442 31.31700
# Shear Modulus (GPa) = 18.82239 22.60174 20.71206
#
# Velocity S-wave (km/s) = 3.29834 3.61434 3.45995
# Velocity P-wave (km/s) = 5.53400 6.12370 5.83630
#
# Compressibility (1/GPa) = 0.03585570
#
# Stress axis : x y z
#
# Youngs Moduli (GPa) = 87.18211 45.37169 38.01224
#
# Poissons Ratio (x) = 0.23949 0.14115
# Poissons Ratio (y) = 0.46019 0.11363
# Poissons Ratio (z) = 0.32374 0.13563
#
# Static dielectric constant tensor:
#      x y z
#    x 1.610290 0.000000 0.000000 
#    y 0.000000 1.577370 0.000000 
#    z 0.000000 0.000000 1.577290 
# 
# From -- ./inp_files/11577.got.cif
#   From: 2010.05.17/outbox.cif.g08.bks.cpg/sg65_6_cif.got.tgz:11577.got - 2010.06.03 17:01:31.
