data_PCOD9484750
_publ_section_title
;
Structure prediction by ZEFSAII (Michael W. Deem and Ramdas Pophale) SiO2 
 PCOD9484750
Probable space group: C M M M
;
_chemical_formula_sum "Si O2"
_cell_formula_units_Z 104
_cell_length_a 23.841427
_cell_length_b 25.301621
_cell_length_c 7.336230
_cell_angle_alpha 90.000000
_cell_angle_beta 90.000000
_cell_angle_gamma 90.000000
_cell_volume 4425.410181
_symmetry_space_group_name_H-M "C M M M"
_symmetry_group_IT_number 65
_symmetry_cell_setting 'orthorhombic'
loop_
_space_group_symop_operation_xyz
x,y,z
-x,-y,z
x,-y,-z
-x,y,-z
-x,-y,-z
x,y,-z
-x,y,z
x,-y,z
1/2+x,1/2+y,z
1/2-x,1/2-y,z
1/2+x,1/2-y,-z
1/2-x,1/2+y,-z
1/2-x,1/2-y,-z
1/2+x,1/2+y,-z
1/2-x,1/2+y,z
1/2+x,1/2-y,z
loop_
_atom_site_type_symbol
_atom_site_label
_atom_site_fract_x
_atom_site_fract_y
_atom_site_fract_z
Si Si1 0.645055 0.558523 0.277225
Si Si2 0.500000 0.939975 0.217765
Si Si3 0.116947 0.383084 0.286117
Si Si4 0.599301 0.333176 0.705293
Si Si5 0.274931 0.694254 0.219931
Si Si6 0.729801 0.916749 0.705901
Si Si7 0.937117 0.278820 0.277645
O O1 0.646701 0.562830 0.500000
O O2 0.624848 0.500000 0.229832
O O3 0.606983 0.607884 0.214215
O O4 0.710388 0.563902 0.215353
O O5 0.556948 0.911042 0.274184
O O6 0.500000 0.000000 0.285422
O O7 0.500000 0.940630 0.000000
O O8 0.130195 0.377663 0.500000
O O9 0.167592 0.419522 0.210226
O O10 0.106873 0.323299 0.213269
O O11 0.576494 0.339620 0.500000
O O12 0.663624 0.314019 0.701341
O O13 0.570084 0.281525 0.788058
O O14 0.250000 0.750000 0.271605
O O15 0.238122 0.646352 0.291274
O O16 0.278111 0.690960 0.000000
O O17 0.728450 0.938240 0.500000
O O18 0.932937 0.277038 0.500000
O O19 0.000000 0.296683 0.231842
#
# Coordination Sequence:
#
# PCOD9484750 Si02
#       7
#    16   8  16  16  16  16  16
#     4   8  14  26  44  69 100 128 158 197 239 287
#     4  11  25  41  53  69  99 137 172 205 246 300
#     4  10  19  34  55  76  96 123 166 218 259 293
#     4   9  17  29  48  70  92 127 167 202 247 300
#     4  10  19  29  42  65  99 132 156 189 240 294
#     4   9  18  30  49  74  95 122 162 203 243 289
#     4   9  16  28  49  74  97 120 158 215 265 300
#
# _framework density 23.500647000000001
#
# number of rings (size 3 to 8) (size 9 to 14) (size 15 to 20)
#    0.000    2.692    0.769    2.538    0.000    4.308 
#    0.000    2.308    0.000    7.846    0.000    3.231 
#    0.000    0.000    0.000    5.538    0.000    6.154 
#
# Total GULP energy -289977.641605 kJ/mol
# GULP energy per Si atom -5576.493108 kJ/mol
# Density = 2.344716 g / cm^3
# Si number density = 23.500647 Si / 1000 Ang^3
#
#
#
# Elastic Constant Matrix: (Units=GPa)
#
#
# Indices 1 2 3 4 5 6 
#
# 1 43.8405 -6.8729 -2.5784 0.0000 0.0000 0.0000
# 2 -6.8729 145.8691 1.9833 0.0000 0.0000 0.0000
# 3 -2.5784 1.9833 100.8709 0.0000 0.0000 0.0000
# 4 0.0000 0.0000 0.0000 -24.6629 0.0000 0.0000
# 5 0.0000 0.0000 0.0000 0.0000 63.9102 0.0000
# 6 0.0000 0.0000 0.0000 0.0000 0.0000 15.6354
#
#
#
# Elastic Compliance Matrix: (Units=1/GPa)
#
#
# Indices 1 2 3 4 5 6 
#
# 1 0.023012 0.001077 0.000567 0.000000 0.000000 0.000000
# 2 0.001077 0.006908 -0.000108 0.000000 0.000000 0.000000
# 3 0.000567 -0.000108 0.009930 0.000000 0.000000 0.000000
# 4 0.000000 0.000000 0.000000 -0.040547 0.000000 0.000000
# 5 0.000000 0.000000 0.000000 0.000000 0.015647 0.000000
# 6 0.000000 0.000000 0.000000 0.000000 0.000000 0.063958
#
#
# Mechanical properties :
#
#
# Convention : Reuss Voigt Hill
#
# Bulk Modulus (GPa) = 23.29881 30.62717 26.96299
# Shear Modulus (GPa) = 55.46672 30.84643 43.15658
#
# Velocity S-wave (km/s) = 4.86348 3.62688 4.28997
# Velocity P-wave (km/s) = 6.44000 5.53171 6.00306
#
# Compressibility (1/GPa) = 0.04292064
#
# Stress axis : x y z
#
# Youngs Moduli (GPa) = 43.45543 144.76692 100.70200
#
# Poissons Ratio (x) = -0.15585 -0.05710
# Poissons Ratio (y) = -0.04678 0.01091
# Poissons Ratio (z) = -0.02464 0.01568
#
# Static dielectric constant tensor:
#      x y z
#    x 1.921240 0.000000 0.000000 
#    y 0.000000 1.901350 0.000000 
#    z 0.000000 0.000000 1.901440 
# 
# From -- ./inp_files/14751.got.cif
#   From: 2010.05.17/outbox.cif.g08.bks.cpg/sg65_8_cif.got.tgz:14751.got - 2010.06.03 17:01:31.
