data_PCOD9484190
_publ_section_title
;
Structure prediction by ZEFSAII (Michael W. Deem and Ramdas Pophale) SiO2 
 PCOD9484190
Probable space group: C M M M
;
_chemical_formula_sum "Si O2"
_cell_formula_units_Z 64
_cell_length_a 8.487648
_cell_length_b 15.584444
_cell_length_c 24.961493
_cell_angle_alpha 90.000000
_cell_angle_beta 90.000000
_cell_angle_gamma 90.000000
_cell_volume 3301.788350
_symmetry_space_group_name_H-M "C M M M"
_symmetry_group_IT_number 65
_symmetry_cell_setting 'orthorhombic'
loop_
_space_group_symop_operation_xyz
x,y,z
-x,-y,z
x,-y,-z
-x,y,-z
-x,-y,-z
x,y,-z
-x,y,z
x,-y,z
1/2+x,1/2+y,z
1/2-x,1/2-y,z
1/2+x,1/2-y,-z
1/2-x,1/2+y,-z
1/2-x,1/2-y,-z
1/2+x,1/2+y,-z
1/2-x,1/2+y,z
1/2+x,1/2-y,z
loop_
_atom_site_type_symbol
_atom_site_label
_atom_site_fract_x
_atom_site_fract_y
_atom_site_fract_z
Si Si1 0.191985 0.000000 0.308550
Si Si2 0.189091 0.152302 0.386320
Si Si3 0.691603 0.900154 0.000000
Si Si4 0.311145 0.158362 0.883484
Si Si5 0.811957 0.651956 0.500000
Si Si6 0.310950 0.500000 0.185489
O O1 0.240653 0.914300 0.340526
O O2 0.244167 0.000000 0.247083
O O3 0.000000 0.000000 0.308718
O O4 0.250000 0.250000 0.378749
O O5 0.248169 0.117088 0.443834
O O6 0.000000 0.155951 0.387644
O O7 0.745456 0.857530 0.055252
O O8 0.500000 0.897737 0.000000
O O9 0.737922 0.000000 0.000000
O O10 0.500000 0.156718 0.883755
O O11 0.250000 0.250000 0.864824
O O12 0.249762 0.082767 0.846142
O O13 0.750000 0.750000 0.500000
O O14 0.000000 0.650347 0.500000
O O15 0.500000 0.500000 0.185156
#
# Coordination Sequence:
#
# PCOD9484190 Si02
#       6
#     8  16   8  16   8   8
#     4   9  22  40  59  80 110 149 192 235 282 337
#     4  10  19  36  58  82 110 146 185 228 278 334
#     4   9  17  34  60  87 120 154 188 235 288 345
#     4  11  22  39  62  89 119 155 194 238 291 347
#     4  10  18  31  52  83 116 146 178 223 277 335
#     4  11  23  42  61  84 116 153 198 247 292 343
#
# _framework density 19.383434000000001
#
# number of rings (size 3 to 8) (size 9 to 14) (size 15 to 20)
#    0.000    1.875    1.250    4.875    0.000    1.500 
#    0.000   15.000    0.000    0.000    0.000    0.000 
#    0.000    0.000    0.000    0.000    0.000    0.000 
#
# Total GULP energy -178720.415038 kJ/mol
# GULP energy per Si atom -5585.012970 kJ/mol
# Density = 1.933932 g / cm^3
# Si number density = 19.383434 Si / 1000 Ang^3
#
#
#
# Elastic Constant Matrix: (Units=GPa)
#
#
# Indices 1 2 3 4 5 6 
#
# 1 71.1000 33.0963 40.3104 0.0000 0.0000 0.0000
# 2 33.0963 156.5519 94.8230 0.0000 0.0000 0.0000
# 3 40.3104 94.8230 187.1837 0.0000 0.0000 0.0000
# 4 0.0000 0.0000 0.0000 4372.1893 0.0000 0.0000
# 5 0.0000 0.0000 0.0000 0.0000 21.6027 0.0000
# 6 0.0000 0.0000 0.0000 0.0000 0.0000 25.6639
#
#
#
# Elastic Compliance Matrix: (Units=1/GPa)
#
#
# Indices 1 2 3 4 5 6 
#
# 1 0.016410 -0.001917 -0.002563 0.000000 0.000000 0.000000
# 2 -0.001917 0.009439 -0.004369 0.000000 0.000000 0.000000
# 3 -0.002563 -0.004369 0.008107 0.000000 0.000000 0.000000
# 4 0.000000 0.000000 0.000000 0.000229 0.000000 0.000000
# 5 0.000000 0.000000 0.000000 0.000000 0.046291 0.000000
# 6 0.000000 0.000000 0.000000 0.000000 0.000000 0.038965
#
#
# Mechanical properties :
#
#
# Convention : Reuss Voigt Hill
#
# Bulk Modulus (GPa) = 61.50305 83.47722 72.49013
# Shear Modulus (GPa) = 35.07345 900.33156 467.70251
#
# Velocity S-wave (km/s) = 4.25838 21.57530 15.55036
# Velocity P-wave (km/s) = 7.48178 25.76466 18.97096
#
# Compressibility (1/GPa) = 0.01625936
#
# Stress axis : x y z
#
# Youngs Moduli (GPa) = 60.93832 105.94251 123.34389
#
# Poissons Ratio (x) = 0.20308 0.31612
# Poissons Ratio (y) = 0.11681 0.53887
# Poissons Ratio (z) = 0.15618 0.46284
#
# Static dielectric constant tensor:
#      x y z
#    x 1.659270 0.000000 0.000000 
#    y 0.000000 1.652840 0.000000 
#    z 0.000000 0.000000 1.687900 
# 
# From -- ./inp_files/66911.got.cif
#   From: 2010.05.17/outbox.cif.g08.bks.cpg/sg65_34_cif.got.tgz:66911.got - 2010.06.03 17:01:31.
