data_PCOD9484011
_publ_section_title
;
Structure prediction by ZEFSAII (Michael W. Deem and Ramdas Pophale) SiO2 
 PCOD9484011
Probable space group: C M M M
;
_chemical_formula_sum "Si O2"
_cell_formula_units_Z 104
_cell_length_a 15.153638
_cell_length_b 20.092649
_cell_length_c 18.981883
_cell_angle_alpha 90.000000
_cell_angle_beta 90.000000
_cell_angle_gamma 90.000000
_cell_volume 5779.541654
_symmetry_space_group_name_H-M "C M M M"
_symmetry_group_IT_number 65
_symmetry_cell_setting 'orthorhombic'
loop_
_space_group_symop_operation_xyz
x,y,z
-x,-y,z
x,-y,-z
-x,y,-z
-x,-y,-z
x,y,-z
-x,y,z
x,-y,z
1/2+x,1/2+y,z
1/2-x,1/2-y,z
1/2+x,1/2-y,-z
1/2-x,1/2+y,-z
1/2-x,1/2-y,-z
1/2+x,1/2+y,-z
1/2-x,1/2+y,z
1/2+x,1/2-y,z
loop_
_atom_site_type_symbol
_atom_site_label
_atom_site_fract_x
_atom_site_fract_y
_atom_site_fract_z
Si Si1 0.897424 0.846813 0.328201
Si Si2 0.763109 0.330318 0.579462
Si Si3 0.645821 0.821834 0.139585
Si Si4 0.395917 0.426440 0.190861
Si Si5 0.897011 0.688185 0.699938
Si Si6 0.845632 0.819486 0.916303
Si Si7 0.500000 0.922512 0.084500
O O1 0.828979 0.858824 0.391077
O O2 0.864396 0.885604 0.258922
O O3 0.894969 0.768184 0.310529
O O4 0.000000 0.863446 0.343964
O O5 0.783284 0.352156 0.500000
O O6 0.750000 0.250000 0.577610
O O7 0.840157 0.342399 0.636366
O O8 0.645439 0.825833 0.224030
O O9 0.742664 0.823826 0.105663
O O10 0.613634 0.747842 0.117085
O O11 0.584110 0.880346 0.110921
O O12 0.500000 0.432623 0.202510
O O13 0.356131 0.500000 0.186049
O O14 0.385141 0.383956 0.120560
O O15 0.000000 0.667851 0.700148
O O16 0.854905 0.817390 0.000000
O O17 0.500000 0.000000 0.107762
O O18 0.500000 0.922142 0.000000
#
# Coordination Sequence:
#
# PCOD9484011 Si02
#       7
#    16  16  16  16  16  16   8
#     4   9  17  31  51  77 107 144 183 222 269 330
#     4   9  18  30  48  78 114 145 174 224 285 336
#     4  11  21  38  57  82 110 144 193 240 285 343
#     4  10  21  36  54  79 111 147 188 232 280 336
#     4  10  18  30  53  80 105 140 183 229 279 335
#     4  11  23  36  56  83 110 147 191 238 295 348
#     4  11  24  40  58  82 116 154 192 244 299 344
#
# _framework density 17.994506999999999
#
# number of rings (size 3 to 8) (size 9 to 14) (size 15 to 20)
#    0.000    1.923    2.308    2.769    5.385    1.846 
#    0.000    3.846    0.000    0.462    0.000    2.154 
#    0.000    0.615    0.000    0.000    0.000    0.000 
#
# Total GULP energy -289981.657003 kJ/mol
# GULP energy per Si atom -5576.570327 kJ/mol
# Density = 1.795355 g / cm^3
# Si number density = 17.994507 Si / 1000 Ang^3
#
#
#
# Elastic Constant Matrix: (Units=GPa)
#
#
# Indices 1 2 3 4 5 6 
#
# 1 57.8171 37.6024 44.1228 0.0000 0.0000 0.0000
# 2 37.6024 72.5293 33.5895 0.0000 0.0000 0.0000
# 3 44.1228 33.5895 168.0868 0.0000 0.0000 0.0000
# 4 0.0000 0.0000 0.0000 9.3301 0.0000 0.0000
# 5 0.0000 0.0000 0.0000 0.0000 1023.6008 0.0000
# 6 0.0000 0.0000 0.0000 0.0000 0.0000 9.0922
#
#
#
# Elastic Compliance Matrix: (Units=1/GPa)
#
#
# Indices 1 2 3 4 5 6 
#
# 1 0.029722 -0.012999 -0.005204 0.000000 0.000000 0.000000
# 2 -0.012999 0.020879 -0.000760 0.000000 0.000000 0.000000
# 3 -0.005204 -0.000760 0.007467 0.000000 0.000000 0.000000
# 4 0.000000 0.000000 0.000000 0.107180 0.000000 0.000000
# 5 0.000000 0.000000 0.000000 0.000000 0.000977 0.000000
# 6 0.000000 0.000000 0.000000 0.000000 0.000000 0.109985
#
#
# Mechanical properties :
#
#
# Convention : Reuss Voigt Hill
#
# Bulk Modulus (GPa) = 49.64945 58.78475 54.21710
# Shear Modulus (GPa) = 15.58361 220.61250 118.09806
#
# Velocity S-wave (km/s) = 2.94602 11.08450 8.11003
# Velocity P-wave (km/s) = 6.26286 14.02000 10.85780
#
# Compressibility (1/GPa) = 0.02014121
#
# Stress axis : x y z
#
# Youngs Moduli (GPa) = 33.64557 47.89574 133.91665
#
# Poissons Ratio (x) = 0.62259 0.69694
# Poissons Ratio (y) = 0.43735 0.10179
# Poissons Ratio (z) = 0.17510 0.03641
#
# Static dielectric constant tensor:
#      x y z
#    x 1.585170 0.000000 0.000000 
#    y 0.000000 1.640970 0.000000 
#    z 0.000000 0.000000 1.602830 
# 
# From -- ./inp_files/53302.got.cif
#   From: 2010.05.17/outbox.cif.g08.bks.cpg/sg65_27_cif.got.tgz:53302.got - 2010.06.03 17:01:31.
