data_PCOD9484036
_publ_section_title
;
Structure prediction by ZEFSAII (Michael W. Deem and Ramdas Pophale) SiO2 
 PCOD9484036
Probable space group: C M M M
;
_chemical_formula_sum "Si O2"
_cell_formula_units_Z 96
_cell_length_a 27.731982
_cell_length_b 18.319268
_cell_length_c 11.776065
_cell_angle_alpha 90.000000
_cell_angle_beta 90.000000
_cell_angle_gamma 90.000000
_cell_volume 5982.589714
_symmetry_space_group_name_H-M "C M M M"
_symmetry_group_IT_number 65
_symmetry_cell_setting 'orthorhombic'
loop_
_space_group_symop_operation_xyz
x,y,z
-x,-y,z
x,-y,-z
-x,y,-z
-x,-y,-z
x,y,-z
-x,y,z
x,-y,z
1/2+x,1/2+y,z
1/2-x,1/2-y,z
1/2+x,1/2-y,-z
1/2-x,1/2+y,-z
1/2-x,1/2-y,-z
1/2+x,1/2+y,-z
1/2-x,1/2+y,z
1/2+x,1/2-y,z
loop_
_atom_site_type_symbol
_atom_site_label
_atom_site_fract_x
_atom_site_fract_y
_atom_site_fract_z
Si Si1 0.088593 0.420272 0.363173
Si Si2 0.657754 0.715622 0.364424
Si Si3 0.947777 0.263468 0.637715
Si Si4 0.798862 0.848159 0.000000
Si Si5 0.682639 0.136045 0.247632
Si Si6 0.316292 0.182328 0.000000
Si Si7 0.707553 0.584577 0.757632
O O1 0.090544 0.418781 0.500000
O O2 0.069902 0.500000 0.328729
O O3 0.059123 0.348385 0.328595
O O4 0.142279 0.408225 0.315393
O O5 0.660972 0.725593 0.500000
O O6 0.601353 0.722482 0.329343
O O7 0.684530 0.783033 0.302775
O O8 0.680706 0.639962 0.326149
O O9 0.948487 0.261420 0.500000
O O10 0.000000 0.236334 0.677963
O O11 0.807965 0.892582 0.885255
O O12 0.741624 0.829899 0.000000
O O13 0.824654 0.769381 0.000000
O O14 0.735060 0.099828 0.251200
O O15 0.666540 0.146667 0.116947
O O16 0.697751 0.500000 0.735817
#
# Coordination Sequence:
#
# PCOD9484036 Si02
#       7
#    16  16  16   8  16   8  16
#     4   9  17  28  43  68 101 129 152 181 220 271
#     4  10  20  32  47  68  94 122 154 189 225 274
#     4   8  15  29  48  67  87 116 154 194 231 267
#     4   9  17  32  46  66  86 117 158 199 231 255
#     4  10  18  31  47  67  93 127 162 188 218 258
#     4   9  16  28  50  66  84 117 164 203 219 252
#     4  11  21  31  46  67  95 125 154 190 228 267
#
# _framework density 16.046562000000002
#
# number of rings (size 3 to 8) (size 9 to 14) (size 15 to 20)
#    0.000    2.500    1.667    2.750    0.000    2.667 
#    0.000    2.917    0.000    0.500    0.000   16.917 
#    0.000    6.667    0.000    0.000    0.000    0.000 
#
# Total GULP energy -267402.270205 kJ/mol
# GULP energy per Si atom -5570.880629 kJ/mol
# Density = 1.601004 g / cm^3
# Si number density = 16.046562 Si / 1000 Ang^3
#
#
#
# Elastic Constant Matrix: (Units=GPa)
#
#
# Indices 1 2 3 4 5 6 
#
# 1 37.9472 7.6405 1.3061 0.0000 0.0000 0.0000
# 2 7.6405 77.6118 13.3750 0.0000 0.0000 0.0000
# 3 1.3061 13.3750 43.1878 0.0000 0.0000 0.0000
# 4 0.0000 0.0000 0.0000 16.2573 0.0000 0.0000
# 5 0.0000 0.0000 0.0000 0.0000 -2.2211 0.0000
# 6 0.0000 0.0000 0.0000 0.0000 0.0000 1.8718
#
#
#
# Elastic Compliance Matrix: (Units=1/GPa)
#
#
# Indices 1 2 3 4 5 6 
#
# 1 0.026885 -0.002648 0.000007 0.000000 0.000000 0.000000
# 2 -0.002648 0.013872 -0.004216 0.000000 0.000000 0.000000
# 3 0.000007 -0.004216 0.024460 0.000000 0.000000 0.000000
# 4 0.000000 0.000000 0.000000 0.061511 0.000000 0.000000
# 5 0.000000 0.000000 0.000000 0.000000 -0.450222 0.000000
# 6 0.000000 0.000000 0.000000 0.000000 0.000000 0.534238
#
#
# Mechanical properties :
#
#
# Convention : Reuss Voigt Hill
#
# Bulk Modulus (GPa) = 19.41615 22.59888 21.00751
# Shear Modulus (GPa) = 20.69314 12.27660 16.48487
#
# Velocity S-wave (km/s) = 3.59495 2.76897 3.20865
# Velocity P-wave (km/s) = 5.41828 4.93324 5.18144
#
# Compressibility (1/GPa) = 0.05150351
#
# Stress axis : x y z
#
# Youngs Moduli (GPa) = 37.19500 72.08839 40.88286
#
# Poissons Ratio (x) = 0.19089 -0.00028
# Poissons Ratio (y) = 0.09849 0.17236
# Poissons Ratio (z) = -0.00026 0.30392
#
# Static dielectric constant tensor:
#      x y z
#    x 1.543330 0.000000 0.000000 
#    y 0.000000 1.544790 0.000000 
#    z 0.000000 0.000000 1.543040 
# 
# From -- ./inp_files/32468.got.cif
#   From: 2010.05.17/outbox.cif.g08.bks.cpg/sg65_17_cif.got.tgz:32468.got - 2010.06.03 17:01:31.
