data_PCOD9484318
_publ_section_title
;
Structure prediction by ZEFSAII (Michael W. Deem and Ramdas Pophale) SiO2 
 PCOD9484318
Probable space group: C M M M
;
_chemical_formula_sum "Si O2"
_cell_formula_units_Z 64
_cell_length_a 25.690895
_cell_length_b 8.674272
_cell_length_c 15.585322
_cell_angle_alpha 90.000000
_cell_angle_beta 90.000000
_cell_angle_gamma 90.000000
_cell_volume 3473.186064
_symmetry_space_group_name_H-M "C M M M"
_symmetry_group_IT_number 65
_symmetry_cell_setting 'orthorhombic'
loop_
_space_group_symop_operation_xyz
x,y,z
-x,-y,z
x,-y,-z
-x,y,-z
-x,-y,-z
x,y,-z
-x,y,z
x,-y,z
1/2+x,1/2+y,z
1/2-x,1/2-y,z
1/2+x,1/2-y,-z
1/2-x,1/2+y,-z
1/2-x,1/2-y,-z
1/2+x,1/2+y,-z
1/2-x,1/2+y,z
1/2+x,1/2-y,z
loop_
_atom_site_type_symbol
_atom_site_label
_atom_site_fract_x
_atom_site_fract_y
_atom_site_fract_z
Si Si1 0.807980 0.317230 0.676720
Si Si2 0.589480 0.319115 0.269704
Si Si3 0.561837 0.174740 0.094792
Si Si4 0.308465 0.683849 0.500000
Si Si5 0.000000 0.686175 0.396558
O O1 0.803552 0.500000 0.673492
O O2 0.750000 0.250000 0.691308
O O3 0.853513 0.258655 0.736705
O O4 0.830234 0.252732 0.586413
O O5 0.594099 0.500000 0.288592
O O6 0.569091 0.288155 0.174063
O O7 0.550204 0.246465 0.341412
O O8 0.500000 0.161701 0.086979
O O9 0.581331 0.000000 0.114730
O O10 0.582200 0.220435 0.000000
O O11 0.308622 0.500000 0.500000
O O12 0.250000 0.750000 0.500000
O O13 0.000000 0.500000 0.393597
O O14 0.000000 0.729536 0.500000
#
# Coordination Sequence:
#
# PCOD9484318 Si02
#       5
#    16  16  16   8   8
#     4  11  22  38  58  81 112 151 196 243 290 342
#     4  12  24  38  59  88 121 155 194 241 291 350
#     4   9  18  35  60  87 116 150 190 237 289 345
#     4  10  18  32  52  77 106 139 186 240 285 330
#     4  11  25  43  60  81 116 161 205 242 289 348
#
# _framework density 18.426884000000001
#
# number of rings (size 3 to 8) (size 9 to 14) (size 15 to 20)
#    0.000    1.375    1.250    8.250    1.750    1.500 
#    0.000    1.250    0.000    0.750    0.000    0.000 
#    0.000    0.000    0.000    0.000    0.000    0.000 
#
# Total GULP energy -178217.029516 kJ/mol
# GULP energy per Si atom -5569.282172 kJ/mol
# Density = 1.838494 g / cm^3
# Si number density = 18.426884 Si / 1000 Ang^3
#
#
#
# Elastic Constant Matrix: (Units=GPa)
#
#
# Indices 1 2 3 4 5 6 
#
# 1 94.8212 45.3272 28.4205 0.0000 0.0000 0.0000
# 2 45.3272 155.7949 34.9166 0.0000 0.0000 0.0000
# 3 28.4205 34.9166 84.9262 0.0000 0.0000 0.0000
# 4 0.0000 0.0000 0.0000 10.3061 0.0000 0.0000
# 5 0.0000 0.0000 0.0000 0.0000 9.7599 0.0000
# 6 0.0000 0.0000 0.0000 0.0000 0.0000 26.8568
#
#
#
# Elastic Compliance Matrix: (Units=1/GPa)
#
#
# Indices 1 2 3 4 5 6 
#
# 1 0.012935 -0.003077 -0.003064 0.000000 0.000000 0.000000
# 2 -0.003077 0.007802 -0.002178 0.000000 0.000000 0.000000
# 3 -0.003064 -0.002178 0.013696 0.000000 0.000000 0.000000
# 4 0.000000 0.000000 0.000000 0.097030 0.000000 0.000000
# 5 0.000000 0.000000 0.000000 0.000000 0.102460 0.000000
# 6 0.000000 0.000000 0.000000 0.000000 0.000000 0.037234
#
#
# Mechanical properties :
#
#
# Convention : Reuss Voigt Hill
#
# Bulk Modulus (GPa) = 56.19330 61.43008 58.81169
# Shear Modulus (GPa) = 17.02264 24.50977 20.76621
#
# Velocity S-wave (km/s) = 3.04269 3.65102 3.36065
# Velocity P-wave (km/s) = 6.55023 7.15422 6.85888
#
# Compressibility (1/GPa) = 0.01779572
#
# Stress axis : x y z
#
# Youngs Moduli (GPa) = 77.30820 128.17229 73.01553
#
# Poissons Ratio (x) = 0.39435 0.22370
# Poissons Ratio (y) = 0.23786 0.15903
# Poissons Ratio (z) = 0.23686 0.27917
#
# Static dielectric constant tensor:
#      x y z
#    x 1.622110 0.000000 0.000000 
#    y 0.000000 1.642900 0.000000 
#    z 0.000000 0.000000 1.195460 
# 
# From -- ./inp_files/45105.got.cif
#   From: 2010.05.17/outbox.cif.g08.bks.cpg/sg65_23_cif.got.tgz:45105.got - 2010.06.03 17:01:31.
