data_PCOD9484579
_publ_section_title
;
Structure prediction by ZEFSAII (Michael W. Deem and Ramdas Pophale) SiO2 
 PCOD9484579
Probable space group: C M M M
;
_chemical_formula_sum "Si O2"
_cell_formula_units_Z 88
_cell_length_a 11.164845
_cell_length_b 23.099902
_cell_length_c 15.100891
_cell_angle_alpha 90.000000
_cell_angle_beta 90.000000
_cell_angle_gamma 90.000000
_cell_volume 3894.622858
_symmetry_space_group_name_H-M "C M M M"
_symmetry_group_IT_number 65
_symmetry_cell_setting 'orthorhombic'
loop_
_space_group_symop_operation_xyz
x,y,z
-x,-y,z
x,-y,-z
-x,y,-z
-x,-y,-z
x,y,-z
-x,y,z
x,-y,z
1/2+x,1/2+y,z
1/2-x,1/2-y,z
1/2+x,1/2-y,-z
1/2-x,1/2+y,-z
1/2-x,1/2-y,-z
1/2+x,1/2+y,-z
1/2-x,1/2+y,z
1/2+x,1/2-y,z
loop_
_atom_site_type_symbol
_atom_site_label
_atom_site_fract_x
_atom_site_fract_y
_atom_site_fract_z
Si Si1 0.000000 0.558125 0.735143
Si Si2 0.000000 0.665247 0.861443
Si Si3 0.131960 0.276189 0.398382
Si Si4 0.858564 0.000000 0.149439
Si Si5 0.780198 0.396501 0.652831
Si Si6 0.500000 0.705341 0.898003
Si Si7 0.767127 0.127533 0.856844
Si Si8 0.364768 0.500000 0.366236
O O1 0.115689 0.559240 0.676741
O O2 0.000000 0.500000 0.793697
O O3 0.000000 0.619738 0.781597
O O4 0.862533 0.649558 0.894624
O O5 0.000000 0.733784 0.846022
O O6 0.128223 0.254559 0.500000
O O7 0.250000 0.250000 0.353222
O O8 0.160657 0.343930 0.398482
O O9 0.000000 0.264945 0.360265
O O10 0.795546 0.060026 0.119541
O O11 0.854704 0.000000 0.257366
O O12 0.000000 0.000000 0.124310
O O13 0.736744 0.372588 0.748829
O O14 0.686661 0.437839 0.606003
O O15 0.380351 0.667228 0.882787
O O16 0.500000 0.724739 0.000000
O O17 0.500000 0.500000 0.391354
#
# Coordination Sequence:
#
# PCOD9484579 Si02
#       8
#     8   8  16   8  16   8  16   8
#     4  10  18  34  59  92 123 156 201 263 327 368
#     4  10  24  36  61  96 124 161 206 257 315 384
#     4  10  22  40  60  87 126 174 218 259 312 373
#     4   9  16  35  63  94 127 157 204 261 319 380
#     4  10  19  34  60  88 123 157 204 258 311 372
#     4  12  26  47  66  87 128 175 214 258 323 398
#     4  10  22  39  64  97 126 163 212 264 320 379
#     4   9  18  29  52  88 119 154 193 253 318 363
#
# _framework density 22.595257
#
# number of rings (size 3 to 8) (size 9 to 14) (size 15 to 20)
#    0.000    2.000    2.727    0.545    5.091    5.091 
#    0.000    1.364    0.000    2.455    0.000    0.000 
#    0.000    0.000    0.000    0.000    0.000    0.000 
#
# Total GULP energy -244938.806746 kJ/mol
# GULP energy per Si atom -5566.791062 kJ/mol
# Density = 2.254383 g / cm^3
# Si number density = 22.595257 Si / 1000 Ang^3
#
#
#
# Elastic Constant Matrix: (Units=GPa)
#
#
# Indices 1 2 3 4 5 6 
#
# 1 219.6334 78.3349 11.9107 0.0000 0.0000 0.0000
# 2 78.3349 162.4007 5.4511 0.0000 0.0000 0.0000
# 3 11.9107 5.4511 53.3336 0.0000 0.0000 0.0000
# 4 0.0000 0.0000 0.0000 -271.8793 0.0000 0.0000
# 5 0.0000 0.0000 0.0000 0.0000 5.0928 0.0000
# 6 0.0000 0.0000 0.0000 0.0000 0.0000 41.9389
#
#
#
# Elastic Compliance Matrix: (Units=1/GPa)
#
#
# Indices 1 2 3 4 5 6 
#
# 1 0.005549 -0.002644 -0.000969 0.000000 0.000000 0.000000
# 2 -0.002644 0.007439 -0.000170 0.000000 0.000000 0.000000
# 3 -0.000969 -0.000170 0.018984 0.000000 0.000000 0.000000
# 4 0.000000 0.000000 0.000000 -0.003678 0.000000 0.000000
# 5 0.000000 0.000000 0.000000 0.000000 0.196357 0.000000
# 6 0.000000 0.000000 0.000000 0.000000 0.000000 0.023844
#
#
# Mechanical properties :
#
#
# Convention : Reuss Voigt Hill
#
# Bulk Modulus (GPa) = 40.97426 69.64015 55.30721
# Shear Modulus (GPa) = 18.92547 -22.32479 -1.69966
#
# Velocity S-wave (km/s) = 2.89725 -3.14670 -0.86825
# Velocity P-wave (km/s) = 5.41899 4.20539 4.85029
#
# Compressibility (1/GPa) = 0.02440556
#
# Stress axis : x y z
#
# Youngs Moduli (GPa) = 180.22740 134.43418 52.67696
#
# Poissons Ratio (x) = 0.35542 0.05104
# Poissons Ratio (y) = 0.47649 0.00895
# Poissons Ratio (z) = 0.17462 0.02283
#
# Static dielectric constant tensor:
#      x y z
#    x 1.947720 0.000000 0.000000 
#    y 0.000000 1.850310 0.000000 
#    z 0.000000 0.000000 1.869700 
# 
# From -- ./inp_files/51512.got.cif
#   From: 2010.05.17/outbox.cif.g08.bks.cpg/sg65_26_cif.got.tgz:51512.got - 2010.06.03 17:01:31.
