data_PCOD9484787
_publ_section_title
;
Structure prediction by ZEFSAII (Michael W. Deem and Ramdas Pophale) SiO2 
 PCOD9484787
Probable space group: C M M M
;
_chemical_formula_sum "Si O2"
_cell_formula_units_Z 120
_cell_length_a 14.323373
_cell_length_b 29.725614
_cell_length_c 14.756189
_cell_angle_alpha 90.000000
_cell_angle_beta 90.000000
_cell_angle_gamma 90.000000
_cell_volume 6282.758187
_symmetry_space_group_name_H-M "C M M M"
_symmetry_group_IT_number 65
_symmetry_cell_setting 'orthorhombic'
loop_
_space_group_symop_operation_xyz
x,y,z
-x,-y,z
x,-y,-z
-x,y,-z
-x,-y,-z
x,y,-z
-x,y,z
x,-y,z
1/2+x,1/2+y,z
1/2-x,1/2-y,z
1/2+x,1/2-y,-z
1/2-x,1/2+y,-z
1/2-x,1/2-y,-z
1/2+x,1/2+y,-z
1/2-x,1/2+y,z
1/2+x,1/2-y,z
loop_
_atom_site_type_symbol
_atom_site_label
_atom_site_fract_x
_atom_site_fract_y
_atom_site_fract_z
Si Si1 0.718115 0.372125 0.605177
Si Si2 0.395973 0.268358 0.852233
Si Si3 0.803165 0.853182 0.101522
Si Si4 0.897293 0.663247 0.890573
Si Si5 0.609102 0.416789 0.764523
Si Si6 0.394922 0.820591 0.606607
Si Si7 0.392169 0.280990 0.638550
Si Si8 0.386583 0.500000 0.106323
O O1 0.722712 0.387567 0.500000
O O2 0.667826 0.406464 0.673753
O O3 0.820030 0.356422 0.641185
O O4 0.661699 0.324718 0.605405
O O5 0.500000 0.279399 0.886982
O O6 0.321152 0.299731 0.900112
O O7 0.386908 0.214942 0.860279
O O8 0.389978 0.280391 0.746881
O O9 0.697731 0.861950 0.134922
O O10 0.876112 0.873726 0.171119
O O11 0.816002 0.871108 0.000000
O O12 0.000000 0.646836 0.861175
O O13 0.896843 0.663584 0.000000
O O14 0.500000 0.422774 0.741662
O O15 0.640078 0.457208 0.831368
O O16 0.402155 0.829871 0.500000
O O17 0.500000 0.822033 0.646397
O O18 0.358941 0.769199 0.613379
O O19 0.500000 0.283855 0.608363
O O20 0.500000 0.500000 0.101623
O O21 0.354625 0.500000 0.000000
#
# Coordination Sequence:
#
# PCOD9484787 Si02
#       8
#    16  16  16  16  16  16  16   8
#     4  11  22  35  54  80 112 149 186 231 279 319
#     4  10  19  29  43  67 101 141 182 224 268 315
#     4  11  21  32  51  76 101 134 177 225 270 315
#     4   9  19  33  45  64 100 144 185 222 266 317
#     4  11  23  39  59  86 112 136 170 213 263 329
#     4   9  19  34  50  72 105 150 203 245 273 305
#     4  10  19  30  46  71 106 151 197 237 275 317
#     4   9  20  42  69  91 114 141 165 201 261 332
#
# _framework density 19.099892000000001
#
# number of rings (size 3 to 8) (size 9 to 14) (size 15 to 20)
#    0.000    1.933    1.333    2.800    1.867    6.933 
#    0.000    0.333    0.000    1.200    0.000    1.867 
#    0.000    6.400    0.000    0.000    0.000    0.000 
#
# Total GULP energy -334634.747785 kJ/mol
# GULP energy per Si atom -5577.245796 kJ/mol
# Density = 1.905642 g / cm^3
# Si number density = 19.099892 Si / 1000 Ang^3
#
#
#
# Elastic Constant Matrix: (Units=GPa)
#
#
# Indices 1 2 3 4 5 6 
#
# 1 73.0135 15.9400 22.4296 0.0000 0.0000 0.0000
# 2 15.9400 50.9081 25.6637 0.0000 0.0000 0.0000
# 3 22.4296 25.6637 103.4648 0.0000 0.0000 0.0000
# 4 0.0000 0.0000 0.0000 -23.9319 0.0000 0.0000
# 5 0.0000 0.0000 0.0000 0.0000 11.7342 0.0000
# 6 0.0000 0.0000 0.0000 0.0000 0.0000 14.3428
#
#
#
# Elastic Compliance Matrix: (Units=1/GPa)
#
#
# Indices 1 2 3 4 5 6 
#
# 1 0.015213 -0.003544 -0.002419 0.000000 0.000000 0.000000
# 2 -0.003544 0.023276 -0.005005 0.000000 0.000000 0.000000
# 3 -0.002419 -0.005005 0.011431 0.000000 0.000000 0.000000
# 4 0.000000 0.000000 0.000000 -0.041785 0.000000 0.000000
# 5 0.000000 0.000000 0.000000 0.000000 0.085221 0.000000
# 6 0.000000 0.000000 0.000000 0.000000 0.000000 0.069721
#
#
# Mechanical properties :
#
#
# Convention : Reuss Voigt Hill
#
# Bulk Modulus (GPa) = 35.73476 39.49476 37.61476
# Shear Modulus (GPa) = 25.72795 11.31924 18.52359
#
# Velocity S-wave (km/s) = 3.67416 2.43705 3.11758
# Velocity P-wave (km/s) = 6.06212 5.35181 5.71800
#
# Compressibility (1/GPa) = 0.02798395
#
# Stress axis : x y z
#
# Youngs Moduli (GPa) = 65.73384 42.96253 87.48146
#
# Poissons Ratio (x) = 0.15226 0.21161
# Poissons Ratio (y) = 0.23296 0.43786
# Poissons Ratio (z) = 0.15900 0.21504
#
# Static dielectric constant tensor:
#      x y z
#    x 1.742600 0.000000 0.000000 
#    y 0.000000 1.666780 0.000000 
#    z 0.000000 0.000000 1.707590 
# 
# From -- ./inp_files/41460.got.cif
#   From: 2010.05.17/outbox.cif.g08.bks.cpg/sg65_21_cif.got.tgz:41460.got - 2010.06.03 17:01:31.
