data_PCOD9484143
_publ_section_title
;
Structure prediction by ZEFSAII (Michael W. Deem and Ramdas Pophale) SiO2 
 PCOD9484143
Probable space group: C M M M
;
_chemical_formula_sum "Si O2"
_cell_formula_units_Z 104
_cell_length_a 29.374341
_cell_length_b 7.902679
_cell_length_c 25.686621
_cell_angle_alpha 90.000000
_cell_angle_beta 90.000000
_cell_angle_gamma 90.000000
_cell_volume 5962.789138
_symmetry_space_group_name_H-M "C M M M"
_symmetry_group_IT_number 65
_symmetry_cell_setting 'orthorhombic'
loop_
_space_group_symop_operation_xyz
x,y,z
-x,-y,z
x,-y,-z
-x,y,-z
-x,-y,-z
x,y,-z
-x,y,z
x,-y,z
1/2+x,1/2+y,z
1/2-x,1/2-y,z
1/2+x,1/2-y,-z
1/2-x,1/2+y,-z
1/2-x,1/2-y,-z
1/2+x,1/2+y,-z
1/2-x,1/2+y,z
1/2+x,1/2-y,z
loop_
_atom_site_type_symbol
_atom_site_label
_atom_site_fract_x
_atom_site_fract_y
_atom_site_fract_z
Si Si1 0.394190 0.794671 0.762507
Si Si2 0.800101 0.702288 0.285325
Si Si3 0.553933 0.692959 0.134189
Si Si4 0.055157 0.500000 0.059243
Si Si5 0.698998 0.304764 0.405508
Si Si6 0.052513 0.706967 0.341590
Si Si7 0.104046 0.302187 0.556619
O O1 0.341788 0.747124 0.751510
O O2 0.417038 0.719744 0.813687
O O3 0.421942 0.741652 0.711003
O O4 0.396685 0.000000 0.766586
O O5 0.802436 0.500000 0.292445
O O6 0.750000 0.750000 0.265702
O O7 0.805241 0.779565 0.343069
O O8 0.500000 0.720045 0.146088
O O9 0.558894 0.500000 0.115493
O O10 0.567833 0.832783 0.091743
O O11 0.000000 0.500000 0.056847
O O12 0.072189 0.500000 0.000000
O O13 0.693212 0.500000 0.418370
O O14 0.750000 0.250000 0.419939
O O15 0.657879 0.207788 0.432511
O O16 0.054191 0.500000 0.341951
O O17 0.078168 0.770028 0.393234
O O18 0.000000 0.757690 0.341227
O O19 0.093622 0.226520 0.500000
O O20 0.091329 0.500000 0.554576
#
# Coordination Sequence:
#
# PCOD9484143 Si02
#       7
#    16  16  16   8  16  16  16
#     4  10  18  31  52  73 105 143 172 213 262 314
#     4  10  19  32  51  75 103 134 167 203 257 319
#     4  10  20  32  50  79 112 148 190 229 265 309
#     4   9  18  34  54  76 112 156 191 227 269 307
#     4  11  21  34  53  72  95 122 156 199 251 314
#     4   9  17  30  50  74  97 127 166 204 252 310
#     4  10  20  35  52  70  94 121 158 208 257 308
#
# _framework density 17.441503000000001
#
# number of rings (size 3 to 8) (size 9 to 14) (size 15 to 20)
#    0.000    2.077    2.308    3.231    0.000    3.077 
#    0.000    3.077    0.000    0.462    0.000    1.077 
#    0.000    0.615    0.308    0.000    0.000    0.000 
#
# Total GULP energy -290208.359048 kJ/mol
# GULP energy per Si atom -5580.929982 kJ/mol
# Density = 1.740181 g / cm^3
# Si number density = 17.441503 Si / 1000 Ang^3
#
#
#
# Elastic Constant Matrix: (Units=GPa)
#
#
# Indices 1 2 3 4 5 6 
#
# 1 88.2542 12.2217 52.7773 0.0000 0.0000 0.0000
# 2 12.2217 50.6589 30.9939 0.0000 0.0000 0.0000
# 3 52.7773 30.9939 124.9400 0.0000 0.0000 0.0000
# 4 0.0000 0.0000 0.0000 4.6654 0.0000 0.0000
# 5 0.0000 0.0000 0.0000 0.0000 14.3476 0.0000
# 6 0.0000 0.0000 0.0000 0.0000 0.0000 17.4800
#
#
#
# Elastic Compliance Matrix: (Units=1/GPa)
#
#
# Indices 1 2 3 4 5 6 
#
# 1 0.015165 0.000307 -0.006482 0.000000 0.000000 0.000000
# 2 0.000307 0.023278 -0.005904 0.000000 0.000000 0.000000
# 3 -0.006482 -0.005904 0.012207 0.000000 0.000000 0.000000
# 4 0.000000 0.000000 0.000000 0.214345 0.000000 0.000000
# 5 0.000000 0.000000 0.000000 0.000000 0.069698 0.000000
# 6 0.000000 0.000000 0.000000 0.000000 0.000000 0.057208
#
#
# Mechanical properties :
#
#
# Convention : Reuss Voigt Hill
#
# Bulk Modulus (GPa) = 37.74849 50.64877 44.19863
# Shear Modulus (GPa) = 11.76776 18.48929 15.12852
#
# Velocity S-wave (km/s) = 2.60031 3.25941 2.94834
# Velocity P-wave (km/s) = 5.54125 6.57779 6.08164
#
# Compressibility (1/GPa) = 0.02649113
#
# Stress axis : x y z
#
# Youngs Moduli (GPa) = 65.94229 42.95876 81.92184
#
# Poissons Ratio (x) = -0.01320 0.53103
# Poissons Ratio (y) = -0.02027 0.48370
# Poissons Ratio (z) = 0.42745 0.25365
#
# Static dielectric constant tensor:
#      x y z
#    x 1.595910 0.000000 0.000000 
#    y 0.000000 1.640130 0.000000 
#    z 0.000000 0.000000 1.573070 
# 
# From -- ./inp_files/66366.got.cif
#   From: 2010.05.17/outbox.cif.g08.bks.cpg/sg65_34_cif.got.tgz:66366.got - 2010.06.03 17:01:31.
