data_PCOD9484871
_publ_section_title
;
Structure prediction by ZEFSAII (Michael W. Deem and Ramdas Pophale) SiO2 
 PCOD9484871
Probable space group: C M M M
;
_chemical_formula_sum "Si O2"
_cell_formula_units_Z 72
_cell_length_a 19.240940
_cell_length_b 13.769200
_cell_length_c 14.541043
_cell_angle_alpha 90.000000
_cell_angle_beta 90.000000
_cell_angle_gamma 90.000000
_cell_volume 3852.392709
_symmetry_space_group_name_H-M "C M M M"
_symmetry_group_IT_number 65
_symmetry_cell_setting 'orthorhombic'
loop_
_space_group_symop_operation_xyz
x,y,z
-x,-y,z
x,-y,-z
-x,y,-z
-x,-y,-z
x,y,-z
-x,y,z
x,-y,z
1/2+x,1/2+y,z
1/2-x,1/2-y,z
1/2+x,1/2-y,-z
1/2-x,1/2+y,-z
1/2-x,1/2-y,-z
1/2+x,1/2+y,-z
1/2-x,1/2+y,z
1/2+x,1/2-y,z
loop_
_atom_site_type_symbol
_atom_site_label
_atom_site_fract_x
_atom_site_fract_y
_atom_site_fract_z
Si Si1 0.847679 0.618898 0.104447
Si Si2 0.287291 0.883468 0.709776
Si Si3 0.923576 0.694479 0.610004
Si Si4 0.500000 0.110223 0.888138
Si Si5 0.353091 0.611713 0.390944
O O1 0.851308 0.500000 0.102598
O O2 0.795186 0.647468 0.184269
O O3 0.925073 0.654426 0.133616
O O4 0.832271 0.649746 0.000000
O O5 0.357310 0.854482 0.656636
O O6 0.215806 0.852822 0.661953
O O7 0.284681 0.000000 0.708232
O O8 0.920378 0.677294 0.500000
O O9 0.913110 0.809986 0.624923
O O10 0.000000 0.662702 0.643027
O O11 0.500000 0.000000 0.851232
O O12 0.500000 0.103889 0.000000
O O13 0.337340 0.613001 0.500000
O O14 0.369519 0.500000 0.365985
#
# Coordination Sequence:
#
# PCOD9484871 Si02
#       5
#    16  16  16   8  16
#     4   8  14  24  39  62  92 125 160 192 221 262
#     4  10  19  29  47  73 101 131 156 182 228 290
#     4  10  21  34  48  69  96 125 158 197 237 278
#     4   7  10  18  32  50  77 115 152 181 209 245
#     4   9  18  34  54  71  88 118 162 204 239 276
#
# _framework density 18.689684
#
# number of rings (size 3 to 8) (size 9 to 14) (size 15 to 20)
#    0.000    3.000    0.000    2.667    1.556    4.000 
#    0.000    3.333    0.000    2.667    0.000    0.000 
#    0.000    0.000    0.000   10.667    0.000    0.444 
#
# Total GULP energy -200545.532144 kJ/mol
# GULP energy per Si atom -5570.709226 kJ/mol
# Density = 1.864715 g / cm^3
# Si number density = 18.689684 Si / 1000 Ang^3
#
#
#
# Elastic Constant Matrix: (Units=GPa)
#
#
# Indices 1 2 3 4 5 6 
#
# 1 63.9294 1.9409 23.1451 0.0000 0.0000 0.0000
# 2 1.9409 16.3683 2.3486 0.0000 0.0000 0.0000
# 3 23.1451 2.3486 41.8749 0.0000 0.0000 0.0000
# 4 0.0000 0.0000 0.0000 7.5972 0.0000 0.0000
# 5 0.0000 0.0000 0.0000 0.0000 15.2118 0.0000
# 6 0.0000 0.0000 0.0000 0.0000 0.0000 15.4877
#
#
#
# Elastic Compliance Matrix: (Units=1/GPa)
#
#
# Indices 1 2 3 4 5 6 
#
# 1 0.019565 -0.000775 -0.010771 0.000000 0.000000 0.000000
# 2 -0.000775 0.061620 -0.003028 0.000000 0.000000 0.000000
# 3 -0.010771 -0.003028 0.030004 0.000000 0.000000 0.000000
# 4 0.000000 0.000000 0.000000 0.131628 0.000000 0.000000
# 5 0.000000 0.000000 0.000000 0.000000 0.065739 0.000000
# 6 0.000000 0.000000 0.000000 0.000000 0.000000 0.064567
#
#
# Mechanical properties :
#
#
# Convention : Reuss Voigt Hill
#
# Bulk Modulus (GPa) = 12.18878 19.67131 15.93005
# Shear Modulus (GPa) = 11.63828 13.97519 12.80673
#
# Velocity S-wave (km/s) = 2.49813 2.73747 2.62053
# Velocity P-wave (km/s) = 3.85443 4.53207 4.20692
#
# Compressibility (1/GPa) = 0.08204267
#
# Stress axis : x y z
#
# Youngs Moduli (GPa) = 51.11121 16.22847 33.32937
#
# Poissons Ratio (x) = 0.01257 0.35898
# Poissons Ratio (y) = 0.03959 0.10092
# Poissons Ratio (z) = 0.55050 0.04914
#
# Static dielectric constant tensor:
#      x y z
#    x 1.652710 0.000000 0.000000 
#    y 0.000000 1.669110 0.000000 
#    z 0.000000 0.000000 1.668800 
# 
# From -- ./inp_files/39756.got.cif
#   From: 2010.05.17/outbox.cif.g08.bks.cpg/sg65_20_cif.got.tgz:39756.got - 2010.06.03 17:01:31.
