data_PCOD9484212
_publ_section_title
;
Structure prediction by ZEFSAII (Michael W. Deem and Ramdas Pophale) SiO2 
 PCOD9484212
Probable space group: C M M M
;
_chemical_formula_sum "Si O2"
_cell_formula_units_Z 100
_cell_length_a 7.470938
_cell_length_b 28.228870
_cell_length_c 22.518240
_cell_angle_alpha 90.000000
_cell_angle_beta 90.000000
_cell_angle_gamma 90.000000
_cell_volume 4749.009841
_symmetry_space_group_name_H-M "C M M M"
_symmetry_group_IT_number 65
_symmetry_cell_setting 'orthorhombic'
loop_
_space_group_symop_operation_xyz
x,y,z
-x,-y,z
x,-y,-z
-x,y,-z
-x,-y,-z
x,y,-z
-x,y,z
x,-y,z
1/2+x,1/2+y,z
1/2-x,1/2-y,z
1/2+x,1/2-y,-z
1/2-x,1/2+y,-z
1/2-x,1/2-y,-z
1/2+x,1/2+y,-z
1/2-x,1/2+y,z
1/2+x,1/2-y,z
loop_
_atom_site_type_symbol
_atom_site_label
_atom_site_fract_x
_atom_site_fract_y
_atom_site_fract_z
Si Si1 0.217842 0.947596 0.106915
Si Si2 0.794115 0.155209 0.915977
Si Si3 0.792815 0.860737 0.678369
Si Si4 0.214999 0.804859 0.432973
Si Si5 0.718081 0.447241 0.755253
Si Si6 0.711068 0.195310 0.791893
Si Si7 0.000000 0.305831 0.000000
O O1 0.268894 0.899264 0.073905
O O2 0.274927 0.942892 0.175917
O O3 0.000000 0.947536 0.105980
O O4 0.274490 0.000000 0.085443
O O5 0.789406 0.164870 0.845712
O O6 0.657769 0.189549 0.948725
O O7 0.000000 0.160838 0.934900
O O8 0.714207 0.839792 0.617845
O O9 0.714452 0.906522 0.711665
O O10 0.787272 0.820344 0.728688
O O11 0.000000 0.872414 0.665750
O O12 0.282513 0.813136 0.500000
O O13 0.250000 0.750000 0.417481
O O14 0.000000 0.809961 0.434382
O O15 0.500000 0.444219 0.757152
O O16 0.765730 0.500000 0.735020
O O17 0.500000 0.187360 0.790465
O O18 0.750000 0.250000 0.803528
#
# Coordination Sequence:
#
# PCOD9484212 Si02
#       7
#    16  16  16  16  16  16   4
#     4   8  14  28  55  86 113 147 187 228 284 347
#     4  11  22  42  65  85 117 153 191 240 291 340
#     4  10  18  31  53  82 111 145 188 232 289 340
#     4   9  18  31  47  70 106 149 192 235 281 342
#     4   8  13  23  45  78 109 139 179 225 274 340
#     4  12  24  39  60  86 115 141 183 239 293 345
#     4  12  26  44  63  88 118 156 200 232 285 356
#
# _framework density 21.057022
#
# number of rings (size 3 to 8) (size 9 to 14) (size 15 to 20)
#    0.000    2.240    2.400    3.120    0.000    1.920 
#    0.000    1.600    0.000    3.840    0.000    3.360 
#    0.000    0.000    0.000    5.440    0.000    5.760 
#
# Total GULP energy -278689.178780 kJ/mol
# GULP energy per Si atom -5573.783576 kJ/mol
# Density = 2.100909 g / cm^3
# Si number density = 21.057022 Si / 1000 Ang^3
#
#
#
# Elastic Constant Matrix: (Units=GPa)
#
#
# Indices 1 2 3 4 5 6 
#
# 1 91.9978 -5.3023 2.4424 0.0000 0.0000 0.0000
# 2 -5.3023 67.3477 5.0773 0.0000 0.0000 0.0000
# 3 2.4424 5.0773 73.8794 0.0000 0.0000 0.0000
# 4 0.0000 0.0000 0.0000 54.3340 0.0000 0.0000
# 5 0.0000 0.0000 0.0000 0.0000 -30.2786 0.0000
# 6 0.0000 0.0000 0.0000 0.0000 0.0000 3.7036
#
#
#
# Elastic Compliance Matrix: (Units=1/GPa)
#
#
# Indices 1 2 3 4 5 6 
#
# 1 0.010932 0.000893 -0.000423 0.000000 0.000000 0.000000
# 2 0.000893 0.014999 -0.001060 0.000000 0.000000 0.000000
# 3 -0.000423 -0.001060 0.013622 0.000000 0.000000 0.000000
# 4 0.000000 0.000000 0.000000 0.018405 0.000000 0.000000
# 5 0.000000 0.000000 0.000000 0.000000 -0.033027 0.000000
# 6 0.000000 0.000000 0.000000 0.000000 0.000000 0.270007
#
#
# Mechanical properties :
#
#
# Convention : Reuss Voigt Hill
#
# Bulk Modulus (GPa) = 26.06031 26.40664 26.23348
# Shear Modulus (GPa) = 16.18591 20.95230 18.56911
#
# Velocity S-wave (km/s) = 2.77550 3.15783 2.97282
# Velocity P-wave (km/s) = 4.76174 5.08563 4.92634
#
# Compressibility (1/GPa) = 0.03837253
#
# Stress axis : x y z
#
# Youngs Moduli (GPa) = 91.47045 66.67326 73.40839
#
# Poissons Ratio (x) = -0.05951 0.03103
# Poissons Ratio (y) = -0.08164 0.07783
# Poissons Ratio (z) = 0.03867 0.07069
#
# Static dielectric constant tensor:
#      x y z
#    x 1.943990 0.000000 0.000000 
#    y 0.000000 1.794200 0.000000 
#    z 0.000000 0.000000 1.761740 
# 
# From -- ./inp_files/60821.got.cif
#   From: 2010.05.17/outbox.cif.g08.bks.cpg/sg65_31_cif.got.tgz:60821.got - 2010.06.03 17:01:31.
