data_PCOD9484271
_publ_section_title
;
Structure prediction by ZEFSAII (Michael W. Deem and Ramdas Pophale) SiO2 
 PCOD9484271
Probable space group: C M M M
;
_chemical_formula_sum "Si O2"
_cell_formula_units_Z 88
_cell_length_a 8.187754
_cell_length_b 24.349237
_cell_length_c 23.501399
_cell_angle_alpha 90.000000
_cell_angle_beta 90.000000
_cell_angle_gamma 90.000000
_cell_volume 4685.369635
_symmetry_space_group_name_H-M "C M M M"
_symmetry_group_IT_number 65
_symmetry_cell_setting 'orthorhombic'
loop_
_space_group_symop_operation_xyz
x,y,z
-x,-y,z
x,-y,-z
-x,y,-z
-x,-y,-z
x,y,-z
-x,y,z
x,-y,z
1/2+x,1/2+y,z
1/2-x,1/2-y,z
1/2+x,1/2-y,-z
1/2-x,1/2+y,-z
1/2-x,1/2-y,-z
1/2+x,1/2+y,-z
1/2-x,1/2+y,z
1/2+x,1/2-y,z
loop_
_atom_site_type_symbol
_atom_site_label
_atom_site_fract_x
_atom_site_fract_y
_atom_site_fract_z
Si Si1 0.697974 0.500000 0.757190
Si Si2 0.803731 0.888978 0.822183
Si Si3 0.303511 0.062704 0.064315
Si Si4 0.804500 0.187362 0.277566
Si Si5 0.806640 0.500000 0.371899
Si Si6 0.697228 0.812747 0.500000
Si Si7 0.302110 0.121180 0.610795
O O1 0.500000 0.500000 0.750927
O O2 0.746580 0.554523 0.790998
O O3 0.777811 0.500000 0.695596
O O4 0.748489 0.895262 0.887005
O O5 0.744868 0.839462 0.781947
O O6 0.000000 0.887387 0.822384
O O7 0.500000 0.060945 0.063849
O O8 0.245660 0.000000 0.077372
O O9 0.248742 0.076004 0.000000
O O10 0.750000 0.250000 0.284572
O O11 0.748084 0.149803 0.330277
O O12 0.000000 0.186081 0.277213
O O13 0.740688 0.441585 0.393352
O O14 0.000000 0.500000 0.384287
O O15 0.500000 0.814798 0.500000
O O16 0.750000 0.750000 0.500000
O O17 0.754546 0.843345 0.557019
O O18 0.500000 0.119819 0.610073
#
# Coordination Sequence:
#
# PCOD9484271 Si02
#       7
#     8  16  16  16   8   8  16
#     4  10  18  32  50  76 111 141 171 212 267 322
#     4  10  20  33  52  77 106 140 174 214 264 315
#     4   9  18  31  48  75 110 143 174 211 257 310
#     4  11  23  38  56  79 107 139 179 226 270 315
#     4  10  20  33  54  83 111 140 175 213 265 326
#     4  10  22  39  57  77 105 142 185 228 267 312
#     4  10  21  37  57  82 110 141 177 219 268 321
#
# _framework density 18.781867999999999
#
# number of rings (size 3 to 8) (size 9 to 14) (size 15 to 20)
#    0.000    2.000    2.727    1.636    0.000    5.091 
#    0.000    2.727    0.000    0.545    0.000    2.545 
#    0.000    0.000    0.000    0.000    0.000    0.000 
#
# Total GULP energy -245538.200790 kJ/mol
# GULP energy per Si atom -5580.413654 kJ/mol
# Density = 1.873912 g / cm^3
# Si number density = 18.781868 Si / 1000 Ang^3
#
#
#
# Elastic Constant Matrix: (Units=GPa)
#
#
# Indices 1 2 3 4 5 6 
#
# 1 12.3670 15.3825 11.8940 0.0000 0.0000 0.0000
# 2 15.3825 152.6554 76.9554 0.0000 0.0000 0.0000
# 3 11.8940 76.9554 143.7475 0.0000 0.0000 0.0000
# 4 0.0000 0.0000 0.0000 20.2485 0.0000 0.0000
# 5 0.0000 0.0000 0.0000 0.0000 8.4326 0.0000
# 6 0.0000 0.0000 0.0000 0.0000 0.0000 14.3272
#
#
#
# Elastic Compliance Matrix: (Units=1/GPa)
#
#
# Indices 1 2 3 4 5 6 
#
# 1 0.093864 -0.007592 -0.003702 0.000000 0.000000 0.000000
# 2 -0.007592 0.009586 -0.004504 0.000000 0.000000 0.000000
# 3 -0.003702 -0.004504 0.009674 0.000000 0.000000 0.000000
# 4 0.000000 0.000000 0.000000 0.049386 0.000000 0.000000
# 5 0.000000 0.000000 0.000000 0.000000 0.118587 0.000000
# 6 0.000000 0.000000 0.000000 0.000000 0.000000 0.069797
#
#
# Mechanical properties :
#
#
# Convention : Reuss Voigt Hill
#
# Bulk Modulus (GPa) = 12.26566 57.47041 34.86804
# Shear Modulus (GPa) = 12.20504 22.23754 17.22129
#
# Velocity S-wave (km/s) = 2.55194 3.44465 3.03134
# Velocity P-wave (km/s) = 3.90231 6.81807 5.55491
#
# Compressibility (1/GPa) = 0.08152842
#
# Stress axis : x y z
#
# Youngs Moduli (GPa) = 10.65370 104.31758 103.36929
#
# Poissons Ratio (x) = 0.79198 0.38269
# Poissons Ratio (y) = 0.08088 0.46555
# Poissons Ratio (z) = 0.03944 0.46982
#
# Static dielectric constant tensor:
#      x y z
#    x 1.663870 0.000000 0.000000 
#    y 0.000000 1.651810 0.000000 
#    z 0.000000 0.000000 1.646570 
# 
# From -- ./inp_files/65274.got.cif
#   From: 2010.05.17/outbox.cif.g08.bks.cpg/sg65_33_cif.got.tgz:65274.got - 2010.06.03 17:01:31.
