data_PCOD9484378
_publ_section_title
;
Structure prediction by ZEFSAII (Michael W. Deem and Ramdas Pophale) SiO2 
 PCOD9484378
Probable space group: C M M M
;
_chemical_formula_sum "Si O2"
_cell_formula_units_Z 104
_cell_length_a 33.205072
_cell_length_b 19.128933
_cell_length_c 7.385178
_cell_angle_alpha 90.000000
_cell_angle_beta 90.000000
_cell_angle_gamma 90.000000
_cell_volume 4690.899620
_symmetry_space_group_name_H-M "C M M M"
_symmetry_group_IT_number 65
_symmetry_cell_setting 'orthorhombic'
loop_
_space_group_symop_operation_xyz
x,y,z
-x,-y,z
x,-y,-z
-x,y,-z
-x,-y,-z
x,y,-z
-x,y,z
x,-y,z
1/2+x,1/2+y,z
1/2-x,1/2-y,z
1/2+x,1/2-y,-z
1/2-x,1/2+y,-z
1/2-x,1/2-y,-z
1/2+x,1/2+y,-z
1/2-x,1/2+y,z
1/2+x,1/2-y,z
loop_
_atom_site_type_symbol
_atom_site_label
_atom_site_fract_x
_atom_site_fract_y
_atom_site_fract_z
Si Si1 0.734745 0.420965 0.278690
Si Si2 0.500000 0.579985 0.778183
Si Si3 0.123370 0.420845 0.780539
Si Si4 0.569002 0.683637 0.213171
Si Si5 0.662854 0.328268 0.281980
Si Si6 0.545479 0.838458 0.778910
Si Si7 0.696185 0.181656 0.291543
O O1 0.736759 0.421943 0.500000
O O2 0.742937 0.500000 0.218263
O O3 0.690724 0.392943 0.226605
O O4 0.767432 0.364263 0.214105
O O5 0.500000 0.500000 0.717390
O O6 0.460769 0.623633 0.717881
O O7 0.500000 0.577944 0.000000
O O8 0.131017 0.500000 0.721416
O O9 0.079609 0.393088 0.723613
O O10 0.157146 0.367669 0.714116
O O11 0.124789 0.419469 0.000000
O O12 0.616106 0.668223 0.233363
O O13 0.558246 0.760847 0.284052
O O14 0.560469 0.687974 0.000000
O O15 0.663830 0.325178 0.500000
O O16 0.683240 0.256306 0.212914
O O17 0.500000 0.854150 0.721802
O O18 0.545668 0.838283 0.000000
O O19 0.707617 0.195708 0.500000
#
# Coordination Sequence:
#
# PCOD9484378 Si02
#       7
#    16   8  16  16  16  16  16
#     4   9  18  33  52  73  99 133 170 206 247 299
#     4   9  18  32  53  81 106 132 173 218 253 294
#     4  10  20  32  49  76 106 132 163 208 255 295
#     4  10  18  32  54  75  99 134 169 203 248 301
#     4  10  20  33  52  78 103 128 166 214 255 295
#     4   9  16  29  50  72  96 130 169 202 238 291
#     4  10  19  33  54  76  99 132 171 207 246 299
#
# _framework density 22.170587999999999
#
# number of rings (size 3 to 8) (size 9 to 14) (size 15 to 20)
#    0.000    2.385    2.308    0.923    0.000    3.692 
#    0.000    2.692    0.000    4.615    0.000    1.077 
#    0.000    0.000    0.000    0.000    0.000    0.000 
#
# Total GULP energy -290533.542950 kJ/mol
# GULP energy per Si atom -5587.183518 kJ/mol
# Density = 2.212013 g / cm^3
# Si number density = 22.170588 Si / 1000 Ang^3
#
#
#
# Elastic Constant Matrix: (Units=GPa)
#
#
# Indices 1 2 3 4 5 6 
#
# 1 109.4881 27.6043 -12.9466 0.0000 0.0000 0.0000
# 2 27.6043 102.9462 2.5956 0.0000 0.0000 0.0000
# 3 -12.9466 2.5956 75.5192 0.0000 0.0000 0.0000
# 4 0.0000 0.0000 0.0000 2.3144 0.0000 0.0000
# 5 0.0000 0.0000 0.0000 0.0000 14.5639 0.0000
# 6 0.0000 0.0000 0.0000 0.0000 0.0000 10.9727
#
#
#
# Elastic Compliance Matrix: (Units=1/GPa)
#
#
# Indices 1 2 3 4 5 6 
#
# 1 0.010038 -0.002737 0.001815 0.000000 0.000000 0.000000
# 2 -0.002737 0.010469 -0.000829 0.000000 0.000000 0.000000
# 3 0.001815 -0.000829 0.013581 0.000000 0.000000 0.000000
# 4 0.000000 0.000000 0.000000 0.432085 0.000000 0.000000
# 5 0.000000 0.000000 0.000000 0.000000 0.068663 0.000000
# 6 0.000000 0.000000 0.000000 0.000000 0.000000 0.091135
#
#
# Mechanical properties :
#
#
# Convention : Reuss Voigt Hill
#
# Bulk Modulus (GPa) = 32.69563 35.82891 34.26227
# Shear Modulus (GPa) = 7.81653 23.61687 15.71670
#
# Velocity S-wave (km/s) = 1.87970 3.26733 2.66540
# Velocity P-wave (km/s) = 4.41479 5.51630 4.99600
#
# Compressibility (1/GPa) = 0.03058512
#
# Stress axis : x y z
#
# Youngs Moduli (GPa) = 99.61950 95.52253 73.63064
#
# Poissons Ratio (x) = 0.26149 -0.13364
# Poissons Ratio (y) = 0.27270 0.06105
# Poissons Ratio (z) = -0.18081 0.07920
#
# Static dielectric constant tensor:
#      x y z
#    x 1.768520 0.000000 0.000000 
#    y 0.000000 1.771920 0.000000 
#    z 0.000000 0.000000 1.886710 
# 
# From -- ./inp_files/16471.got.cif
#   From: 2010.05.17/outbox.cif.g08.bks.cpg/sg65_9_cif.got.tgz:16471.got - 2010.06.03 17:01:31.
