data_PCOD9484975
_publ_section_title
;
Structure prediction by ZEFSAII (Michael W. Deem and Ramdas Pophale) SiO2 
 PCOD9484975
Probable space group: C M M M
;
_chemical_formula_sum "Si O2"
_cell_formula_units_Z 88
_cell_length_a 32.332701
_cell_length_b 9.699418
_cell_length_c 18.286145
_cell_angle_alpha 90.000000
_cell_angle_beta 90.000000
_cell_angle_gamma 90.000000
_cell_volume 5734.688348
_symmetry_space_group_name_H-M "C M M M"
_symmetry_group_IT_number 65
_symmetry_cell_setting 'orthorhombic'
loop_
_space_group_symop_operation_xyz
x,y,z
-x,-y,z
x,-y,-z
-x,y,-z
-x,-y,-z
x,y,-z
-x,y,z
x,-y,z
1/2+x,1/2+y,z
1/2-x,1/2-y,z
1/2+x,1/2-y,-z
1/2-x,1/2+y,-z
1/2-x,1/2-y,-z
1/2+x,1/2+y,-z
1/2-x,1/2+y,z
1/2+x,1/2-y,z
loop_
_atom_site_type_symbol
_atom_site_label
_atom_site_fract_x
_atom_site_fract_y
_atom_site_fract_z
Si Si1 0.313544 0.651430 0.417183
Si Si2 0.951072 0.162672 0.585762
Si Si3 0.750000 0.750000 0.303364
Si Si4 0.325833 0.156916 0.793725
Si Si5 0.880912 0.662794 0.345729
Si Si6 0.792265 0.838453 0.915486
O O1 0.298219 0.667626 0.500000
O O2 0.333771 0.500000 0.411945
O O3 0.277136 0.657981 0.358080
O O4 0.346182 0.768968 0.397635
O O5 0.941162 0.189543 0.500000
O O6 0.922816 0.257027 0.636496
O O7 0.000000 0.187940 0.595507
O O8 0.943732 0.000000 0.598901
O O9 0.716768 0.827105 0.252760
O O10 0.362668 0.181974 0.736018
O O11 0.323027 0.267480 0.858285
O O12 0.328435 0.000000 0.821266
O O13 0.884747 0.500000 0.358803
O O14 0.750000 0.750000 0.910210
O O15 0.785016 0.000000 0.898330
O O16 0.806101 0.829791 0.000000
#
# Coordination Sequence:
#
# PCOD9484975 Si02
#       6
#    16  16   8  16  16  16
#     4  10  20  32  45  60  82 116 156 196 237 277
#     4   9  18  33  52  72  94 122 157 194 233 281
#     4  10  19  30  45  62  82 112 158 198 231 270
#     4  10  20  32  46  65  91 121 155 192 229 272
#     4  10  21  33  46  68  94 119 151 191 235 277
#     4  10  20  32  48  69  92 119 153 192 232 274
#
# _framework density 15.345211000000001
#
# number of rings (size 3 to 8) (size 9 to 14) (size 15 to 20)
#    0.000    2.182    0.909    3.000    0.000    8.727 
#    0.000    0.909    0.000    0.000    0.000    0.000 
#    0.000    0.727    0.000    8.000    0.000    5.818 
#
# Total GULP energy -245335.326023 kJ/mol
# GULP energy per Si atom -5575.802864 kJ/mol
# Density = 1.531028 g / cm^3
# Si number density = 15.345211 Si / 1000 Ang^3
#
#
#
# Elastic Constant Matrix: (Units=GPa)
#
#
# Indices 1 2 3 4 5 6 
#
# 1 66.5004 49.4007 32.0450 0.0000 0.0000 0.0000
# 2 49.4007 124.9444 64.3200 0.0000 0.0000 0.0000
# 3 32.0450 64.3200 80.8076 0.0000 0.0000 0.0000
# 4 0.0000 0.0000 0.0000 1105.2168 0.0000 0.0000
# 5 0.0000 0.0000 0.0000 0.0000 17.0675 0.0000
# 6 0.0000 0.0000 0.0000 0.0000 0.0000 23.4450
#
#
#
# Elastic Compliance Matrix: (Units=1/GPa)
#
#
# Indices 1 2 3 4 5 6 
#
# 1 0.021715 -0.007036 -0.003011 0.000000 0.000000 0.000000
# 2 -0.007036 0.015839 -0.009817 0.000000 0.000000 0.000000
# 3 -0.003011 -0.009817 0.021384 0.000000 0.000000 0.000000
# 4 0.000000 0.000000 0.000000 0.000905 0.000000 0.000000
# 5 0.000000 0.000000 0.000000 0.000000 0.058591 0.000000
# 6 0.000000 0.000000 0.000000 0.000000 0.000000 0.042653
#
#
# Mechanical properties :
#
#
# Convention : Reuss Voigt Hill
#
# Bulk Modulus (GPa) = 52.05810 62.64264 57.35037
# Shear Modulus (GPa) = 24.12917 237.57830 130.85373
#
# Velocity S-wave (km/s) = 3.96968 12.45627 9.24437
# Velocity P-wave (km/s) = 7.41684 15.74131 12.30444
#
# Compressibility (1/GPa) = 0.01920931
#
# Stress axis : x y z
#
# Youngs Moduli (GPa) = 46.05108 63.13451 46.76502
#
# Poissons Ratio (x) = 0.44419 0.14082
# Poissons Ratio (y) = 0.32400 0.45911
# Poissons Ratio (z) = 0.13867 0.61982
#
# Static dielectric constant tensor:
#      x y z
#    x 1.499810 0.000000 0.000000 
#    y 0.000000 1.522740 0.000000 
#    z 0.000000 0.000000 1.515170 
# 
# From -- ./inp_files/58016.got.cif
#   From: 2010.05.17/outbox.cif.g08.bks.cpg/sg65_30_cif.got.tgz:58016.got - 2010.06.03 17:01:31.
