data_PCOD9484926
_publ_section_title
;
Structure prediction by ZEFSAII (Michael W. Deem and Ramdas Pophale) SiO2 
 PCOD9484926
Probable space group: C M M M
;
_chemical_formula_sum "Si O2"
_cell_formula_units_Z 104
_cell_length_a 16.923074
_cell_length_b 25.076651
_cell_length_c 14.984804
_cell_angle_alpha 90.000000
_cell_angle_beta 90.000000
_cell_angle_gamma 90.000000
_cell_volume 6359.161521
_symmetry_space_group_name_H-M "C M M M"
_symmetry_group_IT_number 65
_symmetry_cell_setting 'orthorhombic'
loop_
_space_group_symop_operation_xyz
x,y,z
-x,-y,z
x,-y,-z
-x,y,-z
-x,-y,-z
x,y,-z
-x,y,z
x,-y,z
1/2+x,1/2+y,z
1/2-x,1/2-y,z
1/2+x,1/2-y,-z
1/2-x,1/2+y,-z
1/2-x,1/2-y,-z
1/2+x,1/2+y,-z
1/2-x,1/2+y,z
1/2+x,1/2-y,z
loop_
_atom_site_type_symbol
_atom_site_label
_atom_site_fract_x
_atom_site_fract_y
_atom_site_fract_z
Si Si1 0.592037 0.500000 0.846884
Si Si2 0.096222 0.881840 0.897824
Si Si3 0.591542 0.500000 0.367259
Si Si4 0.407795 0.000000 0.608978
Si Si5 0.410067 0.309949 0.738389
Si Si6 0.404993 0.777633 0.397524
Si Si7 0.348499 0.385301 0.600327
Si Si8 0.670575 0.110243 0.607620
O O1 0.500000 0.500000 0.876410
O O2 0.624714 0.442605 0.878497
O O3 0.594544 0.500000 0.740026
O O4 0.125068 0.837445 0.827002
O O5 0.000000 0.883405 0.887298
O O6 0.113897 0.868142 0.000000
O O7 0.500000 0.500000 0.393924
O O8 0.633888 0.447558 0.401259
O O9 0.364826 0.945844 0.639915
O O10 0.500000 0.000000 0.634326
O O11 0.405905 0.000000 0.500000
O O12 0.500000 0.293908 0.760398
O O13 0.373435 0.261930 0.679558
O O14 0.409083 0.357653 0.666439
O O15 0.376433 0.767160 0.500000
O O16 0.500000 0.771538 0.399903
O O17 0.383066 0.838406 0.374736
O O18 0.355092 0.363549 0.500000
O O19 0.259926 0.378231 0.636849
O O20 0.675652 0.105175 0.500000
#
# Coordination Sequence:
#
# PCOD9484926 Si02
#       8
#     8  16   8   8  16  16  16  16
#     4   9  15  26  42  60  83 109 143 187 224 257
#     4   9  16  27  44  64  86 111 143 190 237 267
#     4  11  20  30  42  59  89 124 156 186 212 249
#     4   9  15  26  46  65  82 107 141 184 230 272
#     4  10  19  30  43  62  87 117 155 189 216 258
#     4   9  17  30  47  65  87 115 148 188 227 262
#     4  11  21  30  41  58  87 125 157 186 215 251
#     4   9  18  30  43  63  87 113 149 186 224 267
#
# _framework density 16.354358000000001
#
# number of rings (size 3 to 8) (size 9 to 14) (size 15 to 20)
#    0.000    2.385    1.538    2.308    0.000    6.769 
#    0.000    2.308    0.000    0.000    0.000    2.154 
#    0.000    0.000    0.000    0.154    0.000   15.231 
#
# Total GULP energy -289495.823771 kJ/mol
# GULP energy per Si atom -5567.227380 kJ/mol
# Density = 1.631713 g / cm^3
# Si number density = 16.354358 Si / 1000 Ang^3
#
#
#
# Elastic Constant Matrix: (Units=GPa)
#
#
# Indices 1 2 3 4 5 6 
#
# 1 22.6274 1.9181 8.9560 0.0000 0.0000 0.0000
# 2 1.9181 101.2658 39.7815 0.0000 0.0000 0.0000
# 3 8.9560 39.7815 84.3678 0.0000 0.0000 0.0000
# 4 0.0000 0.0000 0.0000 -7.5843 0.0000 0.0000
# 5 0.0000 0.0000 0.0000 0.0000 3.6430 0.0000
# 6 0.0000 0.0000 0.0000 0.0000 0.0000 -4.6436
#
#
#
# Elastic Compliance Matrix: (Units=1/GPa)
#
#
# Indices 1 2 3 4 5 6 
#
# 1 0.046270 0.001293 -0.005521 0.000000 0.000000 0.000000
# 2 0.001293 0.012156 -0.005869 0.000000 0.000000 0.000000
# 3 -0.005521 -0.005869 0.015206 0.000000 0.000000 0.000000
# 4 0.000000 0.000000 0.000000 -0.131852 0.000000 0.000000
# 5 0.000000 0.000000 0.000000 0.000000 0.274498 0.000000
# 6 0.000000 0.000000 0.000000 0.000000 0.000000 -0.215352
#
#
# Mechanical properties :
#
#
# Convention : Reuss Voigt Hill
#
# Bulk Modulus (GPa) = 18.71363 34.39689 26.55526
# Shear Modulus (GPa) = 128.41858 8.79006 68.60432
#
# Velocity S-wave (km/s) = 8.87091 2.32087 6.48380
# Velocity P-wave (km/s) = 10.78849 5.31600 8.50445
#
# Compressibility (1/GPa) = 0.05343698
#
# Stress axis : x y z
#
# Youngs Moduli (GPa) = 21.61228 82.26283 65.76175
#
# Poissons Ratio (x) = -0.10633 0.36308
# Poissons Ratio (y) = -0.02794 0.38596
# Poissons Ratio (z) = 0.11933 0.48281
#
# Static dielectric constant tensor:
#      x y z
#    x 1.562510 0.000000 0.000000 
#    y 0.000000 1.574810 0.000000 
#    z 0.000000 0.000000 1.548100 
# 
# From -- ./inp_files/43129.got.cif
#   From: 2010.05.17/outbox.cif.g08.bks.cpg/sg65_22_cif.got.tgz:43129.got - 2010.06.03 17:01:31.
