data_PCOD9484255
_publ_section_title
;
Structure prediction by ZEFSAII (Michael W. Deem and Ramdas Pophale) SiO2 
 PCOD9484255
Probable space group: C M M M
;
_chemical_formula_sum "Si O2"
_cell_formula_units_Z 96
_cell_length_a 27.286771
_cell_length_b 22.994056
_cell_length_c 7.476287
_cell_angle_alpha 90.000000
_cell_angle_beta 90.000000
_cell_angle_gamma 90.000000
_cell_volume 4690.873222
_symmetry_space_group_name_H-M "C M M M"
_symmetry_group_IT_number 65
_symmetry_cell_setting 'orthorhombic'
loop_
_space_group_symop_operation_xyz
x,y,z
-x,-y,z
x,-y,-z
-x,y,-z
-x,-y,-z
x,y,-z
-x,y,z
x,-y,z
1/2+x,1/2+y,z
1/2-x,1/2-y,z
1/2+x,1/2-y,-z
1/2-x,1/2+y,-z
1/2-x,1/2-y,-z
1/2+x,1/2+y,-z
1/2-x,1/2+y,z
1/2+x,1/2-y,z
loop_
_atom_site_type_symbol
_atom_site_label
_atom_site_fract_x
_atom_site_fract_y
_atom_site_fract_z
Si Si1 0.189685 0.564125 0.786044
Si Si2 0.555850 0.740117 0.217968
Si Si3 0.848626 0.689312 0.219578
Si Si4 0.895806 0.119195 0.783963
Si Si5 0.443914 0.500000 0.781412
Si Si6 0.250000 0.750000 0.753578
Si Si7 0.217354 0.868609 0.295429
O O1 0.175964 0.500000 0.717122
O O2 0.160483 0.622082 0.727715
O O3 0.246474 0.578245 0.743048
O O4 0.184629 0.562607 0.000000
O O5 0.500000 0.751092 0.277506
O O6 0.598065 0.786080 0.268653
O O7 0.575193 0.676594 0.276178
O O8 0.554848 0.739878 0.000000
O O9 0.805226 0.728689 0.302967
O O10 0.843722 0.694419 0.000000
O O11 0.918949 0.059186 0.720374
O O12 0.839204 0.119895 0.731454
O O13 0.897898 0.120017 0.000000
O O14 0.500000 0.500000 0.728570
O O15 0.441913 0.500000 0.000000
O O16 0.234017 0.813603 0.820319
O O17 0.225956 0.849441 0.500000
#
# Coordination Sequence:
#
# PCOD9484255 Si02
#       7
#    16  16  16  16   8   8  16
#     4   9  19  34  51  70  96 131 168 202 240 292
#     4   9  16  27  47  75 101 125 160 206 249 288
#     4   9  16  27  48  75 100 126 161 206 248 288
#     4  10  19  32  50  72  97 130 168 206 244 286
#     4   9  18  32  51  73  95 125 169 213 244 279
#     4  10  18  32  48  68  97 134 163 198 241 302
#     4  11  22  33  48  72 102 132 162 201 248 296
#
# _framework density 20.465274000000001
#
# number of rings (size 3 to 8) (size 9 to 14) (size 15 to 20)
#    0.000    2.417    1.667    1.500    1.167    3.667 
#    0.000    0.000    0.000    3.000    0.000    3.500 
#    0.000    0.000    0.000    4.333    0.000    4.167 
#
# Total GULP energy -267375.383555 kJ/mol
# GULP energy per Si atom -5570.320491 kJ/mol
# Density = 2.041869 g / cm^3
# Si number density = 20.465274 Si / 1000 Ang^3
#
#
#
# Elastic Constant Matrix: (Units=GPa)
#
#
# Indices 1 2 3 4 5 6 
#
# 1 199.7270 92.4101 1.1970 0.0000 0.0000 0.0000
# 2 92.4101 166.9002 13.2479 0.0000 0.0000 0.0000
# 3 1.1970 13.2479 75.4642 0.0000 0.0000 0.0000
# 4 0.0000 0.0000 0.0000 -12.0045 0.0000 0.0000
# 5 0.0000 0.0000 0.0000 0.0000 24.5465 0.0000
# 6 0.0000 0.0000 0.0000 0.0000 0.0000 23.0965
#
#
#
# Elastic Compliance Matrix: (Units=1/GPa)
#
#
# Indices 1 2 3 4 5 6 
#
# 1 0.006754 -0.003784 0.000557 0.000000 0.000000 0.000000
# 2 -0.003784 0.008196 -0.001379 0.000000 0.000000 0.000000
# 3 0.000557 -0.001379 0.013485 0.000000 0.000000 0.000000
# 4 0.000000 0.000000 0.000000 -0.083302 0.000000 0.000000
# 5 0.000000 0.000000 0.000000 0.000000 0.040739 0.000000
# 6 0.000000 0.000000 0.000000 0.000000 0.000000 0.043297
#
#
# Mechanical properties :
#
#
# Convention : Reuss Voigt Hill
#
# Bulk Modulus (GPa) = 52.01918 72.86683 62.44301
# Shear Modulus (GPa) = 111.63791 29.47680 70.55735
#
# Velocity S-wave (km/s) = 7.39380 3.79929 5.87805
# Velocity P-wave (km/s) = 9.91789 7.41138 8.75480
#
# Compressibility (1/GPa) = 0.01922368
#
# Stress axis : x y z
#
# Youngs Moduli (GPa) = 148.05461 122.00818 74.15905
#
# Poissons Ratio (x) = 0.46167 -0.04132
# Poissons Ratio (y) = 0.56023 0.10225
# Poissons Ratio (z) = -0.08249 0.16823
#
# Static dielectric constant tensor:
#      x y z
#    x 1.693710 0.000000 0.000000 
#    y 0.000000 1.719990 0.000000 
#    z 0.000000 0.000000 1.865150 
# 
# From -- ./inp_files/16702.got.cif
#   From: 2010.05.17/outbox.cif.g08.bks.cpg/sg65_9_cif.got.tgz:16702.got - 2010.06.03 17:01:31.
