data_PCOD9484149
_publ_section_title
;
Structure prediction by ZEFSAII (Michael W. Deem and Ramdas Pophale) SiO2 
 PCOD9484149
Probable space group: C M M M
;
_chemical_formula_sum "Si O2"
_cell_formula_units_Z 64
_cell_length_a 35.164051
_cell_length_b 11.847030
_cell_length_c 7.708544
_cell_angle_alpha 90.000000
_cell_angle_beta 90.000000
_cell_angle_gamma 90.000000
_cell_volume 3211.299008
_symmetry_space_group_name_H-M "C M M M"
_symmetry_group_IT_number 65
_symmetry_cell_setting 'orthorhombic'
loop_
_space_group_symop_operation_xyz
x,y,z
-x,-y,z
x,-y,-z
-x,y,-z
-x,-y,-z
x,y,-z
-x,y,z
x,-y,z
1/2+x,1/2+y,z
1/2-x,1/2-y,z
1/2+x,1/2-y,-z
1/2-x,1/2+y,-z
1/2-x,1/2-y,-z
1/2+x,1/2+y,-z
1/2-x,1/2+y,z
1/2+x,1/2-y,z
loop_
_atom_site_type_symbol
_atom_site_label
_atom_site_fract_x
_atom_site_fract_y
_atom_site_fract_z
Si Si1 0.544163 0.500000 0.712285
Si Si2 0.265937 0.129983 0.700616
Si Si3 0.147917 0.374962 0.204388
Si Si4 0.574444 0.262692 0.709203
Si Si5 0.000000 0.628425 0.287801
O O1 0.500000 0.500000 0.766502
O O2 0.543402 0.500000 0.500000
O O3 0.565868 0.388669 0.769632
O O4 0.252976 0.126766 0.500000
O O5 0.250000 0.250000 0.775901
O O6 0.311600 0.142796 0.706269
O O7 0.258069 0.000000 0.770818
O O8 0.133617 0.500000 0.255855
O O9 0.114861 0.286713 0.239257
O O10 0.155991 0.375509 0.000000
O O11 0.573384 0.262290 0.500000
O O12 0.538607 0.188618 0.770009
O O13 0.000000 0.500000 0.232462
O O14 0.000000 0.632158 0.500000
#
# Coordination Sequence:
#
# PCOD9484149 Si02
#       5
#     8  16  16  16   8
#     4   9  16  30  51  75 101 133 173 219 267 309
#     4   9  18  35  59  84 108 135 170 213 260 310
#     4  10  21  36  53  75 106 141 174 210 255 307
#     4  10  18  31  52  75 101 133 173 217 260 307
#     4   9  16  25  44  74  99 123 164 215 258 298
#
# _framework density 19.929628000000001
#
# number of rings (size 3 to 8) (size 9 to 14) (size 15 to 20)
#    0.000    2.500    1.250    1.500    0.000    3.000 
#    2.250    1.250    0.000    3.000    0.000    0.000 
#    0.000    0.000    0.000    0.000    0.000    0.000 
#
# Total GULP energy -178356.291941 kJ/mol
# GULP energy per Si atom -5573.634123 kJ/mol
# Density = 1.988427 g / cm^3
# Si number density = 19.929628 Si / 1000 Ang^3
#
#
#
# Elastic Constant Matrix: (Units=GPa)
#
#
# Indices 1 2 3 4 5 6 
#
# 1 79.8889 77.4183 -0.5136 0.0000 0.0000 0.0000
# 2 77.4183 202.0107 8.8189 0.0000 0.0000 0.0000
# 3 -0.5136 8.8189 33.7529 0.0000 0.0000 0.0000
# 4 0.0000 0.0000 0.0000 4.4688 0.0000 0.0000
# 5 0.0000 0.0000 0.0000 0.0000 -847.9707 0.0000
# 6 0.0000 0.0000 0.0000 0.0000 0.0000 43.9404
#
#
#
# Elastic Compliance Matrix: (Units=1/GPa)
#
#
# Indices 1 2 3 4 5 6 
#
# 1 0.020094 -0.007803 0.002345 0.000000 0.000000 0.000000
# 2 -0.007803 0.008038 -0.002219 0.000000 0.000000 0.000000
# 3 0.002345 -0.002219 0.030242 0.000000 0.000000 0.000000
# 4 0.000000 0.000000 0.000000 0.223772 0.000000 0.000000
# 5 0.000000 0.000000 0.000000 0.000000 -0.001179 0.000000
# 6 0.000000 0.000000 0.000000 0.000000 0.000000 0.022758
#
#
# Mechanical properties :
#
#
# Convention : Reuss Voigt Hill
#
# Bulk Modulus (GPa) = 23.24527 54.12221 38.68374
# Shear Modulus (GPa) = 14.99608 -144.58370 -64.79381
#
# Velocity S-wave (km/s) = 2.74606 -8.52670 -5.70805
# Velocity P-wave (km/s) = 4.66299 8.35008 4.89798
#
# Compressibility (1/GPa) = 0.04301951
#
# Stress axis : x y z
#
# Youngs Moduli (GPa) = 49.76490 124.41469 33.06609
#
# Poissons Ratio (x) = 0.97085 -0.07753
# Poissons Ratio (y) = 0.38833 0.07337
# Poissons Ratio (z) = -0.11668 0.27605
#
# Static dielectric constant tensor:
#      x y z
#    x 1.643950 0.000000 0.000000 
#    y 0.000000 1.729820 0.000000 
#    z 0.000000 0.000000 1.748710 
# 
# From -- ./inp_files/4958.got.cif
#   From: 2010.05.17/outbox.cif.g08.bks.cpg/sg65_3_cif.got.tgz:4958.got - 2010.06.03 17:01:31.
