data_PCOD9484172
_publ_section_title
;
Structure prediction by ZEFSAII (Michael W. Deem and Ramdas Pophale) SiO2 
 PCOD9484172
Probable space group: C M M M
;
_chemical_formula_sum "Si O2"
_cell_formula_units_Z 120
_cell_length_a 20.639866
_cell_length_b 14.405281
_cell_length_c 21.259866
_cell_angle_alpha 90.000000
_cell_angle_beta 90.000000
_cell_angle_gamma 90.000000
_cell_volume 6321.048617
_symmetry_space_group_name_H-M "C M M M"
_symmetry_group_IT_number 65
_symmetry_cell_setting 'orthorhombic'
loop_
_space_group_symop_operation_xyz
x,y,z
-x,-y,z
x,-y,-z
-x,y,-z
-x,-y,-z
x,y,-z
-x,y,z
x,-y,z
1/2+x,1/2+y,z
1/2-x,1/2-y,z
1/2+x,1/2-y,-z
1/2-x,1/2+y,-z
1/2-x,1/2-y,-z
1/2+x,1/2+y,-z
1/2-x,1/2+y,z
1/2+x,1/2-y,z
loop_
_atom_site_type_symbol
_atom_site_label
_atom_site_fract_x
_atom_site_fract_y
_atom_site_fract_z
Si Si1 0.353075 0.608217 0.928745
Si Si2 0.179571 0.106146 0.290588
Si Si3 0.928400 0.112324 0.197252
Si Si4 0.190198 0.131726 0.430534
Si Si5 0.250000 0.750000 0.878078
Si Si6 0.926819 0.388866 0.688903
Si Si7 0.809155 0.613087 0.224283
Si Si8 0.338281 0.149445 0.569048
O O1 0.331221 0.500000 0.919756
O O2 0.404792 0.627159 0.873916
O O3 0.296500 0.682693 0.917685
O O4 0.377972 0.615409 0.000000
O O5 0.125609 0.149507 0.245540
O O6 0.160500 0.105761 0.363513
O O7 0.252574 0.138285 0.275498
O O8 0.182617 0.000000 0.270007
O O9 0.000000 0.149978 0.208680
O O10 0.931938 0.000000 0.205197
O O11 0.168752 0.098827 0.500000
O O12 0.266367 0.106792 0.423741
O O13 0.178357 0.241642 0.432234
O O14 0.209436 0.677762 0.834423
O O15 0.931807 0.500000 0.691846
O O16 0.878363 0.363628 0.745490
O O17 0.888159 0.368371 0.624476
O O18 0.000000 0.350381 0.690357
O O19 0.807751 0.500000 0.212152
O O20 0.363565 0.122036 0.500000
#
# Coordination Sequence:
#
# PCOD9484172 Si02
#       8
#    16  16  16  16   8  16  16  16
#     4  10  21  37  57  86 122 153 187 228 270 326
#     4  10  18  31  52  77 105 138 179 228 276 326
#     4   9  18  34  55  80 111 146 180 220 279 339
#     4   9  18  31  49  73 100 132 176 232 286 334
#     4  12  21  34  60  84 111 154 188 228 273 326
#     4  10  21  35  50  72 104 140 179 229 285 334
#     4  10  21  35  54  82 110 142 188 234 278 331
#     4   9  18  31  47  66  92 128 174 226 281 338
#
# _framework density 18.984192
#
# number of rings (size 3 to 8) (size 9 to 14) (size 15 to 20)
#    0.000    2.267    2.667    1.400    1.867    1.067 
#    0.000    6.000    0.000    1.200    0.000    1.867 
#    0.000    0.000    0.000   12.000    0.000    0.267 
#
# Total GULP energy -334201.203652 kJ/mol
# GULP energy per Si atom -5570.020061 kJ/mol
# Density = 1.894098 g / cm^3
# Si number density = 18.984192 Si / 1000 Ang^3
#
#
#
# Elastic Constant Matrix: (Units=GPa)
#
#
# Indices 1 2 3 4 5 6 
#
# 1 106.4045 12.7066 52.8791 0.0000 0.0000 0.0000
# 2 12.7066 77.0312 13.4220 0.0000 0.0000 0.0000
# 3 52.8791 13.4220 113.5289 0.0000 0.0000 0.0000
# 4 0.0000 0.0000 0.0000 24.3189 0.0000 0.0000
# 5 0.0000 0.0000 0.0000 0.0000 -26.1031 0.0000
# 6 0.0000 0.0000 0.0000 0.0000 0.0000 11.2414
#
#
#
# Elastic Compliance Matrix: (Units=1/GPa)
#
#
# Indices 1 2 3 4 5 6 
#
# 1 0.012312 -0.001053 -0.005610 0.000000 0.000000 0.000000
# 2 -0.001053 0.013345 -0.001087 0.000000 0.000000 0.000000
# 3 -0.005610 -0.001087 0.011550 0.000000 0.000000 0.000000
# 4 0.000000 0.000000 0.000000 0.041120 0.000000 0.000000
# 5 0.000000 0.000000 0.000000 0.000000 -0.038310 0.000000
# 6 0.000000 0.000000 0.000000 0.000000 0.000000 0.088957
#
#
# Mechanical properties :
#
#
# Convention : Reuss Voigt Hill
#
# Bulk Modulus (GPa) = 46.07090 50.55333 48.31211
# Shear Modulus (GPa) = 32.95757 16.42192 24.68974
#
# Velocity S-wave (km/s) = 4.17112 2.94433 3.61022
# Velocity P-wave (km/s) = 6.89336 6.18432 6.54844
#
# Compressibility (1/GPa) = 0.02170568
#
# Stress axis : x y z
#
# Youngs Moduli (GPa) = 81.22244 74.93485 86.58107
#
# Poissons Ratio (x) = 0.07894 0.48572
# Poissons Ratio (y) = 0.08556 0.09412
# Poissons Ratio (z) = 0.45566 0.08146
#
# Static dielectric constant tensor:
#      x y z
#    x 1.672310 0.000000 0.000000 
#    y 0.000000 1.711010 0.000000 
#    z 0.000000 0.000000 1.675000 
# 
# From -- ./inp_files/64743.got.cif
#   From: 2010.05.17/outbox.cif.g08.bks.cpg/sg65_33_cif.got.tgz:64743.got - 2010.06.03 17:01:31.
