data_PCOD9484423
_publ_section_title
;
Structure prediction by ZEFSAII (Michael W. Deem and Ramdas Pophale) SiO2 
 PCOD9484423
Probable space group: C M M M
;
_chemical_formula_sum "Si O2"
_cell_formula_units_Z 80
_cell_length_a 17.759088
_cell_length_b 30.103705
_cell_length_c 8.717701
_cell_angle_alpha 90.000000
_cell_angle_beta 90.000000
_cell_angle_gamma 90.000000
_cell_volume 4660.608021
_symmetry_space_group_name_H-M "C M M M"
_symmetry_group_IT_number 65
_symmetry_cell_setting 'orthorhombic'
loop_
_space_group_symop_operation_xyz
x,y,z
-x,-y,z
x,-y,-z
-x,y,-z
-x,-y,-z
x,y,-z
-x,y,z
x,-y,z
1/2+x,1/2+y,z
1/2-x,1/2-y,z
1/2+x,1/2-y,-z
1/2-x,1/2+y,-z
1/2-x,1/2-y,-z
1/2+x,1/2+y,-z
1/2-x,1/2+y,z
1/2+x,1/2-y,z
loop_
_atom_site_type_symbol
_atom_site_label
_atom_site_fract_x
_atom_site_fract_y
_atom_site_fract_z
Si Si1 0.500000 0.660565 0.682506
Si Si2 0.375133 0.403200 0.814359
Si Si3 0.000000 0.741946 0.180414
Si Si4 0.298683 0.000000 0.176788
Si Si5 0.416887 0.164596 0.681017
Si Si6 0.292513 0.906169 0.684405
Si Si7 0.615575 0.500000 0.823550
O O1 0.500000 0.656954 0.500000
O O2 0.572128 0.635259 0.751572
O O3 0.500000 0.711743 0.732433
O O4 0.289671 0.398364 0.756606
O O5 0.404746 0.451852 0.758070
O O6 0.375823 0.403762 0.000000
O O7 0.929301 0.710866 0.230506
O O8 0.000000 0.749366 0.000000
O O9 0.320557 0.045546 0.259726
O O10 0.206953 0.000000 0.176448
O O11 0.323064 0.000000 0.000000
O O12 0.406744 0.174080 0.500000
O O13 0.500000 0.142411 0.697354
O O14 0.350812 0.132250 0.731791
O O15 0.286656 0.906313 0.500000
O O16 0.589726 0.500000 0.000000
#
# Coordination Sequence:
#
# PCOD9484423 Si02
#       7
#     8  16   8   8  16  16   8
#     4  12  24  39  55  76 106 139 178 220 266 314
#     4  10  20  35  55  79 110 142 177 218 263 309
#     4  10  20  36  59  80 101 134 173 218 274 322
#     4   9  17  29  47  73 111 147 177 218 264 301
#     4   8  17  35  56  78 106 141 173 212 266 323
#     4  10  18  32  55  81 108 142 182 215 257 315
#     4   7  14  30  50  72 101 140 171 203 252 302
#
# _framework density 17.165143
#
# number of rings (size 3 to 8) (size 9 to 14) (size 15 to 20)
#    0.600    2.000    0.000    4.200    0.000    2.000 
#    0.000    5.000    0.000    9.000    0.000    0.000 
#    0.000    0.000    0.000    0.000    0.000    0.000 
#
# Total GULP energy -222724.397772 kJ/mol
# GULP energy per Si atom -5568.109944 kJ/mol
# Density = 1.712607 g / cm^3
# Si number density = 17.165143 Si / 1000 Ang^3
#
#
#
# Elastic Constant Matrix: (Units=GPa)
#
#
# Indices 1 2 3 4 5 6 
#
# 1 71.0607 61.0403 33.9552 0.0000 0.0000 0.0000
# 2 61.0403 144.0767 49.2964 0.0000 0.0000 0.0000
# 3 33.9552 49.2964 80.5078 0.0000 0.0000 0.0000
# 4 0.0000 0.0000 0.0000 29.2980 0.0000 0.0000
# 5 0.0000 0.0000 0.0000 0.0000 12.9956 0.0000
# 6 0.0000 0.0000 0.0000 0.0000 0.0000 31.4697
#
#
#
# Elastic Compliance Matrix: (Units=1/GPa)
#
#
# Indices 1 2 3 4 5 6 
#
# 1 0.023521 -0.008312 -0.004830 0.000000 0.000000 0.000000
# 2 -0.008312 0.011718 -0.003669 0.000000 0.000000 0.000000
# 3 -0.004830 -0.003669 0.016705 0.000000 0.000000 0.000000
# 4 0.000000 0.000000 0.000000 0.034132 0.000000 0.000000
# 5 0.000000 0.000000 0.000000 0.000000 0.076949 0.000000
# 6 0.000000 0.000000 0.000000 0.000000 0.000000 0.031777
#
#
# Mechanical properties :
#
#
# Convention : Reuss Voigt Hill
#
# Bulk Modulus (GPa) = 54.58537 64.91434 59.74985
# Shear Modulus (GPa) = 21.31907 24.84288 23.08097
#
# Velocity S-wave (km/s) = 3.52802 3.80845 3.67091
# Velocity P-wave (km/s) = 6.96169 7.56562 7.26993
#
# Compressibility (1/GPa) = 0.01831993
#
# Stress axis : x y z
#
# Youngs Moduli (GPa) = 42.51584 85.34066 59.86151
#
# Poissons Ratio (x) = 0.70936 0.28916
# Poissons Ratio (y) = 0.35340 0.21965
# Poissons Ratio (z) = 0.20537 0.31314
#
# Static dielectric constant tensor:
#      x y z
#    x 1.579300 0.000000 0.000000 
#    y 0.000000 1.584760 0.000000 
#    z 0.000000 0.000000 1.577470 
# 
# From -- ./inp_files/9980.got.cif
#   From: 2010.05.17/outbox.cif.g08.bks.cpg/sg65_5_cif.got.tgz:9980.got - 2010.06.03 17:01:31.
