data_PCOD9484507
_publ_section_title
;
Structure prediction by ZEFSAII (Michael W. Deem and Ramdas Pophale) SiO2 
 PCOD9484507
Probable space group: C M M M
;
_chemical_formula_sum "Si O2"
_cell_formula_units_Z 104
_cell_length_a 24.898931
_cell_length_b 15.540059
_cell_length_c 15.183623
_cell_angle_alpha 90.000000
_cell_angle_beta 90.000000
_cell_angle_gamma 90.000000
_cell_volume 5875.012256
_symmetry_space_group_name_H-M "C M M M"
_symmetry_group_IT_number 65
_symmetry_cell_setting 'orthorhombic'
loop_
_space_group_symop_operation_xyz
x,y,z
-x,-y,z
x,-y,-z
-x,y,-z
-x,-y,-z
x,y,-z
-x,y,z
x,-y,z
1/2+x,1/2+y,z
1/2-x,1/2-y,z
1/2+x,1/2-y,-z
1/2-x,1/2+y,-z
1/2-x,1/2-y,-z
1/2+x,1/2+y,-z
1/2-x,1/2+y,z
1/2+x,1/2-y,z
loop_
_atom_site_type_symbol
_atom_site_label
_atom_site_fract_x
_atom_site_fract_y
_atom_site_fract_z
Si Si1 0.138303 0.599401 0.394749
Si Si2 0.769292 0.848437 0.095990
Si Si3 0.939510 0.749422 0.603884
Si Si4 0.615328 0.598624 0.858019
Si Si5 0.862239 0.904963 0.349250
Si Si6 0.246854 0.646218 0.706252
Si Si7 0.000000 0.097652 0.104358
O O1 0.147697 0.613772 0.500000
O O2 0.122167 0.500000 0.383990
O O3 0.093039 0.666312 0.362393
O O4 0.192806 0.617049 0.341332
O O5 0.750000 0.750000 0.095320
O O6 0.833941 0.853555 0.101536
O O7 0.750237 0.885219 0.191184
O O8 0.753260 0.886511 0.000000
O O9 0.945380 0.734821 0.500000
O O10 0.900820 0.831693 0.613754
O O11 0.000000 0.761325 0.640668
O O12 0.614651 0.500000 0.893017
O O13 0.624711 0.593665 0.754391
O O14 0.556729 0.638597 0.871445
O O15 0.798799 0.884398 0.349127
O O16 0.872264 0.000000 0.386576
O O17 0.250000 0.750000 0.708817
O O18 0.000000 0.000000 0.144036
O O19 0.000000 0.089976 0.000000
#
# Coordination Sequence:
#
# PCOD9484507 Si02
#       7
#    16  16  16  16  16  16   8
#     4  10  21  37  58  82 106 134 172 224 276 314
#     4   9  18  31  48  72 103 140 175 212 260 310
#     4  10  22  38  55  77 104 136 174 213 259 318
#     4   9  18  30  46  69  96 132 172 207 248 298
#     4  10  20  33  50  74 106 142 174 207 253 309
#     4  10  18  33  55  78 108 143 179 220 265 315
#     4   9  16  26  42  66  93 121 160 207 245 283
#
# _framework density 17.702092
#
# number of rings (size 3 to 8) (size 9 to 14) (size 15 to 20)
#    0.000    2.385    1.538    0.923    1.077    3.385 
#    0.000    2.308    0.000    0.000    0.000    0.000 
#    0.000    0.000    0.000    1.385    0.000    2.308 
#
# Total GULP energy -289560.751976 kJ/mol
# GULP energy per Si atom -5568.476000 kJ/mol
# Density = 1.766180 g / cm^3
# Si number density = 17.702092 Si / 1000 Ang^3
#
#
#
# Elastic Constant Matrix: (Units=GPa)
#
#
# Indices 1 2 3 4 5 6 
#
# 1 141.1707 59.7629 27.5407 0.0000 0.0000 0.0000
# 2 59.7629 90.9336 10.4006 0.0000 0.0000 0.0000
# 3 27.5407 10.4006 39.8526 0.0000 0.0000 0.0000
# 4 0.0000 0.0000 0.0000 -16.6995 0.0000 0.0000
# 5 0.0000 0.0000 0.0000 0.0000 2.0224 0.0000
# 6 0.0000 0.0000 0.0000 0.0000 0.0000 5.6311
#
#
#
# Elastic Compliance Matrix: (Units=1/GPa)
#
#
# Indices 1 2 3 4 5 6 
#
# 1 0.011013 -0.006563 -0.005898 0.000000 0.000000 0.000000
# 2 -0.006563 0.015247 0.000556 0.000000 0.000000 0.000000
# 3 -0.005898 0.000556 0.029023 0.000000 0.000000 0.000000
# 4 0.000000 0.000000 0.000000 -0.059882 0.000000 0.000000
# 5 0.000000 0.000000 0.000000 0.000000 0.494457 0.000000
# 6 0.000000 0.000000 0.000000 0.000000 0.000000 0.177587
#
#
# Mechanical properties :
#
#
# Convention : Reuss Voigt Hill
#
# Bulk Modulus (GPa) = 31.77249 51.92946 41.85098
# Shear Modulus (GPa) = 7.12512 9.80764 8.46638
#
# Velocity S-wave (km/s) = 2.00842 2.35636 2.18931
# Velocity P-wave (km/s) = 4.83381 6.06647 5.48488
#
# Compressibility (1/GPa) = 0.03147377
#
# Stress axis : x y z
#
# Youngs Moduli (GPa) = 90.80535 65.58781 34.45560
#
# Poissons Ratio (x) = 0.43046 0.20320
# Poissons Ratio (y) = 0.59596 -0.01917
# Poissons Ratio (z) = 0.53553 -0.03650
#
# Static dielectric constant tensor:
#      x y z
#    x 1.623730 0.000000 0.000000 
#    y 0.000000 1.632910 0.000000 
#    z 0.000000 0.000000 1.638110 
# 
# From -- ./inp_files/45736.got.cif
#   From: 2010.05.17/outbox.cif.g08.bks.cpg/sg65_23_cif.got.tgz:45736.got - 2010.06.03 17:01:31.
