data_PCOD9484086
_publ_section_title
;
Structure prediction by ZEFSAII (Michael W. Deem and Ramdas Pophale) SiO2 
 PCOD9484086
Probable space group: C M M M
;
_chemical_formula_sum "Si O2"
_cell_formula_units_Z 88
_cell_length_a 14.418051
_cell_length_b 20.894685
_cell_length_c 12.964616
_cell_angle_alpha 90.000000
_cell_angle_beta 90.000000
_cell_angle_gamma 90.000000
_cell_volume 3905.728435
_symmetry_space_group_name_H-M "C M M M"
_symmetry_group_IT_number 65
_symmetry_cell_setting 'orthorhombic'
loop_
_space_group_symop_operation_xyz
x,y,z
-x,-y,z
x,-y,-z
-x,y,-z
-x,-y,-z
x,y,-z
-x,y,z
x,-y,z
1/2+x,1/2+y,z
1/2-x,1/2-y,z
1/2+x,1/2-y,-z
1/2-x,1/2+y,-z
1/2-x,1/2-y,-z
1/2+x,1/2+y,-z
1/2-x,1/2+y,z
1/2+x,1/2-y,z
loop_
_atom_site_type_symbol
_atom_site_label
_atom_site_fract_x
_atom_site_fract_y
_atom_site_fract_z
Si Si1 0.898300 0.608182 0.880305
Si Si2 0.000000 0.075489 0.880880
Si Si3 0.698532 0.382088 0.121782
Si Si4 0.890489 0.929301 0.624794
Si Si5 0.153514 0.212686 0.615799
Si Si6 0.899152 0.242725 0.836169
O O1 0.796504 0.591972 0.835284
O O2 0.894358 0.685727 0.877898
O O3 0.000000 0.589604 0.835775
O O4 0.899485 0.587490 0.000000
O O5 0.899129 0.092455 0.835213
O O6 0.000000 0.000000 0.884416
O O7 0.000000 0.098595 0.000000
O O8 0.681700 0.305703 0.131309
O O9 0.700863 0.397971 0.000000
O O10 0.887950 0.933080 0.500000
O O11 0.837050 0.862550 0.644182
O O12 0.000000 0.921174 0.650541
O O13 0.858961 0.000000 0.661207
O O14 0.112479 0.216398 0.500000
O O15 0.250000 0.250000 0.612502
O O16 0.101347 0.243760 0.711955
O O17 0.000000 0.216010 0.869226
#
# Coordination Sequence:
#
# PCOD9484086 Si02
#       6
#    16   8  16  16  16  16
#     4   9  18  30  47  73 101 129 164 207 257 310
#     4   9  18  32  50  72  99 135 173 209 257 310
#     4  10  18  31  50  70  98 131 165 208 256 308
#     4   8  14  27  47  67  89 121 160 203 252 303
#     4  10  20  32  46  67  99 137 175 214 261 320
#     4  11  20  30  47  70  97 130 169 211 258 311
#
# _framework density 22.531009000000001
#
# number of rings (size 3 to 8) (size 9 to 14) (size 15 to 20)
#    0.000    2.455    0.909    3.273    0.000    3.273 
#    0.000    0.909    0.000    0.545    0.000    3.818 
#    0.000    4.364    0.000   32.545    0.000    0.000 
#
# Total GULP energy -245296.338391 kJ/mol
# GULP energy per Si atom -5574.916782 kJ/mol
# Density = 2.247973 g / cm^3
# Si number density = 22.531009 Si / 1000 Ang^3
#
#
#
# Elastic Constant Matrix: (Units=GPa)
#
#
# Indices 1 2 3 4 5 6 
#
# 1 189.5030 27.8100 13.1059 0.0000 0.0000 0.0000
# 2 27.8100 88.5206 9.9991 0.0000 0.0000 0.0000
# 3 13.1059 9.9991 80.6202 0.0000 0.0000 0.0000
# 4 0.0000 0.0000 0.0000 19.2145 0.0000 0.0000
# 5 0.0000 0.0000 0.0000 0.0000 23.2986 0.0000
# 6 0.0000 0.0000 0.0000 0.0000 0.0000 24.2010
#
#
#
# Elastic Compliance Matrix: (Units=1/GPa)
#
#
# Indices 1 2 3 4 5 6 
#
# 1 0.005571 -0.001671 -0.000698 0.000000 0.000000 0.000000
# 2 -0.001671 0.011959 -0.001212 0.000000 0.000000 0.000000
# 3 -0.000698 -0.001212 0.012668 0.000000 0.000000 0.000000
# 4 0.000000 0.000000 0.000000 0.052044 0.000000 0.000000
# 5 0.000000 0.000000 0.000000 0.000000 0.042921 0.000000
# 6 0.000000 0.000000 0.000000 0.000000 0.000000 0.041321
#
#
# Mechanical properties :
#
#
# Convention : Reuss Voigt Hill
#
# Bulk Modulus (GPa) = 43.41255 51.16376 47.28816
# Shear Modulus (GPa) = 27.57514 33.85808 30.71661
#
# Velocity S-wave (km/s) = 3.50219 3.88071 3.69630
# Velocity P-wave (km/s) = 5.97189 6.54503 6.26502
#
# Compressibility (1/GPa) = 0.02303481
#
# Stress axis : x y z
#
# Youngs Moduli (GPa) = 179.51702 83.62131 78.94144
#
# Poissons Ratio (x) = 0.13975 0.05512
# Poissons Ratio (y) = 0.30000 0.09564
# Poissons Ratio (z) = 0.12535 0.10131
#
# Static dielectric constant tensor:
#      x y z
#    x 1.909370 0.000000 0.000000 
#    y 0.000000 1.846910 0.000000 
#    z 0.000000 0.000000 1.926130 
# 
# From -- ./inp_files/40203.got.cif
#   From: 2010.05.17/outbox.cif.g08.bks.cpg/sg65_21_cif.got.tgz:40203.got - 2010.06.03 17:01:31.
