data_PCOD9484692
_publ_section_title
;
Structure prediction by ZEFSAII (Michael W. Deem and Ramdas Pophale) SiO2 
 PCOD9484692
Probable space group: C M M M
;
_chemical_formula_sum "Si O2"
_cell_formula_units_Z 96
_cell_length_a 19.651070
_cell_length_b 22.207845
_cell_length_c 16.991185
_cell_angle_alpha 90.000000
_cell_angle_beta 90.000000
_cell_angle_gamma 90.000000
_cell_volume 7415.087647
_symmetry_space_group_name_H-M "C M M M"
_symmetry_group_IT_number 65
_symmetry_cell_setting 'orthorhombic'
loop_
_space_group_symop_operation_xyz
x,y,z
-x,-y,z
x,-y,-z
-x,y,-z
-x,-y,-z
x,y,-z
-x,y,z
x,-y,z
1/2+x,1/2+y,z
1/2-x,1/2-y,z
1/2+x,1/2-y,-z
1/2-x,1/2+y,-z
1/2-x,1/2-y,-z
1/2+x,1/2+y,-z
1/2-x,1/2+y,z
1/2+x,1/2-y,z
loop_
_atom_site_type_symbol
_atom_site_label
_atom_site_fract_x
_atom_site_fract_y
_atom_site_fract_z
Si Si1 0.213510 0.071924 0.093571
Si Si2 0.582368 0.931093 0.500000
Si Si3 0.424042 0.637059 0.904707
Si Si4 0.580387 0.926693 0.325885
Si Si5 0.652144 0.886964 0.828893
Si Si6 0.422621 0.000000 0.906156
Si Si7 0.580358 0.776227 0.093204
O O1 0.138182 0.094127 0.116395
O O2 0.269563 0.103958 0.147546
O O3 0.219769 0.000000 0.101579
O O4 0.224668 0.086071 0.000000
O O5 0.500000 0.933688 0.500000
O O6 0.599874 0.905646 0.414281
O O7 0.607435 0.000000 0.500000
O O8 0.500000 0.620310 0.876396
O O9 0.409720 0.706587 0.883165
O O10 0.427137 0.636440 0.000000
O O11 0.500000 0.912623 0.311509
O O12 0.629075 0.898584 0.260445
O O13 0.585375 0.000000 0.322909
O O14 0.614017 0.940352 0.876286
O O15 0.624600 0.823307 0.858909
O O16 0.500000 0.000000 0.876558
O O17 0.422571 0.000000 0.000000
O O18 0.500000 0.790040 0.102885
O O19 0.595694 0.781747 0.000000
#
# Coordination Sequence:
#
# PCOD9484692 Si02
#       7
#    16   8  16  16  16   8  16
#     4  10  19  29  40  56  79 103 129 165 204 237
#     4   7  12  22  36  50  66  93 131 171 200 219
#     4   8  16  31  46  56  68  93 133 176 210 236
#     4   9  15  24  36  51  72 101 136 167 193 223
#     4  12  19  25  36  54  81 108 131 158 191 226
#     4  11  20  26  32  45  72 112 146 161 173 202
#     4   9  17  28  40  54  74 103 138 168 190 219
#
# _framework density 12.946576
#
# number of rings (size 3 to 8) (size 9 to 14) (size 15 to 20)
#    0.000    2.500    1.667    5.000    0.000    2.333 
#    0.000    4.167    0.000    0.000    0.000    0.000 
#    0.000    2.667    0.000    3.083    0.000    9.500 
#
# Total GULP energy -267263.856581 kJ/mol
# GULP energy per Si atom -5567.997012 kJ/mol
# Density = 1.291711 g / cm^3
# Si number density = 12.946576 Si / 1000 Ang^3
#
#
#
# Elastic Constant Matrix: (Units=GPa)
#
#
# Indices 1 2 3 4 5 6 
#
# 1 68.0030 21.6004 35.1448 0.0000 0.0000 0.0000
# 2 21.6004 19.7844 17.2183 0.0000 0.0000 0.0000
# 3 35.1448 17.2183 74.1152 0.0000 0.0000 0.0000
# 4 0.0000 0.0000 0.0000 2.4589 0.0000 0.0000
# 5 0.0000 0.0000 0.0000 0.0000 11.7983 0.0000
# 6 0.0000 0.0000 0.0000 0.0000 0.0000 22.5985
#
#
#
# Elastic Compliance Matrix: (Units=1/GPa)
#
#
# Indices 1 2 3 4 5 6 
#
# 1 0.025062 -0.021333 -0.006928 0.000000 0.000000 0.000000
# 2 -0.021333 0.081513 -0.008821 0.000000 0.000000 0.000000
# 3 -0.006928 -0.008821 0.018827 0.000000 0.000000 0.000000
# 4 0.000000 0.000000 0.000000 0.406685 0.000000 0.000000
# 5 0.000000 0.000000 0.000000 0.000000 0.084758 0.000000
# 6 0.000000 0.000000 0.000000 0.000000 0.000000 0.044251
#
#
# Mechanical properties :
#
#
# Convention : Reuss Voigt Hill
#
# Bulk Modulus (GPa) = 19.51684 34.42551 26.97117
# Shear Modulus (GPa) = 6.64593 13.23375 9.93984
#
# Velocity S-wave (km/s) = 2.26815 3.20063 2.77385
# Velocity P-wave (km/s) = 4.68689 6.34877 5.58004
#
# Compressibility (1/GPa) = 0.05123781
#
# Stress axis : x y z
#
# Youngs Moduli (GPa) = 39.90100 12.26799 53.11500
#
# Poissons Ratio (x) = 0.26171 0.36799
# Poissons Ratio (y) = 0.85121 0.46853
# Poissons Ratio (z) = 0.27644 0.10822
#
# Static dielectric constant tensor:
#      x y z
#    x 1.436060 0.000000 0.000000 
#    y 0.000000 1.414480 0.000000 
#    z 0.000000 0.000000 1.425040 
# 
# From -- ./inp_files/55016.got.cif
#   From: 2010.05.17/outbox.cif.g08.bks.cpg/sg65_28_cif.got.tgz:55016.got - 2010.06.03 17:01:31.
