data_PCOD9484930
_publ_section_title
;
Structure prediction by ZEFSAII (Michael W. Deem and Ramdas Pophale) SiO2 
 PCOD9484930
Probable space group: C M M M
;
_chemical_formula_sum "Si O2"
_cell_formula_units_Z 120
_cell_length_a 7.584868
_cell_length_b 29.082284
_cell_length_c 30.103569
_cell_angle_alpha 90.000000
_cell_angle_beta 90.000000
_cell_angle_gamma 90.000000
_cell_volume 6640.404356
_symmetry_space_group_name_H-M "C M M M"
_symmetry_group_IT_number 65
_symmetry_cell_setting 'orthorhombic'
loop_
_space_group_symop_operation_xyz
x,y,z
-x,-y,z
x,-y,-z
-x,y,-z
-x,-y,-z
x,y,-z
-x,y,z
x,-y,z
1/2+x,1/2+y,z
1/2-x,1/2-y,z
1/2+x,1/2-y,-z
1/2-x,1/2+y,-z
1/2-x,1/2-y,-z
1/2+x,1/2+y,-z
1/2-x,1/2+y,z
1/2+x,1/2-y,z
loop_
_atom_site_type_symbol
_atom_site_label
_atom_site_fract_x
_atom_site_fract_y
_atom_site_fract_z
Si Si1 0.211930 0.696015 0.225586
Si Si2 0.291460 0.852365 0.685131
Si Si3 0.287371 0.551669 0.277574
Si Si4 0.708447 0.853141 0.136752
Si Si5 0.287377 0.448388 0.824194
Si Si6 0.711886 0.196310 0.950482
Si Si7 0.787729 0.695660 0.596684
Si Si8 0.288693 0.195500 0.500000
O O1 0.250000 0.750000 0.225690
O O2 0.281519 0.672097 0.270468
O O3 0.281636 0.672191 0.180683
O O4 0.000000 0.689833 0.225574
O O5 0.500000 0.842309 0.684578
O O6 0.269552 0.906770 0.691386
O O7 0.218814 0.831823 0.639330
O O8 0.500000 0.551348 0.276928
O O9 0.228928 0.500000 0.289674
O O10 0.227745 0.560895 0.226673
O O11 0.500000 0.842962 0.136044
O O12 0.730030 0.907320 0.144290
O O13 0.781110 0.833704 0.090520
O O14 0.500000 0.448593 0.823499
O O15 0.228976 0.500000 0.836248
O O16 0.500000 0.190963 0.952121
O O17 0.750000 0.250000 0.941986
O O18 0.780034 0.185043 0.000000
O O19 0.750000 0.750000 0.601811
O O20 0.721104 0.679320 0.548127
O O21 0.000000 0.690849 0.595532
O O22 0.500000 0.188982 0.500000
O O23 0.250000 0.250000 0.500000
#
# Coordination Sequence:
#
# PCOD9484930 Si02
#       8
#    16  16  16  16  16  16  16   8
#     4  10  20  30  40  60  90 120 148 176 209 256
#     4  10  19  30  43  64  92 119 147 181 220 264
#     4   9  18  32  48  66  88 115 148 184 222 266
#     4  10  19  31  47  68  92 118 150 184 221 263
#     4   9  18  32  49  69  91 115 147 185 223 266
#     4   9  18  32  49  69  93 120 152 189 223 258
#     4   9  17  28  43  63  89 120 153 186 220 259
#     4   8  14  26  42  60  83 114 151 189 222 253
#
# _framework density 18.071189
#
# number of rings (size 3 to 8) (size 9 to 14) (size 15 to 20)
#    0.000    2.667    1.333    1.600    0.000    2.667 
#    0.000    1.333    0.000    0.400    0.000    3.267 
#    0.000    3.733    0.000    0.000    0.000    0.000 
#
# Total GULP energy -334521.531548 kJ/mol
# GULP energy per Si atom -5575.358859 kJ/mol
# Density = 1.803006 g / cm^3
# Si number density = 18.071189 Si / 1000 Ang^3
#
#
#
# Elastic Constant Matrix: (Units=GPa)
#
#
# Indices 1 2 3 4 5 6 
#
# 1 38.4466 -10.6968 11.6989 0.0000 0.0000 0.0000
# 2 -10.6968 110.1976 98.5729 0.0000 0.0000 0.0000
# 3 11.6989 98.5729 188.1852 0.0000 0.0000 0.0000
# 4 0.0000 0.0000 0.0000 8.5695 0.0000 0.0000
# 5 0.0000 0.0000 0.0000 0.0000 -9.9791 0.0000
# 6 0.0000 0.0000 0.0000 0.0000 0.0000 22.8550
#
#
#
# Elastic Compliance Matrix: (Units=1/GPa)
#
#
# Indices 1 2 3 4 5 6 
#
# 1 0.030408 0.008736 -0.006466 0.000000 0.000000 0.000000
# 2 0.008736 0.019585 -0.010802 0.000000 0.000000 0.000000
# 3 -0.006466 -0.010802 0.011374 0.000000 0.000000 0.000000
# 4 0.000000 0.000000 0.000000 0.116693 0.000000 0.000000
# 5 0.000000 0.000000 0.000000 0.000000 -0.100209 0.000000
# 6 0.000000 0.000000 0.000000 0.000000 0.000000 0.043754
#
#
# Mechanical properties :
#
#
# Convention : Reuss Voigt Hill
#
# Bulk Modulus (GPa) = 22.57198 59.55326 41.06262
# Shear Modulus (GPa) = 32.58655 20.10603 26.34629
#
# Velocity S-wave (km/s) = 4.25105 3.33919 3.82241
# Velocity P-wave (km/s) = 6.05087 6.92049 6.50024
#
# Compressibility (1/GPa) = 0.04430271
#
# Stress axis : x y z
#
# Youngs Moduli (GPa) = 32.88578 51.05964 87.91988
#
# Poissons Ratio (x) = -0.44605 0.56852
# Poissons Ratio (y) = -0.28729 0.94970
# Poissons Ratio (z) = 0.21265 0.55154
#
# Static dielectric constant tensor:
#      x y z
#    x 1.662570 0.000000 0.000000 
#    y 0.000000 1.590450 0.000000 
#    z 0.000000 0.000000 1.658360 
# 
# From -- ./inp_files/74490.got.cif
#   From: 2010.05.17/outbox.cif.g08.bks.cpg/sg65_38_cif.got.tgz:74490.got - 2010.06.03 17:01:31.
