data_PCOD9484110
_publ_section_title
;
Structure prediction by ZEFSAII (Michael W. Deem and Ramdas Pophale) SiO2 
 PCOD9484110
Probable space group: C M M M
;
_chemical_formula_sum "Si O2"
_cell_formula_units_Z 72
_cell_length_a 22.417083
_cell_length_b 7.523977
_cell_length_c 19.623757
_cell_angle_alpha 90.000000
_cell_angle_beta 90.000000
_cell_angle_gamma 90.000000
_cell_volume 3309.853080
_symmetry_space_group_name_H-M "C M M M"
_symmetry_group_IT_number 65
_symmetry_cell_setting 'orthorhombic'
loop_
_space_group_symop_operation_xyz
x,y,z
-x,-y,z
x,-y,-z
-x,y,-z
-x,-y,-z
x,y,-z
-x,y,z
x,-y,z
1/2+x,1/2+y,z
1/2-x,1/2-y,z
1/2+x,1/2-y,-z
1/2-x,1/2+y,-z
1/2-x,1/2-y,-z
1/2+x,1/2+y,-z
1/2-x,1/2+y,z
1/2+x,1/2-y,z
loop_
_atom_site_type_symbol
_atom_site_label
_atom_site_fract_x
_atom_site_fract_y
_atom_site_fract_z
Si Si1 0.319510 0.710407 0.426584
Si Si2 0.068687 0.282251 0.834089
Si Si3 0.682981 0.786814 0.922046
Si Si4 0.404734 0.794416 0.317767
Si Si5 0.500000 0.781914 0.576314
O O1 0.345665 0.779150 0.500000
O O2 0.328917 0.500000 0.425280
O O3 0.250000 0.750000 0.430192
O O4 0.341546 0.785558 0.354483
O O5 0.069041 0.500000 0.835935
O O6 0.124323 0.223628 0.881195
O O7 0.083985 0.220530 0.756994
O O8 0.000000 0.229828 0.851331
O O9 0.750000 0.750000 0.894038
O O10 0.678223 0.000000 0.924190
O O11 0.681684 0.719040 0.000000
O O12 0.444893 0.719791 0.378440
O O13 0.422228 0.000000 0.310466
O O14 0.500000 0.716021 0.500000
O O15 0.500000 0.000000 0.572932
#
# Coordination Sequence:
#
# PCOD9484110 Si02
#       5
#    16  16  16  16   8
#     4  10  21  36  52  71  97 130 169 215 264 313
#     4   9  17  31  52  79 109 139 175 219 264 309
#     4   9  18  33  54  79 107 140 177 218 263 314
#     4  10  18  31  51  74 100 131 167 210 256 306
#     4   9  16  26  45  71  94 124 166 203 241 295
#
# _framework density 21.753233000000002
#
# number of rings (size 3 to 8) (size 9 to 14) (size 15 to 20)
#    0.000    2.556    1.111    1.333    0.000    3.556 
#    0.000    6.111    0.000    4.000    0.000    3.111 
#    0.000    0.000    0.000    0.000    0.000    0.000 
#
# Total GULP energy -200525.374157 kJ/mol
# GULP energy per Si atom -5570.149282 kJ/mol
# Density = 2.170372 g / cm^3
# Si number density = 21.753233 Si / 1000 Ang^3
#
#
#
# Elastic Constant Matrix: (Units=GPa)
#
#
# Indices 1 2 3 4 5 6 
#
# 1 167.1945 -2.5713 95.8355 0.0000 0.0000 0.0000
# 2 -2.5713 62.2774 6.6562 0.0000 0.0000 0.0000
# 3 95.8355 6.6562 130.9974 0.0000 0.0000 0.0000
# 4 0.0000 0.0000 0.0000 4.6905 0.0000 0.0000
# 5 0.0000 0.0000 0.0000 0.0000 22.1578 0.0000
# 6 0.0000 0.0000 0.0000 0.0000 0.0000 11.8632
#
#
#
# Elastic Compliance Matrix: (Units=1/GPa)
#
#
# Indices 1 2 3 4 5 6 
#
# 1 0.010396 0.001249 -0.007669 0.000000 0.000000 0.000000
# 2 0.001249 0.016295 -0.001742 0.000000 0.000000 0.000000
# 3 -0.007669 -0.001742 0.013333 0.000000 0.000000 0.000000
# 4 0.000000 0.000000 0.000000 0.213198 0.000000 0.000000
# 5 0.000000 0.000000 0.000000 0.000000 0.045131 0.000000
# 6 0.000000 0.000000 0.000000 0.000000 0.000000 0.084294
#
#
# Mechanical properties :
#
#
# Convention : Reuss Voigt Hill
#
# Bulk Modulus (GPa) = 42.19379 62.25670 52.22524
# Shear Modulus (GPa) = 12.28890 25.11221 18.70056
#
# Velocity S-wave (km/s) = 2.37939 3.40135 2.93519
# Velocity P-wave (km/s) = 5.19493 6.64133 5.96215
#
# Compressibility (1/GPa) = 0.02370017
#
# Stress axis : x y z
#
# Youngs Moduli (GPa) = 96.18893 61.36890 75.00269
#
# Poissons Ratio (x) = -0.07664 0.57521
# Poissons Ratio (y) = -0.12013 0.13063
# Poissons Ratio (z) = 0.73769 0.10688
#
# Static dielectric constant tensor:
#      x y z
#    x 2.005480 0.000000 0.000000 
#    y 0.000000 1.848700 0.000000 
#    z 0.000000 0.000000 1.790360 
# 
# From -- ./inp_files/49486.got.cif
#   From: 2010.05.17/outbox.cif.g08.bks.cpg/sg65_25_cif.got.tgz:49486.got - 2010.06.03 17:01:31.
