data_PCOD9484585
_publ_section_title
;
Structure prediction by ZEFSAII (Michael W. Deem and Ramdas Pophale) SiO2 
 PCOD9484585
Probable space group: C M M M
;
_chemical_formula_sum "Si O2"
_cell_formula_units_Z 84
_cell_length_a 11.089779
_cell_length_b 30.540053
_cell_length_c 12.328336
_cell_angle_alpha 90.000000
_cell_angle_beta 90.000000
_cell_angle_gamma 90.000000
_cell_volume 4175.390898
_symmetry_space_group_name_H-M "C M M M"
_symmetry_group_IT_number 65
_symmetry_cell_setting 'orthorhombic'
loop_
_space_group_symop_operation_xyz
x,y,z
-x,-y,z
x,-y,-z
-x,y,-z
-x,-y,-z
x,y,-z
-x,y,z
x,-y,z
1/2+x,1/2+y,z
1/2-x,1/2-y,z
1/2+x,1/2-y,-z
1/2-x,1/2+y,-z
1/2-x,1/2-y,-z
1/2+x,1/2+y,-z
1/2-x,1/2+y,z
1/2+x,1/2-y,z
loop_
_atom_site_type_symbol
_atom_site_label
_atom_site_fract_x
_atom_site_fract_y
_atom_site_fract_z
Si Si1 0.500000 0.354541 0.735756
Si Si2 0.728155 0.046845 0.733239
Si Si3 0.500000 0.599829 0.500000
Si Si4 0.251744 0.699171 0.733404
Si Si5 0.225107 0.424866 0.500000
Si Si6 0.144891 0.323875 0.500000
Si Si7 0.857929 0.626942 0.122168
Si Si8 0.000000 0.048735 0.208749
O O1 0.500000 0.372462 0.611611
O O2 0.618622 0.324607 0.745825
O O3 0.500000 0.397789 0.815678
O O4 0.682857 0.053819 0.611543
O O5 0.694655 0.086807 0.809459
O O6 0.873606 0.046077 0.729679
O O7 0.686098 0.000000 0.776622
O O8 0.628326 0.575195 0.500000
O O9 0.250000 0.750000 0.762638
O O10 0.203597 0.694984 0.609796
O O11 0.167468 0.671023 0.812181
O O12 0.179085 0.375116 0.500000
O O13 0.000000 0.317894 0.500000
O O14 0.000000 0.620181 0.116278
O O15 0.807947 0.628421 0.000000
O O16 0.000000 0.000000 0.145933
#
# Coordination Sequence:
#
# PCOD9484585 Si02
#       8
#     8  16   4  16   8   8  16   8
#     4  12  20  40  63  96 128 175 214 270 323 390
#     4  11  22  38  63  97 133 169 214 265 325 393
#     4  12  16  32  57  84 136 172 214 254 307 382
#     4  12  26  43  67  98 133 170 217 269 328 393
#     4  12  19  35  60  95 130 175 210 258 324 390
#     4  12  23  39  64  94 134 180 214 256 320 381
#     4  11  25  47  70  90 123 170 220 273 325 385
#     4  10  18  34  61  95 131 171 211 261 328 389
#
# _framework density 20.117875999999999
#
# number of rings (size 3 to 8) (size 9 to 14) (size 15 to 20)
#    0.000    0.571    7.619    1.143    2.667    1.143 
#    0.000    5.000    0.000    3.429    0.000    0.000 
#    0.000    0.000    0.000    0.000    0.000    0.000 
#
# Total GULP energy -234201.894913 kJ/mol
# GULP energy per Si atom -5576.235593 kJ/mol
# Density = 2.007209 g / cm^3
# Si number density = 20.117876 Si / 1000 Ang^3
#
#
#
# Elastic Constant Matrix: (Units=GPa)
#
#
# Indices 1 2 3 4 5 6 
#
# 1 74.9565 26.3733 12.7984 0.0000 0.0000 0.0000
# 2 26.3733 187.6822 51.4208 0.0000 0.0000 0.0000
# 3 12.7984 51.4208 109.1620 0.0000 0.0000 0.0000
# 4 0.0000 0.0000 0.0000 -10.6072 0.0000 0.0000
# 5 0.0000 0.0000 0.0000 0.0000 19.9712 0.0000
# 6 0.0000 0.0000 0.0000 0.0000 0.0000 3.2139
#
#
#
# Elastic Compliance Matrix: (Units=1/GPa)
#
#
# Indices 1 2 3 4 5 6 
#
# 1 0.014100 -0.001755 -0.000826 0.000000 0.000000 0.000000
# 2 -0.001755 0.006336 -0.002779 0.000000 0.000000 0.000000
# 3 -0.000826 -0.002779 0.010567 0.000000 0.000000 0.000000
# 4 0.000000 0.000000 0.000000 -0.094276 0.000000 0.000000
# 5 0.000000 0.000000 0.000000 0.000000 0.050072 0.000000
# 6 0.000000 0.000000 0.000000 0.000000 0.000000 0.311151
#
#
# Mechanical properties :
#
#
# Convention : Reuss Voigt Hill
#
# Bulk Modulus (GPa) = 49.30496 61.44287 55.37391
# Shear Modulus (GPa) = 15.85137 21.26280 18.55708
#
# Velocity S-wave (km/s) = 2.81004 3.25454 3.04043
# Velocity P-wave (km/s) = 5.92366 6.68808 6.31744
#
# Compressibility (1/GPa) = 0.02028193
#
# Stress axis : x y z
#
# Youngs Moduli (GPa) = 70.92382 157.82571 94.63799
#
# Poissons Ratio (x) = 0.27696 0.07821
# Poissons Ratio (y) = 0.12446 0.26299
# Poissons Ratio (z) = 0.05861 0.43858
#
# Static dielectric constant tensor:
#      x y z
#    x 1.718100 0.000000 0.000000 
#    y 0.000000 1.729040 0.000000 
#    z 0.000000 0.000000 1.710250 
# 
# From -- ./inp_files/23056.got.cif
#   From: 2010.05.17/outbox.cif.g08.bks.cpg/sg65_12_cif.got.tgz:23056.got - 2010.06.03 17:01:31.
