data_PCOD9484512
_publ_section_title
;
Structure prediction by ZEFSAII (Michael W. Deem and Ramdas Pophale) SiO2 
 PCOD9484512
Probable space group: C M M M
;
_chemical_formula_sum "Si O2"
_cell_formula_units_Z 88
_cell_length_a 7.964754
_cell_length_b 24.192688
_cell_length_c 23.812893
_cell_angle_alpha 90.000000
_cell_angle_beta 90.000000
_cell_angle_gamma 90.000000
_cell_volume 4588.477980
_symmetry_space_group_name_H-M "C M M M"
_symmetry_group_IT_number 65
_symmetry_cell_setting 'orthorhombic'
loop_
_space_group_symop_operation_xyz
x,y,z
-x,-y,z
x,-y,-z
-x,y,-z
-x,-y,-z
x,y,-z
-x,y,z
x,-y,z
1/2+x,1/2+y,z
1/2-x,1/2-y,z
1/2+x,1/2-y,-z
1/2-x,1/2+y,-z
1/2-x,1/2-y,-z
1/2+x,1/2+y,-z
1/2-x,1/2+y,z
1/2+x,1/2-y,z
loop_
_atom_site_type_symbol
_atom_site_label
_atom_site_fract_x
_atom_site_fract_y
_atom_site_fract_z
Si Si1 0.199714 0.813843 0.281981
Si Si2 0.294437 0.065466 0.500000
Si Si3 0.701389 0.377574 0.170919
Si Si4 0.702039 0.890979 0.619452
Si Si5 0.794908 0.500000 0.315713
Si Si6 0.297375 0.685916 0.938427
Si Si7 0.200800 0.500000 0.812037
O O1 0.250000 0.750000 0.275135
O O2 0.266801 0.851503 0.229880
O O3 0.251510 0.838785 0.342308
O O4 0.000000 0.816631 0.279753
O O5 0.500000 0.064004 0.500000
O O6 0.239651 0.098414 0.555760
O O7 0.243987 0.000000 0.500000
O O8 0.500000 0.371105 0.172404
O O9 0.767384 0.345331 0.116438
O O10 0.739860 0.442031 0.163617
O O11 0.500000 0.892124 0.617471
O O12 0.761572 0.944967 0.653310
O O13 0.737330 0.500000 0.252186
O O14 0.000000 0.500000 0.316496
O O15 0.500000 0.681652 0.938217
O O16 0.250000 0.750000 0.934073
O O17 0.238356 0.665822 0.000000
O O18 0.000000 0.500000 0.812029
#
# Coordination Sequence:
#
# PCOD9484512 Si02
#       7
#    16   8  16  16   8  16   8
#     4  11  23  37  54  77 105 139 176 217 264 312
#     4   9  16  28  54  85 108 135 172 212 257 310
#     4  10  21  36  54  79 110 140 173 216 266 316
#     4  10  18  33  55  81 110 137 172 215 259 311
#     4   9  16  28  51  79 106 135 167 208 255 305
#     4   9  18  34  56  80 106 139 179 221 265 312
#     4  11  21  33  53  82 109 141 178 213 259 313
#
# _framework density 19.178470999999998
#
# number of rings (size 3 to 8) (size 9 to 14) (size 15 to 20)
#    0.000    2.091    2.727    1.364    0.000    1.455 
#    0.000    1.818    0.000    3.273    0.000    0.000 
#    0.000    0.000    0.000    0.000    0.000    0.000 
#
# Total GULP energy -245392.269728 kJ/mol
# GULP energy per Si atom -5577.097039 kJ/mol
# Density = 1.913482 g / cm^3
# Si number density = 19.178471 Si / 1000 Ang^3
#
#
#
# Elastic Constant Matrix: (Units=GPa)
#
#
# Indices 1 2 3 4 5 6 
#
# 1 16.2104 -1.7875 14.1411 0.0000 0.0000 0.0000
# 2 -1.7875 111.8326 69.6439 0.0000 0.0000 0.0000
# 3 14.1411 69.6439 160.2641 0.0000 0.0000 0.0000
# 4 0.0000 0.0000 0.0000 95.3857 0.0000 0.0000
# 5 0.0000 0.0000 0.0000 0.0000 9.5499 0.0000
# 6 0.0000 0.0000 0.0000 0.0000 0.0000 4.4804
#
#
#
# Elastic Compliance Matrix: (Units=1/GPa)
#
#
# Indices 1 2 3 4 5 6 
#
# 1 0.070466 0.006853 -0.009196 0.000000 0.000000 0.000000
# 2 0.006853 0.012926 -0.006222 0.000000 0.000000 0.000000
# 3 -0.009196 -0.006222 0.009755 0.000000 0.000000 0.000000
# 4 0.000000 0.000000 0.000000 0.010484 0.000000 0.000000
# 5 0.000000 0.000000 0.000000 0.000000 0.104713 0.000000
# 6 0.000000 0.000000 0.000000 0.000000 0.000000 0.223192
#
#
# Mechanical properties :
#
#
# Convention : Reuss Voigt Hill
#
# Bulk Modulus (GPa) = 13.15476 50.25580 31.70528
# Shear Modulus (GPa) = 10.54841 35.63717 23.09279
#
# Velocity S-wave (km/s) = 2.34778 4.31534 3.47378
# Velocity P-wave (km/s) = 3.77140 7.14778 5.71464
#
# Compressibility (1/GPa) = 0.07601810
#
# Stress axis : x y z
#
# Youngs Moduli (GPa) = 14.19119 77.36268 102.51327
#
# Poissons Ratio (x) = -0.53016 0.94268
# Poissons Ratio (y) = -0.09725 0.63782
# Poissons Ratio (z) = 0.13050 0.48134
#
# Static dielectric constant tensor:
#      x y z
#    x 1.688210 0.000000 0.000000 
#    y 0.000000 1.688030 0.000000 
#    z 0.000000 0.000000 1.698780 
# 
# From -- ./inp_files/67605.got.cif
#   From: 2010.05.17/outbox.cif.g08.bks.cpg/sg65_34_cif.got.tgz:67605.got - 2010.06.03 17:01:31.
