data_PCOD9484648
_publ_section_title
;
Structure prediction by ZEFSAII (Michael W. Deem and Ramdas Pophale) SiO2 
 PCOD9484648
Probable space group: C M M M
;
_chemical_formula_sum "Si O2"
_cell_formula_units_Z 104
_cell_length_a 8.848752
_cell_length_b 27.813037
_cell_length_c 27.303791
_cell_angle_alpha 90.000000
_cell_angle_beta 90.000000
_cell_angle_gamma 90.000000
_cell_volume 6719.754209
_symmetry_space_group_name_H-M "C M M M"
_symmetry_group_IT_number 65
_symmetry_cell_setting 'orthorhombic'
loop_
_space_group_symop_operation_xyz
x,y,z
-x,-y,z
x,-y,-z
-x,y,-z
-x,-y,-z
x,y,-z
-x,y,z
x,-y,z
1/2+x,1/2+y,z
1/2-x,1/2-y,z
1/2+x,1/2-y,-z
1/2-x,1/2+y,-z
1/2-x,1/2-y,-z
1/2+x,1/2+y,-z
1/2-x,1/2+y,z
1/2+x,1/2-y,z
loop_
_atom_site_type_symbol
_atom_site_label
_atom_site_fract_x
_atom_site_fract_y
_atom_site_fract_z
Si Si1 0.680949 0.101446 0.403395
Si Si2 0.818943 0.303834 0.946340
Si Si3 0.318233 0.945039 0.299634
Si Si4 0.180494 0.851943 0.255592
Si Si5 0.680698 0.444299 0.500000
Si Si6 0.819004 0.196531 0.152895
Si Si7 0.681132 0.801404 0.349710
O O1 0.500000 0.099415 0.410261
O O2 0.718314 0.068961 0.355888
O O3 0.759875 0.082188 0.451633
O O4 0.721168 0.155903 0.387600
O O5 0.750000 0.250000 0.947580
O O6 0.748079 0.325582 0.897210
O O7 0.000000 0.300925 0.941530
O O8 0.784492 0.325705 0.000000
O O9 0.500000 0.940020 0.294718
O O10 0.238556 0.905638 0.265969
O O11 0.276429 0.000000 0.289562
O O12 0.218435 0.833395 0.201439
O O13 0.256782 0.818572 0.296977
O O14 0.000000 0.849530 0.261671
O O15 0.732747 0.500000 0.500000
O O16 0.500000 0.443995 0.500000
O O17 0.750000 0.250000 0.158472
O O18 0.000000 0.200374 0.148548
O O19 0.500000 0.798549 0.347215
O O20 0.750000 0.750000 0.362605
#
# Coordination Sequence:
#
# PCOD9484648 Si02
#       7
#    16  16  16  16   8  16  16
#     4   9  19  35  53  72  94 121 152 183 219 269
#     4   9  16  25  38  56  79 111 150 188 226 266
#     4   9  18  33  52  72  93 119 151 186 227 273
#     4  10  20  31  45  68  95 123 155 189 226 269
#     4  11  23  35  50  75 100 119 146 187 230 269
#     4  10  19  28  40  60  87 120 155 188 223 263
#     4  10  20  34  52  72  94 123 157 190 226 268
#
# _framework density 15.476756
#
# number of rings (size 3 to 8) (size 9 to 14) (size 15 to 20)
#    0.000    2.385    0.000    4.846    0.000    9.231 
#    0.000    0.385    0.000    0.000    0.000    0.000 
#    0.000    0.615    0.000    6.769    0.000    4.923 
#
# Total GULP energy -289928.878641 kJ/mol
# GULP energy per Si atom -5575.555358 kJ/mol
# Density = 1.544153 g / cm^3
# Si number density = 15.476756 Si / 1000 Ang^3
#
#
#
# Elastic Constant Matrix: (Units=GPa)
#
#
# Indices 1 2 3 4 5 6 
#
# 1 51.5654 39.7227 56.8372 0.0000 0.0000 0.0000
# 2 39.7227 98.6535 64.7398 0.0000 0.0000 0.0000
# 3 56.8372 64.7398 148.5074 0.0000 0.0000 0.0000
# 4 0.0000 0.0000 0.0000 14.3871 0.0000 0.0000
# 5 0.0000 0.0000 0.0000 0.0000 27.6103 0.0000
# 6 0.0000 0.0000 0.0000 0.0000 0.0000 22.8384
#
#
#
# Elastic Compliance Matrix: (Units=1/GPa)
#
#
# Indices 1 2 3 4 5 6 
#
# 1 0.037536 -0.007965 -0.010894 0.000000 0.000000 0.000000
# 2 -0.007965 0.015888 -0.003878 0.000000 0.000000 0.000000
# 3 -0.010894 -0.003878 0.012593 0.000000 0.000000 0.000000
# 4 0.000000 0.000000 0.000000 0.069506 0.000000 0.000000
# 5 0.000000 0.000000 0.000000 0.000000 0.036218 0.000000
# 6 0.000000 0.000000 0.000000 0.000000 0.000000 0.043786
#
#
# Mechanical properties :
#
#
# Convention : Reuss Voigt Hill
#
# Bulk Modulus (GPa) = 48.67456 69.03620 58.85538
# Shear Modulus (GPa) = 18.66716 22.12894 20.39805
#
# Velocity S-wave (km/s) = 3.47672 3.78540 3.63434
# Velocity P-wave (km/s) = 6.90182 7.98804 7.46472
#
# Compressibility (1/GPa) = 0.02054461
#
# Stress axis : x y z
#
# Youngs Moduli (GPa) = 26.64114 62.93887 79.40636
#
# Poissons Ratio (x) = 0.50131 0.86502
# Poissons Ratio (y) = 0.21220 0.30793
# Poissons Ratio (z) = 0.29022 0.24407
#
# Static dielectric constant tensor:
#      x y z
#    x 1.518920 0.000000 0.000000 
#    y 0.000000 1.498740 0.000000 
#    z 0.000000 0.000000 1.526430 
# 
# From -- ./inp_files/68205.got.cif
#   From: 2010.05.17/outbox.cif.g08.bks.cpg/sg65_35_cif.got.tgz:68205.got - 2010.06.03 17:01:31.
