data_PCOD9484228
_publ_section_title
;
Structure prediction by ZEFSAII (Michael W. Deem and Ramdas Pophale) SiO2 
 PCOD9484228
Probable space group: C M M M
;
_chemical_formula_sum "Si O2"
_cell_formula_units_Z 90
_cell_length_a 24.336955
_cell_length_b 23.978157
_cell_length_c 7.407917
_cell_angle_alpha 90.000000
_cell_angle_beta 90.000000
_cell_angle_gamma 90.000000
_cell_volume 4322.929434
_symmetry_space_group_name_H-M "C M M M"
_symmetry_group_IT_number 65
_symmetry_cell_setting 'orthorhombic'
loop_
_space_group_symop_operation_xyz
x,y,z
-x,-y,z
x,-y,-z
-x,y,-z
-x,-y,-z
x,y,-z
-x,y,z
x,-y,z
1/2+x,1/2+y,z
1/2-x,1/2-y,z
1/2+x,1/2-y,-z
1/2-x,1/2+y,-z
1/2-x,1/2-y,-z
1/2+x,1/2+y,-z
1/2-x,1/2+y,z
1/2+x,1/2-y,z
loop_
_atom_site_type_symbol
_atom_site_label
_atom_site_fract_x
_atom_site_fract_y
_atom_site_fract_z
Si Si1 0.245214 0.311876 0.207948
Si Si2 0.862089 0.378992 0.291530
Si Si3 0.936520 0.061366 0.719883
Si Si4 0.630823 0.331862 0.281372
Si Si5 0.436205 0.221687 0.720967
Si Si6 0.897290 0.500000 0.721654
Si Si7 0.000000 0.500000 0.000000
O O1 0.250000 0.250000 0.291571
O O2 0.198002 0.351342 0.283748
O O3 0.306453 0.335009 0.220804
O O4 0.228972 0.304455 0.000000
O O5 0.877923 0.382405 0.500000
O O6 0.905629 0.334340 0.213548
O O7 0.865952 0.442500 0.227239
O O8 0.935847 0.062036 0.500000
O O9 0.901731 0.113748 0.781023
O O10 0.000000 0.067239 0.773793
O O11 0.916790 0.000000 0.776274
O O12 0.630895 0.331127 0.500000
O O13 0.599657 0.275420 0.222995
O O14 0.435939 0.222076 0.500000
O O15 0.500000 0.224851 0.775987
O O16 0.905673 0.500000 0.500000
O O17 0.952263 0.500000 0.839740
#
# Coordination Sequence:
#
# PCOD9484228 Si02
#       7
#    16  16  16  16  16   8   2
#     4  11  23  38  57  80 113 154 197 246 297 362
#     4  10  21  40  63  86 119 155 201 255 306 365
#     4   8  14  26  47  78 113 142 171 218 276 334
#     4  10  18  31  54  81 108 143 191 234 283 349
#     4   9  17  29  52  85 114 142 181 238 300 358
#     4  10  25  45  67 100 131 167 217 268 318 384
#     4  12  26  44  76  98 128 180 210 264 324 402
#
# _framework density 20.819215
#
# number of rings (size 3 to 8) (size 9 to 14) (size 15 to 20)
#    0.000    2.311    1.778    1.733    2.489    2.844 
#    1.600    0.000    0.000    3.200    0.000    1.244 
#    0.000    0.000    0.000    0.000    0.000    0.000 
#
# Total GULP energy -250844.964253 kJ/mol
# GULP energy per Si atom -5574.332539 kJ/mol
# Density = 2.077183 g / cm^3
# Si number density = 20.819215 Si / 1000 Ang^3
#
#
#
# Elastic Constant Matrix: (Units=GPa)
#
#
# Indices 1 2 3 4 5 6 
#
# 1 138.4629 86.3976 -6.0856 0.0000 0.0000 0.0000
# 2 86.3976 183.9911 8.0280 0.0000 0.0000 0.0000
# 3 -6.0856 8.0280 73.8755 0.0000 0.0000 0.0000
# 4 0.0000 0.0000 0.0000 -7.0107 0.0000 0.0000
# 5 0.0000 0.0000 0.0000 0.0000 37.0323 0.0000
# 6 0.0000 0.0000 0.0000 0.0000 0.0000 16.0190
#
#
#
# Elastic Compliance Matrix: (Units=1/GPa)
#
#
# Indices 1 2 3 4 5 6 
#
# 1 0.010355 -0.004923 0.001388 0.000000 0.000000 0.000000
# 2 -0.004923 0.007801 -0.001253 0.000000 0.000000 0.000000
# 3 0.001388 -0.001253 0.013787 0.000000 0.000000 0.000000
# 4 0.000000 0.000000 0.000000 -0.142640 0.000000 0.000000
# 5 0.000000 0.000000 0.000000 0.000000 0.027003 0.000000
# 6 0.000000 0.000000 0.000000 0.000000 0.000000 0.062426
#
#
# Mechanical properties :
#
#
# Convention : Reuss Voigt Hill
#
# Bulk Modulus (GPa) = 44.70951 63.66770 54.18860
# Shear Modulus (GPa) = -1180.65734 29.74076 -575.45829
#
# Velocity S-wave (km/s) = -23.83969 3.78368 -16.64354
# Velocity P-wave (km/s) = 27.13398 7.05237 18.52724
#
# Compressibility (1/GPa) = 0.02236661
#
# Stress axis : x y z
#
# Youngs Moduli (GPa) = 96.57176 128.18128 72.53300
#
# Poissons Ratio (x) = 0.63104 -0.10068
# Poissons Ratio (y) = 0.47542 0.09091
# Poissons Ratio (z) = -0.13404 0.16065
#
# Static dielectric constant tensor:
#      x y z
#    x 1.693260 0.000000 0.000000 
#    y 0.000000 1.760050 0.000000 
#    z 0.000000 0.000000 1.813220 
# 
# From -- ./inp_files/14044.got.cif
#   From: 2010.05.17/outbox.cif.g08.bks.cpg/sg65_8_cif.got.tgz:14044.got - 2010.06.03 17:01:31.
