data_PCOD9484379
_publ_section_title
;
Structure prediction by ZEFSAII (Michael W. Deem and Ramdas Pophale) SiO2 
 PCOD9484379
Probable space group: C M M M
;
_chemical_formula_sum "Si O2"
_cell_formula_units_Z 80
_cell_length_a 7.425602
_cell_length_b 23.664140
_cell_length_c 21.630326
_cell_angle_alpha 90.000000
_cell_angle_beta 90.000000
_cell_angle_gamma 90.000000
_cell_volume 3800.891382
_symmetry_space_group_name_H-M "C M M M"
_symmetry_group_IT_number 65
_symmetry_cell_setting 'orthorhombic'
loop_
_space_group_symop_operation_xyz
x,y,z
-x,-y,z
x,-y,-z
-x,y,-z
-x,-y,-z
x,y,-z
-x,y,z
x,-y,z
1/2+x,1/2+y,z
1/2-x,1/2-y,z
1/2+x,1/2-y,-z
1/2-x,1/2+y,-z
1/2-x,1/2-y,-z
1/2+x,1/2+y,-z
1/2-x,1/2+y,z
1/2+x,1/2-y,z
loop_
_atom_site_type_symbol
_atom_site_label
_atom_site_fract_x
_atom_site_fract_y
_atom_site_fract_z
Si Si1 0.284338 0.000000 0.898398
Si Si2 0.215754 0.183771 0.191220
Si Si3 0.206540 0.881881 0.308229
Si Si4 0.789974 0.125989 0.066746
Si Si5 0.282674 0.000000 0.754527
Si Si6 0.280016 0.565235 0.429925
O O1 0.219862 0.058288 0.927671
O O2 0.231341 0.000000 0.826402
O O3 0.500000 0.000000 0.902274
O O4 0.250000 0.250000 0.186813
O O5 0.288159 0.158438 0.255736
O O6 0.287180 0.152533 0.129701
O O7 0.000000 0.173466 0.192627
O O8 0.210222 0.943939 0.277517
O O9 0.285294 0.892981 0.376257
O O10 0.000000 0.863319 0.317693
O O11 0.000000 0.142390 0.065667
O O12 0.711635 0.142990 0.000000
O O13 0.500000 0.000000 0.750335
O O14 0.227026 0.579509 0.500000
O O15 0.500000 0.565206 0.427969
O O16 0.225141 0.500000 0.417666
#
# Coordination Sequence:
#
# PCOD9484379 Si02
#       6
#     8  16  16  16   8  16
#     4  11  22  34  51  79 111 137 163 200 251 305
#     4  10  22  37  54  74  96 129 174 216 255 296
#     4  10  18  32  54  75  99 135 172 206 247 300
#     4  10  21  37  56  77 102 133 167 205 251 304
#     4  11  21  30  47  78 108 134 163 204 254 297
#     4   8  13  22  43  77 107 128 159 204 245 286
#
# _framework density 21.047692999999999
#
# number of rings (size 3 to 8) (size 9 to 14) (size 15 to 20)
#    0.000    2.200    3.000    1.500    0.000    4.400 
#    0.000    0.000    0.000    1.800    0.000    0.000 
#    0.000    0.000    0.000    0.000    0.000    0.000 
#
# Total GULP energy -223270.081436 kJ/mol
# GULP energy per Si atom -5581.752036 kJ/mol
# Density = 2.099979 g / cm^3
# Si number density = 21.047693 Si / 1000 Ang^3
#
#
#
# Elastic Constant Matrix: (Units=GPa)
#
#
# Indices 1 2 3 4 5 6 
#
# 1 72.5377 -13.2646 9.7705 0.0000 0.0000 0.0000
# 2 -13.2646 96.1746 68.4364 0.0000 0.0000 0.0000
# 3 9.7705 68.4364 228.0915 0.0000 0.0000 0.0000
# 4 0.0000 0.0000 0.0000 -12.3784 0.0000 0.0000
# 5 0.0000 0.0000 0.0000 0.0000 -9.3405 0.0000
# 6 0.0000 0.0000 0.0000 0.0000 0.0000 32.2719
#
#
#
# Elastic Compliance Matrix: (Units=1/GPa)
#
#
# Indices 1 2 3 4 5 6 
#
# 1 0.014566 0.003119 -0.001560 0.000000 0.000000 0.000000
# 2 0.003119 0.013888 -0.004301 0.000000 0.000000 0.000000
# 3 -0.001560 -0.004301 0.005741 0.000000 0.000000 0.000000
# 4 0.000000 0.000000 0.000000 -0.080786 0.000000 0.000000
# 5 0.000000 0.000000 0.000000 0.000000 -0.107061 0.000000
# 6 0.000000 0.000000 0.000000 0.000000 0.000000 0.030987
#
#
# Mechanical properties :
#
#
# Convention : Reuss Voigt Hill
#
# Bulk Modulus (GPa) = 34.82742 58.52096 46.67419
# Shear Modulus (GPa) = -46.46410 24.23469 -11.11470
#
# Velocity S-wave (km/s) = -4.70357 3.39694 -2.30048
# Velocity P-wave (km/s) = 3.59378 6.57647 3.89453
#
# Compressibility (1/GPa) = 0.02871301
#
# Stress axis : x y z
#
# Youngs Moduli (GPa) = 68.65132 72.00377 174.17457
#
# Poissons Ratio (x) = -0.22457 0.27167
# Poissons Ratio (y) = -0.21412 0.74905
# Poissons Ratio (z) = 0.10708 0.30966
#
# Static dielectric constant tensor:
#      x y z
#    x 1.784180 0.000000 0.000000 
#    y 0.000000 1.686410 0.000000 
#    z 0.000000 0.000000 1.812920 
# 
# From -- ./inp_files/59672.got.cif
#   From: 2010.05.17/outbox.cif.g08.bks.cpg/sg65_30_cif.got.tgz:59672.got - 2010.06.03 17:01:31.
