data_PCOD9484409
_publ_section_title
;
Structure prediction by ZEFSAII (Michael W. Deem and Ramdas Pophale) SiO2 
 PCOD9484409
Probable space group: C M M M
;
_chemical_formula_sum "Si O2"
_cell_formula_units_Z 88
_cell_length_a 8.586842
_cell_length_b 24.172989
_cell_length_c 23.776612
_cell_angle_alpha 90.000000
_cell_angle_beta 90.000000
_cell_angle_gamma 90.000000
_cell_volume 4935.302727
_symmetry_space_group_name_H-M "C M M M"
_symmetry_group_IT_number 65
_symmetry_cell_setting 'orthorhombic'
loop_
_space_group_symop_operation_xyz
x,y,z
-x,-y,z
x,-y,-z
-x,y,-z
-x,-y,-z
x,y,-z
-x,y,z
x,-y,z
1/2+x,1/2+y,z
1/2-x,1/2-y,z
1/2+x,1/2-y,-z
1/2-x,1/2+y,-z
1/2-x,1/2-y,-z
1/2+x,1/2+y,-z
1/2-x,1/2+y,z
1/2+x,1/2-y,z
loop_
_atom_site_type_symbol
_atom_site_label
_atom_site_fract_x
_atom_site_fract_y
_atom_site_fract_z
Si Si1 0.314011 0.812744 0.381890
Si Si2 0.187009 0.500000 0.243894
Si Si3 0.688379 0.614653 0.063642
Si Si4 0.687288 0.617864 0.277436
Si Si5 0.813866 0.812841 0.500000
Si Si6 0.687699 0.311705 0.167725
Si Si7 0.313358 0.000000 0.111916
O O1 0.500000 0.810073 0.384010
O O2 0.250000 0.750000 0.374697
O O3 0.256884 0.850139 0.330610
O O4 0.249712 0.836031 0.441258
O O5 0.252744 0.444553 0.271849
O O6 0.233095 0.500000 0.177758
O O7 0.000000 0.500000 0.246807
O O8 0.500000 0.613347 0.064688
O O9 0.740791 0.659036 0.110092
O O10 0.748575 0.554728 0.082340
O O11 0.738342 0.627440 0.000000
O O12 0.500000 0.618347 0.280790
O O13 0.734993 0.650750 0.220785
O O14 0.750000 0.750000 0.500000
O O15 0.000000 0.812670 0.500000
O O16 0.500000 0.309916 0.167289
O O17 0.750000 0.250000 0.173240
O O18 0.500000 0.000000 0.108946
#
# Coordination Sequence:
#
# PCOD9484409 Si02
#       7
#    16   8  16  16   8  16   8
#     4  11  21  35  56  86 122 157 194 236 282 333
#     4  11  23  38  58  84 111 144 181 232 287 340
#     4  10  21  38  58  79 106 144 185 226 278 340
#     4  11  22  38  59  83 111 148 190 234 283 338
#     4  10  18  32  54  83 118 157 198 236 279 328
#     4  10  22  37  55  79 108 143 183 227 277 334
#     4  11  22  36  57  84 111 137 177 230 285 333
#
# _framework density 17.830718999999998
#
# number of rings (size 3 to 8) (size 9 to 14) (size 15 to 20)
#    0.000    1.455    1.818    5.455    0.000    6.182 
#    0.000    0.000    0.000    0.545    0.000    3.818 
#    0.000    0.000    0.000    0.000    0.000    0.000 
#
# Total GULP energy -245845.255414 kJ/mol
# GULP energy per Si atom -5587.392169 kJ/mol
# Density = 1.779014 g / cm^3
# Si number density = 17.830719 Si / 1000 Ang^3
#
#
#
# Elastic Constant Matrix: (Units=GPa)
#
#
# Indices 1 2 3 4 5 6 
#
# 1 80.4873 37.4932 58.5648 0.0000 0.0000 0.0000
# 2 37.4932 138.4425 83.0875 0.0000 0.0000 0.0000
# 3 58.5648 83.0875 181.9894 0.0000 0.0000 0.0000
# 4 0.0000 0.0000 0.0000 -80.8093 0.0000 0.0000
# 5 0.0000 0.0000 0.0000 0.0000 26.1740 0.0000
# 6 0.0000 0.0000 0.0000 0.0000 0.0000 28.3646
#
#
#
# Elastic Compliance Matrix: (Units=1/GPa)
#
#
# Indices 1 2 3 4 5 6 
#
# 1 0.016532 -0.001769 -0.004512 0.000000 0.000000 0.000000
# 2 -0.001769 0.010139 -0.004060 0.000000 0.000000 0.000000
# 3 -0.004512 -0.004060 0.008800 0.000000 0.000000 0.000000
# 4 0.000000 0.000000 0.000000 -0.012375 0.000000 0.000000
# 5 0.000000 0.000000 0.000000 0.000000 0.038206 0.000000
# 6 0.000000 0.000000 0.000000 0.000000 0.000000 0.035255
#
#
# Mechanical properties :
#
#
# Convention : Reuss Voigt Hill
#
# Bulk Modulus (GPa) = 67.61839 84.35669 75.98754
# Shear Modulus (GPa) = 40.92719 9.53077 25.22898
#
# Velocity S-wave (km/s) = 4.79615 2.31446 3.76562
# Velocity P-wave (km/s) = 8.28706 7.38612 7.84953
#
# Compressibility (1/GPa) = 0.01478888
#
# Stress axis : x y z
#
# Youngs Moduli (GPa) = 60.49006 98.63209 113.63276
#
# Poissons Ratio (x) = 0.17448 0.51274
# Poissons Ratio (y) = 0.10701 0.46130
# Poissons Ratio (z) = 0.27295 0.40040
#
# Static dielectric constant tensor:
#      x y z
#    x 1.600730 0.000000 0.000000 
#    y 0.000000 1.552940 0.000000 
#    z 0.000000 0.000000 1.627480 
# 
# From -- ./inp_files/67648.got.cif
#   From: 2010.05.17/outbox.cif.g08.bks.cpg/sg65_34_cif.got.tgz:67648.got - 2010.06.03 17:01:31.
