data_PCOD9484408
_publ_section_title
;
Structure prediction by ZEFSAII (Michael W. Deem and Ramdas Pophale) SiO2 
 PCOD9484408
Probable space group: C M M M
;
_chemical_formula_sum "Si O2"
_cell_formula_units_Z 58
_cell_length_a 23.756472
_cell_length_b 8.111364
_cell_length_c 16.186587
_cell_angle_alpha 90.000000
_cell_angle_beta 90.000000
_cell_angle_gamma 90.000000
_cell_volume 3119.113096
_symmetry_space_group_name_H-M "C M M M"
_symmetry_group_IT_number 65
_symmetry_cell_setting 'orthorhombic'
loop_
_space_group_symop_operation_xyz
x,y,z
-x,-y,z
x,-y,-z
-x,y,-z
-x,-y,-z
x,y,-z
-x,y,z
x,-y,z
1/2+x,1/2+y,z
1/2-x,1/2-y,z
1/2+x,1/2-y,-z
1/2-x,1/2+y,-z
1/2-x,1/2-y,-z
1/2+x,1/2+y,-z
1/2-x,1/2+y,z
1/2+x,1/2-y,z
loop_
_atom_site_type_symbol
_atom_site_label
_atom_site_fract_x
_atom_site_fract_y
_atom_site_fract_z
Si Si1 0.000000 0.000000 0.000000
Si Si2 0.315442 0.698879 0.000000
Si Si3 0.882507 0.194804 0.165219
Si Si4 0.315573 0.696094 0.500000
Si Si5 0.000000 0.687241 0.872715
Si Si6 0.315008 0.805332 0.322502
O O1 0.000000 0.849273 0.931073
O O2 0.250000 0.750000 0.000000
O O3 0.348749 0.753078 0.917247
O O4 0.316551 0.500000 0.000000
O O5 0.845928 0.219573 0.246724
O O6 0.941091 0.290324 0.174357
O O7 0.892917 0.000000 0.153295
O O8 0.317991 0.500000 0.500000
O O9 0.250000 0.750000 0.500000
O O10 0.339040 0.761401 0.413173
O O11 0.000000 0.500000 0.907485
O O12 0.250000 0.750000 0.321504
O O13 0.317525 0.000000 0.310679
#
# Coordination Sequence:
#
# PCOD9484408 Si02
#       6
#     2   8  16   8   8  16
#     4  12  22  44  60  86 116 146 198 264 296 344
#     4  10  23  37  56  80 115 153 192 237 292 348
#     4  11  22  40  61  84 119 158 198 252 302 355
#     4  10  18  32  54  83 114 153 194 244 301 360
#     4  12  25  41  65  91 114 158 206 256 311 358
#     4  11  21  35  56  87 120 158 199 247 301 365
#
# _framework density 18.595030000000001
#
# number of rings (size 3 to 8) (size 9 to 14) (size 15 to 20)
#    0.000    1.103    1.379    8.069    1.931    4.414 
#    0.000    0.000    0.000    0.828    0.000    5.793 
#    0.000    0.000    0.000    0.000    0.000    0.000 
#
# Total GULP energy -161575.068684 kJ/mol
# GULP energy per Si atom -5571.554093 kJ/mol
# Density = 1.855271 g / cm^3
# Si number density = 18.595030 Si / 1000 Ang^3
#
#
#
# Elastic Constant Matrix: (Units=GPa)
#
#
# Indices 1 2 3 4 5 6 
#
# 1 105.0123 12.9846 58.4463 0.0000 0.0000 0.0000
# 2 12.9846 101.5811 6.5305 0.0000 0.0000 0.0000
# 3 58.4463 6.5305 143.8437 0.0000 0.0000 0.0000
# 4 0.0000 0.0000 0.0000 14.3473 0.0000 0.0000
# 5 0.0000 0.0000 0.0000 0.0000 60.1778 0.0000
# 6 0.0000 0.0000 0.0000 0.0000 0.0000 27.6595
#
#
#
# Elastic Compliance Matrix: (Units=1/GPa)
#
#
# Indices 1 2 3 4 5 6 
#
# 1 0.012467 -0.001272 -0.005008 0.000000 0.000000 0.000000
# 2 -0.001272 0.010003 0.000063 0.000000 0.000000 0.000000
# 3 -0.005008 0.000063 0.008984 0.000000 0.000000 0.000000
# 4 0.000000 0.000000 0.000000 0.069699 0.000000 0.000000
# 5 0.000000 0.000000 0.000000 0.000000 0.016617 0.000000
# 6 0.000000 0.000000 0.000000 0.000000 0.000000 0.036154
#
#
# Mechanical properties :
#
#
# Convention : Reuss Voigt Hill
#
# Bulk Modulus (GPa) = 52.57625 56.26222 54.41923
# Shear Modulus (GPa) = 28.95216 38.60198 33.77707
#
# Velocity S-wave (km/s) = 3.95014 4.56118 4.26661
# Velocity P-wave (km/s) = 7.01003 7.61981 7.32127
#
# Compressibility (1/GPa) = 0.01902000
#
# Stress axis : x y z
#
# Youngs Moduli (GPa) = 80.21080 99.97126 111.30966
#
# Poissons Ratio (x) = 0.12713 0.55743
# Poissons Ratio (y) = 0.10200 -0.00696
# Poissons Ratio (z) = 0.40169 -0.00626
#
# Static dielectric constant tensor:
#      x y z
#    x 1.637180 0.000000 0.000000 
#    y 0.000000 1.648680 0.000000 
#    z 0.000000 0.000000 1.655080 
# 
# From -- ./inp_files/45036.got.cif
#   From: 2010.05.17/outbox.cif.g08.bks.cpg/sg65_23_cif.got.tgz:45036.got - 2010.06.03 17:01:31.
