data_PCOD9484178
_publ_section_title
;
Structure prediction by ZEFSAII (Michael W. Deem and Ramdas Pophale) SiO2 
 PCOD9484178
Probable space group: C M M M
;
_chemical_formula_sum "Si O2"
_cell_formula_units_Z 88
_cell_length_a 23.243286
_cell_length_b 24.948306
_cell_length_c 8.881837
_cell_angle_alpha 90.000000
_cell_angle_beta 90.000000
_cell_angle_gamma 90.000000
_cell_volume 5150.405071
_symmetry_space_group_name_H-M "C M M M"
_symmetry_group_IT_number 65
_symmetry_cell_setting 'orthorhombic'
loop_
_space_group_symop_operation_xyz
x,y,z
-x,-y,z
x,-y,-z
-x,y,-z
-x,-y,-z
x,y,-z
-x,y,z
x,-y,z
1/2+x,1/2+y,z
1/2-x,1/2-y,z
1/2+x,1/2-y,-z
1/2-x,1/2+y,-z
1/2-x,1/2-y,-z
1/2+x,1/2+y,-z
1/2-x,1/2+y,z
1/2+x,1/2-y,z
loop_
_atom_site_type_symbol
_atom_site_label
_atom_site_fract_x
_atom_site_fract_y
_atom_site_fract_z
Si Si1 0.844121 0.562368 0.679948
Si Si2 0.500000 0.438404 0.316748
Si Si3 0.932068 0.759293 0.679545
Si Si4 0.385762 0.626203 0.317787
Si Si5 0.932809 0.354726 0.179772
Si Si6 0.219691 0.062506 0.180032
O O1 0.841046 0.567419 0.500000
O O2 0.856770 0.500000 0.716689
O O3 0.892357 0.601350 0.744909
O O4 0.781971 0.575235 0.750651
O O5 0.500000 0.500000 0.266050
O O6 0.500000 0.438399 0.500000
O O7 0.557658 0.407379 0.270594
O O8 0.925385 0.751036 0.500000
O O9 0.896463 0.811853 0.723624
O O10 0.916695 0.704851 0.764486
O O11 0.000000 0.770519 0.706122
O O12 0.382131 0.623508 0.500000
O O13 0.329634 0.599966 0.246865
O O14 0.000000 0.362888 0.221531
O O15 0.928086 0.357797 0.000000
O O16 0.206926 0.000000 0.217843
O O17 0.222041 0.067234 0.000000
#
# Coordination Sequence:
#
# PCOD9484178 Si02
#       6
#    16   8  16  16  16  16
#     4  10  21  38  60  83 106 136 175 218 264 314
#     4   9  16  26  45  75 107 137 176 227 272 309
#     4   9  17  32  53  77 107 142 182 225 267 311
#     4  10  18  31  52  78 105 140 185 228 269 312
#     4  10  21  36  56  83 113 143 173 208 260 321
#     4  10  21  36  53  75 107 145 180 218 269 325
#
# _framework density 17.086036
#
# number of rings (size 3 to 8) (size 9 to 14) (size 15 to 20)
#    0.000    2.273    0.909    2.182    0.000    5.091 
#    0.000    3.182    0.000    7.091    0.000    0.000 
#    0.000    0.000    0.000    0.000    0.000    0.000 
#
# Total GULP energy -245571.914375 kJ/mol
# GULP energy per Si atom -5581.179872 kJ/mol
# Density = 1.704715 g / cm^3
# Si number density = 17.086036 Si / 1000 Ang^3
#
#
#
# Elastic Constant Matrix: (Units=GPa)
#
#
# Indices 1 2 3 4 5 6 
#
# 1 129.3055 113.9083 55.2022 0.0000 0.0000 0.0000
# 2 113.9083 144.0989 59.7162 0.0000 0.0000 0.0000
# 3 55.2022 59.7162 44.2272 0.0000 0.0000 0.0000
# 4 0.0000 0.0000 0.0000 22.9413 0.0000 0.0000
# 5 0.0000 0.0000 0.0000 0.0000 25.0157 0.0000
# 6 0.0000 0.0000 0.0000 0.0000 0.0000 25.3863
#
#
#
# Elastic Compliance Matrix: (Units=1/GPa)
#
#
# Indices 1 2 3 4 5 6 
#
# 1 0.027794 -0.017242 -0.011410 0.000000 0.000000 0.000000
# 2 -0.017242 0.026452 -0.014195 0.000000 0.000000 0.000000
# 3 -0.011410 -0.014195 0.056019 0.000000 0.000000 0.000000
# 4 0.000000 0.000000 0.000000 0.043590 0.000000 0.000000
# 5 0.000000 0.000000 0.000000 0.000000 0.039975 0.000000
# 6 0.000000 0.000000 0.000000 0.000000 0.000000 0.039391
#
#
# Mechanical properties :
#
#
# Convention : Reuss Voigt Hill
#
# Bulk Modulus (GPa) = 40.70087 86.14280 63.42183
# Shear Modulus (GPa) = 15.28560 20.58898 17.93729
#
# Velocity S-wave (km/s) = 2.99427 3.47510 3.24361
# Velocity P-wave (km/s) = 5.98557 8.16262 7.15735
#
# Compressibility (1/GPa) = 0.02456950
#
# Stress axis : x y z
#
# Youngs Moduli (GPa) = 35.97919 37.80448 17.85115
#
# Poissons Ratio (x) = 0.65183 0.20369
# Poissons Ratio (y) = 0.62036 0.25340
# Poissons Ratio (z) = 0.41054 0.53664
#
# Static dielectric constant tensor:
#      x y z
#    x 1.547040 0.000000 0.000000 
#    y 0.000000 1.565640 0.000000 
#    z 0.000000 0.000000 1.569120 
# 
# From -- ./inp_files/11801.got.cif
#   From: 2010.05.17/outbox.cif.g08.bks.cpg/sg65_6_cif.got.tgz:11801.got - 2010.06.03 17:01:31.
