data_PCOD9484353
_publ_section_title
;
Structure prediction by ZEFSAII (Michael W. Deem and Ramdas Pophale) SiO2 
 PCOD9484353
Probable space group: C M M M
;
_chemical_formula_sum "Si O2"
_cell_formula_units_Z 88
_cell_length_a 17.960805
_cell_length_b 15.135835
_cell_length_c 16.430702
_cell_angle_alpha 90.000000
_cell_angle_beta 90.000000
_cell_angle_gamma 90.000000
_cell_volume 4466.715601
_symmetry_space_group_name_H-M "C M M M"
_symmetry_group_IT_number 65
_symmetry_cell_setting 'orthorhombic'
loop_
_space_group_symop_operation_xyz
x,y,z
-x,-y,z
x,-y,-z
-x,y,-z
-x,-y,-z
x,y,-z
-x,y,z
x,-y,z
1/2+x,1/2+y,z
1/2-x,1/2-y,z
1/2+x,1/2-y,-z
1/2-x,1/2+y,-z
1/2-x,1/2-y,-z
1/2+x,1/2+y,-z
1/2-x,1/2+y,z
1/2+x,1/2-y,z
loop_
_atom_site_type_symbol
_atom_site_label
_atom_site_fract_x
_atom_site_fract_y
_atom_site_fract_z
Si Si1 0.326976 0.095093 0.255585
Si Si2 0.911331 0.728079 0.152846
Si Si3 0.588294 0.645491 0.592441
Si Si4 0.347195 0.599504 0.770394
Si Si5 0.909436 0.395467 0.000000
Si Si6 0.817586 0.312498 0.591536
O O1 0.380269 0.172500 0.227966
O O2 0.242317 0.107953 0.226675
O O3 0.324358 0.103733 0.352271
O O4 0.354338 0.000000 0.227264
O O5 0.880748 0.826097 0.170262
O O6 0.886851 0.665776 0.077004
O O7 0.000000 0.732953 0.150321
O O8 0.610433 0.613413 0.500000
O O9 0.500000 0.632132 0.599602
O O10 0.626203 0.609640 0.675521
O O11 0.611101 0.748714 0.592048
O O12 0.367524 0.500000 0.795581
O O13 0.884682 0.500000 0.000000
O O14 0.000000 0.399508 0.000000
O O15 0.798546 0.336560 0.500000
O O16 0.750000 0.250000 0.622706
#
# Coordination Sequence:
#
# PCOD9484353 Si02
#       6
#    16  16  16  16   8  16
#     4  11  22  36  57  85 119 157 198 240 291 354
#     4  11  22  40  65  90 117 149 189 242 295 347
#     4  10  20  34  54  80 112 154 204 254 296 334
#     4  11  23  38  57  85 123 162 199 241 293 352
#     4   9  20  40  66  95 121 147 187 238 292 352
#     4  10  18  32  53  76 109 153 199 244 292 342
#
# _framework density 19.701276
#
# number of rings (size 3 to 8) (size 9 to 14) (size 15 to 20)
#    0.000    1.545    3.636    1.636    0.000    3.273 
#    0.000    5.000    0.000    3.818    0.000    3.818 
#    0.000    0.000    0.000    0.000    0.000    0.000 
#
# Total GULP energy -245117.903965 kJ/mol
# GULP energy per Si atom -5570.861454 kJ/mol
# Density = 1.965644 g / cm^3
# Si number density = 19.701276 Si / 1000 Ang^3
#
#
#
# Elastic Constant Matrix: (Units=GPa)
#
#
# Indices 1 2 3 4 5 6 
#
# 1 -293.9485 -40.6467 -105.0810 0.0000 0.0000 0.0000
# 2 -40.6467 135.9888 27.4952 0.0000 0.0000 0.0000
# 3 -105.0810 27.4952 35.4510 0.0000 0.0000 0.0000
# 4 0.0000 0.0000 0.0000 11.0978 0.0000 0.0000
# 5 0.0000 0.0000 0.0000 0.0000 14.8542 0.0000
# 6 0.0000 0.0000 0.0000 0.0000 0.0000 14.3771
#
#
#
# Elastic Compliance Matrix: (Units=1/GPa)
#
#
# Indices 1 2 3 4 5 6 
#
# 1 -0.001613 0.000575 -0.005227 0.000000 0.000000 0.000000
# 2 0.000575 0.008516 -0.004902 0.000000 0.000000 0.000000
# 3 -0.005227 -0.004902 0.016517 0.000000 0.000000 0.000000
# 4 0.000000 0.000000 0.000000 0.090108 0.000000 0.000000
# 5 0.000000 0.000000 0.000000 0.000000 0.067321 0.000000
# 6 0.000000 0.000000 0.000000 0.000000 0.000000 0.069555
#
#
# Mechanical properties :
#
#
# Convention : Reuss Voigt Hill
#
# Bulk Modulus (GPa) = 231.86853 -39.88599 95.99127
# Shear Modulus (GPa) = 18.45362 7.78075 13.11719
#
# Velocity S-wave (km/s) = 3.06383 1.98946 2.58312
# Velocity P-wave (km/s) = 11.42207 3.87454 7.59775
#
# Compressibility (1/GPa) = 0.00431279
#
# Stress axis : x y z
#
# Youngs Moduli (GPa) = -619.97598 117.42065 60.54346
#
# Poissons Ratio (x) = -0.06748 0.31644
# Poissons Ratio (y) = 0.35628 0.29677
# Poissons Ratio (z) = -3.24044 0.57557
#
# Static dielectric constant tensor:
#      x y z
#    x 1.675220 0.000000 0.000000 
#    y 0.000000 1.709540 0.000000 
#    z 0.000000 0.000000 1.768420 
# 
# From -- ./inp_files/54326.got.cif
#   From: 2010.05.17/outbox.cif.g08.bks.cpg/sg65_28_cif.got.tgz:54326.got - 2010.06.03 17:01:31.
