data_PCOD9484934
_publ_section_title
;
Structure prediction by ZEFSAII (Michael W. Deem and Ramdas Pophale) SiO2 
 PCOD9484934
Probable space group: C M M M
;
_chemical_formula_sum "Si O2"
_cell_formula_units_Z 88
_cell_length_a 9.001421
_cell_length_b 36.885829
_cell_length_c 19.807343
_cell_angle_alpha 90.000000
_cell_angle_beta 90.000000
_cell_angle_gamma 90.000000
_cell_volume 6576.530599
_symmetry_space_group_name_H-M "C M M M"
_symmetry_group_IT_number 65
_symmetry_cell_setting 'orthorhombic'
loop_
_space_group_symop_operation_xyz
x,y,z
-x,-y,z
x,-y,-z
-x,y,-z
-x,-y,-z
x,y,-z
-x,y,z
x,-y,z
1/2+x,1/2+y,z
1/2-x,1/2-y,z
1/2+x,1/2-y,-z
1/2-x,1/2+y,-z
1/2-x,1/2-y,-z
1/2+x,1/2+y,-z
1/2-x,1/2+y,z
1/2+x,1/2-y,z
loop_
_atom_site_type_symbol
_atom_site_label
_atom_site_fract_x
_atom_site_fract_y
_atom_site_fract_z
Si Si1 0.173186 0.956033 0.425057
Si Si2 0.171217 0.786971 0.082079
Si Si3 0.175142 0.543608 0.713192
Si Si4 0.323462 0.862571 0.080737
Si Si5 0.826246 0.500000 0.080904
Si Si6 0.677426 0.568872 0.151929
O O1 0.221364 0.943749 0.500000
O O2 0.270092 0.944839 0.361083
O O3 0.000000 0.946061 0.415661
O O4 0.178216 0.000000 0.426116
O O5 0.250000 0.750000 0.105140
O O6 0.260058 0.823221 0.100582
O O7 0.000000 0.788679 0.104067
O O8 0.170843 0.785922 0.000000
O O9 0.200026 0.500000 0.719624
O O10 0.266742 0.563119 0.771707
O O11 0.000000 0.550027 0.721496
O O12 0.500000 0.864432 0.092282
O O13 0.240455 0.894256 0.120320
O O14 0.298513 0.867175 0.000000
O O15 0.747154 0.535446 0.110183
O O16 0.000000 0.500000 0.101496
O O17 0.819448 0.500000 0.000000
O O18 0.500000 0.567880 0.148359
#
# Coordination Sequence:
#
# PCOD9484934 Si02
#       6
#    16  16  16  16   8  16
#     4   8  14  25  41  60  81 102 126 160 201 243
#     4   9  16  27  44  65  86 106 130 161 200 248
#     4  10  19  30  44  59  79 105 135 171 208 248
#     4  10  20  33  47  62  82 107 135 172 215 255
#     4  11  23  37  49  59  74  99 134 177 221 259
#     4  12  23  33  46  61  79 105 138 176 215 255
#
# _framework density 13.380915999999999
#
# number of rings (size 3 to 8) (size 9 to 14) (size 15 to 20)
#    0.000    2.091    0.909    4.636    0.000    7.273 
#    0.000    1.818    0.000    0.000    0.000    0.000 
#    0.000    0.000    0.000    0.000    0.000    0.909 
#
# Total GULP energy -245409.660375 kJ/mol
# GULP energy per Si atom -5577.492281 kJ/mol
# Density = 1.335046 g / cm^3
# Si number density = 13.380916 Si / 1000 Ang^3
#
#
#
# Elastic Constant Matrix: (Units=GPa)
#
#
# Indices 1 2 3 4 5 6 
#
# 1 119.7115 59.6723 57.8788 0.0000 0.0000 0.0000
# 2 59.6723 92.3579 41.2722 0.0000 0.0000 0.0000
# 3 57.8788 41.2722 72.1229 0.0000 0.0000 0.0000
# 4 0.0000 0.0000 0.0000 -0.8026 0.0000 0.0000
# 5 0.0000 0.0000 0.0000 0.0000 21.0907 0.0000
# 6 0.0000 0.0000 0.0000 0.0000 0.0000 22.2048
#
#
#
# Elastic Compliance Matrix: (Units=1/GPa)
#
#
# Indices 1 2 3 4 5 6 
#
# 1 0.015871 -0.006130 -0.009228 0.000000 0.000000 0.000000
# 2 -0.006130 0.016915 -0.004760 0.000000 0.000000 0.000000
# 3 -0.009228 -0.004760 0.023995 0.000000 0.000000 0.000000
# 4 0.000000 0.000000 0.000000 -1.246016 0.000000 0.000000
# 5 0.000000 0.000000 0.000000 0.000000 0.047414 0.000000
# 6 0.000000 0.000000 0.000000 0.000000 0.000000 0.045035
#
#
# Mechanical properties :
#
#
# Convention : Reuss Voigt Hill
#
# Bulk Modulus (GPa) = 60.44650 66.87098 63.65874
# Shear Modulus (GPa) = -4.75723 16.85652 6.04965
#
# Velocity S-wave (km/s) = -1.88758 3.55314 2.12859
# Velocity P-wave (km/s) = 6.36562 8.18025 7.32931
#
# Compressibility (1/GPa) = 0.01654356
#
# Stress axis : x y z
#
# Youngs Moduli (GPa) = 63.00795 59.11760 41.67507
#
# Poissons Ratio (x) = 0.36241 0.38460
# Poissons Ratio (y) = 0.38626 0.19838
# Poissons Ratio (z) = 0.58147 0.28141
#
# Static dielectric constant tensor:
#      x y z
#    x 1.444520 0.000000 0.000000 
#    y 0.000000 1.413640 0.000000 
#    z 0.000000 0.000000 1.436720 
# 
# From -- ./inp_files/60673.got.cif
#   From: 2010.05.17/outbox.cif.g08.bks.cpg/sg65_31_cif.got.tgz:60673.got - 2010.06.03 17:01:31.
