data_PCOD9484101
_publ_section_title
;
Structure prediction by ZEFSAII (Michael W. Deem and Ramdas Pophale) SiO2 
 PCOD9484101
Probable space group: C M M M
;
_chemical_formula_sum "Si O2"
_cell_formula_units_Z 104
_cell_length_a 31.263982
_cell_length_b 23.344252
_cell_length_c 7.654958
_cell_angle_alpha 90.000000
_cell_angle_beta 90.000000
_cell_angle_gamma 90.000000
_cell_volume 5586.850717
_symmetry_space_group_name_H-M "C M M M"
_symmetry_group_IT_number 65
_symmetry_cell_setting 'orthorhombic'
loop_
_space_group_symop_operation_xyz
x,y,z
-x,-y,z
x,-y,-z
-x,y,-z
-x,-y,-z
x,y,-z
-x,y,z
x,-y,z
1/2+x,1/2+y,z
1/2-x,1/2-y,z
1/2+x,1/2-y,-z
1/2-x,1/2+y,-z
1/2-x,1/2-y,-z
1/2+x,1/2+y,-z
1/2-x,1/2+y,z
1/2+x,1/2-y,z
loop_
_atom_site_type_symbol
_atom_site_label
_atom_site_fract_x
_atom_site_fract_y
_atom_site_fract_z
Si Si1 0.548600 0.152268 0.209999
Si Si2 0.604061 0.387527 0.708157
Si Si3 0.450930 0.500000 0.790753
Si Si4 0.451363 0.282550 0.289768
Si Si5 0.306495 0.432801 0.286583
Si Si6 0.119910 0.565349 0.208114
Si Si7 0.713411 0.933474 0.289924
O O1 0.500000 0.143828 0.276196
O O2 0.561513 0.217590 0.248819
O O3 0.582796 0.106462 0.277891
O O4 0.547054 0.146635 0.000000
O O5 0.608687 0.379533 0.500000
O O6 0.574687 0.443484 0.734032
O O7 0.580064 0.331574 0.778626
O O8 0.651590 0.400094 0.777737
O O9 0.500000 0.500000 0.725749
O O10 0.452135 0.500000 0.000000
O O11 0.452866 0.287822 0.500000
O O12 0.500000 0.290972 0.224237
O O13 0.307028 0.431728 0.500000
O O14 0.310102 0.500000 0.238189
O O15 0.259631 0.410422 0.230864
O O16 0.118235 0.500000 0.278852
O O17 0.167536 0.590462 0.235819
O O18 0.113987 0.561253 0.000000
O O19 0.713925 0.933109 0.500000
O O20 0.712774 0.000000 0.231427
#
# Coordination Sequence:
#
# PCOD9484101 Si02
#       7
#    16  16   8  16  16  16  16
#     4   9  18  32  49  67  89 121 154 183 223 274
#     4  10  18  31  51  69  88 119 159 198 235 275
#     4  11  23  33  41  63  99 129 153 191 242 285
#     4   9  18  31  47  68  90 115 153 196 231 268
#     4   8  13  24  44  68  90 114 148 189 229 268
#     4   9  17  29  46  70  96 118 146 184 224 268
#     4   8  14  25  43  66  92 120 147 177 221 273
#
# _framework density 18.615138000000002
#
# number of rings (size 3 to 8) (size 9 to 14) (size 15 to 20)
#    0.000    3.000    0.769    1.615    0.000    2.769 
#    0.000    3.846    0.000    0.923    0.000   10.769 
#    0.000    0.000    0.000    0.000    0.000    0.000 
#
# Total GULP energy -289702.932450 kJ/mol
# GULP energy per Si atom -5571.210239 kJ/mol
# Density = 1.857277 g / cm^3
# Si number density = 18.615138 Si / 1000 Ang^3
#
#
#
# Elastic Constant Matrix: (Units=GPa)
#
#
# Indices 1 2 3 4 5 6 
#
# 1 180.9939 103.9018 3.2971 0.0000 0.0000 0.0000
# 2 103.9018 100.7389 0.9125 0.0000 0.0000 0.0000
# 3 3.2971 0.9125 31.7653 0.0000 0.0000 0.0000
# 4 0.0000 0.0000 0.0000 15.8834 0.0000 0.0000
# 5 0.0000 0.0000 0.0000 0.0000 26.8831 0.0000
# 6 0.0000 0.0000 0.0000 0.0000 0.0000 23.5286
#
#
#
# Elastic Compliance Matrix: (Units=1/GPa)
#
#
# Indices 1 2 3 4 5 6 
#
# 1 0.013577 -0.013994 -0.001007 0.000000 0.000000 0.000000
# 2 -0.013994 0.024353 0.000753 0.000000 0.000000 0.000000
# 3 -0.001007 0.000753 0.031564 0.000000 0.000000 0.000000
# 4 0.000000 0.000000 0.000000 0.062959 0.000000 0.000000
# 5 0.000000 0.000000 0.000000 0.000000 0.037198 0.000000
# 6 0.000000 0.000000 0.000000 0.000000 0.000000 0.042501
#
#
# Mechanical properties :
#
#
# Convention : Reuss Voigt Hill
#
# Bulk Modulus (GPa) = 24.39187 58.85791 41.62489
# Shear Modulus (GPa) = 19.66072 26.95147 23.30609
#
# Velocity S-wave (km/s) = 3.25340 3.80916 3.54220
# Velocity P-wave (km/s) = 5.21963 7.14375 6.25610
#
# Compressibility (1/GPa) = 0.04099726
#
# Stress axis : x y z
#
# Youngs Moduli (GPa) = 73.65508 41.06246 31.68187
#
# Poissons Ratio (x) = 0.57463 0.03191
# Poissons Ratio (y) = 1.03073 -0.02385
# Poissons Ratio (z) = 0.07419 -0.03092
#
# Static dielectric constant tensor:
#      x y z
#    x 1.685820 0.000000 0.000000 
#    y 0.000000 1.616450 0.000000 
#    z 0.000000 0.000000 1.697600 
# 
# From -- ./inp_files/15033.got.cif
#   From: 2010.05.17/outbox.cif.g08.bks.cpg/sg65_8_cif.got.tgz:15033.got - 2010.06.03 17:01:31.
