data_PCOD9484438
_publ_section_title
;
Structure prediction by ZEFSAII (Michael W. Deem and Ramdas Pophale) SiO2 
 PCOD9484438
Probable space group: C M M M
;
_chemical_formula_sum "Si O2"
_cell_formula_units_Z 64
_cell_length_a 18.417684
_cell_length_b 8.658385
_cell_length_c 21.593978
_cell_angle_alpha 90.000000
_cell_angle_beta 90.000000
_cell_angle_gamma 90.000000
_cell_volume 3443.535503
_symmetry_space_group_name_H-M "C M M M"
_symmetry_group_IT_number 65
_symmetry_cell_setting 'orthorhombic'
loop_
_space_group_symop_operation_xyz
x,y,z
-x,-y,z
x,-y,-z
-x,y,-z
-x,-y,-z
x,y,-z
-x,y,z
x,-y,z
1/2+x,1/2+y,z
1/2-x,1/2-y,z
1/2+x,1/2-y,-z
1/2-x,1/2+y,-z
1/2-x,1/2-y,-z
1/2+x,1/2+y,-z
1/2-x,1/2+y,z
1/2+x,1/2-y,z
loop_
_atom_site_type_symbol
_atom_site_label
_atom_site_fract_x
_atom_site_fract_y
_atom_site_fract_z
Si Si1 0.167613 0.684394 0.500000
Si Si2 0.914013 0.316732 0.745814
Si Si3 0.831717 0.185658 0.000000
Si Si4 0.832281 0.813841 0.864419
Si Si5 0.331641 0.683775 0.628172
O O1 0.168930 0.500000 0.500000
O O2 0.250000 0.750000 0.500000
O O3 0.136019 0.746670 0.564439
O O4 0.900501 0.500000 0.740741
O O5 0.878667 0.254486 0.808803
O O6 0.877494 0.233563 0.687431
O O7 0.000000 0.289818 0.746212
O O8 0.750000 0.250000 0.000000
O O9 0.862684 0.230902 0.932869
O O10 0.828732 0.000000 0.000000
O O11 0.750000 0.750000 0.859941
O O12 0.830429 0.000000 0.860057
O O13 0.327307 0.500000 0.622677
O O14 0.250000 0.750000 0.635591
#
# Coordination Sequence:
#
# PCOD9484438 Si02
#       5
#     8  16   8  16  16
#     4  10  18  32  55  84 115 142 175 219 267 315
#     4  11  24  40  55  75 107 145 184 226 272 320
#     4   8  16  30  51  80 109 137 171 217 267 316
#     4  10  19  34  57  83 110 140 178 221 268 321
#     4  11  21  36  59  85 112 142 180 222 267 319
#
# _framework density 18.585547999999999
#
# number of rings (size 3 to 8) (size 9 to 14) (size 15 to 20)
#    0.000    1.750    0.000    7.125    0.000    3.000 
#    0.000    1.250    0.000    7.500    0.000    0.000 
#    0.000    0.000    0.000    0.000    0.000    0.000 
#
# Total GULP energy -178624.853686 kJ/mol
# GULP energy per Si atom -5582.026678 kJ/mol
# Density = 1.854325 g / cm^3
# Si number density = 18.585548 Si / 1000 Ang^3
#
#
#
# Elastic Constant Matrix: (Units=GPa)
#
#
# Indices 1 2 3 4 5 6 
#
# 1 38.7077 50.0653 50.6250 0.0000 0.0000 0.0000
# 2 50.0653 135.7415 82.4794 0.0000 0.0000 0.0000
# 3 50.6250 82.4794 208.3473 0.0000 0.0000 0.0000
# 4 0.0000 0.0000 0.0000 52.8810 0.0000 0.0000
# 5 0.0000 0.0000 0.0000 0.0000 -11.6402 0.0000
# 6 0.0000 0.0000 0.0000 0.0000 0.0000 22.3345
#
#
#
# Elastic Compliance Matrix: (Units=1/GPa)
#
#
# Indices 1 2 3 4 5 6 
#
# 1 0.056618 -0.016489 -0.007229 0.000000 0.000000 0.000000
# 2 -0.016489 0.014503 -0.001735 0.000000 0.000000 0.000000
# 3 -0.007229 -0.001735 0.007243 0.000000 0.000000 0.000000
# 4 0.000000 0.000000 0.000000 0.018910 0.000000 0.000000
# 5 0.000000 0.000000 0.000000 0.000000 -0.085909 0.000000
# 6 0.000000 0.000000 0.000000 0.000000 0.000000 0.044774
#
#
# Mechanical properties :
#
#
# Convention : Reuss Voigt Hill
#
# Bulk Modulus (GPa) = 36.42133 83.23731 59.82932
# Shear Modulus (GPa) = 43.03018 26.02350 34.52684
#
# Velocity S-wave (km/s) = 4.81692 3.74599 4.31481
# Velocity P-wave (km/s) = 7.11169 7.97453 7.55544
#
# Compressibility (1/GPa) = 0.02745644
#
# Stress axis : x y z
#
# Youngs Moduli (GPa) = 17.66236 68.95282 138.06460
#
# Poissons Ratio (x) = 1.13699 0.99813
# Poissons Ratio (y) = 0.29124 0.23948
# Poissons Ratio (z) = 0.12769 0.11960
#
# Static dielectric constant tensor:
#      x y z
#    x 1.600310 0.000000 0.000000 
#    y 0.000000 1.623720 0.000000 
#    z 0.000000 0.000000 1.683930 
# 
# From -- ./inp_files/63239.got.cif
#   From: 2010.05.17/outbox.cif.g08.bks.cpg/sg65_32_cif.got.tgz:63239.got - 2010.06.03 17:01:31.
