data_PCOD9484956
_publ_section_title
;
Structure prediction by ZEFSAII (Michael W. Deem and Ramdas Pophale) SiO2 
 PCOD9484956
Probable space group: C M M M
;
_chemical_formula_sum "Si O2"
_cell_formula_units_Z 88
_cell_length_a 27.535221
_cell_length_b 21.254547
_cell_length_c 7.695542
_cell_angle_alpha 90.000000
_cell_angle_beta 90.000000
_cell_angle_gamma 90.000000
_cell_volume 4503.805558
_symmetry_space_group_name_H-M "C M M M"
_symmetry_group_IT_number 65
_symmetry_cell_setting 'orthorhombic'
loop_
_space_group_symop_operation_xyz
x,y,z
-x,-y,z
x,-y,-z
-x,y,-z
-x,-y,-z
x,y,-z
-x,y,z
x,-y,z
1/2+x,1/2+y,z
1/2-x,1/2-y,z
1/2+x,1/2-y,-z
1/2-x,1/2+y,-z
1/2-x,1/2-y,-z
1/2+x,1/2+y,-z
1/2-x,1/2+y,z
1/2+x,1/2-y,z
loop_
_atom_site_type_symbol
_atom_site_label
_atom_site_fract_x
_atom_site_fract_y
_atom_site_fract_z
Si Si1 0.444586 0.863105 0.208066
Si Si2 0.210792 0.362226 0.294687
Si Si3 0.668747 0.500000 0.201452
Si Si4 0.131973 0.264576 0.201319
Si Si5 0.781996 0.500000 0.288235
Si Si6 0.175135 0.863430 0.788032
Si Si7 0.444537 0.000000 0.293367
O O1 0.500000 0.860978 0.275983
O O2 0.410575 0.807798 0.278941
O O3 0.423372 0.932761 0.241587
O O4 0.446781 0.856559 0.000000
O O5 0.201568 0.357563 0.500000
O O6 0.180006 0.307793 0.206978
O O7 0.196151 0.432915 0.235997
O O8 0.268458 0.356100 0.264352
O O9 0.727421 0.500000 0.214353
O O10 0.655723 0.568569 0.275150
O O11 0.653733 0.500000 0.000000
O O12 0.145034 0.196562 0.276280
O O13 0.119141 0.253386 0.000000
O O14 0.778922 0.500000 0.500000
O O15 0.174699 0.864292 0.000000
O O16 0.500000 0.000000 0.221215
O O17 0.446467 0.000000 0.500000
#
# Coordination Sequence:
#
# PCOD9484956 Si02
#       7
#    16  16   8  16   8  16   8
#     4   9  18  33  50  66  86 115 151 186 219 260
#     4  10  19  30  44  63  89 119 148 178 213 255
#     4   8  14  26  45  63  79 107 144 176 206 246
#     4  10  20  31  44  64  88 114 144 180 221 260
#     4   8  16  29  41  56  82 115 146 175 206 240
#     4   9  17  30  46  64  87 114 145 179 214 255
#     4   9  17  30  49  70  90 114 145 184 227 262
#
# _framework density 19.539031000000001
#
# number of rings (size 3 to 8) (size 9 to 14) (size 15 to 20)
#    0.000    2.818    0.000    1.364    0.000    6.182 
#    0.000    1.818    0.000    0.000    0.000    0.636 
#    0.000    5.091    0.000    0.000    0.000   43.182 
#
# Total GULP energy -245234.277273 kJ/mol
# GULP energy per Si atom -5573.506302 kJ/mol
# Density = 1.949456 g / cm^3
# Si number density = 19.539031 Si / 1000 Ang^3
#
#
#
# Elastic Constant Matrix: (Units=GPa)
#
#
# Indices 1 2 3 4 5 6 
#
# 1 64.1295 65.4074 -1.3616 0.0000 0.0000 0.0000
# 2 65.4074 204.7084 3.0993 0.0000 0.0000 0.0000
# 3 -1.3616 3.0993 38.0261 0.0000 0.0000 0.0000
# 4 0.0000 0.0000 0.0000 -1.3205 0.0000 0.0000
# 5 0.0000 0.0000 0.0000 0.0000 -5.8419 0.0000
# 6 0.0000 0.0000 0.0000 0.0000 0.0000 53.8904
#
#
#
# Elastic Compliance Matrix: (Units=1/GPa)
#
#
# Indices 1 2 3 4 5 6 
#
# 1 0.023210 -0.007438 0.001437 0.000000 0.000000 0.000000
# 2 -0.007438 0.007274 -0.000859 0.000000 0.000000 0.000000
# 3 0.001437 -0.000859 0.026419 0.000000 0.000000 0.000000
# 4 0.000000 0.000000 0.000000 -0.757310 0.000000 0.000000
# 5 0.000000 0.000000 0.000000 0.000000 -0.171178 0.000000
# 6 0.000000 0.000000 0.000000 0.000000 0.000000 0.018556
#
#
# Mechanical properties :
#
#
# Convention : Reuss Voigt Hill
#
# Bulk Modulus (GPa) = 23.15656 49.01713 36.08684
# Shear Modulus (GPa) = -6.06123 25.32688 9.63282
#
# Velocity S-wave (km/s) = -1.76319 3.60421 2.22278
# Velocity P-wave (km/s) = 2.78065 6.51626 5.00968
#
# Compressibility (1/GPa) = 0.04318430
#
# Stress axis : x y z
#
# Youngs Moduli (GPa) = 43.08522 137.46759 37.85124
#
# Poissons Ratio (x) = 1.02243 -0.05440
# Poissons Ratio (y) = 0.32045 0.03252
# Poissons Ratio (z) = -0.06193 0.11811
#
# Static dielectric constant tensor:
#      x y z
#    x 1.682140 0.000000 0.000000 
#    y 0.000000 1.749910 0.000000 
#    z 0.000000 0.000000 1.702220 
# 
# From -- ./inp_files/14068.got.cif
#   From: 2010.05.17/outbox.cif.g08.bks.cpg/sg65_8_cif.got.tgz:14068.got - 2010.06.03 17:01:31.
