data_PCOD9484895
_publ_section_title
;
Structure prediction by ZEFSAII (Michael W. Deem and Ramdas Pophale) SiO2 
 PCOD9484895
Probable space group: C M M M
;
_chemical_formula_sum "Si O2"
_cell_formula_units_Z 88
_cell_length_a 29.404568
_cell_length_b 19.051241
_cell_length_c 7.364782
_cell_angle_alpha 90.000000
_cell_angle_beta 90.000000
_cell_angle_gamma 90.000000
_cell_volume 4125.703090
_symmetry_space_group_name_H-M "C M M M"
_symmetry_group_IT_number 65
_symmetry_cell_setting 'orthorhombic'
loop_
_space_group_symop_operation_xyz
x,y,z
-x,-y,z
x,-y,-z
-x,y,-z
-x,-y,-z
x,y,-z
-x,y,z
x,-y,z
1/2+x,1/2+y,z
1/2-x,1/2-y,z
1/2+x,1/2-y,-z
1/2-x,1/2+y,-z
1/2-x,1/2-y,-z
1/2+x,1/2+y,-z
1/2-x,1/2+y,z
1/2+x,1/2-y,z
loop_
_atom_site_type_symbol
_atom_site_label
_atom_site_fract_x
_atom_site_fract_y
_atom_site_fract_z
Si Si1 0.390594 0.363688 0.278931
Si Si2 0.551941 0.922131 0.782006
Si Si3 0.447374 0.500000 0.278142
Si Si4 0.207091 0.920225 0.278916
Si Si5 0.616372 0.209325 0.285176
Si Si6 0.218323 0.315366 0.278643
O O1 0.392826 0.365745 0.500000
O O2 0.421500 0.429057 0.218434
O O3 0.338246 0.378326 0.226547
O O4 0.402234 0.284621 0.217863
O O5 0.500000 0.911549 0.718343
O O6 0.583736 0.856986 0.736707
O O7 0.567313 0.000000 0.719491
O O8 0.550523 0.924802 0.000000
O O9 0.500000 0.500000 0.223615
O O10 0.446216 0.500000 0.500000
O O11 0.207086 0.920224 0.500000
O O12 0.253579 0.883563 0.220350
O O13 0.203265 0.000000 0.218484
O O14 0.622198 0.219692 0.500000
O O15 0.666888 0.192751 0.213065
O O16 0.216875 0.316365 0.500000
O O17 0.250000 0.250000 0.227498
#
# Coordination Sequence:
#
# PCOD9484895 Si02
#       6
#    16  16   8  16  16  16
#     4   9  15  24  38  60  92 132 166 195 240 289
#     4   9  20  40  60  73  92 129 170 203 246 312
#     4   9  16  24  34  52  87 131 169 203 238 283
#     4   9  14  21  35  54  83 129 174 195 216 274
#     4  10  19  29  49  80 108 127 156 209 260 295
#     4   9  15  24  38  62  99 136 161 189 237 291
#
# _framework density 21.329696999999999
#
# number of rings (size 3 to 8) (size 9 to 14) (size 15 to 20)
#    0.000    2.818    2.727    0.545    0.000    2.182 
#    0.000    4.545    0.000    0.545    0.000    0.636 
#    0.000    2.182    0.000    0.000    0.000    0.000 
#
# Total GULP energy -245529.975931 kJ/mol
# GULP energy per Si atom -5580.226726 kJ/mol
# Density = 2.128115 g / cm^3
# Si number density = 21.329697 Si / 1000 Ang^3
#
#
#
# Elastic Constant Matrix: (Units=GPa)
#
#
# Indices 1 2 3 4 5 6 
#
# 1 139.4911 109.2595 0.9080 0.0000 0.0000 0.0000
# 2 109.2595 214.4134 -1.0082 0.0000 0.0000 0.0000
# 3 0.9080 -1.0082 73.1331 0.0000 0.0000 0.0000
# 4 0.0000 0.0000 0.0000 32.3250 0.0000 0.0000
# 5 0.0000 0.0000 0.0000 0.0000 0.9688 0.0000
# 6 0.0000 0.0000 0.0000 0.0000 0.0000 37.4897
#
#
#
# Elastic Compliance Matrix: (Units=1/GPa)
#
#
# Indices 1 2 3 4 5 6 
#
# 1 0.011935 -0.006083 -0.000232 0.000000 0.000000 0.000000
# 2 -0.006083 0.007764 0.000183 0.000000 0.000000 0.000000
# 3 -0.000232 0.000183 0.013679 0.000000 0.000000 0.000000
# 4 0.000000 0.000000 0.000000 0.030936 0.000000 0.000000
# 5 0.000000 0.000000 0.000000 0.000000 1.032226 0.000000
# 6 0.000000 0.000000 0.000000 0.000000 0.000000 0.026674
#
#
# Mechanical properties :
#
#
# Convention : Reuss Voigt Hill
#
# Bulk Modulus (GPa) = 47.36232 71.70625 59.53429
# Shear Modulus (GPa) = 4.37630 35.34859 19.86245
#
# Velocity S-wave (km/s) = 1.43394 4.07535 3.05489
# Velocity P-wave (km/s) = 4.99947 7.47232 6.35729
#
# Compressibility (1/GPa) = 0.02111383
#
# Stress axis : x y z
#
# Youngs Moduli (GPa) = 83.78767 128.79300 73.10421
#
# Poissons Ratio (x) = 0.78343 0.01696
# Poissons Ratio (y) = 0.50967 -0.01335
# Poissons Ratio (z) = 0.01944 -0.02351
#
# Static dielectric constant tensor:
#      x y z
#    x 1.727470 0.000000 0.000000 
#    y 0.000000 1.771530 0.000000 
#    z 0.000000 0.000000 1.848580 
# 
# From -- ./inp_files/10091.got.cif
#   From: 2010.05.17/outbox.cif.g08.bks.cpg/sg65_6_cif.got.tgz:10091.got - 2010.06.03 17:01:31.
