data_PCOD9484013
_publ_section_title
;
Structure prediction by ZEFSAII (Michael W. Deem and Ramdas Pophale) SiO2 
 PCOD9484013
Probable space group: C M M M
;
_chemical_formula_sum "Si O2"
_cell_formula_units_Z 120
_cell_length_a 17.772395
_cell_length_b 20.152009
_cell_length_c 18.242262
_cell_angle_alpha 90.000000
_cell_angle_beta 90.000000
_cell_angle_gamma 90.000000
_cell_volume 6533.456357
_symmetry_space_group_name_H-M "C M M M"
_symmetry_group_IT_number 65
_symmetry_cell_setting 'orthorhombic'
loop_
_space_group_symop_operation_xyz
x,y,z
-x,-y,z
x,-y,-z
-x,y,-z
-x,-y,-z
x,y,-z
-x,y,z
x,-y,z
1/2+x,1/2+y,z
1/2-x,1/2-y,z
1/2+x,1/2-y,-z
1/2-x,1/2+y,-z
1/2-x,1/2-y,-z
1/2+x,1/2+y,-z
1/2-x,1/2+y,z
1/2+x,1/2-y,z
loop_
_atom_site_type_symbol
_atom_site_label
_atom_site_fract_x
_atom_site_fract_y
_atom_site_fract_z
Si Si1 0.589757 0.392320 0.580680
Si Si2 0.341395 0.881725 0.326120
Si Si3 0.821537 0.924467 0.274983
Si Si4 0.087011 0.500000 0.412949
Si Si5 0.409955 0.076092 0.173516
Si Si6 0.587147 0.315810 0.802123
Si Si7 0.091842 0.702966 0.084036
Si Si8 0.414551 0.249964 0.640978
O O1 0.616042 0.413984 0.500000
O O2 0.500000 0.403334 0.584826
O O3 0.627883 0.424100 0.651326
O O4 0.601762 0.313097 0.590315
O O5 0.256546 0.891820 0.299872
O O6 0.390753 0.894805 0.253249
O O7 0.357638 0.810451 0.360601
O O8 0.368551 0.936933 0.382750
O O9 0.862160 0.879937 0.213592
O O10 0.808852 0.000000 0.251342
O O11 0.085265 0.500000 0.500000
O O12 0.000000 0.500000 0.385805
O O13 0.500000 0.072610 0.166246
O O14 0.382657 0.131732 0.116060
O O15 0.381270 0.000000 0.166417
O O16 0.500000 0.334238 0.817686
O O17 0.614573 0.263986 0.863480
O O18 0.586725 0.277597 0.724159
O O19 0.000000 0.702371 0.086489
O O20 0.114893 0.711760 0.000000
O O21 0.500000 0.226527 0.625515
#
# Coordination Sequence:
#
# PCOD9484013 Si02
#       8
#    16  16  16   8  16  16  16  16
#     4   9  20  38  58  80 104 134 176 228 290 351
#     4  12  21  35  54  78 108 148 187 230 278 323
#     4  11  23  37  53  80 109 142 187 238 287 334
#     4  11  24  38  52  76 110 152 196 229 266 326
#     4  10  18  30  53  81 112 151 189 225 267 324
#     4   9  18  34  56  82 110 144 182 228 279 334
#     4   9  17  31  54  87 120 146 180 229 280 328
#     4   9  17  32  56  80 104 136 181 226 266 321
#
# _framework density 18.367000999999998
#
# number of rings (size 3 to 8) (size 9 to 14) (size 15 to 20)
#    0.000    2.067    2.667    2.400    0.000    4.800 
#    0.000    4.000    0.000    2.000    0.000    1.867 
#    0.000    0.000    0.000    0.000    0.000    0.000 
#
# Total GULP energy -334699.060617 kJ/mol
# GULP energy per Si atom -5578.317677 kJ/mol
# Density = 1.832520 g / cm^3
# Si number density = 18.367001 Si / 1000 Ang^3
#
#
#
# Elastic Constant Matrix: (Units=GPa)
#
#
# Indices 1 2 3 4 5 6 
#
# 1 39.5666 29.8707 -6.4533 0.0000 0.0000 0.0000
# 2 29.8707 77.5703 8.3093 0.0000 0.0000 0.0000
# 3 -6.4533 8.3093 75.7085 0.0000 0.0000 0.0000
# 4 0.0000 0.0000 0.0000 22.6419 0.0000 0.0000
# 5 0.0000 0.0000 0.0000 0.0000 6.8003 0.0000
# 6 0.0000 0.0000 0.0000 0.0000 0.0000 -15.5766
#
#
#
# Elastic Compliance Matrix: (Units=1/GPa)
#
#
# Indices 1 2 3 4 5 6 
#
# 1 0.037288 -0.014874 0.004811 0.000000 0.000000 0.000000
# 2 -0.014874 0.018978 -0.003351 0.000000 0.000000 0.000000
# 3 0.004811 -0.003351 0.013986 0.000000 0.000000 0.000000
# 4 0.000000 0.000000 0.000000 0.044166 0.000000 0.000000
# 5 0.000000 0.000000 0.000000 0.000000 0.147052 0.000000
# 6 0.000000 0.000000 0.000000 0.000000 0.000000 -0.064199
#
#
# Mechanical properties :
#
#
# Convention : Reuss Voigt Hill
#
# Bulk Modulus (GPa) = 23.02864 28.47766 25.75315
# Shear Modulus (GPa) = 20.95785 13.51437 17.23611
#
# Velocity S-wave (km/s) = 3.38162 2.71550 3.06670
# Velocity P-wave (km/s) = 5.27375 5.03690 5.15668
#
# Compressibility (1/GPa) = 0.04342419
#
# Stress axis : x y z
#
# Youngs Moduli (GPa) = 26.81859 52.69226 71.49814
#
# Poissons Ratio (x) = 0.78374 -0.34396
# Poissons Ratio (y) = 0.39890 0.23957
# Poissons Ratio (z) = -0.12902 0.17656
#
# Static dielectric constant tensor:
#      x y z
#    x 1.639920 0.000000 0.000000 
#    y 0.000000 1.665600 0.000000 
#    z 0.000000 0.000000 1.612340 
# 
# From -- ./inp_files/54963.got.cif
#   From: 2010.05.17/outbox.cif.g08.bks.cpg/sg65_28_cif.got.tgz:54963.got - 2010.06.03 17:01:31.
