data_PCOD9484165
_publ_section_title
;
Structure prediction by ZEFSAII (Michael W. Deem and Ramdas Pophale) SiO2 
 PCOD9484165
Probable space group: C M M M
;
_chemical_formula_sum "Si O2"
_cell_formula_units_Z 104
_cell_length_a 14.055619
_cell_length_b 22.366777
_cell_length_c 15.009976
_cell_angle_alpha 90.000000
_cell_angle_beta 90.000000
_cell_angle_gamma 90.000000
_cell_volume 4718.819680
_symmetry_space_group_name_H-M "C M M M"
_symmetry_group_IT_number 65
_symmetry_cell_setting 'orthorhombic'
loop_
_space_group_symop_operation_xyz
x,y,z
-x,-y,z
x,-y,-z
-x,y,-z
-x,-y,-z
x,y,-z
-x,y,z
x,-y,z
1/2+x,1/2+y,z
1/2-x,1/2-y,z
1/2+x,1/2-y,-z
1/2-x,1/2+y,-z
1/2-x,1/2-y,-z
1/2+x,1/2+y,-z
1/2-x,1/2+y,z
1/2+x,1/2-y,z
loop_
_atom_site_type_symbol
_atom_site_label
_atom_site_fract_x
_atom_site_fract_y
_atom_site_fract_z
Si Si1 0.134355 0.239742 0.601802
Si Si2 0.863809 0.258494 0.097865
Si Si3 0.680612 0.569364 0.099121
Si Si4 0.858269 0.837567 0.243216
Si Si5 0.397252 0.897932 0.137355
Si Si6 0.114626 0.428636 0.500000
Si Si7 0.349728 0.861822 0.320481
O O1 0.104869 0.236247 0.500000
O O2 0.250000 0.250000 0.600216
O O3 0.105831 0.182038 0.659484
O O4 0.101861 0.300238 0.650057
O O5 0.750000 0.250000 0.096296
O O6 0.890248 0.216254 0.179245
O O7 0.890340 0.327350 0.112827
O O8 0.897632 0.240284 0.000000
O O9 0.655866 0.500000 0.103834
O O10 0.630771 0.604905 0.179893
O O11 0.796425 0.574965 0.106738
O O12 0.655819 0.592906 0.000000
O O13 0.746367 0.842389 0.268525
O O14 0.500000 0.920623 0.104150
O O15 0.399063 0.900723 0.244692
O O16 0.127532 0.500000 0.500000
O O17 0.159815 0.398991 0.588395
O O18 0.000000 0.416489 0.500000
#
# Coordination Sequence:
#
# PCOD9484165 Si02
#       7
#    16  16  16  16  16   8  16
#     4   9  15  26  49  73  93 116 153 213 280 329
#     4  11  18  30  52  76 100 132 171 218 277 330
#     4  10  21  35  50  69 100 145 189 223 257 305
#     4  10  18  31  52  76  97 125 171 227 276 320
#     4  11  22  34  50  74 105 142 180 225 273 317
#     4  11  24  38  49  66 102 156 205 230 251 298
#     4  10  18  32  50  69  94 130 179 229 268 307
#
# _framework density 22.03941
#
# number of rings (size 3 to 8) (size 9 to 14) (size 15 to 20)
#    0.000    1.769    5.385    1.846    1.077    4.000 
#    0.000    0.769    0.000    0.000    0.000    0.000 
#    0.000    0.615    0.000    3.231    0.000    3.692 
#
# Total GULP energy -289839.496987 kJ/mol
# GULP energy per Si atom -5573.836481 kJ/mol
# Density = 2.198925 g / cm^3
# Si number density = 22.039410 Si / 1000 Ang^3
#
#
#
# Elastic Constant Matrix: (Units=GPa)
#
#
# Indices 1 2 3 4 5 6 
#
# 1 78.7941 -4.4526 -1.2454 0.0000 0.0000 0.0000
# 2 -4.4526 88.1920 46.7690 0.0000 0.0000 0.0000
# 3 -1.2454 46.7690 190.3141 0.0000 0.0000 0.0000
# 4 0.0000 0.0000 0.0000 35.5226 0.0000 0.0000
# 5 0.0000 0.0000 0.0000 0.0000 -20.5458 0.0000
# 6 0.0000 0.0000 0.0000 0.0000 0.0000 8.8673
#
#
#
# Elastic Compliance Matrix: (Units=1/GPa)
#
#
# Indices 1 2 3 4 5 6 
#
# 1 0.012729 0.000688 -0.000086 0.000000 0.000000 0.000000
# 2 0.000688 0.013075 -0.003209 0.000000 0.000000 0.000000
# 3 -0.000086 -0.003209 0.006042 0.000000 0.000000 0.000000
# 4 0.000000 0.000000 0.000000 0.028151 0.000000 0.000000
# 5 0.000000 0.000000 0.000000 0.000000 -0.048672 0.000000
# 6 0.000000 0.000000 0.000000 0.000000 0.000000 0.112774
#
#
# Mechanical properties :
#
#
# Convention : Reuss Voigt Hill
#
# Bulk Modulus (GPa) = 37.54624 48.82691 43.18658
# Shear Modulus (GPa) = 36.18201 25.85078 31.01639
#
# Velocity S-wave (km/s) = 4.05618 3.42853 3.75549
# Velocity P-wave (km/s) = 6.24578 6.15431 6.20021
#
# Compressibility (1/GPa) = 0.02663382
#
# Stress axis : x y z
#
# Youngs Moduli (GPa) = 78.56176 76.48041 165.49617
#
# Poissons Ratio (x) = -0.05263 0.01420
# Poissons Ratio (y) = -0.05406 0.53103
# Poissons Ratio (z) = 0.00674 0.24540
#
# Static dielectric constant tensor:
#      x y z
#    x 1.909460 0.000000 0.000000 
#    y 0.000000 1.785900 0.000000 
#    z 0.000000 0.000000 1.827820 
# 
# From -- ./inp_files/44618.got.cif
#   From: 2010.05.17/outbox.cif.g08.bks.cpg/sg65_23_cif.got.tgz:44618.got - 2010.06.03 17:01:31.
