data_PCOD9484182
_publ_section_title
;
Structure prediction by ZEFSAII (Michael W. Deem and Ramdas Pophale) SiO2 
 PCOD9484182
Probable space group: C M M M
;
_chemical_formula_sum "Si O2"
_cell_formula_units_Z 88
_cell_length_a 8.181334
_cell_length_b 27.639707
_cell_length_c 20.408073
_cell_angle_alpha 90.000000
_cell_angle_beta 90.000000
_cell_angle_gamma 90.000000
_cell_volume 4614.870907
_symmetry_space_group_name_H-M "C M M M"
_symmetry_group_IT_number 65
_symmetry_cell_setting 'orthorhombic'
loop_
_space_group_symop_operation_xyz
x,y,z
-x,-y,z
x,-y,-z
-x,y,-z
-x,-y,-z
x,y,-z
-x,y,z
x,-y,z
1/2+x,1/2+y,z
1/2-x,1/2-y,z
1/2+x,1/2-y,-z
1/2-x,1/2+y,-z
1/2-x,1/2-y,-z
1/2+x,1/2+y,-z
1/2-x,1/2+y,z
1/2+x,1/2-y,z
loop_
_atom_site_type_symbol
_atom_site_label
_atom_site_fract_x
_atom_site_fract_y
_atom_site_fract_z
Si Si1 0.200610 0.943982 0.228202
Si Si2 0.307815 0.194723 0.000000
Si Si3 0.698324 0.556418 0.500000
Si Si4 0.810801 0.121234 0.110773
Si Si5 0.696101 0.601129 0.634832
Si Si6 0.688578 0.943270 0.000000
Si Si7 0.304590 0.804627 0.574805
O O1 0.258169 0.901811 0.177984
O O2 0.252690 0.926941 0.300660
O O3 0.000000 0.944197 0.225398
O O4 0.251146 0.000000 0.214530
O O5 0.250000 0.250000 0.000000
O O6 0.254548 0.165475 0.934077
O O7 0.500000 0.195211 0.000000
O O8 0.730888 0.500000 0.500000
O O9 0.500000 0.562952 0.500000
O O10 0.762399 0.578851 0.567205
O O11 0.000000 0.132170 0.122314
O O12 0.784284 0.076320 0.062111
O O13 0.500000 0.595976 0.634833
O O14 0.737684 0.657530 0.627485
O O15 0.500000 0.924534 0.000000
O O16 0.681597 0.000000 0.000000
O O17 0.245384 0.816374 0.500000
O O18 0.500000 0.806994 0.574391
O O19 0.250000 0.750000 0.588301
#
# Coordination Sequence:
#
# PCOD9484182 Si02
#       7
#    16   8   8  16  16   8  16
#     4   9  18  32  52  80 114 149 185 225 266 314
#     4  11  22  39  62  87 113 141 178 224 271 321
#     4   9  16  26  46  75 102 133 178 227 270 317
#     4  10  19  33  54  80 109 143 181 219 265 318
#     4  10  18  31  52  78 107 140 182 228 274 323
#     4  10  19  30  47  74 106 138 175 220 263 307
#     4  10  20  34  53  75 100 129 168 219 276 332
#
# _framework density 19.06879
#
# number of rings (size 3 to 8) (size 9 to 14) (size 15 to 20)
#    0.000    2.182    0.909    4.364    0.000    4.364 
#    0.000    2.727    0.000    4.909    0.000    0.000 
#    0.000    0.000    0.000    0.000    0.000    0.000 
#
# Total GULP energy -245119.139797 kJ/mol
# GULP energy per Si atom -5570.889541 kJ/mol
# Density = 1.902539 g / cm^3
# Si number density = 19.068790 Si / 1000 Ang^3
#
#
#
# Elastic Constant Matrix: (Units=GPa)
#
#
# Indices 1 2 3 4 5 6 
#
# 1 20.7677 10.1850 15.6543 0.0000 0.0000 0.0000
# 2 10.1850 128.6440 69.6202 0.0000 0.0000 0.0000
# 3 15.6543 69.6202 127.8559 0.0000 0.0000 0.0000
# 4 0.0000 0.0000 0.0000 14.3892 0.0000 0.0000
# 5 0.0000 0.0000 0.0000 0.0000 -0.8056 0.0000
# 6 0.0000 0.0000 0.0000 0.0000 0.0000 24.1477
#
#
#
# Elastic Compliance Matrix: (Units=1/GPa)
#
#
# Indices 1 2 3 4 5 6 
#
# 1 0.053133 -0.000973 -0.005976 0.000000 0.000000 0.000000
# 2 -0.000973 0.011039 -0.005892 0.000000 0.000000 0.000000
# 3 -0.005976 -0.005892 0.011761 0.000000 0.000000 0.000000
# 4 0.000000 0.000000 0.000000 0.069496 0.000000 0.000000
# 5 0.000000 0.000000 0.000000 0.000000 -1.241293 0.000000
# 6 0.000000 0.000000 0.000000 0.000000 0.000000 0.041412
#
#
# Mechanical properties :
#
#
# Convention : Reuss Voigt Hill
#
# Bulk Modulus (GPa) = 19.89946 52.02073 35.96010
# Shear Modulus (GPa) = -4.94062 19.66680 7.36309
#
# Velocity S-wave (km/s) = -1.61139 3.21496 1.96716
# Velocity P-wave (km/s) = 2.64503 6.41257 4.90496
#
# Compressibility (1/GPa) = 0.05025261
#
# Stress axis : x y z
#
# Youngs Moduli (GPa) = 18.82067 90.58795 85.02510
#
# Poissons Ratio (x) = 0.08810 0.50810
# Poissons Ratio (y) = 0.01830 0.50096
# Poissons Ratio (z) = 0.11247 0.53373
#
# Static dielectric constant tensor:
#      x y z
#    x 1.682780 0.000000 0.000000 
#    y 0.000000 1.684510 0.000000 
#    z 0.000000 0.000000 1.696180 
# 
# From -- ./inp_files/60737.got.cif
#   From: 2010.05.17/outbox.cif.g08.bks.cpg/sg65_31_cif.got.tgz:60737.got - 2010.06.03 17:01:31.
