data_PCOD9484986
_publ_section_title
;
Structure prediction by ZEFSAII (Michael W. Deem and Ramdas Pophale) SiO2 
 PCOD9484986
Probable space group: C M M M
;
_chemical_formula_sum "Si O2"
_cell_formula_units_Z 72
_cell_length_a 7.363260
_cell_length_b 18.743257
_cell_length_c 24.479428
_cell_angle_alpha 90.000000
_cell_angle_beta 90.000000
_cell_angle_gamma 90.000000
_cell_volume 3378.441954
_symmetry_space_group_name_H-M "C M M M"
_symmetry_group_IT_number 65
_symmetry_cell_setting 'orthorhombic'
loop_
_space_group_symop_operation_xyz
x,y,z
-x,-y,z
x,-y,-z
-x,y,-z
-x,-y,-z
x,y,-z
-x,y,z
x,-y,z
1/2+x,1/2+y,z
1/2-x,1/2-y,z
1/2+x,1/2-y,-z
1/2-x,1/2+y,-z
1/2-x,1/2-y,-z
1/2+x,1/2+y,-z
1/2-x,1/2+y,z
1/2+x,1/2-y,z
loop_
_atom_site_type_symbol
_atom_site_label
_atom_site_fract_x
_atom_site_fract_y
_atom_site_fract_z
Si Si1 0.787812 0.086710 0.000000
Si Si2 0.722202 0.416941 0.119126
Si Si3 0.716891 0.333723 0.439080
Si Si4 0.277793 0.582328 0.667078
Si Si5 0.216595 0.166029 0.225734
O O1 0.713736 0.108456 0.059152
O O2 0.000000 0.106965 0.000000
O O3 0.779842 0.000000 0.000000
O O4 0.500000 0.415769 0.117608
O O5 0.772815 0.500000 0.126860
O O6 0.784545 0.369719 0.169831
O O7 0.787588 0.350408 0.500000
O O8 0.500000 0.343714 0.440983
O O9 0.750000 0.250000 0.428558
O O10 0.784728 0.380897 0.389006
O O11 0.500000 0.584076 0.666772
O O12 0.224075 0.500000 0.670545
O O13 0.215987 0.626479 0.719932
O O14 0.250000 0.250000 0.227777
O O15 0.000000 0.155298 0.225291
#
# Coordination Sequence:
#
# PCOD9484986 Si02
#       5
#     8  16  16  16  16
#     4   7  10  18  35  60  85 105 132 175 216 244
#     4   8  13  23  41  63  84 108 141 178 212 246
#     4   9  17  29  46  67  90 116 143 172 209 253
#     4   9  17  29  46  67  87 109 143 184 217 245
#     4  10  19  30  45  64  87 114 142 174 213 256
#
# _framework density 21.311599000000001
#
# number of rings (size 3 to 8) (size 9 to 14) (size 15 to 20)
#    0.000    3.222    0.000    2.667    0.000    3.111 
#    0.000    2.778    0.000    4.667    0.000    3.111 
#    0.000    2.667    0.000    0.000    0.000    0.000 
#
# Total GULP energy -200880.465379 kJ/mol
# GULP energy per Si atom -5580.012927 kJ/mol
# Density = 2.126309 g / cm^3
# Si number density = 21.311599 Si / 1000 Ang^3
#
#
#
# Elastic Constant Matrix: (Units=GPa)
#
#
# Indices 1 2 3 4 5 6 
#
# 1 78.3979 -2.2776 12.6666 0.0000 0.0000 0.0000
# 2 -2.2776 144.4823 151.6108 0.0000 0.0000 0.0000
# 3 12.6666 151.6108 269.8691 0.0000 0.0000 0.0000
# 4 0.0000 0.0000 0.0000 16.1695 0.0000 0.0000
# 5 0.0000 0.0000 0.0000 0.0000 -48.5294 0.0000
# 6 0.0000 0.0000 0.0000 0.0000 0.0000 15.0844
#
#
#
# Elastic Compliance Matrix: (Units=1/GPa)
#
#
# Indices 1 2 3 4 5 6 
#
# 1 0.013103 0.002075 -0.001781 0.000000 0.000000 0.000000
# 2 0.002075 0.017190 -0.009755 0.000000 0.000000 0.000000
# 3 -0.001781 -0.009755 0.009269 0.000000 0.000000 0.000000
# 4 0.000000 0.000000 0.000000 0.061845 0.000000 0.000000
# 5 0.000000 0.000000 0.000000 0.000000 -0.020606 0.000000
# 6 0.000000 0.000000 0.000000 0.000000 0.000000 0.066294
#
#
# Mechanical properties :
#
#
# Convention : Reuss Voigt Hill
#
# Bulk Modulus (GPa) = 48.44442 90.74987 69.59715
# Shear Modulus (GPa) = 28.91921 18.59488 23.75705
#
# Velocity S-wave (km/s) = 3.68770 2.95706 3.34241
# Velocity P-wave (km/s) = 6.39633 7.37114 6.90097
#
# Compressibility (1/GPa) = 0.02064221
#
# Stress axis : x y z
#
# Youngs Moduli (GPa) = 76.31558 58.17408 107.88501
#
# Poissons Ratio (x) = -0.12074 0.19214
# Poissons Ratio (y) = -0.15839 1.05237
# Poissons Ratio (z) = 0.13592 0.56746
#
# Static dielectric constant tensor:
#      x y z
#    x 1.826260 0.000000 0.000000 
#    y 0.000000 1.697360 0.000000 
#    z 0.000000 0.000000 1.785170 
# 
# From -- ./inp_files/61307.got.cif
#   From: 2010.05.17/outbox.cif.g08.bks.cpg/sg65_31_cif.got.tgz:61307.got - 2010.06.03 17:01:31.
