data_PCOD9484494
_publ_section_title
;
Structure prediction by ZEFSAII (Michael W. Deem and Ramdas Pophale) SiO2 
 PCOD9484494
Probable space group: C M M M
;
_chemical_formula_sum "Si O2"
_cell_formula_units_Z 72
_cell_length_a 8.173612
_cell_length_b 21.768990
_cell_length_c 19.793339
_cell_angle_alpha 90.000000
_cell_angle_beta 90.000000
_cell_angle_gamma 90.000000
_cell_volume 3521.854102
_symmetry_space_group_name_H-M "C M M M"
_symmetry_group_IT_number 65
_symmetry_cell_setting 'orthorhombic'
loop_
_space_group_symop_operation_xyz
x,y,z
-x,-y,z
x,-y,-z
-x,y,-z
-x,-y,-z
x,y,-z
-x,y,z
x,-y,z
1/2+x,1/2+y,z
1/2-x,1/2-y,z
1/2+x,1/2-y,-z
1/2-x,1/2+y,-z
1/2-x,1/2-y,-z
1/2+x,1/2+y,-z
1/2-x,1/2+y,z
1/2+x,1/2-y,z
loop_
_atom_site_type_symbol
_atom_site_label
_atom_site_fract_x
_atom_site_fract_y
_atom_site_fract_z
Si Si1 0.688929 0.183599 0.398197
Si Si2 0.306336 0.572874 0.000000
Si Si3 0.500000 0.401617 0.426217
Si Si4 0.000000 0.066206 0.273502
Si Si5 0.816725 0.644609 0.753873
Si Si6 0.810018 0.317756 0.095183
O O1 0.500000 0.170907 0.418792
O O2 0.750000 0.250000 0.420555
O O3 0.831311 0.137634 0.421804
O O4 0.688053 0.182116 0.316120
O O5 0.261901 0.619491 0.937661
O O6 0.242712 0.500000 0.000000
O O7 0.500000 0.566599 0.000000
O O8 0.500000 0.431780 0.500000
O O9 0.500000 0.436406 0.355140
O O10 0.165077 0.099414 0.252173
O O11 0.000000 0.000000 0.241944
O O12 0.792204 0.679845 0.823748
O O13 0.000000 0.616331 0.756718
O O14 0.750000 0.250000 0.073403
O O15 0.000000 0.320316 0.078821
#
# Coordination Sequence:
#
# PCOD9484494 Si02
#       6
#    16   8   8   8  16  16
#     4  10  18  33  53  80 115 152 185 234 295 357
#     4  11  26  45  62  85 125 171 214 259 308 365
#     4  10  22  37  52  78 113 151 199 241 286 357
#     4  10  22  39  62  85 114 156 197 251 304 357
#     4   9  21  37  59  90 121 151 194 245 306 363
#     4  11  23  40  65  95 125 163 205 257 311 375
#
# _framework density 20.443777999999998
#
# number of rings (size 3 to 8) (size 9 to 14) (size 15 to 20)
#    0.000    1.889    1.111    2.000    3.111    3.333 
#    0.000    2.222    0.000    0.000    0.000    6.222 
#    0.000    0.000    0.000    0.000    0.000    0.000 
#
# Total GULP energy -200459.115733 kJ/mol
# GULP energy per Si atom -5568.308770 kJ/mol
# Density = 2.039725 g / cm^3
# Si number density = 20.443778 Si / 1000 Ang^3
#
#
#
# Elastic Constant Matrix: (Units=GPa)
#
#
# Indices 1 2 3 4 5 6 
#
# 1 173.6099 86.5505 29.1109 0.0000 0.0000 0.0000
# 2 86.5505 137.9300 24.9557 0.0000 0.0000 0.0000
# 3 29.1109 24.9557 136.2427 0.0000 0.0000 0.0000
# 4 0.0000 0.0000 0.0000 -44.5181 0.0000 0.0000
# 5 0.0000 0.0000 0.0000 0.0000 126.6480 0.0000
# 6 0.0000 0.0000 0.0000 0.0000 0.0000 -72.1922
#
#
#
# Elastic Compliance Matrix: (Units=1/GPa)
#
#
# Indices 1 2 3 4 5 6 
#
# 1 0.008480 -0.005164 -0.000866 0.000000 0.000000 0.000000
# 2 -0.005164 0.010644 -0.000846 0.000000 0.000000 0.000000
# 3 -0.000866 -0.000846 0.007680 0.000000 0.000000 0.000000
# 4 0.000000 0.000000 0.000000 -0.022463 0.000000 0.000000
# 5 0.000000 0.000000 0.000000 0.000000 0.007896 0.000000
# 6 0.000000 0.000000 0.000000 0.000000 0.000000 -0.013852
#
#
# Mechanical properties :
#
#
# Convention : Reuss Voigt Hill
#
# Bulk Modulus (GPa) = 76.62516 81.00189 78.81353
# Shear Modulus (GPa) = 303.25274 22.46525 162.85900
#
# Velocity S-wave (km/s) = 12.19250 3.31853 8.93503
# Velocity P-wave (km/s) = 15.35486 7.37505 12.04498
#
# Compressibility (1/GPa) = 0.01305054
#
# Stress axis : x y z
#
# Youngs Moduli (GPa) = 117.92623 93.95142 130.21085
#
# Poissons Ratio (x) = 0.48520 0.11275
# Poissons Ratio (y) = 0.60902 0.11018
# Poissons Ratio (z) = 0.10211 0.07950
#
# Static dielectric constant tensor:
#      x y z
#    x 1.681190 0.000000 0.000000 
#    y 0.000000 1.728450 0.000000 
#    z 0.000000 0.000000 1.781170 
# 
# From -- ./inp_files/59396.got.cif
#   From: 2010.05.17/outbox.cif.g08.bks.cpg/sg65_30_cif.got.tgz:59396.got - 2010.06.03 17:01:31.
