data_PCOD9484466
_publ_section_title
;
Structure prediction by ZEFSAII (Michael W. Deem and Ramdas Pophale) SiO2 
 PCOD9484466
Probable space group: C M M M
;
_chemical_formula_sum "Si O2"
_cell_formula_units_Z 72
_cell_length_a 23.800871
_cell_length_b 17.860722
_cell_length_c 7.639047
_cell_angle_alpha 90.000000
_cell_angle_beta 90.000000
_cell_angle_gamma 90.000000
_cell_volume 3247.364535
_symmetry_space_group_name_H-M "C M M M"
_symmetry_group_IT_number 65
_symmetry_cell_setting 'orthorhombic'
loop_
_space_group_symop_operation_xyz
x,y,z
-x,-y,z
x,-y,-z
-x,y,-z
-x,-y,-z
x,y,-z
-x,y,z
x,-y,z
1/2+x,1/2+y,z
1/2-x,1/2-y,z
1/2+x,1/2-y,-z
1/2-x,1/2+y,-z
1/2-x,1/2-y,-z
1/2+x,1/2+y,-z
1/2-x,1/2+y,z
1/2+x,1/2-y,z
loop_
_atom_site_type_symbol
_atom_site_label
_atom_site_fract_x
_atom_site_fract_y
_atom_site_fract_z
Si Si1 0.885683 0.914986 0.712242
Si Si2 0.564677 0.000000 0.714866
Si Si3 0.142046 0.636186 0.704789
Si Si4 0.938816 0.236788 0.204892
Si Si5 0.759743 0.911207 0.290485
O O1 0.885198 0.915067 0.500000
O O2 0.927554 0.850888 0.771256
O O3 0.822412 0.895487 0.776420
O O4 0.898741 0.000000 0.767641
O O5 0.599460 0.927054 0.774240
O O6 0.500000 0.000000 0.773195
O O7 0.563053 0.000000 0.500000
O O8 0.148714 0.617430 0.500000
O O9 0.111787 0.715482 0.717017
O O10 0.205011 0.631337 0.779652
O O11 0.000000 0.257422 0.279697
O O12 0.939304 0.253971 0.000000
O O13 0.763538 0.897793 0.500000
O O14 0.749328 0.000000 0.265928
#
# Coordination Sequence:
#
# PCOD9484466 Si02
#       5
#    16   8  16  16  16
#     4   9  19  37  62  87 108 134 174 225 278 331
#     4   9  16  26  47  81 111 139 180 223 258 298
#     4  10  18  32  57  84 111 143 180 223 266 315
#     4  11  25  41  53  72 109 151 187 225 271 322
#     4   8  14  29  55  87 116 138 168 217 275 325
#
# _framework density 22.171825999999999
#
# number of rings (size 3 to 8) (size 9 to 14) (size 15 to 20)
#    0.000    2.556    1.111    2.667    0.000    4.444 
#    0.000    8.333    0.000    3.333    0.000    0.000 
#    0.000    0.000    0.000    0.000    0.000    0.000 
#
# Total GULP energy -200929.784629 kJ/mol
# GULP energy per Si atom -5581.382906 kJ/mol
# Density = 2.212136 g / cm^3
# Si number density = 22.171826 Si / 1000 Ang^3
#
#
#
# Elastic Constant Matrix: (Units=GPa)
#
#
# Indices 1 2 3 4 5 6 
#
# 1 37.1214 -3.5489 -2.9042 0.0000 0.0000 0.0000
# 2 -3.5489 48.2086 -13.1601 0.0000 0.0000 0.0000
# 3 -2.9042 -13.1601 39.6822 0.0000 0.0000 0.0000
# 4 0.0000 0.0000 0.0000 383.6702 0.0000 0.0000
# 5 0.0000 0.0000 0.0000 0.0000 24.9722 0.0000
# 6 0.0000 0.0000 0.0000 0.0000 0.0000 29.9280
#
#
#
# Elastic Compliance Matrix: (Units=1/GPa)
#
#
# Indices 1 2 3 4 5 6 
#
# 1 0.027439 0.002824 0.002945 0.000000 0.000000 0.000000
# 2 0.002824 0.023099 0.007867 0.000000 0.000000 0.000000
# 3 0.002945 0.007867 0.028025 0.000000 0.000000 0.000000
# 4 0.000000 0.000000 0.000000 0.002606 0.000000 0.000000
# 5 0.000000 0.000000 0.000000 0.000000 0.040044 0.000000
# 6 0.000000 0.000000 0.000000 0.000000 0.000000 0.033414
#
#
# Mechanical properties :
#
#
# Convention : Reuss Voigt Hill
#
# Bulk Modulus (GPa) = 9.44882 9.53174 9.49028
# Shear Modulus (GPa) = 30.74396 97.35578 64.04987
#
# Velocity S-wave (km/s) = 3.72778 6.63363 5.38058
# Velocity P-wave (km/s) = 4.77486 7.93610 6.54908
#
# Compressibility (1/GPa) = 0.10583335
#
# Stress axis : x y z
#
# Youngs Moduli (GPa) = 36.44448 43.29264 35.68276
#
# Poissons Ratio (x) = -0.12225 -0.10507
# Poissons Ratio (y) = -0.10291 -0.28072
# Poissons Ratio (z) = -0.10732 -0.34058
#
# Static dielectric constant tensor:
#      x y z
#    x 1.838610 0.000000 0.000000 
#    y 0.000000 1.781890 0.000000 
#    z 0.000000 0.000000 1.866480 
# 
# From -- ./inp_files/13618.got.cif
#   From: 2010.05.17/outbox.cif.g08.bks.cpg/sg65_7_cif.got.tgz:13618.got - 2010.06.03 17:01:31.
