data_PCOD9484819
_publ_section_title
;
Structure prediction by ZEFSAII (Michael W. Deem and Ramdas Pophale) SiO2 
 PCOD9484819
Probable space group: C M M M
;
_chemical_formula_sum "Si O2"
_cell_formula_units_Z 88
_cell_length_a 14.521538
_cell_length_b 16.304129
_cell_length_c 17.322942
_cell_angle_alpha 90.000000
_cell_angle_beta 90.000000
_cell_angle_gamma 90.000000
_cell_volume 4101.397570
_symmetry_space_group_name_H-M "C M M M"
_symmetry_group_IT_number 65
_symmetry_cell_setting 'orthorhombic'
loop_
_space_group_symop_operation_xyz
x,y,z
-x,-y,z
x,-y,-z
-x,y,-z
-x,-y,-z
x,y,-z
-x,y,z
x,-y,z
1/2+x,1/2+y,z
1/2-x,1/2-y,z
1/2+x,1/2-y,-z
1/2-x,1/2+y,-z
1/2-x,1/2-y,-z
1/2+x,1/2+y,-z
1/2-x,1/2+y,z
1/2+x,1/2-y,z
loop_
_atom_site_type_symbol
_atom_site_label
_atom_site_fract_x
_atom_site_fract_y
_atom_site_fract_z
Si Si1 0.105515 0.000000 0.594189
Si Si2 0.637952 0.653604 0.000000
Si Si3 0.361580 0.155904 0.000000
Si Si4 0.610982 0.322446 0.587198
Si Si5 0.362714 0.409049 0.832831
Si Si6 0.858072 0.251119 0.743155
Si Si7 0.138116 0.590966 0.833583
O O1 0.148395 0.087944 0.614400
O O2 0.102120 0.000000 0.500000
O O3 0.000000 0.000000 0.622293
O O4 0.609329 0.748923 0.000000
O O5 0.749744 0.655212 0.000000
O O6 0.610041 0.609209 0.921289
O O7 0.389453 0.111741 0.921344
O O8 0.642868 0.305198 0.500000
O O9 0.500000 0.330780 0.583597
O O10 0.631895 0.255961 0.651573
O O11 0.392380 0.500000 0.808036
O O12 0.395269 0.332484 0.781534
O O13 0.250516 0.409495 0.831459
O O14 0.750000 0.250000 0.761914
O O15 0.894164 0.334515 0.780020
O O16 0.108069 0.500000 0.811245
#
# Coordination Sequence:
#
# PCOD9484819 Si02
#       7
#     8   8   8  16  16  16  16
#     4   7  12  26  48  72  92 111 142 182 220 269
#     4   9  13  21  35  54  89 126 160 186 216 268
#     4   9  13  21  37  56  83 124 160 190 225 269
#     4   9  18  33  52  71  93 122 154 188 230 284
#     4   9  16  24  37  60  93 129 156 184 228 276
#     4  10  19  29  44  70  98 123 152 194 237 278
#     4   9  16  26  39  59  90 124 158 195 233 269
#
# _framework density 21.456099999999999
#
# number of rings (size 3 to 8) (size 9 to 14) (size 15 to 20)
#    0.000    3.000    1.818    1.636    1.273    2.545 
#    0.000    0.000    0.000    1.091    0.000    3.818 
#    0.000    2.909    0.000    0.000    0.000    0.000 
#
# Total GULP energy -245579.264711 kJ/mol
# GULP energy per Si atom -5581.346925 kJ/mol
# Density = 2.140727 g / cm^3
# Si number density = 21.456100 Si / 1000 Ang^3
#
#
#
# Elastic Constant Matrix: (Units=GPa)
#
#
# Indices 1 2 3 4 5 6 
#
# 1 72.6643 8.4713 -5.8432 0.0000 0.0000 0.0000
# 2 8.4713 198.3884 95.4832 0.0000 0.0000 0.0000
# 3 -5.8432 95.4832 124.5094 0.0000 0.0000 0.0000
# 4 0.0000 0.0000 0.0000 19.0681 0.0000 0.0000
# 5 0.0000 0.0000 0.0000 0.0000 31.2084 0.0000
# 6 0.0000 0.0000 0.0000 0.0000 0.0000 -18.3357
#
#
#
# Elastic Compliance Matrix: (Units=1/GPa)
#
#
# Indices 1 2 3 4 5 6 
#
# 1 0.014075 -0.001456 0.001777 0.000000 0.000000 0.000000
# 2 -0.001456 0.008140 -0.006311 0.000000 0.000000 0.000000
# 3 0.001777 -0.006311 0.012955 0.000000 0.000000 0.000000
# 4 0.000000 0.000000 0.000000 0.052444 0.000000 0.000000
# 5 0.000000 0.000000 0.000000 0.000000 0.032043 0.000000
# 6 0.000000 0.000000 0.000000 0.000000 0.000000 -0.054538
#
#
# Mechanical properties :
#
#
# Convention : Reuss Voigt Hill
#
# Bulk Modulus (GPa) = 43.12267 65.75385 54.43826
# Shear Modulus (GPa) = 58.94351 26.21821 42.58086
#
# Velocity S-wave (km/s) = 5.24703 3.49943 4.45967
# Velocity P-wave (km/s) = 7.53990 6.85859 7.20730
#
# Compressibility (1/GPa) = 0.02318966
#
# Stress axis : x y z
#
# Youngs Moduli (GPa) = 71.04974 122.84723 77.19275
#
# Poissons Ratio (x) = 0.17892 -0.13721
# Poissons Ratio (y) = 0.10348 0.48715
# Poissons Ratio (z) = -0.12629 0.77527
#
# Static dielectric constant tensor:
#      x y z
#    x 1.826430 0.000000 0.000000 
#    y 0.000000 1.797280 0.000000 
#    z 0.000000 0.000000 1.761600 
# 
# From -- ./inp_files/55805.got.cif
#   From: 2010.05.17/outbox.cif.g08.bks.cpg/sg65_28_cif.got.tgz:55805.got - 2010.06.03 17:01:31.
