data_PCOD9484059
_publ_section_title
;
Structure prediction by ZEFSAII (Michael W. Deem and Ramdas Pophale) SiO2 
 PCOD9484059
Probable space group: C M M M
;
_chemical_formula_sum "Si O2"
_cell_formula_units_Z 72
_cell_length_a 19.696878
_cell_length_b 28.467160
_cell_length_c 8.435873
_cell_angle_alpha 90.000000
_cell_angle_beta 90.000000
_cell_angle_gamma 90.000000
_cell_volume 4730.113591
_symmetry_space_group_name_H-M "C M M M"
_symmetry_group_IT_number 65
_symmetry_cell_setting 'orthorhombic'
loop_
_space_group_symop_operation_xyz
x,y,z
-x,-y,z
x,-y,-z
-x,y,-z
-x,-y,-z
x,y,-z
-x,y,z
x,-y,z
1/2+x,1/2+y,z
1/2-x,1/2-y,z
1/2+x,1/2-y,-z
1/2-x,1/2+y,-z
1/2-x,1/2-y,-z
1/2+x,1/2+y,-z
1/2-x,1/2+y,z
1/2+x,1/2-y,z
loop_
_atom_site_type_symbol
_atom_site_label
_atom_site_fract_x
_atom_site_fract_y
_atom_site_fract_z
Si Si1 0.350052 0.274445 0.810661
Si Si2 0.000000 0.764016 0.193362
Si Si3 0.079569 0.500000 0.310112
Si Si4 0.867835 0.401509 0.190240
Si Si5 0.215533 0.319680 0.313108
Si Si6 0.000000 0.343594 0.807311
O O1 0.427237 0.284696 0.758435
O O2 0.292542 0.305727 0.729114
O O3 0.330548 0.220184 0.772522
O O4 0.345106 0.280345 0.000000
O O5 0.000000 0.709832 0.247093
O O6 0.000000 0.763994 0.000000
O O7 0.078112 0.500000 0.500000
O O8 0.118496 0.546204 0.250460
O O9 0.000000 0.500000 0.254142
O O10 0.805138 0.371381 0.255700
O O11 0.933628 0.371577 0.243276
O O12 0.864934 0.401879 0.000000
O O13 0.204878 0.315231 0.500000
O O14 0.000000 0.342749 0.000000
#
# Coordination Sequence:
#
# PCOD9484059 Si02
#       6
#    16   8   8  16  16   8
#     4  10  18  31  49  68  90 123 161 197 234 286
#     4   9  16  28  47  71  92 116 159 205 235 270
#     4  11  23  35  47  71 101 124 153 200 249 283
#     4  11  20  34  52  67  88 126 169 202 233 281
#     4  11  21  32  44  66  96 125 156 198 243 284
#     4   9  16  27  45  68  89 117 161 203 234 267
#
# _framework density 15.221621000000001
#
# number of rings (size 3 to 8) (size 9 to 14) (size 15 to 20)
#    0.000    1.667    3.333    5.000    0.000    0.444 
#    0.000    3.333    0.000    0.000    0.000    0.000 
#    0.000    0.889    0.000    9.556    0.000    4.222 
#
# Total GULP energy -200847.191461 kJ/mol
# GULP energy per Si atom -5579.088652 kJ/mol
# Density = 1.518698 g / cm^3
# Si number density = 15.221621 Si / 1000 Ang^3
#
#
#
# Elastic Constant Matrix: (Units=GPa)
#
#
# Indices 1 2 3 4 5 6 
#
# 1 92.8021 36.9681 2.8131 0.0000 0.0000 0.0000
# 2 36.9681 85.6014 11.4007 0.0000 0.0000 0.0000
# 3 2.8131 11.4007 39.6703 0.0000 0.0000 0.0000
# 4 0.0000 0.0000 0.0000 16.5225 0.0000 0.0000
# 5 0.0000 0.0000 0.0000 0.0000 3.3930 0.0000
# 6 0.0000 0.0000 0.0000 0.0000 0.0000 22.8368
#
#
#
# Elastic Compliance Matrix: (Units=1/GPa)
#
#
# Indices 1 2 3 4 5 6 
#
# 1 0.013034 -0.005725 0.000721 0.000000 0.000000 0.000000
# 2 -0.005725 0.014662 -0.003808 0.000000 0.000000 0.000000
# 3 0.000721 -0.003808 0.026251 0.000000 0.000000 0.000000
# 4 0.000000 0.000000 0.000000 0.060524 0.000000 0.000000
# 5 0.000000 0.000000 0.000000 0.000000 0.294725 0.000000
# 6 0.000000 0.000000 0.000000 0.000000 0.000000 0.043789
#
#
# Mechanical properties :
#
#
# Convention : Reuss Voigt Hill
#
# Bulk Modulus (GPa) = 27.53032 35.60416 31.56724
# Shear Modulus (GPa) = 10.35807 19.67659 15.01733
#
# Velocity S-wave (km/s) = 2.61144 3.59928 3.14439
# Velocity P-wave (km/s) = 5.21713 6.38078 5.82807
#
# Compressibility (1/GPa) = 0.03632359
#
# Stress axis : x y z
#
# Youngs Moduli (GPa) = 76.72022 68.20533 38.09398
#
# Poissons Ratio (x) = 0.39048 -0.02747
# Poissons Ratio (y) = 0.43923 0.14505
# Poissons Ratio (z) = -0.05532 0.25970
#
# Static dielectric constant tensor:
#      x y z
#    x 1.531710 0.000000 0.000000 
#    y 0.000000 1.485070 0.000000 
#    z 0.000000 0.000000 1.510000 
# 
# From -- ./inp_files/12030.got.cif
#   From: 2010.05.17/outbox.cif.g08.bks.cpg/sg65_7_cif.got.tgz:12030.got - 2010.06.03 17:01:31.
