data_PCOD9484261
_publ_section_title
;
Structure prediction by ZEFSAII (Michael W. Deem and Ramdas Pophale) SiO2 
 PCOD9484261
Probable space group: C M M M
;
_chemical_formula_sum "Si O2"
_cell_formula_units_Z 80
_cell_length_a 8.213034
_cell_length_b 27.978038
_cell_length_c 20.015841
_cell_angle_alpha 90.000000
_cell_angle_beta 90.000000
_cell_angle_gamma 90.000000
_cell_volume 4599.331564
_symmetry_space_group_name_H-M "C M M M"
_symmetry_group_IT_number 65
_symmetry_cell_setting 'orthorhombic'
loop_
_space_group_symop_operation_xyz
x,y,z
-x,-y,z
x,-y,-z
-x,y,-z
-x,-y,-z
x,y,-z
-x,y,z
x,-y,z
1/2+x,1/2+y,z
1/2-x,1/2-y,z
1/2+x,1/2-y,-z
1/2-x,1/2+y,-z
1/2-x,1/2-y,-z
1/2+x,1/2+y,-z
1/2-x,1/2+y,z
1/2+x,1/2-y,z
loop_
_atom_site_type_symbol
_atom_site_label
_atom_site_fract_x
_atom_site_fract_y
_atom_site_fract_z
Si Si1 0.000000 0.558107 0.576809
Si Si2 0.818088 0.942551 0.661027
Si Si3 0.807444 0.195157 0.855174
Si Si4 0.692668 0.557564 0.073890
Si Si5 0.194789 0.305505 0.000000
Si Si6 0.813488 0.604062 0.209055
O O1 0.166131 0.572560 0.614715
O O2 0.000000 0.500000 0.576518
O O3 0.000000 0.574158 0.500000
O O4 0.795910 0.918402 0.733137
O O5 0.000000 0.931956 0.634507
O O6 0.807029 0.000000 0.669259
O O7 0.750000 0.250000 0.849945
O O8 0.722979 0.159777 0.803304
O O9 0.000000 0.193222 0.847128
O O10 0.763633 0.176419 0.929825
O O11 0.500000 0.569296 0.077836
O O12 0.706033 0.500000 0.076419
O O13 0.779429 0.579018 0.138046
O O14 0.753236 0.572702 0.000000
O O15 0.250000 0.250000 0.000000
O O16 0.000000 0.308548 0.000000
O O17 0.000000 0.596273 0.228038
#
# Coordination Sequence:
#
# PCOD9484261 Si02
#       6
#     8  16  16  16   8  16
#     4   9  18  34  56  84 117 149 181 217 256 310
#     4  10  20  35  55  81 114 151 185 219 264 316
#     4  11  22  37  53  71  96 130 171 225 279 332
#     4   9  19  35  51  68  94 130 176 227 273 316
#     4  10  18  32  50  68  89 118 161 212 274 328
#     4  12  23  34  51  74 103 140 178 224 269 326
#
# _framework density 17.393830999999999
#
# number of rings (size 3 to 8) (size 9 to 14) (size 15 to 20)
#    0.000    1.700    1.000    6.900    1.400    3.600 
#    0.000    3.000    0.000    0.000    0.000    0.000 
#    0.000    0.800    0.400    0.000    0.000    0.000 
#
# Total GULP energy -223375.841865 kJ/mol
# GULP energy per Si atom -5584.396047 kJ/mol
# Density = 1.735424 g / cm^3
# Si number density = 17.393831 Si / 1000 Ang^3
#
#
#
# Elastic Constant Matrix: (Units=GPa)
#
#
# Indices 1 2 3 4 5 6 
#
# 1 102.1831 15.2820 32.8868 0.0000 0.0000 0.0000
# 2 15.2820 39.5749 22.1661 0.0000 0.0000 0.0000
# 3 32.8868 22.1661 87.2035 0.0000 0.0000 0.0000
# 4 0.0000 0.0000 0.0000 10.4423 0.0000 0.0000
# 5 0.0000 0.0000 0.0000 0.0000 17.3321 0.0000
# 6 0.0000 0.0000 0.0000 0.0000 0.0000 22.0888
#
#
#
# Elastic Compliance Matrix: (Units=1/GPa)
#
#
# Indices 1 2 3 4 5 6 
#
# 1 0.011316 -0.002308 -0.003681 0.000000 0.000000 0.000000
# 2 -0.002308 0.029934 -0.006738 0.000000 0.000000 0.000000
# 3 -0.003681 -0.006738 0.014568 0.000000 0.000000 0.000000
# 4 0.000000 0.000000 0.000000 0.095764 0.000000 0.000000
# 5 0.000000 0.000000 0.000000 0.000000 0.057696 0.000000
# 6 0.000000 0.000000 0.000000 0.000000 0.000000 0.045272
#
#
# Mechanical properties :
#
#
# Convention : Reuss Voigt Hill
#
# Bulk Modulus (GPa) = 32.93403 41.07015 37.00209
# Shear Modulus (GPa) = 17.23383 20.54776 18.89080
#
# Velocity S-wave (km/s) = 3.15111 3.44077 3.29912
# Velocity P-wave (km/s) = 5.67581 6.28079 5.98595
#
# Compressibility (1/GPa) = 0.03036373
#
# Stress axis : x y z
#
# Youngs Moduli (GPa) = 88.36865 33.40679 68.64143
#
# Poissons Ratio (x) = 0.07711 0.25267
# Poissons Ratio (y) = 0.20396 0.46254
# Poissons Ratio (z) = 0.32528 0.22511
#
# Static dielectric constant tensor:
#      x y z
#    x 1.608010 0.000000 0.000000 
#    y 0.000000 1.601390 0.000000 
#    z 0.000000 0.000000 1.570950 
# 
# From -- ./inp_files/60555.got.cif
#   From: 2010.05.17/outbox.cif.g08.bks.cpg/sg65_31_cif.got.tgz:60555.got - 2010.06.03 17:01:31.
