data_PCOD9484019
_publ_section_title
;
Structure prediction by ZEFSAII (Michael W. Deem and Ramdas Pophale) SiO2 
 PCOD9484019
Probable space group: C M M M
;
_chemical_formula_sum "Si O2"
_cell_formula_units_Z 66
_cell_length_a 26.393870
_cell_length_b 15.951086
_cell_length_c 7.437912
_cell_angle_alpha 90.000000
_cell_angle_beta 90.000000
_cell_angle_gamma 90.000000
_cell_volume 3131.441953
_symmetry_space_group_name_H-M "C M M M"
_symmetry_group_IT_number 65
_symmetry_cell_setting 'orthorhombic'
loop_
_space_group_symop_operation_xyz
x,y,z
-x,-y,z
x,-y,-z
-x,y,-z
-x,-y,-z
x,y,-z
-x,y,z
x,-y,z
1/2+x,1/2+y,z
1/2-x,1/2-y,z
1/2+x,1/2-y,-z
1/2-x,1/2+y,-z
1/2-x,1/2-y,-z
1/2+x,1/2+y,-z
1/2-x,1/2+y,z
1/2+x,1/2-y,z
loop_
_atom_site_type_symbol
_atom_site_label
_atom_site_fract_x
_atom_site_fract_y
_atom_site_fract_z
Si Si1 0.369578 0.850267 0.219079
Si Si2 0.000000 0.000000 0.500000
Si Si3 0.345498 0.327953 0.791260
Si Si4 0.756607 0.403815 0.219457
Si Si5 0.441753 0.000000 0.220171
Si Si6 0.104885 0.000000 0.303700
O O1 0.374363 0.753776 0.280239
O O2 0.312895 0.877645 0.273037
O O3 0.410964 0.917480 0.280001
O O4 0.372048 0.854123 0.000000
O O5 0.954646 0.000000 0.653982
O O6 0.289584 0.346350 0.715300
O O7 0.376925 0.413810 0.783194
O O8 0.336512 0.308207 0.000000
O O9 0.746896 0.500000 0.270815
O O10 0.756040 0.401505 0.000000
O O11 0.500000 0.000000 0.277577
O O12 0.441762 0.000000 0.000000
O O13 0.130543 0.000000 0.500000
#
# Coordination Sequence:
#
# PCOD9484019 Si02
#       6
#    16   2  16  16   8   8
#     4   9  16  26  43  71 108 140 168 204 253 305
#     4   8  24  44  58  64  88 142 182 196 266 340
#     4  10  18  30  53  84 104 125 168 221 261 298
#     4   9  14  23  43  72 108 141 164 195 250 312
#     4   9  16  27  38  57  97 144 174 199 245 306
#     4  10  21  40  56  68  98 133 175 206 258 323
#
# _framework density 21.076552
#
# number of rings (size 3 to 8) (size 9 to 14) (size 15 to 20)
#    0.364    2.303    2.424    1.091    0.000    2.909 
#    2.182    1.212    0.000    2.909    0.000    0.848 
#    0.000    1.939    0.000    0.000    0.000    0.000 
#
# Total GULP energy -183739.283479 kJ/mol
# GULP energy per Si atom -5567.857075 kJ/mol
# Density = 2.102858 g / cm^3
# Si number density = 21.076552 Si / 1000 Ang^3
#
#
#
# Elastic Constant Matrix: (Units=GPa)
#
#
# Indices 1 2 3 4 5 6 
#
# 1 181.4275 100.8347 -1.0066 0.0000 0.0000 0.0000
# 2 100.8347 198.4435 0.7972 0.0000 0.0000 0.0000
# 3 -1.0066 0.7972 57.0426 0.0000 0.0000 0.0000
# 4 0.0000 0.0000 0.0000 -25.5600 0.0000 0.0000
# 5 0.0000 0.0000 0.0000 0.0000 -28.2184 0.0000
# 6 0.0000 0.0000 0.0000 0.0000 0.0000 9.9964
#
#
#
# Elastic Compliance Matrix: (Units=1/GPa)
#
#
# Indices 1 2 3 4 5 6 
#
# 1 0.007683 -0.003905 0.000190 0.000000 0.000000 0.000000
# 2 -0.003905 0.007024 -0.000167 0.000000 0.000000 0.000000
# 3 0.000190 -0.000167 0.017536 0.000000 0.000000 0.000000
# 4 0.000000 0.000000 0.000000 -0.039124 0.000000 0.000000
# 5 0.000000 0.000000 0.000000 0.000000 -0.035438 0.000000
# 6 0.000000 0.000000 0.000000 0.000000 0.000000 0.100036
#
#
# Mechanical properties :
#
#
# Convention : Reuss Voigt Hill
#
# Bulk Modulus (GPa) = 40.84937 70.90714 55.87826
# Shear Modulus (GPa) = 67.89683 13.66283 40.77983
#
# Velocity S-wave (km/s) = 5.68193 2.54883 4.40346
# Velocity P-wave (km/s) = 7.90375 6.50982 7.24041
#
# Compressibility (1/GPa) = 0.02448018
#
# Stress axis : x y z
#
# Youngs Moduli (GPa) = 130.15561 142.36879 57.02414
#
# Poissons Ratio (x) = 0.55592 -0.01084
# Poissons Ratio (y) = 0.50823 0.00953
# Poissons Ratio (z) = -0.02475 0.02378
#
# Static dielectric constant tensor:
#      x y z
#    x 1.708810 0.000000 0.000000 
#    y 0.000000 1.816680 0.000000 
#    z 0.000000 0.000000 1.826630 
# 
# From -- ./inp_files/15694.got.cif
#   From: 2010.05.17/outbox.cif.g08.bks.cpg/sg65_8_cif.got.tgz:15694.got - 2010.06.03 17:01:31.
