data_PCOD9484012
_publ_section_title
;
Structure prediction by ZEFSAII (Michael W. Deem and Ramdas Pophale) SiO2 
 PCOD9484012
Probable space group: C M M M
;
_chemical_formula_sum "Si O2"
_cell_formula_units_Z 88
_cell_length_a 16.582181
_cell_length_b 14.011048
_cell_length_c 18.984458
_cell_angle_alpha 90.000000
_cell_angle_beta 90.000000
_cell_angle_gamma 90.000000
_cell_volume 4410.730014
_symmetry_space_group_name_H-M "C M M M"
_symmetry_group_IT_number 65
_symmetry_cell_setting 'orthorhombic'
loop_
_space_group_symop_operation_xyz
x,y,z
-x,-y,z
x,-y,-z
-x,y,-z
-x,-y,-z
x,y,-z
-x,y,z
x,-y,z
1/2+x,1/2+y,z
1/2-x,1/2-y,z
1/2+x,1/2-y,-z
1/2-x,1/2+y,-z
1/2-x,1/2-y,-z
1/2+x,1/2+y,-z
1/2-x,1/2+y,z
1/2+x,1/2-y,z
loop_
_atom_site_type_symbol
_atom_site_label
_atom_site_fract_x
_atom_site_fract_y
_atom_site_fract_z
Si Si1 0.369100 0.107642 0.682784
Si Si2 0.598145 0.500000 0.080438
Si Si3 0.093229 0.779766 0.419120
Si Si4 0.598331 0.689709 0.165079
Si Si5 0.678757 0.389038 0.302416
Si Si6 0.907758 0.395745 0.844910
O O1 0.398981 0.183532 0.626562
O O2 0.274448 0.124264 0.697801
O O3 0.409370 0.111174 0.759671
O O4 0.379468 0.000000 0.655568
O O5 0.500000 0.500000 0.080615
O O6 0.622377 0.597230 0.119790
O O7 0.625617 0.500000 0.000000
O O8 0.117955 0.765936 0.500000
O O9 0.146078 0.856712 0.377867
O O10 0.000000 0.809943 0.417734
O O11 0.500000 0.692058 0.169929
O O12 0.635542 0.672618 0.242150
O O13 0.626261 0.792131 0.134124
O O14 0.660585 0.500000 0.288923
O O15 0.869815 0.500000 0.861798
O O16 0.000000 0.398819 0.870766
#
# Coordination Sequence:
#
# PCOD9484012 Si02
#       6
#    16   8  16  16  16  16
#     4  10  21  35  53  78 107 134 178 229 284 333
#     4   9  18  32  52  84 121 151 184 225 271 325
#     4  11  24  39  54  73 102 143 187 233 285 338
#     4  10  18  30  53  81 110 147 182 223 274 327
#     4  11  22  35  53  79 109 140 180 227 282 341
#     4   9  17  30  50  77 108 139 178 228 276 325
#
# _framework density 19.951346000000001
#
# number of rings (size 3 to 8) (size 9 to 14) (size 15 to 20)
#    0.000    1.909    2.727    1.636    0.000    4.364 
#    0.000    3.636    0.000    0.545    0.000    6.364 
#    0.000    0.000    0.000    0.000    0.000    0.545 
#
# Total GULP energy -245498.473382 kJ/mol
# GULP energy per Si atom -5579.510759 kJ/mol
# Density = 1.990594 g / cm^3
# Si number density = 19.951346 Si / 1000 Ang^3
#
#
#
# Elastic Constant Matrix: (Units=GPa)
#
#
# Indices 1 2 3 4 5 6 
#
# 1 30.4228 17.4214 -4.2626 0.0000 0.0000 0.0000
# 2 17.4214 150.0376 22.5220 0.0000 0.0000 0.0000
# 3 -4.2626 22.5220 48.1092 0.0000 0.0000 0.0000
# 4 0.0000 0.0000 0.0000 13.2856 0.0000 0.0000
# 5 0.0000 0.0000 0.0000 0.0000 -84.0072 0.0000
# 6 0.0000 0.0000 0.0000 0.0000 0.0000 -89.1314
#
#
#
# Elastic Compliance Matrix: (Units=1/GPa)
#
#
# Indices 1 2 3 4 5 6 
#
# 1 0.036573 -0.005091 0.005624 0.000000 0.000000 0.000000
# 2 -0.005091 0.007877 -0.004139 0.000000 0.000000 0.000000
# 3 0.005624 -0.004139 0.023222 0.000000 0.000000 0.000000
# 4 0.000000 0.000000 0.000000 0.075270 0.000000 0.000000
# 5 0.000000 0.000000 0.000000 0.000000 -0.011904 0.000000
# 6 0.000000 0.000000 0.000000 0.000000 0.000000 -0.011219
#
#
# Mechanical properties :
#
#
# Convention : Reuss Voigt Hill
#
# Bulk Modulus (GPa) = 16.53965 33.32569 24.93267
# Shear Modulus (GPa) = 33.97098 -19.11135 7.42981
#
# Velocity S-wave (km/s) = 4.13084 -3.09835 1.93185
# Velocity P-wave (km/s) = 5.57313 1.98495 4.18329
#
# Compressibility (1/GPa) = 0.06046077
#
# Stress axis : x y z
#
# Youngs Moduli (GPa) = 27.34238 126.94570 43.06279
#
# Poissons Ratio (x) = 0.64626 -0.24217
# Poissons Ratio (y) = 0.13920 0.17823
# Poissons Ratio (z) = -0.15377 0.52540
#
# Static dielectric constant tensor:
#      x y z
#    x 1.697310 0.000000 0.000000 
#    y 0.000000 1.770450 0.000000 
#    z 0.000000 0.000000 1.660760 
# 
# From -- ./inp_files/53043.got.cif
#   From: 2010.05.17/outbox.cif.g08.bks.cpg/sg65_27_cif.got.tgz:53043.got - 2010.06.03 17:01:31.
