data_PCOD9484637
_publ_section_title
;
Structure prediction by ZEFSAII (Michael W. Deem and Ramdas Pophale) SiO2 
 PCOD9484637
Probable space group: C M M M
;
_chemical_formula_sum "Si O2"
_cell_formula_units_Z 80
_cell_length_a 18.894255
_cell_length_b 37.390871
_cell_length_c 9.112156
_cell_angle_alpha 90.000000
_cell_angle_beta 90.000000
_cell_angle_gamma 90.000000
_cell_volume 6437.489009
_symmetry_space_group_name_H-M "C M M M"
_symmetry_group_IT_number 65
_symmetry_cell_setting 'orthorhombic'
loop_
_space_group_symop_operation_xyz
x,y,z
-x,-y,z
x,-y,-z
-x,y,-z
-x,-y,-z
x,y,-z
-x,y,z
x,-y,z
1/2+x,1/2+y,z
1/2-x,1/2-y,z
1/2+x,1/2-y,-z
1/2-x,1/2+y,-z
1/2-x,1/2-y,-z
1/2+x,1/2+y,-z
1/2-x,1/2+y,z
1/2+x,1/2-y,z
loop_
_atom_site_type_symbol
_atom_site_label
_atom_site_fract_x
_atom_site_fract_y
_atom_site_fract_z
Si Si1 0.585005 0.887653 0.826830
Si Si2 0.917851 0.251719 0.176384
Si Si3 0.414151 0.039787 0.329207
Si Si4 0.844844 0.319949 0.674785
Si Si5 0.285171 0.710342 0.168325
O O1 0.500000 0.884336 0.803773
O O2 0.607792 0.926637 0.768229
O O3 0.623837 0.856403 0.739350
O O4 0.598210 0.884178 0.000000
O O5 0.890458 0.287097 0.258272
O O6 0.865582 0.218858 0.214053
O O7 0.000000 0.245193 0.207637
O O8 0.909984 0.257566 0.000000
O O9 0.394350 0.045052 0.500000
O O10 0.500000 0.039236 0.324853
O O11 0.390311 0.000000 0.282546
O O12 0.848584 0.319366 0.500000
O O13 0.764577 0.313434 0.730105
O O14 0.250000 0.750000 0.168699
O O15 0.283097 0.697305 0.000000
#
# Coordination Sequence:
#
# PCOD9484637 Si02
#       5
#    16  16  16  16  16
#     4  10  19  28  38  52  70  93 122 154 184 214
#     4   9  17  29  43  56  70  90 117 148 182 219
#     4   8  14  25  39  53  70  91 114 143 179 215
#     4  11  20  27  37  53  73  95 119 149 184 218
#     4   8  15  28  42  53  68  91 116 143 177 217
#
# _framework density 12.427206
#
# number of rings (size 3 to 8) (size 9 to 14) (size 15 to 20)
#    0.000    2.800    0.000    4.800    0.000    8.000 
#    0.000    2.000    0.000    0.000    0.000    0.000 
#    0.000    0.000    0.000    0.000    0.000    1.000 
#
# Total GULP energy -222724.594843 kJ/mol
# GULP energy per Si atom -5568.114871 kJ/mol
# Density = 1.239892 g / cm^3
# Si number density = 12.427206 Si / 1000 Ang^3
#
#
#
# Elastic Constant Matrix: (Units=GPa)
#
#
# Indices 1 2 3 4 5 6 
#
# 1 76.3122 36.6793 39.6589 0.0000 0.0000 0.0000
# 2 36.6793 66.5850 49.6514 0.0000 0.0000 0.0000
# 3 39.6589 49.6514 68.9008 0.0000 0.0000 0.0000
# 4 0.0000 0.0000 0.0000 21.0973 0.0000 0.0000
# 5 0.0000 0.0000 0.0000 0.0000 10.3425 0.0000
# 6 0.0000 0.0000 0.0000 0.0000 0.0000 13.0931
#
#
#
# Elastic Compliance Matrix: (Units=1/GPa)
#
#
# Indices 1 2 3 4 5 6 
#
# 1 0.019472 -0.005120 -0.007518 0.000000 0.000000 0.000000
# 2 -0.005120 0.033809 -0.021416 0.000000 0.000000 0.000000
# 3 -0.007518 -0.021416 0.034274 0.000000 0.000000 0.000000
# 4 0.000000 0.000000 0.000000 0.047399 0.000000 0.000000
# 5 0.000000 0.000000 0.000000 0.000000 0.096688 0.000000
# 6 0.000000 0.000000 0.000000 0.000000 0.000000 0.076376
#
#
# Mechanical properties :
#
#
# Convention : Reuss Voigt Hill
#
# Bulk Modulus (GPa) = 51.42551 51.53079 51.47815
# Shear Modulus (GPa) = 13.06813 14.62714 13.84763
#
# Velocity S-wave (km/s) = 3.24632 3.43450 3.34173
# Velocity P-wave (km/s) = 7.45135 7.56861 7.51021
#
# Compressibility (1/GPa) = 0.01944560
#
# Stress axis : x y z
#
# Youngs Moduli (GPa) = 51.35490 29.57832 29.17661
#
# Poissons Ratio (x) = 0.15145 0.21936
# Poissons Ratio (y) = 0.26295 0.62485
# Poissons Ratio (z) = 0.38611 0.63345
#
# Static dielectric constant tensor:
#      x y z
#    x 1.412140 0.000000 0.000000 
#    y 0.000000 1.394730 0.000000 
#    z 0.000000 0.000000 1.412690 
# 
# From -- ./inp_files/12510.got.cif
#   From: 2010.05.17/outbox.cif.g08.bks.cpg/sg65_7_cif.got.tgz:12510.got - 2010.06.03 17:01:31.
