data_PCOD9484748
_publ_section_title
;
Structure prediction by ZEFSAII (Michael W. Deem and Ramdas Pophale) SiO2 
 PCOD9484748
Probable space group: C M M M
;
_chemical_formula_sum "Si O2"
_cell_formula_units_Z 112
_cell_length_a 14.783556
_cell_length_b 29.023923
_cell_length_c 14.926702
_cell_angle_alpha 90.000000
_cell_angle_beta 90.000000
_cell_angle_gamma 90.000000
_cell_volume 6404.701395
_symmetry_space_group_name_H-M "C M M M"
_symmetry_group_IT_number 65
_symmetry_cell_setting 'orthorhombic'
loop_
_space_group_symop_operation_xyz
x,y,z
-x,-y,z
x,-y,-z
-x,y,-z
-x,-y,-z
x,y,-z
-x,y,z
x,-y,z
1/2+x,1/2+y,z
1/2-x,1/2-y,z
1/2+x,1/2-y,-z
1/2-x,1/2+y,-z
1/2-x,1/2-y,-z
1/2+x,1/2+y,-z
1/2-x,1/2+y,z
1/2+x,1/2-y,z
loop_
_atom_site_type_symbol
_atom_site_label
_atom_site_fract_x
_atom_site_fract_y
_atom_site_fract_z
Si Si1 0.239061 0.948185 0.394612
Si Si2 0.604532 0.183595 0.598432
Si Si3 0.391416 0.132202 0.901460
Si Si4 0.390271 0.096103 0.713638
Si Si5 0.856837 0.740632 0.900559
Si Si6 0.607698 0.637094 0.606211
Si Si7 0.351379 0.729725 0.710413
O O1 0.261921 0.943029 0.500000
O O2 0.329979 0.940876 0.337424
O O3 0.165418 0.908793 0.373594
O O4 0.203666 0.000000 0.381136
O O5 0.648874 0.183087 0.500000
O O6 0.500000 0.171315 0.587345
O O7 0.637708 0.144272 0.665360
O O8 0.605587 0.233486 0.642790
O O9 0.500000 0.129002 0.903947
O O10 0.362930 0.101884 0.817264
O O11 0.370571 0.186067 0.885610
O O12 0.355642 0.119555 0.000000
O O13 0.500000 0.089690 0.708152
O O14 0.750000 0.750000 0.905832
O O15 0.890247 0.766449 0.811301
O O16 0.894387 0.751828 0.000000
O O17 0.620237 0.647864 0.500000
O O18 0.500000 0.630451 0.620193
O O19 0.640613 0.679719 0.666942
O O20 0.250000 0.750000 0.716425
#
# Coordination Sequence:
#
# PCOD9484748 Si02
#       7
#    16  16  16  16  16  16  16
#     4  10  22  39  58  79 102 131 172 222 274 325
#     4  10  19  29  42  64  98 137 169 195 231 292
#     4   9  17  30  49  72 100 138 180 214 246 296
#     4  10  19  32  52  79 110 141 172 207 257 320
#     4   9  18  30  44  67 101 142 181 213 248 293
#     4  10  22  38  55  76 103 138 182 228 268 309
#     4  11  20  29  47  73 104 140 172 209 257 301
#
# _framework density 17.487154
#
# number of rings (size 3 to 8) (size 9 to 14) (size 15 to 20)
#    0.000    2.143    1.429    2.143    2.000    5.429 
#    0.000    2.143    0.000    0.429    0.000    2.000 
#    0.000    0.000    0.000    2.571    0.000    0.286 
#
# Total GULP energy -312035.978488 kJ/mol
# GULP energy per Si atom -5572.071044 kJ/mol
# Density = 1.744735 g / cm^3
# Si number density = 17.487154 Si / 1000 Ang^3
#
#
#
# Elastic Constant Matrix: (Units=GPa)
#
#
# Indices 1 2 3 4 5 6 
#
# 1 64.0132 30.9661 38.8272 0.0000 0.0000 0.0000
# 2 30.9661 87.0167 44.8078 0.0000 0.0000 0.0000
# 3 38.8272 44.8078 111.1190 0.0000 0.0000 0.0000
# 4 0.0000 0.0000 0.0000 10.8520 0.0000 0.0000
# 5 0.0000 0.0000 0.0000 0.0000 10.8260 0.0000
# 6 0.0000 0.0000 0.0000 0.0000 0.0000 15.9976
#
#
#
# Elastic Compliance Matrix: (Units=1/GPa)
#
#
# Indices 1 2 3 4 5 6 
#
# 1 0.021255 -0.004720 -0.005524 0.000000 0.000000 0.000000
# 2 -0.004720 0.015552 -0.004622 0.000000 0.000000 0.000000
# 3 -0.005524 -0.004622 0.012793 0.000000 0.000000 0.000000
# 4 0.000000 0.000000 0.000000 0.092149 0.000000 0.000000
# 5 0.000000 0.000000 0.000000 0.000000 0.092370 0.000000
# 6 0.000000 0.000000 0.000000 0.000000 0.000000 0.062510
#
#
# Mechanical properties :
#
#
# Convention : Reuss Voigt Hill
#
# Bulk Modulus (GPa) = 50.32869 54.59456 52.46163
# Shear Modulus (GPa) = 15.01581 17.37164 16.19373
#
# Velocity S-wave (km/s) = 2.93350 3.15524 3.04638
# Velocity P-wave (km/s) = 6.34955 6.67545 6.51454
#
# Compressibility (1/GPa) = 0.01986938
#
# Stress axis : x y z
#
# Youngs Moduli (GPa) = 47.04689 64.30228 78.16596
#
# Poissons Ratio (x) = 0.30348 0.43178
# Poissons Ratio (y) = 0.22204 0.36128
# Poissons Ratio (z) = 0.25988 0.29720
#
# Static dielectric constant tensor:
#      x y z
#    x 2.036510 0.000000 0.000000 
#    y 0.000000 1.528190 0.000000 
#    z 0.000000 0.000000 1.654840 
# 
# From -- ./inp_files/41071.got.cif
#   From: 2010.05.17/outbox.cif.g08.bks.cpg/sg65_21_cif.got.tgz:41071.got - 2010.06.03 17:01:31.
