data_PCOD9484718
_publ_section_title
;
Structure prediction by ZEFSAII (Michael W. Deem and Ramdas Pophale) SiO2 
 PCOD9484718
Probable space group: C M M M
;
_chemical_formula_sum "Si O2"
_cell_formula_units_Z 96
_cell_length_a 16.750881
_cell_length_b 30.337611
_cell_length_c 13.228167
_cell_angle_alpha 90.000000
_cell_angle_beta 90.000000
_cell_angle_gamma 90.000000
_cell_volume 6722.312549
_symmetry_space_group_name_H-M "C M M M"
_symmetry_group_IT_number 65
_symmetry_cell_setting 'orthorhombic'
loop_
_space_group_symop_operation_xyz
x,y,z
-x,-y,z
x,-y,-z
-x,y,-z
-x,-y,-z
x,y,-z
-x,y,z
x,-y,z
1/2+x,1/2+y,z
1/2-x,1/2-y,z
1/2+x,1/2-y,-z
1/2-x,1/2+y,-z
1/2-x,1/2-y,-z
1/2+x,1/2+y,-z
1/2-x,1/2+y,z
1/2+x,1/2-y,z
loop_
_atom_site_type_symbol
_atom_site_label
_atom_site_fract_x
_atom_site_fract_y
_atom_site_fract_z
Si Si1 0.357336 0.915113 0.243485
Si Si2 0.904719 0.670466 0.883975
Si Si3 0.411107 0.309446 0.378647
Si Si4 0.000000 0.553269 0.381662
Si Si5 0.832723 0.724548 0.291487
Si Si6 0.902468 0.500000 0.120831
Si Si7 0.749210 0.859683 0.619876
O O1 0.382739 0.875099 0.170967
O O2 0.423803 0.925665 0.327760
O O3 0.360899 0.957980 0.172618
O O4 0.280320 0.898856 0.306806
O O5 0.866523 0.707884 0.814471
O O6 0.000000 0.674940 0.882965
O O7 0.877375 0.671089 0.000000
O O8 0.410852 0.308652 0.500000
O O9 0.500000 0.322687 0.344071
O O10 0.391049 0.260106 0.341709
O O11 0.337360 0.341557 0.350992
O O12 0.000000 0.500000 0.369313
O O13 0.000000 0.562710 0.500000
O O14 0.750000 0.750000 0.277212
O O15 0.811169 0.681540 0.358886
O O16 0.000000 0.500000 0.139710
O O17 0.893318 0.500000 0.000000
O O18 0.747840 0.870378 0.500000
#
# Coordination Sequence:
#
# PCOD9484718 Si02
#       7
#    16  16  16   8  16   8  16
#     4  11  18  32  44  63  89 116 149 177 215 257
#     4  10  19  29  42  58  81 113 149 185 217 252
#     4   9  16  28  46  66  87 116 151 184 220 266
#     4  11  20  30  44  64  90 118 144 174 208 262
#     4   9  17  28  43  61  86 115 146 185 224 262
#     4  11  20  32  50  68  89 120 153 183 214 255
#     4   9  18  29  43  64  92 120 146 181 223 263
#
# _framework density 14.280799999999999
#
# number of rings (size 3 to 8) (size 9 to 14) (size 15 to 20)
#    0.000    2.167    2.500    2.000    0.000    3.667 
#    0.000    0.000    0.000    0.000    0.000    0.583 
#    0.000    3.333    0.000    0.000    0.000    0.000 
#
# Total GULP energy -267287.510994 kJ/mol
# GULP energy per Si atom -5568.489812 kJ/mol
# Density = 1.424830 g / cm^3
# Si number density = 14.280800 Si / 1000 Ang^3
#
#
#
# Elastic Constant Matrix: (Units=GPa)
#
#
# Indices 1 2 3 4 5 6 
#
# 1 69.4873 28.3960 31.1984 0.0000 0.0000 0.0000
# 2 28.3960 64.6898 28.7548 0.0000 0.0000 0.0000
# 3 31.1984 28.7548 85.8864 0.0000 0.0000 0.0000
# 4 0.0000 0.0000 0.0000 24.5686 0.0000 0.0000
# 5 0.0000 0.0000 0.0000 0.0000 20.6808 0.0000
# 6 0.0000 0.0000 0.0000 0.0000 0.0000 -19.3288
#
#
#
# Elastic Compliance Matrix: (Units=1/GPa)
#
#
# Indices 1 2 3 4 5 6 
#
# 1 0.019120 -0.006233 -0.004858 0.000000 0.000000 0.000000
# 2 -0.006233 0.020193 -0.004496 0.000000 0.000000 0.000000
# 3 -0.004858 -0.004496 0.014914 0.000000 0.000000 0.000000
# 4 0.000000 0.000000 0.000000 0.040702 0.000000 0.000000
# 5 0.000000 0.000000 0.000000 0.000000 0.048354 0.000000
# 6 0.000000 0.000000 0.000000 0.000000 0.000000 -0.051736
#
#
# Mechanical properties :
#
#
# Convention : Reuss Voigt Hill
#
# Bulk Modulus (GPa) = 43.38335 44.08467 43.73401
# Shear Modulus (GPa) = 38.34185 13.96507 26.15346
#
# Velocity S-wave (km/s) = 5.18718 3.13052 4.28410
# Velocity P-wave (km/s) = 8.14374 6.63353 7.42712
#
# Compressibility (1/GPa) = 0.02305032
#
# Stress axis : x y z
#
# Youngs Moduli (GPa) = 52.30229 49.52172 67.05322
#
# Poissons Ratio (x) = 0.30868 0.32577
# Poissons Ratio (y) = 0.32601 0.30150
# Poissons Ratio (z) = 0.25411 0.22267
#
# Static dielectric constant tensor:
#      x y z
#    x 1.474890 0.000000 0.000000 
#    y 0.000000 1.476280 0.000000 
#    z 0.000000 0.000000 1.465220 
# 
# From -- ./inp_files/40997.got.cif
#   From: 2010.05.17/outbox.cif.g08.bks.cpg/sg65_21_cif.got.tgz:40997.got - 2010.06.03 17:01:31.
