data_PCOD9484046
_publ_section_title
;
Structure prediction by ZEFSAII (Michael W. Deem and Ramdas Pophale) SiO2 
 PCOD9484046
Probable space group: C M M M
;
_chemical_formula_sum "Si O2"
_cell_formula_units_Z 120
_cell_length_a 13.686756
_cell_length_b 29.067722
_cell_length_c 14.812762
_cell_angle_alpha 90.000000
_cell_angle_beta 90.000000
_cell_angle_gamma 90.000000
_cell_volume 5893.150984
_symmetry_space_group_name_H-M "C M M M"
_symmetry_group_IT_number 65
_symmetry_cell_setting 'orthorhombic'
loop_
_space_group_symop_operation_xyz
x,y,z
-x,-y,z
x,-y,-z
-x,y,-z
-x,-y,-z
x,y,-z
-x,y,z
x,-y,z
1/2+x,1/2+y,z
1/2-x,1/2-y,z
1/2+x,1/2-y,-z
1/2-x,1/2+y,-z
1/2-x,1/2-y,-z
1/2+x,1/2+y,-z
1/2-x,1/2+y,z
1/2+x,1/2-y,z
loop_
_atom_site_type_symbol
_atom_site_label
_atom_site_fract_x
_atom_site_fract_y
_atom_site_fract_z
Si Si1 0.286532 0.124331 0.105245
Si Si2 0.311455 0.097423 0.700929
Si Si3 0.500000 0.054812 0.603651
Si Si4 0.387527 0.707963 0.355376
Si Si5 0.887650 0.818058 0.853883
Si Si6 0.107548 0.718159 0.105392
Si Si7 0.884153 0.107257 0.398968
Si Si8 0.617202 0.188287 0.606463
O O1 0.312539 0.092245 0.190109
O O2 0.173474 0.138931 0.112603
O O3 0.336919 0.172818 0.133593
O O4 0.309900 0.112429 0.000000
O O5 0.401126 0.070704 0.654097
O O6 0.202117 0.086709 0.663343
O O7 0.333993 0.149930 0.669065
O O8 0.500000 0.073184 0.500000
O O9 0.500000 0.000000 0.599899
O O10 0.500000 0.714198 0.382214
O O11 0.382169 0.690138 0.252852
O O12 0.358009 0.661722 0.406169
O O13 0.349910 0.759867 0.367641
O O14 0.849251 0.769008 0.888625
O O15 0.000000 0.822323 0.881663
O O16 0.000000 0.720238 0.150937
O O17 0.095257 0.710361 0.000000
O O18 0.878619 0.087511 0.500000
O O19 0.000000 0.104148 0.369333
O O20 0.637454 0.181137 0.500000
O O21 0.500000 0.184325 0.618644
#
# Coordination Sequence:
#
# PCOD9484046 Si02
#       8
#    16  16   8  16  16  16  16  16
#     4  11  23  35  51  78 114 156 204 260 312 358
#     4  12  23  39  65  90 121 157 203 254 311 376
#     4  11  26  50  79 107 129 149 184 244 321 395
#     4   9  17  29  44  70 113 162 208 254 302 351
#     4  10  18  31  48  68 104 159 221 270 305 339
#     4   9  18  30  44  63  95 147 211 271 316 347
#     4  10  20  35  55  83 123 168 208 246 297 363
#     4  10  19  31  50  78 114 155 206 265 319 370
#
# _framework density 20.362621000000001
#
# number of rings (size 3 to 8) (size 9 to 14) (size 15 to 20)
#    0.000    1.800    2.000    3.200    0.933    5.067 
#    0.000    1.333    0.000    1.200    0.000    1.867 
#    0.000    0.000    0.000    2.400    0.000    0.133 
#
# Total GULP energy -334375.425523 kJ/mol
# GULP energy per Si atom -5572.923759 kJ/mol
# Density = 2.031627 g / cm^3
# Si number density = 20.362621 Si / 1000 Ang^3
#
#
#
# Elastic Constant Matrix: (Units=GPa)
#
#
# Indices 1 2 3 4 5 6 
#
# 1 120.5597 23.5319 41.9404 0.0000 0.0000 0.0000
# 2 23.5319 22.7178 18.4537 0.0000 0.0000 0.0000
# 3 41.9404 18.4537 132.7818 0.0000 0.0000 0.0000
# 4 0.0000 0.0000 0.0000 11.8136 0.0000 0.0000
# 5 0.0000 0.0000 0.0000 0.0000 19.3542 0.0000
# 6 0.0000 0.0000 0.0000 0.0000 0.0000 4.7596
#
#
#
# Elastic Compliance Matrix: (Units=1/GPa)
#
#
# Indices 1 2 3 4 5 6 
#
# 1 0.010898 -0.009573 -0.002112 0.000000 0.000000 0.000000
# 2 -0.009573 0.058029 -0.005041 0.000000 0.000000 0.000000
# 3 -0.002112 -0.005041 0.008899 0.000000 0.000000 0.000000
# 4 0.000000 0.000000 0.000000 0.084648 0.000000 0.000000
# 5 0.000000 0.000000 0.000000 0.000000 0.051668 0.000000
# 6 0.000000 0.000000 0.000000 0.000000 0.000000 0.210100
#
#
# Mechanical properties :
#
#
# Convention : Reuss Voigt Hill
#
# Bulk Modulus (GPa) = 22.53556 49.32347 35.92952
# Shear Modulus (GPa) = 10.58234 19.99438 15.28836
#
# Velocity S-wave (km/s) = 2.28215 3.13695 2.74305
# Velocity P-wave (km/s) = 4.24682 6.11521 5.26456
#
# Compressibility (1/GPa) = 0.04437430
#
# Stress axis : x y z
#
# Youngs Moduli (GPa) = 91.76141 17.23268 112.37514
#
# Poissons Ratio (x) = 0.16497 0.23731
# Poissons Ratio (y) = 0.87843 0.56649
# Poissons Ratio (z) = 0.19378 0.08687
#
# Static dielectric constant tensor:
#      x y z
#    x 1.869250 0.000000 0.000000 
#    y 0.000000 1.702870 0.000000 
#    z 0.000000 0.000000 1.814630 
# 
# From -- ./inp_files/41441.got.cif
#   From: 2010.05.17/outbox.cif.g08.bks.cpg/sg65_21_cif.got.tgz:41441.got - 2010.06.03 17:01:31.
