data_PCOD9484622
_publ_section_title
;
Structure prediction by ZEFSAII (Michael W. Deem and Ramdas Pophale) SiO2 
 PCOD9484622
Probable space group: C M M M
;
_chemical_formula_sum "Si O2"
_cell_formula_units_Z 58
_cell_length_a 14.115751
_cell_length_b 26.573890
_cell_length_c 7.369916
_cell_angle_alpha 90.000000
_cell_angle_beta 90.000000
_cell_angle_gamma 90.000000
_cell_volume 2764.532244
_symmetry_space_group_name_H-M "C M M M"
_symmetry_group_IT_number 65
_symmetry_cell_setting 'orthorhombic'
loop_
_space_group_symop_operation_xyz
x,y,z
-x,-y,z
x,-y,-z
-x,y,-z
-x,-y,-z
x,y,-z
-x,y,z
x,-y,z
1/2+x,1/2+y,z
1/2-x,1/2-y,z
1/2+x,1/2-y,-z
1/2-x,1/2+y,-z
1/2-x,1/2-y,-z
1/2+x,1/2+y,-z
1/2-x,1/2+y,z
1/2+x,1/2-y,z
loop_
_atom_site_type_symbol
_atom_site_label
_atom_site_fract_x
_atom_site_fract_y
_atom_site_fract_z
Si Si1 0.000000 0.257758 0.285782
Si Si2 0.704676 0.399758 0.779194
Si Si3 0.500000 0.637265 0.783067
Si Si4 0.819856 0.500000 0.222331
Si Si5 0.798436 0.701479 0.208514
Si Si6 0.000000 0.500000 0.500000
O O1 0.908106 0.285549 0.210868
O O2 0.000000 0.264215 0.500000
O O3 0.000000 0.197647 0.250212
O O4 0.597199 0.388434 0.717133
O O5 0.756564 0.451125 0.729708
O O6 0.767442 0.352059 0.716879
O O7 0.701826 0.400797 0.000000
O O8 0.500000 0.631984 0.000000
O O9 0.915759 0.500000 0.339559
O O10 0.836547 0.500000 0.000000
O O11 0.750000 0.750000 0.296904
O O12 0.763873 0.699815 0.000000
#
# Coordination Sequence:
#
# PCOD9484622 Si02
#       6
#     8  16   8   8  16   2
#     4  12  24  35  50  87 126 166 198 251 322 362
#     4   9  19  37  66  93 120 159 202 262 313 361
#     4  10  18  37  65  92 121 163 210 243 303 381
#     4  10  23  46  69  98 130 159 213 264 309 375
#     4  10  19  36  60  83 113 159 211 252 298 366
#     4  12  26  48  72  96 116 180 214 260 328 350
#
# _framework density 20.980039999999999
#
# number of rings (size 3 to 8) (size 9 to 14) (size 15 to 20)
#    0.000    1.931    2.759    1.448    0.000    2.207 
#    7.448    6.897    0.000    0.828    0.000    0.000 
#    0.000    0.000    0.000    0.000    0.000    0.000 
#
# Total GULP energy -161564.365036 kJ/mol
# GULP energy per Si atom -5571.185001 kJ/mol
# Density = 2.093229 g / cm^3
# Si number density = 20.980040 Si / 1000 Ang^3
#
#
#
# Elastic Constant Matrix: (Units=GPa)
#
#
# Indices 1 2 3 4 5 6 
#
# 1 197.0204 126.0480 4.6976 0.0000 0.0000 0.0000
# 2 126.0480 218.0336 22.8502 0.0000 0.0000 0.0000
# 3 4.6976 22.8502 97.4573 0.0000 0.0000 0.0000
# 4 0.0000 0.0000 0.0000 -52.8891 0.0000 0.0000
# 5 0.0000 0.0000 0.0000 0.0000 -64.6240 0.0000
# 6 0.0000 0.0000 0.0000 0.0000 0.0000 12.6431
#
#
#
# Elastic Compliance Matrix: (Units=1/GPa)
#
#
# Indices 1 2 3 4 5 6 
#
# 1 0.008105 -0.004761 0.000726 0.000000 0.000000 0.000000
# 2 -0.004761 0.007499 -0.001529 0.000000 0.000000 0.000000
# 3 0.000726 -0.001529 0.010584 0.000000 0.000000 0.000000
# 4 0.000000 0.000000 0.000000 -0.018907 0.000000 0.000000
# 5 0.000000 0.000000 0.000000 0.000000 -0.015474 0.000000
# 6 0.000000 0.000000 0.000000 0.000000 0.000000 0.079095
#
#
# Mechanical properties :
#
#
# Convention : Reuss Voigt Hill
#
# Bulk Modulus (GPa) = 66.40441 91.07809 78.74125
# Shear Modulus (GPa) = 57.43826 2.95369 30.19598
#
# Velocity S-wave (km/s) = 5.23803 1.18782 3.79789
# Velocity P-wave (km/s) = 8.26454 6.73701 7.53956
#
# Compressibility (1/GPa) = 0.01505924
#
# Stress axis : x y z
#
# Youngs Moduli (GPa) = 123.38823 133.34619 94.47893
#
# Poissons Ratio (x) = 0.63491 -0.06856
# Poissons Ratio (y) = 0.58750 0.14444
# Poissons Ratio (z) = -0.08954 0.20386
#
# Static dielectric constant tensor:
#      x y z
#    x 1.645760 0.000000 0.000000 
#    y 0.000000 1.740840 0.000000 
#    z 0.000000 0.000000 1.790950 
# 
# From -- ./inp_files/4522.got.cif
#   From: 2010.05.17/outbox.cif.g08.bks.cpg/sg65_3_cif.got.tgz:4522.got - 2010.06.03 17:01:31.
