data_PCOD9484449
_publ_section_title
;
Structure prediction by ZEFSAII (Michael W. Deem and Ramdas Pophale) SiO2 
 PCOD9484449
Probable space group: C M M M
;
_chemical_formula_sum "Si O2"
_cell_formula_units_Z 96
_cell_length_a 26.073026
_cell_length_b 8.556765
_cell_length_c 24.291789
_cell_angle_alpha 90.000000
_cell_angle_beta 90.000000
_cell_angle_gamma 90.000000
_cell_volume 5419.516498
_symmetry_space_group_name_H-M "C M M M"
_symmetry_group_IT_number 65
_symmetry_cell_setting 'orthorhombic'
loop_
_space_group_symop_operation_xyz
x,y,z
-x,-y,z
x,-y,-z
-x,y,-z
-x,-y,-z
x,y,-z
-x,y,z
x,-y,z
1/2+x,1/2+y,z
1/2-x,1/2-y,z
1/2+x,1/2-y,-z
1/2-x,1/2+y,-z
1/2-x,1/2-y,-z
1/2+x,1/2+y,-z
1/2-x,1/2+y,z
1/2+x,1/2-y,z
loop_
_atom_site_type_symbol
_atom_site_label
_atom_site_fract_x
_atom_site_fract_y
_atom_site_fract_z
Si Si1 0.693327 0.312743 0.063524
Si Si2 0.097734 0.312415 0.869741
Si Si3 0.500000 0.687659 0.935935
Si Si4 0.099471 0.689094 0.632485
Si Si5 0.440305 0.190514 0.249329
Si Si6 0.306794 0.312947 0.436967
Si Si7 0.000000 0.690493 0.562981
O O1 0.693636 0.500000 0.065525
O O2 0.750000 0.250000 0.076679
O O3 0.650167 0.248885 0.104085
O O4 0.681670 0.265444 0.000000
O O5 0.097922 0.500000 0.870603
O O6 0.087199 0.260335 0.806941
O O7 0.050271 0.252374 0.906010
O O8 0.500000 0.500000 0.932688
O O9 0.500000 0.732895 0.000000
O O10 0.101022 0.500000 0.632030
O O11 0.088201 0.740279 0.695002
O O12 0.151079 0.751171 0.605213
O O13 0.050915 0.739081 0.595406
O O14 0.500000 0.240502 0.249646
O O15 0.441115 0.000000 0.249707
O O16 0.319632 0.262837 0.500000
O O17 0.305903 0.500000 0.435744
O O18 0.250000 0.250000 0.424657
O O19 0.000000 0.500000 0.562696
O O20 0.000000 0.744107 0.500000
#
# Coordination Sequence:
#
# PCOD9484449 Si02
#       7
#    16  16   8  16  16  16   8
#     4  10  21  38  59  83 112 144 180 225 277 332
#     4  11  21  35  57  82 110 145 187 229 275 330
#     4  11  23  36  51  77 113 147 182 229 280 329
#     4  10  18  32  56  81 108 142 182 223 266 319
#     4   9  17  33  55  80 109 145 185 225 268 315
#     4  10  21  37  56  79 109 143 180 225 276 327
#     4   9  16  25  45  79 109 133 168 213 258 312
#
# _framework density 17.713756
#
# number of rings (size 3 to 8) (size 9 to 14) (size 15 to 20)
#    0.000    2.000    1.667    2.750    0.000    5.333 
#    0.000    2.917    0.000    1.500    0.000    0.000 
#    0.000    0.000    0.000    0.000    0.000    0.000 
#
# Total GULP energy -268010.586852 kJ/mol
# GULP energy per Si atom -5583.553893 kJ/mol
# Density = 1.767344 g / cm^3
# Si number density = 17.713756 Si / 1000 Ang^3
#
#
#
# Elastic Constant Matrix: (Units=GPa)
#
#
# Indices 1 2 3 4 5 6 
#
# 1 162.6901 34.7866 126.3782 0.0000 0.0000 0.0000
# 2 34.7866 30.2590 40.2372 0.0000 0.0000 0.0000
# 3 126.3782 40.2372 194.6497 0.0000 0.0000 0.0000
# 4 0.0000 0.0000 0.0000 16.3652 0.0000 0.0000
# 5 0.0000 0.0000 0.0000 0.0000 -0.9682 0.0000
# 6 0.0000 0.0000 0.0000 0.0000 0.0000 31.7357
#
#
#
# Elastic Compliance Matrix: (Units=1/GPa)
#
#
# Indices 1 2 3 4 5 6 
#
# 1 0.012950 -0.005113 -0.007351 0.000000 0.000000 0.000000
# 2 -0.005113 0.047595 -0.006519 0.000000 0.000000 0.000000
# 3 -0.007351 -0.006519 0.011258 0.000000 0.000000 0.000000
# 4 0.000000 0.000000 0.000000 0.061105 0.000000 0.000000
# 5 0.000000 0.000000 0.000000 0.000000 -1.032869 0.000000
# 6 0.000000 0.000000 0.000000 0.000000 0.000000 0.031510
#
#
# Mechanical properties :
#
#
# Convention : Reuss Voigt Hill
#
# Bulk Modulus (GPa) = 29.55365 87.82253 58.68809
# Shear Modulus (GPa) = -6.10348 21.83966 7.86809
#
# Velocity S-wave (km/s) = -1.85825 3.51511 2.10984
# Velocity P-wave (km/s) = 3.48082 8.13394 6.25608
#
# Compressibility (1/GPa) = 0.03383676
#
# Stress axis : x y z
#
# Youngs Moduli (GPa) = 77.21805 21.01078 88.82643
#
# Poissons Ratio (x) = 0.10742 0.65299
# Poissons Ratio (y) = 0.39479 0.57907
# Poissons Ratio (z) = 0.56765 0.13697
#
# Static dielectric constant tensor:
#      x y z
#    x 1.563200 0.000000 0.000000 
#    y 0.000000 1.606500 0.000000 
#    z 0.000000 0.000000 1.603190 
# 
# From -- ./inp_files/71436.got.cif
#   From: 2010.05.17/outbox.cif.g08.bks.cpg/sg65_36_cif.got.tgz:71436.got - 2010.06.03 17:01:31.
