data_PCOD9484496
_publ_section_title
;
Structure prediction by ZEFSAII (Michael W. Deem and Ramdas Pophale) SiO2 
 PCOD9484496
Probable space group: C M M M
;
_chemical_formula_sum "Si O2"
_cell_formula_units_Z 104
_cell_length_a 29.562233
_cell_length_b 7.984813
_cell_length_c 25.552182
_cell_angle_alpha 90.000000
_cell_angle_beta 90.000000
_cell_angle_gamma 90.000000
_cell_volume 6031.564514
_symmetry_space_group_name_H-M "C M M M"
_symmetry_group_IT_number 65
_symmetry_cell_setting 'orthorhombic'
loop_
_space_group_symop_operation_xyz
x,y,z
-x,-y,z
x,-y,-z
-x,y,-z
-x,-y,-z
x,y,-z
-x,y,z
x,-y,z
1/2+x,1/2+y,z
1/2-x,1/2-y,z
1/2+x,1/2-y,-z
1/2-x,1/2+y,-z
1/2-x,1/2-y,-z
1/2+x,1/2+y,-z
1/2-x,1/2+y,z
1/2+x,1/2-y,z
loop_
_atom_site_type_symbol
_atom_site_label
_atom_site_fract_x
_atom_site_fract_y
_atom_site_fract_z
Si Si1 0.554821 0.500000 0.940356
Si Si2 0.894751 0.697491 0.442846
Si Si3 0.894762 0.795629 0.762133
Si Si4 0.053923 0.308362 0.133689
Si Si5 0.299655 0.701023 0.279910
Si Si6 0.449062 0.699886 0.659266
Si Si7 0.799917 0.200550 0.599125
O O1 0.500000 0.500000 0.942426
O O2 0.567521 0.332958 0.908336
O O3 0.571533 0.500000 0.000000
O O4 0.907403 0.767211 0.500000
O O5 0.903114 0.500000 0.443234
O O6 0.922153 0.769036 0.394044
O O7 0.841635 0.727878 0.432972
O O8 0.918570 0.723624 0.813240
O O9 0.842627 0.743547 0.753731
O O10 0.921576 0.740227 0.709969
O O11 0.896497 0.000000 0.765267
O O12 0.060557 0.500000 0.115698
O O13 0.000000 0.286671 0.144188
O O14 0.301641 0.500000 0.282272
O O15 0.250000 0.750000 0.260476
O O16 0.303913 0.761015 0.340288
O O17 0.500000 0.768523 0.657304
O O18 0.451972 0.500000 0.665472
O O19 0.750000 0.250000 0.580266
O O20 0.803737 0.000000 0.598850
#
# Coordination Sequence:
#
# PCOD9484496 Si02
#       7
#     8  16  16  16  16  16  16
#     4   9  18  34  54  76 112 158 193 231 275 307
#     4  11  24  39  53  71  97 129 167 213 265 318
#     4  10  18  33  54  76 107 143 173 215 269 321
#     4  10  20  32  50  80 113 150 193 230 269 316
#     4   9  18  31  50  75 103 134 166 203 258 321
#     4  10  21  37  57  77  97 129 171 213 265 323
#     4  10  19  35  56  77  99 124 160 204 256 318
#
# _framework density 17.242625
#
# number of rings (size 3 to 8) (size 9 to 14) (size 15 to 20)
#    0.000    2.077    2.308    1.385    0.000    4.923 
#    0.000    3.077    0.000    0.000    0.000    0.000 
#    0.000    0.615    0.308    0.000    0.000    0.000 
#
# Total GULP energy -290173.295675 kJ/mol
# GULP energy per Si atom -5580.255686 kJ/mol
# Density = 1.720338 g / cm^3
# Si number density = 17.242625 Si / 1000 Ang^3
#
#
#
# Elastic Constant Matrix: (Units=GPa)
#
#
# Indices 1 2 3 4 5 6 
#
# 1 95.0712 19.0302 53.9530 0.0000 0.0000 0.0000
# 2 19.0302 48.2193 34.6958 0.0000 0.0000 0.0000
# 3 53.9530 34.6958 124.1981 0.0000 0.0000 0.0000
# 4 0.0000 0.0000 0.0000 -23.8711 0.0000 0.0000
# 5 0.0000 0.0000 0.0000 0.0000 4.0403 0.0000
# 6 0.0000 0.0000 0.0000 0.0000 0.0000 23.3004
#
#
#
# Elastic Compliance Matrix: (Units=1/GPa)
#
#
# Indices 1 2 3 4 5 6 
#
# 1 0.014040 -0.001442 -0.005696 0.000000 0.000000 0.000000
# 2 -0.001442 0.026104 -0.006666 0.000000 0.000000 0.000000
# 3 -0.005696 -0.006666 0.012388 0.000000 0.000000 0.000000
# 4 0.000000 0.000000 0.000000 -0.041892 0.000000 0.000000
# 5 0.000000 0.000000 0.000000 0.000000 0.247504 0.000000
# 6 0.000000 0.000000 0.000000 0.000000 0.000000 0.042918
#
#
# Mechanical properties :
#
#
# Convention : Reuss Voigt Hill
#
# Bulk Modulus (GPa) = 40.12261 53.64960 46.88610
# Shear Modulus (GPa) = 14.83776 11.34790 13.09283
#
# Velocity S-wave (km/s) = 2.93666 2.56819 2.75858
# Velocity P-wave (km/s) = 5.90073 6.32267 6.11534
#
# Compressibility (1/GPa) = 0.02492361
#
# Stress axis : x y z
#
# Youngs Moduli (GPa) = 71.22682 38.30804 80.72169
#
# Poissons Ratio (x) = 0.05525 0.45979
# Poissons Ratio (y) = 0.10273 0.53808
# Poissons Ratio (z) = 0.40571 0.25536
#
# Static dielectric constant tensor:
#      x y z
#    x 1.584930 0.000000 0.000000 
#    y 0.000000 1.616720 0.000000 
#    z 0.000000 0.000000 1.567900 
# 
# From -- ./inp_files/60923.got.cif
#   From: 2010.05.17/outbox.cif.g08.bks.cpg/sg65_31_cif.got.tgz:60923.got - 2010.06.03 17:01:31.
