data_PCOD9484256
_publ_section_title
;
Structure prediction by ZEFSAII (Michael W. Deem and Ramdas Pophale) SiO2 
 PCOD9484256
Probable space group: C M M M
;
_chemical_formula_sum "Si O2"
_cell_formula_units_Z 104
_cell_length_a 24.638722
_cell_length_b 27.057542
_cell_length_c 9.669056
_cell_angle_alpha 90.000000
_cell_angle_beta 90.000000
_cell_angle_gamma 90.000000
_cell_volume 6446.004349
_symmetry_space_group_name_H-M "C M M M"
_symmetry_group_IT_number 65
_symmetry_cell_setting 'orthorhombic'
loop_
_space_group_symop_operation_xyz
x,y,z
-x,-y,z
x,-y,-z
-x,y,-z
-x,-y,-z
x,y,-z
-x,y,z
x,-y,z
1/2+x,1/2+y,z
1/2-x,1/2-y,z
1/2+x,1/2-y,-z
1/2-x,1/2+y,-z
1/2-x,1/2-y,-z
1/2+x,1/2+y,-z
1/2-x,1/2+y,z
1/2+x,1/2-y,z
loop_
_atom_site_type_symbol
_atom_site_label
_atom_site_fract_x
_atom_site_fract_y
_atom_site_fract_z
Si Si1 0.264858 0.944528 0.665061
Si Si2 0.936074 0.703269 0.341844
Si Si3 0.803273 0.851334 0.665514
Si Si4 0.436174 0.941001 0.000000
Si Si5 0.868764 0.779147 0.839814
Si Si6 0.868604 0.613608 0.767687
Si Si7 0.283884 0.192650 0.149548
O O1 0.260163 0.946988 0.500000
O O2 0.217415 0.906173 0.708435
O O3 0.324236 0.921758 0.696100
O O4 0.259946 0.000000 0.722714
O O5 0.927706 0.720014 0.500000
O O6 0.912314 0.744614 0.238439
O O7 0.904684 0.651183 0.323045
O O8 0.000000 0.696053 0.317542
O O9 0.811043 0.848804 0.500000
O O10 0.852801 0.827598 0.751383
O O11 0.751648 0.819021 0.716334
O O12 0.407230 0.917584 0.866810
O O13 0.500000 0.929211 0.000000
O O14 0.429719 0.000000 0.000000
O O15 0.815038 0.744232 0.841212
O O16 0.883184 0.788969 0.000000
O O17 0.830697 0.651488 0.851287
O O18 0.255075 0.188048 0.000000
#
# Coordination Sequence:
#
# PCOD9484256 Si02
#       7
#    16  16  16   8  16  16  16
#     4   9  18  32  50  71  95 127 167 208 251 298
#     4  10  21  35  52  74  99 128 166 209 253 300
#     4  10  19  29  46  69  96 126 159 199 243 292
#     4  11  22  32  44  64  89 124 174 224 263 302
#     4  10  20  32  48  69  97 129 160 195 240 296
#     4  10  18  32  49  66  91 126 163 207 254 293
#     4   9  17  29  44  64  89 120 155 190 239 294
#
# _framework density 16.134025999999999
#
# number of rings (size 3 to 8) (size 9 to 14) (size 15 to 20)
#    0.000    2.231    0.769    2.769    1.077    6.462 
#    0.000    0.000    0.000    0.000    0.000    6.462 
#    0.000    0.615    0.000    7.077    0.000    2.000 
#
# Total GULP energy -289531.893885 kJ/mol
# GULP energy per Si atom -5567.921036 kJ/mol
# Density = 1.609730 g / cm^3
# Si number density = 16.134026 Si / 1000 Ang^3
#
#
#
# Elastic Constant Matrix: (Units=GPa)
#
#
# Indices 1 2 3 4 5 6 
#
# 1 30.5693 37.1657 25.0096 0.0000 0.0000 0.0000
# 2 37.1657 105.0560 36.2114 0.0000 0.0000 0.0000
# 3 25.0096 36.2114 79.3583 0.0000 0.0000 0.0000
# 4 0.0000 0.0000 0.0000 20.0452 0.0000 0.0000
# 5 0.0000 0.0000 0.0000 0.0000 22.8706 0.0000
# 6 0.0000 0.0000 0.0000 0.0000 0.0000 27.5001
#
#
#
# Elastic Compliance Matrix: (Units=1/GPa)
#
#
# Indices 1 2 3 4 5 6 
#
# 1 0.065807 -0.019143 -0.012004 0.000000 0.000000 0.000000
# 2 -0.019143 0.016864 -0.001662 0.000000 0.000000 0.000000
# 3 -0.012004 -0.001662 0.017143 0.000000 0.000000 0.000000
# 4 0.000000 0.000000 0.000000 0.049887 0.000000 0.000000
# 5 0.000000 0.000000 0.000000 0.000000 0.043724 0.000000
# 6 0.000000 0.000000 0.000000 0.000000 0.000000 0.036364
#
#
# Mechanical properties :
#
#
# Convention : Reuss Voigt Hill
#
# Bulk Modulus (GPa) = 29.24383 45.75079 37.49731
# Shear Modulus (GPa) = 16.29702 21.85631 19.07666
#
# Velocity S-wave (km/s) = 3.18166 3.68458 3.44232
# Velocity P-wave (km/s) = 5.62692 6.82054 6.25228
#
# Compressibility (1/GPa) = 0.03419524
#
# Stress axis : x y z
#
# Youngs Moduli (GPa) = 15.19599 59.29840 58.33444
#
# Poissons Ratio (x) = 1.13514 0.70024
# Poissons Ratio (y) = 0.29090 0.09696
# Poissons Ratio (z) = 0.18241 0.09857
#
# Static dielectric constant tensor:
#      x y z
#    x 1.543610 0.000000 0.000000 
#    y 0.000000 1.575900 0.000000 
#    z 0.000000 0.000000 1.556060 
# 
# From -- ./inp_files/16778.got.cif
#   From: 2010.05.17/outbox.cif.g08.bks.cpg/sg65_9_cif.got.tgz:16778.got - 2010.06.03 17:01:31.
