data_PCOD9484048
_publ_section_title
;
Structure prediction by ZEFSAII (Michael W. Deem and Ramdas Pophale) SiO2 
 PCOD9484048
Probable space group: C M M M
;
_chemical_formula_sum "Si O2"
_cell_formula_units_Z 112
_cell_length_a 21.696812
_cell_length_b 17.745355
_cell_length_c 17.943970
_cell_angle_alpha 90.000000
_cell_angle_beta 90.000000
_cell_angle_gamma 90.000000
_cell_volume 6908.744826
_symmetry_space_group_name_H-M "C M M M"
_symmetry_group_IT_number 65
_symmetry_cell_setting 'orthorhombic'
loop_
_space_group_symop_operation_xyz
x,y,z
-x,-y,z
x,-y,-z
-x,y,-z
-x,-y,-z
x,y,-z
-x,y,z
x,-y,z
1/2+x,1/2+y,z
1/2-x,1/2-y,z
1/2+x,1/2-y,-z
1/2-x,1/2+y,-z
1/2-x,1/2-y,-z
1/2+x,1/2+y,-z
1/2-x,1/2+y,z
1/2+x,1/2-y,z
loop_
_atom_site_type_symbol
_atom_site_label
_atom_site_fract_x
_atom_site_fract_y
_atom_site_fract_z
Si Si1 0.427347 0.915073 0.815955
Si Si2 0.432502 0.251636 0.411872
Si Si3 0.884231 0.084144 0.586568
Si Si4 0.812718 0.786988 0.824907
Si Si5 0.428657 0.233360 0.089022
Si Si6 0.345418 0.833568 0.697882
Si Si7 0.720744 0.413158 0.287843
O O1 0.500000 0.914249 0.798808
O O2 0.417616 0.850809 0.878365
O O3 0.389109 0.889926 0.743907
O O4 0.410537 0.000000 0.839435
O O5 0.429176 0.237861 0.500000
O O6 0.500000 0.228831 0.383631
O O7 0.425121 0.341721 0.401419
O O8 0.380608 0.205193 0.369662
O O9 0.862323 0.088629 0.500000
O O10 0.830831 0.089908 0.647994
O O11 0.912683 0.000000 0.594525
O O12 0.750000 0.750000 0.859004
O O13 0.873356 0.783407 0.876540
O O14 0.828398 0.732870 0.755273
O O15 0.798272 0.866754 0.786181
O O16 0.500000 0.254276 0.110191
O O17 0.425328 0.233646 0.000000
O O18 0.282334 0.875463 0.679779
O O19 0.731953 0.500000 0.268947
#
# Coordination Sequence:
#
# PCOD9484048 Si02
#       7
#    16  16  16  16  16  16  16
#     4   9  17  29  47  71  98 131 166 201 245 293
#     4  10  20  32  48  70  97 132 171 211 254 301
#     4   9  18  32  48  69  98 129 164 208 256 301
#     4   9  18  32  50  73 100 129 166 206 253 302
#     4   9  18  32  51  76 104 134 166 203 250 303
#     4  10  18  31  48  70  97 129 164 208 251 299
#     4  10  19  32  50  72  97 128 166 210 256 301
#
# _framework density 16.211338999999999
#
# number of rings (size 3 to 8) (size 9 to 14) (size 15 to 20)
#    0.000    2.571    1.429    0.857    0.000    2.000 
#    0.000    4.286    0.000    2.143    0.000    6.000 
#    0.000    0.000    0.000    0.000    0.000    0.000 
#
# Total GULP energy -311756.596856 kJ/mol
# GULP energy per Si atom -5567.082087 kJ/mol
# Density = 1.617444 g / cm^3
# Si number density = 16.211339 Si / 1000 Ang^3
#
#
#
# Elastic Constant Matrix: (Units=GPa)
#
#
# Indices 1 2 3 4 5 6 
#
# 1 88.5118 39.9313 36.8120 0.0000 0.0000 0.0000
# 2 39.9313 79.2354 22.8629 0.0000 0.0000 0.0000
# 3 36.8120 22.8629 41.6108 0.0000 0.0000 0.0000
# 4 0.0000 0.0000 0.0000 15.1034 0.0000 0.0000
# 5 0.0000 0.0000 0.0000 0.0000 23.4874 0.0000
# 6 0.0000 0.0000 0.0000 0.0000 0.0000 20.7631
#
#
#
# Elastic Compliance Matrix: (Units=1/GPa)
#
#
# Indices 1 2 3 4 5 6 
#
# 1 0.019952 -0.005897 -0.014411 0.000000 0.000000 0.000000
# 2 -0.005897 0.016741 -0.003982 0.000000 0.000000 0.000000
# 3 -0.014411 -0.003982 0.038969 0.000000 0.000000 0.000000
# 4 0.000000 0.000000 0.000000 0.066210 0.000000 0.000000
# 5 0.000000 0.000000 0.000000 0.000000 0.042576 0.000000
# 6 0.000000 0.000000 0.000000 0.000000 0.000000 0.048162
#
#
# Mechanical properties :
#
#
# Convention : Reuss Voigt Hill
#
# Bulk Modulus (GPa) = 36.92319 45.39671 41.15995
# Shear Modulus (GPa) = 17.22852 19.18756 18.20804
#
# Velocity S-wave (km/s) = 3.26351 3.44406 3.35500
# Velocity P-wave (km/s) = 6.08492 6.62414 6.36025
#
# Compressibility (1/GPa) = 0.02708325
#
# Stress axis : x y z
#
# Youngs Moduli (GPa) = 50.12130 59.73286 25.66147
#
# Poissons Ratio (x) = 0.35222 0.36980
# Poissons Ratio (y) = 0.29555 0.10218
# Poissons Ratio (z) = 0.72229 0.23785
#
# Static dielectric constant tensor:
#      x y z
#    x 1.571160 0.000000 0.000000 
#    y 0.000000 1.553880 0.000000 
#    z 0.000000 0.000000 1.511750 
# 
# From -- ./inp_files/54848.got.cif
#   From: 2010.05.17/outbox.cif.g08.bks.cpg/sg65_28_cif.got.tgz:54848.got - 2010.06.03 17:01:31.
