data_PCOD9484677
_publ_section_title
;
Structure prediction by ZEFSAII (Michael W. Deem and Ramdas Pophale) SiO2 
 PCOD9484677
Probable space group: C M M M
;
_chemical_formula_sum "Si O2"
_cell_formula_units_Z 96
_cell_length_a 30.383086
_cell_length_b 20.519220
_cell_length_c 9.601242
_cell_angle_alpha 90.000000
_cell_angle_beta 90.000000
_cell_angle_gamma 90.000000
_cell_volume 5985.771678
_symmetry_space_group_name_H-M "C M M M"
_symmetry_group_IT_number 65
_symmetry_cell_setting 'orthorhombic'
loop_
_space_group_symop_operation_xyz
x,y,z
-x,-y,z
x,-y,-z
-x,y,-z
-x,-y,-z
x,y,-z
-x,y,z
x,-y,z
1/2+x,1/2+y,z
1/2-x,1/2-y,z
1/2+x,1/2-y,-z
1/2-x,1/2+y,-z
1/2-x,1/2-y,-z
1/2+x,1/2+y,-z
1/2-x,1/2+y,z
1/2+x,1/2-y,z
loop_
_atom_site_type_symbol
_atom_site_label
_atom_site_fract_x
_atom_site_fract_y
_atom_site_fract_z
Si Si1 0.366071 0.605956 0.162265
Si Si2 0.215701 0.690558 0.663432
Si Si3 0.049683 0.101468 0.339155
Si Si4 0.132688 0.735855 0.161789
Si Si5 0.549496 0.759940 0.660179
Si Si6 0.780024 0.925771 0.662387
O O1 0.410525 0.582213 0.238810
O O2 0.364590 0.685094 0.170181
O O3 0.323207 0.581973 0.243959
O O4 0.365692 0.587534 0.000000
O O5 0.203158 0.686883 0.500000
O O6 0.250000 0.750000 0.678254
O O7 0.173650 0.705407 0.756814
O O8 0.242427 0.625543 0.702118
O O9 0.057587 0.081827 0.500000
O O10 0.049420 0.180708 0.337345
O O11 0.000000 0.080609 0.299810
O O12 0.087303 0.716953 0.237083
O O13 0.133066 0.717984 0.000000
O O14 0.558550 0.778682 0.500000
O O15 0.500000 0.780847 0.697405
O O16 0.791787 0.911829 0.500000
O O17 0.764289 0.000000 0.670949
#
# Coordination Sequence:
#
# PCOD9484677 Si02
#       6
#    16  16  16  16  16  16
#     4  10  19  29  44  67  94 123 154 191 236 282
#     4  10  19  32  51  71  91 121 158 196 236 278
#     4   8  14  25  42  63  87 118 156 195 234 276
#     4  10  19  28  43  69  98 126 156 193 233 276
#     4   8  14  25  41  62  91 126 159 191 229 274
#     4  10  21  36  52  69  90 119 157 198 237 279
#
# _framework density 16.038032000000001
#
# number of rings (size 3 to 8) (size 9 to 14) (size 15 to 20)
#    0.000    2.667    1.667    2.000    0.000    3.333 
#    0.000    3.333    0.000    0.500    0.000    3.500 
#    0.000    0.667    0.000    7.667    0.000    2.500 
#
# Total GULP energy -267652.462713 kJ/mol
# GULP energy per Si atom -5576.092973 kJ/mol
# Density = 1.600153 g / cm^3
# Si number density = 16.038032 Si / 1000 Ang^3
#
#
#
# Elastic Constant Matrix: (Units=GPa)
#
#
# Indices 1 2 3 4 5 6 
#
# 1 138.5586 44.2700 97.5129 0.0000 0.0000 0.0000
# 2 44.2700 46.2542 38.4584 0.0000 0.0000 0.0000
# 3 97.5129 38.4584 104.4170 0.0000 0.0000 0.0000
# 4 0.0000 0.0000 0.0000 7.9468 0.0000 0.0000
# 5 0.0000 0.0000 0.0000 0.0000 -3.0182 0.0000
# 6 0.0000 0.0000 0.0000 0.0000 0.0000 -1.2764
#
#
#
# Elastic Compliance Matrix: (Units=1/GPa)
#
#
# Indices 1 2 3 4 5 6 
#
# 1 0.022066 -0.005745 -0.018491 0.000000 0.000000 0.000000
# 2 -0.005745 0.032659 -0.006664 0.000000 0.000000 0.000000
# 3 -0.018491 -0.006664 0.029300 0.000000 0.000000 0.000000
# 4 0.000000 0.000000 0.000000 0.125836 0.000000 0.000000
# 5 0.000000 0.000000 0.000000 0.000000 -0.331329 0.000000
# 6 0.000000 0.000000 0.000000 0.000000 0.000000 -0.783431
#
#
# Mechanical properties :
#
#
# Convention : Reuss Voigt Hill
#
# Bulk Modulus (GPa) = 44.99401 72.19028 58.59215
# Shear Modulus (GPa) = -5.98307 7.99635 1.00664
#
# Velocity S-wave (km/s) = -1.93356 2.23533 0.79311
# Velocity P-wave (km/s) = 4.80943 7.19527 6.11974
#
# Compressibility (1/GPa) = 0.02222518
#
# Stress axis : x y z
#
# Youngs Moduli (GPa) = 45.31820 30.61974 34.12982
#
# Poissons Ratio (x) = 0.17591 0.63110
# Poissons Ratio (y) = 0.26035 0.22743
# Poissons Ratio (z) = 0.83799 0.20404
#
# Static dielectric constant tensor:
#      x y z
#    x 1.520470 0.000000 0.000000 
#    y 0.000000 1.534210 0.000000 
#    z 0.000000 0.000000 1.533860 
# 
# From -- ./inp_files/12300.got.cif
#   From: 2010.05.17/outbox.cif.g08.bks.cpg/sg65_7_cif.got.tgz:12300.got - 2010.06.03 17:01:31.
