data_PCOD9484203
_publ_section_title
;
Structure prediction by ZEFSAII (Michael W. Deem and Ramdas Pophale) SiO2 
 PCOD9484203
Probable space group: C M M M
;
_chemical_formula_sum "Si O2"
_cell_formula_units_Z 88
_cell_length_a 18.954771
_cell_length_b 14.549251
_cell_length_c 14.593611
_cell_angle_alpha 90.000000
_cell_angle_beta 90.000000
_cell_angle_gamma 90.000000
_cell_volume 4024.592782
_symmetry_space_group_name_H-M "C M M M"
_symmetry_group_IT_number 65
_symmetry_cell_setting 'orthorhombic'
loop_
_space_group_symop_operation_xyz
x,y,z
-x,-y,z
x,-y,-z
-x,y,-z
-x,-y,-z
x,y,-z
-x,y,z
x,-y,z
1/2+x,1/2+y,z
1/2-x,1/2-y,z
1/2+x,1/2-y,-z
1/2-x,1/2+y,-z
1/2-x,1/2-y,-z
1/2+x,1/2+y,-z
1/2-x,1/2+y,z
1/2+x,1/2-y,z
loop_
_atom_site_type_symbol
_atom_site_label
_atom_site_fract_x
_atom_site_fract_y
_atom_site_fract_z
Si Si1 0.659478 0.354716 0.101755
Si Si2 0.078956 0.891071 0.286156
Si Si3 0.000000 0.612684 0.606666
Si Si4 0.141588 0.605472 0.697368
Si Si5 0.715233 0.612493 0.606383
Si Si6 0.678042 0.134644 0.102215
O O1 0.607255 0.380827 0.182494
O O2 0.669375 0.244729 0.101801
O O3 0.739413 0.390586 0.115613
O O4 0.635791 0.382760 0.000000
O O5 0.142048 0.853939 0.349613
O O6 0.000000 0.853101 0.297714
O O7 0.074585 0.000000 0.305315
O O8 0.928818 0.646911 0.654843
O O9 0.000000 0.500000 0.613792
O O10 0.000000 0.635992 0.500000
O O11 0.143349 0.500000 0.664470
O O12 0.216160 0.645178 0.662908
O O13 0.138152 0.604026 0.807159
O O14 0.721737 0.637056 0.500000
O O15 0.713391 0.500000 0.611914
O O16 0.656830 0.103567 0.000000
#
# Coordination Sequence:
#
# PCOD9484203 Si02
#       6
#    16  16   8  16  16  16
#     4   9  18  34  53  73 101 136 171 208 252 306
#     4  10  20  33  51  78 107 136 174 218 261 302
#     4   9  18  32  51  77 105 131 163 208 260 308
#     4  10  18  31  53  79 103 131 169 213 258 303
#     4   9  17  30  50  76 103 133 171 211 254 309
#     4   9  18  33  54  77 100 134 175 207 250 312
#
# _framework density 21.865565
#
# number of rings (size 3 to 8) (size 9 to 14) (size 15 to 20)
#    0.000    2.636    1.818    1.636    0.000    3.636 
#    1.636    5.000    0.000    4.909    0.000    0.000 
#    0.000    0.000    0.000    0.000    0.000    0.000 
#
# Total GULP energy -245645.407735 kJ/mol
# GULP energy per Si atom -5582.850176 kJ/mol
# Density = 2.181580 g / cm^3
# Si number density = 21.865565 Si / 1000 Ang^3
#
#
#
# Elastic Constant Matrix: (Units=GPa)
#
#
# Indices 1 2 3 4 5 6 
#
# 1 175.9303 17.9405 102.5650 0.0000 0.0000 0.0000
# 2 17.9405 58.3280 -4.5695 0.0000 0.0000 0.0000
# 3 102.5650 -4.5695 154.4547 0.0000 0.0000 0.0000
# 4 0.0000 0.0000 0.0000 28.7368 0.0000 0.0000
# 5 0.0000 0.0000 0.0000 0.0000 19.3164 0.0000
# 6 0.0000 0.0000 0.0000 0.0000 0.0000 16.9895
#
#
#
# Elastic Compliance Matrix: (Units=1/GPa)
#
#
# Indices 1 2 3 4 5 6 
#
# 1 0.009974 -0.003595 -0.006729 0.000000 0.000000 0.000000
# 2 -0.003595 0.018480 0.002934 0.000000 0.000000 0.000000
# 3 -0.006729 0.002934 0.011030 0.000000 0.000000 0.000000
# 4 0.000000 0.000000 0.000000 0.034799 0.000000 0.000000
# 5 0.000000 0.000000 0.000000 0.000000 0.051770 0.000000
# 6 0.000000 0.000000 0.000000 0.000000 0.000000 0.058860
#
#
# Mechanical properties :
#
#
# Convention : Reuss Voigt Hill
#
# Bulk Modulus (GPa) = 40.48125 68.95387 54.71756
# Shear Modulus (GPa) = 24.04690 31.19366 27.62028
#
# Velocity S-wave (km/s) = 3.31986 3.78115 3.55799
# Velocity P-wave (km/s) = 5.76621 7.11805 6.47749
#
# Compressibility (1/GPa) = 0.02470279
#
# Stress axis : x y z
#
# Youngs Moduli (GPa) = 100.26234 54.11252 90.66311
#
# Poissons Ratio (x) = 0.19453 0.61011
# Poissons Ratio (y) = 0.36044 -0.26600
# Poissons Ratio (z) = 0.67471 -0.15876
#
# Static dielectric constant tensor:
#      x y z
#    x 1.781400 0.000000 0.000000 
#    y 0.000000 1.873020 0.000000 
#    z 0.000000 0.000000 1.763940 
# 
# From -- ./inp_files/28724.got.cif
#   From: 2010.05.17/outbox.cif.g08.bks.cpg/sg65_15_cif.got.tgz:28724.got - 2010.06.03 17:01:31.
