data_PCOD9484810
_publ_section_title
;
Structure prediction by ZEFSAII (Michael W. Deem and Ramdas Pophale) SiO2 
 PCOD9484810
Probable space group: C M M M
;
_chemical_formula_sum "Si O2"
_cell_formula_units_Z 104
_cell_length_a 26.741513
_cell_length_b 9.717765
_cell_length_c 25.245627
_cell_angle_alpha 90.000000
_cell_angle_beta 90.000000
_cell_angle_gamma 90.000000
_cell_volume 6560.524010
_symmetry_space_group_name_H-M "C M M M"
_symmetry_group_IT_number 65
_symmetry_cell_setting 'orthorhombic'
loop_
_space_group_symop_operation_xyz
x,y,z
-x,-y,z
x,-y,-z
-x,y,-z
-x,-y,-z
x,y,-z
-x,y,z
x,-y,z
1/2+x,1/2+y,z
1/2-x,1/2-y,z
1/2+x,1/2-y,-z
1/2-x,1/2+y,-z
1/2-x,1/2-y,-z
1/2+x,1/2+y,-z
1/2-x,1/2+y,z
1/2+x,1/2-y,z
loop_
_atom_site_type_symbol
_atom_site_label
_atom_site_fract_x
_atom_site_fract_y
_atom_site_fract_z
Si Si1 0.901094 0.343004 0.404361
Si Si2 0.816504 0.500000 0.061830
Si Si3 0.701679 0.835350 0.342839
Si Si4 0.940138 0.162874 0.500000
Si Si5 0.351671 0.667037 0.248929
Si Si6 0.804571 0.000000 0.940994
Si Si7 0.689706 0.745578 0.865528
Si Si8 0.941755 0.341047 0.712504
O O1 0.908318 0.500000 0.423498
O O2 0.843863 0.328081 0.384626
O O3 0.916973 0.235684 0.448524
O O4 0.933235 0.326015 0.350633
O O5 0.755940 0.500000 0.056535
O O6 0.828603 0.374757 0.100708
O O7 0.834714 0.500000 0.000000
O O8 0.750000 0.750000 0.361360
O O9 0.682564 0.751880 0.290902
O O10 0.710751 0.000000 0.332554
O O11 0.000000 0.183754 0.500000
O O12 0.930339 0.000000 0.500000
O O13 0.348475 0.500000 0.255231
O O14 0.334663 0.711948 0.190505
O O15 0.406779 0.728476 0.259961
O O16 0.820663 0.872844 0.907021
O O17 0.824050 0.000000 0.000000
O O18 0.750000 0.750000 0.857151
O O19 0.925852 0.500000 0.725032
O O20 0.000000 0.326596 0.725233
#
# Coordination Sequence:
#
# PCOD9484810 Si02
#       8
#    16   8  16   8  16   8  16  16
#     4   9  19  36  56  78 102 134 170 205 247 303
#     4   9  18  28  44  66  91 131 173 208 244 289
#     4  10  21  36  55  76 103 138 176 213 253 298
#     4  11  23  35  52  81 110 133 166 213 260 301
#     4  11  21  32  48  74 104 135 171 208 250 302
#     4   9  16  30  44  60  93 133 169 202 242 293
#     4  10  19  29  44  67  98 133 169 205 246 292
#     4   9  19  36  56  76 100 130 165 207 259 308
#
# _framework density 15.852392
#
# number of rings (size 3 to 8) (size 9 to 14) (size 15 to 20)
#    0.000    2.231    0.769    3.462    2.154    6.462 
#    0.000    0.385    0.000    0.000    0.000    0.000 
#    0.000    3.692    0.000    0.000    0.000    0.000 
#
# Total GULP energy -289570.689267 kJ/mol
# GULP energy per Si atom -5568.667101 kJ/mol
# Density = 1.581631 g / cm^3
# Si number density = 15.852392 Si / 1000 Ang^3
#
#
#
# Elastic Constant Matrix: (Units=GPa)
#
#
# Indices 1 2 3 4 5 6 
#
# 1 57.0260 47.1917 32.3916 0.0000 0.0000 0.0000
# 2 47.1917 168.7278 78.7057 0.0000 0.0000 0.0000
# 3 32.3916 78.7057 106.8108 0.0000 0.0000 0.0000
# 4 0.0000 0.0000 0.0000 32.3433 0.0000 0.0000
# 5 0.0000 0.0000 0.0000 0.0000 12.1134 0.0000
# 6 0.0000 0.0000 0.0000 0.0000 0.0000 -27.0578
#
#
#
# Elastic Compliance Matrix: (Units=1/GPa)
#
#
# Indices 1 2 3 4 5 6 
#
# 1 0.023646 -0.004981 -0.003501 0.000000 0.000000 0.000000
# 2 -0.004981 0.010080 -0.005917 0.000000 0.000000 0.000000
# 3 -0.003501 -0.005917 0.014784 0.000000 0.000000 0.000000
# 4 0.000000 0.000000 0.000000 0.030918 0.000000 0.000000
# 5 0.000000 0.000000 0.000000 0.000000 0.082553 0.000000
# 6 0.000000 0.000000 0.000000 0.000000 0.000000 -0.036958
#
#
# Mechanical properties :
#
#
# Convention : Reuss Voigt Hill
#
# Bulk Modulus (GPa) = 50.72813 72.12696 61.42755
# Shear Modulus (GPa) = 31.17367 15.09816 23.13591
#
# Velocity S-wave (km/s) = 4.43933 3.08948 3.82443
# Velocity P-wave (km/s) = 7.63850 7.63704 7.63777
#
# Compressibility (1/GPa) = 0.01971293
#
# Stress axis : x y z
#
# Youngs Moduli (GPa) = 42.29029 99.20766 67.63977
#
# Poissons Ratio (x) = 0.49411 0.23680
# Poissons Ratio (y) = 0.21063 0.40023
# Poissons Ratio (z) = 0.14806 0.58703
#
# Static dielectric constant tensor:
#      x y z
#    x 1.535160 0.000000 0.000000 
#    y 0.000000 1.560450 0.000000 
#    z 0.000000 0.000000 1.505850 
# 
# From -- ./inp_files/71891.got.cif
#   From: 2010.05.17/outbox.cif.g08.bks.cpg/sg65_36_cif.got.tgz:71891.got - 2010.06.03 17:01:31.
