data_PCOD9484777
_publ_section_title
;
Structure prediction by ZEFSAII (Michael W. Deem and Ramdas Pophale) SiO2 
 PCOD9484777
Probable space group: C M M M
;
_chemical_formula_sum "Si O2"
_cell_formula_units_Z 112
_cell_length_a 16.128516
_cell_length_b 29.857653
_cell_length_c 13.950893
_cell_angle_alpha 90.000000
_cell_angle_beta 90.000000
_cell_angle_gamma 90.000000
_cell_volume 6718.186929
_symmetry_space_group_name_H-M "C M M M"
_symmetry_group_IT_number 65
_symmetry_cell_setting 'orthorhombic'
loop_
_space_group_symop_operation_xyz
x,y,z
-x,-y,z
x,-y,-z
-x,y,-z
-x,-y,-z
x,y,-z
-x,y,z
x,-y,z
1/2+x,1/2+y,z
1/2-x,1/2-y,z
1/2+x,1/2-y,-z
1/2-x,1/2+y,-z
1/2-x,1/2-y,-z
1/2+x,1/2+y,-z
1/2-x,1/2+y,z
1/2+x,1/2-y,z
loop_
_atom_site_type_symbol
_atom_site_label
_atom_site_fract_x
_atom_site_fract_y
_atom_site_fract_z
Si Si1 0.908118 0.224645 0.891277
Si Si2 0.651551 0.818819 0.609090
Si Si3 0.090736 0.679626 0.186580
Si Si4 0.734367 0.650819 0.107569
Si Si5 0.595949 0.280141 0.390086
Si Si6 0.317852 0.362687 0.687631
Si Si7 0.404935 0.450627 0.385048
O O1 0.903479 0.266448 0.820857
O O2 0.827473 0.193665 0.887314
O O3 0.000000 0.202691 0.879350
O O4 0.908145 0.243501 0.000000
O O5 0.624023 0.829095 0.500000
O O6 0.598373 0.833306 0.701545
O O7 0.651545 0.764512 0.615722
O O8 0.739528 0.841844 0.630851
O O9 0.169858 0.662574 0.127833
O O10 0.000000 0.666550 0.149457
O O11 0.705930 0.625511 0.203147
O O12 0.724855 0.632073 0.000000
O O13 0.604137 0.297291 0.500000
O O14 0.500000 0.266267 0.377657
O O15 0.618191 0.321029 0.320598
O O16 0.352709 0.407743 0.643414
O O17 0.406997 0.451793 0.500000
O O18 0.500000 0.445051 0.351399
O O19 0.375200 0.500000 0.352418
#
# Coordination Sequence:
#
# PCOD9484777 Si02
#       7
#    16  16  16  16  16  16  16
#     4   9  17  29  44  61  83 116 162 212 254 289
#     4  10  20  31  42  62  95 129 160 196 237 288
#     4  10  19  30  45  62  83 120 166 207 249 290
#     4  10  21  33  44  63  90 120 160 208 250 289
#     4  10  19  29  43  65  95 132 170 202 233 278
#     4  11  20  31  49  68  92 129 166 199 241 292
#     4   9  18  33  54  80 105 126 155 199 245 288
#
# _framework density 16.671164999999998
#
# number of rings (size 3 to 8) (size 9 to 14) (size 15 to 20)
#    0.000    2.143    0.000    4.714    0.000    9.714 
#    0.000    0.000    0.000    0.429    0.000    1.000 
#    0.000   14.286    0.000   61.857    0.000    0.000 
#
# Total GULP energy -311879.362996 kJ/mol
# GULP energy per Si atom -5569.274339 kJ/mol
# Density = 1.663322 g / cm^3
# Si number density = 16.671165 Si / 1000 Ang^3
#
#
#
# Elastic Constant Matrix: (Units=GPa)
#
#
# Indices 1 2 3 4 5 6 
#
# 1 89.3848 40.0984 24.7945 0.0000 0.0000 0.0000
# 2 40.0984 79.1946 14.3788 0.0000 0.0000 0.0000
# 3 24.7945 14.3788 92.4877 0.0000 0.0000 0.0000
# 4 0.0000 0.0000 0.0000 11.9323 0.0000 0.0000
# 5 0.0000 0.0000 0.0000 0.0000 18.8688 0.0000
# 6 0.0000 0.0000 0.0000 0.0000 0.0000 3.1717
#
#
#
# Elastic Compliance Matrix: (Units=1/GPa)
#
#
# Indices 1 2 3 4 5 6 
#
# 1 0.015228 -0.007172 -0.002967 0.000000 0.000000 0.000000
# 2 -0.007172 0.016371 -0.000623 0.000000 0.000000 0.000000
# 3 -0.002967 -0.000623 0.011705 0.000000 0.000000 0.000000
# 4 0.000000 0.000000 0.000000 0.083806 0.000000 0.000000
# 5 0.000000 0.000000 0.000000 0.000000 0.052998 0.000000
# 6 0.000000 0.000000 0.000000 0.000000 0.000000 0.315292
#
#
# Mechanical properties :
#
#
# Convention : Reuss Voigt Hill
#
# Bulk Modulus (GPa) = 45.91241 46.62341 46.26791
# Shear Modulus (GPa) = 9.53864 18.91423 14.22643
#
# Velocity S-wave (km/s) = 2.39459 3.37196 2.92439
# Velocity P-wave (km/s) = 5.93677 6.57171 6.26229
#
# Compressibility (1/GPa) = 0.02178061
#
# Stress axis : x y z
#
# Youngs Moduli (GPa) = 65.66895 61.08250 85.43673
#
# Poissons Ratio (x) = 0.43805 0.25353
# Poissons Ratio (y) = 0.47095 0.05320
# Poissons Ratio (z) = 0.19487 0.03803
#
# Static dielectric constant tensor:
#      x y z
#    x 1.607230 0.000000 0.000000 
#    y 0.000000 1.507900 0.000000 
#    z 0.000000 0.000000 1.639940 
# 
# From -- ./inp_files/41129.got.cif
#   From: 2010.05.17/outbox.cif.g08.bks.cpg/sg65_21_cif.got.tgz:41129.got - 2010.06.03 17:01:31.
