data_PCOD9484109
_publ_section_title
;
Structure prediction by ZEFSAII (Michael W. Deem and Ramdas Pophale) SiO2 
 PCOD9484109
Probable space group: C M M M
;
_chemical_formula_sum "Si O2"
_cell_formula_units_Z 96
_cell_length_a 29.939236
_cell_length_b 20.252356
_cell_length_c 9.385789
_cell_angle_alpha 90.000000
_cell_angle_beta 90.000000
_cell_angle_gamma 90.000000
_cell_volume 5690.979920
_symmetry_space_group_name_H-M "C M M M"
_symmetry_group_IT_number 65
_symmetry_cell_setting 'orthorhombic'
loop_
_space_group_symop_operation_xyz
x,y,z
-x,-y,z
x,-y,-z
-x,y,-z
-x,-y,-z
x,y,-z
-x,y,z
x,-y,z
1/2+x,1/2+y,z
1/2-x,1/2-y,z
1/2+x,1/2-y,-z
1/2-x,1/2+y,-z
1/2-x,1/2-y,-z
1/2+x,1/2+y,-z
1/2-x,1/2+y,z
1/2+x,1/2-y,z
loop_
_atom_site_type_symbol
_atom_site_label
_atom_site_fract_x
_atom_site_fract_y
_atom_site_fract_z
Si Si1 0.551726 0.702255 0.330091
Si Si2 0.701633 0.714817 0.831781
Si Si3 0.054368 0.927178 0.834145
Si Si4 0.371336 0.801088 0.329890
Si Si5 0.662315 0.076377 0.831285
Si Si6 0.267339 0.426761 0.827212
O O1 0.553166 0.691878 0.500000
O O2 0.500000 0.712235 0.288696
O O3 0.569297 0.636026 0.254102
O O4 0.582138 0.764843 0.296139
O O5 0.750000 0.750000 0.821631
O O6 0.666875 0.755361 0.738940
O O7 0.706361 0.638657 0.782974
O O8 0.689162 0.716330 0.000000
O O9 0.000000 0.927615 0.827770
O O10 0.069347 0.000000 0.784317
O O11 0.066855 0.920347 0.000000
O O12 0.366326 0.804843 0.500000
O O13 0.365869 0.872418 0.259297
O O14 0.714884 0.082109 0.791586
O O15 0.649608 0.000000 0.811135
O O16 0.659185 0.091756 0.000000
O O17 0.281798 0.500000 0.777908
O O18 0.269181 0.427493 0.000000
#
# Coordination Sequence:
#
# PCOD9484109 Si02
#       6
#    16  16  16  16  16  16
#     4   9  19  35  51  68  95 135 177 209 244 296
#     4  10  18  31  51  73  99 133 168 199 239 297
#     4   8  14  26  46  72  97 119 152 204 257 296
#     4  11  22  33  49  75 104 130 162 209 256 294
#     4   9  17  32  54  76  98 127 165 203 238 291
#     4   8  14  27  48  71  95 127 167 203 232 276
#
# _framework density 16.8688
#
# number of rings (size 3 to 8) (size 9 to 14) (size 15 to 20)
#    0.000    2.833    1.667    2.000    0.000    2.333 
#    0.000    2.500    0.000    4.000    0.000    3.500 
#    0.000    0.000    0.000    0.000    0.000    0.000 
#
# Total GULP energy -267460.185666 kJ/mol
# GULP energy per Si atom -5572.087201 kJ/mol
# Density = 1.683041 g / cm^3
# Si number density = 16.868800 Si / 1000 Ang^3
#
#
#
# Elastic Constant Matrix: (Units=GPa)
#
#
# Indices 1 2 3 4 5 6 
#
# 1 39.2179 37.5927 31.3468 0.0000 0.0000 0.0000
# 2 37.5927 126.8438 52.4889 0.0000 0.0000 0.0000
# 3 31.3468 52.4889 39.9381 0.0000 0.0000 0.0000
# 4 0.0000 0.0000 0.0000 15.7379 0.0000 0.0000
# 5 0.0000 0.0000 0.0000 0.0000 14.0354 0.0000
# 6 0.0000 0.0000 0.0000 0.0000 0.0000 22.2956
#
#
#
# Elastic Compliance Matrix: (Units=1/GPa)
#
#
# Indices 1 2 3 4 5 6 
#
# 1 0.069494 0.004330 -0.060236 0.000000 0.000000 0.000000
# 2 0.004330 0.017553 -0.026467 0.000000 0.000000 0.000000
# 3 -0.060236 -0.026467 0.107102 0.000000 0.000000 0.000000
# 4 0.000000 0.000000 0.000000 0.063541 0.000000 0.000000
# 5 0.000000 0.000000 0.000000 0.000000 0.071248 0.000000
# 6 0.000000 0.000000 0.000000 0.000000 0.000000 0.044852
#
#
# Mechanical properties :
#
#
# Convention : Reuss Voigt Hill
#
# Bulk Modulus (GPa) = 34.01059 49.87297 41.94178
# Shear Modulus (GPa) = 9.11847 16.05189 12.58518
#
# Velocity S-wave (km/s) = 2.32750 3.08810 2.73438
# Velocity P-wave (km/s) = 5.23723 6.50727 5.90649
#
# Compressibility (1/GPa) = 0.02940260
#
# Stress axis : x y z
#
# Youngs Moduli (GPa) = 14.38967 56.97071 9.33690
#
# Poissons Ratio (x) = -0.24668 0.56241
# Poissons Ratio (y) = -0.06231 0.24712
# Poissons Ratio (z) = 0.86677 1.50787
#
# Static dielectric constant tensor:
#      x y z
#    x 1.571590 0.000000 0.000000 
#    y 0.000000 1.592160 0.000000 
#    z 0.000000 0.000000 1.554890 
# 
# From -- ./inp_files/16340.got.cif
#   From: 2010.05.17/outbox.cif.g08.bks.cpg/sg65_9_cif.got.tgz:16340.got - 2010.06.03 17:01:31.
