data_PCOD9484844
_publ_section_title
;
Structure prediction by ZEFSAII (Michael W. Deem and Ramdas Pophale) SiO2 
 PCOD9484844
Probable space group: C M M M
;
_chemical_formula_sum "Si O2"
_cell_formula_units_Z 128
_cell_length_a 22.526390
_cell_length_b 16.905301
_cell_length_c 20.046460
_cell_angle_alpha 90.000000
_cell_angle_beta 90.000000
_cell_angle_gamma 90.000000
_cell_volume 7634.000752
_symmetry_space_group_name_H-M "C M M M"
_symmetry_group_IT_number 65
_symmetry_cell_setting 'orthorhombic'
loop_
_space_group_symop_operation_xyz
x,y,z
-x,-y,z
x,-y,-z
-x,y,-z
-x,-y,-z
x,y,-z
-x,y,z
x,-y,z
1/2+x,1/2+y,z
1/2-x,1/2-y,z
1/2+x,1/2-y,-z
1/2-x,1/2+y,-z
1/2-x,1/2-y,-z
1/2+x,1/2+y,-z
1/2-x,1/2+y,z
1/2+x,1/2-y,z
loop_
_atom_site_type_symbol
_atom_site_label
_atom_site_fract_x
_atom_site_fract_y
_atom_site_fract_z
Si Si1 0.570241 0.224222 0.923866
Si Si2 0.067369 0.094258 0.315113
Si Si3 0.340180 0.404754 0.573710
Si Si4 0.257641 0.593461 0.809001
Si Si5 0.833110 0.407315 0.924354
Si Si6 0.123649 0.805844 0.795359
Si Si7 0.300772 0.093923 0.577702
Si Si8 0.805472 0.309754 0.299792
O O1 0.500000 0.212275 0.916337
O O2 0.607474 0.143354 0.917851
O O3 0.595093 0.277579 0.864228
O O4 0.580643 0.254376 0.000000
O O5 0.116626 0.123219 0.368108
O O6 0.078732 0.141433 0.247587
O O7 0.000000 0.105464 0.339383
O O8 0.076053 0.000000 0.304543
O O9 0.355472 0.373700 0.500000
O O10 0.347378 0.500000 0.571704
O O11 0.270403 0.391779 0.585250
O O12 0.268451 0.500000 0.810720
O O13 0.216137 0.617374 0.871037
O O14 0.318354 0.641560 0.809903
O O15 0.222329 0.618168 0.742680
O O16 0.845220 0.500000 0.913915
O O17 0.810710 0.396839 0.000000
O O18 0.147313 0.734812 0.747538
O O19 0.315580 0.109142 0.500000
O O20 0.329039 0.153102 0.631389
O O21 0.311335 0.000000 0.590288
O O22 0.750000 0.250000 0.311523
#
# Coordination Sequence:
#
# PCOD9484844 Si02
#       8
#    16  16  16  16  16  16  16  16
#     4  10  21  37  56  75 100 136 172 210 256 302
#     4  10  20  33  50  70  95 134 179 219 255 295
#     4   8  14  26  45  69  94 122 162 210 254 291
#     4  10  19  32  51  74 102 135 166 206 255 307
#     4   9  18  33  53  78 103 127 161 203 252 310
#     4  11  21  34  49  75 104 135 169 210 253 311
#     4   9  17  30  48  69  97 135 171 202 243 301
#     4  10  19  29  45  71 101 132 165 204 255 306
#
# _framework density 16.767092999999999
#
# number of rings (size 3 to 8) (size 9 to 14) (size 15 to 20)
#    0.000    2.375    1.250    3.375    0.000    2.250 
#    0.000    4.375    0.000    1.125    0.000    4.375 
#    0.000    0.000    0.000    5.500    0.000    0.000 
#
# Total GULP energy -356761.501379 kJ/mol
# GULP energy per Si atom -5574.398459 kJ/mol
# Density = 1.672893 g / cm^3
# Si number density = 16.767093 Si / 1000 Ang^3
#
#
#
# Elastic Constant Matrix: (Units=GPa)
#
#
# Indices 1 2 3 4 5 6 
#
# 1 42.0998 21.9530 27.3461 0.0000 0.0000 0.0000
# 2 21.9530 37.5443 42.7370 0.0000 0.0000 0.0000
# 3 27.3461 42.7370 105.8070 0.0000 0.0000 0.0000
# 4 0.0000 0.0000 0.0000 30.6759 0.0000 0.0000
# 5 0.0000 0.0000 0.0000 0.0000 21.3550 0.0000
# 6 0.0000 0.0000 0.0000 0.0000 0.0000 12.4936
#
#
#
# Elastic Compliance Matrix: (Units=1/GPa)
#
#
# Indices 1 2 3 4 5 6 
#
# 1 0.034286 -0.018439 -0.001414 0.000000 0.000000 0.000000
# 2 -0.018439 0.059220 -0.019154 0.000000 0.000000 0.000000
# 3 -0.001414 -0.019154 0.017553 0.000000 0.000000 0.000000
# 4 0.000000 0.000000 0.000000 0.032599 0.000000 0.000000
# 5 0.000000 0.000000 0.000000 0.000000 0.046828 0.000000
# 6 0.000000 0.000000 0.000000 0.000000 0.000000 0.080041
#
#
# Mechanical properties :
#
#
# Convention : Reuss Voigt Hill
#
# Bulk Modulus (GPa) = 30.26065 41.05816 35.65941
# Shear Modulus (GPa) = 13.90602 19.13256 16.51929
#
# Velocity S-wave (km/s) = 2.88299 3.38165 3.14223
# Velocity P-wave (km/s) = 5.40083 6.30777 5.87184
#
# Compressibility (1/GPa) = 0.03304621
#
# Stress axis : x y z
#
# Youngs Moduli (GPa) = 29.16621 16.88605 56.96924
#
# Poissons Ratio (x) = 0.31136 0.08054
# Poissons Ratio (y) = 0.53779 1.09122
# Poissons Ratio (z) = 0.04123 0.32344
#
# Static dielectric constant tensor:
#      x y z
#    x 1.538080 0.000000 0.000000 
#    y 0.000000 1.570440 0.000000 
#    z 0.000000 0.000000 1.599960 
# 
# From -- ./inp_files/57000.got.cif
#   From: 2010.05.17/outbox.cif.g08.bks.cpg/sg65_29_cif.got.tgz:57000.got - 2010.06.03 17:01:31.
