data_PCOD9484636
_publ_section_title
;
Structure prediction by ZEFSAII (Michael W. Deem and Ramdas Pophale) SiO2 
 PCOD9484636
Probable space group: C M M M
;
_chemical_formula_sum "Si O2"
_cell_formula_units_Z 96
_cell_length_a 32.955279
_cell_length_b 27.262468
_cell_length_c 9.269658
_cell_angle_alpha 90.000000
_cell_angle_beta 90.000000
_cell_angle_gamma 90.000000
_cell_volume 8328.252290
_symmetry_space_group_name_H-M "C M M M"
_symmetry_group_IT_number 65
_symmetry_cell_setting 'orthorhombic'
loop_
_space_group_symop_operation_xyz
x,y,z
-x,-y,z
x,-y,-z
-x,y,-z
-x,-y,-z
x,y,-z
-x,y,z
x,-y,z
1/2+x,1/2+y,z
1/2-x,1/2-y,z
1/2+x,1/2-y,-z
1/2-x,1/2+y,-z
1/2-x,1/2-y,-z
1/2+x,1/2+y,-z
1/2-x,1/2+y,z
1/2+x,1/2-y,z
loop_
_atom_site_type_symbol
_atom_site_label
_atom_site_fract_x
_atom_site_fract_y
_atom_site_fract_z
Si Si1 0.753865 0.364113 0.833857
Si Si2 0.120263 0.391836 0.173247
Si Si3 0.303746 0.058185 0.670597
Si Si4 0.952388 0.442023 0.329446
Si Si5 0.664892 0.796241 0.835044
Si Si6 0.291001 0.283509 0.334336
O O1 0.767230 0.411380 0.742916
O O2 0.794238 0.329672 0.834291
O O3 0.719432 0.331326 0.759174
O O4 0.744607 0.375784 0.000000
O O5 0.155246 0.423876 0.250392
O O6 0.077558 0.410165 0.233211
O O7 0.130144 0.334864 0.207533
O O8 0.123453 0.397246 0.000000
O O9 0.306394 0.069570 0.500000
O O10 0.299102 0.000000 0.687655
O O11 0.944579 0.433618 0.500000
O O12 0.945131 0.500000 0.302411
O O13 0.000000 0.432527 0.302678
O O14 0.674132 0.750413 0.733720
O O15 0.658601 0.779989 0.000000
O O16 0.299112 0.295980 0.500000
O O17 0.250000 0.250000 0.331661
#
# Coordination Sequence:
#
# PCOD9484636 Si02
#       6
#    16  16  16  16  16  16
#     4   9  16  25  36  48  64  85 106 130 159 191
#     4  10  19  28  39  54  69  84 104 133 167 203
#     4  10  19  28  37  49  66  87 110 137 167 198
#     4   9  18  31  43  53  66  85 108 134 166 204
#     4   8  15  25  34  47  66  84 101 124 157 193
#     4   9  15  22  34  50  65  82 104 127 152 187
#
# _framework density 11.527029000000001
#
# number of rings (size 3 to 8) (size 9 to 14) (size 15 to 20)
#    0.000    2.833    0.000    4.000    0.000   10.667 
#    0.000    0.833    0.000    0.000    0.000    0.000 
#    0.000    0.000    0.000    0.000    0.000    0.000 
#
# Total GULP energy -267287.122705 kJ/mol
# GULP energy per Si atom -5568.481723 kJ/mol
# Density = 1.150079 g / cm^3
# Si number density = 11.527029 Si / 1000 Ang^3
#
#
#
# Elastic Constant Matrix: (Units=GPa)
#
#
# Indices 1 2 3 4 5 6 
#
# 1 41.0597 36.1812 38.5770 0.0000 0.0000 0.0000
# 2 36.1812 49.9955 47.5980 0.0000 0.0000 0.0000
# 3 38.5770 47.5980 83.9836 0.0000 0.0000 0.0000
# 4 0.0000 0.0000 0.0000 18.7632 0.0000 0.0000
# 5 0.0000 0.0000 0.0000 0.0000 16.0007 0.0000
# 6 0.0000 0.0000 0.0000 0.0000 0.0000 21.3640
#
#
#
# Elastic Compliance Matrix: (Units=1/GPa)
#
#
# Indices 1 2 3 4 5 6 
#
# 1 0.069279 -0.043090 -0.007401 0.000000 0.000000 0.000000
# 2 -0.043090 0.070244 -0.020018 0.000000 0.000000 0.000000
# 3 -0.007401 -0.020018 0.026652 0.000000 0.000000 0.000000
# 4 0.000000 0.000000 0.000000 0.053296 0.000000 0.000000
# 5 0.000000 0.000000 0.000000 0.000000 0.062497 0.000000
# 6 0.000000 0.000000 0.000000 0.000000 0.000000 0.046808
#
#
# Mechanical properties :
#
#
# Convention : Reuss Voigt Hill
#
# Bulk Modulus (GPa) = 39.75160 46.63900 43.19530
# Shear Modulus (GPa) = 10.45637 14.73778 12.59708
#
# Velocity S-wave (km/s) = 3.01511 3.57955 3.30938
# Velocity P-wave (km/s) = 6.83239 7.59161 7.22199
#
# Compressibility (1/GPa) = 0.02515622
#
# Stress axis : x y z
#
# Youngs Moduli (GPa) = 14.43448 14.23618 37.52104
#
# Poissons Ratio (x) = 0.61344 0.27769
# Poissons Ratio (y) = 0.62198 0.75109
# Poissons Ratio (z) = 0.10683 0.28498
#
# Static dielectric constant tensor:
#      x y z
#    x 1.353500 0.000000 0.000000 
#    y 0.000000 1.366240 0.000000 
#    z 0.000000 0.000000 1.388030 
# 
# From -- ./inp_files/16919.got.cif
#   From: 2010.05.17/outbox.cif.g08.bks.cpg/sg65_9_cif.got.tgz:16919.got - 2010.06.03 17:01:31.
