data_PCOD9484426
_publ_section_title
;
Structure prediction by ZEFSAII (Michael W. Deem and Ramdas Pophale) SiO2 
 PCOD9484426
Probable space group: C M M M
;
_chemical_formula_sum "Si O2"
_cell_formula_units_Z 104
_cell_length_a 22.650179
_cell_length_b 27.419033
_cell_length_c 8.807033
_cell_angle_alpha 90.000000
_cell_angle_beta 90.000000
_cell_angle_gamma 90.000000
_cell_volume 5469.572665
_symmetry_space_group_name_H-M "C M M M"
_symmetry_group_IT_number 65
_symmetry_cell_setting 'orthorhombic'
loop_
_space_group_symop_operation_xyz
x,y,z
-x,-y,z
x,-y,-z
-x,y,-z
-x,-y,-z
x,y,-z
-x,y,z
x,-y,z
1/2+x,1/2+y,z
1/2-x,1/2-y,z
1/2+x,1/2-y,-z
1/2-x,1/2+y,-z
1/2-x,1/2-y,-z
1/2+x,1/2+y,-z
1/2-x,1/2+y,z
1/2+x,1/2-y,z
loop_
_atom_site_type_symbol
_atom_site_label
_atom_site_fract_x
_atom_site_fract_y
_atom_site_fract_z
Si Si1 0.762035 0.193131 0.833753
Si Si2 0.253711 0.443185 0.817957
Si Si3 0.568219 0.801412 0.182185
Si Si4 0.875392 0.094617 0.679875
Si Si5 0.669525 0.131302 0.323461
Si Si6 0.097201 0.808882 0.174796
Si Si7 0.069900 0.000000 0.827480
O O1 0.750000 0.250000 0.831854
O O2 0.724275 0.168109 0.704299
O O3 0.831835 0.190153 0.825450
O O4 0.742333 0.173463 0.000000
O O5 0.258053 0.500000 0.769463
O O6 0.310216 0.413135 0.754793
O O7 0.193917 0.417313 0.758867
O O8 0.255571 0.441993 0.000000
O O9 0.500000 0.814098 0.211917
O O10 0.613524 0.839845 0.254573
O O11 0.578168 0.744706 0.231517
O O12 0.578198 0.801218 0.000000
O O13 0.867723 0.095755 0.500000
O O14 0.913181 0.141981 0.731458
O O15 0.909250 0.047315 0.738525
O O16 0.660001 0.121849 0.500000
O O17 0.076186 0.813924 0.000000
O O18 0.000000 0.000000 0.838111
O O19 0.095090 0.000000 0.000000
#
# Coordination Sequence:
#
# PCOD9484426 Si02
#       7
#    16  16  16  16  16  16   8
#     4  10  18  32  55  81 114 152 193 239 282 337
#     4  11  23  40  64  90 120 157 201 250 302 365
#     4  10  22  42  65  86 115 161 212 252 291 354
#     4  12  24  37  59  91 126 158 195 253 315 362
#     4  12  24  36  58  90 125 157 192 244 309 371
#     4  10  20  35  58  87 120 159 203 247 291 347
#     4  11  25  45  65  81 107 159 218 257 292 353
#
# _framework density 19.014282999999999
#
# number of rings (size 3 to 8) (size 9 to 14) (size 15 to 20)
#    0.000    1.154    3.846    3.462    0.000    3.385 
#    0.000    1.538    0.000    0.462    0.000    3.231 
#    0.000    0.000    0.000    0.000    0.000    0.000 
#
# Total GULP energy -290222.720053 kJ/mol
# GULP energy per Si atom -5581.206155 kJ/mol
# Density = 1.897101 g / cm^3
# Si number density = 19.014283 Si / 1000 Ang^3
#
#
#
# Elastic Constant Matrix: (Units=GPa)
#
#
# Indices 1 2 3 4 5 6 
#
# 1 86.3898 31.8001 28.5856 0.0000 0.0000 0.0000
# 2 31.8001 86.1454 20.7098 0.0000 0.0000 0.0000
# 3 28.5856 20.7098 82.3367 0.0000 0.0000 0.0000
# 4 0.0000 0.0000 0.0000 -89.7525 0.0000 0.0000
# 5 0.0000 0.0000 0.0000 0.0000 -5.5256 0.0000
# 6 0.0000 0.0000 0.0000 0.0000 0.0000 -4.0759
#
#
#
# Elastic Compliance Matrix: (Units=1/GPa)
#
#
# Indices 1 2 3 4 5 6 
#
# 1 0.014496 -0.004408 -0.003924 0.000000 0.000000 0.000000
# 2 -0.004408 0.013696 -0.001914 0.000000 0.000000 0.000000
# 3 -0.003924 -0.001914 0.013989 0.000000 0.000000 0.000000
# 4 0.000000 0.000000 0.000000 -0.011142 0.000000 0.000000
# 5 0.000000 0.000000 0.000000 0.000000 -0.180975 0.000000
# 6 0.000000 0.000000 0.000000 0.000000 0.000000 -0.245347
#
#
# Mechanical properties :
#
#
# Convention : Reuss Voigt Hill
#
# Bulk Modulus (GPa) = 46.10798 46.34032 46.22415
# Shear Modulus (GPa) = -13.60324 -8.28571 -10.94447
#
# Velocity S-wave (km/s) = -2.67764 -2.08976 -2.40175
# Velocity P-wave (km/s) = 3.83954 4.31294 4.08311
#
# Compressibility (1/GPa) = 0.02168822
#
# Stress axis : x y z
#
# Youngs Moduli (GPa) = 68.98237 73.01566 71.48383
#
# Poissons Ratio (x) = 0.32185 0.28051
# Poissons Ratio (y) = 0.30407 0.13686
# Poissons Ratio (z) = 0.27070 0.13979
#
# Static dielectric constant tensor:
#      x y z
#    x 1.672470 0.000000 0.000000 
#    y 0.000000 1.731880 0.000000 
#    z 0.000000 0.000000 1.676840 
# 
# From -- ./inp_files/14734.got.cif
#   From: 2010.05.17/outbox.cif.g08.bks.cpg/sg65_8_cif.got.tgz:14734.got - 2010.06.03 17:01:31.
