data_PCOD9484876
_publ_section_title
;
Structure prediction by ZEFSAII (Michael W. Deem and Ramdas Pophale) SiO2 
 PCOD9484876
Probable space group: C M M M
;
_chemical_formula_sum "Si O2"
_cell_formula_units_Z 72
_cell_length_a 7.499081
_cell_length_b 32.833207
_cell_length_c 14.495135
_cell_angle_alpha 90.000000
_cell_angle_beta 90.000000
_cell_angle_gamma 90.000000
_cell_volume 3568.975888
_symmetry_space_group_name_H-M "C M M M"
_symmetry_group_IT_number 65
_symmetry_cell_setting 'orthorhombic'
loop_
_space_group_symop_operation_xyz
x,y,z
-x,-y,z
x,-y,-z
-x,y,-z
-x,-y,-z
x,y,-z
-x,y,z
x,-y,z
1/2+x,1/2+y,z
1/2-x,1/2-y,z
1/2+x,1/2-y,-z
1/2-x,1/2+y,-z
1/2-x,1/2-y,-z
1/2+x,1/2+y,-z
1/2-x,1/2+y,z
1/2+x,1/2-y,z
loop_
_atom_site_type_symbol
_atom_site_label
_atom_site_fract_x
_atom_site_fract_y
_atom_site_fract_z
Si Si1 0.783014 0.044889 0.891635
Si Si2 0.787880 0.125531 0.789224
Si Si3 0.286280 0.295397 0.894631
Si Si4 0.714734 0.911828 0.395598
Si Si5 0.294487 0.000000 0.612656
O O1 0.716426 0.084228 0.836798
O O2 0.000000 0.044820 0.887181
O O3 0.723910 0.000000 0.858309
O O4 0.736718 0.048481 0.000000
O O5 0.717752 0.166933 0.834495
O O6 0.758846 0.121316 0.680417
O O7 0.000000 0.125160 0.805377
O O8 0.500000 0.299098 0.899155
O O9 0.250000 0.250000 0.858558
O O10 0.217825 0.297788 0.000000
O O11 0.776849 0.903903 0.500000
O O12 0.500000 0.915512 0.399701
O O13 0.785882 0.956272 0.362619
O O14 0.500000 0.000000 0.643838
O O15 0.296302 0.000000 0.500000
#
# Coordination Sequence:
#
# PCOD9484876 Si02
#       5
#    16  16  16  16   8
#     4   8  14  25  41  63  94 129 158 183 220 277
#     4  10  19  29  47  74  99 122 155 201 244 280
#     4   9  18  33  52  74 100 127 156 194 240 289
#     4   9  18  32  48  66  92 129 168 201 236 283
#     4   7  12  26  45  61  82 119 164 200 229 267
#
# _framework density 20.173853999999999
#
# number of rings (size 3 to 8) (size 9 to 14) (size 15 to 20)
#    0.000    3.222    0.000    2.667    1.556    4.000 
#    0.000    0.000    0.000    4.667    0.000    1.556 
#    0.000    0.000    0.000    0.000    0.000    0.000 
#
# Total GULP energy -200791.458849 kJ/mol
# GULP energy per Si atom -5577.540524 kJ/mol
# Density = 2.012794 g / cm^3
# Si number density = 20.173854 Si / 1000 Ang^3
#
#
#
# Elastic Constant Matrix: (Units=GPa)
#
#
# Indices 1 2 3 4 5 6 
#
# 1 56.9147 8.2519 -1.3220 0.0000 0.0000 0.0000
# 2 8.2519 183.7825 100.1406 0.0000 0.0000 0.0000
# 3 -1.3220 100.1406 93.1726 0.0000 0.0000 0.0000
# 4 0.0000 0.0000 0.0000 31.2371 0.0000 0.0000
# 5 0.0000 0.0000 0.0000 0.0000 20.6937 0.0000
# 6 0.0000 0.0000 0.0000 0.0000 0.0000 -5.8592
#
#
#
# Elastic Compliance Matrix: (Units=1/GPa)
#
#
# Indices 1 2 3 4 5 6 
#
# 1 0.017964 -0.002282 0.002707 0.000000 0.000000 0.000000
# 2 -0.002282 0.013421 -0.014457 0.000000 0.000000 0.000000
# 3 0.002707 -0.014457 0.026310 0.000000 0.000000 0.000000
# 4 0.000000 0.000000 0.000000 0.032013 0.000000 0.000000
# 5 0.000000 0.000000 0.000000 0.000000 0.048324 0.000000
# 6 0.000000 0.000000 0.000000 0.000000 0.000000 -0.170671
#
#
# Mechanical properties :
#
#
# Convention : Reuss Voigt Hill
#
# Bulk Modulus (GPa) = 33.74822 60.89008 47.31915
# Shear Modulus (GPa) = 943.07498 24.33426 483.70462
#
# Velocity S-wave (km/s) = 21.64460 3.47685 15.50125
# Velocity P-wave (km/s) = 25.32620 6.80927 18.54431
#
# Compressibility (1/GPa) = 0.02963119
#
# Stress axis : x y z
#
# Youngs Moduli (GPa) = 55.66731 74.50834 38.00864
#
# Poissons Ratio (x) = 0.17001 -0.10290
# Poissons Ratio (y) = 0.12702 0.54951
# Poissons Ratio (z) = -0.15070 1.07720
#
# Static dielectric constant tensor:
#      x y z
#    x 1.786740 0.000000 0.000000 
#    y 0.000000 1.728320 0.000000 
#    z 0.000000 0.000000 1.723160 
# 
# From -- ./inp_files/22737.got.cif
#   From: 2010.05.17/outbox.cif.g08.bks.cpg/sg65_12_cif.got.tgz:22737.got - 2010.06.03 17:01:31.
