data_PCOD9484439
_publ_section_title
;
Structure prediction by ZEFSAII (Michael W. Deem and Ramdas Pophale) SiO2 
 PCOD9484439
Probable space group: C M M M
;
_chemical_formula_sum "Si O2"
_cell_formula_units_Z 56
_cell_length_a 8.683159
_cell_length_b 18.926232
_cell_length_c 18.358372
_cell_angle_alpha 90.000000
_cell_angle_beta 90.000000
_cell_angle_gamma 90.000000
_cell_volume 3017.005340
_symmetry_space_group_name_H-M "C M M M"
_symmetry_group_IT_number 65
_symmetry_cell_setting 'orthorhombic'
loop_
_space_group_symop_operation_xyz
x,y,z
-x,-y,z
x,-y,-z
-x,y,-z
-x,-y,-z
x,y,-z
-x,y,z
x,-y,z
1/2+x,1/2+y,z
1/2-x,1/2-y,z
1/2+x,1/2-y,-z
1/2-x,1/2+y,-z
1/2-x,1/2-y,-z
1/2+x,1/2+y,-z
1/2-x,1/2+y,z
1/2+x,1/2-y,z
loop_
_atom_site_type_symbol
_atom_site_label
_atom_site_fract_x
_atom_site_fract_y
_atom_site_fract_z
Si Si1 0.316377 0.083130 0.784947
Si Si2 0.684175 0.830020 0.500000
Si Si3 0.315751 0.672025 0.915178
Si Si4 0.816440 0.170604 0.348953
O O1 0.500000 0.092949 0.778321
O O2 0.258935 0.116791 0.860328
O O3 0.234103 0.124035 0.719272
O O4 0.282162 0.000000 0.782346
O O5 0.500000 0.829007 0.500000
O O6 0.750000 0.750000 0.500000
O O7 0.747219 0.860400 0.575763
O O8 0.500000 0.672756 0.906110
O O9 0.250000 0.750000 0.898948
O O10 0.281010 0.656482 0.000000
O O11 0.750000 0.250000 0.339523
O O12 0.000000 0.175080 0.354876
#
# Coordination Sequence:
#
# PCOD9484439 Si02
#       4
#    16   8  16  16
#     4  11  24  40  57  80 113 151 189 230 279 333
#     4  10  18  32  55  84 115 144 183 231 279 329
#     4  10  21  38  61  87 114 145 184 230 278 330
#     4  11  21  36  59  85 114 147 187 232 279 331
#
# _framework density 18.561453
#
# number of rings (size 3 to 8) (size 9 to 14) (size 15 to 20)
#    0.000    1.429    0.000    8.143    0.000    4.571 
#    0.000    3.571    0.000    4.286    0.000    0.000 
#    0.000    0.000    0.000    0.000    0.000    0.000 
#
# Total GULP energy -156502.933311 kJ/mol
# GULP energy per Si atom -5589.390475 kJ/mol
# Density = 1.851921 g / cm^3
# Si number density = 18.561453 Si / 1000 Ang^3
#
#
#
# Elastic Constant Matrix: (Units=GPa)
#
#
# Indices 1 2 3 4 5 6 
#
# 1 150.1891 67.8468 74.5436 0.0000 0.0000 0.0000
# 2 67.8468 82.8642 73.6677 0.0000 0.0000 0.0000
# 3 74.5436 73.6677 119.5094 0.0000 0.0000 0.0000
# 4 0.0000 0.0000 0.0000 -13.5704 0.0000 0.0000
# 5 0.0000 0.0000 0.0000 0.0000 38.2625 0.0000
# 6 0.0000 0.0000 0.0000 0.0000 0.0000 26.7734
#
#
#
# Elastic Compliance Matrix: (Units=1/GPa)
#
#
# Indices 1 2 3 4 5 6 
#
# 1 0.011002 -0.006432 -0.002898 0.000000 0.000000 0.000000
# 2 -0.006432 0.030460 -0.014764 0.000000 0.000000 0.000000
# 3 -0.002898 -0.014764 0.019276 0.000000 0.000000 0.000000
# 4 0.000000 0.000000 0.000000 -0.073690 0.000000 0.000000
# 5 0.000000 0.000000 0.000000 0.000000 0.026135 0.000000
# 6 0.000000 0.000000 0.000000 0.000000 0.000000 0.037351
#
#
# Mechanical properties :
#
#
# Convention : Reuss Voigt Hill
#
# Bulk Modulus (GPa) = 79.68032 87.18653 83.43342
# Shear Modulus (GPa) = 48.58890 19.39341 33.99115
#
# Velocity S-wave (km/s) = 5.12193 3.23588 4.28398
# Velocity P-wave (km/s) = 8.83176 7.81249 8.33771
#
# Compressibility (1/GPa) = 0.01255015
#
# Stress axis : x y z
#
# Youngs Moduli (GPa) = 90.89126 32.83029 51.87898
#
# Poissons Ratio (x) = 0.21117 0.15033
# Poissons Ratio (y) = 0.58463 0.76593
# Poissons Ratio (z) = 0.26337 0.48470
#
# Static dielectric constant tensor:
#      x y z
#    x 1.620570 0.000000 0.000000 
#    y 0.000000 1.608770 0.000000 
#    z 0.000000 0.000000 1.659070 
# 
# From -- ./inp_files/48758.got.cif
#   From: 2010.05.17/outbox.cif.g08.bks.cpg/sg65_25_cif.got.tgz:48758.got - 2010.06.03 17:01:31.
