data_PCOD9484504
_publ_section_title
;
Structure prediction by ZEFSAII (Michael W. Deem and Ramdas Pophale) SiO2 
 PCOD9484504
Probable space group: C M M M
;
_chemical_formula_sum "Si O2"
_cell_formula_units_Z 88
_cell_length_a 18.561931
_cell_length_b 30.092530
_cell_length_c 7.535556
_cell_angle_alpha 90.000000
_cell_angle_beta 90.000000
_cell_angle_gamma 90.000000
_cell_volume 4209.176700
_symmetry_space_group_name_H-M "C M M M"
_symmetry_group_IT_number 65
_symmetry_cell_setting 'orthorhombic'
loop_
_space_group_symop_operation_xyz
x,y,z
-x,-y,z
x,-y,-z
-x,y,-z
-x,-y,-z
x,y,-z
-x,y,z
x,-y,z
1/2+x,1/2+y,z
1/2-x,1/2-y,z
1/2+x,1/2-y,-z
1/2-x,1/2+y,-z
1/2-x,1/2-y,-z
1/2+x,1/2+y,-z
1/2-x,1/2+y,z
1/2+x,1/2-y,z
loop_
_atom_site_type_symbol
_atom_site_label
_atom_site_fract_x
_atom_site_fract_y
_atom_site_fract_z
Si Si1 0.343928 0.705562 0.713877
Si Si2 0.141951 0.399206 0.713059
Si Si3 0.208266 0.949097 0.213182
Si Si4 0.919532 0.114140 0.790376
Si Si5 0.500000 0.949231 0.717588
Si Si6 0.676346 0.802443 0.283469
O O1 0.345929 0.705189 0.500000
O O2 0.393267 0.665031 0.772977
O O3 0.359707 0.756062 0.773433
O O4 0.260777 0.697390 0.767187
O O5 0.136207 0.396795 0.500000
O O6 0.216268 0.424726 0.750017
O O7 0.143800 0.348620 0.779480
O O8 0.072445 0.425280 0.778651
O O9 0.142307 0.918708 0.282153
O O10 0.207567 0.000000 0.279360
O O11 0.201694 0.951088 0.000000
O O12 0.000000 0.108416 0.715804
O O13 0.923736 0.104821 0.000000
O O14 0.500000 0.948632 0.500000
O O15 0.500000 0.000000 0.773326
O O16 0.675090 0.802147 0.500000
#
# Coordination Sequence:
#
# PCOD9484504 Si02
#       6
#    16  16  16  16   8  16
#     4   9  16  31  52  76 102 129 166 208 253 303
#     4  10  18  33  55  77 103 134 170 209 252 305
#     4  10  21  36  54  76 100 130 172 217 261 311
#     4  10  21  36  52  73 104 138 173 215 261 308
#     4   9  18  30  47  75 105 131 163 205 250 295
#     4   8  15  28  51  78 102 128 161 205 250 295
#
# _framework density 20.906701000000002
#
# number of rings (size 3 to 8) (size 9 to 14) (size 15 to 20)
#    0.000    2.636    1.818    1.636    0.000    1.818 
#    1.636    5.000    0.000    1.636    0.000    2.545 
#    0.000    0.000    0.000    0.000    0.000    0.000 
#
# Total GULP energy -245544.272407 kJ/mol
# GULP energy per Si atom -5580.551646 kJ/mol
# Density = 2.085912 g / cm^3
# Si number density = 20.906701 Si / 1000 Ang^3
#
#
#
# Elastic Constant Matrix: (Units=GPa)
#
#
# Indices 1 2 3 4 5 6 
#
# 1 157.3215 109.8655 2.2387 0.0000 0.0000 0.0000
# 2 109.8655 216.5812 2.8771 0.0000 0.0000 0.0000
# 3 2.2387 2.8771 51.0686 0.0000 0.0000 0.0000
# 4 0.0000 0.0000 0.0000 15.8632 0.0000 0.0000
# 5 0.0000 0.0000 0.0000 0.0000 16.4504 0.0000
# 6 0.0000 0.0000 0.0000 0.0000 0.0000 23.7393
#
#
#
# Elastic Compliance Matrix: (Units=1/GPa)
#
#
# Indices 1 2 3 4 5 6 
#
# 1 0.009845 -0.004992 -0.000150 0.000000 0.000000 0.000000
# 2 -0.004992 0.007152 -0.000184 0.000000 0.000000 0.000000
# 3 -0.000150 -0.000184 0.019598 0.000000 0.000000 0.000000
# 4 0.000000 0.000000 0.000000 0.063039 0.000000 0.000000
# 5 0.000000 0.000000 0.000000 0.000000 0.060789 0.000000
# 6 0.000000 0.000000 0.000000 0.000000 0.000000 0.042124
#
#
# Mechanical properties :
#
#
# Convention : Reuss Voigt Hill
#
# Bulk Modulus (GPa) = 38.54696 72.77042 55.65869
# Shear Modulus (GPa) = 22.53806 31.87660 27.20733
#
# Velocity S-wave (km/s) = 3.28690 3.90899 3.61136
# Velocity P-wave (km/s) = 5.73433 7.43346 6.63848
#
# Compressibility (1/GPa) = 0.02594238
#
# Stress axis : x y z
#
# Youngs Moduli (GPa) = 101.57794 139.82272 51.02436
#
# Poissons Ratio (x) = 0.69798 0.00767
# Poissons Ratio (y) = 0.50707 0.00939
# Poissons Ratio (z) = 0.01527 0.02574
#
# Static dielectric constant tensor:
#      x y z
#    x 1.714410 0.000000 0.000000 
#    y 0.000000 1.749130 0.000000 
#    z 0.000000 0.000000 1.795930 
# 
# From -- ./inp_files/10125.got.cif
#   From: 2010.05.17/outbox.cif.g08.bks.cpg/sg65_6_cif.got.tgz:10125.got - 2010.06.03 17:01:31.
