data_PCOD9484142
_publ_section_title
;
Structure prediction by ZEFSAII (Michael W. Deem and Ramdas Pophale) SiO2 
 PCOD9484142
Probable space group: C M M M
;
_chemical_formula_sum "Si O2"
_cell_formula_units_Z 68
_cell_length_a 21.730176
_cell_length_b 8.479195
_cell_length_c 16.978710
_cell_angle_alpha 90.000000
_cell_angle_beta 90.000000
_cell_angle_gamma 90.000000
_cell_volume 3128.402019
_symmetry_space_group_name_H-M "C M M M"
_symmetry_group_IT_number 65
_symmetry_cell_setting 'orthorhombic'
loop_
_space_group_symop_operation_xyz
x,y,z
-x,-y,z
x,-y,-z
-x,y,-z
-x,-y,-z
x,y,-z
-x,y,z
x,-y,z
1/2+x,1/2+y,z
1/2-x,1/2-y,z
1/2+x,1/2-y,-z
1/2-x,1/2+y,-z
1/2-x,1/2-y,-z
1/2+x,1/2+y,-z
1/2-x,1/2+y,z
1/2+x,1/2-y,z
loop_
_atom_site_type_symbol
_atom_site_label
_atom_site_fract_x
_atom_site_fract_y
_atom_site_fract_z
Si Si1 0.870660 0.813652 0.500000
Si Si2 0.688046 0.684671 0.174236
Si Si3 0.000000 0.311318 0.338267
Si Si4 0.932066 0.684392 0.905130
Si Si5 0.358974 0.184833 0.333381
Si Si6 0.500000 0.743793 0.500000
O O1 0.842628 0.776016 0.414556
O O2 0.930159 0.695012 0.500000
O O3 0.888713 0.000000 0.500000
O O4 0.693807 0.500000 0.184017
O O5 0.750000 0.750000 0.134880
O O6 0.626196 0.724772 0.127207
O O7 0.680762 0.763665 0.259570
O O8 0.068929 0.289151 0.305972
O O9 0.000000 0.500000 0.363284
O O10 0.000000 0.186653 0.410874
O O11 0.926958 0.500000 0.881565
O O12 0.000000 0.740472 0.878267
O O13 0.931789 0.690070 0.000000
O O14 0.351749 0.000000 0.348707
#
# Coordination Sequence:
#
# PCOD9484142 Si02
#       6
#     8  16   8  16  16   4
#     4  10  18  31  51  80 116 158 206 262 319 374
#     4  12  26  43  63  91 128 171 215 264 317 375
#     4   8  15  27  49  78 108 147 193 243 302 367
#     4   9  20  42  72 103 134 168 206 251 307 373
#     4  10  20  36  57  84 118 162 211 262 317 378
#     4   8  14  24  42  70 109 146 185 244 305 358
#
# _framework density 21.736336999999999
#
# number of rings (size 3 to 8) (size 9 to 14) (size 15 to 20)
#    0.000    2.118    0.000    4.235    1.647    4.235 
#    0.000    2.941    0.000    0.000    0.000    0.000 
#    0.000    0.000    0.000    0.000    0.000    0.000 
#
# Total GULP energy -189286.013486 kJ/mol
# GULP energy per Si atom -5567.235691 kJ/mol
# Density = 2.168686 g / cm^3
# Si number density = 21.736337 Si / 1000 Ang^3
#
#
#
# Elastic Constant Matrix: (Units=GPa)
#
#
# Indices 1 2 3 4 5 6 
#
# 1 113.9247 36.3198 23.9396 0.0000 0.0000 0.0000
# 2 36.3198 80.6132 11.9503 0.0000 0.0000 0.0000
# 3 23.9396 11.9503 34.5853 0.0000 0.0000 0.0000
# 4 0.0000 0.0000 0.0000 27.0511 0.0000 0.0000
# 5 0.0000 0.0000 0.0000 0.0000 4.8968 0.0000
# 6 0.0000 0.0000 0.0000 0.0000 0.0000 27.0829
#
#
#
# Elastic Compliance Matrix: (Units=1/GPa)
#
#
# Indices 1 2 3 4 5 6 
#
# 1 0.011485 -0.004212 -0.006495 0.000000 0.000000 0.000000
# 2 -0.004212 0.014619 -0.002136 0.000000 0.000000 0.000000
# 3 -0.006495 -0.002136 0.034148 0.000000 0.000000 0.000000
# 4 0.000000 0.000000 0.000000 0.036967 0.000000 0.000000
# 5 0.000000 0.000000 0.000000 0.000000 0.204214 0.000000
# 6 0.000000 0.000000 0.000000 0.000000 0.000000 0.036924
#
#
# Mechanical properties :
#
#
# Convention : Reuss Voigt Hill
#
# Bulk Modulus (GPa) = 28.92926 41.50472 35.21699
# Shear Modulus (GPa) = 13.31332 22.26708 17.79020
#
# Velocity S-wave (km/s) = 2.47754 3.20412 2.86397
# Velocity P-wave (km/s) = 4.63922 5.72928 5.21282
#
# Compressibility (1/GPa) = 0.03456707
#
# Stress axis : x y z
#
# Youngs Moduli (GPa) = 87.06828 68.40332 29.28468
#
# Poissons Ratio (x) = 0.28810 0.19019
# Poissons Ratio (y) = 0.36672 0.06255
# Poissons Ratio (z) = 0.56548 0.14611
#
# Static dielectric constant tensor:
#      x y z
#    x 1.823190 0.000000 0.000000 
#    y 0.000000 1.887090 0.000000 
#    z 0.000000 0.000000 1.822120 
# 
# From -- ./inp_files/55422.got.cif
#   From: 2010.05.17/outbox.cif.g08.bks.cpg/sg65_28_cif.got.tgz:55422.got - 2010.06.03 17:01:31.
