data_PCOD9484181
_publ_section_title
;
Structure prediction by ZEFSAII (Michael W. Deem and Ramdas Pophale) SiO2 
 PCOD9484181
Probable space group: C M M M
;
_chemical_formula_sum "Si O2"
_cell_formula_units_Z 84
_cell_length_a 15.963718
_cell_length_b 15.168962
_cell_length_c 19.062815
_cell_angle_alpha 90.000000
_cell_angle_beta 90.000000
_cell_angle_gamma 90.000000
_cell_volume 4616.118445
_symmetry_space_group_name_H-M "C M M M"
_symmetry_group_IT_number 65
_symmetry_cell_setting 'orthorhombic'
loop_
_space_group_symop_operation_xyz
x,y,z
-x,-y,z
x,-y,-z
-x,y,-z
-x,-y,-z
x,y,-z
-x,y,z
x,-y,z
1/2+x,1/2+y,z
1/2-x,1/2-y,z
1/2+x,1/2-y,-z
1/2-x,1/2+y,-z
1/2-x,1/2-y,-z
1/2+x,1/2+y,-z
1/2-x,1/2+y,z
1/2+x,1/2-y,z
loop_
_atom_site_type_symbol
_atom_site_label
_atom_site_fract_x
_atom_site_fract_y
_atom_site_fract_z
Si Si1 0.406009 0.607295 0.918348
Si Si2 0.638554 0.842963 0.296123
Si Si3 0.000000 0.500000 0.291729
Si Si4 0.237630 0.894286 0.579797
Si Si5 0.594713 0.355746 0.319976
Si Si6 0.780934 0.101012 0.197830
O O1 0.500000 0.635492 0.895528
O O2 0.405539 0.500000 0.914442
O O3 0.330566 0.638211 0.869127
O O4 0.395611 0.630998 0.000000
O O5 0.696574 0.854449 0.365232
O O6 0.597288 0.747740 0.301607
O O7 0.701792 0.848412 0.229885
O O8 0.573130 0.922308 0.292738
O O9 0.251008 0.865161 0.500000
O O10 0.145675 0.871099 0.608472
O O11 0.247295 0.000000 0.582522
O O12 0.500000 0.387422 0.322592
O O13 0.649744 0.400760 0.259443
O O14 0.754484 0.000000 0.183425
#
# Coordination Sequence:
#
# PCOD9484181 Si02
#       6
#    16  16   4  16  16  16
#     4   8  14  25  44  74 110 143 173 206 246 301
#     4  11  21  37  56  75 102 131 176 224 259 301
#     4  12  20  40  61  76  97 130 180 224 260 292
#     4  10  21  38  56  75 104 137 166 205 261 316
#     4  11  22  33  52  78 104 136 171 213 254 305
#     4  10  18  31  52  78 107 138 168 207 260 310
#
# _framework density 18.197106000000002
#
# number of rings (size 3 to 8) (size 9 to 14) (size 15 to 20)
#    0.000    1.905    2.857    5.143    0.000    4.190 
#    0.000    1.905    0.000    2.286    0.000    1.333 
#    0.000    0.000    0.000    0.000    0.000    0.000 
#
# Total GULP energy -233810.570351 kJ/mol
# GULP energy per Si atom -5566.918342 kJ/mol
# Density = 1.815569 g / cm^3
# Si number density = 18.197106 Si / 1000 Ang^3
#
#
#
# Elastic Constant Matrix: (Units=GPa)
#
#
# Indices 1 2 3 4 5 6 
#
# 1 104.9686 -7.5938 30.7935 0.0000 0.0000 0.0000
# 2 -7.5938 53.8413 -6.0356 0.0000 0.0000 0.0000
# 3 30.7935 -6.0356 75.9926 0.0000 0.0000 0.0000
# 4 0.0000 0.0000 0.0000 -8.2210 0.0000 0.0000
# 5 0.0000 0.0000 0.0000 0.0000 0.1697 0.0000
# 6 0.0000 0.0000 0.0000 0.0000 0.0000 18.6959
#
#
#
# Elastic Compliance Matrix: (Units=1/GPa)
#
#
# Indices 1 2 3 4 5 6 
#
# 1 0.010870 0.001049 -0.004322 0.000000 0.000000 0.000000
# 2 0.001049 0.018841 0.001071 0.000000 0.000000 0.000000
# 3 -0.004322 0.001071 0.014995 0.000000 0.000000 0.000000
# 4 0.000000 0.000000 0.000000 -0.121640 0.000000 0.000000
# 5 0.000000 0.000000 0.000000 0.000000 5.892498 0.000000
# 6 0.000000 0.000000 0.000000 0.000000 0.000000 0.053488
#
#
# Mechanical properties :
#
#
# Convention : Reuss Voigt Hill
#
# Bulk Modulus (GPa) = 24.81136 29.90343 27.35740
# Shear Modulus (GPa) = 0.84934 16.63816 8.74375
#
# Velocity S-wave (km/s) = 0.68393 3.02707 2.19441
# Velocity P-wave (km/s) = 3.77996 5.35596 4.63543
#
# Compressibility (1/GPa) = 0.04030412
#
# Stress axis : x y z
#
# Youngs Moduli (GPa) = 91.99393 53.07543 66.68696
#
# Poissons Ratio (x) = -0.05566 0.28819
# Poissons Ratio (y) = -0.09647 -0.07145
# Poissons Ratio (z) = 0.39755 -0.05687
#
# Static dielectric constant tensor:
#      x y z
#    x 1.619130 0.000000 0.000000 
#    y 0.000000 1.645520 0.000000 
#    z 0.000000 0.000000 1.633860 
# 
# From -- ./inp_files/62451.got.cif
#   From: 2010.05.17/outbox.cif.g08.bks.cpg/sg65_32_cif.got.tgz:62451.got - 2010.06.03 17:01:31.
