data_PCOD9484897
_publ_section_title
;
Structure prediction by ZEFSAII (Michael W. Deem and Ramdas Pophale) SiO2 
 PCOD9484897
Probable space group: C M M M
;
_chemical_formula_sum "Si O2"
_cell_formula_units_Z 128
_cell_length_a 18.167183
_cell_length_b 26.753806
_cell_length_c 17.246839
_cell_angle_alpha 90.000000
_cell_angle_beta 90.000000
_cell_angle_gamma 90.000000
_cell_volume 8382.675868
_symmetry_space_group_name_H-M "C M M M"
_symmetry_group_IT_number 65
_symmetry_cell_setting 'orthorhombic'
loop_
_space_group_symop_operation_xyz
x,y,z
-x,-y,z
x,-y,-z
-x,y,-z
-x,-y,-z
x,y,-z
-x,y,z
x,-y,z
1/2+x,1/2+y,z
1/2-x,1/2-y,z
1/2+x,1/2-y,-z
1/2-x,1/2+y,-z
1/2-x,1/2-y,-z
1/2+x,1/2+y,-z
1/2-x,1/2+y,z
1/2+x,1/2-y,z
loop_
_atom_site_type_symbol
_atom_site_label
_atom_site_fract_x
_atom_site_fract_y
_atom_site_fract_z
Si Si1 0.583711 0.059889 0.088181
Si Si2 0.677400 0.874715 0.197221
Si Si3 0.671969 0.777569 0.088368
Si Si4 0.179971 0.129608 0.707716
Si Si5 0.414219 0.813814 0.678987
Si Si6 0.773868 0.307583 0.414504
Si Si7 0.585511 0.284054 0.786260
Si Si8 0.912158 0.059906 0.590772
O O1 0.500000 0.077257 0.104541
O O2 0.639689 0.081529 0.149523
O O3 0.583438 0.000000 0.089888
O O4 0.601892 0.075423 0.000000
O O5 0.683355 0.827920 0.137991
O O6 0.755683 0.889544 0.234562
O O7 0.621628 0.854688 0.263489
O O8 0.750000 0.750000 0.085670
O O9 0.618381 0.740966 0.136281
O O10 0.647182 0.787330 0.000000
O O11 0.226022 0.163400 0.647816
O O12 0.128310 0.167252 0.756381
O O13 0.134102 0.090328 0.655302
O O14 0.500000 0.823242 0.663452
O O15 0.359826 0.811868 0.606235
O O16 0.407749 0.760181 0.722216
O O17 0.759175 0.327350 0.500000
O O18 0.750000 0.250000 0.411216
O O19 0.500000 0.295581 0.796403
O O20 0.894047 0.072687 0.500000
O O21 0.000000 0.069599 0.600529
O O22 0.900928 0.000000 0.599156
#
# Coordination Sequence:
#
# PCOD9484897 Si02
#       8
#    16  16  16  16  16  16  16  16
#     4   9  18  33  51  71  97 125 156 200 247 287
#     4  10  19  29  50  72  97 127 162 198 237 288
#     4  10  19  32  48  67  95 131 166 196 233 276
#     4  11  19  31  50  72  97 127 156 198 245 294
#     4   9  18  30  45  64  91 126 160 195 233 273
#     4  10  19  30  45  64  93 126 158 195 233 279
#     4  10  19  31  46  67  94 124 160 201 240 281
#     4   9  19  36  55  74  97 125 161 206 251 296
#
# _framework density 15.269587
#
# number of rings (size 3 to 8) (size 9 to 14) (size 15 to 20)
#    0.000    2.250    2.500    2.250    0.000    1.500 
#    0.000    0.000    0.000    0.000    0.000    0.000 
#    0.000    0.000    0.000   31.500    0.000    0.000 
#
# Total GULP energy -356536.341420 kJ/mol
# GULP energy per Si atom -5570.880335 kJ/mol
# Density = 1.523483 g / cm^3
# Si number density = 15.269587 Si / 1000 Ang^3
#
#
#
# Elastic Constant Matrix: (Units=GPa)
#
#
# Indices 1 2 3 4 5 6 
#
# 1 107.7661 34.3640 49.3773 0.0000 0.0000 0.0000
# 2 34.3640 43.9121 29.3931 0.0000 0.0000 0.0000
# 3 49.3773 29.3931 92.1858 0.0000 0.0000 0.0000
# 4 0.0000 0.0000 0.0000 31.3359 0.0000 0.0000
# 5 0.0000 0.0000 0.0000 0.0000 26.1401 0.0000
# 6 0.0000 0.0000 0.0000 0.0000 0.0000 23.6949
#
#
#
# Elastic Compliance Matrix: (Units=1/GPa)
#
#
# Indices 1 2 3 4 5 6 
#
# 1 0.014029 -0.007563 -0.005103 0.000000 0.000000 0.000000
# 2 -0.007563 0.033029 -0.006480 0.000000 0.000000 0.000000
# 3 -0.005103 -0.006480 0.015647 0.000000 0.000000 0.000000
# 4 0.000000 0.000000 0.000000 0.031912 0.000000 0.000000
# 5 0.000000 0.000000 0.000000 0.000000 0.038255 0.000000
# 6 0.000000 0.000000 0.000000 0.000000 0.000000 0.042203
#
#
# Mechanical properties :
#
#
# Convention : Reuss Voigt Hill
#
# Bulk Modulus (GPa) = 40.96201 52.23699 46.59950
# Shear Modulus (GPa) = 22.57276 24.94948 23.76112
#
# Velocity S-wave (km/s) = 3.84901 4.04658 3.94903
# Velocity P-wave (km/s) = 6.82915 7.49114 7.16779
#
# Compressibility (1/GPa) = 0.02441287
#
# Stress axis : x y z
#
# Youngs Moduli (GPa) = 71.28026 30.27656 63.90937
#
# Poissons Ratio (x) = 0.22898 0.32613
# Poissons Ratio (y) = 0.53909 0.41415
# Poissons Ratio (z) = 0.36374 0.19620
#
# Static dielectric constant tensor:
#      x y z
#    x 1.502400 0.000000 0.000000 
#    y 0.000000 1.489950 0.000000 
#    z 0.000000 0.000000 1.510910 
# 
# From -- ./inp_files/55133.got.cif
#   From: 2010.05.17/outbox.cif.g08.bks.cpg/sg65_28_cif.got.tgz:55133.got - 2010.06.03 17:01:31.
