data_PCOD9484606
_publ_section_title
;
Structure prediction by ZEFSAII (Michael W. Deem and Ramdas Pophale) SiO2 
 PCOD9484606
Probable space group: C M M M
;
_chemical_formula_sum "Si O2"
_cell_formula_units_Z 72
_cell_length_a 19.242845
_cell_length_b 24.133938
_cell_length_c 7.892360
_cell_angle_alpha 90.000000
_cell_angle_beta 90.000000
_cell_angle_gamma 90.000000
_cell_volume 3665.256404
_symmetry_space_group_name_H-M "C M M M"
_symmetry_group_IT_number 65
_symmetry_cell_setting 'orthorhombic'
loop_
_space_group_symop_operation_xyz
x,y,z
-x,-y,z
x,-y,-z
-x,y,-z
-x,-y,-z
x,y,-z
-x,y,z
x,-y,z
1/2+x,1/2+y,z
1/2-x,1/2-y,z
1/2+x,1/2-y,-z
1/2-x,1/2+y,-z
1/2-x,1/2-y,-z
1/2+x,1/2+y,-z
1/2-x,1/2+y,z
1/2+x,1/2-y,z
loop_
_atom_site_type_symbol
_atom_site_label
_atom_site_fract_x
_atom_site_fract_y
_atom_site_fract_z
Si Si1 0.081924 0.935506 0.500000
Si Si2 0.668284 0.738182 0.702103
Si Si3 0.161102 0.884745 0.186363
Si Si4 0.692283 0.064783 0.705841
Si Si5 0.579865 0.154218 0.706628
O O1 0.114989 0.909735 0.333738
O O2 0.000000 0.927659 0.500000
O O3 0.099146 0.000000 0.500000
O O4 0.656036 0.729476 0.500000
O O5 0.750000 0.750000 0.722258
O O6 0.654446 0.681290 0.797479
O O7 0.621860 0.790404 0.757418
O O8 0.239974 0.904727 0.221094
O O9 0.140163 0.903511 0.000000
O O10 0.697806 0.067041 0.500000
O O11 0.624600 0.100302 0.756277
O O12 0.689642 0.000000 0.754382
O O13 0.578911 0.154608 0.500000
O O14 0.500000 0.153754 0.764584
#
# Coordination Sequence:
#
# PCOD9484606 Si02
#       5
#     8  16  16  16  16
#     4  11  26  48  69  92 129 167 203 260 324 378
#     4  10  18  35  61  88 123 169 210 262 321 375
#     4  12  24  40  67  97 126 162 211 263 316 383
#     4  10  19  35  60  88 124 166 208 259 314 370
#     4   9  18  32  55  89 126 167 213 260 313 374
#
# _framework density 19.643919
#
# number of rings (size 3 to 8) (size 9 to 14) (size 15 to 20)
#    0.000    1.667    4.444    0.667    0.000    4.000 
#    0.000    3.333    0.000    2.000    0.000    1.556 
#    0.000    0.000    0.000    0.000    0.000    0.000 
#
# Total GULP energy -201152.433943 kJ/mol
# GULP energy per Si atom -5587.567610 kJ/mol
# Density = 1.959921 g / cm^3
# Si number density = 19.643919 Si / 1000 Ang^3
#
#
#
# Elastic Constant Matrix: (Units=GPa)
#
#
# Indices 1 2 3 4 5 6 
#
# 1 193.3303 64.2932 49.4791 0.0000 0.0000 0.0000
# 2 64.2932 151.4389 35.8693 0.0000 0.0000 0.0000
# 3 49.4791 35.8693 87.4537 0.0000 0.0000 0.0000
# 4 0.0000 0.0000 0.0000 -2.7410 0.0000 0.0000
# 5 0.0000 0.0000 0.0000 0.0000 -13.0142 0.0000
# 6 0.0000 0.0000 0.0000 0.0000 0.0000 22.9586
#
#
#
# Elastic Compliance Matrix: (Units=1/GPa)
#
#
# Indices 1 2 3 4 5 6 
#
# 1 0.006615 -0.002129 -0.002869 0.000000 0.000000 0.000000
# 2 -0.002129 0.007999 -0.002076 0.000000 0.000000 0.000000
# 3 -0.002869 -0.002076 0.013910 0.000000 0.000000 0.000000
# 4 0.000000 0.000000 0.000000 -0.364830 0.000000 0.000000
# 5 0.000000 0.000000 0.000000 0.000000 -0.076839 0.000000
# 6 0.000000 0.000000 0.000000 0.000000 0.000000 0.043557
#
#
# Mechanical properties :
#
#
# Convention : Reuss Voigt Hill
#
# Bulk Modulus (GPa) = 69.56811 81.27846 75.42329
# Shear Modulus (GPa) = -14.25930 20.27942 3.01006
#
# Velocity S-wave (km/s) = -2.69716 3.21651 1.23921
# Velocity P-wave (km/s) = 5.07858 7.43373 6.36601
#
# Compressibility (1/GPa) = 0.01437440
#
# Stress axis : x y z
#
# Youngs Moduli (GPa) = 151.17709 125.01798 71.89229
#
# Poissons Ratio (x) = 0.26612 0.20629
# Poissons Ratio (y) = 0.32180 0.14928
# Poissons Ratio (z) = 0.43379 0.25959
#
# Static dielectric constant tensor:
#      x y z
#    x 1.654410 0.000000 0.000000 
#    y 0.000000 1.689350 0.000000 
#    z 0.000000 0.000000 1.809930 
# 
# From -- ./inp_files/9272.got.cif
#   From: 2010.05.17/outbox.cif.g08.bks.cpg/sg65_5_cif.got.tgz:9272.got - 2010.06.03 17:01:31.
