data_PCOD9484248
_publ_section_title
;
Structure prediction by ZEFSAII (Michael W. Deem and Ramdas Pophale) SiO2 
 PCOD9484248
Probable space group: C M M M
;
_chemical_formula_sum "Si O2"
_cell_formula_units_Z 104
_cell_length_a 8.660232
_cell_length_b 23.953803
_cell_length_c 29.209878
_cell_angle_alpha 90.000000
_cell_angle_beta 90.000000
_cell_angle_gamma 90.000000
_cell_volume 6059.457491
_symmetry_space_group_name_H-M "C M M M"
_symmetry_group_IT_number 65
_symmetry_cell_setting 'orthorhombic'
loop_
_space_group_symop_operation_xyz
x,y,z
-x,-y,z
x,-y,-z
-x,y,-z
-x,-y,-z
x,y,-z
-x,y,z
x,-y,z
1/2+x,1/2+y,z
1/2-x,1/2-y,z
1/2+x,1/2-y,-z
1/2-x,1/2+y,-z
1/2-x,1/2-y,-z
1/2+x,1/2+y,-z
1/2-x,1/2+y,z
1/2+x,1/2-y,z
loop_
_atom_site_type_symbol
_atom_site_label
_atom_site_fract_x
_atom_site_fract_y
_atom_site_fract_z
Si Si1 0.313441 0.186726 0.450752
Si Si2 0.185143 0.379930 0.738567
Si Si3 0.183375 0.187610 0.825346
Si Si4 0.178787 0.000000 0.751049
Si Si5 0.186599 0.312695 0.648950
Si Si6 0.688939 0.065481 0.000000
Si Si7 0.180914 0.386544 0.096526
Si Si8 0.325451 0.000000 0.845670
O O1 0.264704 0.161377 0.500000
O O2 0.500000 0.188418 0.450848
O O3 0.250000 0.250000 0.450742
O O4 0.266249 0.163201 0.401077
O O5 0.250769 0.350314 0.784005
O O6 0.240684 0.443365 0.735146
O O7 0.237099 0.347270 0.693055
O O8 0.000000 0.378154 0.741586
O O9 0.250000 0.250000 0.821889
O O10 0.231459 0.158972 0.873273
O O11 0.000000 0.189552 0.821425
O O12 0.201328 0.000000 0.805904
O O13 0.000000 0.000000 0.738743
O O14 0.250000 0.250000 0.652333
O O15 0.000000 0.310520 0.649852
O O16 0.737343 0.098336 0.954351
O O17 0.500000 0.064016 0.000000
O O18 0.737502 0.000000 0.000000
O O19 0.188178 0.445057 0.123829
O O20 0.000000 0.370326 0.093999
O O21 0.500000 0.000000 0.825192
#
# Coordination Sequence:
#
# PCOD9484248 Si02
#       8
#    16  16  16   8  16   8  16   8
#     4   8  13  23  40  64  95 129 165 205 249 297
#     4  11  22  37  55  76 105 138 173 213 261 310
#     4  12  25  40  57  78 105 139 180 217 258 310
#     4  12  24  36  53  79 106 134 173 215 259 306
#     4   9  18  30  47  72 102 137 172 208 252 305
#     4   9  16  30  56  89 114 137 170 208 253 310
#     4  10  19  34  58  86 113 140 172 210 256 308
#     4  10  18  31  56  82 110 140 168 204 255 307
#
# _framework density 17.163253000000001
#
# number of rings (size 3 to 8) (size 9 to 14) (size 15 to 20)
#    0.000    1.923    2.308    3.000    0.000    2.462 
#    0.000    0.769    0.000    0.462    0.000    0.538 
#    0.000    4.308    0.000    0.000    0.000    0.000 
#
# Total GULP energy -289935.600508 kJ/mol
# GULP energy per Si atom -5575.684625 kJ/mol
# Density = 1.712419 g / cm^3
# Si number density = 17.163253 Si / 1000 Ang^3
#
#
#
# Elastic Constant Matrix: (Units=GPa)
#
#
# Indices 1 2 3 4 5 6 
#
# 1 53.7156 30.7429 30.8310 0.0000 0.0000 0.0000
# 2 30.7429 100.4106 58.0925 0.0000 0.0000 0.0000
# 3 30.8310 58.0925 157.6684 0.0000 0.0000 0.0000
# 4 0.0000 0.0000 0.0000 12.2060 0.0000 0.0000
# 5 0.0000 0.0000 0.0000 0.0000 10.5095 0.0000
# 6 0.0000 0.0000 0.0000 0.0000 0.0000 16.3627
#
#
#
# Elastic Compliance Matrix: (Units=1/GPa)
#
#
# Indices 1 2 3 4 5 6 
#
# 1 0.023293 -0.005715 -0.002449 0.000000 0.000000 0.000000
# 2 -0.005715 0.014059 -0.004063 0.000000 0.000000 0.000000
# 3 -0.002449 -0.004063 0.008318 0.000000 0.000000 0.000000
# 4 0.000000 0.000000 0.000000 0.081927 0.000000 0.000000
# 5 0.000000 0.000000 0.000000 0.000000 0.095152 0.000000
# 6 0.000000 0.000000 0.000000 0.000000 0.000000 0.061115
#
#
# Mechanical properties :
#
#
# Convention : Reuss Voigt Hill
#
# Bulk Modulus (GPa) = 47.13110 61.23637 54.18373
# Shear Modulus (GPa) = 15.85341 20.62417 18.23879
#
# Velocity S-wave (km/s) = 3.04251 3.47024 3.26339
# Velocity P-wave (km/s) = 6.31368 7.19812 6.77036
#
# Compressibility (1/GPa) = 0.02121741
#
# Stress axis : x y z
#
# Youngs Moduli (GPa) = 42.93134 71.12779 120.21800
#
# Poissons Ratio (x) = 0.40647 0.29444
# Poissons Ratio (y) = 0.24534 0.48840
# Poissons Ratio (z) = 0.10515 0.28897
#
# Static dielectric constant tensor:
#      x y z
#    x 1.580420 0.000000 0.000000 
#    y 0.000000 1.551580 0.000000 
#    z 0.000000 0.000000 1.626340 
# 
# From -- ./inp_files/76957.got.cif
#   From: 2010.05.17/outbox.cif.g08.bks.cpg/sg65_39_cif.got.tgz:76957.got - 2010.06.03 17:01:31.
