data_PCOD9484918
_publ_section_title
;
Structure prediction by ZEFSAII (Michael W. Deem and Ramdas Pophale) SiO2 
 PCOD9484918
Probable space group: C M M M
;
_chemical_formula_sum "Si O2"
_cell_formula_units_Z 88
_cell_length_a 25.925366
_cell_length_b 9.004685
_cell_length_c 25.560880
_cell_angle_alpha 90.000000
_cell_angle_beta 90.000000
_cell_angle_gamma 90.000000
_cell_volume 5967.181157
_symmetry_space_group_name_H-M "C M M M"
_symmetry_group_IT_number 65
_symmetry_cell_setting 'orthorhombic'
loop_
_space_group_symop_operation_xyz
x,y,z
-x,-y,z
x,-y,-z
-x,y,-z
-x,-y,-z
x,y,-z
-x,y,z
x,-y,z
1/2+x,1/2+y,z
1/2-x,1/2-y,z
1/2+x,1/2-y,-z
1/2-x,1/2+y,-z
1/2-x,1/2-y,-z
1/2+x,1/2+y,-z
1/2-x,1/2+y,z
1/2+x,1/2-y,z
loop_
_atom_site_type_symbol
_atom_site_label
_atom_site_fract_x
_atom_site_fract_y
_atom_site_fract_z
Si Si1 0.937351 0.825986 0.557832
Si Si2 0.500000 0.180273 0.059732
Si Si3 0.805799 0.822705 0.061289
Si Si4 0.898479 0.321221 0.124782
Si Si5 0.562739 0.170205 0.336420
Si Si6 0.438481 0.676445 0.771510
O O1 0.920386 0.774082 0.500000
O O2 0.919011 0.736218 0.608270
O O3 0.000000 0.818054 0.557854
O O4 0.924279 0.000000 0.563193
O O5 0.551334 0.224571 0.090677
O O6 0.500000 0.000000 0.058446
O O7 0.500000 0.233911 0.000000
O O8 0.750000 0.750000 0.070792
O O9 0.848571 0.749162 0.097885
O O10 0.803500 0.000000 0.069026
O O11 0.818866 0.795017 0.000000
O O12 0.895155 0.500000 0.124788
O O13 0.908425 0.260953 0.182901
O O14 0.500000 0.172527 0.338115
O O15 0.577221 0.266556 0.285937
O O16 0.578854 0.000000 0.329874
O O17 0.500000 0.707892 0.777630
O O18 0.431405 0.500000 0.775721
#
# Coordination Sequence:
#
# PCOD9484918 Si02
#       6
#    16   8  16  16  16  16
#     4   8  13  21  32  46  66  94 130 172 217 260
#     4   9  18  30  45  67  93 119 144 173 216 267
#     4  10  21  37  55  74  94 117 147 183 223 268
#     4  11  20  32  50  70  94 120 149 184 223 269
#     4   9  16  24  35  51  72 100 137 178 219 260
#     4  10  19  30  43  59  84 115 148 183 221 265
#
# _framework density 14.747331000000001
#
# number of rings (size 3 to 8) (size 9 to 14) (size 15 to 20)
#    0.000    2.455    0.909    3.273    0.000    5.091 
#    0.000    1.818    0.000    2.182    0.000    0.000 
#    0.000    0.000    0.000    0.000    0.000    0.909 
#
# Total GULP energy -245235.574975 kJ/mol
# GULP energy per Si atom -5573.535795 kJ/mol
# Density = 1.471377 g / cm^3
# Si number density = 14.747331 Si / 1000 Ang^3
#
#
#
# Elastic Constant Matrix: (Units=GPa)
#
#
# Indices 1 2 3 4 5 6 
#
# 1 50.2042 34.4831 46.7036 0.0000 0.0000 0.0000
# 2 34.4831 74.6839 59.2275 0.0000 0.0000 0.0000
# 3 46.7036 59.2275 133.6729 0.0000 0.0000 0.0000
# 4 0.0000 0.0000 0.0000 28.4079 0.0000 0.0000
# 5 0.0000 0.0000 0.0000 0.0000 8.6552 0.0000
# 6 0.0000 0.0000 0.0000 0.0000 0.0000 16.3185
#
#
#
# Elastic Compliance Matrix: (Units=1/GPa)
#
#
# Indices 1 2 3 4 5 6 
#
# 1 0.033377 -0.009501 -0.007452 0.000000 0.000000 0.000000
# 2 -0.009501 0.023348 -0.007025 0.000000 0.000000 0.000000
# 3 -0.007452 -0.007025 0.013197 0.000000 0.000000 0.000000
# 4 0.000000 0.000000 0.000000 0.035201 0.000000 0.000000
# 5 0.000000 0.000000 0.000000 0.000000 0.115537 0.000000
# 6 0.000000 0.000000 0.000000 0.000000 0.000000 0.061280
#
#
# Mechanical properties :
#
#
# Convention : Reuss Voigt Hill
#
# Bulk Modulus (GPa) = 45.52591 59.93218 52.72904
# Shear Modulus (GPa) = 14.82713 18.55277 16.68995
#
# Velocity S-wave (km/s) = 3.17426 3.55074 3.36776
# Velocity P-wave (km/s) = 6.66125 7.58537 7.13828
#
# Compressibility (1/GPa) = 0.02196551
#
# Stress axis : x y z
#
# Youngs Moduli (GPa) = 29.96100 42.82991 75.77338
#
# Poissons Ratio (x) = 0.40694 0.56463
# Poissons Ratio (y) = 0.28467 0.53234
# Poissons Ratio (z) = 0.22326 0.30090
#
# Static dielectric constant tensor:
#      x y z
#    x 1.452720 0.000000 0.000000 
#    y 0.000000 1.489880 0.000000 
#    z 0.000000 0.000000 1.497780 
# 
# From -- ./inp_files/70951.got.cif
#   From: 2010.05.17/outbox.cif.g08.bks.cpg/sg65_36_cif.got.tgz:70951.got - 2010.06.03 17:01:31.
