data_PCOD9484694
_publ_section_title
;
Structure prediction by ZEFSAII (Michael W. Deem and Ramdas Pophale) SiO2 
 PCOD9484694
Probable space group: C M M M
;
_chemical_formula_sum "Si O2"
_cell_formula_units_Z 80
_cell_length_a 26.117743
_cell_length_b 8.830789
_cell_length_c 23.078673
_cell_angle_alpha 90.000000
_cell_angle_beta 90.000000
_cell_angle_gamma 90.000000
_cell_volume 5322.871547
_symmetry_space_group_name_H-M "C M M M"
_symmetry_group_IT_number 65
_symmetry_cell_setting 'orthorhombic'
loop_
_space_group_symop_operation_xyz
x,y,z
-x,-y,z
x,-y,-z
-x,y,-z
-x,-y,-z
x,y,-z
-x,y,z
x,-y,z
1/2+x,1/2+y,z
1/2-x,1/2-y,z
1/2+x,1/2-y,-z
1/2-x,1/2+y,-z
1/2-x,1/2-y,-z
1/2+x,1/2+y,-z
1/2-x,1/2+y,z
1/2+x,1/2-y,z
loop_
_atom_site_type_symbol
_atom_site_label
_atom_site_fract_x
_atom_site_fract_y
_atom_site_fract_z
Si Si1 0.060444 0.819958 0.753385
Si Si2 0.937695 0.323619 0.125859
Si Si3 0.600796 0.818269 0.362260
Si Si4 0.194272 0.181194 0.567469
Si Si5 0.500000 0.815815 0.433534
Si Si6 0.940614 0.315132 0.000000
O O1 0.077248 0.769682 0.817619
O O2 0.091412 0.738085 0.702846
O O3 0.000000 0.778169 0.747330
O O4 0.064521 0.000000 0.747219
O O5 0.923708 0.500000 0.133603
O O6 0.000000 0.318701 0.122874
O O7 0.918566 0.269528 0.062555
O O8 0.650956 0.749344 0.391542
O O9 0.550972 0.768652 0.399514
O O10 0.603403 0.000000 0.363627
O O11 0.182383 0.218692 0.500000
O O12 0.250000 0.250000 0.580366
O O13 0.195996 0.000000 0.572835
O O14 0.500000 0.763526 0.500000
O O15 0.500000 0.000000 0.434202
O O16 0.940887 0.500000 0.000000
O O17 0.000000 0.265687 0.000000
#
# Coordination Sequence:
#
# PCOD9484694 Si02
#       6
#    16  16  16  16   8   8
#     4  10  19  29  40  58  88 121 153 188 227 271
#     4   8  13  22  37  54  75 106 147 187 224 264
#     4  11  20  32  50  69  92 121 154 190 229 273
#     4  10  21  37  55  74  94 117 147 185 230 278
#     4   9  18  30  45  67  91 114 145 184 225 269
#     4   7  10  18  33  53  73  99 140 189 226 257
#
# _framework density 15.029481000000001
#
# number of rings (size 3 to 8) (size 9 to 14) (size 15 to 20)
#    0.000    2.600    1.000    3.600    0.000    2.800 
#    0.000    0.500    0.000    5.400    0.000    0.000 
#    0.000    0.000    0.000    0.900    0.000   11.500 
#
# Total GULP energy -222860.763262 kJ/mol
# GULP energy per Si atom -5571.519082 kJ/mol
# Density = 1.499527 g / cm^3
# Si number density = 15.029481 Si / 1000 Ang^3
#
#
#
# Elastic Constant Matrix: (Units=GPa)
#
#
# Indices 1 2 3 4 5 6 
#
# 1 65.5391 31.3612 59.0131 0.0000 0.0000 0.0000
# 2 31.3612 43.2054 43.4932 0.0000 0.0000 0.0000
# 3 59.0131 43.4932 144.0539 0.0000 0.0000 0.0000
# 4 0.0000 0.0000 0.0000 18.6007 0.0000 0.0000
# 5 0.0000 0.0000 0.0000 0.0000 10.5080 0.0000
# 6 0.0000 0.0000 0.0000 0.0000 0.0000 17.4989
#
#
#
# Elastic Compliance Matrix: (Units=1/GPa)
#
#
# Indices 1 2 3 4 5 6 
#
# 1 0.028357 -0.012771 -0.007761 0.000000 0.000000 0.000000
# 2 -0.012771 0.039003 -0.006544 0.000000 0.000000 0.000000
# 3 -0.007761 -0.006544 0.012097 0.000000 0.000000 0.000000
# 4 0.000000 0.000000 0.000000 0.053762 0.000000 0.000000
# 5 0.000000 0.000000 0.000000 0.000000 0.095166 0.000000
# 6 0.000000 0.000000 0.000000 0.000000 0.000000 0.057146
#
#
# Mechanical properties :
#
#
# Convention : Reuss Voigt Hill
#
# Bulk Modulus (GPa) = 39.51756 57.83707 48.67731
# Shear Modulus (GPa) = 14.36295 17.25023 15.80659
#
# Velocity S-wave (km/s) = 3.09472 3.39154 3.24652
# Velocity P-wave (km/s) = 6.25461 7.34184 6.81993
#
# Compressibility (1/GPa) = 0.02530521
#
# Stress axis : x y z
#
# Youngs Moduli (GPa) = 35.26429 25.63914 82.66446
#
# Poissons Ratio (x) = 0.32743 0.64156
# Poissons Ratio (y) = 0.45035 0.54097
# Poissons Ratio (z) = 0.27369 0.16779
#
# Static dielectric constant tensor:
#      x y z
#    x 1.464080 0.000000 0.000000 
#    y 0.000000 1.498030 0.000000 
#    z 0.000000 0.000000 1.525160 
# 
# From -- ./inp_files/65679.got.cif
#   From: 2010.05.17/outbox.cif.g08.bks.cpg/sg65_33_cif.got.tgz:65679.got - 2010.06.03 17:01:31.
