data_PCOD9484218
_publ_section_title
;
Structure prediction by ZEFSAII (Michael W. Deem and Ramdas Pophale) SiO2 
 PCOD9484218
Probable space group: C M M M
;
_chemical_formula_sum "Si O2"
_cell_formula_units_Z 96
_cell_length_a 29.493912
_cell_length_b 7.586357
_cell_length_c 21.445073
_cell_angle_alpha 90.000000
_cell_angle_beta 90.000000
_cell_angle_gamma 90.000000
_cell_volume 4798.363944
_symmetry_space_group_name_H-M "C M M M"
_symmetry_group_IT_number 65
_symmetry_cell_setting 'orthorhombic'
loop_
_space_group_symop_operation_xyz
x,y,z
-x,-y,z
x,-y,-z
-x,y,-z
-x,-y,-z
x,y,-z
-x,y,z
x,-y,z
1/2+x,1/2+y,z
1/2-x,1/2-y,z
1/2+x,1/2-y,-z
1/2-x,1/2+y,-z
1/2-x,1/2-y,-z
1/2+x,1/2+y,-z
1/2-x,1/2+y,z
1/2+x,1/2-y,z
loop_
_atom_site_type_symbol
_atom_site_label
_atom_site_fract_x
_atom_site_fract_y
_atom_site_fract_z
Si Si1 0.050303 0.286889 0.608352
Si Si2 0.859300 0.706787 0.814501
Si Si3 0.449877 0.784827 0.753748
Si Si4 0.697575 0.212080 0.070201
Si Si5 0.149105 0.792921 0.432812
Si Si6 0.803202 0.210240 0.307817
O O1 0.050839 0.500000 0.605440
O O2 0.055193 0.234408 0.681110
O O3 0.094838 0.222483 0.573730
O O4 0.000000 0.229894 0.586891
O O5 0.866790 0.500000 0.827254
O O6 0.907853 0.781631 0.793913
O O7 0.834820 0.782203 0.875440
O O8 0.826691 0.718817 0.754516
O O9 0.500000 0.730567 0.774900
O O10 0.448870 0.000000 0.753923
O O11 0.750000 0.250000 0.085328
O O12 0.693234 0.000000 0.068665
O O13 0.688451 0.278318 0.000000
O O14 0.162960 0.716663 0.500000
O O15 0.172489 0.719007 0.370534
O O16 0.160636 0.000000 0.433792
O O17 0.750000 0.250000 0.309119
O O18 0.809562 0.000000 0.305864
#
# Coordination Sequence:
#
# PCOD9484218 Si02
#       6
#    16  16  16  16  16  16
#     4   9  17  31  52  76 100 126 161 203 243 291
#     4  10  18  31  54  77 100 131 165 202 243 287
#     4   8  14  26  47  74 100 126 158 196 239 286
#     4   9  18  31  47  71 102 134 166 200 240 288
#     4  10  22  38  52  69  97 131 163 200 250 301
#     4  11  23  37  53  73  97 124 161 208 249 294
#
# _framework density 20.006820999999999
#
# number of rings (size 3 to 8) (size 9 to 14) (size 15 to 20)
#    0.000    2.500    1.667    2.000    0.000    4.000 
#    0.000    1.667    0.000    1.000    0.000    3.500 
#    0.000    0.000    0.000    5.667    0.000    6.000 
#
# Total GULP energy -267868.403967 kJ/mol
# GULP energy per Si atom -5580.591749 kJ/mol
# Density = 1.996128 g / cm^3
# Si number density = 20.006821 Si / 1000 Ang^3
#
#
#
# Elastic Constant Matrix: (Units=GPa)
#
#
# Indices 1 2 3 4 5 6 
#
# 1 123.2377 -13.7521 71.4796 0.0000 0.0000 0.0000
# 2 -13.7521 44.3044 -3.6875 0.0000 0.0000 0.0000
# 3 71.4796 -3.6875 121.9083 0.0000 0.0000 0.0000
# 4 0.0000 0.0000 0.0000 9.5810 0.0000 0.0000
# 5 0.0000 0.0000 0.0000 0.0000 8.0736 0.0000
# 6 0.0000 0.0000 0.0000 0.0000 0.0000 14.4726
#
#
#
# Elastic Compliance Matrix: (Units=1/GPa)
#
#
# Indices 1 2 3 4 5 6 
#
# 1 0.012774 0.003350 -0.007388 0.000000 0.000000 0.000000
# 2 0.003350 0.023507 -0.001253 0.000000 0.000000 0.000000
# 3 -0.007388 -0.001253 0.012497 0.000000 0.000000 0.000000
# 4 0.000000 0.000000 0.000000 0.104373 0.000000 0.000000
# 5 0.000000 0.000000 0.000000 0.000000 0.123860 0.000000
# 6 0.000000 0.000000 0.000000 0.000000 0.000000 0.069096
#
#
# Mechanical properties :
#
#
# Convention : Reuss Voigt Hill
#
# Bulk Modulus (GPa) = 26.18201 44.17006 35.17604
# Shear Modulus (GPa) = 13.53469 22.11947 17.82708
#
# Velocity S-wave (km/s) = 2.60379 3.32866 2.98828
# Velocity P-wave (km/s) = 4.70687 6.07443 5.43384
#
# Compressibility (1/GPa) = 0.03819416
#
# Stress axis : x y z
#
# Youngs Moduli (GPa) = 78.28689 42.54119 80.01904
#
# Poissons Ratio (x) = -0.14251 0.59120
# Poissons Ratio (y) = -0.26226 0.10028
# Poissons Ratio (z) = 0.57841 0.05331
#
# Static dielectric constant tensor:
#      x y z
#    x 1.699080 0.000000 0.000000 
#    y 0.000000 1.772950 0.000000 
#    z 0.000000 0.000000 1.717160 
# 
# From -- ./inp_files/60155.got.cif
#   From: 2010.05.17/outbox.cif.g08.bks.cpg/sg65_31_cif.got.tgz:60155.got - 2010.06.03 17:01:31.
