data_PCOD9484352
_publ_section_title
;
Structure prediction by ZEFSAII (Michael W. Deem and Ramdas Pophale) SiO2 
 PCOD9484352
Probable space group: C M M M
;
_chemical_formula_sum "Si O2"
_cell_formula_units_Z 64
_cell_length_a 16.127744
_cell_length_b 8.686654
_cell_length_c 22.861950
_cell_angle_alpha 90.000000
_cell_angle_beta 90.000000
_cell_angle_gamma 90.000000
_cell_volume 3202.870763
_symmetry_space_group_name_H-M "C M M M"
_symmetry_group_IT_number 65
_symmetry_cell_setting 'orthorhombic'
loop_
_space_group_symop_operation_xyz
x,y,z
-x,-y,z
x,-y,-z
-x,y,-z
-x,-y,-z
x,y,-z
-x,y,z
x,-y,z
1/2+x,1/2+y,z
1/2-x,1/2-y,z
1/2+x,1/2-y,-z
1/2-x,1/2+y,-z
1/2-x,1/2-y,-z
1/2+x,1/2+y,-z
1/2-x,1/2+y,z
1/2+x,1/2-y,z
loop_
_atom_site_type_symbol
_atom_site_label
_atom_site_fract_x
_atom_site_fract_y
_atom_site_fract_z
Si Si1 0.403279 0.321084 0.762778
Si Si2 0.344285 0.316642 0.000000
Si Si3 0.000000 0.812188 0.432587
Si Si4 0.162421 0.186123 0.361000
Si Si5 0.657248 0.818024 0.119314
O O1 0.500000 0.318082 0.746188
O O2 0.380990 0.500000 0.774855
O O3 0.352608 0.265723 0.706448
O O4 0.388797 0.225924 0.821290
O O5 0.250000 0.250000 0.000000
O O6 0.381557 0.255890 0.060730
O O7 0.341725 0.500000 0.000000
O O8 0.083445 0.763202 0.399138
O O9 0.000000 0.763335 0.500000
O O10 0.000000 0.000000 0.431539
O O11 0.250000 0.250000 0.382194
O O12 0.163907 0.000000 0.361522
O O13 0.750000 0.750000 0.125411
O O14 0.662056 0.000000 0.111459
#
# Coordination Sequence:
#
# PCOD9484352 Si02
#       5
#    16   8   8  16  16
#     4  10  20  36  56  78 109 147 189 237 293 352
#     4  10  18  32  53  76 105 142 185 233 287 346
#     4   9  18  36  61  87 119 160 201 238 285 349
#     4  10  20  36  59  87 117 155 198 244 292 348
#     4  11  21  34  53  79 109 142 185 235 289 348
#
# _framework density 19.982073
#
# number of rings (size 3 to 8) (size 9 to 14) (size 15 to 20)
#    0.000    1.875    1.250    5.625    0.000    4.000 
#    0.000    1.250    0.000    4.500    0.000    0.000 
#    0.000    0.000    0.000    0.000    0.000    0.000 
#
# Total GULP energy -178730.780953 kJ/mol
# GULP energy per Si atom -5585.336905 kJ/mol
# Density = 1.993659 g / cm^3
# Si number density = 19.982073 Si / 1000 Ang^3
#
#
#
# Elastic Constant Matrix: (Units=GPa)
#
#
# Indices 1 2 3 4 5 6 
#
# 1 102.4127 18.5452 57.1815 0.0000 0.0000 0.0000
# 2 18.5452 89.0369 39.5929 0.0000 0.0000 0.0000
# 3 57.1815 39.5929 141.2663 0.0000 0.0000 0.0000
# 4 0.0000 0.0000 0.0000 4.2497 0.0000 0.0000
# 5 0.0000 0.0000 0.0000 0.0000 30.9296 0.0000
# 6 0.0000 0.0000 0.0000 0.0000 0.0000 24.1265
#
#
#
# Elastic Compliance Matrix: (Units=1/GPa)
#
#
# Indices 1 2 3 4 5 6 
#
# 1 0.012629 -0.000408 -0.004997 0.000000 0.000000 0.000000
# 2 -0.000408 0.012844 -0.003434 0.000000 0.000000 0.000000
# 3 -0.004997 -0.003434 0.010064 0.000000 0.000000 0.000000
# 4 0.000000 0.000000 0.000000 0.235313 0.000000 0.000000
# 5 0.000000 0.000000 0.000000 0.000000 0.032332 0.000000
# 6 0.000000 0.000000 0.000000 0.000000 0.000000 0.041448
#
#
# Mechanical properties :
#
#
# Convention : Reuss Voigt Hill
#
# Bulk Modulus (GPa) = 56.00234 62.59500 59.29867
# Shear Modulus (GPa) = 13.57731 26.35423 19.96577
#
# Velocity S-wave (km/s) = 2.60950 3.63560 3.16442
# Velocity P-wave (km/s) = 6.09643 7.00121 6.56443
#
# Compressibility (1/GPa) = 0.01785640
#
# Stress axis : x y z
#
# Youngs Moduli (GPa) = 79.18550 77.86007 99.36164
#
# Poissons Ratio (x) = 0.03178 0.49655
# Poissons Ratio (y) = 0.03232 0.34126
# Poissons Ratio (z) = 0.39572 0.26741
#
# Static dielectric constant tensor:
#      x y z
#    x 1.715710 0.000000 0.000000 
#    y 0.000000 1.678930 0.000000 
#    z 0.000000 0.000000 1.722190 
# 
# From -- ./inp_files/58862.got.cif
#   From: 2010.05.17/outbox.cif.g08.bks.cpg/sg65_30_cif.got.tgz:58862.got - 2010.06.03 17:01:31.
