data_PCOD9484089
_publ_section_title
;
Structure prediction by ZEFSAII (Michael W. Deem and Ramdas Pophale) SiO2 
 PCOD9484089
Probable space group: C M M M
;
_chemical_formula_sum "Si O2"
_cell_formula_units_Z 88
_cell_length_a 25.716397
_cell_length_b 17.857158
_cell_length_c 10.630063
_cell_angle_alpha 90.000000
_cell_angle_beta 90.000000
_cell_angle_gamma 90.000000
_cell_volume 4881.556287
_symmetry_space_group_name_H-M "C M M M"
_symmetry_group_IT_number 65
_symmetry_cell_setting 'orthorhombic'
loop_
_space_group_symop_operation_xyz
x,y,z
-x,-y,z
x,-y,-z
-x,y,-z
-x,-y,-z
x,y,-z
-x,y,z
x,-y,z
1/2+x,1/2+y,z
1/2-x,1/2-y,z
1/2+x,1/2-y,-z
1/2-x,1/2+y,-z
1/2-x,1/2-y,-z
1/2+x,1/2+y,-z
1/2-x,1/2+y,z
1/2+x,1/2-y,z
loop_
_atom_site_type_symbol
_atom_site_label
_atom_site_fract_x
_atom_site_fract_y
_atom_site_fract_z
Si Si1 0.941783 0.838243 0.647883
Si Si2 0.348530 0.083551 0.853076
Si Si3 0.742149 0.339159 0.850358
Si Si4 0.562574 0.915642 0.500000
Si Si5 0.939184 0.325459 0.248938
Si Si6 0.332989 0.588381 0.353426
O O1 0.941472 0.815631 0.500000
O O2 0.933821 0.762912 0.728361
O O3 0.894227 0.894274 0.665129
O O4 0.000000 0.867910 0.673981
O O5 0.295661 0.121291 0.805332
O O6 0.397814 0.137946 0.842619
O O7 0.358279 0.000000 0.799812
O O8 0.338724 0.074973 0.000000
O O9 0.750000 0.250000 0.843133
O O10 0.698375 0.367052 0.753405
O O11 0.731679 0.356552 0.000000
O O12 0.500000 0.921405 0.500000
O O13 0.575328 0.868070 0.622155
O O14 0.583743 0.000000 0.500000
O O15 0.000000 0.340687 0.219294
O O16 0.320614 0.609600 0.500000
O O17 0.322942 0.500000 0.340370
#
# Coordination Sequence:
#
# PCOD9484089 Si02
#       6
#    16  16  16   8  16  16
#     4   9  17  32  54  79 108 142 177 215 266 324
#     4  10  21  35  50  71 101 137 177 218 262 318
#     4  10  21  39  61  81 105 143 187 227 275 336
#     4   9  16  26  42  66  94 125 163 207 255 309
#     4  10  18  31  50  72 101 136 174 217 262 314
#     4  10  21  36  56  85 116 143 180 229 274 323
#
# _framework density 18.027037
#
# number of rings (size 3 to 8) (size 9 to 14) (size 15 to 20)
#    0.000    2.273    0.909    2.182    0.000    3.273 
#    1.636    2.727    0.000    1.636    0.000    1.273 
#    0.000    0.000    0.000    0.000    0.000    0.000 
#
# Total GULP energy -245040.973181 kJ/mol
# GULP energy per Si atom -5569.113027 kJ/mol
# Density = 1.798601 g / cm^3
# Si number density = 18.027037 Si / 1000 Ang^3
#
#
#
# Elastic Constant Matrix: (Units=GPa)
#
#
# Indices 1 2 3 4 5 6 
#
# 1 95.6487 30.1961 41.7833 0.0000 0.0000 0.0000
# 2 30.1961 49.7838 34.8908 0.0000 0.0000 0.0000
# 3 41.7833 34.8908 62.4310 0.0000 0.0000 0.0000
# 4 0.0000 0.0000 0.0000 16.4306 0.0000 0.0000
# 5 0.0000 0.0000 0.0000 0.0000 25.1432 0.0000
# 6 0.0000 0.0000 0.0000 0.0000 0.0000 26.6948
#
#
#
# Elastic Compliance Matrix: (Units=1/GPa)
#
#
# Indices 1 2 3 4 5 6 
#
# 1 0.015120 -0.003417 -0.008210 0.000000 0.000000 0.000000
# 2 -0.003417 0.033793 -0.016599 0.000000 0.000000 0.000000
# 3 -0.008210 -0.016599 0.030789 0.000000 0.000000 0.000000
# 4 0.000000 0.000000 0.000000 0.060862 0.000000 0.000000
# 5 0.000000 0.000000 0.000000 0.000000 0.039772 0.000000
# 6 0.000000 0.000000 0.000000 0.000000 0.000000 0.037461
#
#
# Mechanical properties :
#
#
# Convention : Reuss Voigt Hill
#
# Bulk Modulus (GPa) = 43.01019 46.84488 44.92753
# Shear Modulus (GPa) = 17.73066 20.38658 19.05862
#
# Velocity S-wave (km/s) = 3.13958 3.36652 3.25503
# Velocity P-wave (km/s) = 6.08713 6.41511 6.25327
#
# Compressibility (1/GPa) = 0.02325031
#
# Stress axis : x y z
#
# Youngs Moduli (GPa) = 66.13732 29.59220 32.47953
#
# Poissons Ratio (x) = 0.10113 0.26664
# Poissons Ratio (y) = 0.22601 0.53912
# Poissons Ratio (z) = 0.54296 0.49119
#
# Static dielectric constant tensor:
#      x y z
#    x 1.610300 0.000000 0.000000 
#    y 0.000000 1.625210 0.000000 
#    z 0.000000 0.000000 1.678900 
# 
# From -- ./inp_files/28716.got.cif
#   From: 2010.05.17/outbox.cif.g08.bks.cpg/sg65_15_cif.got.tgz:28716.got - 2010.06.03 17:01:31.
