data_PCOD9484244
_publ_section_title
;
Structure prediction by ZEFSAII (Michael W. Deem and Ramdas Pophale) SiO2 
 PCOD9484244
Probable space group: C M M M
;
_chemical_formula_sum "Si O2"
_cell_formula_units_Z 104
_cell_length_a 7.902980
_cell_length_b 26.790259
_cell_length_c 24.287479
_cell_angle_alpha 90.000000
_cell_angle_beta 90.000000
_cell_angle_gamma 90.000000
_cell_volume 5142.215028
_symmetry_space_group_name_H-M "C M M M"
_symmetry_group_IT_number 65
_symmetry_cell_setting 'orthorhombic'
loop_
_space_group_symop_operation_xyz
x,y,z
-x,-y,z
x,-y,-z
-x,y,-z
-x,-y,-z
x,y,-z
-x,y,z
x,-y,z
1/2+x,1/2+y,z
1/2-x,1/2-y,z
1/2+x,1/2-y,-z
1/2-x,1/2+y,-z
1/2-x,1/2-y,-z
1/2+x,1/2+y,-z
1/2-x,1/2+y,z
1/2+x,1/2-y,z
loop_
_atom_site_type_symbol
_atom_site_label
_atom_site_fract_x
_atom_site_fract_y
_atom_site_fract_z
Si Si1 0.296818 0.691450 0.120151
Si Si2 0.202609 0.192178 0.000000
Si Si3 0.198358 0.440712 0.500000
Si Si4 0.201722 0.193038 0.437092
Si Si5 0.200255 0.583882 0.847097
Si Si6 0.803797 0.598527 0.615161
Si Si7 0.697353 0.058362 0.727536
Si Si8 0.800118 0.000000 0.064000
O O1 0.500000 0.690963 0.120272
O O2 0.250000 0.750000 0.131491
O O3 0.234967 0.643525 0.153543
O O4 0.232263 0.675647 0.058900
O O5 0.250000 0.250000 0.000000
O O6 0.000000 0.185204 0.000000
O O7 0.200682 0.500000 0.500000
O O8 0.273693 0.422963 0.558352
O O9 0.000000 0.423944 0.500000
O O10 0.253651 0.180099 0.500000
O O11 0.250000 0.250000 0.428421
O O12 0.293072 0.157265 0.394601
O O13 0.000000 0.187073 0.433131
O O14 0.272116 0.565509 0.788313
O O15 0.259725 0.549477 0.898719
O O16 0.000000 0.575607 0.847285
O O17 0.725773 0.584275 0.673683
O O18 0.000000 0.580981 0.616534
O O19 0.500000 0.075551 0.731481
O O20 0.696730 0.000000 0.715282
O O21 0.000000 0.000000 0.057889
O O22 0.730260 0.000000 0.000000
#
# Coordination Sequence:
#
# PCOD9484244 Si02
#       8
#    16   8   8  16  16  16  16   8
#     4  10  20  36  57  85 118 154 193 237 290 348
#     4   8  16  30  50  75 108 143 178 220 272 332
#     4   9  16  26  46  81 112 135 174 223 264 313
#     4  10  20  34  53  77 110 147 185 232 287 342
#     4  11  22  39  62  88 119 157 200 245 297 356
#     4  10  18  31  55  83 110 143 184 228 276 328
#     4   9  18  35  58  83 113 150 192 236 281 337
#     4  11  25  43  63  89 121 156 199 254 308 356
#
# _framework density 20.224747000000001
#
# number of rings (size 3 to 8) (size 9 to 14) (size 15 to 20)
#    0.000    2.154    1.538    2.077    1.077    3.692 
#    0.000    2.308    0.000    1.846    0.000    0.000 
#    0.000    0.000    0.000    0.000    0.000    0.000 
#
# Total GULP energy -289469.535835 kJ/mol
# GULP energy per Si atom -5566.721843 kJ/mol
# Density = 2.017871 g / cm^3
# Si number density = 20.224747 Si / 1000 Ang^3
#
#
#
# Elastic Constant Matrix: (Units=GPa)
#
#
# Indices 1 2 3 4 5 6 
#
# 1 36.7977 4.2756 16.7108 0.0000 0.0000 0.0000
# 2 4.2756 90.8053 63.0950 0.0000 0.0000 0.0000
# 3 16.7108 63.0950 154.5812 0.0000 0.0000 0.0000
# 4 0.0000 0.0000 0.0000 35.4924 0.0000 0.0000
# 5 0.0000 0.0000 0.0000 0.0000 -1.8074 0.0000
# 6 0.0000 0.0000 0.0000 0.0000 0.0000 24.6552
#
#
#
# Elastic Compliance Matrix: (Units=1/GPa)
#
#
# Indices 1 2 3 4 5 6 
#
# 1 0.028660 0.001121 -0.003556 0.000000 0.000000 0.000000
# 2 0.001121 0.015416 -0.006414 0.000000 0.000000 0.000000
# 3 -0.003556 -0.006414 0.009471 0.000000 0.000000 0.000000
# 4 0.000000 0.000000 0.000000 0.028175 0.000000 0.000000
# 5 0.000000 0.000000 0.000000 0.000000 -0.553294 0.000000
# 6 0.000000 0.000000 0.000000 0.000000 0.000000 0.040559
#
#
# Mechanical properties :
#
#
# Convention : Reuss Voigt Hill
#
# Bulk Modulus (GPa) = 27.89304 50.03854 38.96579
# Shear Modulus (GPa) = -12.45749 24.87492 6.20871
#
# Velocity S-wave (km/s) = -2.48453 3.51083 1.75400
# Velocity P-wave (km/s) = 2.36452 6.42102 4.83841
#
# Compressibility (1/GPa) = 0.03585124
#
# Stress axis : x y z
#
# Youngs Moduli (GPa) = 34.89164 64.86688 105.58180
#
# Poissons Ratio (x) = -0.07274 0.37545
# Poissons Ratio (y) = -0.03913 0.67716
# Poissons Ratio (z) = 0.12407 0.41603
#
# Static dielectric constant tensor:
#      x y z
#    x 1.714090 0.000000 0.000000 
#    y 0.000000 1.715960 0.000000 
#    z 0.000000 0.000000 1.805480 
# 
# From -- ./inp_files/68292.got.cif
#   From: 2010.05.17/outbox.cif.g08.bks.cpg/sg65_35_cif.got.tgz:68292.got - 2010.06.03 17:01:31.
