data_PCOD9484374
_publ_section_title
;
Structure prediction by ZEFSAII (Michael W. Deem and Ramdas Pophale) SiO2 
 PCOD9484374
Probable space group: C M M M
;
_chemical_formula_sum "Si O2"
_cell_formula_units_Z 128
_cell_length_a 19.839076
_cell_length_b 21.088688
_cell_length_c 19.184742
_cell_angle_alpha 90.000000
_cell_angle_beta 90.000000
_cell_angle_gamma 90.000000
_cell_volume 8026.513969
_symmetry_space_group_name_H-M "C M M M"
_symmetry_group_IT_number 65
_symmetry_cell_setting 'orthorhombic'
loop_
_space_group_symop_operation_xyz
x,y,z
-x,-y,z
x,-y,-z
-x,y,-z
-x,-y,-z
x,y,-z
-x,y,z
x,-y,z
1/2+x,1/2+y,z
1/2-x,1/2-y,z
1/2+x,1/2-y,-z
1/2-x,1/2+y,-z
1/2-x,1/2-y,-z
1/2+x,1/2+y,-z
1/2-x,1/2+y,z
1/2+x,1/2-y,z
loop_
_atom_site_type_symbol
_atom_site_label
_atom_site_fract_x
_atom_site_fract_y
_atom_site_fract_z
Si Si1 0.076480 0.263820 0.139689
Si Si2 0.421555 0.166576 0.579688
Si Si3 0.211338 0.685977 0.916874
Si Si4 0.798375 0.574278 0.419529
Si Si5 0.208471 0.927277 0.154751
Si Si6 0.138592 0.735612 0.289667
Si Si7 0.734110 0.644922 0.705756
Si Si8 0.577829 0.620305 0.082776
O O1 0.134219 0.307054 0.106345
O O2 0.091397 0.260638 0.222136
O O3 0.084383 0.193692 0.106495
O O4 0.000000 0.284849 0.126726
O O5 0.412034 0.190788 0.500000
O O6 0.500000 0.150102 0.587758
O O7 0.371934 0.106557 0.587161
O O8 0.399303 0.214850 0.640055
O O9 0.250000 0.750000 0.890966
O O10 0.246753 0.623771 0.887056
O O11 0.216232 0.685407 0.000000
O O12 0.777334 0.582274 0.500000
O O13 0.801546 0.500000 0.403595
O O14 0.749593 0.610271 0.366588
O O15 0.215033 0.904654 0.234446
O O16 0.132721 0.918507 0.125828
O O17 0.229685 0.000000 0.146184
O O18 0.197177 0.683284 0.275357
O O19 0.176610 0.802058 0.299469
O O20 0.500000 0.601227 0.094683
O O21 0.591522 0.615864 0.000000
#
# Coordination Sequence:
#
# PCOD9484374 Si02
#       8
#    16  16  16  16  16  16  16  16
#     4  11  20  33  56  82 105 135 177 222 265 314
#     4   9  18  31  48  75 108 137 170 215 264 314
#     4  11  21  36  56  78 106 138 177 224 267 317
#     4   9  18  32  50  73 103 140 178 214 257 312
#     4  12  23  36  56  81 109 143 181 222 269 320
#     4  10  18  32  54  75 102 135 170 212 265 315
#     4  10  19  33  52  76 103 134 171 217 263 308
#     4  10  21  36  54  79 109 139 175 222 275 326
#
# _framework density 15.947146999999999
#
# number of rings (size 3 to 8) (size 9 to 14) (size 15 to 20)
#    0.000    1.750    3.750    1.500    0.000    2.750 
#    0.000    4.375    0.000    0.375    0.000    0.875 
#    0.000    0.000    0.000    8.250    0.000    0.250 
#
# Total GULP energy -357056.538175 kJ/mol
# GULP energy per Si atom -5579.008409 kJ/mol
# Density = 1.591085 g / cm^3
# Si number density = 15.947147 Si / 1000 Ang^3
#
#
#
# Elastic Constant Matrix: (Units=GPa)
#
#
# Indices 1 2 3 4 5 6 
#
# 1 77.7376 44.6179 30.6514 0.0000 0.0000 0.0000
# 2 44.6179 100.0056 45.4096 0.0000 0.0000 0.0000
# 3 30.6514 45.4096 75.1198 0.0000 0.0000 0.0000
# 4 0.0000 0.0000 0.0000 10.1196 0.0000 0.0000
# 5 0.0000 0.0000 0.0000 0.0000 27.4383 0.0000
# 6 0.0000 0.0000 0.0000 0.0000 0.0000 14.9134
#
#
#
# Elastic Compliance Matrix: (Units=1/GPa)
#
#
# Indices 1 2 3 4 5 6 
#
# 1 0.017905 -0.006438 -0.003414 0.000000 0.000000 0.000000
# 2 -0.006438 0.016098 -0.007104 0.000000 0.000000 0.000000
# 3 -0.003414 -0.007104 0.018999 0.000000 0.000000 0.000000
# 4 0.000000 0.000000 0.000000 0.098818 0.000000 0.000000
# 5 0.000000 0.000000 0.000000 0.000000 0.036445 0.000000
# 6 0.000000 0.000000 0.000000 0.000000 0.000000 0.067054
#
#
# Mechanical properties :
#
#
# Convention : Reuss Voigt Hill
#
# Bulk Modulus (GPa) = 52.38398 54.91342 53.64870
# Shear Modulus (GPa) = 16.91502 19.30653 18.11078
#
# Velocity S-wave (km/s) = 3.26036 3.48322 3.37363
# Velocity P-wave (km/s) = 6.86244 7.11945 6.99212
#
# Compressibility (1/GPa) = 0.01908980
#
# Stress axis : x y z
#
# Youngs Moduli (GPa) = 55.84974 62.12110 52.63329
#
# Poissons Ratio (x) = 0.39995 0.17969
# Poissons Ratio (y) = 0.35958 0.37390
# Poissons Ratio (z) = 0.19067 0.44130
#
# Static dielectric constant tensor:
#      x y z
#    x 1.527760 0.000000 0.000000 
#    y 0.000000 1.510160 0.000000 
#    z 0.000000 0.000000 1.538130 
# 
# From -- ./inp_files/56223.got.cif
#   From: 2010.05.17/outbox.cif.g08.bks.cpg/sg65_29_cif.got.tgz:56223.got - 2010.06.03 17:01:31.
