data_PCOD9484369
_publ_section_title
;
Structure prediction by ZEFSAII (Michael W. Deem and Ramdas Pophale) SiO2 
 PCOD9484369
Probable space group: C M M M
;
_chemical_formula_sum "Si O2"
_cell_formula_units_Z 96
_cell_length_a 14.412121
_cell_length_b 27.448015
_cell_length_c 13.786516
_cell_angle_alpha 90.000000
_cell_angle_beta 90.000000
_cell_angle_gamma 90.000000
_cell_volume 5453.726709
_symmetry_space_group_name_H-M "C M M M"
_symmetry_group_IT_number 65
_symmetry_cell_setting 'orthorhombic'
loop_
_space_group_symop_operation_xyz
x,y,z
-x,-y,z
x,-y,-z
-x,y,-z
-x,-y,-z
x,y,-z
-x,y,z
x,-y,z
1/2+x,1/2+y,z
1/2-x,1/2-y,z
1/2+x,1/2-y,-z
1/2-x,1/2+y,-z
1/2-x,1/2-y,-z
1/2+x,1/2+y,-z
1/2-x,1/2+y,z
1/2+x,1/2-y,z
loop_
_atom_site_type_symbol
_atom_site_label
_atom_site_fract_x
_atom_site_fract_y
_atom_site_fract_z
Si Si1 0.767120 0.308333 0.111681
Si Si2 0.101891 0.086309 0.610382
Si Si3 0.112365 0.744151 0.607328
Si Si4 0.192444 0.554663 0.613847
Si Si5 0.894046 0.824238 0.758148
Si Si6 0.610918 0.851735 0.282485
O O1 0.750000 0.250000 0.118394
O O2 0.671087 0.331082 0.150203
O O3 0.843974 0.329773 0.184769
O O4 0.787751 0.319678 0.000000
O O5 0.104614 0.106447 0.500000
O O6 0.195372 0.055823 0.621470
O O7 0.106037 0.129384 0.687984
O O8 0.000000 0.062154 0.620428
O O9 0.145099 0.757077 0.500000
O O10 0.144673 0.780405 0.691270
O O11 0.133391 0.688811 0.635608
O O12 0.000000 0.748944 0.606983
O O13 0.169765 0.564429 0.500000
O O14 0.159576 0.500000 0.637432
O O15 0.151829 0.596928 0.681721
O O16 0.000000 0.813073 0.786126
O O17 0.500000 0.854846 0.272996
#
# Coordination Sequence:
#
# PCOD9484369 Si02
#       6
#    16  16  16  16  16  16
#     4  11  23  38  56  81 110 142 186 232 278 332
#     4   9  17  30  52  83 118 150 178 214 264 330
#     4   9  17  29  48  76 109 144 178 212 256 320
#     4  10  21  36  56  84 116 150 189 232 281 337
#     4  10  18  32  53  80 112 142 175 216 266 329
#     4  11  22  38  56  77 108 147 193 237 281 329
#
# _framework density 17.602641999999999
#
# number of rings (size 3 to 8) (size 9 to 14) (size 15 to 20)
#    0.000    2.000    3.333    1.000    0.000    4.333 
#    0.000    5.000    0.000    0.500    0.000    1.167 
#    0.000    2.667    0.000    0.000    0.000    0.000 
#
# Total GULP energy -267682.053980 kJ/mol
# GULP energy per Si atom -5576.709458 kJ/mol
# Density = 1.756258 g / cm^3
# Si number density = 17.602642 Si / 1000 Ang^3
#
#
#
# Elastic Constant Matrix: (Units=GPa)
#
#
# Indices 1 2 3 4 5 6 
#
# 1 84.4688 19.5803 26.1849 0.0000 0.0000 0.0000
# 2 19.5803 76.4599 28.5960 0.0000 0.0000 0.0000
# 3 26.1849 28.5960 83.5807 0.0000 0.0000 0.0000
# 4 0.0000 0.0000 0.0000 14.5621 0.0000 0.0000
# 5 0.0000 0.0000 0.0000 0.0000 16.2940 0.0000
# 6 0.0000 0.0000 0.0000 0.0000 0.0000 10.6900
#
#
#
# Elastic Compliance Matrix: (Units=1/GPa)
#
#
# Indices 1 2 3 4 5 6 
#
# 1 0.013410 -0.002136 -0.003470 0.000000 0.000000 0.000000
# 2 -0.002136 0.015338 -0.004579 0.000000 0.000000 0.000000
# 3 -0.003470 -0.004579 0.014618 0.000000 0.000000 0.000000
# 4 0.000000 0.000000 0.000000 0.068671 0.000000 0.000000
# 5 0.000000 0.000000 0.000000 0.000000 0.061372 0.000000
# 6 0.000000 0.000000 0.000000 0.000000 0.000000 0.093545
#
#
# Mechanical properties :
#
#
# Convention : Reuss Voigt Hill
#
# Bulk Modulus (GPa) = 43.48557 43.69243 43.58900
# Shear Modulus (GPa) = 16.94972 19.65244 18.30108
#
# Velocity S-wave (km/s) = 3.10644 3.34495 3.22790
# Velocity P-wave (km/s) = 6.13386 6.30822 6.22165
#
# Compressibility (1/GPa) = 0.02299614
#
# Stress axis : x y z
#
# Youngs Moduli (GPa) = 74.57336 65.19693 68.40812
#
# Poissons Ratio (x) = 0.13927 0.23739
# Poissons Ratio (y) = 0.15930 0.31321
# Poissons Ratio (z) = 0.25879 0.29851
#
# Static dielectric constant tensor:
#      x y z
#    x 1.648130 0.000000 0.000000 
#    y 0.000000 1.598620 0.000000 
#    z 0.000000 0.000000 1.571230 
# 
# From -- ./inp_files/27363.got.cif
#   From: 2010.05.17/outbox.cif.g08.bks.cpg/sg65_14_cif.got.tgz:27363.got - 2010.06.03 17:01:31.
