data_PCOD9484325
_publ_section_title
;
Structure prediction by ZEFSAII (Michael W. Deem and Ramdas Pophale) SiO2 
 PCOD9484325
Probable space group: C M M M
;
_chemical_formula_sum "Si O2"
_cell_formula_units_Z 104
_cell_length_a 13.938949
_cell_length_b 20.566290
_cell_length_c 14.180434
_cell_angle_alpha 90.000000
_cell_angle_beta 90.000000
_cell_angle_gamma 90.000000
_cell_volume 4065.140004
_symmetry_space_group_name_H-M "C M M M"
_symmetry_group_IT_number 65
_symmetry_cell_setting 'orthorhombic'
loop_
_space_group_symop_operation_xyz
x,y,z
-x,-y,z
x,-y,-z
-x,y,-z
-x,-y,-z
x,y,-z
-x,y,z
x,-y,z
1/2+x,1/2+y,z
1/2-x,1/2-y,z
1/2+x,1/2-y,-z
1/2-x,1/2+y,-z
1/2-x,1/2-y,-z
1/2+x,1/2+y,-z
1/2-x,1/2+y,z
1/2+x,1/2-y,z
loop_
_atom_site_type_symbol
_atom_site_label
_atom_site_fract_x
_atom_site_fract_y
_atom_site_fract_z
Si Si1 0.388364 0.746484 0.689966
Si Si2 0.896806 0.425334 0.113702
Si Si3 0.880719 0.000000 0.736234
Si Si4 0.313258 0.388959 0.386553
Si Si5 0.113761 0.751068 0.101626
Si Si6 0.317629 0.398488 0.892736
Si Si7 0.104275 0.387613 0.389720
O O1 0.500000 0.726288 0.697565
O O2 0.332398 0.683578 0.652935
O O3 0.356283 0.770219 0.793879
O O4 0.387070 0.809664 0.623608
O O5 0.893533 0.500000 0.146617
O O6 0.794468 0.395502 0.136471
O O7 0.000000 0.396423 0.143698
O O8 0.900435 0.426616 0.000000
O O9 0.882945 0.057792 0.656335
O O10 0.870749 0.056194 0.819105
O O11 0.316192 0.385989 0.500000
O O12 0.206272 0.413514 0.354662
O O13 0.138812 0.826998 0.104185
O O14 0.000000 0.743090 0.097238
O O15 0.150809 0.723793 0.000000
O O16 0.321084 0.424156 0.000000
O O17 0.101469 0.403262 0.500000
O O18 0.000000 0.407970 0.350058
#
# Coordination Sequence:
#
# PCOD9484325 Si02
#       7
#    16  16   8  16  16  16  16
#     4  10  19  35  62  91 115 143 187 239 288 340
#     4   8  13  22  39  63  89 121 166 221 272 306
#     4  12  22  36  54  80 116 160 192 227 281 346
#     4  11  23  39  57  82 117 153 190 235 289 347
#     4   9  18  33  54  82 116 152 186 225 279 337
#     4  10  18  32  53  74 104 148 195 239 270 316
#     4   9  19  38  65  91 111 139 188 247 297 341
#
# _framework density 25.583376000000001
#
# number of rings (size 3 to 8) (size 9 to 14) (size 15 to 20)
#    0.000    2.308    2.308    1.846    0.000    2.154 
#    0.000    3.462    0.000    8.308    0.000    0.000 
#    0.000    0.000    0.000    0.000    0.000    0.000 
#
# Total GULP energy -289731.757693 kJ/mol
# GULP energy per Si atom -5571.764571 kJ/mol
# Density = 2.552515 g / cm^3
# Si number density = 25.583376 Si / 1000 Ang^3
#
#
#
# Elastic Constant Matrix: (Units=GPa)
#
#
# Indices 1 2 3 4 5 6 
#
# 1 110.9363 16.5730 15.4510 0.0000 0.0000 0.0000
# 2 16.5730 102.3666 2.7674 0.0000 0.0000 0.0000
# 3 15.4510 2.7674 155.9279 0.0000 0.0000 0.0000
# 4 0.0000 0.0000 0.0000 -55.9582 0.0000 0.0000
# 5 0.0000 0.0000 0.0000 0.0000 -33.9014 0.0000
# 6 0.0000 0.0000 0.0000 0.0000 0.0000 -40.3133
#
#
#
# Elastic Compliance Matrix: (Units=1/GPa)
#
#
# Indices 1 2 3 4 5 6 
#
# 1 0.009363 -0.001491 -0.000901 0.000000 0.000000 0.000000
# 2 -0.001491 0.010011 -0.000030 0.000000 0.000000 0.000000
# 3 -0.000901 -0.000030 0.006503 0.000000 0.000000 0.000000
# 4 0.000000 0.000000 0.000000 -0.017870 0.000000 0.000000
# 5 0.000000 0.000000 0.000000 0.000000 -0.029497 0.000000
# 6 0.000000 0.000000 0.000000 0.000000 0.000000 -0.024806
#
#
# Mechanical properties :
#
#
# Convention : Reuss Voigt Hill
#
# Bulk Modulus (GPa) = 47.54769 48.75705 48.15237
# Shear Modulus (GPa) = -145.17497 -3.73862 -74.45680
#
# Velocity S-wave (km/s) = -7.54115 -1.21017 -5.40063
# Velocity P-wave (km/s) = 7.56304 4.14087 4.47509
#
# Compressibility (1/GPa) = 0.02103152
#
# Stress axis : x y z
#
# Youngs Moduli (GPa) = 106.80889 99.88930 153.77377
#
# Poissons Ratio (x) = 0.14898 0.13859
# Poissons Ratio (y) = 0.15930 0.00460
# Poissons Ratio (z) = 0.09626 0.00299
#
# Static dielectric constant tensor:
#      x y z
#    x 2.095140 0.000000 0.000000 
#    y 0.000000 2.224070 0.000000 
#    z 0.000000 0.000000 2.008090 
# 
# From -- ./inp_files/43062.got.cif
#   From: 2010.05.17/outbox.cif.g08.bks.cpg/sg65_22_cif.got.tgz:43062.got - 2010.06.03 17:01:31.
