data_PCOD9484411
_publ_section_title
;
Structure prediction by ZEFSAII (Michael W. Deem and Ramdas Pophale) SiO2 
 PCOD9484411
Probable space group: C M M M
;
_chemical_formula_sum "Si O2"
_cell_formula_units_Z 88
_cell_length_a 8.625611
_cell_length_b 23.994230
_cell_length_c 23.543614
_cell_angle_alpha 90.000000
_cell_angle_beta 90.000000
_cell_angle_gamma 90.000000
_cell_volume 4872.701581
_symmetry_space_group_name_H-M "C M M M"
_symmetry_group_IT_number 65
_symmetry_cell_setting 'orthorhombic'
loop_
_space_group_symop_operation_xyz
x,y,z
-x,-y,z
x,-y,-z
-x,y,-z
-x,-y,-z
x,y,-z
-x,y,z
x,-y,z
1/2+x,1/2+y,z
1/2-x,1/2-y,z
1/2+x,1/2-y,-z
1/2-x,1/2+y,-z
1/2-x,1/2-y,-z
1/2+x,1/2+y,-z
1/2-x,1/2+y,z
1/2+x,1/2-y,z
loop_
_atom_site_type_symbol
_atom_site_label
_atom_site_fract_x
_atom_site_fract_y
_atom_site_fract_z
Si Si1 0.185395 0.813080 0.381120
Si Si2 0.314508 0.500000 0.243471
Si Si3 0.814663 0.617402 0.934273
Si Si4 0.814817 0.619004 0.274725
Si Si5 0.685531 0.813248 0.500000
Si Si6 0.684902 0.312280 0.168084
Si Si7 0.185595 0.000000 0.108023
O O1 0.250000 0.750000 0.374125
O O2 0.242232 0.849959 0.328791
O O3 0.250540 0.836777 0.440808
O O4 0.000000 0.810423 0.383376
O O5 0.500000 0.500000 0.250699
O O6 0.243006 0.444308 0.269764
O O7 0.282941 0.500000 0.175634
O O8 0.733077 0.659615 0.891206
O O9 0.757418 0.555361 0.919054
O O10 0.000000 0.620421 0.926256
O O11 0.779373 0.629501 0.000000
O O12 0.757392 0.650927 0.218403
O O13 0.000000 0.621195 0.277800
O O14 0.750000 0.750000 0.500000
O O15 0.000000 0.687112 0.500000
O O16 0.500000 0.312141 0.174008
O O17 0.750000 0.250000 0.171646
O O18 0.000000 0.000000 0.100065
#
# Coordination Sequence:
#
# PCOD9484411 Si02
#       7
#    16   8  16  16   8  16   8
#     4  11  21  36  58  88 125 163 202 246 293 347
#     4  11  23  40  62  90 118 152 192 241 294 350
#     4  11  24  41  62  88 117 151 192 239 292 350
#     4  12  24  40  62  89 119 155 196 244 295 348
#     4  10  18  32  54  85 122 161 204 246 291 344
#     4  12  25  42  62  86 116 153 193 239 292 353
#     4  11  22  38  63  90 118 149 191 240 293 347
#
# _framework density 18.059797
#
# number of rings (size 3 to 8) (size 9 to 14) (size 15 to 20)
#    0.000    0.727    1.818    8.727    0.000    3.636 
#    0.000    0.000    0.000    0.545    0.000    3.818 
#    0.000    0.000    0.000    0.000    0.000    0.000 
#
# Total GULP energy -246167.427883 kJ/mol
# GULP energy per Si atom -5594.714270 kJ/mol
# Density = 1.801869 g / cm^3
# Si number density = 18.059797 Si / 1000 Ang^3
#
#
#
# Elastic Constant Matrix: (Units=GPa)
#
#
# Indices 1 2 3 4 5 6 
#
# 1 169.9587 52.7216 77.4485 0.0000 0.0000 0.0000
# 2 52.7216 128.6731 62.1875 0.0000 0.0000 0.0000
# 3 77.4485 62.1875 140.7804 0.0000 0.0000 0.0000
# 4 0.0000 0.0000 0.0000 -43.8730 0.0000 0.0000
# 5 0.0000 0.0000 0.0000 0.0000 35.1844 0.0000
# 6 0.0000 0.0000 0.0000 0.0000 0.0000 36.5992
#
#
#
# Elastic Compliance Matrix: (Units=1/GPa)
#
#
# Indices 1 2 3 4 5 6 
#
# 1 0.008067 -0.001475 -0.003786 0.000000 0.000000 0.000000
# 2 -0.001475 0.010151 -0.003672 0.000000 0.000000 0.000000
# 3 -0.003786 -0.003672 0.010808 0.000000 0.000000 0.000000
# 4 0.000000 0.000000 0.000000 -0.022793 0.000000 0.000000
# 5 0.000000 0.000000 0.000000 0.000000 0.028422 0.000000
# 6 0.000000 0.000000 0.000000 0.000000 0.000000 0.027323
#
#
# Mechanical properties :
#
#
# Convention : Reuss Voigt Hill
#
# Bulk Modulus (GPa) = 89.61879 91.56972 90.59425
# Shear Modulus (GPa) = 59.83375 22.05242 40.94309
#
# Velocity S-wave (km/s) = 5.76219 3.49818 4.76656
# Velocity P-wave (km/s) = 9.69544 8.19330 8.97585
#
# Compressibility (1/GPa) = 0.01115837
#
# Stress axis : x y z
#
# Youngs Moduli (GPa) = 123.96598 98.51240 92.52116
#
# Poissons Ratio (x) = 0.14534 0.35029
# Poissons Ratio (y) = 0.18290 0.33977
# Poissons Ratio (z) = 0.46934 0.36177
#
# Static dielectric constant tensor:
#      x y z
#    x 1.601510 0.000000 0.000000 
#    y 0.000000 1.598260 0.000000 
#    z 0.000000 0.000000 1.623850 
# 
# From -- ./inp_files/67644.got.cif
#   From: 2010.05.17/outbox.cif.g08.bks.cpg/sg65_34_cif.got.tgz:67644.got - 2010.06.03 17:01:31.
