data_PCOD9484076
_publ_section_title
;
Structure prediction by ZEFSAII (Michael W. Deem and Ramdas Pophale) SiO2 
 PCOD9484076
Probable space group: C M M M
;
_chemical_formula_sum "Si O2"
_cell_formula_units_Z 88
_cell_length_a 8.276388
_cell_length_b 21.433141
_cell_length_c 25.270712
_cell_angle_alpha 90.000000
_cell_angle_beta 90.000000
_cell_angle_gamma 90.000000
_cell_volume 4482.746103
_symmetry_space_group_name_H-M "C M M M"
_symmetry_group_IT_number 65
_symmetry_cell_setting 'orthorhombic'
loop_
_space_group_symop_operation_xyz
x,y,z
-x,-y,z
x,-y,-z
-x,y,-z
-x,-y,-z
x,y,-z
-x,y,z
x,-y,z
1/2+x,1/2+y,z
1/2-x,1/2-y,z
1/2+x,1/2-y,-z
1/2-x,1/2+y,-z
1/2-x,1/2-y,-z
1/2+x,1/2+y,-z
1/2-x,1/2+y,z
1/2+x,1/2-y,z
loop_
_atom_site_type_symbol
_atom_site_label
_atom_site_fract_x
_atom_site_fract_y
_atom_site_fract_z
Si Si1 0.196900 0.128428 0.389312
Si Si2 0.807551 0.929225 0.080041
Si Si3 0.193703 0.569961 0.200665
Si Si4 0.693684 0.318840 0.500000
Si Si5 0.693625 0.680270 0.722631
Si Si6 0.191197 0.323253 0.000000
Si Si7 0.196515 0.000000 0.562908
O O1 0.255174 0.156732 0.444343
O O2 0.255034 0.161312 0.336154
O O3 0.000000 0.131943 0.387671
O O4 0.243431 0.057723 0.400500
O O5 0.764938 0.923025 0.141815
O O6 0.743040 0.868609 0.048839
O O7 0.000000 0.929548 0.072622
O O8 0.749143 0.000000 0.064003
O O9 0.240947 0.500000 0.220022
O O10 0.250539 0.626101 0.237700
O O11 0.000000 0.571670 0.196978
O O12 0.500000 0.329005 0.500000
O O13 0.750000 0.250000 0.500000
O O14 0.500000 0.680462 0.722031
O O15 0.750000 0.750000 0.736534
O O16 0.250000 0.250000 0.000000
O O17 0.000000 0.318702 0.000000
O O18 0.250109 0.000000 0.500000
O O19 0.000000 0.000000 0.558532
#
# Coordination Sequence:
#
# PCOD9484076 Si02
#       7
#    16  16  16   8  16   8   8
#     4   9  18  30  49  77 107 138 179 229 283 345
#     4  10  21  40  66  95 127 163 205 251 298 352
#     4  10  22  41  64  90 120 155 197 246 300 355
#     4  10  18  31  49  73 101 136 177 222 278 339
#     4  11  23  38  57  83 115 152 196 243 294 353
#     4  12  25  40  61  93 133 173 213 254 299 350
#     4   9  14  26  48  76 106 134 172 227 284 341
#
# _framework density 19.630822999999999
#
# number of rings (size 3 to 8) (size 9 to 14) (size 15 to 20)
#    0.000    1.909    0.909    3.273    1.273    4.000 
#    0.000    4.545    0.000    0.000    0.000    0.636 
#    0.000    0.000    0.000    0.000    0.000    0.000 
#
# Total GULP energy -245162.701857 kJ/mol
# GULP energy per Si atom -5571.879588 kJ/mol
# Density = 1.958614 g / cm^3
# Si number density = 19.630823 Si / 1000 Ang^3
#
#
#
# Elastic Constant Matrix: (Units=GPa)
#
#
# Indices 1 2 3 4 5 6 
#
# 1 52.1861 39.0733 22.5758 0.0000 0.0000 0.0000
# 2 39.0733 214.9426 92.9238 0.0000 0.0000 0.0000
# 3 22.5758 92.9238 121.4653 0.0000 0.0000 0.0000
# 4 0.0000 0.0000 0.0000 50.0112 0.0000 0.0000
# 5 0.0000 0.0000 0.0000 0.0000 -427.3523 0.0000
# 6 0.0000 0.0000 0.0000 0.0000 0.0000 20.9594
#
#
#
# Elastic Compliance Matrix: (Units=1/GPa)
#
#
# Indices 1 2 3 4 5 6 
#
# 1 0.022378 -0.003392 -0.001565 0.000000 0.000000 0.000000
# 2 -0.003392 0.007466 -0.005081 0.000000 0.000000 0.000000
# 3 -0.001565 -0.005081 0.012411 0.000000 0.000000 0.000000
# 4 0.000000 0.000000 0.000000 0.019996 0.000000 0.000000
# 5 0.000000 0.000000 0.000000 0.000000 -0.002340 0.000000
# 6 0.000000 0.000000 0.000000 0.000000 0.000000 0.047711
#
#
# Mechanical properties :
#
#
# Convention : Reuss Voigt Hill
#
# Bulk Modulus (GPa) = 45.08514 77.52664 61.30589
# Shear Modulus (GPa) = 37.01257 -55.67494 -9.33119
#
# Velocity S-wave (km/s) = 4.34687 -5.33128 -2.18258
# Velocity P-wave (km/s) = 6.94334 1.29665 4.99456
#
# Compressibility (1/GPa) = 0.02218026
#
# Stress axis : x y z
#
# Youngs Moduli (GPa) = 44.68579 133.94878 80.57606
#
# Poissons Ratio (x) = 0.45431 0.12607
# Poissons Ratio (y) = 0.15156 0.40940
# Poissons Ratio (z) = 0.06992 0.68058
#
# Static dielectric constant tensor:
#      x y z
#    x 1.763400 0.000000 0.000000 
#    y 0.000000 1.367870 0.000000 
#    z 0.000000 0.000000 1.663940 
# 
# From -- ./inp_files/67614.got.cif
#   From: 2010.05.17/outbox.cif.g08.bks.cpg/sg65_34_cif.got.tgz:67614.got - 2010.06.03 17:01:31.
