data_PCOD9484118
_publ_section_title
;
Structure prediction by ZEFSAII (Michael W. Deem and Ramdas Pophale) SiO2 
 PCOD9484118
Probable space group: C M M M
;
_chemical_formula_sum "Si O2"
_cell_formula_units_Z 104
_cell_length_a 29.838356
_cell_length_b 7.655060
_cell_length_c 24.087849
_cell_angle_alpha 90.000000
_cell_angle_beta 90.000000
_cell_angle_gamma 90.000000
_cell_volume 5502.011709
_symmetry_space_group_name_H-M "C M M M"
_symmetry_group_IT_number 65
_symmetry_cell_setting 'orthorhombic'
loop_
_space_group_symop_operation_xyz
x,y,z
-x,-y,z
x,-y,-z
-x,y,-z
-x,-y,-z
x,y,-z
-x,y,z
x,-y,z
1/2+x,1/2+y,z
1/2-x,1/2-y,z
1/2+x,1/2-y,-z
1/2-x,1/2+y,-z
1/2-x,1/2-y,-z
1/2+x,1/2+y,-z
1/2-x,1/2+y,z
1/2+x,1/2-y,z
loop_
_atom_site_type_symbol
_atom_site_label
_atom_site_fract_x
_atom_site_fract_y
_atom_site_fract_z
Si Si1 0.554430 0.297474 0.500000
Si Si2 0.799269 0.209411 0.098997
Si Si3 0.389623 0.296397 0.276600
Si Si4 0.051062 0.706130 0.827940
Si Si5 0.104211 0.211526 0.939386
Si Si6 0.799252 0.790069 0.226464
Si Si7 0.948132 0.214929 0.378550
O O1 0.568938 0.500000 0.500000
O O2 0.500000 0.296717 0.500000
O O3 0.567096 0.223972 0.439834
O O4 0.750000 0.250000 0.075647
O O5 0.844208 0.271086 0.068877
O O6 0.800960 0.275961 0.162739
O O7 0.802114 0.000000 0.100485
O O8 0.382397 0.500000 0.290179
O O9 0.419576 0.287760 0.221089
O O10 0.341146 0.220254 0.261179
O O11 0.416987 0.222540 0.328537
O O12 0.049903 0.500000 0.816734
O O13 0.074627 0.732976 0.887221
O O14 0.000000 0.772839 0.828328
O O15 0.104315 0.000000 0.938985
O O16 0.087816 0.269459 0.000000
O O17 0.750000 0.750000 0.248978
O O18 0.803846 0.000000 0.223168
O O19 0.000000 0.265940 0.369461
O O20 0.948187 0.000000 0.379402
#
# Coordination Sequence:
#
# PCOD9484118 Si02
#       7
#     8  16  16  16  16  16  16
#     4   7  10  18  32  58  98 131 153 185 233 279
#     4   9  17  31  49  72  97 120 147 185 232 281
#     4  10  18  31  51  74  96 123 161 199 234 277
#     4  11  24  38  51  70  97 126 155 193 239 282
#     4  10  21  38  57  74  93 120 157 196 233 280
#     4   9  17  29  46  68  94 120 150 190 234 281
#     4   8  13  21  38  66  98 129 157 190 233 277
#
# _framework density 18.902176000000001
#
# number of rings (size 3 to 8) (size 9 to 14) (size 15 to 20)
#    0.000    2.692    1.538    1.846    0.000    4.000 
#    0.000    1.538    0.000    0.000    0.000    1.077 
#    0.000    3.077    0.000    0.000    0.000    0.000 
#
# Total GULP energy -289955.172511 kJ/mol
# GULP energy per Si atom -5576.061010 kJ/mol
# Density = 1.885915 g / cm^3
# Si number density = 18.902176 Si / 1000 Ang^3
#
#
#
# Elastic Constant Matrix: (Units=GPa)
#
#
# Indices 1 2 3 4 5 6 
#
# 1 116.3871 -5.2415 57.1052 0.0000 0.0000 0.0000
# 2 -5.2415 33.2697 -6.8707 0.0000 0.0000 0.0000
# 3 57.1052 -6.8707 125.0689 0.0000 0.0000 0.0000
# 4 0.0000 0.0000 0.0000 -5.5552 0.0000 0.0000
# 5 0.0000 0.0000 0.0000 0.0000 47.5425 0.0000
# 6 0.0000 0.0000 0.0000 0.0000 0.0000 14.8049
#
#
#
# Elastic Compliance Matrix: (Units=1/GPa)
#
#
# Indices 1 2 3 4 5 6 
#
# 1 0.011089 0.000709 -0.005024 0.000000 0.000000 0.000000
# 2 0.000709 0.030448 0.001349 0.000000 0.000000 0.000000
# 3 -0.005024 0.001349 0.010364 0.000000 0.000000 0.000000
# 4 0.000000 0.000000 0.000000 -0.180011 0.000000 0.000000
# 5 0.000000 0.000000 0.000000 0.000000 0.021034 0.000000
# 6 0.000000 0.000000 0.000000 0.000000 0.000000 0.067545
#
#
# Mechanical properties :
#
#
# Convention : Reuss Voigt Hill
#
# Bulk Modulus (GPa) = 21.75406 40.52352 31.13879
# Shear Modulus (GPa) = -273.57398 26.67396 -123.45001
#
# Velocity S-wave (km/s) = -12.04349 3.76061 -8.09022
# Velocity P-wave (km/s) = 13.48557 6.35149 8.41187
#
# Compressibility (1/GPa) = 0.04596842
#
# Stress axis : x y z
#
# Youngs Moduli (GPa) = 90.17887 32.84324 96.49092
#
# Poissons Ratio (x) = -0.02330 0.48479
# Poissons Ratio (y) = -0.06398 -0.13014
# Poissons Ratio (z) = 0.45307 -0.04430
#
# Static dielectric constant tensor:
#      x y z
#    x 1.659670 0.000000 0.000000 
#    y 0.000000 1.710880 0.000000 
#    z 0.000000 0.000000 1.666460 
# 
# From -- ./inp_files/72103.got.cif
#   From: 2010.05.17/outbox.cif.g08.bks.cpg/sg65_37_cif.got.tgz:72103.got - 2010.06.03 17:01:31.
