data_PCOD9484024
_publ_section_title
;
Structure prediction by ZEFSAII (Michael W. Deem and Ramdas Pophale) SiO2 
 PCOD9484024
Probable space group: C M M M
;
_chemical_formula_sum "Si O2"
_cell_formula_units_Z 100
_cell_length_a 7.495815
_cell_length_b 28.190952
_cell_length_c 22.664463
_cell_angle_alpha 90.000000
_cell_angle_beta 90.000000
_cell_angle_gamma 90.000000
_cell_volume 4789.321980
_symmetry_space_group_name_H-M "C M M M"
_symmetry_group_IT_number 65
_symmetry_cell_setting 'orthorhombic'
loop_
_space_group_symop_operation_xyz
x,y,z
-x,-y,z
x,-y,-z
-x,y,-z
-x,-y,-z
x,y,-z
-x,y,z
x,-y,z
1/2+x,1/2+y,z
1/2-x,1/2-y,z
1/2+x,1/2-y,-z
1/2-x,1/2+y,-z
1/2-x,1/2-y,-z
1/2+x,1/2+y,-z
1/2-x,1/2+y,z
1/2+x,1/2-y,z
loop_
_atom_site_type_symbol
_atom_site_label
_atom_site_fract_x
_atom_site_fract_y
_atom_site_fract_z
Si Si1 0.216135 0.947099 0.108573
Si Si2 0.705937 0.156872 0.909881
Si Si3 0.796463 0.862604 0.675320
Si Si4 0.285577 0.695318 0.433233
Si Si5 0.717237 0.447183 0.754350
Si Si6 0.710063 0.195550 0.784498
Si Si7 0.000000 0.190303 0.000000
O O1 0.280245 0.899475 0.076790
O O2 0.273607 0.942841 0.177303
O O3 0.000000 0.945988 0.106293
O O4 0.270363 0.000000 0.087705
O O5 0.500000 0.172193 0.917248
O O6 0.759646 0.164808 0.841622
O O7 0.842871 0.185530 0.949333
O O8 0.715220 0.840634 0.616207
O O9 0.714724 0.906995 0.710346
O O10 0.800788 0.821755 0.724900
O O11 0.000000 0.876464 0.660763
O O12 0.218716 0.687766 0.500000
O O13 0.500000 0.690410 0.434455
O O14 0.250000 0.750000 0.416808
O O15 0.500000 0.443843 0.756329
O O16 0.764100 0.500000 0.734286
O O17 0.500000 0.189635 0.775249
O O18 0.750000 0.250000 0.797424
#
# Coordination Sequence:
#
# PCOD9484024 Si02
#       7
#    16  16  16  16  16  16   4
#     4   9  16  31  58  87 114 149 185 225 285 347
#     4  11  24  42  63  89 113 148 194 233 287 343
#     4  10  18  30  54  81 109 145 184 229 284 332
#     4   9  18  31  46  70 106 148 191 231 275 335
#     4   8  14  25  47  79 109 141 182 222 272 342
#     4  11  24  38  59  85 113 139 178 236 286 339
#     4  12  26  44  71  80 118 162 180 242 279 348
#
# _framework density 20.879783
#
# number of rings (size 3 to 8) (size 9 to 14) (size 15 to 20)
#    0.000    2.240    2.400    2.160    2.240    2.240 
#    0.000    1.200    0.000    1.920    0.000    3.360 
#    0.000    0.000    0.000    5.440    0.000    5.760 
#
# Total GULP energy -278627.252602 kJ/mol
# GULP energy per Si atom -5572.545052 kJ/mol
# Density = 2.083226 g / cm^3
# Si number density = 20.879783 Si / 1000 Ang^3
#
#
#
# Elastic Constant Matrix: (Units=GPa)
#
#
# Indices 1 2 3 4 5 6 
#
# 1 75.3121 -10.7232 13.7116 0.0000 0.0000 0.0000
# 2 -10.7232 55.2746 -7.2412 0.0000 0.0000 0.0000
# 3 13.7116 -7.2412 53.2101 0.0000 0.0000 0.0000
# 4 0.0000 0.0000 0.0000 891.0874 0.0000 0.0000
# 5 0.0000 0.0000 0.0000 0.0000 9.8859 0.0000
# 6 0.0000 0.0000 0.0000 0.0000 0.0000 13.7256
#
#
#
# Elastic Compliance Matrix: (Units=1/GPa)
#
#
# Indices 1 2 3 4 5 6 
#
# 1 0.014218 0.002320 -0.003348 0.000000 0.000000 0.000000
# 2 0.002320 0.018798 0.001960 0.000000 0.000000 0.000000
# 3 -0.003348 0.001960 0.019923 0.000000 0.000000 0.000000
# 4 0.000000 0.000000 0.000000 0.001122 0.000000 0.000000
# 5 0.000000 0.000000 0.000000 0.000000 0.101154 0.000000
# 6 0.000000 0.000000 0.000000 0.000000 0.000000 0.072856
#
#
# Mechanical properties :
#
#
# Convention : Reuss Voigt Hill
#
# Bulk Modulus (GPa) = 18.24711 19.47681 18.86196
# Shear Modulus (GPa) = 20.45196 195.47643 107.96419
#
# Velocity S-wave (km/s) = 3.13311 9.68624 7.19860
# Velocity P-wave (km/s) = 4.67403 11.59508 8.84004
#
# Compressibility (1/GPa) = 0.05480319
#
# Stress axis : x y z
#
# Youngs Moduli (GPa) = 70.33370 53.19623 50.19325
#
# Poissons Ratio (x) = -0.12340 0.16805
# Poissons Ratio (y) = -0.16315 -0.09840
# Poissons Ratio (z) = 0.23549 -0.10429
#
# Static dielectric constant tensor:
#      x y z
#    x 1.816020 0.000000 0.000000 
#    y 0.000000 1.782510 0.000000 
#    z 0.000000 0.000000 1.752080 
# 
# From -- ./inp_files/60818.got.cif
#   From: 2010.05.17/outbox.cif.g08.bks.cpg/sg65_31_cif.got.tgz:60818.got - 2010.06.03 17:01:31.
