data_PCOD9484465
_publ_section_title
;
Structure prediction by ZEFSAII (Michael W. Deem and Ramdas Pophale) SiO2 
 PCOD9484465
Probable space group: C M M M
;
_chemical_formula_sum "Si O2"
_cell_formula_units_Z 112
_cell_length_a 29.283963
_cell_length_b 14.809679
_cell_length_c 14.650401
_cell_angle_alpha 90.000000
_cell_angle_beta 90.000000
_cell_angle_gamma 90.000000
_cell_volume 6353.675154
_symmetry_space_group_name_H-M "C M M M"
_symmetry_group_IT_number 65
_symmetry_cell_setting 'orthorhombic'
loop_
_space_group_symop_operation_xyz
x,y,z
-x,-y,z
x,-y,-z
-x,y,-z
-x,-y,-z
x,y,-z
-x,y,z
x,-y,z
1/2+x,1/2+y,z
1/2-x,1/2-y,z
1/2+x,1/2-y,-z
1/2-x,1/2+y,-z
1/2-x,1/2-y,-z
1/2+x,1/2+y,-z
1/2-x,1/2+y,z
1/2+x,1/2-y,z
loop_
_atom_site_type_symbol
_atom_site_label
_atom_site_fract_x
_atom_site_fract_y
_atom_site_fract_z
Si Si1 0.551951 0.251051 0.250003
Si Si2 0.868319 0.267834 0.891723
Si Si3 0.555478 0.604796 0.602088
Si Si4 0.180999 0.392223 0.598704
Si Si5 0.071180 0.606070 0.397885
Si Si6 0.793962 0.390925 0.797014
Si Si7 0.198710 0.103927 0.891900
O O1 0.500000 0.271821 0.221205
O O2 0.585467 0.232893 0.166427
O O3 0.570320 0.331412 0.315604
O O4 0.551262 0.165574 0.317780
O O5 0.834055 0.344612 0.854677
O O6 0.841807 0.173556 0.874779
O O7 0.875809 0.277745 0.000000
O O8 0.570829 0.633165 0.500000
O O9 0.500000 0.609062 0.601331
O O10 0.568120 0.500000 0.614981
O O11 0.195611 0.354478 0.500000
O O12 0.189990 0.500000 0.596470
O O13 0.126165 0.382901 0.605487
O O14 0.202382 0.357968 0.692374
O O15 0.056109 0.633631 0.500000
O O16 0.061191 0.500000 0.387359
O O17 0.799680 0.500000 0.799086
O O18 0.744622 0.370226 0.838815
O O19 0.186940 0.000000 0.869474
O O20 0.209151 0.107972 0.000000
#
# Coordination Sequence:
#
# PCOD9484465 Si02
#       7
#    16  16  16  16  16  16  16
#     4  11  22  34  51  75 103 141 183 216 255 311
#     4  11  23  37  53  74 103 138 176 223 270 308
#     4   8  15  30  52  76  99 123 159 212 267 312
#     4   8  14  26  47  75 106 139 170 198 236 295
#     4   9  17  31  51  76 107 140 175 215 255 298
#     4  10  18  32  57  84 107 134 168 208 258 316
#     4   9  19  36  58  82 102 123 162 219 274 317
#
# _framework density 17.627593000000001
#
# number of rings (size 3 to 8) (size 9 to 14) (size 15 to 20)
#    0.000    2.571    1.429    2.571    0.000    4.000 
#    0.000    0.714    0.000    3.429    0.000    8.000 
#    0.000    0.000    0.000    0.000    0.000    0.000 
#
# Total GULP energy -312212.377605 kJ/mol
# GULP energy per Si atom -5575.221029 kJ/mol
# Density = 1.758747 g / cm^3
# Si number density = 17.627593 Si / 1000 Ang^3
#
#
#
# Elastic Constant Matrix: (Units=GPa)
#
#
# Indices 1 2 3 4 5 6 
#
# 1 65.7184 22.7600 61.4959 0.0000 0.0000 0.0000
# 2 22.7600 49.0690 41.5315 0.0000 0.0000 0.0000
# 3 61.4959 41.5315 124.3432 0.0000 0.0000 0.0000
# 4 0.0000 0.0000 0.0000 19.8030 0.0000 0.0000
# 5 0.0000 0.0000 0.0000 0.0000 11.4168 0.0000
# 6 0.0000 0.0000 0.0000 0.0000 0.0000 16.6958
#
#
#
# Elastic Compliance Matrix: (Units=1/GPa)
#
#
# Indices 1 2 3 4 5 6 
#
# 1 0.028438 -0.001794 -0.013465 0.000000 0.000000 0.000000
# 2 -0.001794 0.028525 -0.008640 0.000000 0.000000 0.000000
# 3 -0.013465 -0.008640 0.017588 0.000000 0.000000 0.000000
# 4 0.000000 0.000000 0.000000 0.050497 0.000000 0.000000
# 5 0.000000 0.000000 0.000000 0.000000 0.087591 0.000000
# 6 0.000000 0.000000 0.000000 0.000000 0.000000 0.059895
#
#
# Mechanical properties :
#
#
# Convention : Reuss Voigt Hill
#
# Bulk Modulus (GPa) = 37.38110 54.52281 45.95196
# Shear Modulus (GPa) = 15.18611 17.13933 16.16272
#
# Velocity S-wave (km/s) = 2.93831 3.12156 3.03132
# Velocity P-wave (km/s) = 5.72395 6.63247 6.19489
#
# Compressibility (1/GPa) = 0.02675149
#
# Stress axis : x y z
#
# Youngs Moduli (GPa) = 35.16466 35.05756 56.85822
#
# Poissons Ratio (x) = 0.06288 0.76561
# Poissons Ratio (y) = 0.06307 0.49127
# Poissons Ratio (z) = 0.47350 0.30291
#
# Static dielectric constant tensor:
#      x y z
#    x 1.583460 0.000000 0.000000 
#    y 0.000000 1.619460 0.000000 
#    z 0.000000 0.000000 1.608480 
# 
# From -- ./inp_files/41119.got.cif
#   From: 2010.05.17/outbox.cif.g08.bks.cpg/sg65_21_cif.got.tgz:41119.got - 2010.06.03 17:01:31.
