data_PCOD9484866
_publ_section_title
;
Structure prediction by ZEFSAII (Michael W. Deem and Ramdas Pophale) SiO2 
 PCOD9484866
Probable space group: C M M M
;
_chemical_formula_sum "Si O2"
_cell_formula_units_Z 116
_cell_length_a 27.138235
_cell_length_b 31.880196
_cell_length_c 7.752705
_cell_angle_alpha 90.000000
_cell_angle_beta 90.000000
_cell_angle_gamma 90.000000
_cell_volume 6707.425235
_symmetry_space_group_name_H-M "C M M M"
_symmetry_group_IT_number 65
_symmetry_cell_setting 'orthorhombic'
loop_
_space_group_symop_operation_xyz
x,y,z
-x,-y,z
x,-y,-z
-x,y,-z
-x,-y,-z
x,y,-z
-x,y,z
x,-y,z
1/2+x,1/2+y,z
1/2-x,1/2-y,z
1/2+x,1/2-y,-z
1/2-x,1/2+y,-z
1/2-x,1/2-y,-z
1/2+x,1/2+y,-z
1/2-x,1/2+y,z
1/2+x,1/2-y,z
loop_
_atom_site_type_symbol
_atom_site_label
_atom_site_fract_x
_atom_site_fract_y
_atom_site_fract_z
Si Si1 0.321056 0.047438 0.793203
Si Si2 0.706405 0.564093 0.200040
Si Si3 0.360387 0.260593 0.292041
Si Si4 0.822714 0.000000 0.500000
Si Si5 0.181766 0.156056 0.303813
Si Si6 0.365159 0.131358 0.298477
Si Si7 0.055843 0.303236 0.289753
Si Si8 0.218692 0.692152 0.806221
O O1 0.264810 0.060958 0.753603
O O2 0.358696 0.082031 0.724626
O O3 0.328324 0.000000 0.728912
O O4 0.325227 0.047069 0.000000
O O5 0.680243 0.536297 0.345417
O O6 0.688803 0.612156 0.209318
O O7 0.701514 0.549780 0.000000
O O8 0.362381 0.262462 0.500000
O O9 0.354103 0.308117 0.228941
O O10 0.408063 0.234432 0.232358
O O11 0.312526 0.232782 0.246255
O O12 0.166927 0.146637 0.500000
O O13 0.234989 0.178878 0.305792
O O14 0.358173 0.141910 0.500000
O O15 0.415824 0.153627 0.243703
O O16 0.320740 0.154369 0.201256
O O17 0.054131 0.301585 0.500000
O O18 0.000000 0.300809 0.226752
O O19 0.237196 0.697182 0.000000
#
# Coordination Sequence:
#
# PCOD9484866 Si02
#       8
#    16  16  16   4  16  16  16  16
#     4  10  20  32  45  64  92 122 158 205 248 293
#     4  11  22  34  49  71  98 135 178 212 248 294
#     4   9  19  32  47  69  93 124 163 201 242 299
#     4  12  22  36  52  70  94 140 176 220 244 282
#     4  11  20  31  45  66  98 133 166 203 246 291
#     4  10  19  29  47  70  90 117 159 203 247 298
#     4   8  15  31  52  72  92 118 155 204 255 299
#     4  11  20  29  43  63  93 129 163 200 241 291
#
# _framework density 17.294266
#
# number of rings (size 3 to 8) (size 9 to 14) (size 15 to 20)
#    0.000    1.931    2.759    3.517    0.966    3.034 
#    0.000    0.000    0.000   10.759    0.000    2.897 
#    0.000    0.000    0.000    1.241    0.000    2.207 
#
# Total GULP energy -322977.652410 kJ/mol
# GULP energy per Si atom -5568.580214 kJ/mol
# Density = 1.725490 g / cm^3
# Si number density = 17.294266 Si / 1000 Ang^3
#
#
#
# Elastic Constant Matrix: (Units=GPa)
#
#
# Indices 1 2 3 4 5 6 
#
# 1 38.3027 39.7677 3.3790 0.0000 0.0000 0.0000
# 2 39.7677 154.9183 20.2520 0.0000 0.0000 0.0000
# 3 3.3790 20.2520 58.4506 0.0000 0.0000 0.0000
# 4 0.0000 0.0000 0.0000 16.6555 0.0000 0.0000
# 5 0.0000 0.0000 0.0000 0.0000 -5.6585 0.0000
# 6 0.0000 0.0000 0.0000 0.0000 0.0000 5.6128
#
#
#
# Elastic Compliance Matrix: (Units=1/GPa)
#
#
# Indices 1 2 3 4 5 6 
#
# 1 0.035670 -0.009308 0.001163 0.000000 0.000000 0.000000
# 2 -0.009308 0.009190 -0.002646 0.000000 0.000000 0.000000
# 3 0.001163 -0.002646 0.017958 0.000000 0.000000 0.000000
# 4 0.000000 0.000000 0.000000 0.060040 0.000000 0.000000
# 5 0.000000 0.000000 0.000000 0.000000 -0.176724 0.000000
# 6 0.000000 0.000000 0.000000 0.000000 0.000000 0.178164
#
#
# Mechanical properties :
#
#
# Convention : Reuss Voigt Hill
#
# Bulk Modulus (GPa) = 24.25116 42.05210 33.15163
# Shear Modulus (GPa) = 31.32306 15.87348 23.59827
#
# Velocity S-wave (km/s) = 4.26041 3.03288 3.69794
# Velocity P-wave (km/s) = 6.18503 6.05252 6.11913
#
# Compressibility (1/GPa) = 0.04123514
#
# Stress axis : x y z
#
# Youngs Moduli (GPa) = 28.03501 108.80867 55.68526
#
# Poissons Ratio (x) = 1.01285 -0.06477
# Poissons Ratio (y) = 0.26096 0.14735
# Poissons Ratio (z) = -0.03261 0.28793
#
# Static dielectric constant tensor:
#      x y z
#    x 1.560180 0.000000 0.000000 
#    y 0.000000 1.629020 0.000000 
#    z 0.000000 0.000000 1.653560 
# 
# From -- ./inp_files/17307.got.cif
#   From: 2010.05.17/outbox.cif.g08.bks.cpg/sg65_9_cif.got.tgz:17307.got - 2010.06.03 17:01:31.
