data_PCOD9484960
_publ_section_title
;
Structure prediction by ZEFSAII (Michael W. Deem and Ramdas Pophale) SiO2 
 PCOD9484960
Probable space group: C M M M
;
_chemical_formula_sum "Si O2"
_cell_formula_units_Z 72
_cell_length_a 29.295496
_cell_length_b 8.596185
_cell_length_c 19.057088
_cell_angle_alpha 90.000000
_cell_angle_beta 90.000000
_cell_angle_gamma 90.000000
_cell_volume 4799.137005
_symmetry_space_group_name_H-M "C M M M"
_symmetry_group_IT_number 65
_symmetry_cell_setting 'orthorhombic'
loop_
_space_group_symop_operation_xyz
x,y,z
-x,-y,z
x,-y,-z
-x,y,-z
-x,-y,-z
x,y,-z
-x,y,z
x,-y,z
1/2+x,1/2+y,z
1/2-x,1/2-y,z
1/2+x,1/2-y,-z
1/2-x,1/2+y,-z
1/2-x,1/2-y,-z
1/2+x,1/2+y,-z
1/2-x,1/2+y,z
1/2+x,1/2-y,z
loop_
_atom_site_type_symbol
_atom_site_label
_atom_site_fract_x
_atom_site_fract_y
_atom_site_fract_z
Si Si1 0.801294 0.687982 0.500000
Si Si2 0.198259 0.186846 0.229510
Si Si3 0.301813 0.687780 0.924644
Si Si4 0.948255 0.187567 0.581790
Si Si5 0.643466 0.186066 0.638747
O O1 0.800208 0.500000 0.500000
O O2 0.750000 0.750000 0.500000
O O3 0.828110 0.739116 0.430117
O O4 0.250000 0.250000 0.237227
O O5 0.180012 0.235312 0.151910
O O6 0.167113 0.248189 0.291976
O O7 0.200094 0.000000 0.232303
O O8 0.300915 0.500000 0.924707
O O9 0.250000 0.750000 0.925097
O O10 0.322684 0.737612 0.000000
O O11 0.941204 0.232978 0.500000
O O12 0.908295 0.258915 0.627878
O O13 0.000000 0.233148 0.601317
O O14 0.945734 0.000000 0.584842
O O15 0.645064 0.000000 0.640743
#
# Coordination Sequence:
#
# PCOD9484960 Si02
#       5
#     8  16  16  16  16
#     4  10  22  34  43  58  81 115 154 187 215 250
#     4  10  19  30  44  64  90 121 154 187 224 262
#     4   8  14  25  41  60  83 112 146 182 219 260
#     4   9  18  33  52  71  88 109 141 182 229 274
#     4  11  21  33  46  64  89 118 153 186 223 264
#
# _framework density 15.002697
#
# number of rings (size 3 to 8) (size 9 to 14) (size 15 to 20)
#    0.000    2.444    1.111    2.667    0.000    4.889 
#    0.000    1.111    0.000    0.000    0.000    0.000 
#    0.000    0.889    0.000   10.222    0.000    2.889 
#
# Total GULP energy -200534.783852 kJ/mol
# GULP energy per Si atom -5570.410663 kJ/mol
# Density = 1.496855 g / cm^3
# Si number density = 15.002697 Si / 1000 Ang^3
#
#
#
# Elastic Constant Matrix: (Units=GPa)
#
#
# Indices 1 2 3 4 5 6 
#
# 1 91.7954 23.2220 69.8094 0.0000 0.0000 0.0000
# 2 23.2220 23.1929 32.4519 0.0000 0.0000 0.0000
# 3 69.8094 32.4519 164.5088 0.0000 0.0000 0.0000
# 4 0.0000 0.0000 0.0000 3.1853 0.0000 0.0000
# 5 0.0000 0.0000 0.0000 0.0000 4.8361 0.0000
# 6 0.0000 0.0000 0.0000 0.0000 0.0000 22.3868
#
#
#
# Elastic Compliance Matrix: (Units=1/GPa)
#
#
# Indices 1 2 3 4 5 6 
#
# 1 0.017589 -0.009900 -0.005511 0.000000 0.000000 0.000000
# 2 -0.009900 0.065127 -0.008646 0.000000 0.000000 0.000000
# 3 -0.005511 -0.008646 0.010123 0.000000 0.000000 0.000000
# 4 0.000000 0.000000 0.000000 0.313943 0.000000 0.000000
# 5 0.000000 0.000000 0.000000 0.000000 0.206776 0.000000
# 6 0.000000 0.000000 0.000000 0.000000 0.000000 0.044669
#
#
# Mechanical properties :
#
#
# Convention : Reuss Voigt Hill
#
# Bulk Modulus (GPa) = 22.35914 58.94043 40.64978
# Shear Modulus (GPa) = 6.93240 16.34924 11.64082
#
# Velocity S-wave (km/s) = 2.15193 3.30472 2.78855
# Velocity P-wave (km/s) = 4.59458 7.34394 6.12550
#
# Compressibility (1/GPa) = 0.04472444
#
# Stress axis : x y z
#
# Youngs Moduli (GPa) = 56.85220 15.35460 98.78551
#
# Poissons Ratio (x) = 0.15201 0.54442
# Poissons Ratio (y) = 0.56285 0.85412
# Poissons Ratio (z) = 0.31332 0.13276
#
# Static dielectric constant tensor:
#      x y z
#    x 1.464220 0.000000 0.000000 
#    y 0.000000 1.510050 0.000000 
#    z 0.000000 0.000000 1.538690 
# 
# From -- ./inp_files/49477.got.cif
#   From: 2010.05.17/outbox.cif.g08.bks.cpg/sg65_25_cif.got.tgz:49477.got - 2010.06.03 17:01:31.
