data_PCOD9485301
_publ_section_title
;
Structure prediction by ZEFSAII (Michael W. Deem and Ramdas Pophale) SiO2 
 PCOD9485301
Probable space group: C M M M
;
_chemical_formula_sum "Si O2"
_cell_formula_units_Z 56
_cell_length_a 14.508918
_cell_length_b 11.316031
_cell_length_c 13.691591
_cell_angle_alpha 90.000000
_cell_angle_beta 90.000000
_cell_angle_gamma 90.000000
_cell_volume 2247.931494
_symmetry_space_group_name_H-M "C M M M"
_symmetry_group_IT_number 65
_symmetry_cell_setting 'orthorhombic'
loop_
_space_group_symop_operation_xyz
x,y,z
-x,-y,z
x,-y,-z
-x,y,-z
-x,-y,-z
x,y,-z
-x,y,z
x,-y,z
1/2+x,1/2+y,z
1/2-x,1/2-y,z
1/2+x,1/2-y,-z
1/2-x,1/2+y,-z
1/2-x,1/2-y,-z
1/2+x,1/2+y,-z
1/2-x,1/2+y,z
1/2+x,1/2-y,z
loop_
_atom_site_type_symbol
_atom_site_label
_atom_site_fract_x
_atom_site_fract_y
_atom_site_fract_z
Si Si1 0.392305 0.000000 0.881763
Si Si2 0.888046 0.238817 0.887771
Si Si3 0.647561 0.627670 0.306514
Si Si4 0.857500 0.627900 0.616864
O O1 0.355917 0.870487 0.854440
O O2 0.500000 0.000000 0.856018
O O3 0.388310 0.000000 0.000000
O O4 0.853099 0.145105 0.809982
O O5 0.000000 0.238442 0.886563
O O6 0.860097 0.217705 0.000000
O O7 0.606505 0.500000 0.331325
O O8 0.750314 0.626806 0.350883
O O9 0.602734 0.748904 0.344710
O O10 0.862891 0.630585 0.500000
O O11 0.895464 0.500000 0.650057
#
# Coordination Sequence:
#
# PCOD9485301 Si02
#       4
#     8  16  16  16
#     4   7  12  26  46  66  89 125 173 211 235 268
#     4   9  18  32  50  73 104 141 175 206 244 292
#     4  10  19  30  50  79 105 131 167 208 250 300
#     4   9  19  37  58  76  97 129 168 211 259 307
#
# _framework density 24.911791000000001
#
# number of rings (size 3 to 8) (size 9 to 14) (size 15 to 20)
#    0.000    3.000    0.000    3.429    2.000    2.857 
#    0.000    4.286    0.000    5.143    0.000   12.000 
#    0.000    0.000    0.000    0.000    0.000    0.000 
#
# Total GULP energy -156424.730502 kJ/mol
# GULP energy per Si atom -5586.597518 kJ/mol
# Density = 2.485509 g / cm^3
# Si number density = 24.911791 Si / 1000 Ang^3
#
#
#
# Elastic Constant Matrix: (Units=GPa)
#
#
# Indices 1 2 3 4 5 6 
#
# 1 97.3461 16.8809 10.0313 0.0000 0.0000 0.0000
# 2 16.8809 258.8306 62.9441 0.0000 0.0000 0.0000
# 3 10.0313 62.9441 87.8434 0.0000 0.0000 0.0000
# 4 0.0000 0.0000 0.0000 40.0844 0.0000 0.0000
# 5 0.0000 0.0000 0.0000 0.0000 43.9794 0.0000
# 6 0.0000 0.0000 0.0000 0.0000 0.0000 -10.5335
#
#
#
# Elastic Compliance Matrix: (Units=1/GPa)
#
#
# Indices 1 2 3 4 5 6 
#
# 1 0.010443 -0.000474 -0.000853 0.000000 0.000000 0.000000
# 2 -0.000474 0.004700 -0.003314 0.000000 0.000000 0.000000
# 3 -0.000853 -0.003314 0.013856 0.000000 0.000000 0.000000
# 4 0.000000 0.000000 0.000000 0.024947 0.000000 0.000000
# 5 0.000000 0.000000 0.000000 0.000000 0.022738 0.000000
# 6 0.000000 0.000000 0.000000 0.000000 0.000000 -0.094935
#
#
# Mechanical properties :
#
#
# Convention : Reuss Voigt Hill
#
# Bulk Modulus (GPa) = 50.71621 69.30363 60.00992
# Shear Modulus (GPa) = -2085.91193 38.31698 -1023.79747
#
# Velocity S-wave (km/s) = -28.96786 3.92612 -20.29436
# Velocity P-wave (km/s) = 33.14282 6.95935 22.91303
#
# Compressibility (1/GPa) = 0.01971756
#
# Stress axis : x y z
#
# Youngs Moduli (GPa) = 95.76093 212.75150 72.17141
#
# Poissons Ratio (x) = 0.10076 0.06157
# Poissons Ratio (y) = 0.04535 0.23917
# Poissons Ratio (z) = 0.08170 0.70504
#
# Static dielectric constant tensor:
#      x y z
#    x 1.930270 0.000000 0.000000 
#    y 0.000000 2.025000 0.000000 
#    z 0.000000 0.000000 1.956190 
# 
# From -- ./inp_files/28093.got.cif
#   From: 2010.05.17/outbox.cif.g08.bks.cpg/sg65_15_cif.got.tgz:28093.got - 2010.06.03 17:01:31.
