data_PCOD9485329
_publ_section_title
;
Structure prediction by ZEFSAII (Michael W. Deem and Ramdas Pophale) SiO2 
 PCOD9485329
Probable space group: C M M M
;
_chemical_formula_sum "Si O2"
_cell_formula_units_Z 112
_cell_length_a 33.097735
_cell_length_b 13.904565
_cell_length_c 13.702999
_cell_angle_alpha 90.000000
_cell_angle_beta 90.000000
_cell_angle_gamma 90.000000
_cell_volume 6306.251794
_symmetry_space_group_name_H-M "C M M M"
_symmetry_group_IT_number 65
_symmetry_cell_setting 'orthorhombic'
loop_
_space_group_symop_operation_xyz
x,y,z
-x,-y,z
x,-y,-z
-x,y,-z
-x,-y,-z
x,y,-z
-x,y,z
x,-y,z
1/2+x,1/2+y,z
1/2-x,1/2-y,z
1/2+x,1/2-y,-z
1/2-x,1/2+y,-z
1/2-x,1/2-y,-z
1/2+x,1/2+y,-z
1/2-x,1/2+y,z
1/2+x,1/2-y,z
loop_
_atom_site_type_symbol
_atom_site_label
_atom_site_fract_x
_atom_site_fract_y
_atom_site_fract_z
Si Si1 0.635874 0.885560 0.612664
Si Si2 0.766885 0.357872 0.392826
Si Si3 0.258154 0.892703 0.822759
Si Si4 0.951528 0.111979 0.114098
Si Si5 0.390122 0.255834 0.216303
Si Si6 0.657049 0.891134 0.113397
Si Si7 0.172678 0.116103 0.888771
O O1 0.623215 0.871583 0.500000
O O2 0.684499 0.868413 0.615418
O O3 0.615710 0.805842 0.684075
O O4 0.629049 0.000000 0.636096
O O5 0.755969 0.397210 0.500000
O O6 0.750000 0.250000 0.392627
O O7 0.749631 0.398486 0.292316
O O8 0.302653 0.850178 0.835779
O O9 0.219166 0.852058 0.875303
O O10 0.263021 0.000000 0.864092
O O11 0.930134 0.185251 0.188378
O O12 0.000000 0.117469 0.121631
O O13 0.939656 0.000000 0.132423
O O14 0.940849 0.132340 0.000000
O O15 0.381133 0.173250 0.136978
O O16 0.354953 0.333578 0.192186
O O17 0.650254 0.000000 0.147589
O O18 0.665487 0.891550 0.000000
O O19 0.171319 0.000000 0.878350
O O20 0.159673 0.139490 0.000000
#
# Coordination Sequence:
#
# PCOD9485329 Si02
#       7
#    16  16  16  16  16  16  16
#     4  10  21  37  56  78 108 146 187 232 280 330
#     4  10  19  31  47  68  92 127 183 242 283 315
#     4  10  19  31  44  62  94 138 179 218 266 318
#     4   9  19  37  61  89 119 148 178 214 263 329
#     4  12  20  32  56  81 104 135 184 231 272 322
#     4  10  20  31  44  68 102 138 177 218 259 311
#     4  10  21  34  48  71 105 144 185 229 279 333
#
# _framework density 17.760152999999999
#
# number of rings (size 3 to 8) (size 9 to 14) (size 15 to 20)
#    0.000    1.857    1.429    4.286    0.000    3.714 
#    0.000    1.429    0.000    4.714    0.000    7.000 
#    0.000    0.000    0.000    0.000    0.000    0.000 
#
# Total GULP energy -311898.983928 kJ/mol
# GULP energy per Si atom -5569.624713 kJ/mol
# Density = 1.771973 g / cm^3
# Si number density = 17.760153 Si / 1000 Ang^3
#
#
#
# Elastic Constant Matrix: (Units=GPa)
#
#
# Indices 1 2 3 4 5 6 
#
# 1 56.5998 33.4008 22.7830 0.0000 0.0000 0.0000
# 2 33.4008 124.7978 42.3861 0.0000 0.0000 0.0000
# 3 22.7830 42.3861 126.8869 0.0000 0.0000 0.0000
# 4 0.0000 0.0000 0.0000 29.8844 0.0000 0.0000
# 5 0.0000 0.0000 0.0000 0.0000 22.4761 0.0000
# 6 0.0000 0.0000 0.0000 0.0000 0.0000 16.5950
#
#
#
# Elastic Compliance Matrix: (Units=1/GPa)
#
#
# Indices 1 2 3 4 5 6 
#
# 1 0.021507 -0.005013 -0.002187 0.000000 0.000000 0.000000
# 2 -0.005013 0.010207 -0.002509 0.000000 0.000000 0.000000
# 3 -0.002187 -0.002509 0.009112 0.000000 0.000000 0.000000
# 4 0.000000 0.000000 0.000000 0.033462 0.000000 0.000000
# 5 0.000000 0.000000 0.000000 0.000000 0.044492 0.000000
# 6 0.000000 0.000000 0.000000 0.000000 0.000000 0.060259
#
#
# Mechanical properties :
#
#
# Convention : Reuss Voigt Hill
#
# Bulk Modulus (GPa) = 46.71518 56.15827 51.43672
# Shear Modulus (GPa) = 24.31981 27.77205 26.04593
#
# Velocity S-wave (km/s) = 3.70448 3.95869 3.83369
# Velocity P-wave (km/s) = 6.68267 7.25148 6.97288
#
# Compressibility (1/GPa) = 0.02140632
#
# Stress axis : x y z
#
# Youngs Moduli (GPa) = 46.49721 97.97175 109.74556
#
# Poissons Ratio (x) = 0.49116 0.24001
# Poissons Ratio (y) = 0.23310 0.27540
# Poissons Ratio (z) = 0.10169 0.24586
#
# Static dielectric constant tensor:
#      x y z
#    x 1.597460 0.000000 0.000000 
#    y 0.000000 1.741600 0.000000 
#    z 0.000000 0.000000 1.640080 
# 
# From -- ./inp_files/48014.got.cif
#   From: 2010.05.17/outbox.cif.g08.bks.cpg/sg65_25_cif.got.tgz:48014.got - 2010.06.03 17:01:31.
