data_PCOD9485720
_publ_section_title
;
Structure prediction by ZEFSAII (Michael W. Deem and Ramdas Pophale) SiO2 
 PCOD9485720
Probable space group: C M M M
;
_chemical_formula_sum "Si O2"
_cell_formula_units_Z 96
_cell_length_a 9.102060
_cell_length_b 15.555678
_cell_length_c 32.770793
_cell_angle_alpha 90.000000
_cell_angle_beta 90.000000
_cell_angle_gamma 90.000000
_cell_volume 4639.974454
_symmetry_space_group_name_H-M "C M M M"
_symmetry_group_IT_number 65
_symmetry_cell_setting 'orthorhombic'
loop_
_space_group_symop_operation_xyz
x,y,z
-x,-y,z
x,-y,-z
-x,y,-z
-x,-y,-z
x,y,-z
-x,y,z
x,-y,z
1/2+x,1/2+y,z
1/2-x,1/2-y,z
1/2+x,1/2-y,-z
1/2-x,1/2+y,-z
1/2-x,1/2-y,-z
1/2+x,1/2+y,-z
1/2-x,1/2+y,z
1/2+x,1/2-y,z
loop_
_atom_site_type_symbol
_atom_site_label
_atom_site_fract_x
_atom_site_fract_y
_atom_site_fract_z
Si Si1 0.668859 0.105727 0.294011
Si Si2 0.823497 0.343968 0.132387
Si Si3 0.676822 0.844512 0.043882
Si Si4 0.835479 0.898201 0.786569
Si Si5 0.335555 0.601680 0.625484
Si Si6 0.675603 0.156498 0.544808
O O1 0.500000 0.133066 0.293869
O O2 0.751738 0.135656 0.253250
O O3 0.750800 0.135758 0.334910
O O4 0.668592 0.000000 0.294009
O O5 0.750000 0.250000 0.131607
O O6 0.786516 0.384972 0.087920
O O7 0.755676 0.386975 0.172127
O O8 0.000000 0.339326 0.135900
O O9 0.500000 0.834651 0.044080
O O10 0.750000 0.750000 0.043706
O O11 0.716562 0.885788 0.000000
O O12 0.000000 0.861369 0.790702
O O13 0.849304 0.000000 0.779881
O O14 0.500000 0.638647 0.621494
O O15 0.349638 0.500000 0.632449
O O16 0.245211 0.612251 0.584000
O O17 0.705892 0.116384 0.500000
O O18 0.500000 0.162794 0.549033
O O19 0.750000 0.250000 0.544172
#
# Coordination Sequence:
#
# PCOD9485720 Si02
#       6
#    16  16  16  16  16  16
#     4   9  17  31  52  76 101 130 166 206 248 296
#     4  10  19  31  49  73 101 130 162 203 250 297
#     4   8  14  25  42  65  92 122 157 197 241 290
#     4  10  20  34  52  73  99 132 169 206 246 296
#     4  10  20  34  54  80 108 136 168 208 252 296
#     4  10  21  37  56  77 104 139 176 212 252 300
#
# _framework density 20.689769999999999
#
# number of rings (size 3 to 8) (size 9 to 14) (size 15 to 20)
#    0.000    2.500    0.000    2.500    0.000    6.000 
#    0.000    2.500    0.000    0.500    0.000    3.500 
#    0.000    0.000    0.000    0.000    0.000    0.000 
#
# Total GULP energy -267594.193442 kJ/mol
# GULP energy per Si atom -5574.879030 kJ/mol
# Density = 2.064268 g / cm^3
# Si number density = 20.689770 Si / 1000 Ang^3
#
#
#
# Elastic Constant Matrix: (Units=GPa)
#
#
# Indices 1 2 3 4 5 6 
#
# 1 144.8644 6.1600 107.4986 0.0000 0.0000 0.0000
# 2 6.1600 14.0179 8.1043 0.0000 0.0000 0.0000
# 3 107.4986 8.1043 233.6376 0.0000 0.0000 0.0000
# 4 0.0000 0.0000 0.0000 0.6842 0.0000 0.0000
# 5 0.0000 0.0000 0.0000 0.0000 34.3166 0.0000
# 6 0.0000 0.0000 0.0000 0.0000 0.0000 18.3041
#
#
#
# Elastic Compliance Matrix: (Units=1/GPa)
#
#
# Indices 1 2 3 4 5 6 
#
# 1 0.010529 -0.001863 -0.004780 0.000000 0.000000 0.000000
# 2 -0.001863 0.073127 -0.001679 0.000000 0.000000 0.000000
# 3 -0.004780 -0.001679 0.006538 0.000000 0.000000 0.000000
# 4 0.000000 0.000000 0.000000 1.461654 0.000000 0.000000
# 5 0.000000 0.000000 0.000000 0.000000 0.029140 0.000000
# 6 0.000000 0.000000 0.000000 0.000000 0.000000 0.054633
#
#
# Mechanical properties :
#
#
# Convention : Reuss Voigt Hill
#
# Bulk Modulus (GPa) = 13.59646 70.67174 42.13410
# Shear Modulus (GPa) = 2.98190 28.71145 15.84668
#
# Velocity S-wave (km/s) = 1.20182 3.72924 2.77053
# Velocity P-wave (km/s) = 2.91748 7.26464 5.53564
#
# Compressibility (1/GPa) = 0.07354853
#
# Stress axis : x y z
#
# Youngs Moduli (GPa) = 94.97313 13.67488 152.95929
#
# Poissons Ratio (x) = 0.02548 0.73114
# Poissons Ratio (y) = 0.17698 0.25684
# Poissons Ratio (z) = 0.45397 0.02296
#
# Static dielectric constant tensor:
#      x y z
#    x 1.715570 0.000000 0.000000 
#    y 0.000000 1.767520 0.000000 
#    z 0.000000 0.000000 1.774860 
# 
# From -- ./inp_files/73069.got.cif
#   From: 2010.05.17/outbox.cif.g08.bks.cpg/sg65_37_cif.got.tgz:73069.got - 2010.06.03 17:01:31.
