data_PCOD9485397
_publ_section_title
;
Structure prediction by ZEFSAII (Michael W. Deem and Ramdas Pophale) SiO2 
 PCOD9485397
Probable space group: C M M M
;
_chemical_formula_sum "Si O2"
_cell_formula_units_Z 112
_cell_length_a 19.666361
_cell_length_b 18.724841
_cell_length_c 18.831965
_cell_angle_alpha 90.000000
_cell_angle_beta 90.000000
_cell_angle_gamma 90.000000
_cell_volume 6934.861371
_symmetry_space_group_name_H-M "C M M M"
_symmetry_group_IT_number 65
_symmetry_cell_setting 'orthorhombic'
loop_
_space_group_symop_operation_xyz
x,y,z
-x,-y,z
x,-y,-z
-x,y,-z
-x,-y,-z
x,y,-z
-x,y,z
x,-y,z
1/2+x,1/2+y,z
1/2-x,1/2-y,z
1/2+x,1/2-y,-z
1/2-x,1/2+y,-z
1/2-x,1/2-y,-z
1/2+x,1/2+y,-z
1/2-x,1/2+y,z
1/2+x,1/2-y,z
loop_
_atom_site_type_symbol
_atom_site_label
_atom_site_fract_x
_atom_site_fract_y
_atom_site_fract_z
Si Si1 0.111590 0.916351 0.577967
Si Si2 0.795648 0.676305 0.283136
Si Si3 0.724166 0.082919 0.581554
Si Si4 0.427169 0.615933 0.269804
Si Si5 0.077755 0.729555 0.802199
Si Si6 0.298565 0.419770 0.184011
Si Si7 0.822763 0.788668 0.916218
O O1 0.090468 0.890400 0.500000
O O2 0.193492 0.913267 0.581894
O O3 0.082703 0.877521 0.646078
O O4 0.092484 0.000000 0.583535
O O5 0.750000 0.750000 0.284914
O O6 0.800267 0.639645 0.360346
O O7 0.869446 0.688444 0.248576
O O8 0.756628 0.621172 0.231722
O O9 0.702441 0.097023 0.500000
O O10 0.706518 0.000000 0.599011
O O11 0.500000 0.581943 0.255378
O O12 0.427037 0.693292 0.234650
O O13 0.364236 0.576429 0.234905
O O14 0.118433 0.744678 0.875445
O O15 0.000000 0.702354 0.810258
O O16 0.278563 0.500000 0.163327
O O17 0.316683 0.366969 0.119206
O O18 0.750000 0.750000 0.903998
O O19 0.835143 0.792502 0.000000
#
# Coordination Sequence:
#
# PCOD9485397 Si02
#       7
#    16  16  16  16  16  16  16
#     4   9  16  26  40  62  94 131 169 206 249 305
#     4  12  18  33  55  78 103 137 182 225 264 315
#     4   9  18  31  49  75 104 134 174 225 275 319
#     4  10  19  31  46  68 100 139 173 209 258 311
#     4  10  20  35  54  77 104 134 173 220 263 307
#     4  11  20  32  52  79 106 139 174 216 264 307
#     4  10  19  36  58  81 108 138 173 209 250 310
#
# _framework density 16.150286999999999
#
# number of rings (size 3 to 8) (size 9 to 14) (size 15 to 20)
#    0.000    1.857    5.714    1.714    0.000    2.286 
#    0.000    1.429    0.000    3.000    0.000    5.000 
#    0.000    2.286    0.000    0.000    0.000    0.000 
#
# Total GULP energy -311981.340818 kJ/mol
# GULP energy per Si atom -5571.095372 kJ/mol
# Density = 1.611353 g / cm^3
# Si number density = 16.150287 Si / 1000 Ang^3
#
#
#
# Elastic Constant Matrix: (Units=GPa)
#
#
# Indices 1 2 3 4 5 6 
#
# 1 107.6968 38.6549 49.0159 0.0000 0.0000 0.0000
# 2 38.6549 65.9462 37.2017 0.0000 0.0000 0.0000
# 3 49.0159 37.2017 123.4892 0.0000 0.0000 0.0000
# 4 0.0000 0.0000 0.0000 10.3001 0.0000 0.0000
# 5 0.0000 0.0000 0.0000 0.0000 3.5535 0.0000
# 6 0.0000 0.0000 0.0000 0.0000 0.0000 298.3521
#
#
#
# Elastic Compliance Matrix: (Units=1/GPa)
#
#
# Indices 1 2 3 4 5 6 
#
# 1 0.012851 -0.005608 -0.003411 0.000000 0.000000 0.000000
# 2 -0.005608 0.020716 -0.004015 0.000000 0.000000 0.000000
# 3 -0.003411 -0.004015 0.010661 0.000000 0.000000 0.000000
# 4 0.000000 0.000000 0.000000 0.097086 0.000000 0.000000
# 5 0.000000 0.000000 0.000000 0.000000 0.281413 0.000000
# 6 0.000000 0.000000 0.000000 0.000000 0.000000 0.003352
#
#
# Mechanical properties :
#
#
# Convention : Reuss Voigt Hill
#
# Bulk Modulus (GPa) = 55.06719 60.76414 57.91566
# Shear Modulus (GPa) = 10.91225 73.92513 42.41869
#
# Velocity S-wave (km/s) = 2.60218 6.77293 5.13050
# Velocity P-wave (km/s) = 6.57261 9.94331 8.42818
#
# Compressibility (1/GPa) = 0.01815963
#
# Stress axis : x y z
#
# Youngs Moduli (GPa) = 77.81600 48.27190 93.79661
#
# Poissons Ratio (x) = 0.27072 0.31997
# Poissons Ratio (y) = 0.43641 0.37657
# Poissons Ratio (z) = 0.26545 0.19380
#
# Static dielectric constant tensor:
#      x y z
#    x 1.570070 0.000000 0.000000 
#    y 0.000000 1.552370 0.000000 
#    z 0.000000 0.000000 1.550830 
# 
# From -- ./inp_files/54834.got.cif
#   From: 2010.05.17/outbox.cif.g08.bks.cpg/sg65_28_cif.got.tgz:54834.got - 2010.06.03 17:01:31.
