data_PCOD9485914
_publ_section_title
;
Structure prediction by ZEFSAII (Michael W. Deem and Ramdas Pophale) SiO2 
 PCOD9485914
Probable space group: C M M M
;
_chemical_formula_sum "Si O2"
_cell_formula_units_Z 104
_cell_length_a 12.864784
_cell_length_b 23.148266
_cell_length_c 18.381068
_cell_angle_alpha 90.000000
_cell_angle_beta 90.000000
_cell_angle_gamma 90.000000
_cell_volume 5473.835033
_symmetry_space_group_name_H-M "C M M M"
_symmetry_group_IT_number 65
_symmetry_cell_setting 'orthorhombic'
loop_
_space_group_symop_operation_xyz
x,y,z
-x,-y,z
x,-y,-z
-x,y,-z
-x,-y,-z
x,y,-z
-x,y,z
x,-y,z
1/2+x,1/2+y,z
1/2-x,1/2-y,z
1/2+x,1/2-y,-z
1/2-x,1/2+y,-z
1/2-x,1/2-y,-z
1/2+x,1/2+y,-z
1/2-x,1/2+y,z
1/2+x,1/2-y,z
loop_
_atom_site_type_symbol
_atom_site_label
_atom_site_fract_x
_atom_site_fract_y
_atom_site_fract_z
Si Si1 0.119372 0.686772 0.582238
Si Si2 0.378320 0.706196 0.853097
Si Si3 0.375995 0.715724 0.312295
Si Si4 0.331482 0.833861 0.913326
Si Si5 0.500000 0.931065 0.088417
Si Si6 0.115384 0.105780 0.414787
Si Si7 0.164417 0.559777 0.586630
O O1 0.167032 0.690712 0.500000
O O2 0.159527 0.726927 0.645976
O O3 0.122596 0.621240 0.609582
O O4 0.000000 0.703891 0.572641
O O5 0.500000 0.688140 0.859989
O O6 0.340496 0.704073 0.769208
O O7 0.371558 0.773302 0.878736
O O8 0.292267 0.668164 0.895654
O O9 0.500000 0.723137 0.302004
O O10 0.363840 0.661797 0.366328
O O11 0.399517 0.890460 0.890319
O O12 0.344855 0.828999 0.000000
O O13 0.500000 0.000000 0.111904
O O14 0.500000 0.933401 0.000000
O O15 0.115862 0.122315 0.500000
O O16 0.211419 0.063492 0.404323
O O17 0.000000 0.082979 0.398232
O O18 0.142369 0.558758 0.500000
O O19 0.124730 0.500000 0.618701
#
# Coordination Sequence:
#
# PCOD9485914 Si02
#       7
#    16  16  16  16   8  16  16
#     4   9  17  30  48  68  91 124 165 212 260 306
#     4  10  19  31  50  80 117 151 176 215 277 331
#     4   9  18  31  48  73 100 131 166 206 258 316
#     4  10  20  33  54  84 112 144 183 221 265 319
#     4   9  18  36  62  88 114 144 184 232 268 303
#     4   9  17  30  48  68  91 119 157 210 261 307
#     4   9  18  29  41  62  87 114 156 205 256 310
#
# _framework density 18.999476999999999
#
# number of rings (size 3 to 8) (size 9 to 14) (size 15 to 20)
#    0.000    2.692    0.769    1.385    0.000    6.462 
#    0.000    5.385    0.000    4.154    0.000    4.308 
#    0.000    0.000    0.000    0.000    0.000    0.462 
#
# Total GULP energy -289470.611536 kJ/mol
# GULP energy per Si atom -5566.742530 kJ/mol
# Density = 1.895623 g / cm^3
# Si number density = 18.999477 Si / 1000 Ang^3
#
#
#
# Elastic Constant Matrix: (Units=GPa)
#
#
# Indices 1 2 3 4 5 6 
#
# 1 100.1340 23.9342 1.1483 0.0000 0.0000 0.0000
# 2 23.9342 97.1273 32.8119 0.0000 0.0000 0.0000
# 3 1.1483 32.8119 57.5217 0.0000 0.0000 0.0000
# 4 0.0000 0.0000 0.0000 12.4232 0.0000 0.0000
# 5 0.0000 0.0000 0.0000 0.0000 8.5571 0.0000
# 6 0.0000 0.0000 0.0000 0.0000 0.0000 28.7825
#
#
#
# Elastic Compliance Matrix: (Units=1/GPa)
#
#
# Indices 1 2 3 4 5 6 
#
# 1 0.010730 -0.003186 0.001603 0.000000 0.000000 0.000000
# 2 -0.003186 0.013699 -0.007751 0.000000 0.000000 0.000000
# 3 0.001603 -0.007751 0.021774 0.000000 0.000000 0.000000
# 4 0.000000 0.000000 0.000000 0.080495 0.000000 0.000000
# 5 0.000000 0.000000 0.000000 0.000000 0.116862 0.000000
# 6 0.000000 0.000000 0.000000 0.000000 0.000000 0.034743
#
#
# Mechanical properties :
#
#
# Convention : Reuss Voigt Hill
#
# Bulk Modulus (GPa) = 36.31604 41.17465 38.74534
# Shear Modulus (GPa) = 16.33194 23.07845 19.70520
#
# Velocity S-wave (km/s) = 2.93507 3.48902 3.22397
# Velocity P-wave (km/s) = 5.53552 6.16032 5.85626
#
# Compressibility (1/GPa) = 0.02753604
#
# Stress axis : x y z
#
# Youngs Moduli (GPa) = 93.19978 72.99726 45.92630
#
# Poissons Ratio (x) = 0.23253 -0.07362
# Poissons Ratio (y) = 0.29689 0.35596
# Poissons Ratio (z) = -0.14939 0.56579
#
# Static dielectric constant tensor:
#      x y z
#    x 1.781130 0.000000 0.000000 
#    y 0.000000 1.776630 0.000000 
#    z 0.000000 0.000000 1.667880 
# 
# From -- ./inp_files/53470.got.cif
#   From: 2010.05.17/outbox.cif.g08.bks.cpg/sg65_27_cif.got.tgz:53470.got - 2010.06.03 17:01:31.
