data_PCOD9485732
_publ_section_title
;
Structure prediction by ZEFSAII (Michael W. Deem and Ramdas Pophale) SiO2 
 PCOD9485732
Probable space group: C M M M
;
_chemical_formula_sum "Si O2"
_cell_formula_units_Z 80
_cell_length_a 20.688731
_cell_length_b 14.032677
_cell_length_c 13.877768
_cell_angle_alpha 90.000000
_cell_angle_beta 90.000000
_cell_angle_gamma 90.000000
_cell_volume 4028.969731
_symmetry_space_group_name_H-M "C M M M"
_symmetry_group_IT_number 65
_symmetry_cell_setting 'orthorhombic'
loop_
_space_group_symop_operation_xyz
x,y,z
-x,-y,z
x,-y,-z
-x,y,-z
-x,-y,-z
x,y,-z
-x,y,z
x,-y,z
1/2+x,1/2+y,z
1/2-x,1/2-y,z
1/2+x,1/2-y,-z
1/2-x,1/2+y,-z
1/2-x,1/2-y,-z
1/2+x,1/2+y,-z
1/2-x,1/2+y,z
1/2+x,1/2-y,z
loop_
_atom_site_type_symbol
_atom_site_label
_atom_site_fract_x
_atom_site_fract_y
_atom_site_fract_z
Si Si1 0.894918 0.697240 0.610002
Si Si2 0.257602 0.108528 0.608619
Si Si3 0.121717 0.106972 0.301068
Si Si4 0.925159 0.604231 0.193622
Si Si5 0.078368 0.197114 0.890710
O O1 0.913333 0.676127 0.500000
O O2 0.817603 0.678723 0.618816
O O3 0.909129 0.806480 0.638225
O O4 0.923611 0.630781 0.693195
O O5 0.230416 0.120463 0.500000
O O6 0.198645 0.115689 0.681463
O O7 0.283645 0.000000 0.614184
O O8 0.104425 0.126708 0.190533
O O9 0.102713 0.000000 0.330234
O O10 0.895226 0.500000 0.177160
O O11 0.897971 0.696303 0.138448
O O12 0.000000 0.598573 0.163799
O O13 0.000000 0.196787 0.884229
O O14 0.096310 0.174215 0.000000
#
# Coordination Sequence:
#
# PCOD9485732 Si02
#       5
#    16  16  16  16  16
#     4  10  19  31  49  73 103 138 172 203 236 280
#     4   9  17  30  50  75 100 129 167 205 241 287
#     4  10  20  32  48  71  98 128 164 208 251 287
#     4   9  18  32  51  77 106 132 159 196 245 298
#     4   9  19  36  56  76  96 121 159 206 253 301
#
# _framework density 19.856192
#
# number of rings (size 3 to 8) (size 9 to 14) (size 15 to 20)
#    0.000    2.600    0.000    1.800    0.000    5.600 
#    0.000    4.000    0.000   11.400    0.000   19.600 
#    0.000    0.000    0.000    0.000    0.000    0.000 
#
# Total GULP energy -223030.498280 kJ/mol
# GULP energy per Si atom -5575.762457 kJ/mol
# Density = 1.981100 g / cm^3
# Si number density = 19.856192 Si / 1000 Ang^3
#
#
#
# Elastic Constant Matrix: (Units=GPa)
#
#
# Indices 1 2 3 4 5 6 
#
# 1 25.7048 4.7053 20.9328 0.0000 0.0000 0.0000
# 2 4.7053 92.4772 -4.0833 0.0000 0.0000 0.0000
# 3 20.9328 -4.0833 80.9327 0.0000 0.0000 0.0000
# 4 0.0000 0.0000 0.0000 10.5864 0.0000 0.0000
# 5 0.0000 0.0000 0.0000 0.0000 53.8160 0.0000
# 6 0.0000 0.0000 0.0000 0.0000 0.0000 20.6473
#
#
#
# Elastic Compliance Matrix: (Units=1/GPa)
#
#
# Indices 1 2 3 4 5 6 
#
# 1 0.050173 -0.003133 -0.013135 0.000000 0.000000 0.000000
# 2 -0.003133 0.011033 0.001367 0.000000 0.000000 0.000000
# 3 -0.013135 0.001367 0.015822 0.000000 0.000000 0.000000
# 4 0.000000 0.000000 0.000000 0.094461 0.000000 0.000000
# 5 0.000000 0.000000 0.000000 0.000000 0.018582 0.000000
# 6 0.000000 0.000000 0.000000 0.000000 0.000000 0.048432
#
#
# Mechanical properties :
#
#
# Convention : Reuss Voigt Hill
#
# Bulk Modulus (GPa) = 21.17440 26.91379 24.04409
# Shear Modulus (GPa) = 17.60263 28.84726 23.22495
#
# Velocity S-wave (km/s) = 2.98066 3.81571 3.42374
# Velocity P-wave (km/s) = 4.74687 5.74427 5.26922
#
# Compressibility (1/GPa) = 0.04722684
#
# Stress axis : x y z
#
# Youngs Moduli (GPa) = 19.93092 90.63526 63.20218
#
# Poissons Ratio (x) = 0.28394 0.83017
# Poissons Ratio (y) = 0.06244 -0.08639
# Poissons Ratio (z) = 0.26179 -0.12389
#
# Static dielectric constant tensor:
#      x y z
#    x 1.708960 0.000000 0.000000 
#    y 0.000000 1.759190 0.000000 
#    z 0.000000 0.000000 1.681110 
# 
# From -- ./inp_files/24638.got.cif
#   From: 2010.05.17/outbox.cif.g08.bks.cpg/sg65_13_cif.got.tgz:24638.got - 2010.06.03 17:01:31.
