data_PCOD9485198
_publ_section_title
;
Structure prediction by ZEFSAII (Michael W. Deem and Ramdas Pophale) SiO2 
 PCOD9485198
Probable space group: C M M M
;
_chemical_formula_sum "Si O2"
_cell_formula_units_Z 104
_cell_length_a 27.209812
_cell_length_b 16.223444
_cell_length_c 14.127352
_cell_angle_alpha 90.000000
_cell_angle_beta 90.000000
_cell_angle_gamma 90.000000
_cell_volume 6236.333924
_symmetry_space_group_name_H-M "C M M M"
_symmetry_group_IT_number 65
_symmetry_cell_setting 'orthorhombic'
loop_
_space_group_symop_operation_xyz
x,y,z
-x,-y,z
x,-y,-z
-x,y,-z
-x,-y,-z
x,y,-z
-x,y,z
x,-y,z
1/2+x,1/2+y,z
1/2-x,1/2-y,z
1/2+x,1/2-y,-z
1/2-x,1/2+y,-z
1/2-x,1/2-y,-z
1/2+x,1/2+y,-z
1/2-x,1/2+y,z
1/2+x,1/2-y,z
loop_
_atom_site_type_symbol
_atom_site_label
_atom_site_fract_x
_atom_site_fract_y
_atom_site_fract_z
Si Si1 0.281651 0.332328 0.749717
Si Si2 0.440298 0.000000 0.610000
Si Si3 0.642530 0.254022 0.393208
Si Si4 0.359477 0.405317 0.113063
Si Si5 0.941947 0.327300 0.294787
Si Si6 0.291952 0.091799 0.394380
Si Si7 0.942076 0.768686 0.889442
O O1 0.250000 0.250000 0.773764
O O2 0.324563 0.306948 0.676823
O O3 0.310123 0.372766 0.836731
O O4 0.245768 0.391255 0.690116
O O5 0.427219 0.082244 0.668104
O O6 0.500000 0.000000 0.604499
O O7 0.422674 0.000000 0.500000
O O8 0.643524 0.285285 0.500000
O O9 0.588201 0.239023 0.355117
O O10 0.668399 0.164106 0.391871
O O11 0.369380 0.500000 0.142106
O O12 0.405144 0.343833 0.133436
O O13 0.353056 0.404122 0.000000
O O14 0.932061 0.305018 0.184880
O O15 0.000000 0.319454 0.310137
O O16 0.268443 0.098130 0.500000
O O17 0.312892 0.000000 0.386274
O O18 0.000000 0.791385 0.879251
O O19 0.934554 0.746008 0.000000
#
# Coordination Sequence:
#
# PCOD9485198 Si02
#       7
#    16   8  16  16  16  16  16
#     4  10  19  33  50  71  99 131 167 206 251 301
#     4   9  18  30  45  71 105 135 166 206 245 289
#     4  10  19  30  47  71  98 128 166 205 243 295
#     4  10  20  34  54  79 103 129 168 215 262 310
#     4  10  19  32  50  74 103 137 170 205 252 305
#     4   9  18  31  48  70  96 128 164 204 248 292
#     4   9  18  34  55  78 103 131 167 211 258 310
#
# _framework density 16.676465
#
# number of rings (size 3 to 8) (size 9 to 14) (size 15 to 20)
#    0.000    2.385    1.538    1.385    1.077    3.385 
#    0.000    1.923    0.000    2.308    0.000    0.000 
#    0.000    2.462    0.000    0.000    0.000    0.000 
#
# Total GULP energy -289634.438231 kJ/mol
# GULP energy per Si atom -5569.893043 kJ/mol
# Density = 1.663851 g / cm^3
# Si number density = 16.676465 Si / 1000 Ang^3
#
#
#
# Elastic Constant Matrix: (Units=GPa)
#
#
# Indices 1 2 3 4 5 6 
#
# 1 51.4738 17.0506 35.6577 0.0000 0.0000 0.0000
# 2 17.0506 58.4476 43.3770 0.0000 0.0000 0.0000
# 3 35.6577 43.3770 77.6609 0.0000 0.0000 0.0000
# 4 0.0000 0.0000 0.0000 22.0521 0.0000 0.0000
# 5 0.0000 0.0000 0.0000 0.0000 27.7304 0.0000
# 6 0.0000 0.0000 0.0000 0.0000 0.0000 18.2944
#
#
#
# Elastic Compliance Matrix: (Units=1/GPa)
#
#
# Indices 1 2 3 4 5 6 
#
# 1 0.028685 0.002402 -0.014512 0.000000 0.000000 0.000000
# 2 0.002402 0.029424 -0.017538 0.000000 0.000000 0.000000
# 3 -0.014512 -0.017538 0.029335 0.000000 0.000000 0.000000
# 4 0.000000 0.000000 0.000000 0.045347 0.000000 0.000000
# 5 0.000000 0.000000 0.000000 0.000000 0.036062 0.000000
# 6 0.000000 0.000000 0.000000 0.000000 0.000000 0.054662
#
#
# Mechanical properties :
#
#
# Convention : Reuss Voigt Hill
#
# Bulk Modulus (GPa) = 35.52540 42.19475 38.86007
# Shear Modulus (GPa) = 17.11200 19.71517 18.41359
#
# Velocity S-wave (km/s) = 3.20678 3.44207 3.32650
# Velocity P-wave (km/s) = 5.92117 6.41514 6.17310
#
# Compressibility (1/GPa) = 0.02814888
#
# Stress axis : x y z
#
# Youngs Moduli (GPa) = 34.86178 33.98568 34.08872
#
# Poissons Ratio (x) = -0.08164 0.49470
# Poissons Ratio (y) = -0.08375 0.59784
# Poissons Ratio (z) = 0.50592 0.59603
#
# Static dielectric constant tensor:
#      x y z
#    x 1.567420 0.000000 0.000000 
#    y 0.000000 1.556200 0.000000 
#    z 0.000000 0.000000 1.569380 
# 
# From -- ./inp_files/32521.got.cif
#   From: 2010.05.17/outbox.cif.g08.bks.cpg/sg65_17_cif.got.tgz:32521.got - 2010.06.03 17:01:31.
