data_PCOD9485277
_publ_section_title
;
Structure prediction by ZEFSAII (Michael W. Deem and Ramdas Pophale) SiO2 
 PCOD9485277
Probable space group: C M M M
;
_chemical_formula_sum "Si O2"
_cell_formula_units_Z 80
_cell_length_a 29.778005
_cell_length_b 18.047200
_cell_length_c 8.051222
_cell_angle_alpha 90.000000
_cell_angle_beta 90.000000
_cell_angle_gamma 90.000000
_cell_volume 4326.804090
_symmetry_space_group_name_H-M "C M M M"
_symmetry_group_IT_number 65
_symmetry_cell_setting 'orthorhombic'
loop_
_space_group_symop_operation_xyz
x,y,z
-x,-y,z
x,-y,-z
-x,y,-z
-x,-y,-z
x,y,-z
-x,y,z
x,-y,z
1/2+x,1/2+y,z
1/2-x,1/2-y,z
1/2+x,1/2-y,-z
1/2-x,1/2+y,-z
1/2-x,1/2-y,-z
1/2+x,1/2+y,-z
1/2-x,1/2+y,z
1/2+x,1/2-y,z
loop_
_atom_site_type_symbol
_atom_site_label
_atom_site_fract_x
_atom_site_fract_y
_atom_site_fract_z
Si Si1 0.731709 0.909654 0.183007
Si Si2 0.363917 0.914766 0.694194
Si Si3 0.950250 0.672064 0.803782
Si Si4 0.052329 0.150092 0.809019
Si Si5 0.107651 0.088565 0.500000
Si Si6 0.289105 0.409427 0.500000
O O1 0.680038 0.886467 0.210218
O O2 0.762815 0.884892 0.334723
O O3 0.731116 0.000000 0.188747
O O4 0.747585 0.887284 0.000000
O O5 0.351672 0.915315 0.500000
O O6 0.408598 0.867973 0.720349
O O7 0.372496 0.000000 0.745565
O O8 0.946124 0.760798 0.790113
O O9 0.000000 0.650958 0.740052
O O10 0.948890 0.654392 0.000000
O O11 0.082344 0.115456 0.665513
O O12 0.000000 0.127952 0.788789
O O13 0.065581 0.132095 0.000000
O O14 0.159292 0.114799 0.500000
O O15 0.107827 0.000000 0.500000
O O16 0.288655 0.500000 0.500000
#
# Coordination Sequence:
#
# PCOD9485277 Si02
#       6
#    16  16  16  16   8   8
#     4   9  16  29  50  72 101 143 181 215 260 310
#     4  10  19  30  48  78 112 142 181 231 270 303
#     4   9  19  35  53  74 103 144 189 224 260 311
#     4   9  20  39  59  80 109 145 182 214 252 316
#     4  11  23  36  58  88 112 134 166 215 277 328
#     4   9  18  33  49  75 108 132 167 215 260 320
#
# _framework density 18.489398000000001
#
# number of rings (size 3 to 8) (size 9 to 14) (size 15 to 20)
#    0.000    2.600    1.000    2.100    1.400    4.000 
#    0.000    5.000    0.000    2.400    0.000    4.200 
#    0.000    0.000    0.000    0.000    0.000    0.000 
#
# Total GULP energy -223068.590860 kJ/mol
# GULP energy per Si atom -5576.714771 kJ/mol
# Density = 1.844732 g / cm^3
# Si number density = 18.489398 Si / 1000 Ang^3
#
#
#
# Elastic Constant Matrix: (Units=GPa)
#
#
# Indices 1 2 3 4 5 6 
#
# 1 135.1497 27.2950 91.2144 0.0000 0.0000 0.0000
# 2 27.2950 10.7732 26.1715 0.0000 0.0000 0.0000
# 3 91.2144 26.1715 137.9990 0.0000 0.0000 0.0000
# 4 0.0000 0.0000 0.0000 14.3613 0.0000 0.0000
# 5 0.0000 0.0000 0.0000 0.0000 0.6779 0.0000
# 6 0.0000 0.0000 0.0000 0.0000 0.0000 225.7806
#
#
#
# Elastic Compliance Matrix: (Units=1/GPa)
#
#
# Indices 1 2 3 4 5 6 
#
# 1 0.017343 -0.029840 -0.005804 0.000000 0.000000 0.000000
# 2 -0.029840 0.223465 -0.022657 0.000000 0.000000 0.000000
# 3 -0.005804 -0.022657 0.015380 0.000000 0.000000 0.000000
# 4 0.000000 0.000000 0.000000 0.069631 0.000000 0.000000
# 5 0.000000 0.000000 0.000000 0.000000 1.475244 0.000000
# 6 0.000000 0.000000 0.000000 0.000000 0.000000 0.004429
#
#
# Mechanical properties :
#
#
# Convention : Reuss Voigt Hill
#
# Bulk Modulus (GPa) = 7.16404 63.69819 35.43111
# Shear Modulus (GPa) = 2.53985 57.44668 29.99327
#
# Velocity S-wave (km/s) = 1.17331 5.58010 4.03201
# Velocity P-wave (km/s) = 2.39137 8.72025 6.39380
#
# Compressibility (1/GPa) = 0.13958611
#
# Stress axis : x y z
#
# Youngs Moduli (GPa) = 57.65988 4.47498 65.02053
#
# Poissons Ratio (x) = 0.13353 0.37740
# Poissons Ratio (y) = 1.72056 1.47314
# Poissons Ratio (z) = 0.33467 0.10139
#
# Static dielectric constant tensor:
#      x y z
#    x 1.625150 0.000000 0.000000 
#    y 0.000000 1.617300 0.000000 
#    z 0.000000 0.000000 1.656230 
# 
# From -- ./inp_files/16093.got.cif
#   From: 2010.05.17/outbox.cif.g08.bks.cpg/sg65_9_cif.got.tgz:16093.got - 2010.06.03 17:01:31.
