data_PCOD9485183
_publ_section_title
;
Structure prediction by ZEFSAII (Michael W. Deem and Ramdas Pophale) SiO2 
 PCOD9485183
Probable space group: C M M M
;
_chemical_formula_sum "Si O2"
_cell_formula_units_Z 80
_cell_length_a 20.201695
_cell_length_b 7.784400
_cell_length_c 27.063944
_cell_angle_alpha 90.000000
_cell_angle_beta 90.000000
_cell_angle_gamma 90.000000
_cell_volume 4256.023723
_symmetry_space_group_name_H-M "C M M M"
_symmetry_group_IT_number 65
_symmetry_cell_setting 'orthorhombic'
loop_
_space_group_symop_operation_xyz
x,y,z
-x,-y,z
x,-y,-z
-x,y,-z
-x,-y,-z
x,y,-z
-x,y,z
x,-y,z
1/2+x,1/2+y,z
1/2-x,1/2-y,z
1/2+x,1/2-y,-z
1/2-x,1/2+y,-z
1/2-x,1/2-y,-z
1/2+x,1/2+y,-z
1/2-x,1/2+y,z
1/2+x,1/2-y,z
loop_
_atom_site_type_symbol
_atom_site_label
_atom_site_fract_x
_atom_site_fract_y
_atom_site_fract_z
Si Si1 0.828214 0.707001 0.446940
Si Si2 0.576374 0.709820 0.140897
Si Si3 0.172838 0.703955 0.660465
Si Si4 0.826247 0.206944 0.055593
Si Si5 0.925249 0.794120 0.748281
O O1 0.855224 0.771210 0.500000
O O2 0.835613 0.500000 0.447330
O O3 0.750000 0.750000 0.447123
O O4 0.851239 0.773064 0.393322
O O5 0.500000 0.757889 0.131778
O O6 0.578717 0.500000 0.140504
O O7 0.625172 0.772044 0.098206
O O8 0.594140 0.766764 0.196604
O O9 0.170317 0.500000 0.657015
O O10 0.250000 0.750000 0.667882
O O11 0.126760 0.754798 0.705757
O O12 0.750000 0.250000 0.066282
O O13 0.832033 0.000000 0.054532
O O14 0.841603 0.270304 0.000000
O O15 0.000000 0.730427 0.737407
O O16 0.929150 0.000000 0.751458
#
# Coordination Sequence:
#
# PCOD9485183 Si02
#       5
#    16  16  16  16  16
#     4   8  14  25  41  62  88 116 145 180 224 269
#     4   8  15  29  48  68  88 113 149 189 225 262
#     4  10  19  30  47  71  96 120 151 191 229 271
#     4   9  17  29  46  68  93 119 146 179 220 265
#     4   9  18  33  50  66  90 124 156 189 232 277
#
# _framework density 18.796887000000002
#
# number of rings (size 3 to 8) (size 9 to 14) (size 15 to 20)
#    0.000    3.200    0.000    1.800    0.000    2.400 
#    0.000    5.000    0.000    2.400    0.000    7.000 
#    0.000    0.000    0.000    0.000    0.000    0.000 
#
# Total GULP energy -222684.339875 kJ/mol
# GULP energy per Si atom -5567.108497 kJ/mol
# Density = 1.875410 g / cm^3
# Si number density = 18.796887 Si / 1000 Ang^3
#
#
#
# Elastic Constant Matrix: (Units=GPa)
#
#
# Indices 1 2 3 4 5 6 
#
# 1 86.2936 3.6698 125.7002 0.0000 0.0000 0.0000
# 2 3.6698 24.8900 11.2126 0.0000 0.0000 0.0000
# 3 125.7002 11.2126 237.9678 0.0000 0.0000 0.0000
# 4 0.0000 0.0000 0.0000 7.7029 0.0000 0.0000
# 5 0.0000 0.0000 0.0000 0.0000 -27.8986 0.0000
# 6 0.0000 0.0000 0.0000 0.0000 0.0000 18.1365
#
#
#
# Elastic Compliance Matrix: (Units=1/GPa)
#
#
# Indices 1 2 3 4 5 6 
#
# 1 0.050794 0.004697 -0.027052 0.000000 0.000000 0.000000
# 2 0.004697 0.041483 -0.004436 0.000000 0.000000 0.000000
# 3 -0.027052 -0.004436 0.018701 0.000000 0.000000 0.000000
# 4 0.000000 0.000000 0.000000 0.129821 0.000000 0.000000
# 5 0.000000 0.000000 0.000000 0.000000 -0.035844 0.000000
# 6 0.000000 0.000000 0.000000 0.000000 0.000000 0.055137
#
#
# Mechanical properties :
#
#
# Convention : Reuss Voigt Hill
#
# Bulk Modulus (GPa) = 17.42266 70.03517 43.72892
# Shear Modulus (GPa) = 15.02387 13.49275 14.25831
#
# Velocity S-wave (km/s) = 2.83021 2.68212 2.75716
# Velocity P-wave (km/s) = 4.46869 6.85066 5.78363
#
# Compressibility (1/GPa) = 0.05739650
#
# Stress axis : x y z
#
# Youngs Moduli (GPa) = 19.68743 24.10653 53.47397
#
# Poissons Ratio (x) = -0.11324 1.44657
# Poissons Ratio (y) = -0.09248 0.23720
# Poissons Ratio (z) = 0.53258 0.10693
#
# Static dielectric constant tensor:
#      x y z
#    x 1.585760 0.000000 0.000000 
#    y 0.000000 1.811720 0.000000 
#    z 0.000000 0.000000 1.719630 
# 
# From -- ./inp_files/72785.got.cif
#   From: 2010.05.17/outbox.cif.g08.bks.cpg/sg65_37_cif.got.tgz:72785.got - 2010.06.03 17:01:31.
