data_PCOD9485777
_publ_section_title
;
Structure prediction by ZEFSAII (Michael W. Deem and Ramdas Pophale) SiO2 
 PCOD9485777
Probable space group: C M M M
;
_chemical_formula_sum "Si O2"
_cell_formula_units_Z 88
_cell_length_a 18.681697
_cell_length_b 8.649867
_cell_length_c 30.190047
_cell_angle_alpha 90.000000
_cell_angle_beta 90.000000
_cell_angle_gamma 90.000000
_cell_volume 4878.536323
_symmetry_space_group_name_H-M "C M M M"
_symmetry_group_IT_number 65
_symmetry_cell_setting 'orthorhombic'
loop_
_space_group_symop_operation_xyz
x,y,z
-x,-y,z
x,-y,-z
-x,y,-z
-x,-y,-z
x,y,-z
-x,y,z
x,-y,z
1/2+x,1/2+y,z
1/2-x,1/2-y,z
1/2+x,1/2-y,-z
1/2-x,1/2+y,-z
1/2-x,1/2-y,-z
1/2+x,1/2+y,-z
1/2-x,1/2+y,z
1/2+x,1/2-y,z
loop_
_atom_site_type_symbol
_atom_site_label
_atom_site_fract_x
_atom_site_fract_y
_atom_site_fract_z
Si Si1 0.084145 0.814117 0.549036
Si Si2 0.831013 0.686311 0.271811
Si Si3 0.084287 0.685254 0.000000
Si Si4 0.668972 0.315451 0.916173
Si Si5 0.668551 0.186184 0.175989
Si Si6 0.330424 0.185098 0.631831
O O1 0.109733 0.763419 0.500000
O O2 0.125563 0.743948 0.590129
O O3 0.000000 0.776333 0.552059
O O4 0.090577 0.000000 0.550654
O O5 0.827829 0.500000 0.271444
O O6 0.750000 0.750000 0.271962
O O7 0.863869 0.730757 0.224076
O O8 0.861808 0.733094 0.319723
O O9 0.122421 0.754074 0.043246
O O10 0.092889 0.500000 0.000000
O O11 0.000000 0.721452 0.000000
O O12 0.672463 0.500000 0.916308
O O13 0.750000 0.250000 0.920409
O O14 0.637951 0.256807 0.869046
O O15 0.750000 0.250000 0.177228
O O16 0.669627 0.000000 0.172270
O O17 0.250000 0.250000 0.629142
O O18 0.327612 0.000000 0.630785
#
# Coordination Sequence:
#
# PCOD9485777 Si02
#       6
#    16  16   8  16  16  16
#     4   9  19  36  54  70  92 125 164 206 253 302
#     4   8  15  26  42  67  99 131 161 197 240 287
#     4  11  24  41  58  75  99 133 170 207 254 307
#     4  11  21  34  54  80 108 134 167 209 249 290
#     4   9  15  26  45  70 100 131 165 202 243 288
#     4  10  19  31  49  75 104 132 164 202 245 292
#
# _framework density 18.038197
#
# number of rings (size 3 to 8) (size 9 to 14) (size 15 to 20)
#    0.000    2.455    0.000    4.909    0.000    3.273 
#    0.000    0.909    0.000    1.091    0.000    2.545 
#    0.000    0.000    0.000    0.000    0.000    0.000 
#
# Total GULP energy -245107.118456 kJ/mol
# GULP energy per Si atom -5570.616329 kJ/mol
# Density = 1.799714 g / cm^3
# Si number density = 18.038197 Si / 1000 Ang^3
#
#
#
# Elastic Constant Matrix: (Units=GPa)
#
#
# Indices 1 2 3 4 5 6 
#
# 1 37.2572 30.6589 65.6855 0.0000 0.0000 0.0000
# 2 30.6589 67.5566 65.2040 0.0000 0.0000 0.0000
# 3 65.6855 65.2040 252.8660 0.0000 0.0000 0.0000
# 4 0.0000 0.0000 0.0000 27.1975 0.0000 0.0000
# 5 0.0000 0.0000 0.0000 0.0000 -10.0976 0.0000
# 6 0.0000 0.0000 0.0000 0.0000 0.0000 17.5360
#
#
#
# Elastic Compliance Matrix: (Units=1/GPa)
#
#
# Indices 1 2 3 4 5 6 
#
# 1 0.060664 -0.016404 -0.011529 0.000000 0.000000 0.000000
# 2 -0.016404 0.024143 -0.001964 0.000000 0.000000 0.000000
# 3 -0.011529 -0.001964 0.007456 0.000000 0.000000 0.000000
# 4 0.000000 0.000000 0.000000 0.036768 0.000000 0.000000
# 5 0.000000 0.000000 0.000000 0.000000 -0.099034 0.000000
# 6 0.000000 0.000000 0.000000 0.000000 0.000000 0.057025
#
#
# Mechanical properties :
#
#
# Convention : Reuss Voigt Hill
#
# Bulk Modulus (GPa) = 30.79813 75.64185 53.21999
# Shear Modulus (GPa) = 31.71788 20.00262 25.86025
#
# Velocity S-wave (km/s) = 4.19785 3.33363 3.79045
# Velocity P-wave (km/s) = 6.37234 7.53941 6.98031
#
# Compressibility (1/GPa) = 0.03246951
#
# Stress axis : x y z
#
# Youngs Moduli (GPa) = 16.48411 41.42008 134.12248
#
# Poissons Ratio (x) = 0.67946 1.54623
# Poissons Ratio (y) = 0.27041 0.26346
# Poissons Ratio (z) = 0.19004 0.08136
#
# Static dielectric constant tensor:
#      x y z
#    x 1.584200 0.000000 0.000000 
#    y 0.000000 1.605300 0.000000 
#    z 0.000000 0.000000 1.689950 
# 
# From -- ./inp_files/77983.got.cif
#   From: 2010.05.17/outbox.cif.g08.bks.cpg/sg65_39_cif.got.tgz:77983.got - 2010.06.03 17:01:31.
