data_PCOD9485113
_publ_section_title
;
Structure prediction by ZEFSAII (Michael W. Deem and Ramdas Pophale) SiO2 
 PCOD9485113
Probable space group: C M M M
;
_chemical_formula_sum "Si O2"
_cell_formula_units_Z 96
_cell_length_a 19.449096
_cell_length_b 7.656772
_cell_length_c 32.607847
_cell_angle_alpha 90.000000
_cell_angle_beta 90.000000
_cell_angle_gamma 90.000000
_cell_volume 4855.872328
_symmetry_space_group_name_H-M "C M M M"
_symmetry_group_IT_number 65
_symmetry_cell_setting 'orthorhombic'
loop_
_space_group_symop_operation_xyz
x,y,z
-x,-y,z
x,-y,-z
-x,y,-z
-x,-y,-z
x,y,-z
-x,y,z
x,-y,z
1/2+x,1/2+y,z
1/2-x,1/2-y,z
1/2+x,1/2-y,-z
1/2-x,1/2+y,-z
1/2-x,1/2-y,-z
1/2+x,1/2+y,-z
1/2-x,1/2+y,z
1/2+x,1/2-y,z
loop_
_atom_site_type_symbol
_atom_site_label
_atom_site_fract_x
_atom_site_fract_y
_atom_site_fract_z
Si Si1 0.577272 0.291467 0.289781
Si Si2 0.169579 0.706763 0.367244
Si Si3 0.831690 0.710168 0.455914
Si Si4 0.079044 0.786872 0.953596
Si Si5 0.830368 0.210008 0.877790
Si Si6 0.079838 0.786839 0.198497
O O1 0.500000 0.224154 0.297887
O O2 0.572562 0.500000 0.286009
O O3 0.627086 0.258247 0.327491
O O4 0.599456 0.228147 0.244539
O O5 0.164466 0.500000 0.370302
O O6 0.250000 0.750000 0.362465
O O7 0.143810 0.778283 0.411559
O O8 0.858925 0.776448 0.500000
O O9 0.840259 0.500000 0.456335
O O10 0.750000 0.750000 0.455831
O O11 0.130980 0.725442 0.918676
O O12 0.000000 0.736321 0.944629
O O13 0.080106 0.000000 0.953658
O O14 0.096116 0.730809 0.000000
O O15 0.750000 0.250000 0.877403
O O16 0.870068 0.275353 0.837317
O O17 0.837298 0.000000 0.877865
O O18 0.000000 0.738172 0.191287
O O19 0.081662 0.000000 0.197919
#
# Coordination Sequence:
#
# PCOD9485113 Si02
#       6
#    16  16  16  16  16  16
#     4   9  18  33  51  69  91 120 154 193 236 280
#     4  10  19  30  47  71  97 123 153 190 231 276
#     4   8  14  25  41  62  88 117 149 185 224 266
#     4   8  14  26  46  70  91 115 154 197 226 254
#     4  10  19  30  46  69  96 122 148 183 228 274
#     4   8  15  30  51  69  84 112 156 195 224 262
#
# _framework density 19.769877999999999
#
# number of rings (size 3 to 8) (size 9 to 14) (size 15 to 20)
#    0.000    3.167    0.000    2.500    0.000    4.000 
#    0.000    2.500    0.000    3.500    0.000    4.667 
#    0.000    0.000    0.000    0.000    0.000    0.000 
#
# Total GULP energy -267399.026322 kJ/mol
# GULP energy per Si atom -5570.813048 kJ/mol
# Density = 1.972488 g / cm^3
# Si number density = 19.769878 Si / 1000 Ang^3
#
#
#
# Elastic Constant Matrix: (Units=GPa)
#
#
# Indices 1 2 3 4 5 6 
#
# 1 100.5681 0.9473 130.7585 0.0000 0.0000 0.0000
# 2 0.9473 35.3264 10.1304 0.0000 0.0000 0.0000
# 3 130.7585 10.1304 249.9337 0.0000 0.0000 0.0000
# 4 0.0000 0.0000 0.0000 -2.0504 0.0000 0.0000
# 5 0.0000 0.0000 0.0000 0.0000 41.1456 0.0000
# 6 0.0000 0.0000 0.0000 0.0000 0.0000 18.1318
#
#
#
# Elastic Compliance Matrix: (Units=1/GPa)
#
#
# Indices 1 2 3 4 5 6 
#
# 1 0.031629 0.003943 -0.016707 0.000000 0.000000 0.000000
# 2 0.003943 0.029132 -0.003244 0.000000 0.000000 0.000000
# 3 -0.016707 -0.003244 0.012873 0.000000 0.000000 0.000000
# 4 0.000000 0.000000 0.000000 -0.487699 0.000000 0.000000
# 5 0.000000 0.000000 0.000000 0.000000 0.024304 0.000000
# 6 0.000000 0.000000 0.000000 0.000000 0.000000 0.055152
#
#
# Mechanical properties :
#
#
# Convention : Reuss Voigt Hill
#
# Bulk Modulus (GPa) = 24.02783 74.38895 49.20839
# Shear Modulus (GPa) = -17.31781 27.71153 5.19686
#
# Velocity S-wave (km/s) = -2.96289 3.74800 1.62308
# Velocity P-wave (km/s) = 0.68934 7.51259 5.33452
#
# Compressibility (1/GPa) = 0.04161841
#
# Stress axis : x y z
#
# Youngs Moduli (GPa) = 31.61619 34.32670 77.67954
#
# Poissons Ratio (x) = -0.13535 1.29783
# Poissons Ratio (y) = -0.12466 0.25196
# Poissons Ratio (z) = 0.52823 0.11134
#
# Static dielectric constant tensor:
#      x y z
#    x 1.639390 0.000000 0.000000 
#    y 0.000000 1.647290 0.000000 
#    z 0.000000 0.000000 1.758010 
# 
# From -- ./inp_files/75394.got.cif
#   From: 2010.05.17/outbox.cif.g08.bks.cpg/sg65_38_cif.got.tgz:75394.got - 2010.06.03 17:01:31.
