data_PCOD9485736
_publ_section_title
;
Structure prediction by ZEFSAII (Michael W. Deem and Ramdas Pophale) SiO2 
 PCOD9485736
Probable space group: C M M M
;
_chemical_formula_sum "Si O2"
_cell_formula_units_Z 104
_cell_length_a 22.443014
_cell_length_b 8.934806
_cell_length_c 29.793346
_cell_angle_alpha 90.000000
_cell_angle_beta 90.000000
_cell_angle_gamma 90.000000
_cell_volume 5974.280203
_symmetry_space_group_name_H-M "C M M M"
_symmetry_group_IT_number 65
_symmetry_cell_setting 'orthorhombic'
loop_
_space_group_symop_operation_xyz
x,y,z
-x,-y,z
x,-y,-z
-x,y,-z
-x,-y,-z
x,y,-z
-x,y,z
x,-y,z
1/2+x,1/2+y,z
1/2-x,1/2-y,z
1/2+x,1/2-y,-z
1/2-x,1/2+y,-z
1/2-x,1/2-y,-z
1/2+x,1/2+y,-z
1/2-x,1/2+y,z
1/2+x,1/2-y,z
loop_
_atom_site_type_symbol
_atom_site_label
_atom_site_fract_x
_atom_site_fract_y
_atom_site_fract_z
Si Si1 0.500000 0.679607 0.551835
Si Si2 0.929875 0.318370 0.101378
Si Si3 0.686145 0.676853 0.945994
Si Si4 0.314193 0.678828 0.451082
Si Si5 0.072230 0.170701 0.705755
Si Si6 0.928073 0.670275 0.204239
Si Si7 0.100661 0.676836 0.613506
O O1 0.500000 0.500000 0.552236
O O2 0.500000 0.729305 0.500000
O O3 0.445471 0.740567 0.580699
O O4 0.928250 0.500000 0.098114
O O5 0.874954 0.249897 0.073268
O O6 0.917084 0.277212 0.153490
O O7 0.000000 0.275706 0.090913
O O8 0.687022 0.500000 0.935109
O O9 0.750000 0.750000 0.931457
O O10 0.683800 0.692868 0.000000
O O11 0.345723 0.704462 0.500000
O O12 0.313636 0.500000 0.444533
O O13 0.250000 0.750000 0.456222
O O14 0.339378 0.764260 0.408352
O O15 0.092758 0.230159 0.754242
O O16 0.092630 0.271682 0.664469
O O17 0.000000 0.173575 0.705460
O O18 0.091101 0.000000 0.698475
O O19 0.905873 0.500000 0.209048
O O20 0.000000 0.664224 0.207510
O O21 0.093334 0.500000 0.610163
#
# Coordination Sequence:
#
# PCOD9485736 Si02
#       7
#     8  16  16  16  16  16  16
#     4  11  23  37  51  71 103 137 167 205 254 305
#     4   9  18  33  54  81 112 146 183 228 280 332
#     4  10  21  36  54  77 108 148 192 236 280 332
#     4  10  21  38  58  77  98 126 163 207 251 299
#     4  10  19  31  49  73 104 138 173 212 257 310
#     4   8  15  29  49  73 103 136 172 213 259 312
#     4  12  23  34  52  76 103 135 169 206 251 305
#
# _framework density 17.407955000000001
#
# number of rings (size 3 to 8) (size 9 to 14) (size 15 to 20)
#    0.000    2.077    0.769    4.385    0.000    6.154 
#    0.000    3.077    0.000    0.923    0.000    2.154 
#    0.000    0.000    0.000    0.000    0.000    0.000 
#
# Total GULP energy -289600.735140 kJ/mol
# GULP energy per Si atom -5569.244907 kJ/mol
# Density = 1.736833 g / cm^3
# Si number density = 17.407955 Si / 1000 Ang^3
#
#
#
# Elastic Constant Matrix: (Units=GPa)
#
#
# Indices 1 2 3 4 5 6 
#
# 1 82.7738 33.5836 43.9923 0.0000 0.0000 0.0000
# 2 33.5836 86.2549 48.2303 0.0000 0.0000 0.0000
# 3 43.9923 48.2303 82.6140 0.0000 0.0000 0.0000
# 4 0.0000 0.0000 0.0000 27.1936 0.0000 0.0000
# 5 0.0000 0.0000 0.0000 0.0000 20.1020 0.0000
# 6 0.0000 0.0000 0.0000 0.0000 0.0000 23.9932
#
#
#
# Elastic Compliance Matrix: (Units=1/GPa)
#
#
# Indices 1 2 3 4 5 6 
#
# 1 0.017161 -0.002334 -0.007776 0.000000 0.000000 0.000000
# 2 -0.002334 0.017530 -0.008991 0.000000 0.000000 0.000000
# 3 -0.007776 -0.008991 0.021494 0.000000 0.000000 0.000000
# 4 0.000000 0.000000 0.000000 0.036773 0.000000 0.000000
# 5 0.000000 0.000000 0.000000 0.000000 0.049746 0.000000
# 6 0.000000 0.000000 0.000000 0.000000 0.000000 0.041678
#
#
# Mechanical properties :
#
#
# Convention : Reuss Voigt Hill
#
# Bulk Modulus (GPa) = 55.60707 55.91722 55.76215
# Shear Modulus (GPa) = 21.87439 22.64687 22.26063
#
# Velocity S-wave (km/s) = 3.54866 3.61078 3.57986
# Velocity P-wave (km/s) = 6.98595 7.04095 7.01351
#
# Compressibility (1/GPa) = 0.01798333
#
# Stress axis : x y z
#
# Youngs Moduli (GPa) = 58.27335 57.04610 46.52432
#
# Poissons Ratio (x) = 0.13313 0.36176
# Poissons Ratio (y) = 0.13599 0.41831
# Poissons Ratio (z) = 0.45311 0.51291
#
# Static dielectric constant tensor:
#      x y z
#    x 1.799230 0.000000 0.000000 
#    y 0.000000 1.589470 0.000000 
#    z 0.000000 0.000000 1.592700 
# 
# From -- ./inp_files/75796.got.cif
#   From: 2010.05.17/outbox.cif.g08.bks.cpg/sg65_38_cif.got.tgz:75796.got - 2010.06.03 17:01:31.
