data_PCOD9485163
_publ_section_title
;
Structure prediction by ZEFSAII (Michael W. Deem and Ramdas Pophale) SiO2 
 PCOD9485163
Probable space group: C M M M
;
_chemical_formula_sum "Si O2"
_cell_formula_units_Z 104
_cell_length_a 18.100499
_cell_length_b 28.595395
_cell_length_c 12.308144
_cell_angle_alpha 90.000000
_cell_angle_beta 90.000000
_cell_angle_gamma 90.000000
_cell_volume 6370.583559
_symmetry_space_group_name_H-M "C M M M"
_symmetry_group_IT_number 65
_symmetry_cell_setting 'orthorhombic'
loop_
_space_group_symop_operation_xyz
x,y,z
-x,-y,z
x,-y,-z
-x,y,-z
-x,-y,-z
x,y,-z
-x,y,z
x,-y,z
1/2+x,1/2+y,z
1/2-x,1/2-y,z
1/2+x,1/2-y,-z
1/2-x,1/2+y,-z
1/2-x,1/2-y,-z
1/2+x,1/2+y,-z
1/2-x,1/2+y,z
1/2+x,1/2-y,z
loop_
_atom_site_type_symbol
_atom_site_label
_atom_site_fract_x
_atom_site_fract_y
_atom_site_fract_z
Si Si1 0.413050 0.640354 0.370074
Si Si2 0.669276 0.556316 0.000000
Si Si3 0.911523 0.054166 0.780589
Si Si4 0.911371 0.327518 0.376270
Si Si5 0.342290 0.943288 0.000000
Si Si6 0.910528 0.587572 0.772784
Si Si7 0.829625 0.767276 0.630995
Si Si8 0.589765 0.000000 0.624140
O O1 0.405237 0.636171 0.500000
O O2 0.500000 0.650884 0.348572
O O3 0.394721 0.591282 0.313387
O O4 0.362309 0.683371 0.330345
O O5 0.628379 0.570924 0.109790
O O6 0.755384 0.567908 0.000000
O O7 0.663804 0.500000 0.000000
O O8 0.000000 0.054193 0.797578
O O9 0.890211 0.000000 0.756819
O O10 0.885260 0.338828 0.500000
O O11 0.886250 0.364879 0.286928
O O12 0.885434 0.275421 0.349728
O O13 0.000000 0.329489 0.378907
O O14 0.378289 0.922471 0.891162
O O15 0.351889 0.000000 0.000000
O O16 0.888419 0.545507 0.692043
O O17 0.000000 0.587606 0.780583
O O18 0.823336 0.772191 0.500000
O O19 0.750000 0.750000 0.672195
O O20 0.500000 0.000000 0.619841
O O21 0.616269 0.000000 0.500000
#
# Coordination Sequence:
#
# PCOD9485163 Si02
#       8
#    16   8  16  16   8  16  16   8
#     4   9  17  29  48  76 106 132 158 194 244 300
#     4   9  19  33  49  68  91 126 167 207 236 277
#     4   9  17  31  52  76 100 127 160 200 244 293
#     4   9  17  30  48  70  95 123 158 201 246 288
#     4  11  21  33  47  66  93 132 171 207 247 291
#     4  10  19  30  47  69  94 126 164 203 243 287
#     4   9  17  29  46  69  96 130 167 199 235 284
#     4   9  16  27  45  69  95 120 153 198 240 281
#
# _framework density 16.325035
#
# number of rings (size 3 to 8) (size 9 to 14) (size 15 to 20)
#    0.000    2.692    0.769    1.385    0.000    6.462 
#    0.000    1.538    0.000    1.846    0.000    6.462 
#    0.000    0.000    0.000    0.000    0.000    0.000 
#
# Total GULP energy -289624.139499 kJ/mol
# GULP energy per Si atom -5569.694990 kJ/mol
# Density = 1.628788 g / cm^3
# Si number density = 16.325035 Si / 1000 Ang^3
#
#
#
# Elastic Constant Matrix: (Units=GPa)
#
#
# Indices 1 2 3 4 5 6 
#
# 1 31.9564 40.4884 31.3424 0.0000 0.0000 0.0000
# 2 40.4884 110.9463 57.1282 0.0000 0.0000 0.0000
# 3 31.3424 57.1282 93.5348 0.0000 0.0000 0.0000
# 4 0.0000 0.0000 0.0000 2.5984 0.0000 0.0000
# 5 0.0000 0.0000 0.0000 0.0000 11.0490 0.0000
# 6 0.0000 0.0000 0.0000 0.0000 0.0000 14.7287
#
#
#
# Elastic Compliance Matrix: (Units=1/GPa)
#
#
# Indices 1 2 3 4 5 6 
#
# 1 0.064670 -0.018150 -0.010585 0.000000 0.000000 0.000000
# 2 -0.018150 0.018243 -0.005060 0.000000 0.000000 0.000000
# 3 -0.010585 -0.005060 0.017328 0.000000 0.000000 0.000000
# 4 0.000000 0.000000 0.000000 0.384854 0.000000 0.000000
# 5 0.000000 0.000000 0.000000 0.000000 0.090506 0.000000
# 6 0.000000 0.000000 0.000000 0.000000 0.000000 0.067895
#
#
# Mechanical properties :
#
#
# Convention : Reuss Voigt Hill
#
# Bulk Modulus (GPa) = 30.62662 54.92839 42.77750
# Shear Modulus (GPa) = 6.92550 12.84044 9.88297
#
# Velocity S-wave (km/s) = 2.06191 2.80759 2.46313
# Velocity P-wave (km/s) = 4.94670 6.65055 5.86088
#
# Compressibility (1/GPa) = 0.03265134
#
# Stress axis : x y z
#
# Youngs Moduli (GPa) = 15.46307 54.81666 57.70841
#
# Poissons Ratio (x) = 0.99494 0.61082
# Poissons Ratio (y) = 0.28066 0.29201
# Poissons Ratio (z) = 0.16367 0.27737
#
# Static dielectric constant tensor:
#      x y z
#    x 1.563100 0.000000 0.000000 
#    y 0.000000 1.544110 0.000000 
#    z 0.000000 0.000000 1.529750 
# 
# From -- ./inp_files/27544.got.cif
#   From: 2010.05.17/outbox.cif.g08.bks.cpg/sg65_14_cif.got.tgz:27544.got - 2010.06.03 17:01:31.
