data_PCOD9485029
_publ_section_title
;
Structure prediction by ZEFSAII (Michael W. Deem and Ramdas Pophale) SiO2 
 PCOD9485029
Probable space group: C M M M
;
_chemical_formula_sum "Si O2"
_cell_formula_units_Z 104
_cell_length_a 28.141624
_cell_length_b 8.844958
_cell_length_c 27.150829
_cell_angle_alpha 90.000000
_cell_angle_beta 90.000000
_cell_angle_gamma 90.000000
_cell_volume 6758.153093
_symmetry_space_group_name_H-M "C M M M"
_symmetry_group_IT_number 65
_symmetry_cell_setting 'orthorhombic'
loop_
_space_group_symop_operation_xyz
x,y,z
-x,-y,z
x,-y,-z
-x,y,-z
-x,-y,-z
x,y,-z
-x,y,z
x,-y,z
1/2+x,1/2+y,z
1/2-x,1/2-y,z
1/2+x,1/2-y,-z
1/2-x,1/2+y,-z
1/2-x,1/2-y,-z
1/2+x,1/2+y,-z
1/2-x,1/2+y,z
1/2+x,1/2-y,z
loop_
_atom_site_type_symbol
_atom_site_label
_atom_site_fract_x
_atom_site_fract_y
_atom_site_fract_z
Si Si1 0.555794 0.183521 0.891802
Si Si2 0.057643 0.674807 0.000000
Si Si3 0.801891 0.180640 0.556800
Si Si4 0.302108 0.818769 0.745363
Si Si5 0.858159 0.680321 0.354568
Si Si6 0.445357 0.681574 0.300727
Si Si7 0.890217 0.180870 0.799538
O O1 0.500000 0.222848 0.884305
O O2 0.587771 0.251481 0.849000
O O3 0.558441 0.000000 0.891355
O O4 0.570916 0.238838 0.946595
O O5 0.073550 0.500000 0.000000
O O6 0.000000 0.672500 0.000000
O O7 0.813950 0.218415 0.500000
O O8 0.750000 0.250000 0.567138
O O9 0.838652 0.245724 0.595937
O O10 0.799232 0.000000 0.561203
O O11 0.250000 0.750000 0.751173
O O12 0.323151 0.779999 0.691166
O O13 0.339798 0.751782 0.784144
O O14 0.300630 0.000000 0.749427
O O15 0.858684 0.500000 0.359231
O O16 0.909678 0.740374 0.338687
O O17 0.500000 0.728093 0.305868
O O18 0.442481 0.500000 0.306729
O O19 0.425738 0.716571 0.246019
O O20 0.886158 0.000000 0.803053
#
# Coordination Sequence:
#
# PCOD9485029 Si02
#       7
#    16   8  16  16  16  16  16
#     4   9  16  27  44  65  91 123 157 192 228 268
#     4   7  12  24  41  61  86 119 156 189 225 269
#     4  10  20  33  50  72  97 124 153 186 226 272
#     4  10  20  33  48  68  93 121 153 187 226 271
#     4  10  20  32  49  72  96 123 153 187 227 271
#     4   9  18  32  48  66  92 126 159 190 226 269
#     4  10  19  30  45  67  94 123 154 188 228 272
#
# _framework density 15.388820000000001
#
# number of rings (size 3 to 8) (size 9 to 14) (size 15 to 20)
#    0.000    2.538    0.000    3.692    0.000    5.846 
#    0.000    0.385    0.000    1.846    0.000    3.769 
#    0.000    0.000    0.000    0.000    0.000    0.000 
#
# Total GULP energy -289933.304186 kJ/mol
# GULP energy per Si atom -5575.640465 kJ/mol
# Density = 1.535379 g / cm^3
# Si number density = 15.388820 Si / 1000 Ang^3
#
#
#
# Elastic Constant Matrix: (Units=GPa)
#
#
# Indices 1 2 3 4 5 6 
#
# 1 130.8126 46.8343 79.1902 0.0000 0.0000 0.0000
# 2 46.8343 37.8560 45.8695 0.0000 0.0000 0.0000
# 3 79.1902 45.8695 125.0515 0.0000 0.0000 0.0000
# 4 0.0000 0.0000 0.0000 23.1919 0.0000 0.0000
# 5 0.0000 0.0000 0.0000 0.0000 24.4160 0.0000
# 6 0.0000 0.0000 0.0000 0.0000 0.0000 26.3634
#
#
#
# Elastic Compliance Matrix: (Units=1/GPa)
#
#
# Indices 1 2 3 4 5 6 
#
# 1 0.015239 -0.012888 -0.004923 0.000000 0.000000 0.000000
# 2 -0.012888 0.058450 -0.013278 0.000000 0.000000 0.000000
# 3 -0.004923 -0.013278 0.015984 0.000000 0.000000 0.000000
# 4 0.000000 0.000000 0.000000 0.043119 0.000000 0.000000
# 5 0.000000 0.000000 0.000000 0.000000 0.040957 0.000000
# 6 0.000000 0.000000 0.000000 0.000000 0.000000 0.037931
#
#
# Mechanical properties :
#
#
# Convention : Reuss Voigt Hill
#
# Bulk Modulus (GPa) = 36.37015 70.83424 53.60219
# Shear Modulus (GPa) = 17.66640 22.91599 20.29120
#
# Velocity S-wave (km/s) = 3.39189 3.86311 3.63515
# Velocity P-wave (km/s) = 6.24703 8.12575 7.24752
#
# Compressibility (1/GPa) = 0.02749508
#
# Stress axis : x y z
#
# Youngs Moduli (GPa) = 65.62115 17.10870 62.56067
#
# Poissons Ratio (x) = 0.22050 0.30797
# Poissons Ratio (y) = 0.84575 0.83068
# Poissons Ratio (z) = 0.32303 0.22717
#
# Static dielectric constant tensor:
#      x y z
#    x 1.482690 0.000000 0.000000 
#    y 0.000000 1.513760 0.000000 
#    z 0.000000 0.000000 1.513060 
# 
# From -- ./inp_files/71815.got.cif
#   From: 2010.05.17/outbox.cif.g08.bks.cpg/sg65_36_cif.got.tgz:71815.got - 2010.06.03 17:01:31.
