data_PCOD9485747
_publ_section_title
;
Structure prediction by ZEFSAII (Michael W. Deem and Ramdas Pophale) SiO2 
 PCOD9485747
Probable space group: C M M M
;
_chemical_formula_sum "Si O2"
_cell_formula_units_Z 80
_cell_length_a 18.864830
_cell_length_b 15.147996
_cell_length_c 14.179059
_cell_angle_alpha 90.000000
_cell_angle_beta 90.000000
_cell_angle_gamma 90.000000
_cell_volume 4051.869854
_symmetry_space_group_name_H-M "C M M M"
_symmetry_group_IT_number 65
_symmetry_cell_setting 'orthorhombic'
loop_
_space_group_symop_operation_xyz
x,y,z
-x,-y,z
x,-y,-z
-x,y,-z
-x,-y,-z
x,y,-z
-x,y,z
x,-y,z
1/2+x,1/2+y,z
1/2-x,1/2-y,z
1/2+x,1/2-y,-z
1/2-x,1/2+y,-z
1/2-x,1/2-y,-z
1/2+x,1/2+y,-z
1/2-x,1/2+y,z
1/2+x,1/2-y,z
loop_
_atom_site_type_symbol
_atom_site_label
_atom_site_fract_x
_atom_site_fract_y
_atom_site_fract_z
Si Si1 0.274571 0.351429 0.199256
Si Si2 0.775929 0.648946 0.396777
Si Si3 0.080061 0.392720 0.696114
Si Si4 0.578416 0.393280 0.110495
Si Si5 0.635160 0.897593 0.102943
O O1 0.250000 0.250000 0.201882
O O2 0.261644 0.390232 0.303794
O O3 0.354805 0.358023 0.167068
O O4 0.218965 0.394555 0.126620
O O5 0.762994 0.609121 0.500000
O O6 0.750000 0.750000 0.401318
O O7 0.859146 0.644311 0.371391
O O8 0.086392 0.500000 0.694752
O O9 0.096964 0.361872 0.803441
O O10 0.000000 0.369645 0.670040
O O11 0.500000 0.364155 0.142406
O O12 0.580383 0.500000 0.116515
O O13 0.585857 0.370617 0.000000
O O14 0.613532 0.000000 0.097679
O O15 0.621216 0.856743 0.000000
#
# Coordination Sequence:
#
# PCOD9485747 Si02
#       5
#    16  16  16  16  16
#     4  10  19  31  49  73  99 126 162 208 251 288
#     4   9  19  36  53  69  94 130 169 203 241 295
#     4   9  18  32  51  77 104 127 158 203 249 288
#     4   9  18  33  53  75  99 131 168 200 234 283
#     4   9  17  29  46  69 100 138 170 193 228 287
#
# _framework density 19.743970999999998
#
# number of rings (size 3 to 8) (size 9 to 14) (size 15 to 20)
#    0.000    2.800    0.000    1.800    0.000    5.200 
#    0.000   12.000    0.000    1.800    0.000    1.400 
#    0.000    0.000    0.000    0.000    0.000    0.000 
#
# Total GULP energy -223016.952556 kJ/mol
# GULP energy per Si atom -5575.423814 kJ/mol
# Density = 1.969903 g / cm^3
# Si number density = 19.743971 Si / 1000 Ang^3
#
#
#
# Elastic Constant Matrix: (Units=GPa)
#
#
# Indices 1 2 3 4 5 6 
#
# 1 172.7199 25.2565 47.0600 0.0000 0.0000 0.0000
# 2 25.2565 43.9883 15.3528 0.0000 0.0000 0.0000
# 3 47.0600 15.3528 96.6277 0.0000 0.0000 0.0000
# 4 0.0000 0.0000 0.0000 10.5760 0.0000 0.0000
# 5 0.0000 0.0000 0.0000 0.0000 3.5207 0.0000
# 6 0.0000 0.0000 0.0000 0.0000 0.0000 25.5400
#
#
#
# Elastic Compliance Matrix: (Units=1/GPa)
#
#
# Indices 1 2 3 4 5 6 
#
# 1 0.007033 -0.003009 -0.002947 0.000000 0.000000 0.000000
# 2 -0.003009 0.025356 -0.002563 0.000000 0.000000 0.000000
# 3 -0.002947 -0.002563 0.012191 0.000000 0.000000 0.000000
# 4 0.000000 0.000000 0.000000 0.094554 0.000000 0.000000
# 5 0.000000 0.000000 0.000000 0.000000 0.284036 0.000000
# 6 0.000000 0.000000 0.000000 0.000000 0.000000 0.039154
#
#
# Mechanical properties :
#
#
# Convention : Reuss Voigt Hill
#
# Bulk Modulus (GPa) = 36.30922 54.29714 45.30318
# Shear Modulus (GPa) = 10.23451 22.97177 16.60314
#
# Velocity S-wave (km/s) = 2.27923 3.41469 2.90301
# Velocity P-wave (km/s) = 5.03552 6.56560 5.85079
#
# Compressibility (1/GPa) = 0.02754121
#
# Stress axis : x y z
#
# Youngs Moduli (GPa) = 142.19252 39.43876 82.02457
#
# Poissons Ratio (x) = 0.11869 0.24172
# Poissons Ratio (y) = 0.42791 0.21023
# Poissons Ratio (z) = 0.41903 0.10108
#
# Static dielectric constant tensor:
#      x y z
#    x 1.682320 0.000000 0.000000 
#    y 0.000000 1.763190 0.000000 
#    z 0.000000 0.000000 1.726440 
# 
# From -- ./inp_files/42335.got.cif
#   From: 2010.05.17/outbox.cif.g08.bks.cpg/sg65_22_cif.got.tgz:42335.got - 2010.06.03 17:01:31.
