data_PCOD9485945
_publ_section_title
;
Structure prediction by ZEFSAII (Michael W. Deem and Ramdas Pophale) SiO2 
 PCOD9485945
Probable space group: C M M M
;
_chemical_formula_sum "Si O2"
_cell_formula_units_Z 88
_cell_length_a 19.130232
_cell_length_b 8.372712
_cell_length_c 29.690101
_cell_angle_alpha 90.000000
_cell_angle_beta 90.000000
_cell_angle_gamma 90.000000
_cell_volume 4755.520572
_symmetry_space_group_name_H-M "C M M M"
_symmetry_group_IT_number 65
_symmetry_cell_setting 'orthorhombic'
loop_
_space_group_symop_operation_xyz
x,y,z
-x,-y,z
x,-y,-z
-x,y,-z
-x,-y,-z
x,y,-z
-x,y,z
x,-y,z
1/2+x,1/2+y,z
1/2-x,1/2-y,z
1/2+x,1/2-y,-z
1/2-x,1/2+y,-z
1/2-x,1/2-y,-z
1/2+x,1/2+y,-z
1/2-x,1/2+y,z
1/2+x,1/2-y,z
loop_
_atom_site_type_symbol
_atom_site_label
_atom_site_fract_x
_atom_site_fract_y
_atom_site_fract_z
Si Si1 0.670876 0.808589 0.585174
Si Si2 0.330167 0.808167 0.852944
Si Si3 0.670792 0.691428 0.683974
Si Si4 0.420012 0.692967 0.768844
Si Si5 0.919844 0.695262 0.500000
Si Si6 0.330471 0.807061 0.951659
O O1 0.750000 0.750000 0.577497
O O2 0.648586 0.749586 0.634523
O O3 0.621225 0.753136 0.544769
O O4 0.671521 0.000000 0.585646
O O5 0.250000 0.750000 0.847962
O O6 0.377469 0.745168 0.812736
O O7 0.357609 0.755229 0.902630
O O8 0.329621 0.000000 0.851750
O O9 0.671618 0.500000 0.683742
O O10 0.750000 0.750000 0.691771
O O11 0.620646 0.748086 0.724021
O O12 0.500000 0.749661 0.769872
O O13 0.420804 0.500000 0.767695
O O14 0.919576 0.500000 0.500000
O O15 0.000000 0.747776 0.500000
O O16 0.250000 0.750000 0.951932
O O17 0.331739 0.000000 0.951706
O O18 0.361582 0.753400 0.000000
#
# Coordination Sequence:
#
# PCOD9485945 Si02
#       6
#    16  16  16  16   8  16
#     4  10  19  33  55  78 102 132 165 204 246 290
#     4  10  19  31  51  77 102 131 168 208 249 298
#     4  10  20  35  55  77 101 129 165 207 251 300
#     4  10  22  38  53  71 100 136 169 208 258 304
#     4   9  19  34  51  75 106 137 168 202 242 287
#     4   8  14  25  42  67  98 127 157 198 247 294
#
# _framework density 18.504809999999999
#
# number of rings (size 3 to 8) (size 9 to 14) (size 15 to 20)
#    0.000    2.455    0.000    3.545    0.000    4.727 
#    0.000    1.364    0.000    4.364    0.000    3.818 
#    0.000    0.000    0.000    0.000    0.000    0.000 
#
# Total GULP energy -245326.895305 kJ/mol
# GULP energy per Si atom -5575.611257 kJ/mol
# Density = 1.846269 g / cm^3
# Si number density = 18.504810 Si / 1000 Ang^3
#
#
#
# Elastic Constant Matrix: (Units=GPa)
#
#
# Indices 1 2 3 4 5 6 
#
# 1 93.8612 15.0416 116.6216 0.0000 0.0000 0.0000
# 2 15.0416 24.1445 24.7392 0.0000 0.0000 0.0000
# 3 116.6216 24.7392 231.2262 0.0000 0.0000 0.0000
# 4 0.0000 0.0000 0.0000 -18.4827 0.0000 0.0000
# 5 0.0000 0.0000 0.0000 0.0000 2.5716 0.0000
# 6 0.0000 0.0000 0.0000 0.0000 0.0000 15.3521
#
#
#
# Elastic Compliance Matrix: (Units=1/GPa)
#
#
# Indices 1 2 3 4 5 6 
#
# 1 0.028789 -0.003434 -0.014153 0.000000 0.000000 0.000000
# 2 -0.003434 0.046926 -0.003289 0.000000 0.000000 0.000000
# 3 -0.014153 -0.003289 0.011815 0.000000 0.000000 0.000000
# 4 0.000000 0.000000 0.000000 -0.054105 0.000000 0.000000
# 5 0.000000 0.000000 0.000000 0.000000 0.388862 0.000000
# 6 0.000000 0.000000 0.000000 0.000000 0.000000 0.065138
#
#
# Mechanical properties :
#
#
# Convention : Reuss Voigt Hill
#
# Bulk Modulus (GPa) = 21.84386 73.55963 47.70174
# Shear Modulus (GPa) = 9.18384 12.74350 10.96367
#
# Velocity S-wave (km/s) = 2.23018 2.62708 2.43673
# Velocity P-wave (km/s) = 4.29671 7.00285 5.80955
#
# Compressibility (1/GPa) = 0.04577946
#
# Stress axis : x y z
#
# Youngs Moduli (GPa) = 34.73591 21.30995 84.64085
#
# Poissons Ratio (x) = 0.07317 1.19788
# Poissons Ratio (y) = 0.11927 0.27837
# Poissons Ratio (z) = 0.49160 0.07009
#
# Static dielectric constant tensor:
#      x y z
#    x 1.711760 0.000000 0.000000 
#    y 0.000000 1.658950 0.000000 
#    z 0.000000 0.000000 1.674040 
# 
# From -- ./inp_files/77956.got.cif
#   From: 2010.05.17/outbox.cif.g08.bks.cpg/sg65_39_cif.got.tgz:77956.got - 2010.06.03 17:01:31.
