data_PCOD9485506
_publ_section_title
;
Structure prediction by ZEFSAII (Michael W. Deem and Ramdas Pophale) SiO2 
 PCOD9485506
Probable space group: C M M M
;
_chemical_formula_sum "Si O2"
_cell_formula_units_Z 104
_cell_length_a 25.284097
_cell_length_b 8.611033
_cell_length_c 27.081118
_cell_angle_alpha 90.000000
_cell_angle_beta 90.000000
_cell_angle_gamma 90.000000
_cell_volume 5896.160417
_symmetry_space_group_name_H-M "C M M M"
_symmetry_group_IT_number 65
_symmetry_cell_setting 'orthorhombic'
loop_
_space_group_symop_operation_xyz
x,y,z
-x,-y,z
x,-y,-z
-x,y,-z
-x,-y,-z
x,y,-z
-x,y,z
x,-y,z
1/2+x,1/2+y,z
1/2-x,1/2-y,z
1/2+x,1/2-y,-z
1/2-x,1/2+y,-z
1/2-x,1/2-y,-z
1/2+x,1/2+y,-z
1/2-x,1/2+y,z
1/2+x,1/2-y,z
loop_
_atom_site_type_symbol
_atom_site_label
_atom_site_fract_x
_atom_site_fract_y
_atom_site_fract_z
Si Si1 0.192585 0.687313 0.556917
Si Si2 0.000000 0.185942 0.328257
Si Si3 0.083830 0.186242 0.867218
Si Si4 0.611152 0.187849 0.359232
Si Si5 0.193636 0.686855 0.722999
Si Si6 0.193496 0.314058 0.162657
Si Si7 0.500000 0.186376 0.942737
Si Si8 0.500000 0.311534 0.785489
O O1 0.183908 0.735785 0.500000
O O2 0.194883 0.500000 0.558313
O O3 0.250000 0.750000 0.572665
O O4 0.145538 0.736295 0.593203
O O5 0.947137 0.244719 0.354728
O O6 0.000000 0.243488 0.270914
O O7 0.000000 0.000000 0.327251
O O8 0.142867 0.250022 0.865604
O O9 0.051090 0.236292 0.817878
O O10 0.050488 0.248568 0.913330
O O11 0.084040 0.000000 0.868072
O O12 0.645616 0.237180 0.311556
O O13 0.607845 0.000000 0.359339
O O14 0.195687 0.500000 0.721843
O O15 0.250000 0.750000 0.704900
O O16 0.187282 0.736677 0.779846
O O17 0.194114 0.500000 0.161179
O O18 0.250000 0.250000 0.145278
O O19 0.500000 0.000000 0.939722
O O20 0.500000 0.232323 0.000000
O O21 0.500000 0.500000 0.784326
#
# Coordination Sequence:
#
# PCOD9485506 Si02
#       8
#    16   8  16  16  16  16   8   8
#     4   9  18  33  54  77  97 119 151 195 247 299
#     4  11  22  34  49  70  97 132 171 204 239 285
#     4  10  19  33  54  78 104 135 171 210 253 296
#     4  10  20  34  49  68  97 129 162 200 246 297
#     4   9  18  30  47  72 100 132 166 203 246 292
#     4  10  19  31  47  71 104 139 174 207 245 296
#     4  10  21  37  57  81 107 134 167 210 256 298
#     4   8  17  32  49  72 101 131 165 207 249 290
#
# _framework density 17.638598999999999
#
# number of rings (size 3 to 8) (size 9 to 14) (size 15 to 20)
#    0.000    2.385    0.000    3.231    0.000    2.462 
#    0.000    4.231    0.000    2.769    0.000    0.000 
#    0.000    0.000    0.000    0.000    0.000    0.000 
#
# Total GULP energy -290201.605478 kJ/mol
# GULP energy per Si atom -5580.800105 kJ/mol
# Density = 1.759845 g / cm^3
# Si number density = 17.638599 Si / 1000 Ang^3
#
#
#
# Elastic Constant Matrix: (Units=GPa)
#
#
# Indices 1 2 3 4 5 6 
#
# 1 194.6565 40.4693 82.6316 0.0000 0.0000 0.0000
# 2 40.4693 29.4869 28.2019 0.0000 0.0000 0.0000
# 3 82.6316 28.2019 98.9126 0.0000 0.0000 0.0000
# 4 0.0000 0.0000 0.0000 16.7339 0.0000 0.0000
# 5 0.0000 0.0000 0.0000 0.0000 9.7637 0.0000
# 6 0.0000 0.0000 0.0000 0.0000 0.0000 32.7225
#
#
#
# Elastic Compliance Matrix: (Units=1/GPa)
#
#
# Indices 1 2 3 4 5 6 
#
# 1 0.008905 -0.007021 -0.005437 0.000000 0.000000 0.000000
# 2 -0.007021 0.052165 -0.009007 0.000000 0.000000 0.000000
# 3 -0.005437 -0.009007 0.017221 0.000000 0.000000 0.000000
# 4 0.000000 0.000000 0.000000 0.059759 0.000000 0.000000
# 5 0.000000 0.000000 0.000000 0.000000 0.102420 0.000000
# 6 0.000000 0.000000 0.000000 0.000000 0.000000 0.030560
#
#
# Mechanical properties :
#
#
# Convention : Reuss Voigt Hill
#
# Bulk Modulus (GPa) = 28.28216 69.51794 48.90005
# Shear Modulus (GPa) = 15.34925 23.29424 19.32174
#
# Velocity S-wave (km/s) = 2.95313 3.63800 3.31331
# Velocity P-wave (km/s) = 5.26280 7.55941 6.51313
#
# Compressibility (1/GPa) = 0.03535797
#
# Stress axis : x y z
#
# Youngs Moduli (GPa) = 112.29355 19.16992 58.07000
#
# Poissons Ratio (x) = 0.13460 0.31575
# Poissons Ratio (y) = 0.78847 0.52306
# Poissons Ratio (z) = 0.61059 0.17267
#
# Static dielectric constant tensor:
#      x y z
#    x 1.582370 0.000000 0.000000 
#    y 0.000000 1.590100 0.000000 
#    z 0.000000 0.000000 1.604800 
# 
# From -- ./inp_files/75857.got.cif
#   From: 2010.05.17/outbox.cif.g08.bks.cpg/sg65_38_cif.got.tgz:75857.got - 2010.06.03 17:01:31.
