data_PCOD9485758
_publ_section_title
;
Structure prediction by ZEFSAII (Michael W. Deem and Ramdas Pophale) SiO2 
 PCOD9485758
Probable space group: C M M M
;
_chemical_formula_sum "Si O2"
_cell_formula_units_Z 88
_cell_length_a 8.649051
_cell_length_b 18.819158
_cell_length_c 29.664332
_cell_angle_alpha 90.000000
_cell_angle_beta 90.000000
_cell_angle_gamma 90.000000
_cell_volume 4828.399758
_symmetry_space_group_name_H-M "C M M M"
_symmetry_group_IT_number 65
_symmetry_cell_setting 'orthorhombic'
loop_
_space_group_symop_operation_xyz
x,y,z
-x,-y,z
x,-y,-z
-x,y,-z
-x,-y,-z
x,y,-z
-x,y,z
x,-y,z
1/2+x,1/2+y,z
1/2-x,1/2-y,z
1/2+x,1/2-y,-z
1/2-x,1/2+y,-z
1/2-x,1/2-y,-z
1/2+x,1/2+y,-z
1/2-x,1/2+y,z
1/2+x,1/2-y,z
loop_
_atom_site_type_symbol
_atom_site_label
_atom_site_fract_x
_atom_site_fract_y
_atom_site_fract_z
Si Si1 0.688539 0.918342 0.500000
Si Si2 0.188462 0.581935 0.674383
Si Si3 0.817300 0.829572 0.858318
Si Si4 0.683433 0.084998 0.775477
Si Si5 0.812724 0.329339 0.412212
Si Si6 0.685205 0.830612 0.049056
O O1 0.500000 0.919701 0.500000
O O2 0.736293 0.876230 0.544802
O O3 0.740894 0.000000 0.500000
O O4 0.236394 0.500000 0.666744
O O5 0.235928 0.604604 0.724741
O O6 0.238843 0.632528 0.633981
O O7 0.000000 0.581425 0.674611
O O8 0.750000 0.750000 0.853496
O O9 0.770022 0.874664 0.814973
O O10 0.750609 0.862443 0.904825
O O11 0.000000 0.824376 0.862564
O O12 0.500000 0.100356 0.779220
O O13 0.702263 0.000000 0.779413
O O14 0.750000 0.250000 0.415587
O O15 0.000000 0.327363 0.412089
O O16 0.500000 0.828151 0.051906
O O17 0.750000 0.750000 0.048520
O O18 0.727287 0.862491 0.000000
#
# Coordination Sequence:
#
# PCOD9485758 Si02
#       6
#     8  16  16  16  16  16
#     4   9  17  30  51  75  96 127 172 212 240 279
#     4   8  15  30  52  73  92 122 165 205 239 285
#     4  11  21  32  49  73 102 132 165 206 249 296
#     4   9  18  34  54  73  96 128 165 205 251 302
#     4  10  19  31  49  74 103 130 160 201 248 295
#     4   9  16  27  45  69  97 128 163 203 247 295
#
# _framework density 18.225498999999999
#
# number of rings (size 3 to 8) (size 9 to 14) (size 15 to 20)
#    0.000    2.636    0.000    5.182    0.000    4.364 
#    0.000    2.727    0.000    4.364    0.000    3.818 
#    0.000    0.000    0.000    0.000    0.000    0.000 
#
# Total GULP energy -245305.788399 kJ/mol
# GULP energy per Si atom -5575.131555 kJ/mol
# Density = 1.818402 g / cm^3
# Si number density = 18.225499 Si / 1000 Ang^3
#
#
#
# Elastic Constant Matrix: (Units=GPa)
#
#
# Indices 1 2 3 4 5 6 
#
# 1 51.2272 24.6934 49.0004 0.0000 0.0000 0.0000
# 2 24.6934 73.8197 82.6452 0.0000 0.0000 0.0000
# 3 49.0004 82.6452 205.3839 0.0000 0.0000 0.0000
# 4 0.0000 0.0000 0.0000 74.9689 0.0000 0.0000
# 5 0.0000 0.0000 0.0000 0.0000 14.6175 0.0000
# 6 0.0000 0.0000 0.0000 0.0000 0.0000 22.3668
#
#
#
# Elastic Compliance Matrix: (Units=1/GPa)
#
#
# Indices 1 2 3 4 5 6 
#
# 1 0.025690 -0.003151 -0.004861 0.000000 0.000000 0.000000
# 2 -0.003151 0.025039 -0.009324 0.000000 0.000000 0.000000
# 3 -0.004861 -0.009324 0.009780 0.000000 0.000000 0.000000
# 4 0.000000 0.000000 0.000000 0.013339 0.000000 0.000000
# 5 0.000000 0.000000 0.000000 0.000000 0.068411 0.000000
# 6 0.000000 0.000000 0.000000 0.000000 0.000000 0.044709
#
#
# Mechanical properties :
#
#
# Convention : Reuss Voigt Hill
#
# Bulk Modulus (GPa) = 38.70398 71.45652 55.08025
# Shear Modulus (GPa) = 21.71525 33.99675 27.85600
#
# Velocity S-wave (km/s) = 3.45552 4.32364 3.91373
# Velocity P-wave (km/s) = 6.09944 8.01356 7.12111
#
# Compressibility (1/GPa) = 0.02583714
#
# Stress axis : x y z
#
# Youngs Moduli (GPa) = 38.92629 39.93751 102.24467
#
# Poissons Ratio (x) = 0.12586 0.49700
# Poissons Ratio (y) = 0.12267 0.95330
# Poissons Ratio (z) = 0.18922 0.37237
#
# Static dielectric constant tensor:
#      x y z
#    x 1.636060 0.000000 0.000000 
#    y 0.000000 1.596520 0.000000 
#    z 0.000000 0.000000 1.659410 
# 
# From -- ./inp_files/76443.got.cif
#   From: 2010.05.17/outbox.cif.g08.bks.cpg/sg65_39_cif.got.tgz:76443.got - 2010.06.03 17:01:31.
