data_PCOD9485394
_publ_section_title
;
Structure prediction by ZEFSAII (Michael W. Deem and Ramdas Pophale) SiO2 
 PCOD9485394
Probable space group: C M M M
;
_chemical_formula_sum "Si O2"
_cell_formula_units_Z 88
_cell_length_a 19.267704
_cell_length_b 29.269790
_cell_length_c 7.699187
_cell_angle_alpha 90.000000
_cell_angle_beta 90.000000
_cell_angle_gamma 90.000000
_cell_volume 4342.046203
_symmetry_space_group_name_H-M "C M M M"
_symmetry_group_IT_number 65
_symmetry_cell_setting 'orthorhombic'
loop_
_space_group_symop_operation_xyz
x,y,z
-x,-y,z
x,-y,-z
-x,y,-z
-x,-y,-z
x,y,-z
-x,y,z
x,-y,z
1/2+x,1/2+y,z
1/2-x,1/2-y,z
1/2+x,1/2-y,-z
1/2-x,1/2+y,-z
1/2-x,1/2-y,-z
1/2+x,1/2+y,-z
1/2-x,1/2+y,z
1/2+x,1/2-y,z
loop_
_atom_site_type_symbol
_atom_site_label
_atom_site_fract_x
_atom_site_fract_y
_atom_site_fract_z
Si Si1 0.211712 0.798043 0.292210
Si Si2 0.921519 0.645901 0.209100
Si Si3 0.422939 0.747976 0.290430
Si Si4 0.000000 0.052131 0.705987
Si Si5 0.780486 0.609323 0.199631
Si Si6 0.151031 0.052308 0.208559
O O1 0.212411 0.807306 0.500000
O O2 0.250000 0.750000 0.265798
O O3 0.134012 0.787844 0.229626
O O4 0.249033 0.839784 0.202090
O O5 0.906315 0.699267 0.247351
O O6 0.857805 0.615138 0.277112
O O7 0.000000 0.636270 0.273268
O O8 0.922505 0.641357 0.000000
O O9 0.422812 0.745542 0.500000
O O10 0.500000 0.738659 0.224919
O O11 0.925296 0.073036 0.754112
O O12 0.000000 0.049032 0.500000
O O13 0.000000 0.000000 0.781440
O O14 0.718958 0.578440 0.277573
O O15 0.789995 0.594095 0.000000
O O16 0.150626 0.000000 0.273362
O O17 0.156619 0.051498 0.000000
#
# Coordination Sequence:
#
# PCOD9485394 Si02
#       6
#    16  16  16   8  16  16
#     4  10  19  31  46  67  96 127 157 194 239 284
#     4   9  17  29  46  68  93 121 156 198 238 275
#     4   9  17  30  46  62  86 123 162 193 226 277
#     4   9  17  31  53  79 101 123 157 199 241 285
#     4  10  20  32  49  72  95 124 162 199 238 286
#     4   9  18  34  54  73  97 129 162 197 239 289
#
# _framework density 20.266942
#
# number of rings (size 3 to 8) (size 9 to 14) (size 15 to 20)
#    0.000    2.636    1.818    0.273    0.000    2.909 
#    1.636    0.000    0.000    0.545    0.000    3.818 
#    0.000    0.000    0.000   10.727    0.000   11.273 
#
# Total GULP energy -245200.846275 kJ/mol
# GULP energy per Si atom -5572.746506 kJ/mol
# Density = 2.022081 g / cm^3
# Si number density = 20.266942 Si / 1000 Ang^3
#
#
#
# Elastic Constant Matrix: (Units=GPa)
#
#
# Indices 1 2 3 4 5 6 
#
# 1 186.9696 40.6917 3.8294 0.0000 0.0000 0.0000
# 2 40.6917 28.0273 1.7550 0.0000 0.0000 0.0000
# 3 3.8294 1.7550 33.6356 0.0000 0.0000 0.0000
# 4 0.0000 0.0000 0.0000 12.8954 0.0000 0.0000
# 5 0.0000 0.0000 0.0000 0.0000 2.9268 0.0000
# 6 0.0000 0.0000 0.0000 0.0000 0.0000 34.6362
#
#
#
# Elastic Compliance Matrix: (Units=1/GPa)
#
#
# Indices 1 2 3 4 5 6 
#
# 1 0.007822 -0.011338 -0.000299 0.000000 0.000000 0.000000
# 2 -0.011338 0.052230 -0.001434 0.000000 0.000000 0.000000
# 3 -0.000299 -0.001434 0.029839 0.000000 0.000000 0.000000
# 4 0.000000 0.000000 0.000000 0.077547 0.000000 0.000000
# 5 0.000000 0.000000 0.000000 0.000000 0.341666 0.000000
# 6 0.000000 0.000000 0.000000 0.000000 0.000000 0.028872
#
#
# Mechanical properties :
#
#
# Convention : Reuss Voigt Hill
#
# Bulk Modulus (GPa) = 15.68646 37.90941 26.79794
# Shear Modulus (GPa) = 8.54163 23.58210 16.06186
#
# Velocity S-wave (km/s) = 2.05517 3.41482 2.81822
# Velocity P-wave (km/s) = 3.65901 5.85608 4.88272
#
# Compressibility (1/GPa) = 0.06374925
#
# Stress axis : x y z
#
# Youngs Moduli (GPa) = 127.84193 19.14595 33.51284
#
# Poissons Ratio (x) = 0.21708 0.01002
# Poissons Ratio (y) = 1.44947 0.04807
# Poissons Ratio (z) = 0.03822 0.02746
#
# Static dielectric constant tensor:
#      x y z
#    x 1.808960 0.000000 0.000000 
#    y 0.000000 1.688760 0.000000 
#    z 0.000000 0.000000 1.741200 
# 
# From -- ./inp_files/10115.got.cif
#   From: 2010.05.17/outbox.cif.g08.bks.cpg/sg65_6_cif.got.tgz:10115.got - 2010.06.03 17:01:31.
