data_PCOD9485115
_publ_section_title
;
Structure prediction by ZEFSAII (Michael W. Deem and Ramdas Pophale) SiO2 
 PCOD9485115
Probable space group: C M M M
;
_chemical_formula_sum "Si O2"
_cell_formula_units_Z 88
_cell_length_a 25.766380
_cell_length_b 21.553296
_cell_length_c 7.732997
_cell_angle_alpha 90.000000
_cell_angle_beta 90.000000
_cell_angle_gamma 90.000000
_cell_volume 4294.523093
_symmetry_space_group_name_H-M "C M M M"
_symmetry_group_IT_number 65
_symmetry_cell_setting 'orthorhombic'
loop_
_space_group_symop_operation_xyz
x,y,z
-x,-y,z
x,-y,-z
-x,y,-z
-x,-y,-z
x,y,-z
-x,y,z
x,-y,z
1/2+x,1/2+y,z
1/2-x,1/2-y,z
1/2+x,1/2-y,-z
1/2-x,1/2+y,-z
1/2-x,1/2-y,-z
1/2+x,1/2+y,-z
1/2-x,1/2+y,z
1/2+x,1/2-y,z
loop_
_atom_site_type_symbol
_atom_site_label
_atom_site_fract_x
_atom_site_fract_y
_atom_site_fract_z
Si Si1 0.284487 0.804577 0.196588
Si Si2 0.939137 0.866301 0.790951
Si Si3 0.062186 0.000000 0.208507
Si Si4 0.943490 0.610544 0.292408
Si Si5 0.672099 0.931722 0.206763
Si Si6 0.893553 0.264148 0.700202
O O1 0.250000 0.750000 0.279743
O O2 0.294516 0.873131 0.275145
O O3 0.342389 0.777298 0.191771
O O4 0.264274 0.813387 0.000000
O O5 0.912190 0.805497 0.720804
O O6 0.000000 0.863338 0.745776
O O7 0.918046 0.933288 0.729264
O O8 0.935666 0.864936 0.000000
O O9 0.000000 0.000000 0.239681
O O10 0.068281 0.000000 0.000000
O O11 0.944468 0.603310 0.500000
O O12 0.889655 0.579705 0.233447
O O13 0.936012 0.683832 0.252288
O O14 0.000000 0.589014 0.226523
O O15 0.685554 0.000000 0.274956
O O16 0.679926 0.931649 0.000000
O O17 0.880130 0.275924 0.500000
#
# Coordination Sequence:
#
# PCOD9485115 Si02
#       6
#    16  16   8  16  16  16
#     4   9  18  34  55  73  90 118 157 200 241 290
#     4   9  16  27  45  67  92 124 161 198 235 279
#     4   7  12  24  41  61  85 117 157 195 229 269
#     4   9  18  31  45  65  97 134 167 193 221 269
#     4   9  18  32  50  73  98 122 153 197 244 284
#     4  10  19  30  46  69  96 125 156 196 241 285
#
# _framework density 20.491216000000001
#
# number of rings (size 3 to 8) (size 9 to 14) (size 15 to 20)
#    0.000    3.000    0.000    2.182    0.000    3.273 
#    0.000    2.273    2.000    1.636    0.000    0.000 
#    0.000    0.000    0.000    0.000    0.000    0.000 
#
# Total GULP energy -245002.579003 kJ/mol
# GULP energy per Si atom -5568.240432 kJ/mol
# Density = 2.044458 g / cm^3
# Si number density = 20.491216 Si / 1000 Ang^3
#
#
#
# Elastic Constant Matrix: (Units=GPa)
#
#
# Indices 1 2 3 4 5 6 
#
# 1 46.7008 30.0384 6.7370 0.0000 0.0000 0.0000
# 2 30.0384 169.2129 16.0694 0.0000 0.0000 0.0000
# 3 6.7370 16.0694 26.5105 0.0000 0.0000 0.0000
# 4 0.0000 0.0000 0.0000 5.5605 0.0000 0.0000
# 5 0.0000 0.0000 0.0000 0.0000 17.4655 0.0000
# 6 0.0000 0.0000 0.0000 0.0000 0.0000 13.7449
#
#
#
# Elastic Compliance Matrix: (Units=1/GPa)
#
#
# Indices 1 2 3 4 5 6 
#
# 1 0.024531 -0.003993 -0.003814 0.000000 0.000000 0.000000
# 2 -0.003993 0.006920 -0.003180 0.000000 0.000000 0.000000
# 3 -0.003814 -0.003180 0.040618 0.000000 0.000000 0.000000
# 4 0.000000 0.000000 0.000000 0.179841 0.000000 0.000000
# 5 0.000000 0.000000 0.000000 0.000000 0.057256 0.000000
# 6 0.000000 0.000000 0.000000 0.000000 0.000000 0.072754
#
#
# Mechanical properties :
#
#
# Convention : Reuss Voigt Hill
#
# Bulk Modulus (GPa) = 19.96170 38.67932 29.32051
# Shear Modulus (GPa) = 11.88800 19.99280 15.94040
#
# Velocity S-wave (km/s) = 2.41125 3.12697 2.79214
# Velocity P-wave (km/s) = 4.18508 5.65281 4.97339
#
# Compressibility (1/GPa) = 0.05009593
#
# Stress axis : x y z
#
# Youngs Moduli (GPa) = 40.76456 144.49870 24.61976
#
# Poissons Ratio (x) = 0.57691 0.09390
# Poissons Ratio (y) = 0.16275 0.07830
# Poissons Ratio (z) = 0.15547 0.45954
#
# Static dielectric constant tensor:
#      x y z
#    x 1.700970 0.000000 0.000000 
#    y 0.000000 1.797420 0.000000 
#    z 0.000000 0.000000 1.762840 
# 
# From -- ./inp_files/18493.got.cif
#   From: 2010.05.17/outbox.cif.g08.bks.cpg/sg65_10_cif.got.tgz:18493.got - 2010.06.03 17:01:31.
