data_PCOD9485030
_publ_section_title
;
Structure prediction by ZEFSAII (Michael W. Deem and Ramdas Pophale) SiO2 
 PCOD9485030
Probable space group: C M M M
;
_chemical_formula_sum "Si O2"
_cell_formula_units_Z 104
_cell_length_a 8.541967
_cell_length_b 28.028112
_cell_length_c 27.556201
_cell_angle_alpha 90.000000
_cell_angle_beta 90.000000
_cell_angle_gamma 90.000000
_cell_volume 6597.373588
_symmetry_space_group_name_H-M "C M M M"
_symmetry_group_IT_number 65
_symmetry_cell_setting 'orthorhombic'
loop_
_space_group_symop_operation_xyz
x,y,z
-x,-y,z
x,-y,-z
-x,y,-z
-x,-y,-z
x,y,-z
-x,y,z
x,-y,z
1/2+x,1/2+y,z
1/2-x,1/2-y,z
1/2+x,1/2-y,-z
1/2-x,1/2+y,-z
1/2-x,1/2-y,-z
1/2+x,1/2+y,-z
1/2-x,1/2+y,z
1/2+x,1/2-y,z
loop_
_atom_site_type_symbol
_atom_site_label
_atom_site_fract_x
_atom_site_fract_y
_atom_site_fract_z
Si Si1 0.813658 0.802033 0.805029
Si Si2 0.686219 0.696084 0.000000
Si Si3 0.187608 0.606531 0.753677
Si Si4 0.188211 0.350430 0.097948
Si Si5 0.689663 0.556009 0.341577
Si Si6 0.309707 0.053482 0.148091
Si Si7 0.186906 0.942421 0.552168
O O1 0.750000 0.750000 0.792366
O O2 0.759450 0.842400 0.767235
O O3 0.744051 0.818076 0.857059
O O4 0.000000 0.801191 0.808315
O O5 0.750000 0.750000 0.000000
O O6 0.745090 0.669062 0.952056
O O7 0.500000 0.697825 0.000000
O O8 0.243580 0.585837 0.702780
O O9 0.234538 0.571031 0.797865
O O10 0.000000 0.610264 0.754642
O O11 0.238803 0.404550 0.111371
O O12 0.000000 0.349209 0.096271
O O13 0.500000 0.558263 0.341017
O O14 0.732373 0.500000 0.336068
O O15 0.745591 0.573365 0.394988
O O16 0.500000 0.052398 0.146900
O O17 0.252896 0.000000 0.138051
O O18 0.251512 0.925236 0.500000
O O19 0.000000 0.933020 0.551631
O O20 0.203314 0.000000 0.552524
#
# Coordination Sequence:
#
# PCOD9485030 Si02
#       7
#    16   8  16  16  16  16  16
#     4  11  21  35  53  72  95 121 150 185 229 278
#     4  12  24  38  55  74  97 123 154 193 237 278
#     4  10  19  30  45  67  94 124 158 192 229 275
#     4  10  20  35  54  77 101 124 154 188 225 272
#     4   9  16  25  39  62  91 122 158 199 238 273
#     4   8  15  29  49  70  92 121 156 189 218 256
#     4   7  10  18  33  53  79 114 155 195 233 273
#
# _framework density 15.763849
#
# number of rings (size 3 to 8) (size 9 to 14) (size 15 to 20)
#    0.000    2.615    0.000    6.231    0.000    0.923 
#    0.000    0.385    0.000   12.000    0.000    2.154 
#    0.000    0.615    0.000    1.692    0.000    2.462 
#
# Total GULP energy -289766.042711 kJ/mol
# GULP energy per Si atom -5572.423898 kJ/mol
# Density = 1.572797 g / cm^3
# Si number density = 15.763849 Si / 1000 Ang^3
#
#
#
# Elastic Constant Matrix: (Units=GPa)
#
#
# Indices 1 2 3 4 5 6 
#
# 1 59.4014 32.8652 39.0740 0.0000 0.0000 0.0000
# 2 32.8652 113.9388 72.2833 0.0000 0.0000 0.0000
# 3 39.0740 72.2833 155.5286 0.0000 0.0000 0.0000
# 4 0.0000 0.0000 0.0000 16.5881 0.0000 0.0000
# 5 0.0000 0.0000 0.0000 0.0000 16.8350 0.0000
# 6 0.0000 0.0000 0.0000 0.0000 0.0000 15.5943
#
#
#
# Elastic Compliance Matrix: (Units=1/GPa)
#
#
# Indices 1 2 3 4 5 6 
#
# 1 0.021325 -0.003903 -0.003544 0.000000 0.000000 0.000000
# 2 -0.003903 0.013161 -0.005136 0.000000 0.000000 0.000000
# 3 -0.003544 -0.005136 0.009707 0.000000 0.000000 0.000000
# 4 0.000000 0.000000 0.000000 0.060284 0.000000 0.000000
# 5 0.000000 0.000000 0.000000 0.000000 0.059400 0.000000
# 6 0.000000 0.000000 0.000000 0.000000 0.000000 0.064126
#
#
# Mechanical properties :
#
#
# Convention : Reuss Voigt Hill
#
# Bulk Modulus (GPa) = 52.55561 68.59042 60.57301
# Shear Modulus (GPa) = 19.26702 22.11323 20.69013
#
# Velocity S-wave (km/s) = 3.49983 3.74944 3.62678
# Velocity P-wave (km/s) = 7.05290 7.89620 7.48644
#
# Compressibility (1/GPa) = 0.01902746
#
# Stress axis : x y z
#
# Youngs Moduli (GPa) = 46.89327 75.98337 103.01890
#
# Poissons Ratio (x) = 0.29657 0.36505
# Poissons Ratio (y) = 0.18303 0.52911
# Poissons Ratio (z) = 0.16617 0.39025
#
# Static dielectric constant tensor:
#      x y z
#    x 1.534700 0.000000 0.000000 
#    y 0.000000 1.511430 0.000000 
#    z 0.000000 0.000000 1.538910 
# 
# From -- ./inp_files/73794.got.cif
#   From: 2010.05.17/outbox.cif.g08.bks.cpg/sg65_37_cif.got.tgz:73794.got - 2010.06.03 17:01:31.
