data_PCOD9485229
_publ_section_title
;
Structure prediction by ZEFSAII (Michael W. Deem and Ramdas Pophale) SiO2 
 PCOD9485229
Probable space group: C M M M
;
_chemical_formula_sum "Si O2"
_cell_formula_units_Z 104
_cell_length_a 29.210771
_cell_length_b 9.153934
_cell_length_c 22.323588
_cell_angle_alpha 90.000000
_cell_angle_beta 90.000000
_cell_angle_gamma 90.000000
_cell_volume 5969.181654
_symmetry_space_group_name_H-M "C M M M"
_symmetry_group_IT_number 65
_symmetry_cell_setting 'orthorhombic'
loop_
_space_group_symop_operation_xyz
x,y,z
-x,-y,z
x,-y,-z
-x,y,-z
-x,-y,-z
x,y,-z
-x,y,z
x,-y,z
1/2+x,1/2+y,z
1/2-x,1/2-y,z
1/2+x,1/2-y,-z
1/2-x,1/2+y,-z
1/2-x,1/2-y,-z
1/2+x,1/2+y,-z
1/2-x,1/2+y,z
1/2+x,1/2-y,z
loop_
_atom_site_type_symbol
_atom_site_label
_atom_site_fract_x
_atom_site_fract_y
_atom_site_fract_z
Si Si1 0.701079 0.673634 0.328642
Si Si2 0.200779 0.173949 0.810686
Si Si3 0.613646 0.165157 0.840903
Si Si4 0.554036 0.000000 0.928666
Si Si5 0.551144 0.172446 0.616358
Si Si6 0.853375 0.325844 0.565943
Si Si7 0.054134 0.830089 0.257457
O O1 0.704640 0.500000 0.336664
O O2 0.750000 0.750000 0.336062
O O3 0.687225 0.700102 0.259376
O O4 0.668667 0.742216 0.378623
O O5 0.250000 0.250000 0.820432
O O6 0.160062 0.244303 0.849319
O O7 0.204507 0.000000 0.819397
O O8 0.583427 0.242519 0.790508
O O9 0.626409 0.000000 0.820999
O O10 0.581094 0.135900 0.898349
O O11 0.500000 0.000000 0.912525
O O12 0.557795 0.000000 0.000000
O O13 0.500000 0.206476 0.594071
O O14 0.592133 0.197364 0.570764
O O15 0.559844 0.263146 0.676611
O O16 0.552088 0.000000 0.632047
O O17 0.836702 0.279978 0.500000
O O18 0.844891 0.500000 0.572165
O O19 0.000000 0.819189 0.243137
O O20 0.067482 0.000000 0.257323
#
# Coordination Sequence:
#
# PCOD9485229 Si02
#       7
#    16  16  16   8  16  16  16
#     4  10  21  36  55  77 103 135 169 214 272 331
#     4  10  20  35  56  86 120 147 180 227 284 340
#     4  10  20  31  55  83 110 149 186 227 270 323
#     4   9  20  38  60  86 118 156 199 239 270 312
#     4   9  18  32  50  71  98 133 171 217 271 330
#     4  10  21  35  50  69  95 131 176 224 268 320
#     4  10  19  30  47  75 110 139 171 220 281 341
#
# _framework density 17.422823999999999
#
# number of rings (size 3 to 8) (size 9 to 14) (size 15 to 20)
#    0.462    1.769    0.000    3.231    0.000    6.462 
#    0.000    1.538    0.000    2.308    0.000    8.615 
#    0.000    0.000    0.000    0.000    0.000    0.000 
#
# Total GULP energy -289912.573659 kJ/mol
# GULP energy per Si atom -5575.241801 kJ/mol
# Density = 1.738317 g / cm^3
# Si number density = 17.422824 Si / 1000 Ang^3
#
#
#
# Elastic Constant Matrix: (Units=GPa)
#
#
# Indices 1 2 3 4 5 6 
#
# 1 93.6445 47.9702 54.6511 0.0000 0.0000 0.0000
# 2 47.9702 70.6831 32.4654 0.0000 0.0000 0.0000
# 3 54.6511 32.4654 50.1926 0.0000 0.0000 0.0000
# 4 0.0000 0.0000 0.0000 7.2664 0.0000 0.0000
# 5 0.0000 0.0000 0.0000 0.0000 13.7586 0.0000
# 6 0.0000 0.0000 0.0000 0.0000 0.0000 31.2898
#
#
#
# Elastic Compliance Matrix: (Units=1/GPa)
#
#
# Indices 1 2 3 4 5 6 
#
# 1 0.032328 -0.008212 -0.029888 0.000000 0.000000 0.000000
# 2 -0.008212 0.022213 -0.005426 0.000000 0.000000 0.000000
# 3 -0.029888 -0.005426 0.055976 0.000000 0.000000 0.000000
# 4 0.000000 0.000000 0.000000 0.137620 0.000000 0.000000
# 5 0.000000 0.000000 0.000000 0.000000 0.072682 0.000000
# 6 0.000000 0.000000 0.000000 0.000000 0.000000 0.031959
#
#
# Mechanical properties :
#
#
# Convention : Reuss Voigt Hill
#
# Bulk Modulus (GPa) = 42.61764 53.85483 48.23624
# Shear Modulus (GPa) = 11.16937 15.75852 13.46394
#
# Velocity S-wave (km/s) = 2.53470 3.01071 2.78290
# Velocity P-wave (km/s) = 5.75154 6.56228 6.17024
#
# Compressibility (1/GPa) = 0.02346446
#
# Stress axis : x y z
#
# Youngs Moduli (GPa) = 30.93291 45.01800 17.86483
#
# Poissons Ratio (x) = 0.36969 0.53394
# Poissons Ratio (y) = 0.25402 0.09694
# Poissons Ratio (z) = 0.92452 0.24428
#
# Static dielectric constant tensor:
#      x y z
#    x 1.618210 0.000000 0.000000 
#    y 0.000000 1.582100 0.000000 
#    z 0.000000 0.000000 1.562220 
# 
# From -- ./inp_files/71797.got.cif
#   From: 2010.05.17/outbox.cif.g08.bks.cpg/sg65_36_cif.got.tgz:71797.got - 2010.06.03 17:01:31.
