data_PCOD9485996
_publ_section_title
;
Structure prediction by ZEFSAII (Michael W. Deem and Ramdas Pophale) SiO2 
 PCOD9485996
Probable space group: C M M M
;
_chemical_formula_sum "Si O2"
_cell_formula_units_Z 80
_cell_length_a 9.425428
_cell_length_b 20.666598
_cell_length_c 21.976139
_cell_angle_alpha 90.000000
_cell_angle_beta 90.000000
_cell_angle_gamma 90.000000
_cell_volume 4280.765771
_symmetry_space_group_name_H-M "C M M M"
_symmetry_group_IT_number 65
_symmetry_cell_setting 'orthorhombic'
loop_
_space_group_symop_operation_xyz
x,y,z
-x,-y,z
x,-y,-z
-x,y,-z
-x,-y,-z
x,y,-z
-x,y,z
x,-y,z
1/2+x,1/2+y,z
1/2-x,1/2-y,z
1/2+x,1/2-y,-z
1/2-x,1/2+y,-z
1/2-x,1/2-y,-z
1/2+x,1/2+y,-z
1/2-x,1/2+y,z
1/2+x,1/2-y,z
loop_
_atom_site_type_symbol
_atom_site_label
_atom_site_fract_x
_atom_site_fract_y
_atom_site_fract_z
Si Si1 0.166299 0.373056 0.430585
Si Si2 0.173133 0.819666 0.000000
Si Si3 0.841201 0.000000 0.573707
Si Si4 0.833477 0.312664 0.694238
Si Si5 0.167652 0.074619 0.759694
Si Si6 0.829376 0.072109 0.096163
O O1 0.204162 0.354133 0.500000
O O2 0.257402 0.435146 0.411403
O O3 0.184380 0.320050 0.378689
O O4 0.000000 0.391438 0.430894
O O5 0.250000 0.750000 0.000000
O O6 0.215450 0.865818 0.942908
O O7 0.000000 0.811036 0.000000
O O8 0.849245 0.000000 0.500000
O O9 0.000000 0.000000 0.598902
O O10 0.750000 0.250000 0.716179
O O11 0.765065 0.375708 0.724237
O O12 0.000000 0.308204 0.707467
O O13 0.196903 0.079821 0.832030
O O14 0.000000 0.088438 0.750202
O O15 0.192710 0.000000 0.741714
O O16 0.000000 0.069495 0.088401
O O17 0.775949 0.000000 0.077620
#
# Coordination Sequence:
#
# PCOD9485996 Si02
#       6
#    16   8   8  16  16  16
#     4   9  19  36  55  75 103 139 176 218 271 329
#     4  10  19  31  51  81 115 148 182 222 264 314
#     4   9  17  29  49  79 107 131 165 210 259 312
#     4  11  24  39  56  79 108 143 183 225 274 332
#     4   9  19  37  60  84 110 142 181 228 277 325
#     4   8  15  31  56  82 106 139 185 227 264 309
#
# _framework density 18.688247
#
# number of rings (size 3 to 8) (size 9 to 14) (size 15 to 20)
#    0.000    2.700    0.000    2.400    1.400    5.600 
#    0.000    3.000    0.000    2.400    0.000    0.000 
#    0.000    0.000    0.000    0.000    0.000    0.000 
#
# Total GULP energy -223012.830614 kJ/mol
# GULP energy per Si atom -5575.320765 kJ/mol
# Density = 1.864571 g / cm^3
# Si number density = 18.688247 Si / 1000 Ang^3
#
#
#
# Elastic Constant Matrix: (Units=GPa)
#
#
# Indices 1 2 3 4 5 6 
#
# 1 71.2416 78.5963 44.2034 0.0000 0.0000 0.0000
# 2 78.5963 138.2219 58.2013 0.0000 0.0000 0.0000
# 3 44.2034 58.2013 65.8903 0.0000 0.0000 0.0000
# 4 0.0000 0.0000 0.0000 4.7009 0.0000 0.0000
# 5 0.0000 0.0000 0.0000 0.0000 17.2367 0.0000
# 6 0.0000 0.0000 0.0000 0.0000 0.0000 29.2232
#
#
#
# Elastic Compliance Matrix: (Units=1/GPa)
#
#
# Indices 1 2 3 4 5 6 
#
# 1 0.042430 -0.019331 -0.011390 0.000000 0.000000 0.000000
# 2 -0.019331 0.020326 -0.004986 0.000000 0.000000 0.000000
# 3 -0.011390 -0.004986 0.027222 0.000000 0.000000 0.000000
# 4 0.000000 0.000000 0.000000 0.212726 0.000000 0.000000
# 5 0.000000 0.000000 0.000000 0.000000 0.058016 0.000000
# 6 0.000000 0.000000 0.000000 0.000000 0.000000 0.034219
#
#
# Mechanical properties :
#
#
# Convention : Reuss Voigt Hill
#
# Bulk Modulus (GPa) = 53.86443 70.81730 62.34087
# Shear Modulus (GPa) = 10.58109 16.52236 13.55173
#
# Velocity S-wave (km/s) = 2.38206 2.97662 2.69578
# Velocity P-wave (km/s) = 6.03745 7.05620 6.56661
#
# Compressibility (1/GPa) = 0.01856513
#
# Stress axis : x y z
#
# Youngs Moduli (GPa) = 23.56796 49.19758 36.73537
#
# Poissons Ratio (x) = 0.95104 0.41841
# Poissons Ratio (y) = 0.45559 0.18315
# Poissons Ratio (z) = 0.26843 0.24529
#
# Static dielectric constant tensor:
#      x y z
#    x 1.621980 0.000000 0.000000 
#    y 0.000000 1.630680 0.000000 
#    z 0.000000 0.000000 1.686330 
# 
# From -- ./inp_files/72938.got.cif
#   From: 2010.05.17/outbox.cif.g08.bks.cpg/sg65_37_cif.got.tgz:72938.got - 2010.06.03 17:01:31.
