data_PCOD9485986
_publ_section_title
;
Structure prediction by ZEFSAII (Michael W. Deem and Ramdas Pophale) SiO2 
 PCOD9485986
Probable space group: C M M M
;
_chemical_formula_sum "Si O2"
_cell_formula_units_Z 104
_cell_length_a 12.777602
_cell_length_b 25.558672
_cell_length_c 13.815340
_cell_angle_alpha 90.000000
_cell_angle_beta 90.000000
_cell_angle_gamma 90.000000
_cell_volume 4511.793546
_symmetry_space_group_name_H-M "C M M M"
_symmetry_group_IT_number 65
_symmetry_cell_setting 'orthorhombic'
loop_
_space_group_symop_operation_xyz
x,y,z
-x,-y,z
x,-y,-z
-x,y,-z
-x,-y,-z
x,y,-z
-x,y,z
x,-y,z
1/2+x,1/2+y,z
1/2-x,1/2-y,z
1/2+x,1/2-y,-z
1/2-x,1/2+y,-z
1/2-x,1/2-y,-z
1/2+x,1/2+y,-z
1/2-x,1/2+y,z
1/2+x,1/2-y,z
loop_
_atom_site_type_symbol
_atom_site_label
_atom_site_fract_x
_atom_site_fract_y
_atom_site_fract_z
Si Si1 0.878531 0.604526 0.110497
Si Si2 0.371266 0.500000 0.386364
Si Si3 0.201043 0.807464 0.104792
Si Si4 0.874283 0.442419 0.314559
Si Si5 0.880256 0.218884 0.305457
Si Si6 0.627177 0.828111 0.388171
Si Si7 0.122374 0.887741 0.614960
O O1 0.794993 0.651273 0.120995
O O2 0.859208 0.565205 0.198854
O O3 0.000000 0.623148 0.121051
O O4 0.868953 0.584040 0.000000
O O5 0.500000 0.500000 0.386702
O O6 0.340433 0.500000 0.500000
O O7 0.341540 0.443565 0.341203
O O8 0.250000 0.750000 0.098377
O O9 0.126473 0.802031 0.196123
O O10 0.152330 0.819996 0.000000
O O11 0.838152 0.500000 0.348698
O O12 0.839377 0.387954 0.364226
O O13 0.000000 0.443492 0.329584
O O14 0.841816 0.278454 0.320546
O O15 0.833684 0.169913 0.364206
O O16 0.000000 0.222958 0.338529
O O17 0.649138 0.814900 0.500000
O O18 0.500000 0.831409 0.378423
O O19 0.125528 0.894281 0.500000
O O20 0.000000 0.884548 0.644431
#
# Coordination Sequence:
#
# PCOD9485986 Si02
#       7
#    16   8  16  16  16  16  16
#     4   9  18  34  56  79 104 135 172 220 275 324
#     4   7  10  18  36  66 101 133 170 215 255 291
#     4  10  21  35  52  75 104 137 175 218 264 319
#     4   9  17  29  49  78 105 131 169 217 273 336
#     4  10  19  31  51  79 111 145 180 217 258 312
#     4   9  17  29  46  72 108 146 182 221 264 313
#     4   8  13  23  43  73 106 138 174 216 258 300
#
# _framework density 23.050701
#
# number of rings (size 3 to 8) (size 9 to 14) (size 15 to 20)
#    0.000    3.000    0.000    2.308    0.000    4.615 
#    0.000    4.615    1.692    8.308    0.000    0.000 
#    0.000    3.077    0.000    0.000    0.000    0.000 
#
# Total GULP energy -290073.218270 kJ/mol
# GULP energy per Si atom -5578.331121 kJ/mol
# Density = 2.299824 g / cm^3
# Si number density = 23.050701 Si / 1000 Ang^3
#
#
#
# Elastic Constant Matrix: (Units=GPa)
#
#
# Indices 1 2 3 4 5 6 
#
# 1 45.0157 52.2734 -1.9445 0.0000 0.0000 0.0000
# 2 52.2734 187.1452 43.5840 0.0000 0.0000 0.0000
# 3 -1.9445 43.5840 76.0132 0.0000 0.0000 0.0000
# 4 0.0000 0.0000 0.0000 22.0343 0.0000 0.0000
# 5 0.0000 0.0000 0.0000 0.0000 22.3766 0.0000
# 6 0.0000 0.0000 0.0000 0.0000 0.0000 56.7645
#
#
#
# Elastic Compliance Matrix: (Units=1/GPa)
#
#
# Indices 1 2 3 4 5 6 
#
# 1 0.036512 -0.012021 0.007827 0.000000 0.000000 0.000000
# 2 -0.012021 0.010125 -0.006113 0.000000 0.000000 0.000000
# 3 0.007827 -0.006113 0.016861 0.000000 0.000000 0.000000
# 4 0.000000 0.000000 0.000000 0.045384 0.000000 0.000000
# 5 0.000000 0.000000 0.000000 0.000000 0.044690 0.000000
# 6 0.000000 0.000000 0.000000 0.000000 0.000000 0.017617
#
#
# Mechanical properties :
#
#
# Convention : Reuss Voigt Hill
#
# Bulk Modulus (GPa) = 23.31935 55.11111 39.21523
# Shear Modulus (GPa) = 24.26044 34.51916 29.38980
#
# Velocity S-wave (km/s) = 3.24772 3.87399 3.57460
# Velocity P-wave (km/s) = 4.91956 6.63106 5.83837
#
# Compressibility (1/GPa) = 0.04288285
#
# Stress axis : x y z
#
# Youngs Moduli (GPa) = 27.38822 98.76686 59.30924
#
# Poissons Ratio (x) = 1.18731 -0.46420
# Poissons Ratio (y) = 0.32924 0.36255
# Poissons Ratio (z) = -0.21436 0.60375
#
# Static dielectric constant tensor:
#      x y z
#    x 1.980500 0.000000 0.000000 
#    y 0.000000 1.892560 0.000000 
#    z 0.000000 0.000000 1.856330 
# 
# From -- ./inp_files/40785.got.cif
#   From: 2010.05.17/outbox.cif.g08.bks.cpg/sg65_21_cif.got.tgz:40785.got - 2010.06.03 17:01:31.
