data_PCOD9485320
_publ_section_title
;
Structure prediction by ZEFSAII (Michael W. Deem and Ramdas Pophale) SiO2 
 PCOD9485320
Probable space group: C M M M
;
_chemical_formula_sum "Si O2"
_cell_formula_units_Z 68
_cell_length_a 20.437845
_cell_length_b 21.685898
_cell_length_c 8.284836
_cell_angle_alpha 90.000000
_cell_angle_beta 90.000000
_cell_angle_gamma 90.000000
_cell_volume 3671.947200
_symmetry_space_group_name_H-M "C M M M"
_symmetry_group_IT_number 65
_symmetry_cell_setting 'orthorhombic'
loop_
_space_group_symop_operation_xyz
x,y,z
-x,-y,z
x,-y,-z
-x,y,-z
-x,-y,-z
x,y,-z
-x,y,z
x,-y,z
1/2+x,1/2+y,z
1/2-x,1/2-y,z
1/2+x,1/2-y,-z
1/2-x,1/2+y,-z
1/2-x,1/2-y,-z
1/2+x,1/2+y,-z
1/2-x,1/2+y,z
1/2+x,1/2-y,z
loop_
_atom_site_type_symbol
_atom_site_label
_atom_site_fract_x
_atom_site_fract_y
_atom_site_fract_z
Si Si1 0.125107 0.428665 0.194966
Si Si2 0.500000 0.500000 0.708950
Si Si3 0.000000 0.209142 0.308071
Si Si4 0.732171 0.427699 0.692242
Si Si5 0.500000 0.150693 0.804132
Si Si6 0.094997 0.891836 0.811122
O O1 0.115946 0.500000 0.247500
O O2 0.195590 0.406628 0.257050
O O3 0.064686 0.386638 0.247500
O O4 0.126555 0.428651 0.000000
O O5 0.556848 0.445767 0.715765
O O6 0.000000 0.280208 0.260437
O O7 0.062088 0.172587 0.235829
O O8 0.000000 0.202173 0.500000
O O9 0.725378 0.423451 0.500000
O O10 0.727746 0.500000 0.739780
O O11 0.671532 0.393853 0.774111
O O12 0.500000 0.152533 0.000000
O O13 0.082895 0.905093 0.000000
#
# Coordination Sequence:
#
# PCOD9485320 Si02
#       6
#    16   4   8  16   8  16
#     4   9  18  34  59  88 113 141 179 228 279 329
#     4  10  19  30  53  84 107 138 181 226 271 314
#     4  11  24  39  54  78 112 149 187 228 278 330
#     4  10  20  33  51  82 120 151 179 220 276 334
#     4  10  20  38  61  83 108 142 188 233 276 326
#     4  11  20  35  56  81 111 146 190 231 270 321
#
# _framework density 18.518785000000001
#
# number of rings (size 3 to 8) (size 9 to 14) (size 15 to 20)
#    0.000    1.882    1.176    4.588    0.000    3.294 
#    0.000    2.941    0.000   10.588    0.000    0.000 
#    0.000    0.000    0.000    0.000    0.000    0.000 
#
# Total GULP energy -189361.846448 kJ/mol
# GULP energy per Si atom -5569.466072 kJ/mol
# Density = 1.847664 g / cm^3
# Si number density = 18.518785 Si / 1000 Ang^3
#
#
#
# Elastic Constant Matrix: (Units=GPa)
#
#
# Indices 1 2 3 4 5 6 
#
# 1 184.8909 75.8813 26.5454 0.0000 0.0000 0.0000
# 2 75.8813 102.3185 12.4701 0.0000 0.0000 0.0000
# 3 26.5454 12.4701 29.6516 0.0000 0.0000 0.0000
# 4 0.0000 0.0000 0.0000 13.9831 0.0000 0.0000
# 5 0.0000 0.0000 0.0000 0.0000 27.9633 0.0000
# 6 0.0000 0.0000 0.0000 0.0000 0.0000 3.1952
#
#
#
# Elastic Compliance Matrix: (Units=1/GPa)
#
#
# Indices 1 2 3 4 5 6 
#
# 1 0.008476 -0.005651 -0.005212 0.000000 0.000000 0.000000
# 2 -0.005651 0.014069 -0.000858 0.000000 0.000000 0.000000
# 3 -0.005212 -0.000858 0.038751 0.000000 0.000000 0.000000
# 4 0.000000 0.000000 0.000000 0.071515 0.000000 0.000000
# 5 0.000000 0.000000 0.000000 0.000000 0.035761 0.000000
# 6 0.000000 0.000000 0.000000 0.000000 0.000000 0.312967
#
#
# Mechanical properties :
#
#
# Convention : Reuss Voigt Hill
#
# Bulk Modulus (GPa) = 26.41615 60.73940 43.57777
# Shear Modulus (GPa) = 9.66001 22.49260 16.07630
#
# Velocity S-wave (km/s) = 2.28641 3.48887 2.94956
# Velocity P-wave (km/s) = 4.61147 7.00711 5.93150
#
# Compressibility (1/GPa) = 0.03785563
#
# Stress axis : x y z
#
# Youngs Moduli (GPa) = 117.98028 71.07989 25.80554
#
# Poissons Ratio (x) = 0.40166 0.13449
# Poissons Ratio (y) = 0.66668 0.02214
# Poissons Ratio (z) = 0.61487 0.06097
#
# Static dielectric constant tensor:
#      x y z
#    x 1.638640 0.000000 0.000000 
#    y 0.000000 1.601090 0.000000 
#    z 0.000000 0.000000 1.674230 
# 
# From -- ./inp_files/10981.got.cif
#   From: 2010.05.17/outbox.cif.g08.bks.cpg/sg65_6_cif.got.tgz:10981.got - 2010.06.03 17:01:31.
