data_PCOD9485324
_publ_section_title
;
Structure prediction by ZEFSAII (Michael W. Deem and Ramdas Pophale) SiO2 
 PCOD9485324
Probable space group: C M M M
;
_chemical_formula_sum "Si O2"
_cell_formula_units_Z 72
_cell_length_a 15.064515
_cell_length_b 10.816048
_cell_length_c 24.837079
_cell_angle_alpha 90.000000
_cell_angle_beta 90.000000
_cell_angle_gamma 90.000000
_cell_volume 4046.916827
_symmetry_space_group_name_H-M "C M M M"
_symmetry_group_IT_number 65
_symmetry_cell_setting 'orthorhombic'
loop_
_space_group_symop_operation_xyz
x,y,z
-x,-y,z
x,-y,-z
-x,y,-z
-x,-y,-z
x,y,-z
-x,y,z
x,-y,z
1/2+x,1/2+y,z
1/2-x,1/2-y,z
1/2+x,1/2-y,-z
1/2-x,1/2+y,-z
1/2-x,1/2-y,-z
1/2+x,1/2+y,-z
1/2-x,1/2+y,z
1/2+x,1/2-y,z
loop_
_atom_site_type_symbol
_atom_site_label
_atom_site_fract_x
_atom_site_fract_y
_atom_site_fract_z
Si Si1 0.500000 0.859497 0.709913
Si Si2 0.602659 0.351082 0.938082
Si Si3 0.750000 0.750000 0.141365
Si Si4 0.000000 0.860188 0.624621
Si Si5 0.313106 0.361715 0.435101
Si Si6 0.804576 0.364499 0.247297
O O1 0.500000 0.749933 0.667134
O O2 0.590822 0.848294 0.743534
O O3 0.500000 0.000000 0.686724
O O4 0.500000 0.317843 0.927265
O O5 0.608955 0.500000 0.935066
O O6 0.669797 0.292546 0.896065
O O7 0.623192 0.315511 0.000000
O O8 0.781760 0.646190 0.183932
O O9 0.911158 0.849353 0.589197
O O10 0.000000 0.000000 0.648480
O O11 0.318940 0.355846 0.500000
O O12 0.279253 0.500000 0.420952
O O13 0.250000 0.250000 0.416896
O O14 0.778191 0.500000 0.267832
O O15 0.750000 0.250000 0.272444
#
# Coordination Sequence:
#
# PCOD9485324 Si02
#       6
#     8  16   8   8  16  16
#     4  10  22  41  55  75 109 145 174 223 281 320
#     4   9  18  32  50  76 109 140 171 210 257 313
#     4  10  19  30  58  76 104 130 181 212 266 308
#     4  10  21  36  56  82 108 145 185 222 265 321
#     4   9  18  34  56  82 113 145 181 223 268 317
#     4   9  21  37  56  77 103 134 176 222 268 315
#
# _framework density 17.791321
#
# number of rings (size 3 to 8) (size 9 to 14) (size 15 to 20)
#    0.667    2.000    0.000    2.000    1.556    4.000 
#    0.000    4.444    0.000    3.333    0.000    4.667 
#    0.000    0.000    0.000    0.000    0.000    0.000 
#
# Total GULP energy -200490.120846 kJ/mol
# GULP energy per Si atom -5569.170023 kJ/mol
# Density = 1.775083 g / cm^3
# Si number density = 17.791321 Si / 1000 Ang^3
#
#
#
# Elastic Constant Matrix: (Units=GPa)
#
#
# Indices 1 2 3 4 5 6 
#
# 1 93.8869 76.7559 23.7164 0.0000 0.0000 0.0000
# 2 76.7559 132.7848 38.0695 0.0000 0.0000 0.0000
# 3 23.7164 38.0695 38.1102 0.0000 0.0000 0.0000
# 4 0.0000 0.0000 0.0000 22.8158 0.0000 0.0000
# 5 0.0000 0.0000 0.0000 0.0000 47.2079 0.0000
# 6 0.0000 0.0000 0.0000 0.0000 0.0000 31.3043
#
#
#
# Elastic Compliance Matrix: (Units=1/GPa)
#
#
# Indices 1 2 3 4 5 6 
#
# 1 0.020239 -0.011334 -0.001273 0.000000 0.000000 0.000000
# 2 -0.011334 0.016901 -0.009829 0.000000 0.000000 0.000000
# 3 -0.001273 -0.009829 0.036851 0.000000 0.000000 0.000000
# 4 0.000000 0.000000 0.000000 0.043829 0.000000 0.000000
# 5 0.000000 0.000000 0.000000 0.000000 0.021183 0.000000
# 6 0.000000 0.000000 0.000000 0.000000 0.000000 0.031944
#
#
# Mechanical properties :
#
#
# Convention : Reuss Voigt Hill
#
# Bulk Modulus (GPa) = 34.34357 60.20728 47.27543
# Shear Modulus (GPa) = 22.17056 28.68161 25.42609
#
# Velocity S-wave (km/s) = 3.53391 4.01947 3.78448
# Velocity P-wave (km/s) = 5.99973 7.44686 6.76212
#
# Compressibility (1/GPa) = 0.02911753
#
# Stress axis : x y z
#
# Youngs Moduli (GPa) = 49.41071 59.16954 27.13663
#
# Poissons Ratio (x) = 0.67062 0.03454
# Poissons Ratio (y) = 0.56002 0.26673
# Poissons Ratio (z) = 0.06289 0.58159
#
# Static dielectric constant tensor:
#      x y z
#    x 1.577910 0.000000 0.000000 
#    y 0.000000 1.631670 0.000000 
#    z 0.000000 0.000000 1.588220 
# 
# From -- ./inp_files/77573.got.cif
#   From: 2010.05.17/outbox.cif.g08.bks.cpg/sg65_39_cif.got.tgz:77573.got - 2010.06.03 17:01:31.
