data_PCOD9485779
_publ_section_title
;
Structure prediction by ZEFSAII (Michael W. Deem and Ramdas Pophale) SiO2 
 PCOD9485779
Probable space group: C M M M
;
_chemical_formula_sum "Si O2"
_cell_formula_units_Z 104
_cell_length_a 27.810974
_cell_length_b 8.478433
_cell_length_c 25.024220
_cell_angle_alpha 90.000000
_cell_angle_beta 90.000000
_cell_angle_gamma 90.000000
_cell_volume 5900.547911
_symmetry_space_group_name_H-M "C M M M"
_symmetry_group_IT_number 65
_symmetry_cell_setting 'orthorhombic'
loop_
_space_group_symop_operation_xyz
x,y,z
-x,-y,z
x,-y,-z
-x,y,-z
-x,-y,-z
x,y,-z
-x,y,z
x,-y,z
1/2+x,1/2+y,z
1/2-x,1/2-y,z
1/2+x,1/2-y,-z
1/2-x,1/2+y,-z
1/2-x,1/2-y,-z
1/2+x,1/2+y,-z
1/2-x,1/2+y,z
1/2+x,1/2-y,z
loop_
_atom_site_type_symbol
_atom_site_label
_atom_site_fract_x
_atom_site_fract_y
_atom_site_fract_z
Si Si1 0.555302 0.692294 0.939493
Si Si2 0.610054 0.687428 0.164273
Si Si3 0.405883 0.689716 0.373055
Si Si4 0.500000 0.307212 0.561933
Si Si5 0.943265 0.317622 0.262049
Si Si6 0.302409 0.688718 0.649498
Si Si7 0.301168 0.186537 0.229526
O O1 0.500000 0.740507 0.928483
O O2 0.555506 0.500000 0.938719
O O3 0.591209 0.745319 0.893115
O O4 0.567625 0.741268 0.000000
O O5 0.617570 0.500000 0.161697
O O6 0.569643 0.726902 0.208184
O O7 0.657405 0.766161 0.188540
O O8 0.405710 0.500000 0.377322
O O9 0.450593 0.747080 0.409307
O O10 0.418558 0.738032 0.312729
O O11 0.350570 0.743242 0.381929
O O12 0.500000 0.500000 0.564663
O O13 0.500000 0.262100 0.500000
O O14 0.927288 0.500000 0.257447
O O15 0.000000 0.315082 0.271071
O O16 0.300981 0.500000 0.647731
O O17 0.250000 0.750000 0.631812
O O18 0.308869 0.739396 0.711546
O O19 0.250000 0.250000 0.210088
O O20 0.299236 0.000000 0.236340
#
# Coordination Sequence:
#
# PCOD9485779 Si02
#       7
#    16  16  16   8  16  16  16
#     4   8  15  29  49  73  99 129 168 211 253 300
#     4  11  20  31  50  75 102 134 170 210 258 314
#     4  10  19  32  53  77 103 137 175 216 262 316
#     4   9  18  34  57  83 107 137 180 229 270 307
#     4  11  22  32  45  71 106 140 170 207 258 314
#     4  10  19  31  49  75 104 138 177 214 259 316
#     4  11  21  33  49  71 102 136 170 210 256 311
#
# _framework density 17.625482999999999
#
# number of rings (size 3 to 8) (size 9 to 14) (size 15 to 20)
#    0.000    1.923    2.308    4.615    0.000    2.154 
#    0.000    0.000    0.000    3.692    0.000    5.385 
#    0.000    0.000    0.000    0.000    0.000    0.615 
#
# Total GULP energy -289988.598306 kJ/mol
# GULP energy per Si atom -5576.703814 kJ/mol
# Density = 1.758537 g / cm^3
# Si number density = 17.625483 Si / 1000 Ang^3
#
#
#
# Elastic Constant Matrix: (Units=GPa)
#
#
# Indices 1 2 3 4 5 6 
#
# 1 151.1840 24.3415 48.4195 0.0000 0.0000 0.0000
# 2 24.3415 17.1535 7.5093 0.0000 0.0000 0.0000
# 3 48.4195 7.5093 60.9438 0.0000 0.0000 0.0000
# 4 0.0000 0.0000 0.0000 3.6354 0.0000 0.0000
# 5 0.0000 0.0000 0.0000 0.0000 16.5139 0.0000
# 6 0.0000 0.0000 0.0000 0.0000 0.0000 26.4929
#
#
#
# Elastic Compliance Matrix: (Units=1/GPa)
#
#
# Indices 1 2 3 4 5 6 
#
# 1 0.010880 -0.012320 -0.007126 0.000000 0.000000 0.000000
# 2 -0.012320 0.075571 0.000477 0.000000 0.000000 0.000000
# 3 -0.007126 0.000477 0.022012 0.000000 0.000000 0.000000
# 4 0.000000 0.000000 0.000000 0.275070 0.000000 0.000000
# 5 0.000000 0.000000 0.000000 0.000000 0.060555 0.000000
# 6 0.000000 0.000000 0.000000 0.000000 0.000000 0.037746
#
#
# Mechanical properties :
#
#
# Convention : Reuss Voigt Hill
#
# Bulk Modulus (GPa) = 14.17966 43.31353 28.74660
# Shear Modulus (GPa) = 9.20333 19.26250 14.23291
#
# Velocity S-wave (km/s) = 2.28756 3.30946 2.84477
# Velocity P-wave (km/s) = 3.87810 6.26347 5.20916
#
# Compressibility (1/GPa) = 0.07052355
#
# Stress axis : x y z
#
# Youngs Moduli (GPa) = 91.90827 13.23258 45.43031
#
# Poissons Ratio (x) = 0.16303 0.32375
# Poissons Ratio (y) = 1.13231 -0.02165
# Poissons Ratio (z) = 0.65498 -0.00631
#
# Static dielectric constant tensor:
#      x y z
#    x 1.639980 0.000000 0.000000 
#    y 0.000000 1.609300 0.000000 
#    z 0.000000 0.000000 1.573220 
# 
# From -- ./inp_files/65940.got.cif
#   From: 2010.05.17/outbox.cif.g08.bks.cpg/sg65_33_cif.got.tgz:65940.got - 2010.06.03 17:01:31.
