data_PCOD9485584
_publ_section_title
;
Structure prediction by ZEFSAII (Michael W. Deem and Ramdas Pophale) SiO2 
 PCOD9485584
Probable space group: C M M M
;
_chemical_formula_sum "Si O2"
_cell_formula_units_Z 80
_cell_length_a 18.494963
_cell_length_b 7.695317
_cell_length_c 27.454309
_cell_angle_alpha 90.000000
_cell_angle_beta 90.000000
_cell_angle_gamma 90.000000
_cell_volume 3907.423634
_symmetry_space_group_name_H-M "C M M M"
_symmetry_group_IT_number 65
_symmetry_cell_setting 'orthorhombic'
loop_
_space_group_symop_operation_xyz
x,y,z
-x,-y,z
x,-y,-z
-x,y,-z
-x,-y,-z
x,y,-z
-x,y,z
x,-y,z
1/2+x,1/2+y,z
1/2-x,1/2-y,z
1/2+x,1/2-y,-z
1/2-x,1/2+y,-z
1/2-x,1/2-y,-z
1/2+x,1/2+y,-z
1/2-x,1/2+y,z
1/2+x,1/2-y,z
loop_
_atom_site_type_symbol
_atom_site_label
_atom_site_fract_x
_atom_site_fract_y
_atom_site_fract_z
Si Si1 0.165019 0.792994 0.710551
Si Si2 0.665587 0.790954 0.902962
Si Si3 0.164250 0.790886 0.604757
Si Si4 0.916391 0.287196 0.000000
Si Si5 0.418579 0.793076 0.191678
Si Si6 0.664013 0.290613 0.500000
O O1 0.250000 0.750000 0.716039
O O2 0.138478 0.725201 0.657523
O O3 0.120677 0.732103 0.756953
O O4 0.159148 0.000000 0.709138
O O5 0.750000 0.750000 0.904246
O O6 0.624658 0.728206 0.951344
O O7 0.628278 0.723712 0.853539
O O8 0.659150 0.000000 0.902966
O O9 0.250000 0.750000 0.604715
O O10 0.135295 0.725821 0.552411
O O11 0.155702 0.000000 0.604543
O O12 0.915484 0.500000 0.000000
O O13 0.000000 0.234188 0.000000
O O14 0.500000 0.721831 0.192076
O O15 0.423798 0.000000 0.184330
O O16 0.656359 0.500000 0.500000
O O17 0.750000 0.250000 0.500000
#
# Coordination Sequence:
#
# PCOD9485584 Si02
#       6
#    16  16  16   8  16   8
#     4  10  19  31  48  71  98 128 162 199 241 290
#     4  10  20  34  54  78 102 129 162 200 241 287
#     4   8  14  23  37  59  87 118 151 188 231 280
#     4   9  17  32  55  79 102 131 166 200 234 277
#     4  10  21  36  52  71  96 127 164 205 248 293
#     4   8  12  20  34  54  83 116 147 183 229 277
#
# _framework density 20.473849000000001
#
# number of rings (size 3 to 8) (size 9 to 14) (size 15 to 20)
#    0.000    2.700    0.000    2.100    0.000    6.000 
#    0.000    0.000    0.000    2.400    0.000    0.700 
#    0.000    5.600    0.000    0.000    0.000    0.400 
#
# Total GULP energy -222962.538487 kJ/mol
# GULP energy per Si atom -5574.063462 kJ/mol
# Density = 2.042725 g / cm^3
# Si number density = 20.473849 Si / 1000 Ang^3
#
#
#
# Elastic Constant Matrix: (Units=GPa)
#
#
# Indices 1 2 3 4 5 6 
#
# 1 117.5898 0.8381 109.1825 0.0000 0.0000 0.0000
# 2 0.8381 37.2978 7.1303 0.0000 0.0000 0.0000
# 3 109.1825 7.1303 267.3212 0.0000 0.0000 0.0000
# 4 0.0000 0.0000 0.0000 11.7842 0.0000 0.0000
# 5 0.0000 0.0000 0.0000 0.0000 -7.5883 0.0000
# 6 0.0000 0.0000 0.0000 0.0000 0.0000 16.7630
#
#
#
# Elastic Compliance Matrix: (Units=1/GPa)
#
#
# Indices 1 2 3 4 5 6 
#
# 1 0.013721 0.000767 -0.005625 0.000000 0.000000 0.000000
# 2 0.000767 0.026992 -0.001033 0.000000 0.000000 0.000000
# 3 -0.005625 -0.001033 0.006066 0.000000 0.000000 0.000000
# 4 0.000000 0.000000 0.000000 0.084860 0.000000 0.000000
# 5 0.000000 0.000000 0.000000 0.000000 -0.131782 0.000000
# 6 0.000000 0.000000 0.000000 0.000000 0.000000 0.059655
#
#
# Mechanical properties :
#
#
# Convention : Reuss Voigt Hill
#
# Bulk Modulus (GPa) = 28.57422 72.94564 50.75993
# Shear Modulus (GPa) = 60.27100 24.52896 42.39998
#
# Velocity S-wave (km/s) = 5.43157 3.46506 4.55569
# Velocity P-wave (km/s) = 7.30224 7.19131 7.24698
#
# Compressibility (1/GPa) = 0.03499658
#
# Stress axis : x y z
#
# Youngs Moduli (GPa) = 72.88019 37.04870 164.86281
#
# Poissons Ratio (x) = -0.02841 0.92729
# Poissons Ratio (y) = -0.05590 0.17034
# Poissons Ratio (z) = 0.40992 0.03828
#
# Static dielectric constant tensor:
#      x y z
#    x 1.673530 0.000000 0.000000 
#    y 0.000000 1.755660 0.000000 
#    z 0.000000 0.000000 1.790740 
# 
# From -- ./inp_files/75086.got.cif
#   From: 2010.05.17/outbox.cif.g08.bks.cpg/sg65_38_cif.got.tgz:75086.got - 2010.06.03 17:01:31.
