data_PCOD9485624
_publ_section_title
;
Structure prediction by ZEFSAII (Michael W. Deem and Ramdas Pophale) SiO2 
 PCOD9485624
Probable space group: C M M M
;
_chemical_formula_sum "Si O2"
_cell_formula_units_Z 80
_cell_length_a 15.233765
_cell_length_b 23.988761
_cell_length_c 11.723920
_cell_angle_alpha 90.000000
_cell_angle_beta 90.000000
_cell_angle_gamma 90.000000
_cell_volume 4284.379333
_symmetry_space_group_name_H-M "C M M M"
_symmetry_group_IT_number 65
_symmetry_cell_setting 'orthorhombic'
loop_
_space_group_symop_operation_xyz
x,y,z
-x,-y,z
x,-y,-z
-x,y,-z
-x,-y,-z
x,y,-z
-x,y,z
x,-y,z
1/2+x,1/2+y,z
1/2-x,1/2-y,z
1/2+x,1/2-y,-z
1/2-x,1/2+y,-z
1/2-x,1/2-y,-z
1/2+x,1/2+y,-z
1/2-x,1/2+y,z
1/2+x,1/2-y,z
loop_
_atom_site_type_symbol
_atom_site_label
_atom_site_fract_x
_atom_site_fract_y
_atom_site_fract_z
Si Si1 0.841001 0.878755 0.736842
Si Si2 0.300261 0.936230 0.873715
Si Si3 0.500000 0.564758 0.133861
Si Si4 0.500000 0.061422 0.804032
Si Si5 0.606288 0.566559 0.500000
Si Si6 0.500000 0.821563 0.865302
Si Si7 0.149788 0.230609 0.870961
O O1 0.745362 0.897465 0.781296
O O2 0.857381 0.900972 0.610185
O O3 0.857693 0.814835 0.771137
O O4 0.913038 0.910226 0.812472
O O5 0.405567 0.939432 0.866012
O O6 0.268018 0.000000 0.859828
O O7 0.275894 0.916060 0.000000
O O8 0.500000 0.500000 0.160456
O O9 0.500000 0.573460 0.000000
O O10 0.500000 0.127636 0.774829
O O11 0.500000 0.000000 0.740761
O O12 0.629236 0.500000 0.500000
O O13 0.500000 0.569437 0.500000
O O14 0.584721 0.782312 0.852502
O O15 0.500000 0.841098 0.000000
O O16 0.250000 0.250000 0.873130
O O17 0.129033 0.208215 0.000000
#
# Coordination Sequence:
#
# PCOD9485624 Si02
#       7
#    16  16   8   8   8   8  16
#     4  12  22  37  58  82 115 159 202 243 297 363
#     4  10  19  31  52  84 118 151 190 238 293 355
#     4  11  21  32  52  85 121 151 187 245 310 375
#     4  10  20  34  55  85 121 156 187 227 288 358
#     4  11  24  42  61  83 117 163 212 260 304 353
#     4  10  19  31  48  75 112 150 185 221 271 340
#     4  10  21  36  56  85 119 154 192 240 298 360
#
# _framework density 18.672481999999999
#
# number of rings (size 3 to 8) (size 9 to 14) (size 15 to 20)
#    0.000    1.400    1.000    6.300    0.000    6.200 
#    0.000    0.500    0.000    0.600    0.000    2.800 
#    0.000    0.000    0.000    0.000    0.000    0.000 
#
# Total GULP energy -222935.667498 kJ/mol
# GULP energy per Si atom -5573.391687 kJ/mol
# Density = 1.862998 g / cm^3
# Si number density = 18.672482 Si / 1000 Ang^3
#
#
#
# Elastic Constant Matrix: (Units=GPa)
#
#
# Indices 1 2 3 4 5 6 
#
# 1 90.1742 32.3098 25.2955 0.0000 0.0000 0.0000
# 2 32.3098 117.1188 38.3626 0.0000 0.0000 0.0000
# 3 25.2955 38.3626 148.0626 0.0000 0.0000 0.0000
# 4 0.0000 0.0000 0.0000 28.1482 0.0000 0.0000
# 5 0.0000 0.0000 0.0000 0.0000 6.3211 0.0000
# 6 0.0000 0.0000 0.0000 0.0000 0.0000 30.5127
#
#
#
# Elastic Compliance Matrix: (Units=1/GPa)
#
#
# Indices 1 2 3 4 5 6 
#
# 1 0.012553 -0.003017 -0.001363 0.000000 0.000000 0.000000
# 2 -0.003017 0.010055 -0.002090 0.000000 0.000000 0.000000
# 3 -0.001363 -0.002090 0.007528 0.000000 0.000000 0.000000
# 4 0.000000 0.000000 0.000000 0.035526 0.000000 0.000000
# 5 0.000000 0.000000 0.000000 0.000000 0.158202 0.000000
# 6 0.000000 0.000000 0.000000 0.000000 0.000000 0.032773
#
#
# Mechanical properties :
#
#
# Convention : Reuss Voigt Hill
#
# Bulk Modulus (GPa) = 58.14856 60.81015 59.47936
# Shear Modulus (GPa) = 18.16145 30.28889 24.22517
#
# Velocity S-wave (km/s) = 3.12209 4.03192 3.60581
# Velocity P-wave (km/s) = 6.64872 7.36971 7.01848
#
# Compressibility (1/GPa) = 0.01719733
#
# Stress axis : x y z
#
# Youngs Moduli (GPa) = 79.66334 99.45238 132.83308
#
# Poissons Ratio (x) = 0.30000 0.18105
# Poissons Ratio (y) = 0.24031 0.27761
# Poissons Ratio (z) = 0.10858 0.20784
#
# Static dielectric constant tensor:
#      x y z
#    x 1.659180 0.000000 0.000000 
#    y 0.000000 1.715930 0.000000 
#    z 0.000000 0.000000 1.620690 
# 
# From -- ./inp_files/24754.got.cif
#   From: 2010.05.17/outbox.cif.g08.bks.cpg/sg65_13_cif.got.tgz:24754.got - 2010.06.03 17:01:31.
