data_PCOD9485038
_publ_section_title
;
Structure prediction by ZEFSAII (Michael W. Deem and Ramdas Pophale) SiO2 
 PCOD9485038
Probable space group: C M M M
;
_chemical_formula_sum "Si O2"
_cell_formula_units_Z 104
_cell_length_a 8.838433
_cell_length_b 28.181059
_cell_length_c 27.143792
_cell_angle_alpha 90.000000
_cell_angle_beta 90.000000
_cell_angle_gamma 90.000000
_cell_volume 6760.878044
_symmetry_space_group_name_H-M "C M M M"
_symmetry_group_IT_number 65
_symmetry_cell_setting 'orthorhombic'
loop_
_space_group_symop_operation_xyz
x,y,z
-x,-y,z
x,-y,-z
-x,y,-z
-x,-y,-z
x,y,-z
-x,y,z
x,-y,z
1/2+x,1/2+y,z
1/2-x,1/2-y,z
1/2+x,1/2-y,-z
1/2-x,1/2+y,-z
1/2-x,1/2-y,-z
1/2+x,1/2+y,-z
1/2-x,1/2+y,z
1/2+x,1/2-y,z
loop_
_atom_site_type_symbol
_atom_site_label
_atom_site_fract_x
_atom_site_fract_y
_atom_site_fract_z
Si Si1 0.681578 0.697922 0.250365
Si Si2 0.181075 0.055951 0.396231
Si Si3 0.317394 0.302218 0.055622
Si Si4 0.818498 0.390703 0.303454
Si Si5 0.674005 0.942472 0.500000
Si Si6 0.681954 0.946022 0.796276
Si Si7 0.181858 0.858559 0.848807
O O1 0.500000 0.699404 0.254081
O O2 0.750000 0.750000 0.256516
O O3 0.748152 0.660020 0.289010
O O4 0.721902 0.677056 0.196125
O O5 0.253609 0.086958 0.353123
O O6 0.242546 0.071383 0.449711
O O7 0.000000 0.059563 0.395118
O O8 0.221072 0.000000 0.389249
O O9 0.500000 0.298961 0.057731
O O10 0.250000 0.250000 0.063767
O O11 0.267518 0.337005 0.099194
O O12 0.275517 0.317364 0.000000
O O13 0.778655 0.425660 0.257825
O O14 0.000000 0.387145 0.306021
O O15 0.500000 0.926521 0.500000
O O16 0.674238 0.000000 0.500000
O O17 0.500000 0.945355 0.799819
O O18 0.749140 0.909247 0.835266
O O19 0.734665 0.000000 0.802081
O O20 0.000000 0.862519 0.849266
#
# Coordination Sequence:
#
# PCOD9485038 Si02
#       7
#    16  16  16  16   8  16  16
#     4  10  19  31  46  66  92 119 149 184 224 270
#     4  10  19  30  45  67  96 126 155 190 230 270
#     4   9  17  29  45  66  91 116 144 180 222 268
#     4  10  19  31  47  67  91 120 153 187 226 271
#     4   9  17  29  45  65  90 123 160 193 227 269
#     4   9  18  31  46  65  89 117 150 187 224 264
#     4   9  18  30  45  66  90 117 148 182 221 267
#
# _framework density 15.382617
#
# number of rings (size 3 to 8) (size 9 to 14) (size 15 to 20)
#    0.000    2.538    0.000    2.538    0.000    4.615 
#    0.000    0.000    0.000    0.462    0.000    3.769 
#    0.000    0.000    0.000    0.000    0.000    0.000 
#
# Total GULP energy -289952.030865 kJ/mol
# GULP energy per Si atom -5576.000594 kJ/mol
# Density = 1.534761 g / cm^3
# Si number density = 15.382617 Si / 1000 Ang^3
#
#
#
# Elastic Constant Matrix: (Units=GPa)
#
#
# Indices 1 2 3 4 5 6 
#
# 1 40.2262 43.8167 43.6191 0.0000 0.0000 0.0000
# 2 43.8167 132.9376 84.1462 0.0000 0.0000 0.0000
# 3 43.6191 84.1462 141.2854 0.0000 0.0000 0.0000
# 4 0.0000 0.0000 0.0000 25.5328 0.0000 0.0000
# 5 0.0000 0.0000 0.0000 0.0000 21.8386 0.0000
# 6 0.0000 0.0000 0.0000 0.0000 0.0000 27.2274
#
#
#
# Elastic Compliance Matrix: (Units=1/GPa)
#
#
# Indices 1 2 3 4 5 6 
#
# 1 0.043634 -0.009398 -0.007874 0.000000 0.000000 0.000000
# 2 -0.009398 0.014098 -0.005495 0.000000 0.000000 0.000000
# 3 -0.007874 -0.005495 0.012782 0.000000 0.000000 0.000000
# 4 0.000000 0.000000 0.000000 0.039165 0.000000 0.000000
# 5 0.000000 0.000000 0.000000 0.000000 0.045791 0.000000
# 6 0.000000 0.000000 0.000000 0.000000 0.000000 0.036728
#
#
# Mechanical properties :
#
#
# Convention : Reuss Voigt Hill
#
# Bulk Modulus (GPa) = 40.03215 73.06812 56.55014
# Shear Modulus (GPa) = 20.32037 24.44425 22.38231
#
# Velocity S-wave (km/s) = 3.63849 3.99065 3.81864
# Velocity P-wave (km/s) = 6.61304 8.29683 7.50232
#
# Compressibility (1/GPa) = 0.02497992
#
# Stress axis : x y z
#
# Youngs Moduli (GPa) = 22.91770 70.93109 78.23757
#
# Poissons Ratio (x) = 0.66661 0.61605
# Poissons Ratio (y) = 0.21538 0.42992
# Poissons Ratio (z) = 0.18046 0.38977
#
# Static dielectric constant tensor:
#      x y z
#    x 1.514900 0.000000 0.000000 
#    y 0.000000 1.484490 0.000000 
#    z 0.000000 0.000000 1.505730 
# 
# From -- ./inp_files/68234.got.cif
#   From: 2010.05.17/outbox.cif.g08.bks.cpg/sg65_35_cif.got.tgz:68234.got - 2010.06.03 17:01:31.
