data_PCOD9485567
_publ_section_title
;
Structure prediction by ZEFSAII (Michael W. Deem and Ramdas Pophale) SiO2 
 PCOD9485567
Probable space group: C M M M
;
_chemical_formula_sum "Si O2"
_cell_formula_units_Z 80
_cell_length_a 7.787997
_cell_length_b 18.529669
_cell_length_c 27.023178
_cell_angle_alpha 90.000000
_cell_angle_beta 90.000000
_cell_angle_gamma 90.000000
_cell_volume 3899.687972
_symmetry_space_group_name_H-M "C M M M"
_symmetry_group_IT_number 65
_symmetry_cell_setting 'orthorhombic'
loop_
_space_group_symop_operation_xyz
x,y,z
-x,-y,z
x,-y,-z
-x,y,-z
-x,-y,-z
x,y,-z
-x,y,z
x,-y,z
1/2+x,1/2+y,z
1/2-x,1/2-y,z
1/2+x,1/2-y,-z
1/2-x,1/2+y,-z
1/2-x,1/2-y,-z
1/2+x,1/2+y,-z
1/2-x,1/2+y,z
1/2+x,1/2-y,z
loop_
_atom_site_type_symbol
_atom_site_label
_atom_site_fract_x
_atom_site_fract_y
_atom_site_fract_z
Si Si1 0.200347 0.587829 0.500000
Si Si2 0.793500 0.333818 0.705172
Si Si3 0.296362 0.418795 0.000000
Si Si4 0.789337 0.416512 0.196491
Si Si5 0.703079 0.833850 0.099323
Si Si6 0.210517 0.584064 0.607713
O O1 0.203760 0.500000 0.500000
O O2 0.272966 0.609467 0.553439
O O3 0.000000 0.609539 0.500000
O O4 0.750000 0.250000 0.708888
O O5 0.731897 0.377284 0.753323
O O6 0.730387 0.368696 0.653896
O O7 0.000000 0.340670 0.704607
O O8 0.249197 0.375248 0.950802
O O9 0.221693 0.500000 0.000000
O O10 0.500000 0.424936 0.000000
O O11 0.737345 0.500000 0.195052
O O12 0.726328 0.373740 0.148086
O O13 0.000000 0.415607 0.196496
O O14 0.500000 0.837345 0.103825
O O15 0.750000 0.750000 0.097144
O O16 0.257714 0.500000 0.614739
O O17 0.000000 0.585641 0.606288
#
# Coordination Sequence:
#
# PCOD9485567 Si02
#       6
#     8  16   8  16  16  16
#     4   7  10  18  35  62  91 115 150 203 250 282
#     4  10  19  31  48  70  98 129 161 200 246 297
#     4  11  24  41  60  83 111 141 176 217 256 297
#     4   9  18  33  54  78 100 127 168 213 252 294
#     4  11  22  37  58  82 110 141 173 210 254 305
#     4   8  13  23  42  66  90 120 160 204 245 285
#
# _framework density 20.514461000000001
#
# number of rings (size 3 to 8) (size 9 to 14) (size 15 to 20)
#    0.000    2.600    0.000    4.200    0.000    4.000 
#    0.000    1.500    0.000    4.800    0.000    0.000 
#    0.000    2.400    0.000    0.000    0.000    0.000 
#
# Total GULP energy -223251.236902 kJ/mol
# GULP energy per Si atom -5581.280923 kJ/mol
# Density = 2.046777 g / cm^3
# Si number density = 20.514461 Si / 1000 Ang^3
#
#
#
# Elastic Constant Matrix: (Units=GPa)
#
#
# Indices 1 2 3 4 5 6 
#
# 1 29.6915 5.6286 13.2430 0.0000 0.0000 0.0000
# 2 5.6286 179.7640 137.8217 0.0000 0.0000 0.0000
# 3 13.2430 137.8217 255.6298 0.0000 0.0000 0.0000
# 4 0.0000 0.0000 0.0000 -10.0028 0.0000 0.0000
# 5 0.0000 0.0000 0.0000 0.0000 -2.7035 0.0000
# 6 0.0000 0.0000 0.0000 0.0000 0.0000 9.4807
#
#
#
# Elastic Compliance Matrix: (Units=1/GPa)
#
#
# Indices 1 2 3 4 5 6 
#
# 1 0.034502 0.000494 -0.002054 0.000000 0.000000 0.000000
# 2 0.000494 0.009490 -0.005142 0.000000 0.000000 0.000000
# 3 -0.002054 -0.005142 0.006791 0.000000 0.000000 0.000000
# 4 0.000000 0.000000 0.000000 -0.099972 0.000000 0.000000
# 5 0.000000 0.000000 0.000000 0.000000 -0.369885 0.000000
# 6 0.000000 0.000000 0.000000 0.000000 0.000000 0.105477
#
#
# Mechanical properties :
#
#
# Convention : Reuss Voigt Hill
#
# Bulk Modulus (GPa) = 26.75274 86.49688 56.62481
# Shear Modulus (GPa) = -17.37711 19.91434 1.26862
#
# Velocity S-wave (km/s) = -2.91360 3.11906 0.78724
# Velocity P-wave (km/s) = 1.32306 7.43147 5.33747
#
# Compressibility (1/GPa) = 0.03737934
#
# Stress axis : x y z
#
# Youngs Moduli (GPa) = 28.98379 105.37925 147.26401
#
# Poissons Ratio (x) = -0.05210 0.30248
# Poissons Ratio (y) = -0.01433 0.75721
# Poissons Ratio (z) = 0.05953 0.54185
#
# Static dielectric constant tensor:
#      x y z
#    x 1.755640 0.000000 0.000000 
#    y 0.000000 1.586720 0.000000 
#    z 0.000000 0.000000 1.813960 
# 
# From -- ./inp_files/72905.got.cif
#   From: 2010.05.17/outbox.cif.g08.bks.cpg/sg65_37_cif.got.tgz:72905.got - 2010.06.03 17:01:31.
