data_PCOD9485823
_publ_section_title
;
Structure prediction by ZEFSAII (Michael W. Deem and Ramdas Pophale) SiO2 
 PCOD9485823
Probable space group: C M M M
;
_chemical_formula_sum "Si O2"
_cell_formula_units_Z 56
_cell_length_a 8.019234
_cell_length_b 15.791545
_cell_length_c 21.247945
_cell_angle_alpha 90.000000
_cell_angle_beta 90.000000
_cell_angle_gamma 90.000000
_cell_volume 2690.756773
_symmetry_space_group_name_H-M "C M M M"
_symmetry_group_IT_number 65
_symmetry_cell_setting 'orthorhombic'
loop_
_space_group_symop_operation_xyz
x,y,z
-x,-y,z
x,-y,-z
-x,y,-z
-x,-y,-z
x,y,-z
-x,y,z
x,-y,z
1/2+x,1/2+y,z
1/2-x,1/2-y,z
1/2+x,1/2-y,-z
1/2-x,1/2+y,-z
1/2-x,1/2-y,-z
1/2+x,1/2+y,-z
1/2-x,1/2+y,z
1/2+x,1/2-y,z
loop_
_atom_site_type_symbol
_atom_site_label
_atom_site_fract_x
_atom_site_fract_y
_atom_site_fract_z
Si Si1 0.800885 0.652704 0.797342
Si Si2 0.802366 0.848723 0.339155
Si Si3 0.204771 0.000000 0.572609
Si Si4 0.304502 0.898547 0.932799
O O1 0.750000 0.750000 0.792971
O O2 0.741615 0.616741 0.730717
O O3 0.730617 0.624336 0.865059
O O4 0.000000 0.641404 0.799038
O O5 0.750000 0.750000 0.346352
O O6 0.738042 0.915389 0.390675
O O7 0.000000 0.847610 0.343675
O O8 0.255983 0.000000 0.500000
O O9 0.000000 0.000000 0.573915
O O10 0.500000 0.871793 0.932260
O O11 0.303041 0.000000 0.934849
O O12 0.231726 0.867746 0.000000
#
# Coordination Sequence:
#
# PCOD9485823 Si02
#       4
#    16  16   8  16
#     4  10  19  31  50  74 101 133 171 214 259 307
#     4  10  20  36  57  81 110 143 177 218 263 314
#     4   9  20  38  59  83 110 143 178 210 261 325
#     4   8  15  28  45  67  95 129 170 213 257 303
#
# _framework density 20.811989000000001
#
# number of rings (size 3 to 8) (size 9 to 14) (size 15 to 20)
#    0.000    2.714    0.000    4.286    2.000    1.143 
#    0.000    2.143    0.000    8.571    0.000    8.000 
#    0.000    0.000    0.000    0.000    0.000    0.000 
#
# Total GULP energy -155907.865487 kJ/mol
# GULP energy per Si atom -5568.138053 kJ/mol
# Density = 2.076462 g / cm^3
# Si number density = 20.811989 Si / 1000 Ang^3
#
#
#
# Elastic Constant Matrix: (Units=GPa)
#
#
# Indices 1 2 3 4 5 6 
#
# 1 28.2253 8.2919 13.1946 0.0000 0.0000 0.0000
# 2 8.2919 69.5009 86.5697 0.0000 0.0000 0.0000
# 3 13.1946 86.5697 251.3189 0.0000 0.0000 0.0000
# 4 0.0000 0.0000 0.0000 57.8954 0.0000 0.0000
# 5 0.0000 0.0000 0.0000 0.0000 13.2169 0.0000
# 6 0.0000 0.0000 0.0000 0.0000 0.0000 6.5057
#
#
#
# Elastic Compliance Matrix: (Units=1/GPa)
#
#
# Indices 1 2 3 4 5 6 
#
# 1 0.036793 -0.003474 -0.000735 0.000000 0.000000 0.000000
# 2 -0.003474 0.025529 -0.008611 0.000000 0.000000 0.000000
# 3 -0.000735 -0.008611 0.006984 0.000000 0.000000 0.000000
# 4 0.000000 0.000000 0.000000 0.017273 0.000000 0.000000
# 5 0.000000 0.000000 0.000000 0.000000 0.075661 0.000000
# 6 0.000000 0.000000 0.000000 0.000000 0.000000 0.153711
#
#
# Mechanical properties :
#
#
# Convention : Reuss Voigt Hill
#
# Bulk Modulus (GPa) = 22.90152 62.79530 42.84841
# Shear Modulus (GPa) = 14.03916 31.58952 22.81434
#
# Velocity S-wave (km/s) = 2.60007 3.90019 3.31450
# Velocity P-wave (km/s) = 4.47680 7.10775 5.93977
#
# Compressibility (1/GPa) = 0.04366522
#
# Stress axis : x y z
#
# Youngs Moduli (GPa) = 27.17874 39.17103 143.18678
#
# Poissons Ratio (x) = 0.13609 0.10524
# Poissons Ratio (y) = 0.09443 1.23304
# Poissons Ratio (z) = 0.01998 0.33732
#
# Static dielectric constant tensor:
#      x y z
#    x 1.749440 0.000000 0.000000 
#    y 0.000000 1.742010 0.000000 
#    z 0.000000 0.000000 1.839120 
# 
# From -- ./inp_files/48759.got.cif
#   From: 2010.05.17/outbox.cif.g08.bks.cpg/sg65_25_cif.got.tgz:48759.got - 2010.06.03 17:01:31.
