data_PCOD9485322
_publ_section_title
;
Structure prediction by ZEFSAII (Michael W. Deem and Ramdas Pophale) SiO2 
 PCOD9485322
Probable space group: C M M M
;
_chemical_formula_sum "Si O2"
_cell_formula_units_Z 64
_cell_length_a 10.706193
_cell_length_b 14.353089
_cell_length_c 18.770064
_cell_angle_alpha 90.000000
_cell_angle_beta 90.000000
_cell_angle_gamma 90.000000
_cell_volume 2884.338317
_symmetry_space_group_name_H-M "C M M M"
_symmetry_group_IT_number 65
_symmetry_cell_setting 'orthorhombic'
loop_
_space_group_symop_operation_xyz
x,y,z
-x,-y,z
x,-y,-z
-x,y,-z
-x,-y,-z
x,y,-z
-x,y,z
x,-y,z
1/2+x,1/2+y,z
1/2-x,1/2-y,z
1/2+x,1/2-y,-z
1/2-x,1/2+y,-z
1/2-x,1/2-y,-z
1/2+x,1/2+y,-z
1/2-x,1/2+y,z
1/2+x,1/2-y,z
loop_
_atom_site_type_symbol
_atom_site_label
_atom_site_fract_x
_atom_site_fract_y
_atom_site_fract_z
Si Si1 0.863970 0.649577 0.160042
Si Si2 0.000000 0.108033 0.367719
Si Si3 0.784663 0.610427 0.317330
Si Si4 0.866282 0.148510 0.915651
Si Si5 0.000000 0.689621 0.418952
O O1 0.826839 0.653594 0.242440
O O2 0.872791 0.751579 0.123922
O O3 0.753069 0.600852 0.117853
O O4 0.000000 0.606536 0.153812
O O5 0.134228 0.119258 0.327509
O O6 0.000000 0.197697 0.418611
O O7 0.000000 0.000000 0.394937
O O8 0.811196 0.500000 0.315545
O O9 0.875031 0.654870 0.377473
O O10 0.000000 0.102839 0.903291
O O11 0.851217 0.161861 0.000000
O O12 0.000000 0.655081 0.500000
#
# Coordination Sequence:
#
# PCOD9485322 Si02
#       5
#    16   8  16  16   8
#     4  10  19  30  55  87 123 165 215 281 329 385
#     4  10  26  46  69 100 138 173 218 281 339 402
#     4  11  25  44  67 101 140 178 228 284 342 405
#     4   9  19  33  53  88 129 174 228 277 334 406
#     4  12  27  47  74 101 135 182 227 274 345 423
#
# _framework density 22.188797999999998
#
# number of rings (size 3 to 8) (size 9 to 14) (size 15 to 20)
#    0.000    1.750    1.250    2.625    8.750    4.750 
#    0.000    2.500    0.000    3.000    0.000   10.500 
#    0.000    0.000    0.000    0.000    0.000    0.000 
#
# Total GULP energy -178510.291717 kJ/mol
# GULP energy per Si atom -5578.446616 kJ/mol
# Density = 2.213830 g / cm^3
# Si number density = 22.188798 Si / 1000 Ang^3
#
#
#
# Elastic Constant Matrix: (Units=GPa)
#
#
# Indices 1 2 3 4 5 6 
#
# 1 255.8923 34.5245 96.6405 0.0000 0.0000 0.0000
# 2 34.5245 127.7420 44.3044 0.0000 0.0000 0.0000
# 3 96.6405 44.3044 174.6543 0.0000 0.0000 0.0000
# 4 0.0000 0.0000 0.0000 831.5500 0.0000 0.0000
# 5 0.0000 0.0000 0.0000 0.0000 32.1033 0.0000
# 6 0.0000 0.0000 0.0000 0.0000 0.0000 -19.0838
#
#
#
# Elastic Compliance Matrix: (Units=1/GPa)
#
#
# Indices 1 2 3 4 5 6 
#
# 1 0.004961 -0.000426 -0.002637 0.000000 0.000000 0.000000
# 2 -0.000426 0.008620 -0.001951 0.000000 0.000000 0.000000
# 3 -0.002637 -0.001951 0.007680 0.000000 0.000000 0.000000
# 4 0.000000 0.000000 0.000000 0.001203 0.000000 0.000000
# 5 0.000000 0.000000 0.000000 0.000000 0.031149 0.000000
# 6 0.000000 0.000000 0.000000 0.000000 0.000000 -0.052400
#
#
# Mechanical properties :
#
#
# Convention : Reuss Voigt Hill
#
# Bulk Modulus (GPa) = 89.02553 101.02525 95.02539
# Shear Modulus (GPa) = 333.66234 194.43516 264.04875
#
# Velocity S-wave (km/s) = 12.27602 9.37112 10.92059
# Velocity P-wave (km/s) = 15.52879 12.75614 14.21025
#
# Compressibility (1/GPa) = 0.01123273
#
# Stress axis : x y z
#
# Youngs Moduli (GPa) = 201.55876 116.00830 130.21484
#
# Poissons Ratio (x) = 0.04945 0.34339
# Poissons Ratio (y) = 0.08592 0.25402
# Poissons Ratio (z) = 0.53153 0.22631
#
# Static dielectric constant tensor:
#      x y z
#    x 1.899610 0.000000 0.000000 
#    y 0.000000 1.866850 0.000000 
#    z 0.000000 0.000000 1.749100 
# 
# From -- ./inp_files/50948.got.cif
#   From: 2010.05.17/outbox.cif.g08.bks.cpg/sg65_26_cif.got.tgz:50948.got - 2010.06.03 17:01:31.
