data_PCOD9485339
_publ_section_title
;
Structure prediction by ZEFSAII (Michael W. Deem and Ramdas Pophale) SiO2 
 PCOD9485339
Probable space group: C M M M
;
_chemical_formula_sum "Si O2"
_cell_formula_units_Z 80
_cell_length_a 8.161847
_cell_length_b 29.246925
_cell_length_c 22.710182
_cell_angle_alpha 90.000000
_cell_angle_beta 90.000000
_cell_angle_gamma 90.000000
_cell_volume 5421.123179
_symmetry_space_group_name_H-M "C M M M"
_symmetry_group_IT_number 65
_symmetry_cell_setting 'orthorhombic'
loop_
_space_group_symop_operation_xyz
x,y,z
-x,-y,z
x,-y,-z
-x,y,-z
-x,-y,-z
x,y,-z
-x,y,z
x,-y,z
1/2+x,1/2+y,z
1/2-x,1/2-y,z
1/2+x,1/2-y,-z
1/2-x,1/2+y,-z
1/2-x,1/2-y,-z
1/2+x,1/2+y,-z
1/2-x,1/2+y,z
1/2+x,1/2-y,z
loop_
_atom_site_type_symbol
_atom_site_label
_atom_site_fract_x
_atom_site_fract_y
_atom_site_fract_z
Si Si1 0.500000 0.055768 0.431779
Si Si2 0.305221 0.605449 0.117456
Si Si3 0.800049 0.947190 0.000000
Si Si4 0.196128 0.300752 0.931922
Si Si5 0.318160 0.555568 0.641255
Si Si6 0.306825 0.947220 0.231547
O O1 0.500000 0.069367 0.500000
O O2 0.334770 0.070986 0.398360
O O3 0.500000 0.000000 0.430059
O O4 0.500000 0.598938 0.121494
O O5 0.266598 0.658525 0.107049
O O6 0.227458 0.584094 0.175612
O O7 0.245192 0.578703 0.058963
O O8 0.000000 0.946172 0.000000
O O9 0.748965 0.000000 0.000000
O O10 0.250000 0.250000 0.913774
O O11 0.000000 0.303273 0.931334
O O12 0.252947 0.307262 0.000000
O O13 0.500000 0.570485 0.622327
O O14 0.316035 0.500000 0.639395
O O15 0.286591 0.567654 0.709446
O O16 0.500000 0.947147 0.245419
O O17 0.259610 0.000000 0.217849
#
# Coordination Sequence:
#
# PCOD9485339 Si02
#       6
#     8  16   8  16  16  16
#     4   9  16  26  40  60  86 113 147 191 229 262
#     4  11  20  31  47  66  87 111 146 185 228 281
#     4   9  18  30  42  59  86 113 140 183 232 272
#     4  10  20  34  51  67  85 107 137 179 230 280
#     4   9  16  27  42  59  82 114 151 189 227 267
#     4  10  19  31  45  62  87 119 154 192 229 269
#
# _framework density 14.75709
#
# number of rings (size 3 to 8) (size 9 to 14) (size 15 to 20)
#    0.000    2.200    2.000    2.400    0.000    3.200 
#    0.000    2.000    0.000    2.400    0.000    0.000 
#    0.000    0.000    0.000    0.000    0.000    1.000 
#
# Total GULP energy -223087.624424 kJ/mol
# GULP energy per Si atom -5577.190611 kJ/mol
# Density = 1.472350 g / cm^3
# Si number density = 14.757090 Si / 1000 Ang^3
#
#
#
# Elastic Constant Matrix: (Units=GPa)
#
#
# Indices 1 2 3 4 5 6 
#
# 1 73.3962 8.2204 38.9135 0.0000 0.0000 0.0000
# 2 8.2204 54.0528 27.0935 0.0000 0.0000 0.0000
# 3 38.9135 27.0935 89.6983 0.0000 0.0000 0.0000
# 4 0.0000 0.0000 0.0000 2.1452 0.0000 0.0000
# 5 0.0000 0.0000 0.0000 0.0000 15.3148 0.0000
# 6 0.0000 0.0000 0.0000 0.0000 0.0000 13.9442
#
#
#
# Elastic Compliance Matrix: (Units=1/GPa)
#
#
# Indices 1 2 3 4 5 6 
#
# 1 0.017780 0.001370 -0.008127 0.000000 0.000000 0.000000
# 2 0.001370 0.021907 -0.007211 0.000000 0.000000 0.000000
# 3 -0.008127 -0.007211 0.016852 0.000000 0.000000 0.000000
# 4 0.000000 0.000000 0.000000 0.466160 0.000000 0.000000
# 5 0.000000 0.000000 0.000000 0.000000 0.065296 0.000000
# 6 0.000000 0.000000 0.000000 0.000000 0.000000 0.071714
#
#
# Mechanical properties :
#
#
# Convention : Reuss Voigt Hill
#
# Bulk Modulus (GPa) = 34.96272 40.62245 37.79259
# Shear Modulus (GPa) = 7.17174 15.80884 11.49029
#
# Velocity S-wave (km/s) = 2.20690 3.27658 2.79342
# Velocity P-wave (km/s) = 5.49886 6.47316 6.00580
#
# Compressibility (1/GPa) = 0.02860189
#
# Stress axis : x y z
#
# Youngs Moduli (GPa) = 56.24235 45.64828 59.33865
#
# Poissons Ratio (x) = -0.06252 0.48226
# Poissons Ratio (y) = -0.07703 0.42790
# Poissons Ratio (z) = 0.45709 0.32918
#
# Static dielectric constant tensor:
#      x y z
#    x 1.522480 0.000000 0.000000 
#    y 0.000000 1.454340 0.000000 
#    z 0.000000 0.000000 1.476740 
# 
# From -- ./inp_files/60049.got.cif
#   From: 2010.05.17/outbox.cif.g08.bks.cpg/sg65_31_cif.got.tgz:60049.got - 2010.06.03 17:01:31.
