data_PCOD9485807
_publ_section_title
;
Structure prediction by ZEFSAII (Michael W. Deem and Ramdas Pophale) SiO2 
 PCOD9485807
Probable space group: C M M M
;
_chemical_formula_sum "Si O2"
_cell_formula_units_Z 112
_cell_length_a 30.306295
_cell_length_b 14.945728
_cell_length_c 15.020879
_cell_angle_alpha 90.000000
_cell_angle_beta 90.000000
_cell_angle_gamma 90.000000
_cell_volume 6803.701762
_symmetry_space_group_name_H-M "C M M M"
_symmetry_group_IT_number 65
_symmetry_cell_setting 'orthorhombic'
loop_
_space_group_symop_operation_xyz
x,y,z
-x,-y,z
x,-y,-z
-x,y,-z
-x,-y,-z
x,y,-z
-x,y,z
x,-y,z
1/2+x,1/2+y,z
1/2-x,1/2-y,z
1/2+x,1/2-y,-z
1/2-x,1/2+y,-z
1/2-x,1/2-y,-z
1/2+x,1/2+y,-z
1/2-x,1/2+y,z
1/2+x,1/2-y,z
loop_
_atom_site_type_symbol
_atom_site_label
_atom_site_fract_x
_atom_site_fract_y
_atom_site_fract_z
Si Si1 0.630832 0.603547 0.894378
Si Si2 0.448890 0.392952 0.767190
Si Si3 0.450283 0.108827 0.896635
Si Si4 0.137638 0.394287 0.792959
Si Si5 0.947316 0.777520 0.597804
Si Si6 0.301398 0.241183 0.893353
Si Si7 0.608272 0.102284 0.600222
O O1 0.641328 0.500000 0.872845
O O2 0.585714 0.628234 0.844492
O O3 0.670577 0.669887 0.871151
O O4 0.623759 0.609547 0.000000
O O5 0.500000 0.369757 0.788038
O O6 0.447768 0.500000 0.752047
O O7 0.434132 0.340617 0.678916
O O8 0.500000 0.138940 0.871411
O O9 0.410258 0.135808 0.832372
O O10 0.451203 0.000000 0.895347
O O11 0.441943 0.135139 0.000000
O O12 0.141617 0.500000 0.811809
O O13 0.175013 0.339227 0.842404
O O14 0.138614 0.382529 0.686314
O O15 0.932846 0.810989 0.500000
O O16 0.928951 0.677550 0.607156
O O17 0.000000 0.775092 0.598413
O O18 0.250000 0.250000 0.870900
O O19 0.304680 0.226977 0.000000
O O20 0.627682 0.109874 0.500000
O O21 0.591358 0.000000 0.608704
#
# Coordination Sequence:
#
# PCOD9485807 Si02
#       7
#    16  16  16  16  16  16  16
#     4   9  18  33  51  69  92 124 158 191 231 278
#     4   9  17  29  47  71  96 123 157 197 238 278
#     4   8  14  25  41  63  93 126 156 186 223 271
#     4  10  19  31  50  73  97 128 162 196 237 284
#     4   9  17  28  42  62  91 127 163 198 235 275
#     4  10  21  35  51  73  99 124 154 195 238 283
#     4   9  18  31  46  66  92 123 160 199 238 281
#
# _framework density 16.461625999999999
#
# number of rings (size 3 to 8) (size 9 to 14) (size 15 to 20)
#    0.000    2.857    0.000    1.714    0.000    2.857 
#    0.000    7.857    0.000    1.286    0.000    0.000 
#    0.000    2.286    0.000    0.000    0.000    0.000 
#
# Total GULP energy -311969.924712 kJ/mol
# GULP energy per Si atom -5570.891513 kJ/mol
# Density = 1.642416 g / cm^3
# Si number density = 16.461626 Si / 1000 Ang^3
#
#
#
# Elastic Constant Matrix: (Units=GPa)
#
#
# Indices 1 2 3 4 5 6 
#
# 1 89.4175 40.7823 60.9590 0.0000 0.0000 0.0000
# 2 40.7823 54.9412 43.3936 0.0000 0.0000 0.0000
# 3 60.9590 43.3936 71.7291 0.0000 0.0000 0.0000
# 4 0.0000 0.0000 0.0000 23.9025 0.0000 0.0000
# 5 0.0000 0.0000 0.0000 0.0000 13.2391 0.0000
# 6 0.0000 0.0000 0.0000 0.0000 0.0000 22.9403
#
#
#
# Elastic Compliance Matrix: (Units=1/GPa)
#
#
# Indices 1 2 3 4 5 6 
#
# 1 0.026969 -0.003670 -0.020699 0.000000 0.000000 0.000000
# 2 -0.003670 0.035355 -0.018270 0.000000 0.000000 0.000000
# 3 -0.020699 -0.018270 0.042585 0.000000 0.000000 0.000000
# 4 0.000000 0.000000 0.000000 0.041837 0.000000 0.000000
# 5 0.000000 0.000000 0.000000 0.000000 0.075534 0.000000
# 6 0.000000 0.000000 0.000000 0.000000 0.000000 0.043591
#
#
# Mechanical properties :
#
#
# Convention : Reuss Voigt Hill
#
# Bulk Modulus (GPa) = 50.93916 56.26196 53.60056
# Shear Modulus (GPa) = 13.97850 16.74658 15.36254
#
# Velocity S-wave (km/s) = 2.91719 3.19299 3.05820
# Velocity P-wave (km/s) = 6.50830 6.91704 6.71578
#
# Compressibility (1/GPa) = 0.01963126
#
# Stress axis : x y z
#
# Youngs Moduli (GPa) = 37.08020 28.28425 23.48246
#
# Poissons Ratio (x) = 0.10380 0.48606
# Poissons Ratio (y) = 0.13609 0.42902
# Poissons Ratio (z) = 0.76752 0.51675
#
# Static dielectric constant tensor:
#      x y z
#    x 1.521690 0.000000 0.000000 
#    y 0.000000 1.575340 0.000000 
#    z 0.000000 0.000000 1.576550 
# 
# From -- ./inp_files/41388.got.cif
#   From: 2010.05.17/outbox.cif.g08.bks.cpg/sg65_21_cif.got.tgz:41388.got - 2010.06.03 17:01:31.
