data_PCOD9485385
_publ_section_title
;
Structure prediction by ZEFSAII (Michael W. Deem and Ramdas Pophale) SiO2 
 PCOD9485385
Probable space group: C M M M
;
_chemical_formula_sum "Si O2"
_cell_formula_units_Z 88
_cell_length_a 14.012437
_cell_length_b 22.674461
_cell_length_c 16.098112
_cell_angle_alpha 90.000000
_cell_angle_beta 90.000000
_cell_angle_gamma 90.000000
_cell_volume 5114.763882
_symmetry_space_group_name_H-M "C M M M"
_symmetry_group_IT_number 65
_symmetry_cell_setting 'orthorhombic'
loop_
_space_group_symop_operation_xyz
x,y,z
-x,-y,z
x,-y,-z
-x,y,-z
-x,-y,-z
x,y,-z
-x,y,z
x,-y,z
1/2+x,1/2+y,z
1/2-x,1/2-y,z
1/2+x,1/2-y,-z
1/2-x,1/2+y,-z
1/2-x,1/2-y,-z
1/2+x,1/2+y,-z
1/2-x,1/2+y,z
1/2+x,1/2-y,z
loop_
_atom_site_type_symbol
_atom_site_label
_atom_site_fract_x
_atom_site_fract_y
_atom_site_fract_z
Si Si1 0.609447 0.928349 0.906883
Si Si2 0.884738 0.738091 0.406340
Si Si3 0.263504 0.067691 0.247510
Si Si4 0.115455 0.932254 0.500000
Si Si5 0.385191 0.641419 0.334151
Si Si6 0.615134 0.100748 0.404065
O O1 0.500000 0.909190 0.893797
O O2 0.675855 0.910326 0.831107
O O3 0.608548 0.000000 0.905897
O O4 0.639357 0.910308 0.000000
O O5 0.855976 0.754458 0.500000
O O6 0.854285 0.790699 0.346544
O O7 0.860117 0.670170 0.392429
O O8 0.000000 0.739366 0.405404
O O9 0.172963 0.108690 0.263427
O O10 0.330277 0.069014 0.329845
O O11 0.234031 0.000000 0.233733
O O12 0.139917 0.895175 0.418102
O O13 0.000000 0.935639 0.500000
O O14 0.151069 0.000000 0.500000
O O15 0.500000 0.638966 0.324072
O O16 0.639579 0.084480 0.500000
O O17 0.500000 0.093765 0.396561
#
# Coordination Sequence:
#
# PCOD9485385 Si02
#       6
#    16  16  16   8  16  16
#     4   8  15  31  54  74  91 115 151 196 241 283
#     4   8  14  29  49  64  83 120 171 215 239 258
#     4  11  22  31  45  71 100 127 155 189 234 293
#     4   9  16  26  40  57  83 123 164 199 233 261
#     4  10  19  31  46  65  91 127 168 207 237 262
#     4   9  19  33  47  66  95 128 159 195 239 286
#
# _framework density 17.205095
#
# number of rings (size 3 to 8) (size 9 to 14) (size 15 to 20)
#    0.000    2.818    0.909    2.727    1.273    3.273 
#    0.000    2.727    0.000    0.545    0.000    5.091 
#    0.000    4.364    0.000    0.000    0.000    0.000 
#
# Total GULP energy -245392.448589 kJ/mol
# GULP energy per Si atom -5577.101104 kJ/mol
# Density = 1.716594 g / cm^3
# Si number density = 17.205095 Si / 1000 Ang^3
#
#
#
# Elastic Constant Matrix: (Units=GPa)
#
#
# Indices 1 2 3 4 5 6 
#
# 1 58.8763 8.6436 37.2868 0.0000 0.0000 0.0000
# 2 8.6436 57.4164 18.2947 0.0000 0.0000 0.0000
# 3 37.2868 18.2947 86.2114 0.0000 0.0000 0.0000
# 4 0.0000 0.0000 0.0000 4.3342 0.0000 0.0000
# 5 0.0000 0.0000 0.0000 0.0000 20.7710 0.0000
# 6 0.0000 0.0000 0.0000 0.0000 0.0000 21.9430
#
#
#
# Elastic Compliance Matrix: (Units=1/GPa)
#
#
# Indices 1 2 3 4 5 6 
#
# 1 0.023397 -0.000320 -0.010052 0.000000 0.000000 0.000000
# 2 -0.000320 0.018684 -0.003827 0.000000 0.000000 0.000000
# 3 -0.010052 -0.003827 0.016759 0.000000 0.000000 0.000000
# 4 0.000000 0.000000 0.000000 0.230722 0.000000 0.000000
# 5 0.000000 0.000000 0.000000 0.000000 0.048144 0.000000
# 6 0.000000 0.000000 0.000000 0.000000 0.000000 0.045573
#
#
# Mechanical properties :
#
#
# Convention : Reuss Voigt Hill
#
# Bulk Modulus (GPa) = 32.84664 36.77271 34.80967
# Shear Modulus (GPa) = 11.85331 18.62823 15.24077
#
# Velocity S-wave (km/s) = 2.62762 3.29403 2.97952
# Velocity P-wave (km/s) = 5.32339 5.99058 5.66682
#
# Compressibility (1/GPa) = 0.03044452
#
# Stress axis : x y z
#
# Youngs Moduli (GPa) = 42.73965 53.52159 59.66994
#
# Poissons Ratio (x) = 0.01710 0.59978
# Poissons Ratio (y) = 0.01366 0.22834
# Poissons Ratio (z) = 0.42961 0.20481
#
# Static dielectric constant tensor:
#      x y z
#    x 1.637270 0.000000 0.000000 
#    y 0.000000 1.605590 0.000000 
#    z 0.000000 0.000000 1.561960 
# 
# From -- ./inp_files/40557.got.cif
#   From: 2010.05.17/outbox.cif.g08.bks.cpg/sg65_21_cif.got.tgz:40557.got - 2010.06.03 17:01:31.
