data_PCOD9485431
_publ_section_title
;
Structure prediction by ZEFSAII (Michael W. Deem and Ramdas Pophale) SiO2 
 PCOD9485431
Probable space group: C M M M
;
_chemical_formula_sum "Si O2"
_cell_formula_units_Z 104
_cell_length_a 28.748539
_cell_length_b 7.709244
_cell_length_c 24.831198
_cell_angle_alpha 90.000000
_cell_angle_beta 90.000000
_cell_angle_gamma 90.000000
_cell_volume 5503.326042
_symmetry_space_group_name_H-M "C M M M"
_symmetry_group_IT_number 65
_symmetry_cell_setting 'orthorhombic'
loop_
_space_group_symop_operation_xyz
x,y,z
-x,-y,z
x,-y,-z
-x,y,-z
-x,-y,-z
x,y,-z
-x,y,z
x,-y,z
1/2+x,1/2+y,z
1/2-x,1/2-y,z
1/2+x,1/2-y,-z
1/2-x,1/2+y,-z
1/2-x,1/2-y,-z
1/2+x,1/2+y,-z
1/2-x,1/2+y,z
1/2+x,1/2-y,z
loop_
_atom_site_type_symbol
_atom_site_label
_atom_site_fract_x
_atom_site_fract_y
_atom_site_fract_z
Si Si1 0.102383 0.701573 0.939530
Si Si2 0.553323 0.708955 0.733164
Si Si3 0.626922 0.302019 0.352441
Si Si4 0.302105 0.290787 0.438119
Si Si5 0.125960 0.708645 0.173693
Si Si6 0.000000 0.805592 0.064616
Si Si7 0.303580 0.206659 0.262097
O O1 0.115729 0.500000 0.943716
O O2 0.125786 0.781563 0.886794
O O3 0.047832 0.710795 0.923690
O O4 0.108152 0.777544 0.000000
O O5 0.500000 0.771427 0.734842
O O6 0.552288 0.500000 0.728567
O O7 0.583473 0.774809 0.681502
O O8 0.582294 0.746963 0.787643
O O9 0.613784 0.500000 0.366596
O O10 0.653982 0.222954 0.403676
O O11 0.668129 0.301612 0.308601
O O12 0.303706 0.229281 0.500000
O O13 0.305426 0.500000 0.437918
O O14 0.250000 0.250000 0.416576
O O15 0.125372 0.500000 0.169031
O O16 0.171670 0.759082 0.206628
O O17 0.000000 0.000000 0.088038
O O18 0.000000 0.820682 0.000000
O O19 0.250000 0.250000 0.263067
O O20 0.310313 0.000000 0.269616
#
# Coordination Sequence:
#
# PCOD9485431 Si02
#       7
#    16  16  16  16  16   8  16
#     4   9  17  30  46  62  83 113 146 178 215 261
#     4   9  18  31  46  65  89 118 150 183 221 262
#     4   9  17  30  47  66  90 120 151 182 218 261
#     4   9  17  28  43  65  92 120 148 180 220 263
#     4   9  19  32  46  66  88 113 146 182 219 262
#     4   9  17  27  39  59  85 111 139 171 208 251
#     4  10  19  31  47  67  90 114 144 182 223 265
#
# _framework density 18.897663000000001
#
# number of rings (size 3 to 8) (size 9 to 14) (size 15 to 20)
#    0.000    2.846    0.000    1.154    1.077    4.308 
#    0.000    0.000    0.000    0.923    0.000    3.231 
#    0.000    0.000    0.000   11.538    0.000   12.462 
#
# Total GULP energy -289485.455135 kJ/mol
# GULP energy per Si atom -5567.027983 kJ/mol
# Density = 1.885465 g / cm^3
# Si number density = 18.897663 Si / 1000 Ang^3
#
#
#
# Elastic Constant Matrix: (Units=GPa)
#
#
# Indices 1 2 3 4 5 6 
#
# 1 80.6733 -4.5864 19.6366 0.0000 0.0000 0.0000
# 2 -4.5864 37.5123 1.3081 0.0000 0.0000 0.0000
# 3 19.6366 1.3081 81.8007 0.0000 0.0000 0.0000
# 4 0.0000 0.0000 0.0000 17.4994 0.0000 0.0000
# 5 0.0000 0.0000 0.0000 0.0000 12.4527 0.0000
# 6 0.0000 0.0000 0.0000 0.0000 0.0000 10.6649
#
#
#
# Elastic Compliance Matrix: (Units=1/GPa)
#
#
# Indices 1 2 3 4 5 6 
#
# 1 0.013277 0.001735 -0.003215 0.000000 0.000000 0.000000
# 2 0.001735 0.026900 -0.000847 0.000000 0.000000 0.000000
# 3 -0.003215 -0.000847 0.013010 0.000000 0.000000 0.000000
# 4 0.000000 0.000000 0.000000 0.057145 0.000000 0.000000
# 5 0.000000 0.000000 0.000000 0.000000 0.080304 0.000000
# 6 0.000000 0.000000 0.000000 0.000000 0.000000 0.093765
#
#
# Mechanical properties :
#
#
# Convention : Reuss Voigt Hill
#
# Bulk Modulus (GPa) = 20.60405 25.85586 23.22995
# Shear Modulus (GPa) = 16.38103 20.36527 18.37315
#
# Velocity S-wave (km/s) = 2.94739 3.28634 3.12147
# Velocity P-wave (km/s) = 4.74441 5.30205 5.03096
#
# Compressibility (1/GPa) = 0.04853415
#
# Stress axis : x y z
#
# Youngs Moduli (GPa) = 75.31888 37.17519 76.86316
#
# Poissons Ratio (x) = -0.06451 0.24711
# Poissons Ratio (y) = -0.13071 0.06508
# Poissons Ratio (z) = 0.24214 0.03148
#
# Static dielectric constant tensor:
#      x y z
#    x 1.649320 0.000000 0.000000 
#    y 0.000000 1.729550 0.000000 
#    z 0.000000 0.000000 1.715310 
# 
# From -- ./inp_files/72175.got.cif
#   From: 2010.05.17/outbox.cif.g08.bks.cpg/sg65_37_cif.got.tgz:72175.got - 2010.06.03 17:01:31.
