data_PCOD9485966
_publ_section_title
;
Structure prediction by ZEFSAII (Michael W. Deem and Ramdas Pophale) SiO2 
 PCOD9485966
Probable space group: C M M M
;
_chemical_formula_sum "Si O2"
_cell_formula_units_Z 104
_cell_length_a 21.531974
_cell_length_b 30.849838
_cell_length_c 7.556276
_cell_angle_alpha 90.000000
_cell_angle_beta 90.000000
_cell_angle_gamma 90.000000
_cell_volume 5019.316101
_symmetry_space_group_name_H-M "C M M M"
_symmetry_group_IT_number 65
_symmetry_cell_setting 'orthorhombic'
loop_
_space_group_symop_operation_xyz
x,y,z
-x,-y,z
x,-y,-z
-x,y,-z
-x,-y,-z
x,y,-z
-x,y,z
x,-y,z
1/2+x,1/2+y,z
1/2-x,1/2-y,z
1/2+x,1/2-y,-z
1/2-x,1/2+y,-z
1/2-x,1/2-y,-z
1/2+x,1/2+y,-z
1/2-x,1/2+y,z
1/2+x,1/2-y,z
loop_
_atom_site_type_symbol
_atom_site_label
_atom_site_fract_x
_atom_site_fract_y
_atom_site_fract_z
Si Si1 0.781274 0.369482 0.786903
Si Si2 0.428311 0.547479 0.215695
Si Si3 0.000000 0.549506 0.711400
Si Si4 0.138044 0.549970 0.209490
Si Si5 0.569606 0.279727 0.291039
Si Si6 0.813509 0.727052 0.711619
Si Si7 0.139849 0.132819 0.785463
O O1 0.815363 0.413076 0.720172
O O2 0.814155 0.324164 0.744545
O O3 0.710595 0.363547 0.723023
O O4 0.779104 0.373270 0.000000
O O5 0.500000 0.552721 0.268691
O O6 0.406410 0.500000 0.272465
O O7 0.387617 0.587262 0.276003
O O8 0.427611 0.547787 0.000000
O O9 0.067126 0.566815 0.767659
O O10 0.000000 0.500000 0.780123
O O11 0.000000 0.549054 0.500000
O O12 0.142535 0.500000 0.280720
O O13 0.149507 0.546498 0.000000
O O14 0.565210 0.270085 0.500000
O O15 0.500000 0.275554 0.216646
O O16 0.624355 0.249566 0.216059
O O17 0.595764 0.328259 0.272394
O O18 0.813006 0.733996 0.500000
O O19 0.750000 0.750000 0.780026
O O20 0.140288 0.133415 0.000000
#
# Coordination Sequence:
#
# PCOD9485966 Si02
#       7
#    16  16   8  16  16  16  16
#     4  10  21  34  52  80 108 136 172 213 256 306
#     4   8  14  25  42  67 100 134 166 203 246 289
#     4   9  17  31  53  79 103 133 179 227 265 305
#     4   9  18  34  54  76 108 146 177 210 262 324
#     4  10  21  37  56  77 101 131 171 216 260 313
#     4  10  20  37  58  76 100 139 177 211 259 317
#     4  10  19  31  51  78 105 134 171 213 255 301
#
# _framework density 20.719954000000001
#
# number of rings (size 3 to 8) (size 9 to 14) (size 15 to 20)
#    0.000    2.538    1.538    1.154    0.000    4.000 
#    1.385    3.077    0.000    0.462    0.000    4.308 
#    0.000    0.000    0.000    0.000    0.000    0.000 
#
# Total GULP energy -290048.110885 kJ/mol
# GULP energy per Si atom -5577.848286 kJ/mol
# Density = 2.067279 g / cm^3
# Si number density = 20.719954 Si / 1000 Ang^3
#
#
#
# Elastic Constant Matrix: (Units=GPa)
#
#
# Indices 1 2 3 4 5 6 
#
# 1 164.0416 89.8176 7.7129 0.0000 0.0000 0.0000
# 2 89.8176 145.4447 -3.6764 0.0000 0.0000 0.0000
# 3 7.7129 -3.6764 49.6504 0.0000 0.0000 0.0000
# 4 0.0000 0.0000 0.0000 31.2095 0.0000 0.0000
# 5 0.0000 0.0000 0.0000 0.0000 1.2708 0.0000
# 6 0.0000 0.0000 0.0000 0.0000 0.0000 31.9477
#
#
#
# Elastic Compliance Matrix: (Units=1/GPa)
#
#
# Indices 1 2 3 4 5 6 
#
# 1 0.009384 -0.005843 -0.001890 0.000000 0.000000 0.000000
# 2 -0.005843 0.010526 0.001687 0.000000 0.000000 0.000000
# 3 -0.001890 0.001687 0.020559 0.000000 0.000000 0.000000
# 4 0.000000 0.000000 0.000000 0.032042 0.000000 0.000000
# 5 0.000000 0.000000 0.000000 0.000000 0.786892 0.000000
# 6 0.000000 0.000000 0.000000 0.000000 0.000000 0.031301
#
#
# Mechanical properties :
#
#
# Convention : Reuss Voigt Hill
#
# Bulk Modulus (GPa) = 35.23923 60.76055 47.99989
# Shear Modulus (GPa) = 5.48092 30.57111 18.02601
#
# Velocity S-wave (km/s) = 1.62818 3.84532 2.95275
# Velocity P-wave (km/s) = 4.53640 7.00740 5.90265
#
# Compressibility (1/GPa) = 0.02837746
#
# Stress axis : x y z
#
# Youngs Moduli (GPa) = 106.56463 95.00075 48.63958
#
# Poissons Ratio (x) = 0.55507 0.09195
# Poissons Ratio (y) = 0.62263 -0.08206
# Poissons Ratio (z) = 0.20145 -0.16027
#
# Static dielectric constant tensor:
#      x y z
#    x 1.750280 0.000000 0.000000 
#    y 0.000000 1.722620 0.000000 
#    z 0.000000 0.000000 1.789300 
# 
# From -- ./inp_files/12852.got.cif
#   From: 2010.05.17/outbox.cif.g08.bks.cpg/sg65_7_cif.got.tgz:12852.got - 2010.06.03 17:01:31.
