data_PCOD9485205
_publ_section_title
;
Structure prediction by ZEFSAII (Michael W. Deem and Ramdas Pophale) SiO2 
 PCOD9485205
Probable space group: C M M M
;
_chemical_formula_sum "Si O2"
_cell_formula_units_Z 104
_cell_length_a 24.231282
_cell_length_b 8.860287
_cell_length_c 28.638999
_cell_angle_alpha 90.000000
_cell_angle_beta 90.000000
_cell_angle_gamma 90.000000
_cell_volume 6148.681763
_symmetry_space_group_name_H-M "C M M M"
_symmetry_group_IT_number 65
_symmetry_cell_setting 'orthorhombic'
loop_
_space_group_symop_operation_xyz
x,y,z
-x,-y,z
x,-y,-z
-x,y,-z
-x,-y,-z
x,y,-z
-x,y,z
x,-y,z
1/2+x,1/2+y,z
1/2-x,1/2-y,z
1/2+x,1/2-y,-z
1/2-x,1/2+y,-z
1/2-x,1/2-y,-z
1/2+x,1/2+y,-z
1/2-x,1/2+y,z
1/2+x,1/2-y,z
loop_
_atom_site_type_symbol
_atom_site_label
_atom_site_fract_x
_atom_site_fract_y
_atom_site_fract_z
Si Si1 0.310905 0.819686 0.947232
Si Si2 0.188914 0.181479 0.231691
Si Si3 0.500000 0.678706 0.842695
Si Si4 0.500000 0.171816 0.254092
Si Si5 0.066883 0.673290 0.500000
Si Si6 0.121538 0.182784 0.137609
Si Si7 0.565059 0.319274 0.598269
Si Si8 0.113583 0.677171 0.310804
O O1 0.250000 0.750000 0.943040
O O2 0.347778 0.750087 0.906772
O O3 0.307663 0.000000 0.942181
O O4 0.331015 0.785772 0.000000
O O5 0.250000 0.250000 0.227527
O O6 0.152670 0.224163 0.185901
O O7 0.158396 0.243275 0.277804
O O8 0.191867 0.000000 0.233450
O O9 0.500000 0.500000 0.850947
O O10 0.500000 0.710860 0.787694
O O11 0.441782 0.737762 0.861421
O O12 0.554754 0.190414 0.284478
O O13 0.500000 0.000000 0.235081
O O14 0.085767 0.500000 0.500000
O O15 0.082553 0.757052 0.547678
O O16 0.000000 0.672392 0.500000
O O17 0.122246 0.000000 0.135226
O O18 0.500000 0.275891 0.605710
O O19 0.567418 0.500000 0.598866
O O20 0.602689 0.251455 0.639047
O O21 0.126627 0.500000 0.315564
#
# Coordination Sequence:
#
# PCOD9485205 Si02
#       8
#    16  16   8   8   8  16  16  16
#     4  10  21  37  58  82 107 137 176 222 269 315
#     4  11  23  38  55  78 107 140 177 220 267 315
#     4  10  20  36  55  79 109 142 178 214 257 312
#     4  10  20  32  50  76 106 140 178 217 260 310
#     4   9  17  29  45  67 100 139 178 221 267 316
#     4  10  21  36  57  82 109 141 176 215 261 315
#     4  10  19  30  47  72 104 141 179 219 266 319
#     4  11  21  34  52  77 107 141 180 219 264 318
#
# _framework density 16.914193999999998
#
# number of rings (size 3 to 8) (size 9 to 14) (size 15 to 20)
#    0.000    1.769    2.308    2.538    0.000    6.154 
#    0.000    0.385    0.000    2.308    0.000    0.538 
#    0.000    0.000    0.000    0.000    0.000    0.000 
#
# Total GULP energy -290216.189215 kJ/mol
# GULP energy per Si atom -5581.080562 kJ/mol
# Density = 1.687570 g / cm^3
# Si number density = 16.914194 Si / 1000 Ang^3
#
#
#
# Elastic Constant Matrix: (Units=GPa)
#
#
# Indices 1 2 3 4 5 6 
#
# 1 106.6846 43.3822 71.9464 0.0000 0.0000 0.0000
# 2 43.3822 53.0638 55.9505 0.0000 0.0000 0.0000
# 3 71.9464 55.9505 156.7476 0.0000 0.0000 0.0000
# 4 0.0000 0.0000 0.0000 34.0370 0.0000 0.0000
# 5 0.0000 0.0000 0.0000 0.0000 12.9518 0.0000
# 6 0.0000 0.0000 0.0000 0.0000 0.0000 23.0393
#
#
#
# Elastic Compliance Matrix: (Units=1/GPa)
#
#
# Indices 1 2 3 4 5 6 
#
# 1 0.015578 -0.008333 -0.004176 0.000000 0.000000 0.000000
# 2 -0.008333 0.034676 -0.008553 0.000000 0.000000 0.000000
# 3 -0.004176 -0.008553 0.011349 0.000000 0.000000 0.000000
# 4 0.000000 0.000000 0.000000 0.029380 0.000000 0.000000
# 5 0.000000 0.000000 0.000000 0.000000 0.077209 0.000000
# 6 0.000000 0.000000 0.000000 0.000000 0.000000 0.043404
#
#
# Mechanical properties :
#
#
# Convention : Reuss Voigt Hill
#
# Bulk Modulus (GPa) = 51.33389 73.22825 62.28107
# Shear Modulus (GPa) = 19.21510 23.68673 21.45091
#
# Velocity S-wave (km/s) = 3.37417 3.74626 3.56507
# Velocity P-wave (km/s) = 6.75244 7.88039 7.33812
#
# Compressibility (1/GPa) = 0.01948031
#
# Stress axis : x y z
#
# Youngs Moduli (GPa) = 64.19314 28.83876 88.11156
#
# Poissons Ratio (x) = 0.24030 0.36795
# Poissons Ratio (y) = 0.53490 0.75359
# Poissons Ratio (z) = 0.26806 0.24665
#
# Static dielectric constant tensor:
#      x y z
#    x 1.563340 0.000000 0.000000 
#    y 0.000000 1.571950 0.000000 
#    z 0.000000 0.000000 1.553790 
# 
# From -- ./inp_files/75827.got.cif
#   From: 2010.05.17/outbox.cif.g08.bks.cpg/sg65_38_cif.got.tgz:75827.got - 2010.06.03 17:01:31.
