data_PCOD9485122
_publ_section_title
;
Structure prediction by ZEFSAII (Michael W. Deem and Ramdas Pophale) SiO2 
 PCOD9485122
Probable space group: C M M M
;
_chemical_formula_sum "Si O2"
_cell_formula_units_Z 96
_cell_length_a 7.636263
_cell_length_b 38.510294
_cell_length_c 17.135198
_cell_angle_alpha 90.000000
_cell_angle_beta 90.000000
_cell_angle_gamma 90.000000
_cell_volume 5039.028780
_symmetry_space_group_name_H-M "C M M M"
_symmetry_group_IT_number 65
_symmetry_cell_setting 'orthorhombic'
loop_
_space_group_symop_operation_xyz
x,y,z
-x,-y,z
x,-y,-z
-x,y,-z
-x,-y,-z
x,y,-z
-x,y,z
x,-y,z
1/2+x,1/2+y,z
1/2-x,1/2-y,z
1/2+x,1/2-y,-z
1/2-x,1/2+y,-z
1/2-x,1/2-y,-z
1/2+x,1/2+y,-z
1/2-x,1/2+y,z
1/2+x,1/2-y,z
loop_
_atom_site_type_symbol
_atom_site_label
_atom_site_fract_x
_atom_site_fract_y
_atom_site_fract_z
Si Si1 0.789761 0.147213 0.264300
Si Si2 0.214139 0.176653 0.000000
Si Si3 0.208150 0.538314 0.319659
Si Si4 0.789821 0.209857 0.162458
Si Si5 0.711616 0.420902 0.829843
Si Si6 0.286047 0.404485 0.000000
Si Si7 0.710105 0.894375 0.587828
O O1 0.725071 0.183471 0.229228
O O2 0.727723 0.115351 0.209512
O O3 0.746105 0.136860 0.352465
O O4 0.000000 0.147291 0.258818
O O5 0.273826 0.196077 0.078269
O O6 0.265147 0.136180 0.000000
O O7 0.000000 0.176924 0.000000
O O8 0.280462 0.500000 0.335752
O O9 0.233628 0.549098 0.229555
O O10 0.279038 0.570153 0.371718
O O11 0.000000 0.537039 0.333990
O O12 0.750000 0.250000 0.174993
O O13 0.000000 0.206801 0.160363
O O14 0.500000 0.420367 0.830487
O O15 0.771790 0.421932 0.919191
O O16 0.500000 0.404871 0.000000
O O17 0.776524 0.889817 0.500000
O O18 0.500000 0.897581 0.583894
#
# Coordination Sequence:
#
# PCOD9485122 Si02
#       7
#    16   8  16  16  16   8  16
#     4   9  17  30  48  69  93 123 156 189 229 275
#     4   9  15  27  46  67  95 127 159 194 230 271
#     4   9  18  32  48  67  95 126 150 179 227 283
#     4  10  19  30  46  69  98 130 160 191 229 273
#     4   9  16  28  48  69  88 118 161 200 229 262
#     4   9  14  25  47  69  88 118 161 202 231 261
#     4   9  18  32  51  74  95 116 147 188 231 276
#
# _framework density 19.051290999999999
#
# number of rings (size 3 to 8) (size 9 to 14) (size 15 to 20)
#    0.000    2.833    1.667    0.250    0.000    1.667 
#    0.000    2.500    0.000    4.000    0.000    4.667 
#    0.000    0.000    0.000    0.000    0.000    0.000 
#
# Total GULP energy -267643.281518 kJ/mol
# GULP energy per Si atom -5575.901698 kJ/mol
# Density = 1.900793 g / cm^3
# Si number density = 19.051291 Si / 1000 Ang^3
#
#
#
# Elastic Constant Matrix: (Units=GPa)
#
#
# Indices 1 2 3 4 5 6 
#
# 1 35.2438 4.2431 4.1654 0.0000 0.0000 0.0000
# 2 4.2431 105.4707 69.7200 0.0000 0.0000 0.0000
# 3 4.1654 69.7200 169.0519 0.0000 0.0000 0.0000
# 4 0.0000 0.0000 0.0000 13.7102 0.0000 0.0000
# 5 0.0000 0.0000 0.0000 0.0000 26.8969 0.0000
# 6 0.0000 0.0000 0.0000 0.0000 0.0000 15.3906
#
#
#
# Elastic Compliance Matrix: (Units=1/GPa)
#
#
# Indices 1 2 3 4 5 6 
#
# 1 0.028524 -0.000939 -0.000316 0.000000 0.000000 0.000000
# 2 -0.000939 0.013066 -0.005365 0.000000 0.000000 0.000000
# 3 -0.000316 -0.005365 0.008136 0.000000 0.000000 0.000000
# 4 0.000000 0.000000 0.000000 0.072938 0.000000 0.000000
# 5 0.000000 0.000000 0.000000 0.000000 0.037179 0.000000
# 6 0.000000 0.000000 0.000000 0.000000 0.000000 0.064975
#
#
# Mechanical properties :
#
#
# Convention : Reuss Voigt Hill
#
# Bulk Modulus (GPa) = 27.40778 51.78037 39.59408
# Shear Modulus (GPa) = 19.98244 26.64208 23.31226
#
# Velocity S-wave (km/s) = 3.24215 3.74363 3.50188
# Velocity P-wave (km/s) = 5.33225 6.77678 6.09745
#
# Compressibility (1/GPa) = 0.03648598
#
# Stress axis : x y z
#
# Youngs Moduli (GPa) = 35.05805 76.53544 122.91156
#
# Poissons Ratio (x) = 0.07186 0.03879
# Poissons Ratio (y) = 0.03292 0.65948
# Poissons Ratio (z) = 0.01106 0.41065
#
# Static dielectric constant tensor:
#      x y z
#    x 1.726210 0.000000 0.000000 
#    y 0.000000 1.651950 0.000000 
#    z 0.000000 0.000000 1.666240 
# 
# From -- ./inp_files/38920.got.cif
#   From: 2010.05.17/outbox.cif.g08.bks.cpg/sg65_20_cif.got.tgz:38920.got - 2010.06.03 17:01:31.
