data_PCOD9485806
_publ_section_title
;
Structure prediction by ZEFSAII (Michael W. Deem and Ramdas Pophale) SiO2 
 PCOD9485806
Probable space group: C M M M
;
_chemical_formula_sum "Si O2"
_cell_formula_units_Z 72
_cell_length_a 8.621093
_cell_length_b 18.685059
_cell_length_c 24.586478
_cell_angle_alpha 90.000000
_cell_angle_beta 90.000000
_cell_angle_gamma 90.000000
_cell_volume 3960.528331
_symmetry_space_group_name_H-M "C M M M"
_symmetry_group_IT_number 65
_symmetry_cell_setting 'orthorhombic'
loop_
_space_group_symop_operation_xyz
x,y,z
-x,-y,z
x,-y,-z
-x,y,-z
-x,-y,-z
x,y,-z
-x,y,z
x,-y,z
1/2+x,1/2+y,z
1/2-x,1/2-y,z
1/2+x,1/2-y,-z
1/2-x,1/2+y,-z
1/2-x,1/2-y,-z
1/2+x,1/2+y,-z
1/2-x,1/2+y,z
1/2+x,1/2-y,z
loop_
_atom_site_type_symbol
_atom_site_label
_atom_site_fract_x
_atom_site_fract_y
_atom_site_fract_z
Si Si1 0.185949 0.168632 0.059259
Si Si2 0.687433 0.917556 0.278957
Si Si3 0.314012 0.169189 0.828068
Si Si4 0.313613 0.668982 0.618893
Si Si5 0.186770 0.169160 0.500000
O O1 0.250000 0.250000 0.058343
O O2 0.254396 0.137175 0.114696
O O3 0.000000 0.170833 0.063250
O O4 0.227184 0.136529 0.000000
O O5 0.500000 0.915553 0.280671
O O6 0.735781 0.876436 0.224106
O O7 0.750757 0.877779 0.331897
O O8 0.737191 0.000000 0.277755
O O9 0.500000 0.172491 0.829774
O O10 0.250000 0.250000 0.822806
O O11 0.500000 0.671539 0.621259
O O12 0.250000 0.750000 0.623548
O O13 0.266077 0.639081 0.558961
O O14 0.250000 0.250000 0.500000
O O15 0.000000 0.170930 0.500000
#
# Coordination Sequence:
#
# PCOD9485806 Si02
#       5
#    16  16  16  16   8
#     4   9  16  26  43  69  99 126 154 194 242 290
#     4  10  22  38  52  70 100 135 171 212 254 295
#     4  10  19  31  50  73  97 127 162 202 246 293
#     4  10  19  33  55  80 104 132 166 204 248 297
#     4   8  16  30  49  76 105 129 159 201 245 292
#
# _framework density 18.179393000000001
#
# number of rings (size 3 to 8) (size 9 to 14) (size 15 to 20)
#    0.000    2.444    0.000    4.000    0.000    6.222 
#    0.000    0.556    0.000    4.000    0.000    4.667 
#    0.000    0.000    0.000    0.000    0.000    0.000 
#
# Total GULP energy -200618.190601 kJ/mol
# GULP energy per Si atom -5572.727517 kJ/mol
# Density = 1.813802 g / cm^3
# Si number density = 18.179393 Si / 1000 Ang^3
#
#
#
# Elastic Constant Matrix: (Units=GPa)
#
#
# Indices 1 2 3 4 5 6 
#
# 1 33.7510 19.8902 44.9768 0.0000 0.0000 0.0000
# 2 19.8902 65.8439 77.4432 0.0000 0.0000 0.0000
# 3 44.9768 77.4432 243.6600 0.0000 0.0000 0.0000
# 4 0.0000 0.0000 0.0000 -3.9949 0.0000 0.0000
# 5 0.0000 0.0000 0.0000 0.0000 -42.9033 0.0000
# 6 0.0000 0.0000 0.0000 0.0000 0.0000 15.3215
#
#
#
# Elastic Compliance Matrix: (Units=1/GPa)
#
#
# Indices 1 2 3 4 5 6 
#
# 1 0.040503 -0.005496 -0.005729 0.000000 0.000000 0.000000
# 2 -0.005496 0.025000 -0.006931 0.000000 0.000000 0.000000
# 3 -0.005729 -0.006931 0.007365 0.000000 0.000000 0.000000
# 4 0.000000 0.000000 0.000000 -0.250317 0.000000 0.000000
# 5 0.000000 0.000000 0.000000 0.000000 -0.023308 0.000000
# 6 0.000000 0.000000 0.000000 0.000000 0.000000 0.065268
#
#
# Mechanical properties :
#
#
# Convention : Reuss Voigt Hill
#
# Bulk Modulus (GPa) = 27.35714 69.76392 48.56053
# Shear Modulus (GPa) = -57.47756 7.08097 -25.19830
#
# Velocity S-wave (km/s) = -5.62899 1.97573 -3.72706
# Velocity P-wave (km/s) = 5.21212 6.60782 2.87202
#
# Compressibility (1/GPa) = 0.03655353
#
# Stress axis : x y z
#
# Youngs Moduli (GPa) = 24.68950 39.99978 135.78349
#
# Poissons Ratio (x) = 0.21986 0.77797
# Poissons Ratio (y) = 0.13570 0.94116
# Poissons Ratio (z) = 0.14146 0.27725
#
# Static dielectric constant tensor:
#      x y z
#    x 1.616640 0.000000 0.000000 
#    y 0.000000 1.577620 0.000000 
#    z 0.000000 0.000000 1.684420 
# 
# From -- ./inp_files/72548.got.cif
#   From: 2010.05.17/outbox.cif.g08.bks.cpg/sg65_37_cif.got.tgz:72548.got - 2010.06.03 17:01:31.
