data_PCOD9485240
_publ_section_title
;
Structure prediction by ZEFSAII (Michael W. Deem and Ramdas Pophale) SiO2 
 PCOD9485240
Probable space group: C M M M
;
_chemical_formula_sum "Si O2"
_cell_formula_units_Z 72
_cell_length_a 33.146954
_cell_length_b 13.630687
_cell_length_c 7.406421
_cell_angle_alpha 90.000000
_cell_angle_beta 90.000000
_cell_angle_gamma 90.000000
_cell_volume 3346.337696
_symmetry_space_group_name_H-M "C M M M"
_symmetry_group_IT_number 65
_symmetry_cell_setting 'orthorhombic'
loop_
_space_group_symop_operation_xyz
x,y,z
-x,-y,z
x,-y,-z
-x,y,-z
-x,-y,-z
x,y,-z
-x,y,z
x,-y,z
1/2+x,1/2+y,z
1/2-x,1/2-y,z
1/2+x,1/2-y,-z
1/2-x,1/2+y,-z
1/2-x,1/2-y,-z
1/2+x,1/2+y,-z
1/2-x,1/2+y,z
1/2+x,1/2-y,z
loop_
_atom_site_type_symbol
_atom_site_label
_atom_site_fract_x
_atom_site_fract_y
_atom_site_fract_z
Si Si1 0.953644 0.610232 0.783123
Si Si2 0.953718 0.000000 0.278831
Si Si3 0.905123 0.809279 0.714381
Si Si4 0.232622 0.606061 0.280169
Si Si5 0.685808 0.701683 0.720371
O O1 0.941112 0.500000 0.721420
O O2 0.925714 0.702830 0.737864
O O3 0.000000 0.626808 0.721028
O O4 0.954710 0.606586 0.000000
O O5 0.931657 0.099605 0.217726
O O6 0.953574 0.000000 0.500000
O O7 0.000000 0.000000 0.221702
O O8 0.902137 0.824084 0.500000
O O9 0.859426 0.813578 0.785602
O O10 0.232451 0.607922 0.500000
O O11 0.219042 0.500000 0.219407
O O12 0.278861 0.626825 0.226028
O O13 0.203531 0.693202 0.222802
O O14 0.684769 0.700369 0.500000
#
# Coordination Sequence:
#
# PCOD9485240 Si02
#       5
#    16   8  16  16  16
#     4   9  19  36  54  70  92 124 159 196 242 294
#     4   9  18  30  43  65  99 133 159 193 243 287
#     4  10  19  30  48  73 100 127 160 202 241 283
#     4   8  13  22  36  53  84 124 154 185 227 278
#     4   8  15  24  35  60  89 118 156 190 228 275
#
# _framework density 21.51606
#
# number of rings (size 3 to 8) (size 9 to 14) (size 15 to 20)
#    0.000    3.222    0.000    2.667    1.556    2.667 
#    0.000    3.889    0.000    2.000    0.000    3.111 
#    0.000    1.778    0.000    0.000    0.000    0.000 
#
# Total GULP energy -200811.014401 kJ/mol
# GULP energy per Si atom -5578.083733 kJ/mol
# Density = 2.146709 g / cm^3
# Si number density = 21.516060 Si / 1000 Ang^3
#
#
#
# Elastic Constant Matrix: (Units=GPa)
#
#
# Indices 1 2 3 4 5 6 
#
# 1 154.6459 64.3870 7.1449 0.0000 0.0000 0.0000
# 2 64.3870 126.4042 0.0707 0.0000 0.0000 0.0000
# 3 7.1449 0.0707 69.9405 0.0000 0.0000 0.0000
# 4 0.0000 0.0000 0.0000 14.0413 0.0000 0.0000
# 5 0.0000 0.0000 0.0000 0.0000 19.4866 0.0000
# 6 0.0000 0.0000 0.0000 0.0000 0.0000 2.3329
#
#
#
# Elastic Compliance Matrix: (Units=1/GPa)
#
#
# Indices 1 2 3 4 5 6 
#
# 1 0.008256 -0.004205 -0.000839 0.000000 0.000000 0.000000
# 2 -0.004205 0.010053 0.000419 0.000000 0.000000 0.000000
# 3 -0.000839 0.000419 0.014383 0.000000 0.000000 0.000000
# 4 0.000000 0.000000 0.000000 0.071218 0.000000 0.000000
# 5 0.000000 0.000000 0.000000 0.000000 0.051317 0.000000
# 6 0.000000 0.000000 0.000000 0.000000 0.000000 0.428659
#
#
# Mechanical properties :
#
#
# Convention : Reuss Voigt Hill
#
# Bulk Modulus (GPa) = 42.65745 54.91065 48.78405
# Shear Modulus (GPa) = 8.32016 25.79801 17.05908
#
# Velocity S-wave (km/s) = 1.96859 3.46643 2.81882
# Velocity P-wave (km/s) = 5.00360 6.44963 5.77208
#
# Compressibility (1/GPa) = 0.02344256
#
# Stress axis : x y z
#
# Youngs Moduli (GPa) = 121.12620 99.47539 69.52570
#
# Poissons Ratio (x) = 0.41828 0.05834
# Poissons Ratio (y) = 0.50932 -0.02916
# Poissons Ratio (z) = 0.10164 -0.04172
#
# Static dielectric constant tensor:
#      x y z
#    x 1.744870 0.000000 0.000000 
#    y 0.000000 1.757990 0.000000 
#    z 0.000000 0.000000 1.826230 
# 
# From -- ./inp_files/18015.got.cif
#   From: 2010.05.17/outbox.cif.g08.bks.cpg/sg65_10_cif.got.tgz:18015.got - 2010.06.03 17:01:31.
