data_PCOD9485516
_publ_section_title
;
Structure prediction by ZEFSAII (Michael W. Deem and Ramdas Pophale) SiO2 
 PCOD9485516
Probable space group: C M M M
;
_chemical_formula_sum "Si O2"
_cell_formula_units_Z 104
_cell_length_a 18.921038
_cell_length_b 19.038357
_cell_length_c 17.315706
_cell_angle_alpha 90.000000
_cell_angle_beta 90.000000
_cell_angle_gamma 90.000000
_cell_volume 6237.558441
_symmetry_space_group_name_H-M "C M M M"
_symmetry_group_IT_number 65
_symmetry_cell_setting 'orthorhombic'
loop_
_space_group_symop_operation_xyz
x,y,z
-x,-y,z
x,-y,-z
-x,y,-z
-x,-y,-z
x,y,-z
-x,y,z
x,-y,z
1/2+x,1/2+y,z
1/2-x,1/2-y,z
1/2+x,1/2-y,-z
1/2-x,1/2+y,-z
1/2-x,1/2-y,-z
1/2+x,1/2+y,-z
1/2-x,1/2+y,z
1/2+x,1/2-y,z
loop_
_atom_site_type_symbol
_atom_site_label
_atom_site_fract_x
_atom_site_fract_y
_atom_site_fract_z
Si Si1 0.716638 0.672742 0.088927
Si Si2 0.726482 0.917485 0.229590
Si Si3 0.419022 0.298626 0.179048
Si Si4 0.418169 0.237777 0.588990
Si Si5 0.416206 0.500000 0.592092
Si Si6 0.648940 0.636186 0.671310
Si Si7 0.419651 0.852116 0.261162
O O1 0.750000 0.750000 0.100904
O O2 0.750802 0.618589 0.149101
O O3 0.634888 0.682231 0.111816
O O4 0.726342 0.652428 0.000000
O O5 0.772841 0.878267 0.295660
O O6 0.643696 0.904132 0.242692
O O7 0.743333 0.000000 0.230496
O O8 0.500000 0.309373 0.158249
O O9 0.397513 0.345346 0.253018
O O10 0.410389 0.218176 0.208644
O O11 0.408110 0.217768 0.500000
O O12 0.500000 0.265050 0.596679
O O13 0.363656 0.297748 0.615243
O O14 0.412883 0.175316 0.650699
O O15 0.500000 0.500000 0.607702
O O16 0.406448 0.500000 0.500000
O O17 0.380637 0.431876 0.629116
O O18 0.500000 0.877919 0.249643
#
# Coordination Sequence:
#
# PCOD9485516 Si02
#       7
#    16  16  16  16   8  16  16
#     4  10  20  35  57  83 107 136 172 212 263 321
#     4  11  22  37  55  76 107 145 178 218 263 311
#     4   9  17  31  54  80 105 134 171 219 262 307
#     4   9  17  31  53  79 106 135 173 225 274 313
#     4  11  20  30  46  70 106 148 180 211 262 320
#     4  10  19  31  47  75 105 139 179 220 258 312
#     4   9  18  34  56  79 102 132 179 223 263 318
#
# _framework density 16.673190000000002
#
# number of rings (size 3 to 8) (size 9 to 14) (size 15 to 20)
#    0.000    2.231    2.308    2.769    0.000    2.154 
#    0.000    2.308    0.000    0.462    0.000    5.385 
#    0.000    0.000    0.000    0.000    0.000    0.000 
#
# Total GULP energy -289925.534111 kJ/mol
# GULP energy per Si atom -5575.491041 kJ/mol
# Density = 1.663524 g / cm^3
# Si number density = 16.673190 Si / 1000 Ang^3
#
#
#
# Elastic Constant Matrix: (Units=GPa)
#
#
# Indices 1 2 3 4 5 6 
#
# 1 97.2973 18.7854 32.0940 0.0000 0.0000 0.0000
# 2 18.7854 26.2943 13.9238 0.0000 0.0000 0.0000
# 3 32.0940 13.9238 61.9676 0.0000 0.0000 0.0000
# 4 0.0000 0.0000 0.0000 11.6102 0.0000 0.0000
# 5 0.0000 0.0000 0.0000 0.0000 14.5947 0.0000
# 6 0.0000 0.0000 0.0000 0.0000 0.0000 16.0507
#
#
#
# Elastic Compliance Matrix: (Units=1/GPa)
#
#
# Indices 1 2 3 4 5 6 
#
# 1 0.013352 -0.006671 -0.005416 0.000000 0.000000 0.000000
# 2 -0.006671 0.046500 -0.006993 0.000000 0.000000 0.000000
# 3 -0.005416 -0.006993 0.020514 0.000000 0.000000 0.000000
# 4 0.000000 0.000000 0.000000 0.086131 0.000000 0.000000
# 5 0.000000 0.000000 0.000000 0.000000 0.068518 0.000000
# 6 0.000000 0.000000 0.000000 0.000000 0.000000 0.062303
#
#
# Mechanical properties :
#
#
# Convention : Reuss Voigt Hill
#
# Bulk Modulus (GPa) = 23.69387 35.01840 29.35614
# Shear Modulus (GPa) = 14.30418 16.50154 15.40286
#
# Velocity S-wave (km/s) = 2.93220 3.14937 3.04272
# Velocity P-wave (km/s) = 5.07004 5.85433 5.47624
#
# Compressibility (1/GPa) = 0.04220501
#
# Stress axis : x y z
#
# Youngs Moduli (GPa) = 74.89272 21.50526 48.74704
#
# Poissons Ratio (x) = 0.14347 0.26404
# Poissons Ratio (y) = 0.49962 0.34090
# Poissons Ratio (z) = 0.40565 0.15039
#
# Static dielectric constant tensor:
#      x y z
#    x 1.570780 0.000000 0.000000 
#    y 0.000000 1.551870 0.000000 
#    z 0.000000 0.000000 1.545850 
# 
# From -- ./inp_files/54584.got.cif
#   From: 2010.05.17/outbox.cif.g08.bks.cpg/sg65_28_cif.got.tgz:54584.got - 2010.06.03 17:01:31.
