data_PCOD9485119
_publ_section_title
;
Structure prediction by ZEFSAII (Michael W. Deem and Ramdas Pophale) SiO2 
 PCOD9485119
Probable space group: C M M M
;
_chemical_formula_sum "Si O2"
_cell_formula_units_Z 88
_cell_length_a 19.121837
_cell_length_b 7.685631
_cell_length_c 29.328195
_cell_angle_alpha 90.000000
_cell_angle_beta 90.000000
_cell_angle_gamma 90.000000
_cell_volume 4310.170761
_symmetry_space_group_name_H-M "C M M M"
_symmetry_group_IT_number 65
_symmetry_cell_setting 'orthorhombic'
loop_
_space_group_symop_operation_xyz
x,y,z
-x,-y,z
x,-y,-z
-x,y,-z
-x,-y,-z
x,y,-z
-x,y,z
x,-y,z
1/2+x,1/2+y,z
1/2-x,1/2-y,z
1/2+x,1/2-y,-z
1/2-x,1/2+y,-z
1/2-x,1/2-y,-z
1/2+x,1/2+y,-z
1/2-x,1/2+y,z
1/2+x,1/2-y,z
loop_
_atom_site_type_symbol
_atom_site_label
_atom_site_fract_x
_atom_site_fract_y
_atom_site_fract_z
Si Si1 0.668474 0.705077 0.586627
Si Si2 0.331424 0.209262 0.137430
Si Si3 0.419186 0.787769 0.776494
Si Si4 0.079137 0.708714 0.325757
Si Si5 0.918996 0.213968 0.500000
Si Si6 0.919097 0.287679 0.051089
O O1 0.664250 0.500000 0.582012
O O2 0.750000 0.750000 0.584149
O O3 0.633351 0.749870 0.634757
O O4 0.622501 0.777047 0.544763
O O5 0.250000 0.250000 0.137135
O O6 0.369284 0.274715 0.183254
O O7 0.370169 0.274249 0.091904
O O8 0.339195 0.000000 0.137436
O O9 0.500000 0.740243 0.785361
O O10 0.401112 0.729302 0.725123
O O11 0.416637 0.000000 0.776451
O O12 0.075235 0.500000 0.323154
O O13 0.000000 0.772223 0.336356
O O14 0.000000 0.267695 0.500000
O O15 0.919193 0.000000 0.500000
O O16 0.917635 0.500000 0.051084
O O17 0.000000 0.237883 0.058776
O O18 0.898434 0.231635 0.000000
#
# Coordination Sequence:
#
# PCOD9485119 Si02
#       6
#    16  16  16  16   8  16
#     4  11  22  36  55  78 107 139 170 205 247 296
#     4  10  19  30  46  69  97 127 158 194 240 291
#     4   8  15  30  52  73  93 124 166 206 240 280
#     4   9  18  34  55  78 103 130 165 209 253 298
#     4   9  19  36  57  79 102 131 168 209 250 294
#     4   8  14  26  46  70  91 115 156 205 241 275
#
# _framework density 20.416823999999998
#
# number of rings (size 3 to 8) (size 9 to 14) (size 15 to 20)
#    0.000    2.818    0.000    3.545    0.000    4.364 
#    0.000    4.091    0.000    6.545    0.000    1.273 
#    0.000    0.000    0.000    0.000    0.000    0.000 
#
# Total GULP energy -245540.906157 kJ/mol
# GULP energy per Si atom -5580.475140 kJ/mol
# Density = 2.037035 g / cm^3
# Si number density = 20.416824 Si / 1000 Ang^3
#
#
#
# Elastic Constant Matrix: (Units=GPa)
#
#
# Indices 1 2 3 4 5 6 
#
# 1 176.8614 3.8383 158.4611 0.0000 0.0000 0.0000
# 2 3.8383 33.6179 9.4850 0.0000 0.0000 0.0000
# 3 158.4611 9.4850 219.2478 0.0000 0.0000 0.0000
# 4 0.0000 0.0000 0.0000 8.8317 0.0000 0.0000
# 5 0.0000 0.0000 0.0000 0.0000 3.4167 0.0000
# 6 0.0000 0.0000 0.0000 0.0000 0.0000 7.2786
#
#
#
# Elastic Compliance Matrix: (Units=1/GPa)
#
#
# Indices 1 2 3 4 5 6 
#
# 1 0.016114 0.001464 -0.011709 0.000000 0.000000 0.000000
# 2 0.001464 0.030247 -0.002367 0.000000 0.000000 0.000000
# 3 -0.011709 -0.002367 0.013126 0.000000 0.000000 0.000000
# 4 0.000000 0.000000 0.000000 0.113228 0.000000 0.000000
# 5 0.000000 0.000000 0.000000 0.000000 0.292680 0.000000
# 6 0.000000 0.000000 0.000000 0.000000 0.000000 0.137389
#
#
# Mechanical properties :
#
#
# Convention : Reuss Voigt Hill
#
# Bulk Modulus (GPa) = 29.18644 85.92178 57.55411
# Shear Modulus (GPa) = 7.81948 21.10159 14.46054
#
# Velocity S-wave (km/s) = 1.95914 3.21836 2.66421
# Velocity P-wave (km/s) = 4.40953 7.48235 6.14124
#
# Compressibility (1/GPa) = 0.03426249
#
# Stress axis : x y z
#
# Youngs Moduli (GPa) = 62.05972 33.06156 76.18260
#
# Poissons Ratio (x) = -0.04840 0.89205
# Poissons Ratio (y) = -0.09085 0.18029
# Poissons Ratio (z) = 0.72668 0.07824
#
# Static dielectric constant tensor:
#      x y z
#    x 1.657130 0.000000 0.000000 
#    y 0.000000 1.767780 0.000000 
#    z 0.000000 0.000000 1.743590 
# 
# From -- ./inp_files/77936.got.cif
#   From: 2010.05.17/outbox.cif.g08.bks.cpg/sg65_39_cif.got.tgz:77936.got - 2010.06.03 17:01:31.
