data_PCOD9485407
_publ_section_title
;
Structure prediction by ZEFSAII (Michael W. Deem and Ramdas Pophale) SiO2 
 PCOD9485407
Probable space group: C M M M
;
_chemical_formula_sum "Si O2"
_cell_formula_units_Z 72
_cell_length_a 12.541835
_cell_length_b 18.126816
_cell_length_c 18.267542
_cell_angle_alpha 90.000000
_cell_angle_beta 90.000000
_cell_angle_gamma 90.000000
_cell_volume 4153.007580
_symmetry_space_group_name_H-M "C M M M"
_symmetry_group_IT_number 65
_symmetry_cell_setting 'orthorhombic'
loop_
_space_group_symop_operation_xyz
x,y,z
-x,-y,z
x,-y,-z
-x,y,-z
-x,-y,-z
x,y,-z
-x,y,z
x,-y,z
1/2+x,1/2+y,z
1/2-x,1/2-y,z
1/2+x,1/2-y,-z
1/2-x,1/2+y,-z
1/2-x,1/2-y,-z
1/2+x,1/2+y,-z
1/2-x,1/2+y,z
1/2+x,1/2-y,z
loop_
_atom_site_type_symbol
_atom_site_label
_atom_site_fract_x
_atom_site_fract_y
_atom_site_fract_z
Si Si1 0.000000 0.411328 0.086466
Si Si2 0.303516 0.500000 0.419286
Si Si3 0.618443 0.000000 0.698281
Si Si4 0.122649 0.163147 0.419406
Si Si5 0.334419 0.859422 0.798888
Si Si6 0.623002 0.695387 0.743712
O O1 0.895447 0.376955 0.125675
O O2 0.000000 0.500000 0.098956
O O3 0.000000 0.398010 0.000000
O O4 0.253910 0.500000 0.500000
O O5 0.211121 0.500000 0.360538
O O6 0.370769 0.425498 0.413540
O O7 0.631933 0.926882 0.747036
O O8 0.500000 0.000000 0.665832
O O9 0.170384 0.181943 0.500000
O O10 0.163112 0.190562 0.340785
O O11 0.000000 0.187450 0.421971
O O12 0.373422 0.780214 0.769194
O O13 0.206036 0.850517 0.793621
O O14 0.500000 0.669303 0.746512
#
# Coordination Sequence:
#
# PCOD9485407 Si02
#       6
#     8   8   8  16  16  16
#     4  11  22  40  68  92 110 143 188 229 269 332
#     4  10  19  31  46  73 111 150 193 237 284 326
#     4  12  20  34  55  76 108 148 191 238 280 326
#     4   9  17  30  49  76 109 147 193 239 276 323
#     4  11  20  37  58  84 112 144 186 232 275 335
#     4  10  20  34  57  84 115 150 187 231 287 335
#
# _framework density 17.336832999999999
#
# number of rings (size 3 to 8) (size 9 to 14) (size 15 to 20)
#    0.000    1.667    5.556    0.333    0.000    1.556 
#    0.000    6.111    0.000    2.667    0.000    1.556 
#    0.000    0.000    0.000    0.000    0.000    0.000 
#
# Total GULP energy -200439.155494 kJ/mol
# GULP energy per Si atom -5567.754319 kJ/mol
# Density = 1.729737 g / cm^3
# Si number density = 17.336833 Si / 1000 Ang^3
#
#
#
# Elastic Constant Matrix: (Units=GPa)
#
#
# Indices 1 2 3 4 5 6 
#
# 1 104.4131 13.1843 39.7422 0.0000 0.0000 0.0000
# 2 13.1843 70.7111 42.3995 0.0000 0.0000 0.0000
# 3 39.7422 42.3995 133.3944 0.0000 0.0000 0.0000
# 4 0.0000 0.0000 0.0000 16.4559 0.0000 0.0000
# 5 0.0000 0.0000 0.0000 0.0000 25.2097 0.0000
# 6 0.0000 0.0000 0.0000 0.0000 0.0000 10.4412
#
#
#
# Elastic Compliance Matrix: (Units=1/GPa)
#
#
# Indices 1 2 3 4 5 6 
#
# 1 0.010803 -0.000104 -0.003185 0.000000 0.000000 0.000000
# 2 -0.000104 0.017473 -0.005523 0.000000 0.000000 0.000000
# 3 -0.003185 -0.005523 0.010201 0.000000 0.000000 0.000000
# 4 0.000000 0.000000 0.000000 0.060768 0.000000 0.000000
# 5 0.000000 0.000000 0.000000 0.000000 0.039667 0.000000
# 6 0.000000 0.000000 0.000000 0.000000 0.000000 0.095775
#
#
# Mechanical properties :
#
#
# Convention : Reuss Voigt Hill
#
# Bulk Modulus (GPa) = 47.95655 55.46339 51.70997
# Shear Modulus (GPa) = 19.28543 24.63419 21.95981
#
# Velocity S-wave (km/s) = 3.33888 3.77359 3.56287
# Velocity P-wave (km/s) = 6.52578 7.14477 6.84228
#
# Compressibility (1/GPa) = 0.02085221
#
# Stress axis : x y z
#
# Youngs Moduli (GPa) = 92.56737 57.23112 98.02961
#
# Poissons Ratio (x) = 0.00596 0.31226
# Poissons Ratio (y) = 0.00965 0.54139
# Poissons Ratio (z) = 0.29486 0.31607
#
# Static dielectric constant tensor:
#      x y z
#    x 1.638390 0.000000 0.000000 
#    y 0.000000 1.580680 0.000000 
#    z 0.000000 0.000000 1.604250 
# 
# From -- ./inp_files/51171.got.cif
#   From: 2010.05.17/outbox.cif.g08.bks.cpg/sg65_26_cif.got.tgz:51171.got - 2010.06.03 17:01:31.
