data_PCOD9485682
_publ_section_title
;
Structure prediction by ZEFSAII (Michael W. Deem and Ramdas Pophale) SiO2 
 PCOD9485682
Probable space group: C M M M
;
_chemical_formula_sum "Si O2"
_cell_formula_units_Z 72
_cell_length_a 34.172486
_cell_length_b 14.308663
_cell_length_c 7.566764
_cell_angle_alpha 90.000000
_cell_angle_beta 90.000000
_cell_angle_gamma 90.000000
_cell_volume 3699.864493
_symmetry_space_group_name_H-M "C M M M"
_symmetry_group_IT_number 65
_symmetry_cell_setting 'orthorhombic'
loop_
_space_group_symop_operation_xyz
x,y,z
-x,-y,z
x,-y,-z
-x,y,-z
-x,-y,-z
x,y,-z
-x,y,z
x,-y,z
1/2+x,1/2+y,z
1/2-x,1/2-y,z
1/2+x,1/2-y,-z
1/2-x,1/2+y,-z
1/2-x,1/2-y,-z
1/2+x,1/2+y,-z
1/2-x,1/2+y,z
1/2+x,1/2-y,z
loop_
_atom_site_type_symbol
_atom_site_label
_atom_site_fract_x
_atom_site_fract_y
_atom_site_fract_z
Si Si1 0.545353 0.748897 0.202019
Si Si2 0.952449 0.105541 0.500000
Si Si3 0.770645 0.894502 0.284430
Si Si4 0.690437 0.793784 0.715404
Si Si5 0.111143 0.607241 0.285748
O O1 0.500000 0.770762 0.245966
O O2 0.559127 0.666465 0.330826
O O3 0.572653 0.838165 0.226745
O O4 0.546807 0.717650 0.000000
O O5 0.000000 0.100444 0.500000
O O6 0.937383 0.000000 0.500000
O O7 0.771276 0.895890 0.500000
O O8 0.727336 0.858398 0.233357
O O9 0.800202 0.812314 0.228245
O O10 0.778246 0.000000 0.223785
O O11 0.689990 0.793514 0.500000
O O12 0.649644 0.836952 0.775152
O O13 0.111525 0.607363 0.500000
O O14 0.112115 0.500000 0.227086
#
# Coordination Sequence:
#
# PCOD9485682 Si02
#       5
#    16   8  16  16  16
#     4  10  21  37  57  82 112 144 182 227 273 325
#     4   9  18  36  61  85 109 138 176 221 269 322
#     4   8  12  20  36  59  90 129 172 219 270 323
#     4   8  14  23  37  61  95 132 175 224 271 324
#     4  10  19  31  49  72 104 145 186 229 278 331
#
# _framework density 19.460172
#
# number of rings (size 3 to 8) (size 9 to 14) (size 15 to 20)
#    0.000    3.000    1.111    2.000    0.000    4.000 
#    0.000    5.556    0.000    0.000    0.000    3.111 
#    0.000    1.778    0.000    0.000    0.000    0.000 
#
# Total GULP energy -200825.970061 kJ/mol
# GULP energy per Si atom -5578.499168 kJ/mol
# Density = 1.941588 g / cm^3
# Si number density = 19.460172 Si / 1000 Ang^3
#
#
#
# Elastic Constant Matrix: (Units=GPa)
#
#
# Indices 1 2 3 4 5 6 
#
# 1 99.0167 87.6882 28.2138 0.0000 0.0000 0.0000
# 2 87.6882 207.0326 38.1152 0.0000 0.0000 0.0000
# 3 28.2138 38.1152 58.3832 0.0000 0.0000 0.0000
# 4 0.0000 0.0000 0.0000 -16.4259 0.0000 0.0000
# 5 0.0000 0.0000 0.0000 0.0000 -13.4137 0.0000
# 6 0.0000 0.0000 0.0000 0.0000 0.0000 24.8085
#
#
#
# Elastic Compliance Matrix: (Units=1/GPa)
#
#
# Indices 1 2 3 4 5 6 
#
# 1 0.016938 -0.006441 -0.003980 0.000000 0.000000 0.000000
# 2 -0.006441 0.007939 -0.002071 0.000000 0.000000 0.000000
# 3 -0.003980 -0.002071 0.020403 0.000000 0.000000 0.000000
# 4 0.000000 0.000000 0.000000 -0.060879 0.000000 0.000000
# 5 0.000000 0.000000 0.000000 0.000000 -0.074551 0.000000
# 6 0.000000 0.000000 0.000000 0.000000 0.000000 0.040309
#
#
# Mechanical properties :
#
#
# Convention : Reuss Voigt Hill
#
# Bulk Modulus (GPa) = 49.26861 74.71854 61.99358
# Shear Modulus (GPa) = -276.36940 13.02147 -131.67397
#
# Velocity S-wave (km/s) = -11.93006 2.58957 -8.23470
# Velocity P-wave (km/s) = 12.82169 6.88623 7.64773
#
# Compressibility (1/GPa) = 0.02029690
#
# Stress axis : x y z
#
# Youngs Moduli (GPa) = 59.04028 125.95283 49.01154
#
# Poissons Ratio (x) = 0.81128 0.19507
# Poissons Ratio (y) = 0.38029 0.10148
# Poissons Ratio (z) = 0.23498 0.26079
#
# Static dielectric constant tensor:
#      x y z
#    x 1.659990 0.000000 0.000000 
#    y 0.000000 1.655770 0.000000 
#    z 0.000000 0.000000 1.736100 
# 
# From -- ./inp_files/18029.got.cif
#   From: 2010.05.17/outbox.cif.g08.bks.cpg/sg65_10_cif.got.tgz:18029.got - 2010.06.03 17:01:31.
