data_PCOD9485313
_publ_section_title
;
Structure prediction by ZEFSAII (Michael W. Deem and Ramdas Pophale) SiO2 
 PCOD9485313
Probable space group: C M M M
;
_chemical_formula_sum "Si O2"
_cell_formula_units_Z 112
_cell_length_a 27.192844
_cell_length_b 16.438246
_cell_length_c 13.594973
_cell_angle_alpha 90.000000
_cell_angle_beta 90.000000
_cell_angle_gamma 90.000000
_cell_volume 6076.989082
_symmetry_space_group_name_H-M "C M M M"
_symmetry_group_IT_number 65
_symmetry_cell_setting 'orthorhombic'
loop_
_space_group_symop_operation_xyz
x,y,z
-x,-y,z
x,-y,-z
-x,y,-z
-x,-y,-z
x,y,-z
-x,y,z
x,-y,z
1/2+x,1/2+y,z
1/2-x,1/2-y,z
1/2+x,1/2-y,-z
1/2-x,1/2+y,-z
1/2-x,1/2-y,-z
1/2+x,1/2+y,-z
1/2-x,1/2+y,z
1/2+x,1/2-y,z
loop_
_atom_site_type_symbol
_atom_site_label
_atom_site_fract_x
_atom_site_fract_y
_atom_site_fract_z
Si Si1 0.774336 0.839703 0.887889
Si Si2 0.367662 0.148466 0.609685
Si Si3 0.941677 0.237526 0.705649
Si Si4 0.319276 0.909858 0.196373
Si Si5 0.378504 0.407666 0.619222
Si Si6 0.293766 0.299774 0.610552
Si Si7 0.871876 0.750099 0.884886
O O1 0.750000 0.750000 0.892797
O O2 0.738690 0.891916 0.818739
O O3 0.830484 0.818510 0.860565
O O4 0.773151 0.872836 0.000000
O O5 0.370737 0.113426 0.500000
O O6 0.419356 0.183376 0.649409
O O7 0.339145 0.096856 0.691827
O O8 0.335463 0.231016 0.603628
O O9 0.918699 0.156157 0.657317
O O10 0.918276 0.240721 0.814443
O O11 0.000000 0.236770 0.704068
O O12 0.347181 0.837260 0.139637
O O13 0.330165 0.000000 0.158646
O O14 0.378928 0.404620 0.500000
O O15 0.387370 0.500000 0.650758
O O16 0.323781 0.376577 0.649000
O O17 0.275531 0.321422 0.500000
O O18 0.250000 0.250000 0.662750
O O19 0.882523 0.755216 0.000000
#
# Coordination Sequence:
#
# PCOD9485313 Si02
#       7
#    16  16  16  16  16  16  16
#     4   8  15  30  51  73 100 135 168 200 250 317
#     4   9  19  33  47  69 104 142 178 214 253 307
#     4  10  20  34  55  79 101 133 181 229 269 316
#     4  10  19  30  51  83 111 136 171 215 262 313
#     4   9  18  32  51  78 109 137 170 217 268 310
#     4   8  14  27  46  65  91 132 174 205 239 291
#     4   9  19  36  56  77 104 137 173 219 272 323
#
# _framework density 18.430178999999999
#
# number of rings (size 3 to 8) (size 9 to 14) (size 15 to 20)
#    0.000    3.000    0.000    2.571    0.000    7.143 
#    0.000    3.571    0.000   10.714    0.000    9.000 
#    0.000    0.000    0.000    0.000    0.000    0.000 
#
# Total GULP energy -311899.158089 kJ/mol
# GULP energy per Si atom -5569.627823 kJ/mol
# Density = 1.838823 g / cm^3
# Si number density = 18.430179 Si / 1000 Ang^3
#
#
#
# Elastic Constant Matrix: (Units=GPa)
#
#
# Indices 1 2 3 4 5 6 
#
# 1 135.8259 32.6344 42.9598 0.0000 0.0000 0.0000
# 2 32.6344 74.1453 24.7349 0.0000 0.0000 0.0000
# 3 42.9598 24.7349 104.5745 0.0000 0.0000 0.0000
# 4 0.0000 0.0000 0.0000 3.5287 0.0000 0.0000
# 5 0.0000 0.0000 0.0000 0.0000 15.6696 0.0000
# 6 0.0000 0.0000 0.0000 0.0000 0.0000 12.5783
#
#
#
# Elastic Compliance Matrix: (Units=1/GPa)
#
#
# Indices 1 2 3 4 5 6 
#
# 1 0.009027 -0.002970 -0.003006 0.000000 0.000000 0.000000
# 2 -0.002970 0.015620 -0.002474 0.000000 0.000000 0.000000
# 3 -0.003006 -0.002474 0.011383 0.000000 0.000000 0.000000
# 4 0.000000 0.000000 0.000000 0.283394 0.000000 0.000000
# 5 0.000000 0.000000 0.000000 0.000000 0.063818 0.000000
# 6 0.000000 0.000000 0.000000 0.000000 0.000000 0.079502
#
#
# Mechanical properties :
#
#
# Convention : Reuss Voigt Hill
#
# Bulk Modulus (GPa) = 52.27807 57.24488 54.76148
# Shear Modulus (GPa) = 10.28764 20.63640 15.46202
#
# Velocity S-wave (km/s) = 2.36518 3.34983 2.89961
# Velocity P-wave (km/s) = 5.99048 6.78894 6.40217
#
# Compressibility (1/GPa) = 0.01912848
#
# Stress axis : x y z
#
# Youngs Moduli (GPa) = 110.78268 64.02116 87.85380
#
# Poissons Ratio (x) = 0.19016 0.26406
# Poissons Ratio (y) = 0.32906 0.21738
# Poissons Ratio (z) = 0.33297 0.15841
#
# Static dielectric constant tensor:
#      x y z
#    x 1.638890 0.000000 0.000000 
#    y 0.000000 1.645070 0.000000 
#    z 0.000000 0.000000 1.726940 
# 
# From -- ./inp_files/47032.got.cif
#   From: 2010.05.17/outbox.cif.g08.bks.cpg/sg65_24_cif.got.tgz:47032.got - 2010.06.03 17:01:31.
