data_PCOD9485621
_publ_section_title
;
Structure prediction by ZEFSAII (Michael W. Deem and Ramdas Pophale) SiO2 
 PCOD9485621
Probable space group: C M M M
;
_chemical_formula_sum "Si O2"
_cell_formula_units_Z 116
_cell_length_a 25.975222
_cell_length_b 29.622707
_cell_length_c 9.064611
_cell_angle_alpha 90.000000
_cell_angle_beta 90.000000
_cell_angle_gamma 90.000000
_cell_volume 6974.822862
_symmetry_space_group_name_H-M "C M M M"
_symmetry_group_IT_number 65
_symmetry_cell_setting 'orthorhombic'
loop_
_space_group_symop_operation_xyz
x,y,z
-x,-y,z
x,-y,-z
-x,y,-z
-x,-y,-z
x,y,-z
-x,y,z
x,-y,z
1/2+x,1/2+y,z
1/2-x,1/2-y,z
1/2+x,1/2-y,-z
1/2-x,1/2+y,-z
1/2-x,1/2-y,-z
1/2+x,1/2+y,-z
1/2-x,1/2+y,z
1/2+x,1/2-y,z
loop_
_atom_site_type_symbol
_atom_site_label
_atom_site_fract_x
_atom_site_fract_y
_atom_site_fract_z
Si Si1 0.817864 0.130940 0.327127
Si Si2 0.275043 0.798596 0.672640
Si Si3 0.105129 0.192777 0.161913
Si Si4 0.361628 0.946341 0.175582
Si Si5 0.618340 0.795138 0.823097
Si Si6 0.939460 0.376857 0.323877
Si Si7 0.500000 0.680258 0.000000
Si Si8 0.752617 0.446990 0.676469
O O1 0.829595 0.126760 0.500000
O O2 0.769574 0.164796 0.310434
O O3 0.866003 0.154055 0.249770
O O4 0.795440 0.083230 0.273222
O O5 0.291447 0.798435 0.500000
O O6 0.250000 0.750000 0.705626
O O7 0.323993 0.807674 0.774137
O O8 0.109789 0.243192 0.226392
O O9 0.046006 0.182346 0.125743
O O10 0.131652 0.195453 0.000000
O O11 0.404939 0.916235 0.252711
O O12 0.305658 0.934610 0.242398
O O13 0.369785 0.000000 0.202103
O O14 0.361936 0.938612 0.000000
O O15 0.579718 0.829922 0.746565
O O16 0.611688 0.797258 0.000000
O O17 0.931543 0.376003 0.500000
O O18 0.000000 0.383689 0.294572
O O19 0.759627 0.439385 0.500000
O O20 0.743495 0.500000 0.699940
#
# Coordination Sequence:
#
# PCOD9485621 Si02
#       8
#    16  16  16  16  16  16   4  16
#     4  10  19  32  52  79 108 140 179 219 259 316
#     4  10  19  31  48  74 112 145 172 214 267 323
#     4   9  20  35  55  73 101 142 176 215 267 321
#     4  10  21  38  59  83 109 140 180 225 276 330
#     4  11  22  34  54  77 105 142 182 225 273 330
#     4  11  25  40  55  76 102 141 191 239 283 325
#     4   8  20  40  54  70 105 142 175 218 270 318
#     4   9  18  33  55  83 116 149 175 208 263 328
#
# _framework density 16.631246999999998
#
# number of rings (size 3 to 8) (size 9 to 14) (size 15 to 20)
#    0.414    1.655    1.379    2.069    0.966    5.241 
#    0.000    1.724    0.000    0.000    0.000    0.966 
#    0.000    2.207    0.000    0.000    0.000    0.000 
#
# Total GULP energy -322907.783534 kJ/mol
# GULP energy per Si atom -5567.375578 kJ/mol
# Density = 1.659339 g / cm^3
# Si number density = 16.631247 Si / 1000 Ang^3
#
#
#
# Elastic Constant Matrix: (Units=GPa)
#
#
# Indices 1 2 3 4 5 6 
#
# 1 106.3478 47.6952 45.3818 0.0000 0.0000 0.0000
# 2 47.6952 69.3963 36.1702 0.0000 0.0000 0.0000
# 3 45.3818 36.1702 46.7284 0.0000 0.0000 0.0000
# 4 0.0000 0.0000 0.0000 21.2971 0.0000 0.0000
# 5 0.0000 0.0000 0.0000 0.0000 22.0758 0.0000
# 6 0.0000 0.0000 0.0000 0.0000 0.0000 18.8793
#
#
#
# Elastic Compliance Matrix: (Units=1/GPa)
#
#
# Indices 1 2 3 4 5 6 
#
# 1 0.017106 -0.005193 -0.012594 0.000000 0.000000 0.000000
# 2 -0.005193 0.025732 -0.014874 0.000000 0.000000 0.000000
# 3 -0.012594 -0.014874 0.045144 0.000000 0.000000 0.000000
# 4 0.000000 0.000000 0.000000 0.046955 0.000000 0.000000
# 5 0.000000 0.000000 0.000000 0.000000 0.045298 0.000000
# 6 0.000000 0.000000 0.000000 0.000000 0.000000 0.052968
#
#
# Mechanical properties :
#
#
# Convention : Reuss Voigt Hill
#
# Bulk Modulus (GPa) = 44.12965 53.44076 48.78520
# Shear Modulus (GPa) = 16.33566 18.66546 17.50056
#
# Velocity S-wave (km/s) = 3.13745 3.35373 3.24739
# Velocity P-wave (km/s) = 6.30211 6.87016 6.59226
#
# Compressibility (1/GPa) = 0.02266050
#
# Stress axis : x y z
#
# Youngs Moduli (GPa) = 58.45879 38.86255 22.15110
#
# Poissons Ratio (x) = 0.20181 0.27896
# Poissons Ratio (y) = 0.30357 0.32949
# Poissons Ratio (z) = 0.73620 0.57806
#
# Static dielectric constant tensor:
#      x y z
#    x 1.526940 0.000000 0.000000 
#    y 0.000000 1.583050 0.000000 
#    z 0.000000 0.000000 1.572320 
# 
# From -- ./inp_files/15140.got.cif
#   From: 2010.05.17/outbox.cif.g08.bks.cpg/sg65_8_cif.got.tgz:15140.got - 2010.06.03 17:01:31.
