data_PCOD9485227
_publ_section_title
;
Structure prediction by ZEFSAII (Michael W. Deem and Ramdas Pophale) SiO2 
 PCOD9485227
Probable space group: C M M M
;
_chemical_formula_sum "Si O2"
_cell_formula_units_Z 80
_cell_length_a 25.220721
_cell_length_b 20.440871
_cell_length_c 7.455491
_cell_angle_alpha 90.000000
_cell_angle_beta 90.000000
_cell_angle_gamma 90.000000
_cell_volume 3843.555403
_symmetry_space_group_name_H-M "C M M M"
_symmetry_group_IT_number 65
_symmetry_cell_setting 'orthorhombic'
loop_
_space_group_symop_operation_xyz
x,y,z
-x,-y,z
x,-y,-z
-x,y,-z
-x,-y,-z
x,y,-z
-x,y,z
x,-y,z
1/2+x,1/2+y,z
1/2-x,1/2-y,z
1/2+x,1/2-y,-z
1/2-x,1/2+y,-z
1/2-x,1/2-y,-z
1/2+x,1/2+y,-z
1/2-x,1/2+y,z
1/2+x,1/2-y,z
loop_
_atom_site_type_symbol
_atom_site_label
_atom_site_fract_x
_atom_site_fract_y
_atom_site_fract_z
Si Si1 0.000000 0.421724 0.782232
Si Si2 0.774401 0.000000 0.713465
Si Si3 0.342618 0.000000 0.199840
Si Si4 0.939445 0.000000 0.280227
Si Si5 0.811047 0.756681 0.288384
Si Si6 0.113037 0.633882 0.782912
Si Si7 0.641189 0.609504 0.716821
O O1 0.051995 0.379781 0.728593
O O2 0.000000 0.500000 0.725492
O O3 0.000000 0.424883 0.000000
O O4 0.808704 0.936514 0.755263
O O5 0.764538 0.000000 0.500000
O O6 0.719703 0.000000 0.811272
O O7 0.359609 0.067475 0.284544
O O8 0.367561 0.000000 0.000000
O O9 0.908522 0.934317 0.220960
O O10 0.937622 0.000000 0.500000
O O11 0.000000 0.000000 0.224349
O O12 0.804063 0.769791 0.500000
O O13 0.750000 0.750000 0.217714
O O14 0.849667 0.694153 0.272336
O O15 0.843914 0.818892 0.214500
O O16 0.113516 0.636828 0.000000
O O17 0.635048 0.613560 0.500000
#
# Coordination Sequence:
#
# PCOD9485227 Si02
#       7
#     8   8   8   8  16  16  16
#     4   9  16  34  59  75  95 132 175 216 260 309
#     4   9  16  29  51  72  94 128 166 202 240 294
#     4  10  19  30  47  74  99 121 162 213 252 288
#     4   8  13  24  44  66  88 117 155 199 237 272
#     4  10  20  34  50  72 107 141 163 197 255 310
#     4  10  20  34  54  76  98 131 174 215 252 299
#     4   8  15  28  45  67  94 125 162 195 233 292
#
# _framework density 20.814060999999999
#
# number of rings (size 3 to 8) (size 9 to 14) (size 15 to 20)
#    0.000    2.800    1.000    2.400    0.000    2.800 
#    1.800    1.500    0.000    0.600    0.000    0.000 
#    0.000    2.800    0.000    0.000    0.000    0.000 
#
# Total GULP energy -222808.246243 kJ/mol
# GULP energy per Si atom -5570.206156 kJ/mol
# Density = 2.076669 g / cm^3
# Si number density = 20.814061 Si / 1000 Ang^3
#
#
#
# Elastic Constant Matrix: (Units=GPa)
#
#
# Indices 1 2 3 4 5 6 
#
# 1 188.9068 97.7899 9.9954 0.0000 0.0000 0.0000
# 2 97.7899 199.0485 2.4640 0.0000 0.0000 0.0000
# 3 9.9954 2.4640 52.1734 0.0000 0.0000 0.0000
# 4 0.0000 0.0000 0.0000 15.3803 0.0000 0.0000
# 5 0.0000 0.0000 0.0000 0.0000 10.4238 0.0000
# 6 0.0000 0.0000 0.0000 0.0000 0.0000 4.2505
#
#
#
# Elastic Compliance Matrix: (Units=1/GPa)
#
#
# Indices 1 2 3 4 5 6 
#
# 1 0.007174 -0.003510 -0.001209 0.000000 0.000000 0.000000
# 2 -0.003510 0.006744 0.000354 0.000000 0.000000 0.000000
# 3 -0.001209 0.000354 0.019382 0.000000 0.000000 0.000000
# 4 0.000000 0.000000 0.000000 0.065018 0.000000 0.000000
# 5 0.000000 0.000000 0.000000 0.000000 0.095934 0.000000
# 6 0.000000 0.000000 0.000000 0.000000 0.000000 0.235266
#
#
# Mechanical properties :
#
#
# Convention : Reuss Voigt Hill
#
# Bulk Modulus (GPa) = 40.69864 73.40303 57.05084
# Shear Modulus (GPa) = 11.19977 28.00288 19.60133
#
# Velocity S-wave (km/s) = 2.32219 3.67193 3.07210
# Velocity P-wave (km/s) = 5.17551 7.30206 6.32874
#
# Compressibility (1/GPa) = 0.02457084
#
# Stress axis : x y z
#
# Youngs Moduli (GPa) = 139.38382 148.28412 51.59499
#
# Poissons Ratio (x) = 0.52044 0.06236
# Poissons Ratio (y) = 0.48920 -0.01826
# Poissons Ratio (z) = 0.16848 -0.05248
#
# Static dielectric constant tensor:
#      x y z
#    x 1.737460 0.000000 0.000000 
#    y 0.000000 1.743600 0.000000 
#    z 0.000000 0.000000 1.797550 
# 
# From -- ./inp_files/13901.got.cif
#   From: 2010.05.17/outbox.cif.g08.bks.cpg/sg65_7_cif.got.tgz:13901.got - 2010.06.03 17:01:31.
