data_PCOD9485161
_publ_section_title
;
Structure prediction by ZEFSAII (Michael W. Deem and Ramdas Pophale) SiO2 
 PCOD9485161
Probable space group: C M M M
;
_chemical_formula_sum "Si O2"
_cell_formula_units_Z 120
_cell_length_a 20.670965
_cell_length_b 14.780464
_cell_length_c 23.829465
_cell_angle_alpha 90.000000
_cell_angle_beta 90.000000
_cell_angle_gamma 90.000000
_cell_volume 7280.531943
_symmetry_space_group_name_H-M "C M M M"
_symmetry_group_IT_number 65
_symmetry_cell_setting 'orthorhombic'
loop_
_space_group_symop_operation_xyz
x,y,z
-x,-y,z
x,-y,-z
-x,y,-z
-x,-y,-z
x,y,-z
-x,y,z
x,-y,z
1/2+x,1/2+y,z
1/2-x,1/2-y,z
1/2+x,1/2-y,-z
1/2-x,1/2+y,-z
1/2-x,1/2-y,-z
1/2+x,1/2+y,-z
1/2-x,1/2+y,z
1/2+x,1/2-y,z
loop_
_atom_site_type_symbol
_atom_site_label
_atom_site_fract_x
_atom_site_fract_y
_atom_site_fract_z
Si Si1 0.077268 0.892221 0.676280
Si Si2 0.578724 0.295253 0.438797
Si Si3 0.422401 0.901028 0.731018
Si Si4 0.571322 0.607188 0.887014
Si Si5 0.750000 0.750000 0.150303
Si Si6 0.880044 0.215821 0.783133
Si Si7 0.787939 0.892566 0.064414
Si Si8 0.078595 0.600034 0.399930
O O1 0.097697 0.852276 0.615876
O O2 0.114332 0.843302 0.726751
O O3 0.000000 0.872352 0.683382
O O4 0.085399 0.000000 0.677915
O O5 0.599758 0.329536 0.500000
O O6 0.500000 0.296173 0.438659
O O7 0.599468 0.190602 0.431372
O O8 0.500000 0.902835 0.730732
O O9 0.401992 0.816356 0.767365
O O10 0.403237 0.889813 0.665666
O O11 0.398959 0.000000 0.750275
O O12 0.500000 0.623206 0.912795
O O13 0.574547 0.500000 0.873097
O O14 0.577844 0.665739 0.830610
O O15 0.635558 0.626704 0.923441
O O16 0.809851 0.773379 0.189823
O O17 0.745576 0.835211 0.107961
O O18 0.778957 0.000000 0.072347
O O19 0.773206 0.869961 0.000000
O O20 0.099954 0.500000 0.419531
O O21 0.000000 0.599279 0.402512
#
# Coordination Sequence:
#
# PCOD9485161 Si02
#       8
#    16  16  16  16   8  16  16  16
#     4  10  19  30  47  69  93 126 161 192 237 296
#     4   9  16  25  38  61  94 126 154 189 234 288
#     4   9  16  26  43  64  85 113 148 185 230 284
#     4   9  17  28  46  75 103 125 154 191 231 277
#     4  10  23  34  48  72  97 124 162 202 232 274
#     4  11  19  31  46  64  92 128 157 195 239 281
#     4   9  18  34  54  73  98 131 161 192 232 276
#     4   8  13  22  36  56  83 114 148 185 225 273
#
# _framework density 16.482313000000001
#
# number of rings (size 3 to 8) (size 9 to 14) (size 15 to 20)
#    0.000    2.667    1.333    2.600    0.000    2.933 
#    0.000    4.000    0.000    0.000    0.000    0.467 
#    0.000    0.000    0.000   33.200    0.000    0.267 
#
# Total GULP energy -334002.682386 kJ/mol
# GULP energy per Si atom -5566.711373 kJ/mol
# Density = 1.644480 g / cm^3
# Si number density = 16.482313 Si / 1000 Ang^3
#
#
#
# Elastic Constant Matrix: (Units=GPa)
#
#
# Indices 1 2 3 4 5 6 
#
# 1 30.9323 17.2970 22.5768 0.0000 0.0000 0.0000
# 2 17.2970 79.3319 53.5794 0.0000 0.0000 0.0000
# 3 22.5768 53.5794 103.6665 0.0000 0.0000 0.0000
# 4 0.0000 0.0000 0.0000 15.9833 0.0000 0.0000
# 5 0.0000 0.0000 0.0000 0.0000 11.5594 0.0000
# 6 0.0000 0.0000 0.0000 0.0000 0.0000 17.3439
#
#
#
# Elastic Compliance Matrix: (Units=1/GPa)
#
#
# Indices 1 2 3 4 5 6 
#
# 1 0.039367 -0.004291 -0.006356 0.000000 0.000000 0.000000
# 2 -0.004291 0.019833 -0.009316 0.000000 0.000000 0.000000
# 3 -0.006356 -0.009316 0.015845 0.000000 0.000000 0.000000
# 4 0.000000 0.000000 0.000000 0.062565 0.000000 0.000000
# 5 0.000000 0.000000 0.000000 0.000000 0.086509 0.000000
# 6 0.000000 0.000000 0.000000 0.000000 0.000000 0.057657
#
#
# Mechanical properties :
#
#
# Convention : Reuss Voigt Hill
#
# Bulk Modulus (GPa) = 28.47373 44.53744 36.50559
# Shear Modulus (GPa) = 14.99661 17.00915 16.00288
#
# Velocity S-wave (km/s) = 3.01966 3.21590 3.11933
# Velocity P-wave (km/s) = 5.42869 6.39292 5.93043
#
# Compressibility (1/GPa) = 0.03512010
#
# Stress axis : x y z
#
# Youngs Moduli (GPa) = 25.40198 50.42207 63.10983
#
# Poissons Ratio (x) = 0.21634 0.40112
# Poissons Ratio (y) = 0.10899 0.58793
# Poissons Ratio (z) = 0.16145 0.46973
#
# Static dielectric constant tensor:
#      x y z
#    x 1.546040 0.000000 0.000000 
#    y 0.000000 1.574980 0.000000 
#    z 0.000000 0.000000 1.563350 
# 
# From -- ./inp_files/65567.got.cif
#   From: 2010.05.17/outbox.cif.g08.bks.cpg/sg65_33_cif.got.tgz:65567.got - 2010.06.03 17:01:31.
