data_PCOD9485809
_publ_section_title
;
Structure prediction by ZEFSAII (Michael W. Deem and Ramdas Pophale) SiO2 
 PCOD9485809
Probable space group: C M M M
;
_chemical_formula_sum "Si O2"
_cell_formula_units_Z 88
_cell_length_a 17.108700
_cell_length_b 22.234371
_cell_length_c 14.260498
_cell_angle_alpha 90.000000
_cell_angle_beta 90.000000
_cell_angle_gamma 90.000000
_cell_volume 5424.710311
_symmetry_space_group_name_H-M "C M M M"
_symmetry_group_IT_number 65
_symmetry_cell_setting 'orthorhombic'
loop_
_space_group_symop_operation_xyz
x,y,z
-x,-y,z
x,-y,-z
-x,y,-z
-x,-y,-z
x,y,-z
-x,y,z
x,-y,z
1/2+x,1/2+y,z
1/2-x,1/2-y,z
1/2+x,1/2-y,-z
1/2-x,1/2+y,-z
1/2-x,1/2-y,-z
1/2+x,1/2+y,-z
1/2-x,1/2+y,z
1/2+x,1/2-y,z
loop_
_atom_site_type_symbol
_atom_site_label
_atom_site_fract_x
_atom_site_fract_y
_atom_site_fract_z
Si Si1 0.308770 0.656342 0.777346
Si Si2 0.847237 0.368702 0.888045
Si Si3 0.590849 0.000000 0.113564
Si Si4 0.788716 0.683625 0.605767
Si Si5 0.910671 0.276061 0.751058
Si Si6 0.593603 0.429958 0.895827
O O1 0.237085 0.652677 0.850413
O O2 0.268668 0.647814 0.675814
O O3 0.355208 0.719395 0.775923
O O4 0.368141 0.606285 0.812398
O O5 0.865995 0.437884 0.859761
O O6 0.905935 0.323837 0.835409
O O7 0.852432 0.364358 0.000000
O O8 0.500000 0.000000 0.145165
O O9 0.589292 0.000000 0.000000
O O10 0.796207 0.660495 0.500000
O O11 0.750000 0.750000 0.600518
O O12 0.870230 0.692795 0.660649
O O13 0.000000 0.257784 0.734284
O O14 0.500000 0.425701 0.892012
O O15 0.615119 0.500000 0.890912
O O16 0.618188 0.407599 0.000000
#
# Coordination Sequence:
#
# PCOD9485809 Si02
#       6
#    16  16   8  16  16  16
#     4  10  19  31  50  73  99 129 168 208 253 304
#     4  10  20  32  47  69  98 131 168 208 248 296
#     4   9  18  32  48  66  90 124 166 209 248 288
#     4   8  16  32  51  71  95 122 156 203 253 301
#     4  10  20  32  48  73 101 130 162 201 253 309
#     4   9  18  31  47  70 102 139 177 213 247 291
#
# _framework density 16.222064
#
# number of rings (size 3 to 8) (size 9 to 14) (size 15 to 20)
#    0.000    2.636    0.000    3.818    1.273    3.636 
#    0.000    0.000    0.000    2.182    0.000    1.273 
#    0.000    6.909    0.000    0.000    0.000    0.000 
#
# Total GULP energy -245007.257994 kJ/mol
# GULP energy per Si atom -5568.346773 kJ/mol
# Density = 1.618514 g / cm^3
# Si number density = 16.222064 Si / 1000 Ang^3
#
#
#
# Elastic Constant Matrix: (Units=GPa)
#
#
# Indices 1 2 3 4 5 6 
#
# 1 81.4953 47.9998 42.9703 0.0000 0.0000 0.0000
# 2 47.9998 65.6038 48.3483 0.0000 0.0000 0.0000
# 3 42.9703 48.3483 119.5783 0.0000 0.0000 0.0000
# 4 0.0000 0.0000 0.0000 7.8720 0.0000 0.0000
# 5 0.0000 0.0000 0.0000 0.0000 12.0338 0.0000
# 6 0.0000 0.0000 0.0000 0.0000 0.0000 30.9814
#
#
#
# Elastic Compliance Matrix: (Units=1/GPa)
#
#
# Indices 1 2 3 4 5 6 
#
# 1 0.021887 -0.014555 -0.001980 0.000000 0.000000 0.000000
# 2 -0.014555 0.031392 -0.007462 0.000000 0.000000 0.000000
# 3 -0.001980 -0.007462 0.012091 0.000000 0.000000 0.000000
# 4 0.000000 0.000000 0.000000 0.127033 0.000000 0.000000
# 5 0.000000 0.000000 0.000000 0.000000 0.083099 0.000000
# 6 0.000000 0.000000 0.000000 0.000000 0.000000 0.032277
#
#
# Mechanical properties :
#
#
# Convention : Reuss Voigt Hill
#
# Bulk Modulus (GPa) = 57.55068 60.59048 59.07058
# Shear Modulus (GPa) = 13.82872 18.66803 16.24837
#
# Velocity S-wave (km/s) = 2.92287 3.39600 3.16827
# Velocity P-wave (km/s) = 6.85162 7.26697 7.06235
#
# Compressibility (1/GPa) = 0.01737599
#
# Stress axis : x y z
#
# Youngs Moduli (GPa) = 45.68832 31.85569 82.70277
#
# Poissons Ratio (x) = 0.46365 0.16378
# Poissons Ratio (y) = 0.66498 0.61714
# Poissons Ratio (z) = 0.09048 0.23771
#
# Static dielectric constant tensor:
#      x y z
#    x 1.576850 0.000000 0.000000 
#    y 0.000000 1.544000 0.000000 
#    z 0.000000 0.000000 1.543970 
# 
# From -- ./inp_files/42750.got.cif
#   From: 2010.05.17/outbox.cif.g08.bks.cpg/sg65_22_cif.got.tgz:42750.got - 2010.06.03 17:01:31.
