data_PCOD9485994
_publ_section_title
;
Structure prediction by ZEFSAII (Michael W. Deem and Ramdas Pophale) SiO2 
 PCOD9485994
Probable space group: C M M M
;
_chemical_formula_sum "Si O2"
_cell_formula_units_Z 80
_cell_length_a 18.239937
_cell_length_b 10.445054
_cell_length_c 23.418368
_cell_angle_alpha 90.000000
_cell_angle_beta 90.000000
_cell_angle_gamma 90.000000
_cell_volume 4461.600189
_symmetry_space_group_name_H-M "C M M M"
_symmetry_group_IT_number 65
_symmetry_cell_setting 'orthorhombic'
loop_
_space_group_symop_operation_xyz
x,y,z
-x,-y,z
x,-y,-z
-x,y,-z
-x,-y,-z
x,y,-z
-x,y,z
x,-y,z
1/2+x,1/2+y,z
1/2-x,1/2-y,z
1/2+x,1/2-y,-z
1/2-x,1/2+y,-z
1/2-x,1/2-y,-z
1/2+x,1/2+y,-z
1/2-x,1/2+y,z
1/2+x,1/2-y,z
loop_
_atom_site_type_symbol
_atom_site_label
_atom_site_fract_x
_atom_site_fract_y
_atom_site_fract_z
Si Si1 0.417820 0.500000 0.931195
Si Si2 0.416897 0.153702 0.610975
Si Si3 0.680377 0.843438 0.722582
Si Si4 0.582299 0.146987 0.172182
Si Si5 0.179799 0.656502 0.500000
Si Si6 0.662997 0.760666 0.932947
O O1 0.500000 0.500000 0.907832
O O2 0.372472 0.375076 0.917055
O O3 0.423392 0.500000 0.000000
O O4 0.500000 0.206004 0.610273
O O5 0.373137 0.180956 0.668978
O O6 0.368745 0.187700 0.555842
O O7 0.423173 0.000000 0.608663
O O8 0.750000 0.750000 0.716933
O O9 0.636996 0.801214 0.779857
O O10 0.696563 0.000000 0.724297
O O11 0.500000 0.203726 0.169565
O O12 0.621895 0.148688 0.110981
O O13 0.573548 0.000000 0.189617
O O14 0.195510 0.500000 0.500000
O O15 0.250000 0.750000 0.500000
O O16 0.750000 0.750000 0.925220
O O17 0.649363 0.789662 0.000000
#
# Coordination Sequence:
#
# PCOD9485994 Si02
#       6
#     8  16  16  16   8  16
#     4   9  18  34  54  74 101 137 171 204 255 325
#     4   9  17  31  54  81 108 142 184 226 266 312
#     4  10  20  36  57  79 106 140 177 219 268 320
#     4  10  21  36  54  76 102 133 172 215 261 316
#     4  10  19  31  51  81 113 144 184 228 268 314
#     4  10  21  35  54  78 105 134 170 215 264 318
#
# _framework density 17.930786999999999
#
# number of rings (size 3 to 8) (size 9 to 14) (size 15 to 20)
#    0.000    2.300    0.000    2.700    1.400    5.200 
#    1.800    1.000    0.000    4.200    0.000    0.000 
#    0.000    0.000    0.000    0.000    0.000    0.000 
#
# Total GULP energy -222708.954424 kJ/mol
# GULP energy per Si atom -5567.723861 kJ/mol
# Density = 1.788998 g / cm^3
# Si number density = 17.930787 Si / 1000 Ang^3
#
#
#
# Elastic Constant Matrix: (Units=GPa)
#
#
# Indices 1 2 3 4 5 6 
#
# 1 178.1973 49.5601 74.7757 0.0000 0.0000 0.0000
# 2 49.5601 50.6552 19.0232 0.0000 0.0000 0.0000
# 3 74.7757 19.0232 104.1353 0.0000 0.0000 0.0000
# 4 0.0000 0.0000 0.0000 2.5059 0.0000 0.0000
# 5 0.0000 0.0000 0.0000 0.0000 22.6683 0.0000
# 6 0.0000 0.0000 0.0000 0.0000 0.0000 -359.8607
#
#
#
# Elastic Compliance Matrix: (Units=1/GPa)
#
#
# Indices 1 2 3 4 5 6 
#
# 1 0.010290 -0.007829 -0.005958 0.000000 0.000000 0.000000
# 2 -0.007829 0.027153 0.000662 0.000000 0.000000 0.000000
# 3 -0.005958 0.000662 0.013760 0.000000 0.000000 0.000000
# 4 0.000000 0.000000 0.000000 0.399061 0.000000 0.000000
# 5 0.000000 0.000000 0.000000 0.000000 0.044114 0.000000
# 6 0.000000 0.000000 0.000000 0.000000 0.000000 -0.002779
#
#
# Mechanical properties :
#
#
# Convention : Reuss Voigt Hill
#
# Bulk Modulus (GPa) = 40.07847 68.85621 54.46734
# Shear Modulus (GPa) = 9.50266 -54.29538 -22.39636
#
# Velocity S-wave (km/s) = 2.30459 -5.50875 -3.53802
# Velocity P-wave (km/s) = 5.42971 1.40614 3.70841
#
# Compressibility (1/GPa) = 0.02495105
#
# Stress axis : x y z
#
# Youngs Moduli (GPa) = 97.18641 36.82834 72.67246
#
# Poissons Ratio (x) = 0.28835 0.43300
# Poissons Ratio (y) = 0.76092 -0.04810
# Poissons Ratio (z) = 0.57906 -0.02437
#
# Static dielectric constant tensor:
#      x y z
#    x 1.629720 0.000000 0.000000 
#    y 0.000000 1.661180 0.000000 
#    z 0.000000 0.000000 1.609600 
# 
# From -- ./inp_files/63542.got.cif
#   From: 2010.05.17/outbox.cif.g08.bks.cpg/sg65_32_cif.got.tgz:63542.got - 2010.06.03 17:01:31.
