data_PCOD9485717
_publ_section_title
;
Structure prediction by ZEFSAII (Michael W. Deem and Ramdas Pophale) SiO2 
 PCOD9485717
Probable space group: C M M M
;
_chemical_formula_sum "Si O2"
_cell_formula_units_Z 104
_cell_length_a 9.073397
_cell_length_b 15.346937
_cell_length_c 35.724411
_cell_angle_alpha 90.000000
_cell_angle_beta 90.000000
_cell_angle_gamma 90.000000
_cell_volume 4974.583225
_symmetry_space_group_name_H-M "C M M M"
_symmetry_group_IT_number 65
_symmetry_cell_setting 'orthorhombic'
loop_
_space_group_symop_operation_xyz
x,y,z
-x,-y,z
x,-y,-z
-x,y,-z
-x,-y,-z
x,y,-z
-x,y,z
x,-y,z
1/2+x,1/2+y,z
1/2-x,1/2-y,z
1/2+x,1/2-y,-z
1/2-x,1/2+y,-z
1/2-x,1/2-y,-z
1/2+x,1/2+y,-z
1/2-x,1/2+y,z
1/2+x,1/2-y,z
loop_
_atom_site_type_symbol
_atom_site_label
_atom_site_fract_x
_atom_site_fract_y
_atom_site_fract_z
Si Si1 0.164527 0.102906 0.155925
Si Si2 0.676870 0.154358 0.000000
Si Si3 0.676913 0.154676 0.081072
Si Si4 0.677524 0.153939 0.540266
Si Si5 0.322998 0.845347 0.621374
Si Si6 0.330885 0.107193 0.229838
Si Si7 0.164531 0.102913 0.696245
O O1 0.255289 0.112396 0.117834
O O2 0.248759 0.137551 0.192316
O O3 0.000000 0.140828 0.151939
O O4 0.149767 0.000000 0.162583
O O5 0.750000 0.250000 0.000000
O O6 0.713783 0.112925 0.959679
O O7 0.500000 0.165377 0.000000
O O8 0.500000 0.158970 0.084267
O O9 0.750000 0.250000 0.080145
O O10 0.717789 0.112382 0.500000
O O11 0.500000 0.163290 0.540453
O O12 0.750000 0.250000 0.540092
O O13 0.714808 0.113019 0.580657
O O14 0.500000 0.841172 0.624460
O O15 0.250000 0.750000 0.620463
O O16 0.255516 0.887559 0.658189
O O17 0.500000 0.135189 0.229866
O O18 0.248562 0.137551 0.267332
O O19 0.331524 0.000000 0.229840
O O20 0.000000 0.140816 0.692212
O O21 0.149773 0.000000 0.702884
#
# Coordination Sequence:
#
# PCOD9485717 Si02
#       7
#    16   8  16  16  16  16  16
#     4  10  20  34  52  75 103 133 165 202 245 291
#     4   8  16  30  49  72  97 129 167 205 243 288
#     4  10  19  33  53  76 102 132 168 207 248 293
#     4   8  14  25  42  65  92 122 157 196 237 283
#     4  10  19  31  49  73 101 130 161 200 246 293
#     4   9  17  31  52  75  97 125 163 202 241 290
#     4  10  20  34  52  73  98 129 165 203 242 288
#
# _framework density 20.906274
#
# number of rings (size 3 to 8) (size 9 to 14) (size 15 to 20)
#    0.000    2.615    0.000    2.308    0.000    4.923 
#    0.000    1.154    0.000    2.769    0.000    3.231 
#    0.000    0.000    0.000    0.000    0.000    0.000 
#
# Total GULP energy -289781.800667 kJ/mol
# GULP energy per Si atom -5572.726936 kJ/mol
# Density = 2.085869 g / cm^3
# Si number density = 20.906274 Si / 1000 Ang^3
#
#
#
# Elastic Constant Matrix: (Units=GPa)
#
#
# Indices 1 2 3 4 5 6 
#
# 1 128.5579 6.1344 100.7619 0.0000 0.0000 0.0000
# 2 6.1344 21.0203 8.3494 0.0000 0.0000 0.0000
# 3 100.7619 8.3494 246.1319 0.0000 0.0000 0.0000
# 4 0.0000 0.0000 0.0000 4.1108 0.0000 0.0000
# 5 0.0000 0.0000 0.0000 0.0000 33.4265 0.0000
# 6 0.0000 0.0000 0.0000 0.0000 0.0000 16.0617
#
#
#
# Elastic Compliance Matrix: (Units=1/GPa)
#
#
# Indices 1 2 3 4 5 6 
#
# 1 0.011501 -0.001506 -0.004657 0.000000 0.000000 0.000000
# 2 -0.001506 0.048420 -0.001026 0.000000 0.000000 0.000000
# 3 -0.004657 -0.001026 0.006004 0.000000 0.000000 0.000000
# 4 0.000000 0.000000 0.000000 0.243264 0.000000 0.000000
# 5 0.000000 0.000000 0.000000 0.000000 0.029916 0.000000
# 6 0.000000 0.000000 0.000000 0.000000 0.000000 0.062260
#
#
# Mechanical properties :
#
#
# Convention : Reuss Voigt Hill
#
# Bulk Modulus (GPa) = 19.40002 69.57796 44.48899
# Shear Modulus (GPa) = 11.54932 29.41741 20.48337
#
# Velocity S-wave (km/s) = 2.35294 3.75521 3.13353
# Velocity P-wave (km/s) = 4.08429 7.22186 5.86672
#
# Compressibility (1/GPa) = 0.05154633
#
# Stress axis : x y z
#
# Youngs Moduli (GPa) = 86.95196 20.65254 166.55101
#
# Poissons Ratio (x) = 0.03111 0.77563
# Poissons Ratio (y) = 0.13099 0.17085
# Poissons Ratio (z) = 0.40494 0.02119
#
# Static dielectric constant tensor:
#      x y z
#    x 1.726350 0.000000 0.000000 
#    y 0.000000 1.779050 0.000000 
#    z 0.000000 0.000000 1.800380 
# 
# From -- ./inp_files/76923.got.cif
#   From: 2010.05.17/outbox.cif.g08.bks.cpg/sg65_39_cif.got.tgz:76923.got - 2010.06.03 17:01:31.
