data_PCOD9485768
_publ_section_title
;
Structure prediction by ZEFSAII (Michael W. Deem and Ramdas Pophale) SiO2 
 PCOD9485768
Probable space group: C M M M
;
_chemical_formula_sum "Si O2"
_cell_formula_units_Z 96
_cell_length_a 28.056297
_cell_length_b 17.530932
_cell_length_c 11.929357
_cell_angle_alpha 90.000000
_cell_angle_beta 90.000000
_cell_angle_gamma 90.000000
_cell_volume 5867.490445
_symmetry_space_group_name_H-M "C M M M"
_symmetry_group_IT_number 65
_symmetry_cell_setting 'orthorhombic'
loop_
_space_group_symop_operation_xyz
x,y,z
-x,-y,z
x,-y,-z
-x,y,-z
-x,-y,-z
x,y,-z
-x,y,z
x,-y,z
1/2+x,1/2+y,z
1/2-x,1/2-y,z
1/2+x,1/2-y,-z
1/2-x,1/2+y,-z
1/2-x,1/2-y,-z
1/2+x,1/2+y,-z
1/2-x,1/2+y,z
1/2+x,1/2-y,z
loop_
_atom_site_type_symbol
_atom_site_label
_atom_site_fract_x
_atom_site_fract_y
_atom_site_fract_z
Si Si1 0.553207 0.275869 0.631911
Si Si2 0.189106 0.130862 0.367920
Si Si3 0.152028 0.698424 0.368519
Si Si4 0.254661 0.659112 0.000000
Si Si5 0.639923 0.590683 0.000000
Si Si6 0.094802 0.086475 0.760984
Si Si7 0.783121 0.589723 0.769444
O O1 0.558607 0.296947 0.500000
O O2 0.500000 0.244730 0.647652
O O3 0.596979 0.219168 0.655871
O O4 0.560775 0.350871 0.706525
O O5 0.190127 0.115106 0.500000
O O6 0.180860 0.221938 0.353184
O O7 0.143717 0.091727 0.310322
O O8 0.236950 0.103983 0.308709
O O9 0.156380 0.677218 0.500000
O O10 0.173966 0.635251 0.288564
O O11 0.250000 0.750000 0.000000
O O12 0.310368 0.635449 0.000000
O O13 0.230257 0.624428 0.110261
O O14 0.609879 0.606093 0.887988
O O15 0.651584 0.500000 0.000000
O O16 0.076364 0.000000 0.757469
O O17 0.792264 0.500000 0.778260
#
# Coordination Sequence:
#
# PCOD9485768 Si02
#       7
#    16  16  16   8   8  16  16
#     4   9  19  36  57  78 102 134 174 223 272 319
#     4  10  19  31  49  74 106 143 178 209 250 310
#     4   9  19  35  53  75 105 137 175 217 262 314
#     4  12  24  36  54  74 103 148 190 216 247 299
#     4  10  20  36  51  71 107 148 180 213 254 304
#     4  10  19  31  50  74 106 142 176 216 262 311
#     4  12  23  34  50  76 109 140 175 218 260 305
#
# _framework density 16.361339999999998
#
# number of rings (size 3 to 8) (size 9 to 14) (size 15 to 20)
#    0.000    1.833    1.667    4.750    2.333    5.000 
#    0.000    1.250    0.000    2.000    0.000    2.333 
#    0.000    1.333    0.000    0.000    0.000    0.000 
#
# Total GULP energy -268005.997705 kJ/mol
# GULP energy per Si atom -5583.458286 kJ/mol
# Density = 1.632410 g / cm^3
# Si number density = 16.361340 Si / 1000 Ang^3
#
#
#
# Elastic Constant Matrix: (Units=GPa)
#
#
# Indices 1 2 3 4 5 6 
#
# 1 58.5910 22.7118 20.9615 0.0000 0.0000 0.0000
# 2 22.7118 74.2465 42.4021 0.0000 0.0000 0.0000
# 3 20.9615 42.4021 97.4095 0.0000 0.0000 0.0000
# 4 0.0000 0.0000 0.0000 76.3574 0.0000 0.0000
# 5 0.0000 0.0000 0.0000 0.0000 -18.3432 0.0000
# 6 0.0000 0.0000 0.0000 0.0000 0.0000 5.7026
#
#
#
# Elastic Compliance Matrix: (Units=1/GPa)
#
#
# Indices 1 2 3 4 5 6 
#
# 1 0.019696 -0.004797 -0.002150 0.000000 0.000000 0.000000
# 2 -0.004797 0.019093 -0.007279 0.000000 0.000000 0.000000
# 3 -0.002150 -0.007279 0.013897 0.000000 0.000000 0.000000
# 4 0.000000 0.000000 0.000000 0.013096 0.000000 0.000000
# 5 0.000000 0.000000 0.000000 0.000000 -0.054516 0.000000
# 6 0.000000 0.000000 0.000000 0.000000 0.000000 0.175358
#
#
# Mechanical properties :
#
#
# Convention : Reuss Voigt Hill
#
# Bulk Modulus (GPa) = 41.26427 44.71086 42.98756
# Shear Modulus (GPa) = 22.40592 22.35480 22.38036
#
# Velocity S-wave (km/s) = 3.70461 3.70038 3.70250
# Velocity P-wave (km/s) = 6.60108 6.75600 6.67899
#
# Compressibility (1/GPa) = 0.02423404
#
# Stress axis : x y z
#
# Youngs Moduli (GPa) = 50.77115 52.37536 71.95737
#
# Poissons Ratio (x) = 0.25124 0.15473
# Poissons Ratio (y) = 0.24355 0.52377
# Poissons Ratio (z) = 0.10917 0.38123
#
# Static dielectric constant tensor:
#      x y z
#    x 1.547760 0.000000 0.000000 
#    y 0.000000 1.542970 0.000000 
#    z 0.000000 0.000000 1.548350 
# 
# From -- ./inp_files/32479.got.cif
#   From: 2010.05.17/outbox.cif.g08.bks.cpg/sg65_17_cif.got.tgz:32479.got - 2010.06.03 17:01:31.
