data_PCOD9485343
_publ_section_title
;
Structure prediction by ZEFSAII (Michael W. Deem and Ramdas Pophale) SiO2 
 PCOD9485343
Probable space group: C M M M
;
_chemical_formula_sum "Si O2"
_cell_formula_units_Z 72
_cell_length_a 7.555069
_cell_length_b 14.493385
_cell_length_c 28.914905
_cell_angle_alpha 90.000000
_cell_angle_beta 90.000000
_cell_angle_gamma 90.000000
_cell_volume 3166.139411
_symmetry_space_group_name_H-M "C M M M"
_symmetry_group_IT_number 65
_symmetry_cell_setting 'orthorhombic'
loop_
_space_group_symop_operation_xyz
x,y,z
-x,-y,z
x,-y,-z
-x,y,-z
-x,-y,-z
x,y,-z
-x,y,z
x,-y,z
1/2+x,1/2+y,z
1/2-x,1/2-y,z
1/2+x,1/2-y,-z
1/2-x,1/2+y,-z
1/2-x,1/2-y,-z
1/2+x,1/2+y,-z
1/2-x,1/2+y,z
1/2+x,1/2-y,z
loop_
_atom_site_type_symbol
_atom_site_label
_atom_site_fract_x
_atom_site_fract_y
_atom_site_fract_z
Si Si1 0.711331 0.356617 0.000000
Si Si2 0.500000 0.886749 0.727847
Si Si3 0.794032 0.887626 0.201074
Si Si4 0.500000 0.886884 0.622230
Si Si5 0.699420 0.608803 0.899112
Si Si6 0.797254 0.112444 0.448386
O O1 0.750000 0.250000 0.000000
O O2 0.784205 0.384559 0.050250
O O3 0.500000 0.382156 0.000000
O O4 0.329993 0.856432 0.757468
O O5 0.500000 0.854919 0.675024
O O6 0.500000 0.000000 0.726796
O O7 0.724682 0.858433 0.149910
O O8 0.000000 0.861140 0.204958
O O9 0.789141 0.000000 0.202848
O O10 0.669651 0.857542 0.592448
O O11 0.500000 0.000000 0.623233
O O12 0.500000 0.649905 0.903040
O O13 0.680751 0.500000 0.892401
O O14 0.736058 0.139513 0.500000
O O15 0.000000 0.141807 0.442373
O O16 0.796620 0.000000 0.448029
#
# Coordination Sequence:
#
# PCOD9485343 Si02
#       6
#     8   8  16   8  16  16
#     4  10  19  31  45  65  93 112 130 166 214 262
#     4   9  16  23  32  50  72  91 114 155 205 247
#     4   8  14  25  39  54  71  92 123 160 195 235
#     4   9  15  20  27  40  59  82 107 141 197 249
#     4   8  14  27  48  65  77 106 146 173 197 244
#     4   8  13  20  28  37  51  76 113 152 187 230
#
# _framework density 22.740628999999998
#
# number of rings (size 3 to 8) (size 9 to 14) (size 15 to 20)
#    0.000    3.556    0.000    2.667    0.000    3.556 
#    2.000    4.444    0.000    0.667    0.000    0.000 
#    0.000    0.000    0.000    0.000    0.000    0.000 
#
# Total GULP energy -200639.829633 kJ/mol
# GULP energy per Si atom -5573.328601 kJ/mol
# Density = 2.268887 g / cm^3
# Si number density = 22.740629 Si / 1000 Ang^3
#
#
#
# Elastic Constant Matrix: (Units=GPa)
#
#
# Indices 1 2 3 4 5 6 
#
# 1 107.3101 -0.2731 115.1109 0.0000 0.0000 0.0000
# 2 -0.2731 50.5719 3.7588 0.0000 0.0000 0.0000
# 3 115.1109 3.7588 299.8028 0.0000 0.0000 0.0000
# 4 0.0000 0.0000 0.0000 -43.4181 0.0000 0.0000
# 5 0.0000 0.0000 0.0000 0.0000 154.9665 0.0000
# 6 0.0000 0.0000 0.0000 0.0000 0.0000 2.8196
#
#
#
# Elastic Compliance Matrix: (Units=1/GPa)
#
#
# Indices 1 2 3 4 5 6 
#
# 1 0.015859 0.000539 -0.006096 0.000000 0.000000 0.000000
# 2 0.000539 0.019811 -0.000455 0.000000 0.000000 0.000000
# 3 -0.006096 -0.000455 0.005682 0.000000 0.000000 0.000000
# 4 0.000000 0.000000 0.000000 -0.023032 0.000000 0.000000
# 5 0.000000 0.000000 0.000000 0.000000 0.006453 0.000000
# 6 0.000000 0.000000 0.000000 0.000000 0.000000 0.354662
#
#
# Mechanical properties :
#
#
# Convention : Reuss Voigt Hill
#
# Bulk Modulus (GPa) = 34.09862 77.20865 55.65363
# Shear Modulus (GPa) = 12.46152 45.47949 28.97050
#
# Velocity S-wave (km/s) = 2.34345 4.47690 3.57312
# Velocity P-wave (km/s) = 4.72752 7.79417 6.44587
#
# Compressibility (1/GPa) = 0.02932670
#
# Stress axis : x y z
#
# Youngs Moduli (GPa) = 63.05440 50.47811 175.99947
#
# Poissons Ratio (x) = -0.02719 1.07290
# Poissons Ratio (y) = -0.03397 0.08012
# Poissons Ratio (z) = 0.38438 0.02298
#
# Static dielectric constant tensor:
#      x y z
#    x 1.873980 0.000000 0.000000 
#    y 0.000000 1.860430 0.000000 
#    z 0.000000 0.000000 1.870730 
# 
# From -- ./inp_files/67143.got.cif
#   From: 2010.05.17/outbox.cif.g08.bks.cpg/sg65_34_cif.got.tgz:67143.got - 2010.06.03 17:01:31.
