data_PCOD9485360
_publ_section_title
;
Structure prediction by ZEFSAII (Michael W. Deem and Ramdas Pophale) SiO2 
 PCOD9485360
Probable space group: C M M M
;
_chemical_formula_sum "Si O2"
_cell_formula_units_Z 80
_cell_length_a 26.875742
_cell_length_b 23.995927
_cell_length_c 8.859014
_cell_angle_alpha 90.000000
_cell_angle_beta 90.000000
_cell_angle_gamma 90.000000
_cell_volume 5713.252040
_symmetry_space_group_name_H-M "C M M M"
_symmetry_group_IT_number 65
_symmetry_cell_setting 'orthorhombic'
loop_
_space_group_symop_operation_xyz
x,y,z
-x,-y,z
x,-y,-z
-x,y,-z
-x,-y,-z
x,y,-z
-x,y,z
x,-y,z
1/2+x,1/2+y,z
1/2-x,1/2-y,z
1/2+x,1/2-y,-z
1/2-x,1/2+y,-z
1/2-x,1/2-y,-z
1/2+x,1/2+y,-z
1/2-x,1/2+y,z
1/2+x,1/2-y,z
loop_
_atom_site_type_symbol
_atom_site_label
_atom_site_fract_x
_atom_site_fract_y
_atom_site_fract_z
Si Si1 0.442263 0.882645 0.681254
Si Si2 0.109896 0.500000 0.319575
Si Si3 0.701266 0.709962 0.826368
Si Si4 0.239154 0.383518 0.679117
Si Si5 0.280453 0.000000 0.820231
Si Si6 0.646082 0.183458 0.818748
O O1 0.438379 0.875228 0.500000
O O2 0.500000 0.878233 0.723730
O O3 0.421271 0.944463 0.714963
O O4 0.406597 0.838917 0.763301
O O5 0.120521 0.500000 0.500000
O O6 0.161840 0.500000 0.232224
O O7 0.750000 0.750000 0.825580
O O8 0.715927 0.657467 0.725944
O O9 0.657861 0.752243 0.777529
O O10 0.693404 0.692361 0.000000
O O11 0.234862 0.387990 0.500000
O O12 0.243320 0.444044 0.752982
O O13 0.188754 0.355010 0.743902
O O14 0.277716 0.000000 0.000000
O O15 0.651007 0.179127 0.000000
#
# Coordination Sequence:
#
# PCOD9485360 Si02
#       6
#    16   8  16  16   8  16
#     4  10  20  32  46  63  85 114 149 191 233 266
#     4  10  19  32  46  60  81 113 150 189 229 265
#     4   8  16  30  45  62  84 109 138 173 216 262
#     4  11  20  30  45  65  86 110 142 179 218 260
#     4  12  22  31  45  63  87 117 147 181 220 260
#     4  10  19  31  46  63  85 112 142 181 222 262
#
# _framework density 14.002533
#
# number of rings (size 3 to 8) (size 9 to 14) (size 15 to 20)
#    0.000    2.000    2.000    4.800    0.000    6.000 
#    0.000    0.000    0.000    1.800    0.000    0.000 
#    0.000    0.000    0.000    0.900    0.000   16.800 
#
# Total GULP energy -223116.068786 kJ/mol
# GULP energy per Si atom -5577.901720 kJ/mol
# Density = 1.397066 g / cm^3
# Si number density = 14.002533 Si / 1000 Ang^3
#
#
#
# Elastic Constant Matrix: (Units=GPa)
#
#
# Indices 1 2 3 4 5 6 
#
# 1 63.3410 57.4800 35.9671 0.0000 0.0000 0.0000
# 2 57.4800 112.2933 60.6850 0.0000 0.0000 0.0000
# 3 35.9671 60.6850 74.3722 0.0000 0.0000 0.0000
# 4 0.0000 0.0000 0.0000 8.5999 0.0000 0.0000
# 5 0.0000 0.0000 0.0000 0.0000 15.6278 0.0000
# 6 0.0000 0.0000 0.0000 0.0000 0.0000 14.6930
#
#
#
# Elastic Compliance Matrix: (Units=1/GPa)
#
#
# Indices 1 2 3 4 5 6 
#
# 1 0.029994 -0.013441 -0.003538 0.000000 0.000000 0.000000
# 2 -0.013441 0.021953 -0.011413 0.000000 0.000000 0.000000
# 3 -0.003538 -0.011413 0.024469 0.000000 0.000000 0.000000
# 4 0.000000 0.000000 0.000000 0.116280 0.000000 0.000000
# 5 0.000000 0.000000 0.000000 0.000000 0.063989 0.000000
# 6 0.000000 0.000000 0.000000 0.000000 0.000000 0.068060
#
#
# Mechanical properties :
#
#
# Convention : Reuss Voigt Hill
#
# Bulk Modulus (GPa) = 50.93514 62.03010 56.48262
# Shear Modulus (GPa) = 12.88421 14.17575 13.52998
#
# Velocity S-wave (km/s) = 3.03666 3.18523 3.11183
# Velocity P-wave (km/s) = 6.98210 7.61071 7.30317
#
# Compressibility (1/GPa) = 0.01963281
#
# Stress axis : x y z
#
# Youngs Moduli (GPa) = 33.34008 45.55190 40.86802
#
# Poissons Ratio (x) = 0.61227 0.14458
# Poissons Ratio (y) = 0.44813 0.46641
# Poissons Ratio (z) = 0.11795 0.51986
#
# Static dielectric constant tensor:
#      x y z
#    x 1.444860 0.000000 0.000000 
#    y 0.000000 1.468950 0.000000 
#    z 0.000000 0.000000 1.468740 
# 
# From -- ./inp_files/12130.got.cif
#   From: 2010.05.17/outbox.cif.g08.bks.cpg/sg65_7_cif.got.tgz:12130.got - 2010.06.03 17:01:31.
