data_PCOD9485061
_publ_section_title
;
Structure prediction by ZEFSAII (Michael W. Deem and Ramdas Pophale) SiO2 
 PCOD9485061
Probable space group: C M M M
;
_chemical_formula_sum "Si O2"
_cell_formula_units_Z 88
_cell_length_a 8.528992
_cell_length_b 25.772214
_cell_length_c 23.610317
_cell_angle_alpha 90.000000
_cell_angle_beta 90.000000
_cell_angle_gamma 90.000000
_cell_volume 5189.807556
_symmetry_space_group_name_H-M "C M M M"
_symmetry_group_IT_number 65
_symmetry_cell_setting 'orthorhombic'
loop_
_space_group_symop_operation_xyz
x,y,z
-x,-y,z
x,-y,-z
-x,y,-z
-x,-y,-z
x,y,-z
-x,y,z
x,-y,z
1/2+x,1/2+y,z
1/2-x,1/2-y,z
1/2+x,1/2-y,-z
1/2-x,1/2+y,-z
1/2-x,1/2-y,-z
1/2+x,1/2+y,-z
1/2-x,1/2+y,z
1/2+x,1/2-y,z
loop_
_atom_site_type_symbol
_atom_site_label
_atom_site_fract_x
_atom_site_fract_y
_atom_site_fract_z
Si Si1 0.188826 0.886408 0.407468
Si Si2 0.686148 0.885552 0.279554
Si Si3 0.313532 0.191637 0.500000
Si Si4 0.312040 0.308786 0.815051
Si Si5 0.183554 0.000000 0.586232
Si Si6 0.813959 0.500000 0.710399
Si Si7 0.689389 0.309187 0.060831
O O1 0.241493 0.880406 0.342348
O O2 0.253372 0.840502 0.445822
O O3 0.000000 0.886668 0.409945
O O4 0.246472 0.943171 0.430160
O O5 0.500000 0.878484 0.284473
O O6 0.752566 0.844858 0.235180
O O7 0.715847 0.945159 0.259947
O O8 0.500000 0.192844 0.500000
O O9 0.250000 0.250000 0.500000
O O10 0.500000 0.307142 0.813731
O O11 0.250000 0.250000 0.809055
O O12 0.261005 0.329753 0.877487
O O13 0.209118 0.000000 0.653995
O O14 0.000000 0.000000 0.571513
O O15 0.000000 0.500000 0.693803
O O16 0.500000 0.308813 0.060791
O O17 0.750000 0.250000 0.060494
O O18 0.740430 0.332654 0.000000
#
# Coordination Sequence:
#
# PCOD9485061 Si02
#       7
#    16  16   8  16   8   8  16
#     4  10  20  37  58  80 103 129 160 198 242 288
#     4  10  19  33  52  75 101 129 161 200 244 288
#     4  12  26  43  58  75  99 132 170 204 239 286
#     4  10  19  30  45  69  99 130 163 199 240 289
#     4   8  16  31  55  82 105 125 151 191 240 288
#     4   8  16  30  49  71  97 127 159 196 240 287
#     4   8  14  25  41  61  88 122 158 196 238 283
#
# _framework density 16.956312
#
# number of rings (size 3 to 8) (size 9 to 14) (size 15 to 20)
#    0.000    2.545    0.000    2.455    0.000    3.273 
#    0.000    5.455    0.000    0.000    0.000    0.636 
#    0.000    5.091    0.000    0.000    0.000    0.000 
#
# Total GULP energy -244996.249833 kJ/mol
# GULP energy per Si atom -5568.096587 kJ/mol
# Density = 1.691772 g / cm^3
# Si number density = 16.956312 Si / 1000 Ang^3
#
#
#
# Elastic Constant Matrix: (Units=GPa)
#
#
# Indices 1 2 3 4 5 6 
#
# 1 54.8820 39.4482 35.1444 0.0000 0.0000 0.0000
# 2 39.4482 130.2108 80.1648 0.0000 0.0000 0.0000
# 3 35.1444 80.1648 131.0739 0.0000 0.0000 0.0000
# 4 0.0000 0.0000 0.0000 -19.5653 0.0000 0.0000
# 5 0.0000 0.0000 0.0000 0.0000 17.1954 0.0000
# 6 0.0000 0.0000 0.0000 0.0000 0.0000 19.5471
#
#
#
# Elastic Compliance Matrix: (Units=1/GPa)
#
#
# Indices 1 2 3 4 5 6 
#
# 1 0.024103 -0.005331 -0.003203 0.000000 0.000000 0.000000
# 2 -0.005331 0.013497 -0.006825 0.000000 0.000000 0.000000
# 3 -0.003203 -0.006825 0.012662 0.000000 0.000000 0.000000
# 4 0.000000 0.000000 0.000000 -0.051111 0.000000 0.000000
# 5 0.000000 0.000000 0.000000 0.000000 0.058155 0.000000
# 6 0.000000 0.000000 0.000000 0.000000 0.000000 0.051158
#
#
# Mechanical properties :
#
#
# Convention : Reuss Voigt Hill
#
# Bulk Modulus (GPa) = 51.16288 69.52020 60.34154
# Shear Modulus (GPa) = 34.31772 14.19606 24.25689
#
# Velocity S-wave (km/s) = 4.50365 2.89660 3.78637
# Velocity P-wave (km/s) = 7.56853 7.23019 7.40130
#
# Compressibility (1/GPa) = 0.01954542
#
# Stress axis : x y z
#
# Youngs Moduli (GPa) = 41.48824 74.09111 78.97388
#
# Poissons Ratio (x) = 0.39495 0.25292
# Poissons Ratio (y) = 0.22116 0.53903
# Poissons Ratio (z) = 0.13287 0.50570
#
# Static dielectric constant tensor:
#      x y z
#    x 1.583660 0.000000 0.000000 
#    y 0.000000 1.566750 0.000000 
#    z 0.000000 0.000000 1.598360 
# 
# From -- ./inp_files/67675.got.cif
#   From: 2010.05.17/outbox.cif.g08.bks.cpg/sg65_34_cif.got.tgz:67675.got - 2010.06.03 17:01:31.
