data_PCOD9485358
_publ_section_title
;
Structure prediction by ZEFSAII (Michael W. Deem and Ramdas Pophale) SiO2 
 PCOD9485358
Probable space group: C M M M
;
_chemical_formula_sum "Si O2"
_cell_formula_units_Z 80
_cell_length_a 19.987375
_cell_length_b 7.883760
_cell_length_c 27.155434
_cell_angle_alpha 90.000000
_cell_angle_beta 90.000000
_cell_angle_gamma 90.000000
_cell_volume 4279.035640
_symmetry_space_group_name_H-M "C M M M"
_symmetry_group_IT_number 65
_symmetry_cell_setting 'orthorhombic'
loop_
_space_group_symop_operation_xyz
x,y,z
-x,-y,z
x,-y,-z
-x,y,-z
-x,-y,-z
x,y,-z
-x,y,z
x,-y,z
1/2+x,1/2+y,z
1/2-x,1/2-y,z
1/2+x,1/2-y,-z
1/2-x,1/2+y,-z
1/2-x,1/2-y,-z
1/2+x,1/2+y,-z
1/2-x,1/2+y,z
1/2+x,1/2-y,z
loop_
_atom_site_type_symbol
_atom_site_label
_atom_site_fract_x
_atom_site_fract_y
_atom_site_fract_z
Si Si1 0.327332 0.798556 0.858443
Si Si2 0.672550 0.701276 0.252383
Si Si3 0.422137 0.708241 0.660556
Si Si4 0.577171 0.792669 0.944599
Si Si5 0.580737 0.297332 0.447123
O O1 0.250000 0.750000 0.865411
O O2 0.347702 0.749439 0.803086
O O3 0.374504 0.729121 0.901600
O O4 0.330955 0.000000 0.860934
O O5 0.669176 0.500000 0.255259
O O6 0.750000 0.750000 0.259473
O O7 0.624243 0.769674 0.295019
O O8 0.500000 0.756879 0.666993
O O9 0.421338 0.500000 0.659844
O O10 0.397153 0.766600 0.606430
O O11 0.500000 0.742765 0.936454
O O12 0.578372 0.000000 0.944177
O O13 0.597009 0.740237 0.000000
O O14 0.605025 0.227616 0.500000
O O15 0.500000 0.278006 0.446717
O O16 0.593623 0.500000 0.447793
#
# Coordination Sequence:
#
# PCOD9485358 Si02
#       5
#    16  16  16  16  16
#     4  10  19  31  48  68  89 114 146 182 215 251
#     4  10  19  31  46  62  86 119 148 177 214 257
#     4   8  14  24  39  61  85 109 141 179 218 257
#     4   8  15  29  48  69  92 117 144 174 211 255
#     4   7   9  15  30  53  80 106 132 168 213 255
#
# _framework density 18.695799999999998
#
# number of rings (size 3 to 8) (size 9 to 14) (size 15 to 20)
#    0.000    3.400    0.000    4.800    0.000    1.200 
#    0.000    0.000    0.000    6.000    0.000    5.600 
#    0.000    2.400    0.000   20.000    0.000   16.800 
#
# Total GULP energy -222675.015866 kJ/mol
# GULP energy per Si atom -5566.875397 kJ/mol
# Density = 1.865325 g / cm^3
# Si number density = 18.695800 Si / 1000 Ang^3
#
#
#
# Elastic Constant Matrix: (Units=GPa)
#
#
# Indices 1 2 3 4 5 6 
#
# 1 64.3634 4.3483 109.6397 0.0000 0.0000 0.0000
# 2 4.3483 23.0890 11.1129 0.0000 0.0000 0.0000
# 3 109.6397 11.1129 242.9279 0.0000 0.0000 0.0000
# 4 0.0000 0.0000 0.0000 3.1062 0.0000 0.0000
# 5 0.0000 0.0000 0.0000 0.0000 0.7042 0.0000
# 6 0.0000 0.0000 0.0000 0.0000 0.0000 4.3334
#
#
#
# Elastic Compliance Matrix: (Units=1/GPa)
#
#
# Indices 1 2 3 4 5 6 
#
# 1 0.067293 0.001988 -0.030462 0.000000 0.000000 0.000000
# 2 0.001988 0.044344 -0.002926 0.000000 0.000000 0.000000
# 3 -0.030462 -0.002926 0.017999 0.000000 0.000000 0.000000
# 4 0.000000 0.000000 0.000000 0.321941 0.000000 0.000000
# 5 0.000000 0.000000 0.000000 0.000000 1.420097 0.000000
# 6 0.000000 0.000000 0.000000 0.000000 0.000000 0.230765
#
#
# Mechanical properties :
#
#
# Convention : Reuss Voigt Hill
#
# Bulk Modulus (GPa) = 14.96182 64.50912 39.73547
# Shear Modulus (GPa) = 2.28570 15.31404 8.79987
#
# Velocity S-wave (km/s) = 1.10690 2.86513 2.17189
# Velocity P-wave (km/s) = 3.10705 6.74721 5.25255
#
# Compressibility (1/GPa) = 0.06683677
#
# Stress axis : x y z
#
# Youngs Moduli (GPa) = 14.86040 22.55073 55.55985
#
# Poissons Ratio (x) = -0.04484 1.69247
# Poissons Ratio (y) = -0.02955 0.16257
# Poissons Ratio (z) = 0.45268 0.06598
#
# Static dielectric constant tensor:
#      x y z
#    x 1.626940 0.000000 0.000000 
#    y 0.000000 1.674900 0.000000 
#    z 0.000000 0.000000 1.708670 
# 
# From -- ./inp_files/77766.got.cif
#   From: 2010.05.17/outbox.cif.g08.bks.cpg/sg65_39_cif.got.tgz:77766.got - 2010.06.03 17:01:31.
