data_PCOD9485811
_publ_section_title
;
Structure prediction by ZEFSAII (Michael W. Deem and Ramdas Pophale) SiO2 
 PCOD9485811
Probable space group: C M M M
;
_chemical_formula_sum "Si O2"
_cell_formula_units_Z 120
_cell_length_a 22.263498
_cell_length_b 13.874875
_cell_length_c 20.016516
_cell_angle_alpha 90.000000
_cell_angle_beta 90.000000
_cell_angle_gamma 90.000000
_cell_volume 6183.166882
_symmetry_space_group_name_H-M "C M M M"
_symmetry_group_IT_number 65
_symmetry_cell_setting 'orthorhombic'
loop_
_space_group_symop_operation_xyz
x,y,z
-x,-y,z
x,-y,-z
-x,y,-z
-x,-y,-z
x,y,-z
-x,y,z
x,-y,z
1/2+x,1/2+y,z
1/2-x,1/2-y,z
1/2+x,1/2-y,-z
1/2-x,1/2+y,-z
1/2-x,1/2-y,-z
1/2+x,1/2+y,-z
1/2-x,1/2+y,z
1/2+x,1/2-y,z
loop_
_atom_site_type_symbol
_atom_site_label
_atom_site_fract_x
_atom_site_fract_y
_atom_site_fract_z
Si Si1 0.430630 0.716224 0.795476
Si Si2 0.633652 0.888815 0.725364
Si Si3 0.184269 0.759411 0.372217
Si Si4 0.725956 0.110629 0.850329
Si Si5 0.176993 0.110286 0.751334
Si Si6 0.565860 0.000000 0.919939
Si Si7 0.627961 0.797520 0.077861
Si Si8 0.930675 0.887857 0.419461
O O1 0.500000 0.697642 0.796553
O O2 0.415395 0.814169 0.754342
O O3 0.392733 0.633210 0.759681
O O4 0.405123 0.728263 0.870499
O O5 0.659806 0.841841 0.657495
O O6 0.684393 0.886462 0.783562
O O7 0.614872 0.000000 0.717724
O O8 0.250000 0.750000 0.408273
O O9 0.200275 0.822807 0.307064
O O10 0.125944 0.817838 0.401360
O O11 0.790445 0.135990 0.820636
O O12 0.696705 0.180628 0.903937
O O13 0.727178 0.000000 0.875041
O O14 0.190024 0.000000 0.737166
O O15 0.599297 0.097809 0.904305
O O16 0.500000 0.000000 0.889086
O O17 0.560766 0.000000 0.000000
O O18 0.618945 0.775882 0.000000
O O19 0.932818 0.888344 0.500000
O O20 0.000000 0.861491 0.397069
O O21 0.919349 0.000000 0.398065
#
# Coordination Sequence:
#
# PCOD9485811 Si02
#       8
#    16  16  16  16  16   8  16  16
#     4  10  22  35  50  74 104 139 182 230 282 340
#     4   9  19  33  50  75 111 151 181 216 276 339
#     4  11  20  32  59  92 121 150 192 240 286 337
#     4   9  16  31  52  72 100 135 172 215 273 333
#     4  10  21  37  57  79 106 142 181 227 282 332
#     4   9  16  26  42  68  98 130 165 205 260 321
#     4  10  19  31  50  73  99 132 172 223 275 333
#     4   9  20  40  63  88 122 162 202 246 291 328
#
# _framework density 19.407529
#
# number of rings (size 3 to 8) (size 9 to 14) (size 15 to 20)
#    0.000    2.333    2.000    1.200    0.933    4.267 
#    0.000    1.333    0.000    1.600    0.000    1.867 
#    0.000    0.000    0.000    0.000    0.000    0.000 
#
# Total GULP energy -334303.902510 kJ/mol
# GULP energy per Si atom -5571.731708 kJ/mol
# Density = 1.936336 g / cm^3
# Si number density = 19.407529 Si / 1000 Ang^3
#
#
#
# Elastic Constant Matrix: (Units=GPa)
#
#
# Indices 1 2 3 4 5 6 
#
# 1 130.9673 14.3707 13.9627 0.0000 0.0000 0.0000
# 2 14.3707 48.1788 5.1618 0.0000 0.0000 0.0000
# 3 13.9627 5.1618 31.5231 0.0000 0.0000 0.0000
# 4 0.0000 0.0000 0.0000 17.2814 0.0000 0.0000
# 5 0.0000 0.0000 0.0000 0.0000 19.3358 0.0000
# 6 0.0000 0.0000 0.0000 0.0000 0.0000 15.1808
#
#
#
# Elastic Compliance Matrix: (Units=1/GPa)
#
#
# Indices 1 2 3 4 5 6 
#
# 1 0.008217 -0.002098 -0.003296 0.000000 0.000000 0.000000
# 2 -0.002098 0.021662 -0.002618 0.000000 0.000000 0.000000
# 3 -0.003296 -0.002618 0.033611 0.000000 0.000000 0.000000
# 4 0.000000 0.000000 0.000000 0.057866 0.000000 0.000000
# 5 0.000000 0.000000 0.000000 0.000000 0.051717 0.000000
# 6 0.000000 0.000000 0.000000 0.000000 0.000000 0.065873
#
#
# Mechanical properties :
#
#
# Convention : Reuss Voigt Hill
#
# Bulk Modulus (GPa) = 21.06731 30.85108 25.95919
# Shear Modulus (GPa) = 18.46431 22.17120 20.31775
#
# Velocity S-wave (km/s) = 3.08782 3.38361 3.23909
# Velocity P-wave (km/s) = 4.85712 5.58534 5.23391
#
# Compressibility (1/GPa) = 0.04746690
#
# Stress axis : x y z
#
# Youngs Moduli (GPa) = 121.69753 46.16330 29.75182
#
# Poissons Ratio (x) = 0.09684 0.09807
# Poissons Ratio (y) = 0.25530 0.07789
# Poissons Ratio (z) = 0.40113 0.12085
#
# Static dielectric constant tensor:
#      x y z
#    x 1.767800 0.000000 0.000000 
#    y 0.000000 1.698980 0.000000 
#    z 0.000000 0.000000 1.685590 
# 
# From -- ./inp_files/64770.got.cif
#   From: 2010.05.17/outbox.cif.g08.bks.cpg/sg65_33_cif.got.tgz:64770.got - 2010.06.03 17:01:31.
