data_PCOD9485304
_publ_section_title
;
Structure prediction by ZEFSAII (Michael W. Deem and Ramdas Pophale) SiO2 
 PCOD9485304
Probable space group: C M M M
;
_chemical_formula_sum "Si O2"
_cell_formula_units_Z 112
_cell_length_a 17.679915
_cell_length_b 14.688479
_cell_length_c 24.028171
_cell_angle_alpha 90.000000
_cell_angle_beta 90.000000
_cell_angle_gamma 90.000000
_cell_volume 6239.901202
_symmetry_space_group_name_H-M "C M M M"
_symmetry_group_IT_number 65
_symmetry_cell_setting 'orthorhombic'
loop_
_space_group_symop_operation_xyz
x,y,z
-x,-y,z
x,-y,-z
-x,y,-z
-x,-y,-z
x,y,-z
-x,y,z
x,-y,z
1/2+x,1/2+y,z
1/2-x,1/2-y,z
1/2+x,1/2-y,-z
1/2-x,1/2+y,-z
1/2-x,1/2-y,-z
1/2+x,1/2+y,-z
1/2-x,1/2+y,z
1/2+x,1/2-y,z
loop_
_atom_site_type_symbol
_atom_site_label
_atom_site_fract_x
_atom_site_fract_y
_atom_site_fract_z
Si Si1 0.409124 0.397249 0.065434
Si Si2 0.588730 0.391846 0.632560
Si Si3 0.160358 0.235525 0.153878
Si Si4 0.857246 0.393217 0.768483
Si Si5 0.587254 0.894207 0.349918
Si Si6 0.840057 0.739102 0.436977
Si Si7 0.820674 0.893327 0.255513
O O1 0.500000 0.394972 0.070526
O O2 0.384237 0.500000 0.083249
O O3 0.374839 0.315879 0.101498
O O4 0.390682 0.387983 0.000000
O O5 0.500000 0.372100 0.643492
O O6 0.595799 0.500000 0.622514
O O7 0.619003 0.331866 0.581908
O O8 0.640811 0.368859 0.686041
O O9 0.250000 0.250000 0.144624
O O10 0.129847 0.331494 0.177381
O O11 0.148445 0.167678 0.205883
O O12 0.869261 0.500000 0.780142
O O13 0.905015 0.365434 0.714468
O O14 0.770075 0.381036 0.747739
O O15 0.500000 0.887537 0.366637
O O16 0.635755 0.835143 0.391791
O O17 0.611164 0.000000 0.351580
O O18 0.861897 0.714093 0.500000
O O19 0.750000 0.750000 0.435097
O O20 0.836367 0.000000 0.245939
#
# Coordination Sequence:
#
# PCOD9485304 Si02
#       7
#    16  16  16  16  16  16  16
#     4   9  19  36  56  78 106 141 180 221 265 311
#     4  10  21  36  55  80 108 136 167 208 262 321
#     4  10  19  30  50  79 109 140 176 216 259 305
#     4   9  18  32  50  75 108 142 173 207 252 310
#     4  10  21  37  57  79 103 133 170 214 262 306
#     4  11  24  39  55  75  99 132 175 217 258 311
#     4   9  17  30  49  75 107 139 170 207 254 310
#
# _framework density 17.949002
#
# number of rings (size 3 to 8) (size 9 to 14) (size 15 to 20)
#    0.000    2.286    0.000    3.000    0.000    6.571 
#    0.000    4.286    0.000    0.429    0.000    1.000 
#    0.000    0.000    0.000    0.000    0.000    0.000 
#
# Total GULP energy -312433.590260 kJ/mol
# GULP energy per Si atom -5579.171255 kJ/mol
# Density = 1.790815 g / cm^3
# Si number density = 17.949002 Si / 1000 Ang^3
#
#
#
# Elastic Constant Matrix: (Units=GPa)
#
#
# Indices 1 2 3 4 5 6 
#
# 1 30.8132 33.6618 29.6035 0.0000 0.0000 0.0000
# 2 33.6618 83.8326 61.1808 0.0000 0.0000 0.0000
# 3 29.6035 61.1808 94.6272 0.0000 0.0000 0.0000
# 4 0.0000 0.0000 0.0000 22.8610 0.0000 0.0000
# 5 0.0000 0.0000 0.0000 0.0000 9.0536 0.0000
# 6 0.0000 0.0000 0.0000 0.0000 0.0000 25.3482
#
#
#
# Elastic Compliance Matrix: (Units=1/GPa)
#
#
# Indices 1 2 3 4 5 6 
#
# 1 0.059563 -0.019535 -0.006003 0.000000 0.000000 0.000000
# 2 -0.019535 0.028993 -0.012634 0.000000 0.000000 0.000000
# 3 -0.006003 -0.012634 0.020614 0.000000 0.000000 0.000000
# 4 0.000000 0.000000 0.000000 0.043743 0.000000 0.000000
# 5 0.000000 0.000000 0.000000 0.000000 0.110453 0.000000
# 6 0.000000 0.000000 0.000000 0.000000 0.000000 0.039451
#
#
# Mechanical properties :
#
#
# Convention : Reuss Voigt Hill
#
# Bulk Modulus (GPa) = 30.46466 50.90723 40.68595
# Shear Modulus (GPa) = 12.81719 17.10769 14.96244
#
# Velocity S-wave (km/s) = 2.67514 3.09063 2.89036
# Velocity P-wave (km/s) = 5.15283 6.41558 5.81856
#
# Compressibility (1/GPa) = 0.03282492
#
# Stress axis : x y z
#
# Youngs Moduli (GPa) = 16.78906 34.49153 48.51066
#
# Poissons Ratio (x) = 0.67381 0.29122
# Poissons Ratio (y) = 0.32798 0.61286
# Poissons Ratio (z) = 0.10079 0.43575
#
# Static dielectric constant tensor:
#      x y z
#    x 1.618380 0.000000 0.000000 
#    y 0.000000 1.640640 0.000000 
#    z 0.000000 0.000000 1.592320 
# 
# From -- ./inp_files/69957.got.cif
#   From: 2010.05.17/outbox.cif.g08.bks.cpg/sg65_35_cif.got.tgz:69957.got - 2010.06.03 17:01:31.
