data_PCOD9485793
_publ_section_title
;
Structure prediction by ZEFSAII (Michael W. Deem and Ramdas Pophale) SiO2 
 PCOD9485793
Probable space group: C M M M
;
_chemical_formula_sum "Si O2"
_cell_formula_units_Z 80
_cell_length_a 23.630683
_cell_length_b 11.952056
_cell_length_c 12.734451
_cell_angle_alpha 90.000000
_cell_angle_beta 90.000000
_cell_angle_gamma 90.000000
_cell_volume 3596.657808
_symmetry_space_group_name_H-M "C M M M"
_symmetry_group_IT_number 65
_symmetry_cell_setting 'orthorhombic'
loop_
_space_group_symop_operation_xyz
x,y,z
-x,-y,z
x,-y,-z
-x,y,-z
-x,-y,-z
x,y,-z
-x,y,z
x,-y,z
1/2+x,1/2+y,z
1/2-x,1/2-y,z
1/2+x,1/2-y,-z
1/2-x,1/2+y,-z
1/2-x,1/2-y,-z
1/2+x,1/2+y,-z
1/2-x,1/2+y,z
1/2+x,1/2-y,z
loop_
_atom_site_type_symbol
_atom_site_label
_atom_site_fract_x
_atom_site_fract_y
_atom_site_fract_z
Si Si1 0.711844 0.876357 0.381138
Si Si2 0.500000 0.200403 0.887393
Si Si3 0.594494 0.622151 0.163298
Si Si4 0.605089 0.715664 0.385358
Si Si5 0.727409 0.627811 0.159789
Si Si6 0.000000 0.626259 0.655021
O O1 0.736265 0.867358 0.500000
O O2 0.662711 0.785645 0.368933
O O3 0.755294 0.872269 0.284137
O O4 0.685130 0.000000 0.375603
O O5 0.554849 0.280806 0.879747
O O6 0.500000 0.128685 0.782179
O O7 0.500000 0.142259 0.000000
O O8 0.574152 0.500000 0.130617
O O9 0.593782 0.633531 0.289616
O O10 0.660677 0.632253 0.137375
O O11 0.606984 0.662173 0.500000
O O12 0.554755 0.805843 0.381259
O O13 0.746222 0.500000 0.124756
O O14 0.750000 0.750000 0.121590
O O15 0.000000 0.500000 0.618510
#
# Coordination Sequence:
#
# PCOD9485793 Si02
#       6
#    16   8  16  16  16   8
#     4   9  17  28  45  71 106 152 201 237 268 317
#     4  10  23  44  66  86 106 134 185 250 308 364
#     4  10  21  36  56  84 112 147 196 244 295 346
#     4  10  19  31  49  77 119 162 201 234 273 328
#     4  10  19  33  52  78 114 154 193 239 292 346
#     4  10  21  36  56  84 114 148 189 240 298 354
#
# _framework density 22.242871999999998
#
# number of rings (size 3 to 8) (size 9 to 14) (size 15 to 20)
#    0.000    2.200    2.000    1.200    0.000    4.200 
#    0.000    2.000    0.000    4.200    0.000    0.000 
#    0.000    0.000    0.000    0.000    0.000    0.000 
#
# Total GULP energy -223157.626706 kJ/mol
# GULP energy per Si atom -5578.940668 kJ/mol
# Density = 2.219225 g / cm^3
# Si number density = 22.242872 Si / 1000 Ang^3
#
#
#
# Elastic Constant Matrix: (Units=GPa)
#
#
# Indices 1 2 3 4 5 6 
#
# 1 81.9851 24.0060 9.0661 0.0000 0.0000 0.0000
# 2 24.0060 136.2148 3.7670 0.0000 0.0000 0.0000
# 3 9.0661 3.7670 131.1976 0.0000 0.0000 0.0000
# 4 0.0000 0.0000 0.0000 -31.7272 0.0000 0.0000
# 5 0.0000 0.0000 0.0000 0.0000 -21.7363 0.0000
# 6 0.0000 0.0000 0.0000 0.0000 0.0000 12.8739
#
#
#
# Elastic Compliance Matrix: (Units=1/GPa)
#
#
# Indices 1 2 3 4 5 6 
#
# 1 0.012951 -0.002259 -0.000830 0.000000 0.000000 0.000000
# 2 -0.002259 0.007741 -0.000066 0.000000 0.000000 0.000000
# 3 -0.000830 -0.000066 0.007681 0.000000 0.000000 0.000000
# 4 0.000000 0.000000 0.000000 -0.031519 0.000000 0.000000
# 5 0.000000 0.000000 0.000000 0.000000 -0.046006 0.000000
# 6 0.000000 0.000000 0.000000 0.000000 0.000000 0.077676
#
#
# Mechanical properties :
#
#
# Convention : Reuss Voigt Hill
#
# Bulk Modulus (GPa) = 45.32644 47.00840 46.16742
# Shear Modulus (GPa) = 118.50999 12.71930 65.61465
#
# Velocity S-wave (km/s) = 7.30723 2.39391 5.43721
# Velocity P-wave (km/s) = 9.57165 5.36853 7.76007
#
# Compressibility (1/GPa) = 0.02206218
#
# Stress axis : x y z
#
# Youngs Moduli (GPa) = 77.21584 129.17607 130.18544
#
# Poissons Ratio (x) = 0.29186 0.10806
# Poissons Ratio (y) = 0.17446 0.00861
# Poissons Ratio (z) = 0.06409 0.00854
#
# Static dielectric constant tensor:
#      x y z
#    x 1.776070 0.000000 0.000000 
#    y 0.000000 1.806680 0.000000 
#    z 0.000000 0.000000 1.854070 
# 
# From -- ./inp_files/45374.got.cif
#   From: 2010.05.17/outbox.cif.g08.bks.cpg/sg65_23_cif.got.tgz:45374.got - 2010.06.03 17:01:31.
