data_PCOD9485540
_publ_section_title
;
Structure prediction by ZEFSAII (Michael W. Deem and Ramdas Pophale) SiO2 
 PCOD9485540
Probable space group: C M M M
;
_chemical_formula_sum "Si O2"
_cell_formula_units_Z 88
_cell_length_a 28.035040
_cell_length_b 8.314473
_cell_length_c 22.207600
_cell_angle_alpha 90.000000
_cell_angle_beta 90.000000
_cell_angle_gamma 90.000000
_cell_volume 5176.515680
_symmetry_space_group_name_H-M "C M M M"
_symmetry_group_IT_number 65
_symmetry_cell_setting 'orthorhombic'
loop_
_space_group_symop_operation_xyz
x,y,z
-x,-y,z
x,-y,-z
-x,y,-z
-x,-y,-z
x,y,-z
-x,y,z
x,-y,z
1/2+x,1/2+y,z
1/2-x,1/2-y,z
1/2+x,1/2-y,-z
1/2-x,1/2+y,-z
1/2-x,1/2-y,-z
1/2+x,1/2+y,-z
1/2-x,1/2+y,z
1/2+x,1/2-y,z
loop_
_atom_site_type_symbol
_atom_site_label
_atom_site_fract_x
_atom_site_fract_y
_atom_site_fract_z
Si Si1 0.650285 0.196246 0.066744
Si Si2 0.601763 0.692617 0.751786
Si Si3 0.302510 0.192585 0.810059
Si Si4 0.946882 0.306316 0.872824
Si Si5 0.055208 0.308272 0.500000
Si Si6 0.555219 0.306195 0.372134
O O1 0.683816 0.247908 0.121899
O O2 0.596384 0.247572 0.084174
O O3 0.650705 0.000000 0.066384
O O4 0.663665 0.251649 0.000000
O O5 0.598297 0.500000 0.753621
O O6 0.655517 0.743396 0.767463
O O7 0.568663 0.760587 0.805235
O O8 0.583998 0.748957 0.686486
O O9 0.250000 0.250000 0.793808
O O10 0.304376 0.000000 0.809304
O O11 0.947895 0.500000 0.876692
O O12 0.000000 0.245591 0.886751
O O13 0.054978 0.500000 0.500000
O O14 0.075555 0.248934 0.563488
O O15 0.000000 0.248403 0.500000
O O16 0.500000 0.250198 0.367272
O O17 0.554640 0.500000 0.371897
#
# Coordination Sequence:
#
# PCOD9485540 Si02
#       6
#    16  16  16  16   8  16
#     4   8  15  28  45  66  91 118 150 187 228 278
#     4  10  19  31  48  69  92 121 157 194 232 274
#     4  10  20  34  51  70  91 115 146 189 239 286
#     4   9  17  28  43  65  93 124 156 191 230 271
#     4   9  17  27  41  65  96 129 162 193 223 255
#     4   9  17  29  45  66  95 130 162 189 220 261
#
# _framework density 16.999852000000001
#
# number of rings (size 3 to 8) (size 9 to 14) (size 15 to 20)
#    0.000    2.818    0.000    3.000    0.000    4.364 
#    0.000    3.636    0.000   13.091    0.000    5.727 
#    0.000    0.000    0.000    0.000    0.000    0.000 
#
# Total GULP energy -245214.096795 kJ/mol
# GULP energy per Si atom -5573.047654 kJ/mol
# Density = 1.696116 g / cm^3
# Si number density = 16.999852 Si / 1000 Ang^3
#
#
#
# Elastic Constant Matrix: (Units=GPa)
#
#
# Indices 1 2 3 4 5 6 
#
# 1 59.6838 -2.6105 13.2650 0.0000 0.0000 0.0000
# 2 -2.6105 5.3849 0.1013 0.0000 0.0000 0.0000
# 3 13.2650 0.1013 108.3981 0.0000 0.0000 0.0000
# 4 0.0000 0.0000 0.0000 25.6027 0.0000 0.0000
# 5 0.0000 0.0000 0.0000 0.0000 17.9724 0.0000
# 6 0.0000 0.0000 0.0000 0.0000 0.0000 16.9836
#
#
#
# Elastic Compliance Matrix: (Units=1/GPa)
#
#
# Indices 1 2 3 4 5 6 
#
# 1 0.017611 0.008578 -0.002163 0.000000 0.000000 0.000000
# 2 0.008578 0.189886 -0.001227 0.000000 0.000000 0.000000
# 3 -0.002163 -0.001227 0.009491 0.000000 0.000000 0.000000
# 4 0.000000 0.000000 0.000000 0.039058 0.000000 0.000000
# 5 0.000000 0.000000 0.000000 0.000000 0.055641 0.000000
# 6 0.000000 0.000000 0.000000 0.000000 0.000000 0.058880
#
#
# Mechanical properties :
#
#
# Convention : Reuss Voigt Hill
#
# Bulk Modulus (GPa) = 4.39823 21.66425 13.03124
# Shear Modulus (GPa) = 11.46842 22.95917 17.21380
#
# Velocity S-wave (km/s) = 2.60016 3.67897 3.18557
# Velocity P-wave (km/s) = 3.40695 5.55139 4.60571
#
# Compressibility (1/GPa) = 0.22736440
#
# Stress axis : x y z
#
# Youngs Moduli (GPa) = 56.78295 5.26631 105.36183
#
# Poissons Ratio (x) = -0.04518 0.22791
# Poissons Ratio (y) = -0.48710 0.12930
# Poissons Ratio (z) = 0.12283 0.00646
#
# Static dielectric constant tensor:
#      x y z
#    x 1.552670 0.000000 0.000000 
#    y 0.000000 1.586620 0.000000 
#    z 0.000000 0.000000 1.584420 
# 
# From -- ./inp_files/60295.got.cif
#   From: 2010.05.17/outbox.cif.g08.bks.cpg/sg65_31_cif.got.tgz:60295.got - 2010.06.03 17:01:31.
