data_PCOD9485919
_publ_section_title
;
Structure prediction by ZEFSAII (Michael W. Deem and Ramdas Pophale) SiO2 
 PCOD9485919
Probable space group: C M M M
;
_chemical_formula_sum "Si O2"
_cell_formula_units_Z 88
_cell_length_a 20.256752
_cell_length_b 25.497876
_cell_length_c 7.349033
_cell_angle_alpha 90.000000
_cell_angle_beta 90.000000
_cell_angle_gamma 90.000000
_cell_volume 3795.806048
_symmetry_space_group_name_H-M "C M M M"
_symmetry_group_IT_number 65
_symmetry_cell_setting 'orthorhombic'
loop_
_space_group_symop_operation_xyz
x,y,z
-x,-y,z
x,-y,-z
-x,y,-z
-x,-y,-z
x,y,-z
-x,y,z
x,-y,z
1/2+x,1/2+y,z
1/2-x,1/2-y,z
1/2+x,1/2-y,-z
1/2-x,1/2+y,-z
1/2-x,1/2-y,-z
1/2+x,1/2+y,-z
1/2-x,1/2+y,z
1/2+x,1/2-y,z
loop_
_atom_site_type_symbol
_atom_site_label
_atom_site_fract_x
_atom_site_fract_y
_atom_site_fract_z
Si Si1 0.071616 0.829806 0.721752
Si Si2 0.825767 0.256516 0.722847
Si Si3 0.620534 0.866653 0.707506
Si Si4 0.500000 0.938876 0.277234
Si Si5 0.893120 0.057299 0.288570
Si Si6 0.738424 0.058439 0.781729
O O1 0.074717 0.831584 0.500000
O O2 0.131182 0.793206 0.780197
O O3 0.077751 0.889420 0.788408
O O4 0.000000 0.807932 0.771205
O O5 0.824893 0.258401 0.500000
O O6 0.750000 0.250000 0.780523
O O7 0.861555 0.309855 0.786538
O O8 0.599208 0.856466 0.500000
O O9 0.564203 0.905384 0.783019
O O10 0.688926 0.898532 0.708630
O O11 0.500000 0.941046 0.500000
O O12 0.500000 0.000000 0.217989
O O13 0.913027 0.055317 0.500000
O O14 0.813793 0.063760 0.280619
O O15 0.908963 0.000000 0.209041
O O16 0.715562 0.000000 0.728183
O O17 0.738312 0.061535 0.000000
#
# Coordination Sequence:
#
# PCOD9485919 Si02
#       6
#    16  16  16   8  16  16
#     4   9  17  28  46  74 107 135 163 207 256 299
#     4   9  17  28  45  71 102 133 167 206 251 302
#     4  10  19  31  51  73  99 133 169 210 256 306
#     4   9  18  30  45  71 101 127 162 208 254 301
#     4   9  17  30  50  75 101 131 167 205 249 299
#     4  10  20  33  50  73 100 130 167 211 257 303
#
# _framework density 23.183481
#
# number of rings (size 3 to 8) (size 9 to 14) (size 15 to 20)
#    0.000    2.636    0.000    2.182    1.273    5.091 
#    0.000    2.273    0.000    7.091    0.000    2.545 
#    0.000    0.000    0.000    0.000    0.000    0.000 
#
# Total GULP energy -245771.474557 kJ/mol
# GULP energy per Si atom -5585.715331 kJ/mol
# Density = 2.313071 g / cm^3
# Si number density = 23.183481 Si / 1000 Ang^3
#
#
#
# Elastic Constant Matrix: (Units=GPa)
#
#
# Indices 1 2 3 4 5 6 
#
# 1 136.9303 94.5076 -1.0025 0.0000 0.0000 0.0000
# 2 94.5076 186.4649 7.4108 0.0000 0.0000 0.0000
# 3 -1.0025 7.4108 91.4382 0.0000 0.0000 0.0000
# 4 0.0000 0.0000 0.0000 -23.5819 0.0000 0.0000
# 5 0.0000 0.0000 0.0000 0.0000 -0.8161 0.0000
# 6 0.0000 0.0000 0.0000 0.0000 0.0000 33.9719
#
#
#
# Elastic Compliance Matrix: (Units=1/GPa)
#
#
# Indices 1 2 3 4 5 6 
#
# 1 0.011264 -0.005732 0.000588 0.000000 0.000000 0.000000
# 2 -0.005732 0.008297 -0.000735 0.000000 0.000000 0.000000
# 3 0.000588 -0.000735 0.011002 0.000000 0.000000 0.000000
# 4 0.000000 0.000000 0.000000 -0.042405 0.000000 0.000000
# 5 0.000000 0.000000 0.000000 0.000000 -1.225324 0.000000
# 6 0.000000 0.000000 0.000000 0.000000 0.000000 0.029436
#
#
# Mechanical properties :
#
#
# Convention : Reuss Voigt Hill
#
# Bulk Modulus (GPa) = 53.17870 68.51838 60.84854
# Shear Modulus (GPa) = -4.20273 22.84260 9.31993
#
# Velocity S-wave (km/s) = -1.34787 3.14235 2.00719
# Velocity P-wave (km/s) = 4.53494 6.54101 5.62807
#
# Compressibility (1/GPa) = 0.01880452
#
# Stress axis : x y z
#
# Youngs Moduli (GPa) = 88.78172 120.51877 90.88928
#
# Poissons Ratio (x) = 0.69084 -0.05345
# Poissons Ratio (y) = 0.50891 0.06683
# Poissons Ratio (z) = -0.05221 0.08862
#
# Static dielectric constant tensor:
#      x y z
#    x 1.809050 0.000000 0.000000 
#    y 0.000000 1.852020 0.000000 
#    z 0.000000 0.000000 1.873400 
# 
# From -- ./inp_files/11719.got.cif
#   From: 2010.05.17/outbox.cif.g08.bks.cpg/sg65_6_cif.got.tgz:11719.got - 2010.06.03 17:01:31.
