data_PCOD9485008
_publ_section_title
;
Structure prediction by ZEFSAII (Michael W. Deem and Ramdas Pophale) SiO2 
 PCOD9485008
Probable space group: C M M M
;
_chemical_formula_sum "Si O2"
_cell_formula_units_Z 88
_cell_length_a 7.971517
_cell_length_b 29.539254
_cell_length_c 21.963817
_cell_angle_alpha 90.000000
_cell_angle_beta 90.000000
_cell_angle_gamma 90.000000
_cell_volume 5171.878532
_symmetry_space_group_name_H-M "C M M M"
_symmetry_group_IT_number 65
_symmetry_cell_setting 'orthorhombic'
loop_
_space_group_symop_operation_xyz
x,y,z
-x,-y,z
x,-y,-z
-x,y,-z
-x,-y,-z
x,y,-z
-x,y,z
x,-y,z
1/2+x,1/2+y,z
1/2-x,1/2-y,z
1/2+x,1/2-y,-z
1/2-x,1/2+y,-z
1/2-x,1/2-y,-z
1/2+x,1/2+y,-z
1/2-x,1/2+y,z
1/2+x,1/2-y,z
loop_
_atom_site_type_symbol
_atom_site_label
_atom_site_fract_x
_atom_site_fract_y
_atom_site_fract_z
Si Si1 0.801000 0.949112 0.866748
Si Si2 0.799708 0.697355 0.698244
Si Si3 0.202424 0.696933 0.434609
Si Si4 0.702112 0.641624 0.183603
Si Si5 0.797546 0.197344 0.067062
Si Si6 0.306653 0.054943 0.000000
O O1 0.734291 0.909874 0.822935
O O2 0.000000 0.952907 0.857017
O O3 0.728803 0.000000 0.860798
O O4 0.776491 0.932022 0.936283
O O5 0.750000 0.750000 0.706770
O O6 0.736266 0.680748 0.631615
O O7 0.742441 0.667009 0.754254
O O8 0.000000 0.696184 0.696704
O O9 0.263243 0.677945 0.500000
O O10 0.250000 0.750000 0.434961
O O11 0.000000 0.693249 0.434764
O O12 0.500000 0.640100 0.178714
O O13 0.766065 0.669735 0.125102
O O14 0.750000 0.250000 0.073245
O O15 0.000000 0.194406 0.066980
O O16 0.738116 0.181610 0.000000
O O17 0.500000 0.068671 0.000000
O O18 0.298454 0.000000 0.000000
#
# Coordination Sequence:
#
# PCOD9485008 Si02
#       6
#    16  16  16  16  16   8
#     4   9  18  32  49  66  84 110 144 181 224 274
#     4  10  19  30  45  65  92 121 150 181 213 254
#     4   8  14  25  41  61  85 115 147 176 207 245
#     4  10  20  31  46  64  85 113 146 184 222 264
#     4   9  18  31  44  57  76 104 139 177 212 246
#     4   9  17  29  45  65  86 105 130 173 227 273
#
# _framework density 17.015094000000001
#
# number of rings (size 3 to 8) (size 9 to 14) (size 15 to 20)
#    0.000    2.818    0.000    1.364    1.273    4.727 
#    0.000    0.000    0.000    0.000    0.000    0.000 
#    0.000    0.727    0.000    9.091    0.000    0.000 
#
# Total GULP energy -245051.025935 kJ/mol
# GULP energy per Si atom -5569.341499 kJ/mol
# Density = 1.697637 g / cm^3
# Si number density = 17.015094 Si / 1000 Ang^3
#
#
#
# Elastic Constant Matrix: (Units=GPa)
#
#
# Indices 1 2 3 4 5 6 
#
# 1 13.5289 4.3951 5.3929 0.0000 0.0000 0.0000
# 2 4.3951 75.0189 77.1598 0.0000 0.0000 0.0000
# 3 5.3929 77.1598 167.2347 0.0000 0.0000 0.0000
# 4 0.0000 0.0000 0.0000 13.3629 0.0000 0.0000
# 5 0.0000 0.0000 0.0000 0.0000 3.4675 0.0000
# 6 0.0000 0.0000 0.0000 0.0000 0.0000 10.0037
#
#
#
# Elastic Compliance Matrix: (Units=1/GPa)
#
#
# Indices 1 2 3 4 5 6 
#
# 1 0.075399 -0.003648 -0.000749 0.000000 0.000000 0.000000
# 2 -0.003648 0.025545 -0.011669 0.000000 0.000000 0.000000
# 3 -0.000749 -0.011669 0.011388 0.000000 0.000000 0.000000
# 4 0.000000 0.000000 0.000000 0.074834 0.000000 0.000000
# 5 0.000000 0.000000 0.000000 0.000000 0.288388 0.000000
# 6 0.000000 0.000000 0.000000 0.000000 0.000000 0.099963
#
#
# Mechanical properties :
#
#
# Convention : Reuss Voigt Hill
#
# Bulk Modulus (GPa) = 12.46841 47.74204 30.10522
# Shear Modulus (GPa) = 7.88170 16.62247 12.25208
#
# Velocity S-wave (km/s) = 2.15458 3.12897 2.68633
# Velocity P-wave (km/s) = 3.67878 6.41666 5.23005
#
# Compressibility (1/GPa) = 0.08020269
#
# Stress axis : x y z
#
# Youngs Moduli (GPa) = 13.26273 39.14608 87.81546
#
# Poissons Ratio (x) = 0.14279 0.06573
# Poissons Ratio (y) = 0.04838 1.02469
# Poissons Ratio (z) = 0.00993 0.45678
#
# Static dielectric constant tensor:
#      x y z
#    x 1.621240 0.000000 0.000000 
#    y 0.000000 1.568700 0.000000 
#    z 0.000000 0.000000 1.624200 
# 
# From -- ./inp_files/60689.got.cif
#   From: 2010.05.17/outbox.cif.g08.bks.cpg/sg65_31_cif.got.tgz:60689.got - 2010.06.03 17:01:31.
