data_PCOD9485861
_publ_section_title
;
Structure prediction by ZEFSAII (Michael W. Deem and Ramdas Pophale) SiO2 
 PCOD9485861
Probable space group: C M M M
;
_chemical_formula_sum "Si O2"
_cell_formula_units_Z 116
_cell_length_a 25.738452
_cell_length_b 7.869729
_cell_length_c 26.345889
_cell_angle_alpha 90.000000
_cell_angle_beta 90.000000
_cell_angle_gamma 90.000000
_cell_volume 5336.482118
_symmetry_space_group_name_H-M "C M M M"
_symmetry_group_IT_number 65
_symmetry_cell_setting 'orthorhombic'
loop_
_space_group_symop_operation_xyz
x,y,z
-x,-y,z
x,-y,-z
-x,y,-z
-x,-y,-z
x,y,-z
-x,y,z
x,-y,z
1/2+x,1/2+y,z
1/2-x,1/2-y,z
1/2+x,1/2-y,-z
1/2-x,1/2+y,-z
1/2-x,1/2-y,-z
1/2+x,1/2+y,-z
1/2-x,1/2+y,z
1/2+x,1/2-y,z
loop_
_atom_site_type_symbol
_atom_site_label
_atom_site_fract_x
_atom_site_fract_y
_atom_site_fract_z
Si Si1 0.912404 0.309637 0.665841
Si Si2 0.057936 0.706743 0.222938
Si Si3 0.667513 0.301887 0.816620
Si Si4 0.500000 0.000000 0.089318
Si Si5 0.805854 0.797986 0.296787
Si Si6 0.692226 0.809303 0.075997
Si Si7 0.576283 0.692582 0.940423
Si Si8 0.440791 0.296612 0.446007
O O1 0.933121 0.500000 0.665049
O O2 0.935668 0.232296 0.718154
O O3 0.851342 0.300365 0.675765
O O4 0.920168 0.240384 0.609788
O O5 0.062678 0.500000 0.222399
O O6 0.105475 0.778198 0.190565
O O7 0.000000 0.748446 0.205088
O O8 0.678601 0.500000 0.825638
O O9 0.690530 0.249459 0.762451
O O10 0.690138 0.197895 0.862803
O O11 0.454284 0.847752 0.086259
O O12 0.750000 0.750000 0.317100
O O13 0.815362 0.000000 0.300275
O O14 0.750000 0.750000 0.060391
O O15 0.639270 0.710749 0.062048
O O16 0.685179 0.000000 0.057984
O O17 0.563460 0.500000 0.923021
O O18 0.561957 0.706939 0.000000
O O19 0.416552 0.236049 0.500000
O O20 0.500000 0.233521 0.445859
O O21 0.441634 0.500000 0.448823
#
# Coordination Sequence:
#
# PCOD9485861 Si02
#       8
#    16  16  16   4  16  16  16  16
#     4  10  19  31  50  75 103 135 174 221 273 330
#     4   9  18  33  51  74 108 148 188 234 289 347
#     4  10  21  37  56  82 114 152 198 243 297 357
#     4  12  23  46  76 106 142 176 222 272 326 390
#     4  10  20  34  54  78 104 137 180 229 278 333
#     4  12  25  43  66  93 130 172 216 267 324 385
#     4  11  24  44  72 105 138 175 221 272 325 386
#     4   9  18  32  49  71 101 136 172 210 257 316
#
# _framework density 21.737165999999998
#
# number of rings (size 3 to 8) (size 9 to 14) (size 15 to 20)
#    0.000    1.793    0.690    4.552    0.000    5.517 
#    1.241    0.690    0.000    0.414    0.000    0.000 
#    0.000    0.000    0.000    0.000    0.000    0.000 
#
# Total GULP energy -323370.108404 kJ/mol
# GULP energy per Si atom -5575.346697 kJ/mol
# Density = 2.168769 g / cm^3
# Si number density = 21.737166 Si / 1000 Ang^3
#
#
#
# Elastic Constant Matrix: (Units=GPa)
#
#
# Indices 1 2 3 4 5 6 
#
# 1 133.3609 20.7826 13.1895 0.0000 0.0000 0.0000
# 2 20.7826 88.5446 23.1010 0.0000 0.0000 0.0000
# 3 13.1895 23.1010 96.6842 0.0000 0.0000 0.0000
# 4 0.0000 0.0000 0.0000 -5.8419 0.0000 0.0000
# 5 0.0000 0.0000 0.0000 0.0000 -99.4247 0.0000
# 6 0.0000 0.0000 0.0000 0.0000 0.0000 16.7968
#
#
#
# Elastic Compliance Matrix: (Units=1/GPa)
#
#
# Indices 1 2 3 4 5 6 
#
# 1 0.007824 -0.001661 -0.000670 0.000000 0.000000 0.000000
# 2 -0.001661 0.012397 -0.002735 0.000000 0.000000 0.000000
# 3 -0.000670 -0.002735 0.011088 0.000000 0.000000 0.000000
# 4 0.000000 0.000000 0.000000 -0.171178 0.000000 0.000000
# 5 0.000000 0.000000 0.000000 0.000000 -0.010058 0.000000
# 6 0.000000 0.000000 0.000000 0.000000 0.000000 0.059535
#
#
# Mechanical properties :
#
#
# Convention : Reuss Voigt Hill
#
# Bulk Modulus (GPa) = 47.22648 48.08174 47.65411
# Shear Modulus (GPa) = -68.30669 -0.25951 -34.28310
#
# Velocity S-wave (km/s) = -5.61179 -0.34590 -3.97566
# Velocity P-wave (km/s) = 4.49624 4.69128 0.94654
#
# Compressibility (1/GPa) = 0.02117456
#
# Stress axis : x y z
#
# Youngs Moduli (GPa) = 127.81741 80.66216 90.18764
#
# Poissons Ratio (x) = 0.13401 0.06045
# Poissons Ratio (y) = 0.21236 0.24671
# Poissons Ratio (z) = 0.08568 0.22065
#
# Static dielectric constant tensor:
#      x y z
#    x 1.823550 0.000000 0.000000 
#    y 0.000000 1.813100 0.000000 
#    z 0.000000 0.000000 1.853390 
# 
# From -- ./inp_files/75888.got.cif
#   From: 2010.05.17/outbox.cif.g08.bks.cpg/sg65_38_cif.got.tgz:75888.got - 2010.06.03 17:01:31.
