data_PCOD9485210
_publ_section_title
;
Structure prediction by ZEFSAII (Michael W. Deem and Ramdas Pophale) SiO2 
 PCOD9485210
Probable space group: C M M M
;
_chemical_formula_sum "Si O2"
_cell_formula_units_Z 72
_cell_length_a 16.392470
_cell_length_b 7.823434
_cell_length_c 26.109154
_cell_angle_alpha 90.000000
_cell_angle_beta 90.000000
_cell_angle_gamma 90.000000
_cell_volume 3348.379085
_symmetry_space_group_name_H-M "C M M M"
_symmetry_group_IT_number 65
_symmetry_cell_setting 'orthorhombic'
loop_
_space_group_symop_operation_xyz
x,y,z
-x,-y,z
x,-y,-z
-x,y,-z
-x,-y,-z
x,y,-z
-x,y,z
x,-y,z
1/2+x,1/2+y,z
1/2-x,1/2-y,z
1/2+x,1/2-y,-z
1/2-x,1/2+y,-z
1/2-x,1/2-y,-z
1/2+x,1/2+y,-z
1/2-x,1/2+y,z
1/2+x,1/2-y,z
loop_
_atom_site_type_symbol
_atom_site_label
_atom_site_fract_x
_atom_site_fract_y
_atom_site_fract_z
Si Si1 0.500000 0.290692 0.440889
Si Si2 0.345413 0.796488 0.834642
Si Si3 0.590748 0.295648 0.276137
Si Si4 0.660642 0.294677 0.379930
Si Si5 0.153289 0.706333 0.944950
O O1 0.500000 0.500000 0.439463
O O2 0.500000 0.238591 0.500000
O O3 0.582526 0.234054 0.412221
O O4 0.250000 0.750000 0.832302
O O5 0.385081 0.737317 0.782151
O O6 0.378459 0.730670 0.889750
O O7 0.352983 0.000000 0.835726
O O8 0.500000 0.227799 0.285726
O O9 0.588173 0.500000 0.281683
O O10 0.649570 0.231053 0.321169
O O11 0.656446 0.500000 0.379801
O O12 0.750000 0.250000 0.399907
O O13 0.145313 0.500000 0.945134
O O14 0.250000 0.750000 0.944841
O O15 0.120281 0.769061 0.000000
#
# Coordination Sequence:
#
# PCOD9485210 Si02
#       5
#     8  16  16  16  16
#     4   9  18  36  61  85 113 151 190 223 262 320
#     4  10  19  30  47  73 101 129 167 214 263 320
#     4  10  20  35  53  72 101 139 177 219 270 326
#     4  10  20  36  58  84 112 146 186 226 271 323
#     4   8  14  25  41  62  90 123 159 203 256 312
#
# _framework density 21.502942000000001
#
# number of rings (size 3 to 8) (size 9 to 14) (size 15 to 20)
#    0.000    2.556    1.111    1.333    0.000    4.444 
#    0.000    0.556    0.000    1.333    0.000    4.667 
#    0.000    0.000    0.000    0.000    0.000    0.000 
#
# Total GULP energy -200680.487725 kJ/mol
# GULP energy per Si atom -5574.457992 kJ/mol
# Density = 2.145400 g / cm^3
# Si number density = 21.502942 Si / 1000 Ang^3
#
#
#
# Elastic Constant Matrix: (Units=GPa)
#
#
# Indices 1 2 3 4 5 6 
#
# 1 112.1066 4.7206 72.0415 0.0000 0.0000 0.0000
# 2 4.7206 25.6242 11.3210 0.0000 0.0000 0.0000
# 3 72.0415 11.3210 173.9329 0.0000 0.0000 0.0000
# 4 0.0000 0.0000 0.0000 14.3443 0.0000 0.0000
# 5 0.0000 0.0000 0.0000 0.0000 80.9318 0.0000
# 6 0.0000 0.0000 0.0000 0.0000 0.0000 14.8477
#
#
#
# Elastic Compliance Matrix: (Units=1/GPa)
#
#
# Indices 1 2 3 4 5 6 
#
# 1 0.012155 -0.000015 -0.005034 0.000000 0.000000 0.000000
# 2 -0.000015 0.040181 -0.002609 0.000000 0.000000 0.000000
# 3 -0.005034 -0.002609 0.008004 0.000000 0.000000 0.000000
# 4 0.000000 0.000000 0.000000 0.069714 0.000000 0.000000
# 5 0.000000 0.000000 0.000000 0.000000 0.012356 0.000000
# 6 0.000000 0.000000 0.000000 0.000000 0.000000 0.067350
#
#
# Mechanical properties :
#
#
# Convention : Reuss Voigt Hill
#
# Bulk Modulus (GPa) = 22.21007 54.20331 38.20669
# Shear Modulus (GPa) = 20.82592 36.93014 28.87803
#
# Velocity S-wave (km/s) = 3.11547 4.14870 3.66865
# Velocity P-wave (km/s) = 4.82627 6.94342 5.97930
#
# Compressibility (1/GPa) = 0.04502463
#
# Stress axis : x y z
#
# Youngs Moduli (GPa) = 82.26755 24.88728 124.93657
#
# Poissons Ratio (x) = 0.00038 0.62889
# Poissons Ratio (y) = 0.00127 0.32595
# Poissons Ratio (z) = 0.41411 0.06493
#
# Static dielectric constant tensor:
#      x y z
#    x 1.770220 0.000000 0.000000 
#    y 0.000000 1.788460 0.000000 
#    z 0.000000 0.000000 1.834760 
# 
# From -- ./inp_files/72467.got.cif
#   From: 2010.05.17/outbox.cif.g08.bks.cpg/sg65_37_cif.got.tgz:72467.got - 2010.06.03 17:01:31.
