data_PCOD9485059
_publ_section_title
;
Structure prediction by ZEFSAII (Michael W. Deem and Ramdas Pophale) SiO2 
 PCOD9485059
Probable space group: C M M M
;
_chemical_formula_sum "Si O2"
_cell_formula_units_Z 104
_cell_length_a 9.223404
_cell_length_b 24.552600
_cell_length_c 28.181038
_cell_angle_alpha 90.000000
_cell_angle_beta 90.000000
_cell_angle_gamma 90.000000
_cell_volume 6381.836976
_symmetry_space_group_name_H-M "C M M M"
_symmetry_group_IT_number 65
_symmetry_cell_setting 'orthorhombic'
loop_
_space_group_symop_operation_xyz
x,y,z
-x,-y,z
x,-y,-z
-x,y,-z
-x,-y,-z
x,y,-z
-x,y,z
x,-y,z
1/2+x,1/2+y,z
1/2-x,1/2-y,z
1/2+x,1/2-y,-z
1/2-x,1/2+y,-z
1/2-x,1/2-y,-z
1/2+x,1/2+y,-z
1/2-x,1/2+y,z
1/2+x,1/2-y,z
loop_
_atom_site_type_symbol
_atom_site_label
_atom_site_fract_x
_atom_site_fract_y
_atom_site_fract_z
Si Si1 0.170810 0.934185 0.192321
Si Si2 0.673291 0.902500 0.712290
Si Si3 0.167468 0.433755 0.904535
Si Si4 0.162837 0.000000 0.660783
Si Si5 0.826103 0.692086 0.641087
Si Si6 0.332050 0.566416 0.000000
Si Si7 0.231227 0.000000 0.553561
Si Si8 0.670599 0.877279 0.448628
O O1 0.255494 0.908120 0.236251
O O2 0.244460 0.918200 0.142559
O O3 0.000000 0.921296 0.192896
O O4 0.184473 0.000000 0.197078
O O5 0.500000 0.912196 0.714099
O O6 0.749052 0.947952 0.679338
O O7 0.699651 0.844590 0.687499
O O8 0.166252 0.500000 0.905345
O O9 0.000000 0.415939 0.903060
O O10 0.248427 0.416065 0.952492
O O11 0.150760 0.000000 0.603864
O O12 0.000000 0.000000 0.681370
O O13 0.750000 0.750000 0.642563
O O14 0.771805 0.656376 0.595959
O O15 0.000000 0.699077 0.636985
O O16 0.331648 0.500000 0.000000
O O17 0.500000 0.583395 0.000000
O O18 0.315005 0.942541 0.555885
O O19 0.164104 0.000000 0.500000
O O20 0.735479 0.862006 0.500000
O O21 0.500000 0.865621 0.450030
#
# Coordination Sequence:
#
# PCOD9485059 Si02
#       8
#    16  16  16   8  16   8   8  16
#     4  10  19  30  45  69  98 126 160 202 253 300
#     4  11  22  36  54  74  98 128 165 204 247 300
#     4   9  16  25  38  57  85 124 168 208 247 292
#     4  12  23  34  52  78 104 129 157 197 250 301
#     4  10  22  38  55  75  97 127 165 206 246 294
#     4   9  15  23  35  53  81 121 168 215 254 287
#     4  10  19  33  53  77 106 132 159 194 244 300
#     4   9  17  31  53  79 103 128 160 197 239 291
#
# _framework density 16.296247999999999
#
# number of rings (size 3 to 8) (size 9 to 14) (size 15 to 20)
#    0.000    2.077    2.308    2.077    0.000    6.615 
#    0.000    0.000    0.000    0.000    0.000    0.000 
#    0.000    0.000    0.000    0.692    0.000    9.462 
#
# Total GULP energy -289743.909957 kJ/mol
# GULP energy per Si atom -5571.998268 kJ/mol
# Density = 1.625916 g / cm^3
# Si number density = 16.296248 Si / 1000 Ang^3
#
#
#
# Elastic Constant Matrix: (Units=GPa)
#
#
# Indices 1 2 3 4 5 6 
#
# 1 102.0094 39.7711 79.0831 0.0000 0.0000 0.0000
# 2 39.7711 77.0848 49.4664 0.0000 0.0000 0.0000
# 3 79.0831 49.4664 172.8452 0.0000 0.0000 0.0000
# 4 0.0000 0.0000 0.0000 4.1608 0.0000 0.0000
# 5 0.0000 0.0000 0.0000 0.0000 10.9492 0.0000
# 6 0.0000 0.0000 0.0000 0.0000 0.0000 -71.5837
#
#
#
# Elastic Compliance Matrix: (Units=1/GPa)
#
#
# Indices 1 2 3 4 5 6 
#
# 1 0.016351 -0.004453 -0.006207 0.000000 0.000000 0.000000
# 2 -0.004453 0.017104 -0.002857 0.000000 0.000000 0.000000
# 3 -0.006207 -0.002857 0.009443 0.000000 0.000000 0.000000
# 4 0.000000 0.000000 0.000000 0.240340 0.000000 0.000000
# 5 0.000000 0.000000 0.000000 0.000000 0.091330 0.000000
# 6 0.000000 0.000000 0.000000 0.000000 0.000000 -0.013970
#
#
# Mechanical properties :
#
#
# Convention : Reuss Voigt Hill
#
# Bulk Modulus (GPa) = 63.03854 76.50894 69.77374
# Shear Modulus (GPa) = 12.72519 0.94651 6.83585
#
# Velocity S-wave (km/s) = 2.79743 0.76294 2.05033
# Velocity P-wave (km/s) = 7.01434 6.91569 6.96519
#
# Compressibility (1/GPa) = 0.01586331
#
# Stress axis : x y z
#
# Youngs Moduli (GPa) = 61.15834 58.46596 105.89727
#
# Poissons Ratio (x) = 0.26036 0.65728
# Poissons Ratio (y) = 0.27235 0.30260
# Poissons Ratio (z) = 0.37959 0.16706
#
# Static dielectric constant tensor:
#      x y z
#    x 1.549440 0.000000 0.000000 
#    y 0.000000 1.507180 0.000000 
#    z 0.000000 0.000000 1.571760 
# 
# From -- ./inp_files/73640.got.cif
#   From: 2010.05.17/outbox.cif.g08.bks.cpg/sg65_37_cif.got.tgz:73640.got - 2010.06.03 17:01:31.
