data_PCOD9485840
_publ_section_title
;
Structure prediction by ZEFSAII (Michael W. Deem and Ramdas Pophale) SiO2 
 PCOD9485840
Probable space group: C M M M
;
_chemical_formula_sum "Si O2"
_cell_formula_units_Z 80
_cell_length_a 33.343509
_cell_length_b 15.530518
_cell_length_c 7.530901
_cell_angle_alpha 90.000000
_cell_angle_beta 90.000000
_cell_angle_gamma 90.000000
_cell_volume 3899.816585
_symmetry_space_group_name_H-M "C M M M"
_symmetry_group_IT_number 65
_symmetry_cell_setting 'orthorhombic'
loop_
_space_group_symop_operation_xyz
x,y,z
-x,-y,z
x,-y,-z
-x,y,-z
-x,-y,-z
x,y,-z
-x,y,z
x,-y,z
1/2+x,1/2+y,z
1/2-x,1/2-y,z
1/2+x,1/2-y,-z
1/2-x,1/2+y,-z
1/2-x,1/2-y,-z
1/2+x,1/2+y,-z
1/2-x,1/2+y,z
1/2+x,1/2-y,z
loop_
_atom_site_type_symbol
_atom_site_label
_atom_site_fract_x
_atom_site_fract_y
_atom_site_fract_z
Si Si1 0.851405 0.595584 0.212689
Si Si2 0.265814 0.160244 0.791340
Si Si3 0.318290 0.592971 0.285868
Si Si4 0.115461 0.223916 0.713022
Si Si5 0.953998 0.097737 0.716727
O O1 0.862294 0.500000 0.278935
O O2 0.807238 0.623219 0.282611
O O3 0.880843 0.675357 0.247426
O O4 0.848336 0.589143 0.000000
O O5 0.250000 0.250000 0.711209
O O6 0.227485 0.099446 0.774088
O O7 0.273469 0.175354 0.000000
O O8 0.318239 0.595997 0.500000
O O9 0.335469 0.500000 0.232949
O O10 0.345067 0.672527 0.220709
O O11 0.115540 0.216541 0.500000
O O12 0.076940 0.170553 0.777548
O O13 0.953504 0.098157 0.500000
O O14 0.000000 0.113231 0.771145
O O15 0.942749 0.000000 0.769872
#
# Coordination Sequence:
#
# PCOD9485840 Si02
#       5
#    16  16  16  16  16
#     4  10  21  36  51  67  92 129 170 208 245 285
#     4  10  19  33  51  67  88 123 168 210 243 281
#     4  10  20  31  45  69 100 129 155 191 242 292
#     4  10  19  31  50  75 101 125 157 200 240 283
#     4   8  14  27  50  79 107 132 156 185 230 290
#
# _framework density 20.513784999999999
#
# number of rings (size 3 to 8) (size 9 to 14) (size 15 to 20)
#    0.000    2.400    2.000    1.800    0.000    5.200 
#    0.000    0.000    0.000    3.000    0.000    5.600 
#    0.000    0.000    0.000    0.000    0.000    0.000 
#
# Total GULP energy -223214.863478 kJ/mol
# GULP energy per Si atom -5580.371587 kJ/mol
# Density = 2.046710 g / cm^3
# Si number density = 20.513785 Si / 1000 Ang^3
#
#
#
# Elastic Constant Matrix: (Units=GPa)
#
#
# Indices 1 2 3 4 5 6 
#
# 1 113.7740 83.4631 0.6917 0.0000 0.0000 0.0000
# 2 83.4631 190.2339 3.0959 0.0000 0.0000 0.0000
# 3 0.6917 3.0959 50.5985 0.0000 0.0000 0.0000
# 4 0.0000 0.0000 0.0000 27.6712 0.0000 0.0000
# 5 0.0000 0.0000 0.0000 0.0000 16.9207 0.0000
# 6 0.0000 0.0000 0.0000 0.0000 0.0000 29.9322
#
#
#
# Elastic Compliance Matrix: (Units=1/GPa)
#
#
# Indices 1 2 3 4 5 6 
#
# 1 0.012962 -0.005690 0.000171 0.000000 0.000000 0.000000
# 2 -0.005690 0.007760 -0.000397 0.000000 0.000000 0.000000
# 3 0.000171 -0.000397 0.019785 0.000000 0.000000 0.000000
# 4 0.000000 0.000000 0.000000 0.036139 0.000000 0.000000
# 5 0.000000 0.000000 0.000000 0.000000 0.059099 0.000000
# 6 0.000000 0.000000 0.000000 0.000000 0.000000 0.033409
#
#
# Mechanical properties :
#
#
# Convention : Reuss Voigt Hill
#
# Bulk Modulus (GPa) = 34.87307 58.78973 46.83140
# Shear Modulus (GPa) = 26.24061 32.72853 29.48457
#
# Velocity S-wave (km/s) = 3.58043 3.99863 3.79529
# Velocity P-wave (km/s) = 5.84203 7.07387 6.48725
#
# Compressibility (1/GPa) = 0.02867542
#
# Stress axis : x y z
#
# Youngs Moduli (GPa) = 77.14668 128.87410 50.54231
#
# Poissons Ratio (x) = 0.73328 -0.00864
# Poissons Ratio (y) = 0.43895 0.02006
# Poissons Ratio (z) = -0.01319 0.05116
#
# Static dielectric constant tensor:
#      x y z
#    x 1.715710 0.000000 0.000000 
#    y 0.000000 1.786690 0.000000 
#    z 0.000000 0.000000 1.784500 
# 
# From -- ./inp_files/33712.got.cif
#   From: 2010.05.17/outbox.cif.g08.bks.cpg/sg65_17_cif.got.tgz:33712.got - 2010.06.03 17:01:31.
