data_PCOD9485045
_publ_section_title
;
Structure prediction by ZEFSAII (Michael W. Deem and Ramdas Pophale) SiO2 
 PCOD9485045
Probable space group: C M M M
;
_chemical_formula_sum "Si O2"
_cell_formula_units_Z 96
_cell_length_a 18.404359
_cell_length_b 27.847230
_cell_length_c 11.895707
_cell_angle_alpha 90.000000
_cell_angle_beta 90.000000
_cell_angle_gamma 90.000000
_cell_volume 6096.673768
_symmetry_space_group_name_H-M "C M M M"
_symmetry_group_IT_number 65
_symmetry_cell_setting 'orthorhombic'
loop_
_space_group_symop_operation_xyz
x,y,z
-x,-y,z
x,-y,-z
-x,y,-z
-x,-y,-z
x,y,-z
-x,y,z
x,-y,z
1/2+x,1/2+y,z
1/2-x,1/2-y,z
1/2+x,1/2-y,-z
1/2-x,1/2+y,-z
1/2-x,1/2-y,-z
1/2+x,1/2+y,-z
1/2-x,1/2+y,z
1/2+x,1/2-y,z
loop_
_atom_site_type_symbol
_atom_site_label
_atom_site_fract_x
_atom_site_fract_y
_atom_site_fract_z
Si Si1 0.629964 0.750006 0.000000
Si Si2 0.416747 0.283327 0.239700
Si Si3 0.266625 0.054281 0.635602
Si Si4 0.155174 0.304216 0.633350
Si Si5 0.919779 0.405102 0.635200
Si Si6 0.785621 0.853772 0.242020
Si Si7 0.242937 0.669527 0.000000
O O1 0.587812 0.739315 0.114476
O O2 0.696329 0.711710 0.000000
O O3 0.666323 0.802577 0.000000
O O4 0.500000 0.293464 0.268607
O O5 0.381662 0.243711 0.321516
O O6 0.364664 0.329713 0.241769
O O7 0.263725 0.060228 0.500000
O O8 0.350640 0.063569 0.671384
O O9 0.220435 0.096152 0.693007
O O10 0.244937 0.000000 0.662790
O O11 0.168250 0.302040 0.500000
O O12 0.102457 0.349772 0.656104
O O13 0.229901 0.316726 0.697205
O O14 0.923257 0.410657 0.500000
O O15 0.000000 0.416338 0.680441
O O16 0.756627 0.858797 0.114715
#
# Coordination Sequence:
#
# PCOD9485045 Si02
#       7
#     8  16  16  16  16  16   8
#     4   9  17  32  48  70  97 126 161 193 231 284
#     4  11  21  31  47  71  99 129 161 200 241 288
#     4   9  18  32  50  71  94 125 165 205 247 297
#     4  10  19  30  45  67  99 134 163 191 231 286
#     4   8  14  25  41  64  94 122 149 185 228 274
#     4  10  19  33  51  70  94 125 164 204 245 287
#     4   9  16  30  53  72  91 123 163 200 229 277
#
# _framework density 15.746290999999999
#
# number of rings (size 3 to 8) (size 9 to 14) (size 15 to 20)
#    0.000    2.500    1.667    2.750    0.000    3.333 
#    0.000    2.083    0.000    0.500    0.000    1.167 
#    0.000    7.000    0.000    0.000    0.000    0.000 
#
# Total GULP energy -267479.493930 kJ/mol
# GULP energy per Si atom -5572.489457 kJ/mol
# Density = 1.571045 g / cm^3
# Si number density = 15.746291 Si / 1000 Ang^3
#
#
#
# Elastic Constant Matrix: (Units=GPa)
#
#
# Indices 1 2 3 4 5 6 
#
# 1 91.5781 43.8473 29.7518 0.0000 0.0000 0.0000
# 2 43.8473 90.2292 33.8822 0.0000 0.0000 0.0000
# 3 29.7518 33.8822 69.0497 0.0000 0.0000 0.0000
# 4 0.0000 0.0000 0.0000 17.1088 0.0000 0.0000
# 5 0.0000 0.0000 0.0000 0.0000 12.4764 0.0000
# 6 0.0000 0.0000 0.0000 0.0000 0.0000 4.6454
#
#
#
# Elastic Compliance Matrix: (Units=1/GPa)
#
#
# Indices 1 2 3 4 5 6 
#
# 1 0.014895 -0.005919 -0.003514 0.000000 0.000000 0.000000
# 2 -0.005919 0.015938 -0.005271 0.000000 0.000000 0.000000
# 3 -0.003514 -0.005271 0.018582 0.000000 0.000000 0.000000
# 4 0.000000 0.000000 0.000000 0.058449 0.000000 0.000000
# 5 0.000000 0.000000 0.000000 0.000000 0.080152 0.000000
# 6 0.000000 0.000000 0.000000 0.000000 0.000000 0.215265
#
#
# Mechanical properties :
#
#
# Convention : Reuss Voigt Hill
#
# Bulk Modulus (GPa) = 49.97534 51.75774 50.86654
# Shear Modulus (GPa) = 11.38025 16.40451 13.89238
#
# Velocity S-wave (km/s) = 2.69127 3.23120 2.97351
# Velocity P-wave (km/s) = 6.43926 6.84558 6.64553
#
# Compressibility (1/GPa) = 0.02000987
#
# Stress axis : x y z
#
# Youngs Moduli (GPa) = 67.13624 62.74164 53.81428
#
# Poissons Ratio (x) = 0.37137 0.18908
# Poissons Ratio (y) = 0.39738 0.28363
# Poissons Ratio (z) = 0.23589 0.33068
#
# Static dielectric constant tensor:
#      x y z
#    x 1.538470 0.000000 0.000000 
#    y 0.000000 1.514690 0.000000 
#    z 0.000000 0.000000 1.534740 
# 
# From -- ./inp_files/27418.got.cif
#   From: 2010.05.17/outbox.cif.g08.bks.cpg/sg65_14_cif.got.tgz:27418.got - 2010.06.03 17:01:31.
