data_PCOD9485939
_publ_section_title
;
Structure prediction by ZEFSAII (Michael W. Deem and Ramdas Pophale) SiO2 
 PCOD9485939
Probable space group: C M M M
;
_chemical_formula_sum "Si O2"
_cell_formula_units_Z 96
_cell_length_a 15.588258
_cell_length_b 15.368842
_cell_length_c 19.540130
_cell_angle_alpha 90.000000
_cell_angle_beta 90.000000
_cell_angle_gamma 90.000000
_cell_volume 4681.296832
_symmetry_space_group_name_H-M "C M M M"
_symmetry_group_IT_number 65
_symmetry_cell_setting 'orthorhombic'
loop_
_space_group_symop_operation_xyz
x,y,z
-x,-y,z
x,-y,-z
-x,y,-z
-x,-y,-z
x,y,-z
-x,y,z
x,-y,z
1/2+x,1/2+y,z
1/2-x,1/2-y,z
1/2+x,1/2-y,-z
1/2-x,1/2+y,-z
1/2-x,1/2-y,-z
1/2+x,1/2+y,-z
1/2-x,1/2+y,z
1/2+x,1/2-y,z
loop_
_atom_site_type_symbol
_atom_site_label
_atom_site_fract_x
_atom_site_fract_y
_atom_site_fract_z
Si Si1 0.604786 0.902804 0.229200
Si Si2 0.596876 0.866130 0.923861
Si Si3 0.601153 0.261302 0.686437
Si Si4 0.901057 0.095120 0.803362
Si Si5 0.395824 0.598197 0.580686
Si Si6 0.832318 0.187387 0.924964
O O1 0.500000 0.893673 0.226467
O O2 0.634261 0.893927 0.149713
O O3 0.637382 0.827999 0.280908
O O4 0.625148 0.000000 0.253012
O O5 0.500000 0.899794 0.925297
O O6 0.594992 0.761255 0.919704
O O7 0.634743 0.887175 0.000000
O O8 0.500000 0.243925 0.671292
O O9 0.606319 0.330055 0.748009
O O10 0.636779 0.318027 0.623032
O O11 0.841574 0.117998 0.866534
O O12 0.000000 0.095419 0.827240
O O13 0.883039 0.000000 0.774227
O O14 0.378498 0.607513 0.500000
O O15 0.500000 0.597617 0.589565
O O16 0.367051 0.500000 0.601564
O O17 0.750000 0.250000 0.918529
O O18 0.834172 0.147947 0.000000
#
# Coordination Sequence:
#
# PCOD9485939 Si02
#       6
#    16  16  16  16  16  16
#     4   9  16  25  39  60  83 109 145 190 238 279
#     4   9  16  28  46  64  83 111 152 200 244 283
#     4   9  15  25  41  63  92 121 150 190 236 281
#     4  10  19  31  51  76  97 123 161 202 247 298
#     4   8  13  21  35  58  89 123 153 179 218 280
#     4  10  20  33  47  63  90 127 161 195 239 292
#
# _framework density 20.507138000000001
#
# number of rings (size 3 to 8) (size 9 to 14) (size 15 to 20)
#    0.000    2.833    1.667    1.500    0.000    3.667 
#    0.000    3.333    0.000    3.500    0.000    3.500 
#    0.000    0.667    0.000    0.000    0.000    0.000 
#
# Total GULP energy -267261.518969 kJ/mol
# GULP energy per Si atom -5567.948312 kJ/mol
# Density = 2.046046 g / cm^3
# Si number density = 20.507138 Si / 1000 Ang^3
#
#
#
# Elastic Constant Matrix: (Units=GPa)
#
#
# Indices 1 2 3 4 5 6 
#
# 1 25.7333 9.5901 10.5763 0.0000 0.0000 0.0000
# 2 9.5901 134.2489 56.7383 0.0000 0.0000 0.0000
# 3 10.5763 56.7383 98.9447 0.0000 0.0000 0.0000
# 4 0.0000 0.0000 0.0000 36.9466 0.0000 0.0000
# 5 0.0000 0.0000 0.0000 0.0000 -8.6265 0.0000
# 6 0.0000 0.0000 0.0000 0.0000 0.0000 5.4578
#
#
#
# Elastic Compliance Matrix: (Units=1/GPa)
#
#
# Indices 1 2 3 4 5 6 
#
# 1 0.040849 -0.001416 -0.003555 0.000000 0.000000 0.000000
# 2 -0.001416 0.009881 -0.005515 0.000000 0.000000 0.000000
# 3 -0.003555 -0.005515 0.013649 0.000000 0.000000 0.000000
# 4 0.000000 0.000000 0.000000 0.027066 0.000000 0.000000
# 5 0.000000 0.000000 0.000000 0.000000 -0.115922 0.000000
# 6 0.000000 0.000000 0.000000 0.000000 0.000000 0.183225
#
#
# Mechanical properties :
#
#
# Convention : Reuss Voigt Hill
#
# Bulk Modulus (GPa) = 23.03699 45.85961 34.44830
# Shear Modulus (GPa) = 25.74853 18.89040 22.31947
#
# Velocity S-wave (km/s) = 3.54727 3.03836 3.30263
# Velocity P-wave (km/s) = 5.29486 5.89238 5.60159
#
# Compressibility (1/GPa) = 0.04340845
#
# Stress axis : x y z
#
# Youngs Moduli (GPa) = 24.48061 101.20808 73.26631
#
# Poissons Ratio (x) = 0.14329 0.26043
# Poissons Ratio (y) = 0.03466 0.40403
# Poissons Ratio (z) = 0.08702 0.55812
#
# Static dielectric constant tensor:
#      x y z
#    x 1.816770 0.000000 0.000000 
#    y 0.000000 1.753490 0.000000 
#    z 0.000000 0.000000 1.736740 
# 
# From -- ./inp_files/64657.got.cif
#   From: 2010.05.17/outbox.cif.g08.bks.cpg/sg65_33_cif.got.tgz:64657.got - 2010.06.03 17:01:31.
