data_PCOD9485104
_publ_section_title
;
Structure prediction by ZEFSAII (Michael W. Deem and Ramdas Pophale) SiO2 
 PCOD9485104
Probable space group: C M M M
;
_chemical_formula_sum "Si O2"
_cell_formula_units_Z 112
_cell_length_a 16.354512
_cell_length_b 26.884425
_cell_length_c 13.770958
_cell_angle_alpha 90.000000
_cell_angle_beta 90.000000
_cell_angle_gamma 90.000000
_cell_volume 6054.837553
_symmetry_space_group_name_H-M "C M M M"
_symmetry_group_IT_number 65
_symmetry_cell_setting 'orthorhombic'
loop_
_space_group_symop_operation_xyz
x,y,z
-x,-y,z
x,-y,-z
-x,y,-z
-x,-y,-z
x,y,-z
-x,y,z
x,-y,z
1/2+x,1/2+y,z
1/2-x,1/2-y,z
1/2+x,1/2-y,-z
1/2-x,1/2+y,-z
1/2-x,1/2-y,-z
1/2+x,1/2+y,-z
1/2-x,1/2+y,z
1/2+x,1/2-y,z
loop_
_atom_site_type_symbol
_atom_site_label
_atom_site_fract_x
_atom_site_fract_y
_atom_site_fract_z
Si Si1 0.247111 0.443073 0.733451
Si Si2 0.407037 0.097068 0.616033
Si Si3 0.911246 0.940585 0.609548
Si Si4 0.406779 0.735128 0.890098
Si Si5 0.402249 0.304294 0.607214
Si Si6 0.135140 0.298140 0.292675
Si Si7 0.303223 0.658206 0.222278
O O1 0.246397 0.500000 0.770950
O O2 0.163432 0.432239 0.674644
O O3 0.324395 0.436998 0.661937
O O4 0.267227 0.396082 0.803923
O O5 0.390170 0.097198 0.500000
O O6 0.500000 0.077990 0.629896
O O7 0.403451 0.153173 0.658681
O O8 0.906968 0.920292 0.500000
O O9 0.000000 0.923769 0.651973
O O10 0.919046 0.000000 0.602429
O O11 0.500000 0.715954 0.883923
O O12 0.399443 0.778787 0.810557
O O13 0.344054 0.691458 0.861076
O O14 0.391879 0.752249 0.000000
O O15 0.369631 0.314853 0.500000
O O16 0.500000 0.305241 0.605884
O O17 0.375885 0.248816 0.637593
O O18 0.369899 0.340565 0.690883
O O19 0.228170 0.312006 0.269772
#
# Coordination Sequence:
#
# PCOD9485104 Si02
#       7
#    16  16  16  16  16  16  16
#     4  10  21  35  49  68  97 135 181 226 265 304
#     4  10  20  33  51  75 105 144 186 226 266 307
#     4   8  14  25  41  60  82 113 156 204 251 295
#     4  10  20  35  57  82 107 133 160 200 260 328
#     4  10  19  30  46  68  98 135 169 204 250 308
#     4  10  19  32  51  75 104 135 168 208 254 314
#     4  10  21  33  49  73 100 132 169 213 258 305
#
# _framework density 18.497606999999999
#
# number of rings (size 3 to 8) (size 9 to 14) (size 15 to 20)
#    0.000    2.286    0.000    5.571    0.000    8.571 
#    0.000    2.143    0.000    0.429    0.000    1.000 
#    0.000    0.000    0.000   15.143    0.000    0.143 
#
# Total GULP energy -311904.811375 kJ/mol
# GULP energy per Si atom -5569.728775 kJ/mol
# Density = 1.845551 g / cm^3
# Si number density = 18.497607 Si / 1000 Ang^3
#
#
#
# Elastic Constant Matrix: (Units=GPa)
#
#
# Indices 1 2 3 4 5 6 
#
# 1 99.9975 8.1392 -1.7813 0.0000 0.0000 0.0000
# 2 8.1392 88.8551 -4.9038 0.0000 0.0000 0.0000
# 3 -1.7813 -4.9038 46.1668 0.0000 0.0000 0.0000
# 4 0.0000 0.0000 0.0000 5.3478 0.0000 0.0000
# 5 0.0000 0.0000 0.0000 0.0000 14.8212 0.0000
# 6 0.0000 0.0000 0.0000 0.0000 0.0000 29.5327
#
#
#
# Elastic Compliance Matrix: (Units=1/GPa)
#
#
# Indices 1 2 3 4 5 6 
#
# 1 0.010079 -0.000907 0.000293 0.000000 0.000000 0.000000
# 2 -0.000907 0.011402 0.001176 0.000000 0.000000 0.000000
# 3 0.000293 0.001176 0.021797 0.000000 0.000000 0.000000
# 4 0.000000 0.000000 0.000000 0.186994 0.000000 0.000000
# 5 0.000000 0.000000 0.000000 0.000000 0.067471 0.000000
# 6 0.000000 0.000000 0.000000 0.000000 0.000000 0.033861
#
#
# Mechanical properties :
#
#
# Convention : Reuss Voigt Hill
#
# Bulk Modulus (GPa) = 22.52178 26.43641 24.47909
# Shear Modulus (GPa) = 14.48096 25.51134 19.99615
#
# Velocity S-wave (km/s) = 2.80099 3.71775 3.29144
# Velocity P-wave (km/s) = 4.76053 5.72291 5.26376
#
# Compressibility (1/GPa) = 0.04440147
#
# Stress axis : x y z
#
# Youngs Moduli (GPa) = 99.21323 87.70171 45.87831
#
# Poissons Ratio (x) = 0.07956 -0.01342
# Poissons Ratio (y) = 0.09000 -0.05396
# Poissons Ratio (z) = -0.02902 -0.10315
#
# Static dielectric constant tensor:
#      x y z
#    x 1.672500 0.000000 0.000000 
#    y 0.000000 1.727860 0.000000 
#    z 0.000000 0.000000 1.594310 
# 
# From -- ./inp_files/41349.got.cif
#   From: 2010.05.17/outbox.cif.g08.bks.cpg/sg65_21_cif.got.tgz:41349.got - 2010.06.03 17:01:31.
