data_PCOD9485957
_publ_section_title
;
Structure prediction by ZEFSAII (Michael W. Deem and Ramdas Pophale) SiO2 
 PCOD9485957
Probable space group: C M M M
;
_chemical_formula_sum "Si O2"
_cell_formula_units_Z 116
_cell_length_a 29.114455
_cell_length_b 28.358786
_cell_length_c 7.574232
_cell_angle_alpha 90.000000
_cell_angle_beta 90.000000
_cell_angle_gamma 90.000000
_cell_volume 6253.669187
_symmetry_space_group_name_H-M "C M M M"
_symmetry_group_IT_number 65
_symmetry_cell_setting 'orthorhombic'
loop_
_space_group_symop_operation_xyz
x,y,z
-x,-y,z
x,-y,-z
-x,y,-z
-x,-y,-z
x,y,-z
-x,y,z
x,-y,z
1/2+x,1/2+y,z
1/2-x,1/2-y,z
1/2+x,1/2-y,-z
1/2-x,1/2+y,-z
1/2-x,1/2-y,-z
1/2+x,1/2+y,-z
1/2-x,1/2+y,z
1/2+x,1/2-y,z
loop_
_atom_site_type_symbol
_atom_site_label
_atom_site_fract_x
_atom_site_fract_y
_atom_site_fract_z
Si Si1 0.699515 0.232819 0.284139
Si Si2 0.051303 0.322967 0.291686
Si Si3 0.788958 0.553976 0.791156
Si Si4 0.852320 0.639370 0.713430
Si Si5 0.187610 0.921093 0.705027
Si Si6 0.854228 0.177071 0.707347
Si Si7 0.667613 0.500000 0.000000
Si Si8 0.051070 0.213416 0.211156
O O1 0.699361 0.230905 0.500000
O O2 0.750000 0.250000 0.230983
O O3 0.681381 0.181766 0.225548
O O4 0.665391 0.273864 0.220481
O O5 0.049006 0.333577 0.500000
O O6 0.095981 0.350015 0.220867
O O7 0.060066 0.266863 0.274850
O O8 0.000000 0.332130 0.217014
O O9 0.796442 0.500000 0.730185
O O10 0.831086 0.589159 0.762265
O O11 0.742973 0.575012 0.705969
O O12 0.779286 0.551525 0.000000
O O13 0.853668 0.641736 0.500000
O O14 0.172524 0.928304 0.500000
O O15 0.170538 0.869950 0.769657
O O16 0.170078 0.959374 0.843358
O O17 0.843807 0.178515 0.500000
O O18 0.908702 0.178822 0.731260
O O19 0.000000 0.200158 0.272993
O O20 0.050875 0.214918 0.000000
#
# Coordination Sequence:
#
# PCOD9485957 Si02
#       8
#    16  16  16  16  16  16   4  16
#     4   9  16  29  46  72 110 144 177 216 265 334
#     4   9  17  32  53  75 103 141 186 232 278 338
#     4  11  22  38  55  77 109 143 189 241 285 332
#     4  10  19  31  51  77 104 142 185 227 286 343
#     4  11  22  38  61  86 114 152 193 236 287 336
#     4  10  20  34  55  81 110 148 187 225 276 336
#     4  12  22  40  60  86 119 150 191 248 278 332
#     4  10  20  32  50  77 112 149 183 226 281 334
#
# _framework density 18.549109999999999
#
# number of rings (size 3 to 8) (size 9 to 14) (size 15 to 20)
#    0.000    1.931    2.759    1.862    0.966    4.414 
#    0.000    0.000    0.000    2.069    0.000    3.862 
#    0.000    2.207    0.000    0.000    0.000    0.000 
#
# Total GULP energy -323049.012262 kJ/mol
# GULP energy per Si atom -5569.810556 kJ/mol
# Density = 1.850689 g / cm^3
# Si number density = 18.549110 Si / 1000 Ang^3
#
#
#
# Elastic Constant Matrix: (Units=GPa)
#
#
# Indices 1 2 3 4 5 6 
#
# 1 118.4526 83.3793 -5.9103 0.0000 0.0000 0.0000
# 2 83.3793 128.7928 8.4153 0.0000 0.0000 0.0000
# 3 -5.9103 8.4153 52.2772 0.0000 0.0000 0.0000
# 4 0.0000 0.0000 0.0000 33.6140 0.0000 0.0000
# 5 0.0000 0.0000 0.0000 0.0000 18.5226 0.0000
# 6 0.0000 0.0000 0.0000 0.0000 0.0000 106.3958
#
#
#
# Elastic Compliance Matrix: (Units=1/GPa)
#
#
# Indices 1 2 3 4 5 6 
#
# 1 0.016134 -0.010677 0.003543 0.000000 0.000000 0.000000
# 2 -0.010677 0.014912 -0.003608 0.000000 0.000000 0.000000
# 3 0.003543 -0.003608 0.020110 0.000000 0.000000 0.000000
# 4 0.000000 0.000000 0.000000 0.029749 0.000000 0.000000
# 5 0.000000 0.000000 0.000000 0.000000 0.053988 0.000000
# 6 0.000000 0.000000 0.000000 0.000000 0.000000 0.009399
#
#
# Mechanical properties :
#
#
# Convention : Reuss Voigt Hill
#
# Bulk Modulus (GPa) = 33.70002 52.36568 43.03285
# Shear Modulus (GPa) = 28.46292 45.94905 37.20599
#
# Velocity S-wave (km/s) = 3.92147 4.98250 4.48349
# Velocity P-wave (km/s) = 6.22185 7.83534 7.07474
#
# Compressibility (1/GPa) = 0.02967358
#
# Stress axis : x y z
#
# Youngs Moduli (GPa) = 61.97945 67.05935 49.72635
#
# Poissons Ratio (x) = 0.71598 -0.17617
# Poissons Ratio (y) = 0.66174 0.17939
# Poissons Ratio (z) = -0.21958 0.24192
#
# Static dielectric constant tensor:
#      x y z
#    x 1.658830 0.000000 0.000000 
#    y 0.000000 1.623450 0.000000 
#    z 0.000000 0.000000 1.676640 
# 
# From -- ./inp_files/18963.got.cif
#   From: 2010.05.17/outbox.cif.g08.bks.cpg/sg65_10_cif.got.tgz:18963.got - 2010.06.03 17:01:31.
