data_PCOD9485409
_publ_section_title
;
Structure prediction by ZEFSAII (Michael W. Deem and Ramdas Pophale) SiO2 
 PCOD9485409
Probable space group: C M M M
;
_chemical_formula_sum "Si O2"
_cell_formula_units_Z 88
_cell_length_a 32.764953
_cell_length_b 20.426636
_cell_length_c 7.512063
_cell_angle_alpha 90.000000
_cell_angle_beta 90.000000
_cell_angle_gamma 90.000000
_cell_volume 5027.656761
_symmetry_space_group_name_H-M "C M M M"
_symmetry_group_IT_number 65
_symmetry_cell_setting 'orthorhombic'
loop_
_space_group_symop_operation_xyz
x,y,z
-x,-y,z
x,-y,-z
-x,y,-z
-x,-y,-z
x,y,-z
-x,y,z
x,-y,z
1/2+x,1/2+y,z
1/2-x,1/2-y,z
1/2+x,1/2-y,-z
1/2-x,1/2+y,-z
1/2-x,1/2-y,-z
1/2+x,1/2+y,-z
1/2-x,1/2+y,z
1/2+x,1/2-y,z
loop_
_atom_site_type_symbol
_atom_site_label
_atom_site_fract_x
_atom_site_fract_y
_atom_site_fract_z
Si Si1 0.242626 0.572033 0.284735
Si Si2 0.838846 0.073479 0.208903
Si Si3 0.048611 0.928836 0.000000
Si Si4 0.209974 0.709236 0.281762
Si Si5 0.369091 0.283434 0.295015
Si Si6 0.453068 0.678192 0.713855
O O1 0.242473 0.572537 0.500000
O O2 0.228783 0.500000 0.224852
O O3 0.289867 0.579678 0.229802
O O4 0.216644 0.634337 0.225746
O O5 0.857860 0.139192 0.289800
O O6 0.849555 0.000000 0.277418
O O7 0.848776 0.075466 0.000000
O O8 0.056528 0.887759 0.822639
O O9 0.000000 0.935904 0.000000
O O10 0.067814 0.000000 0.000000
O O11 0.209593 0.711138 0.500000
O O12 0.250000 0.750000 0.227453
O O13 0.168654 0.743467 0.215215
O O14 0.370808 0.263010 0.500000
O O15 0.415462 0.275751 0.228034
O O16 0.451022 0.668923 0.500000
O O17 0.500000 0.697594 0.756281
#
# Coordination Sequence:
#
# PCOD9485409 Si02
#       6
#    16  16   8  16  16  16
#     4   9  16  28  46  63  83 115 150 178 210 257
#     4  10  20  30  40  58  86 116 146 182 219 257
#     4   9  18  32  50  68  87 116 151 191 236 271
#     4   9  15  26  44  65  87 109 139 180 217 254
#     4  10  19  31  47  63  82 111 145 183 224 263
#     4   9  19  34  49  65  86 114 149 188 230 274
#
# _framework density 17.503183
#
# number of rings (size 3 to 8) (size 9 to 14) (size 15 to 20)
#    0.000    2.636    1.818    0.545    1.273    2.182 
#    0.000    5.455    0.000    0.000    0.000    0.000 
#    0.000    0.727    0.000   10.182    0.000    5.091 
#
# Total GULP energy -245129.238344 kJ/mol
# GULP energy per Si atom -5571.119053 kJ/mol
# Density = 1.746335 g / cm^3
# Si number density = 17.503183 Si / 1000 Ang^3
#
#
#
# Elastic Constant Matrix: (Units=GPa)
#
#
# Indices 1 2 3 4 5 6 
#
# 1 144.7521 67.2401 11.2256 0.0000 0.0000 0.0000
# 2 67.2401 90.3831 4.4162 0.0000 0.0000 0.0000
# 3 11.2256 4.4162 49.3770 0.0000 0.0000 0.0000
# 4 0.0000 0.0000 0.0000 -6.9224 0.0000 0.0000
# 5 0.0000 0.0000 0.0000 0.0000 5.6656 0.0000
# 6 0.0000 0.0000 0.0000 0.0000 0.0000 15.4662
#
#
#
# Elastic Compliance Matrix: (Units=1/GPa)
#
#
# Indices 1 2 3 4 5 6 
#
# 1 0.010701 -0.007877 -0.001728 0.000000 0.000000 0.000000
# 2 -0.007877 0.016910 0.000278 0.000000 0.000000 0.000000
# 3 -0.001728 0.000278 0.020620 0.000000 0.000000 0.000000
# 4 0.000000 0.000000 0.000000 -0.144459 0.000000 0.000000
# 5 0.000000 0.000000 0.000000 0.000000 0.176504 0.000000
# 6 0.000000 0.000000 0.000000 0.000000 0.000000 0.064657
#
#
# Mechanical properties :
#
#
# Convention : Reuss Voigt Hill
#
# Bulk Modulus (GPa) = 33.80855 50.03067 41.91961
# Shear Modulus (GPa) = 28.82716 16.28390 22.55553
#
# Velocity S-wave (km/s) = 4.06269 3.05346 3.59368
# Velocity P-wave (km/s) = 6.43155 6.40915 6.42036
#
# Compressibility (1/GPa) = 0.02957831
#
# Stress axis : x y z
#
# Youngs Moduli (GPa) = 93.44669 59.13567 48.49565
#
# Poissons Ratio (x) = 0.46580 0.08382
# Poissons Ratio (y) = 0.73605 -0.01350
# Poissons Ratio (z) = 0.16151 -0.01646
#
# Static dielectric constant tensor:
#      x y z
#    x 1.635470 0.000000 0.000000 
#    y 0.000000 1.601910 0.000000 
#    z 0.000000 0.000000 1.626660 
# 
# From -- ./inp_files/18533.got.cif
#   From: 2010.05.17/outbox.cif.g08.bks.cpg/sg65_10_cif.got.tgz:18533.got - 2010.06.03 17:01:31.
