data_PCOD9485568
_publ_section_title
;
Structure prediction by ZEFSAII (Michael W. Deem and Ramdas Pophale) SiO2 
 PCOD9485568
Probable space group: C M M M
;
_chemical_formula_sum "Si O2"
_cell_formula_units_Z 104
_cell_length_a 24.511651
_cell_length_b 8.748072
_cell_length_c 29.429584
_cell_angle_alpha 90.000000
_cell_angle_beta 90.000000
_cell_angle_gamma 90.000000
_cell_volume 6310.576509
_symmetry_space_group_name_H-M "C M M M"
_symmetry_group_IT_number 65
_symmetry_cell_setting 'orthorhombic'
loop_
_space_group_symop_operation_xyz
x,y,z
-x,-y,z
x,-y,-z
-x,y,-z
-x,-y,-z
x,y,-z
-x,y,z
x,-y,z
1/2+x,1/2+y,z
1/2-x,1/2-y,z
1/2+x,1/2-y,-z
1/2-x,1/2+y,-z
1/2-x,1/2-y,-z
1/2+x,1/2+y,-z
1/2-x,1/2+y,z
1/2+x,1/2-y,z
loop_
_atom_site_type_symbol
_atom_site_label
_atom_site_fract_x
_atom_site_fract_y
_atom_site_fract_z
Si Si1 0.500000 0.673473 0.554907
Si Si2 0.689343 0.316171 0.000000
Si Si3 0.189145 0.183426 0.630587
Si Si4 0.000000 0.316510 0.053522
Si Si5 0.385358 0.315015 0.914351
Si Si6 0.188985 0.816071 0.270720
Si Si7 0.311440 0.315075 0.829537
Si Si8 0.614795 0.817433 0.447414
O O1 0.500000 0.500000 0.572354
O O2 0.500000 0.666684 0.500000
O O3 0.445129 0.761256 0.566981
O O4 0.750000 0.250000 0.000000
O O5 0.654462 0.270646 0.044097
O O6 0.693565 0.500000 0.000000
O O7 0.250000 0.250000 0.629101
O O8 0.164391 0.228283 0.680278
O O9 0.156619 0.247388 0.588026
O O10 0.190966 0.000000 0.628185
O O11 0.944982 0.254045 0.076929
O O12 0.000000 0.500000 0.055135
O O13 0.000000 0.269467 0.000000
O O14 0.390360 0.500000 0.914361
O O15 0.353944 0.267943 0.868392
O O16 0.250000 0.750000 0.271320
O O17 0.167465 0.770250 0.221017
O O18 0.191404 0.000000 0.270718
O O19 0.307007 0.500000 0.831330
O O20 0.250000 0.250000 0.836186
O O21 0.624395 0.768393 0.500000
O O22 0.617393 0.000000 0.446423
#
# Coordination Sequence:
#
# PCOD9485568 Si02
#       8
#     8   8  16   8  16  16  16  16
#     4   9  17  31  51  72  93 120 157 198 239 284
#     4  10  20  31  46  71 101 130 156 186 229 278
#     4  10  19  31  48  70  98 131 165 202 243 291
#     4  11  23  37  53  72  93 126 171 212 244 279
#     4  10  20  34  52  72  98 131 163 196 236 286
#     4   8  15  28  46  69  96 125 160 198 237 286
#     4   9  17  30  50  76 102 128 158 195 243 291
#     4  10  20  33  49  70  97 128 162 202 246 293
#
# _framework density 16.480269
#
# number of rings (size 3 to 8) (size 9 to 14) (size 15 to 20)
#    0.000    2.462    0.769    1.846    0.000    4.308 
#    0.000    0.000    0.000    0.923    0.000    3.231 
#    0.000    0.000    0.000    0.000    0.000    0.000 
#
# Total GULP energy -289638.876382 kJ/mol
# GULP energy per Si atom -5569.978392 kJ/mol
# Density = 1.644276 g / cm^3
# Si number density = 16.480269 Si / 1000 Ang^3
#
#
#
# Elastic Constant Matrix: (Units=GPa)
#
#
# Indices 1 2 3 4 5 6 
#
# 1 114.2051 30.1617 83.0182 0.0000 0.0000 0.0000
# 2 30.1617 31.5220 40.6950 0.0000 0.0000 0.0000
# 3 83.0182 40.6950 164.7131 0.0000 0.0000 0.0000
# 4 0.0000 0.0000 0.0000 13.4811 0.0000 0.0000
# 5 0.0000 0.0000 0.0000 0.0000 1.1176 0.0000
# 6 0.0000 0.0000 0.0000 0.0000 0.0000 29.7479
#
#
#
# Elastic Compliance Matrix: (Units=1/GPa)
#
#
# Indices 1 2 3 4 5 6 
#
# 1 0.014701 -0.006609 -0.005777 0.000000 0.000000 0.000000
# 2 -0.006609 0.049553 -0.008912 0.000000 0.000000 0.000000
# 3 -0.005777 -0.008912 0.011185 0.000000 0.000000 0.000000
# 4 0.000000 0.000000 0.000000 0.074178 0.000000 0.000000
# 5 0.000000 0.000000 0.000000 0.000000 0.894804 0.000000
# 6 0.000000 0.000000 0.000000 0.000000 0.000000 0.033616
#
#
# Mechanical properties :
#
#
# Convention : Reuss Voigt Hill
#
# Bulk Modulus (GPa) = 30.44744 68.68777 49.56760
# Shear Modulus (GPa) = 4.41861 19.30701 11.86281
#
# Velocity S-wave (km/s) = 1.63920 3.42646 2.68586
# Velocity P-wave (km/s) = 4.70083 7.57783 6.30561
#
# Compressibility (1/GPa) = 0.03284348
#
# Stress axis : x y z
#
# Youngs Moduli (GPa) = 68.02412 20.18057 89.40940
#
# Poissons Ratio (x) = 0.13337 0.51648
# Poissons Ratio (y) = 0.44955 0.79681
# Poissons Ratio (z) = 0.39295 0.17985
#
# Static dielectric constant tensor:
#      x y z
#    x 1.500690 0.000000 0.000000 
#    y 0.000000 1.555190 0.000000 
#    z 0.000000 0.000000 1.594970 
# 
# From -- ./inp_files/73622.got.cif
#   From: 2010.05.17/outbox.cif.g08.bks.cpg/sg65_37_cif.got.tgz:73622.got - 2010.06.03 17:01:31.
