data_PCOD9485147
_publ_section_title
;
Structure prediction by ZEFSAII (Michael W. Deem and Ramdas Pophale) SiO2 
 PCOD9485147
Probable space group: C M M M
;
_chemical_formula_sum "Si O2"
_cell_formula_units_Z 104
_cell_length_a 24.364438
_cell_length_b 8.494997
_cell_length_c 28.950601
_cell_angle_alpha 90.000000
_cell_angle_beta 90.000000
_cell_angle_gamma 90.000000
_cell_volume 5992.074605
_symmetry_space_group_name_H-M "C M M M"
_symmetry_group_IT_number 65
_symmetry_cell_setting 'orthorhombic'
loop_
_space_group_symop_operation_xyz
x,y,z
-x,-y,z
x,-y,-z
-x,y,-z
-x,-y,-z
x,y,-z
-x,y,z
x,-y,z
1/2+x,1/2+y,z
1/2-x,1/2-y,z
1/2+x,1/2-y,-z
1/2-x,1/2+y,-z
1/2-x,1/2-y,-z
1/2+x,1/2+y,-z
1/2-x,1/2+y,z
1/2+x,1/2-y,z
loop_
_atom_site_type_symbol
_atom_site_label
_atom_site_fract_x
_atom_site_fract_y
_atom_site_fract_z
Si Si1 0.311968 0.809909 0.949000
Si Si2 0.187982 0.187470 0.229946
Si Si3 0.500000 0.191313 0.843617
Si Si4 0.500000 0.191145 0.262931
Si Si5 0.066404 0.680147 0.500000
Si Si6 0.121651 0.308716 0.140715
Si Si7 0.564076 0.312247 0.599460
Si Si8 0.112919 0.688779 0.309851
O O1 0.250000 0.750000 0.944877
O O2 0.345985 0.755523 0.904787
O O3 0.311665 0.000000 0.948076
O O4 0.332811 0.761261 0.000000
O O5 0.250000 0.250000 0.225055
O O6 0.150578 0.250768 0.187640
O O7 0.161343 0.242450 0.278459
O O8 0.188582 0.000000 0.228045
O O9 0.500000 0.237507 0.790073
O O10 0.558360 0.243467 0.863217
O O11 0.500000 0.000000 0.845868
O O12 0.555629 0.244839 0.286836
O O13 0.500000 0.000000 0.264916
O O14 0.085641 0.500000 0.500000
O O15 0.081336 0.764450 0.547738
O O16 0.000000 0.678793 0.500000
O O17 0.122481 0.500000 0.142612
O O18 0.500000 0.257132 0.606654
O O19 0.563816 0.500000 0.603812
O O20 0.604843 0.240035 0.637316
O O21 0.115952 0.500000 0.307124
#
# Coordination Sequence:
#
# PCOD9485147 Si02
#       8
#    16  16   8   8   8  16  16  16
#     4   9  18  32  51  75 101 131 172 220 266 310
#     4  12  25  39  54  76 104 135 172 217 265 313
#     4   9  16  30  51  76 102 137 172 204 251 309
#     4   9  16  28  50  74 101 134 173 207 247 303
#     4   9  17  29  45  67  98 141 186 223 265 318
#     4  10  19  34  55  77 104 138 173 210 256 314
#     4  10  19  30  46  73 108 142 177 221 268 313
#     4  11  20  34  54  77 104 140 179 215 258 315
#
# _framework density 17.356259000000001
#
# number of rings (size 3 to 8) (size 9 to 14) (size 15 to 20)
#    0.000    1.923    2.308    3.000    0.000    3.385 
#    0.000    1.538    0.000    2.308    0.000    0.538 
#    0.000    3.692    0.000    0.000    0.000    0.000 
#
# Total GULP energy -290037.258957 kJ/mol
# GULP energy per Si atom -5577.639595 kJ/mol
# Density = 1.731676 g / cm^3
# Si number density = 17.356259 Si / 1000 Ang^3
#
#
#
# Elastic Constant Matrix: (Units=GPa)
#
#
# Indices 1 2 3 4 5 6 
#
# 1 98.4192 22.7042 60.4713 0.0000 0.0000 0.0000
# 2 22.7042 46.9829 23.9970 0.0000 0.0000 0.0000
# 3 60.4713 23.9970 138.3187 0.0000 0.0000 0.0000
# 4 0.0000 0.0000 0.0000 19.3458 0.0000 0.0000
# 5 0.0000 0.0000 0.0000 0.0000 16.0004 0.0000
# 6 0.0000 0.0000 0.0000 0.0000 0.0000 17.4527
#
#
#
# Elastic Compliance Matrix: (Units=1/GPa)
#
#
# Indices 1 2 3 4 5 6 
#
# 1 0.014599 -0.004164 -0.005660 0.000000 0.000000 0.000000
# 2 -0.004164 0.024541 -0.002437 0.000000 0.000000 0.000000
# 3 -0.005660 -0.002437 0.010127 0.000000 0.000000 0.000000
# 4 0.000000 0.000000 0.000000 0.051691 0.000000 0.000000
# 5 0.000000 0.000000 0.000000 0.000000 0.062499 0.000000
# 6 0.000000 0.000000 0.000000 0.000000 0.000000 0.057298
#
#
# Mechanical properties :
#
#
# Convention : Reuss Voigt Hill
#
# Bulk Modulus (GPa) = 40.41250 55.34063 47.87657
# Shear Modulus (GPa) = 19.72191 22.32966 21.02579
#
# Velocity S-wave (km/s) = 3.37456 3.59074 3.48433
# Velocity P-wave (km/s) = 6.20630 7.01039 6.62056
#
# Compressibility (1/GPa) = 0.02474482
#
# Stress axis : x y z
#
# Youngs Moduli (GPa) = 68.49845 40.74748 98.74555
#
# Poissons Ratio (x) = 0.16967 0.55891
# Poissons Ratio (y) = 0.28522 0.24067
# Poissons Ratio (z) = 0.38771 0.09931
#
# Static dielectric constant tensor:
#      x y z
#    x 1.581310 0.000000 0.000000 
#    y 0.000000 1.599530 0.000000 
#    z 0.000000 0.000000 1.596720 
# 
# From -- ./inp_files/75831.got.cif
#   From: 2010.05.17/outbox.cif.g08.bks.cpg/sg65_38_cif.got.tgz:75831.got - 2010.06.03 17:01:31.
