data_PCOD9485348
_publ_section_title
;
Structure prediction by ZEFSAII (Michael W. Deem and Ramdas Pophale) SiO2 
 PCOD9485348
Probable space group: C M M M
;
_chemical_formula_sum "Si O2"
_cell_formula_units_Z 72
_cell_length_a 8.422316
_cell_length_b 24.061775
_cell_length_c 21.830137
_cell_angle_alpha 90.000000
_cell_angle_beta 90.000000
_cell_angle_gamma 90.000000
_cell_volume 4424.005462
_symmetry_space_group_name_H-M "C M M M"
_symmetry_group_IT_number 65
_symmetry_cell_setting 'orthorhombic'
loop_
_space_group_symop_operation_xyz
x,y,z
-x,-y,z
x,-y,-z
-x,y,-z
-x,-y,-z
x,y,-z
-x,y,z
x,-y,z
1/2+x,1/2+y,z
1/2-x,1/2-y,z
1/2+x,1/2-y,-z
1/2-x,1/2+y,-z
1/2-x,1/2-y,-z
1/2+x,1/2+y,-z
1/2-x,1/2+y,z
1/2+x,1/2-y,z
loop_
_atom_site_type_symbol
_atom_site_label
_atom_site_fract_x
_atom_site_fract_y
_atom_site_fract_z
Si Si1 0.692235 0.685920 0.000000
Si Si2 0.309649 0.880432 0.617207
Si Si3 0.693636 0.000000 0.428589
Si Si4 0.189105 0.187230 0.500000
Si Si5 0.191725 0.813697 0.868242
Si Si6 0.809416 0.186369 0.266351
O O1 0.750000 0.750000 0.000000
O O2 0.744629 0.661515 0.934028
O O3 0.500000 0.685843 0.000000
O O4 0.500000 0.880192 0.617301
O O5 0.254840 0.943633 0.604915
O O6 0.251375 0.844047 0.560039
O O7 0.250645 0.852646 0.679571
O O8 0.500000 0.000000 0.429332
O O9 0.744179 0.000000 0.500000
O O10 0.250000 0.250000 0.500000
O O11 0.000000 0.186875 0.500000
O O12 0.250000 0.750000 0.868830
O O13 0.243128 0.834886 0.801381
O O14 0.000000 0.814410 0.868267
O O15 0.750000 0.250000 0.274326
O O16 0.000000 0.187904 0.267888
#
# Coordination Sequence:
#
# PCOD9485348 Si02
#       6
#     8  16   8   8  16  16
#     4   8  12  20  34  54  78 113 154 187 217 254
#     4  11  21  36  55  72  91 118 151 188 228 276
#     4   9  18  36  58  74  88 111 146 187 233 280
#     4  12  24  37  52  73  97 122 150 184 223 268
#     4   8  14  23  37  56  84 118 153 187 220 260
#     4  10  19  31  45  67  97 128 157 189 229 272
#
# _framework density 16.274844000000002
#
# number of rings (size 3 to 8) (size 9 to 14) (size 15 to 20)
#    0.000    2.333    1.111    3.000    0.000    0.889 
#    0.000    2.778    0.000    0.000    0.000    0.000 
#    0.000    0.889    0.000   11.111    0.000    2.000 
#
# Total GULP energy -200475.954707 kJ/mol
# GULP energy per Si atom -5568.776520 kJ/mol
# Density = 1.623780 g / cm^3
# Si number density = 16.274844 Si / 1000 Ang^3
#
#
#
# Elastic Constant Matrix: (Units=GPa)
#
#
# Indices 1 2 3 4 5 6 
#
# 1 36.9172 19.7525 29.8265 0.0000 0.0000 0.0000
# 2 19.7525 95.9673 75.1670 0.0000 0.0000 0.0000
# 3 29.8265 75.1670 213.6904 0.0000 0.0000 0.0000
# 4 0.0000 0.0000 0.0000 -2.0466 0.0000 0.0000
# 5 0.0000 0.0000 0.0000 0.0000 3.2698 0.0000
# 6 0.0000 0.0000 0.0000 0.0000 0.0000 14.0084
#
#
#
# Elastic Compliance Matrix: (Units=1/GPa)
#
#
# Indices 1 2 3 4 5 6 
#
# 1 0.031725 -0.004226 -0.002942 0.000000 0.000000 0.000000
# 2 -0.004226 0.014946 -0.004667 0.000000 0.000000 0.000000
# 3 -0.002942 -0.004667 0.006732 0.000000 0.000000 0.000000
# 4 0.000000 0.000000 0.000000 -0.488609 0.000000 0.000000
# 5 0.000000 0.000000 0.000000 0.000000 0.305833 0.000000
# 6 0.000000 0.000000 0.000000 0.000000 0.000000 0.071386
#
#
# Mechanical properties :
#
#
# Convention : Reuss Voigt Hill
#
# Bulk Modulus (GPa) = 33.63228 66.22964 49.93096
# Shear Modulus (GPa) = -204.86473 17.83490 -93.51492
#
# Velocity S-wave (km/s) = -11.23172 3.31396 -7.58845
# Velocity P-wave (km/s) = 12.14462 7.44486 6.78476
#
# Compressibility (1/GPa) = 0.02973334
#
# Stress axis : x y z
#
# Youngs Moduli (GPa) = 31.52054 66.90841 148.54256
#
# Poissons Ratio (x) = 0.28274 0.43697
# Poissons Ratio (y) = 0.13320 0.69332
# Poissons Ratio (z) = 0.09272 0.31229
#
# Static dielectric constant tensor:
#      x y z
#    x 1.558680 0.000000 0.000000 
#    y 0.000000 1.483460 0.000000 
#    z 0.000000 0.000000 1.627500 
# 
# From -- ./inp_files/59570.got.cif
#   From: 2010.05.17/outbox.cif.g08.bks.cpg/sg65_30_cif.got.tgz:59570.got - 2010.06.03 17:01:31.
