data_PCOD9485399
_publ_section_title
;
Structure prediction by ZEFSAII (Michael W. Deem and Ramdas Pophale) SiO2 
 PCOD9485399
Probable space group: C M M M
;
_chemical_formula_sum "Si O2"
_cell_formula_units_Z 104
_cell_length_a 14.962947
_cell_length_b 21.009498
_cell_length_c 15.574543
_cell_angle_alpha 90.000000
_cell_angle_beta 90.000000
_cell_angle_gamma 90.000000
_cell_volume 4896.075715
_symmetry_space_group_name_H-M "C M M M"
_symmetry_group_IT_number 65
_symmetry_cell_setting 'orthorhombic'
loop_
_space_group_symop_operation_xyz
x,y,z
-x,-y,z
x,-y,-z
-x,y,-z
-x,-y,-z
x,y,-z
-x,y,z
x,-y,z
1/2+x,1/2+y,z
1/2-x,1/2-y,z
1/2+x,1/2-y,-z
1/2-x,1/2+y,-z
1/2-x,1/2-y,-z
1/2+x,1/2+y,-z
1/2-x,1/2+y,z
1/2+x,1/2-y,z
loop_
_atom_site_type_symbol
_atom_site_label
_atom_site_fract_x
_atom_site_fract_y
_atom_site_fract_z
Si Si1 0.890613 0.797584 0.598050
Si Si2 0.167131 0.571680 0.788867
Si Si3 0.500000 0.076281 0.907358
Si Si4 0.109373 0.698963 0.257978
Si Si5 0.104905 0.215874 0.903257
Si Si6 0.105041 0.066512 0.395515
Si Si7 0.652812 0.429498 0.897682
O O1 0.861744 0.787989 0.500000
O O2 0.866135 0.743106 0.662523
O O3 0.858189 0.866152 0.632411
O O4 0.000000 0.801201 0.596338
O O5 0.149321 0.500000 0.756031
O O6 0.156218 0.631239 0.727312
O O7 0.258647 0.570643 0.840632
O O8 0.089274 0.590052 0.856512
O O9 0.500000 0.000000 0.916061
O O10 0.500000 0.107480 0.000000
O O11 0.138935 0.736797 0.171212
O O12 0.000000 0.692647 0.256688
O O13 0.109937 0.139983 0.880964
O O14 0.000000 0.230418 0.908127
O O15 0.142898 0.224663 0.000000
O O16 0.107745 0.067274 0.500000
O O17 0.000000 0.064845 0.372278
O O18 0.146603 0.000000 0.364915
O O19 0.608744 0.500000 0.881506
O O20 0.672439 0.429351 0.000000
#
# Coordination Sequence:
#
# PCOD9485399 Si02
#       7
#    16  16   8  16  16  16  16
#     4   8  14  25  42  64  93 128 165 207 252 295
#     4  10  19  31  47  70  96 127 166 210 258 300
#     4   9  16  26  42  66  95 123 152 193 249 303
#     4  10  19  31  46  69 100 135 169 206 252 304
#     4   9  19  34  50  72 102 134 165 198 241 295
#     4   7   9  15  30  53  80 110 144 186 240 294
#     4   9  18  33  52  73  98 130 172 214 245 287
#
# _framework density 21.241502000000001
#
# number of rings (size 3 to 8) (size 9 to 14) (size 15 to 20)
#    0.000    3.154    0.769    1.846    0.000    4.000 
#    0.000    3.846    0.000    3.231    0.000    4.308 
#    0.000    1.231    0.000    0.000    0.000    0.000 
#
# Total GULP energy -289668.737337 kJ/mol
# GULP energy per Si atom -5570.552641 kJ/mol
# Density = 2.119316 g / cm^3
# Si number density = 21.241502 Si / 1000 Ang^3
#
#
#
# Elastic Constant Matrix: (Units=GPa)
#
#
# Indices 1 2 3 4 5 6 
#
# 1 40.4665 15.6403 12.6433 0.0000 0.0000 0.0000
# 2 15.6403 204.7936 64.0934 0.0000 0.0000 0.0000
# 3 12.6433 64.0934 54.2335 0.0000 0.0000 0.0000
# 4 0.0000 0.0000 0.0000 30.8354 0.0000 0.0000
# 5 0.0000 0.0000 0.0000 0.0000 6.7667 0.0000
# 6 0.0000 0.0000 0.0000 0.0000 0.0000 31.6531
#
#
#
# Elastic Compliance Matrix: (Units=1/GPa)
#
#
# Indices 1 2 3 4 5 6 
#
# 1 0.026656 -0.000144 -0.006044 0.000000 0.000000 0.000000
# 2 -0.000144 0.007750 -0.009125 0.000000 0.000000 0.000000
# 3 -0.006044 -0.009125 0.030632 0.000000 0.000000 0.000000
# 4 0.000000 0.000000 0.000000 0.032430 0.000000 0.000000
# 5 0.000000 0.000000 0.000000 0.000000 0.147782 0.000000
# 6 0.000000 0.000000 0.000000 0.000000 0.000000 0.031592
#
#
# Mechanical properties :
#
#
# Convention : Reuss Voigt Hill
#
# Bulk Modulus (GPa) = 29.06022 53.80530 41.43276
# Shear Modulus (GPa) = 15.67695 27.65881 21.66788
#
# Velocity S-wave (km/s) = 2.71963 3.61239 3.19732
# Velocity P-wave (km/s) = 4.85514 6.54098 5.76007
#
# Compressibility (1/GPa) = 0.03441130
#
# Stress axis : x y z
#
# Youngs Moduli (GPa) = 37.51516 129.03471 32.64567
#
# Poissons Ratio (x) = 0.01861 0.19730
# Poissons Ratio (y) = 0.00541 0.29790
# Poissons Ratio (z) = 0.22673 1.17747
#
# Static dielectric constant tensor:
#      x y z
#    x 1.874360 0.000000 0.000000 
#    y 0.000000 1.834330 0.000000 
#    z 0.000000 0.000000 1.799550 
# 
# From -- ./inp_files/54566.got.cif
#   From: 2010.05.17/outbox.cif.g08.bks.cpg/sg65_28_cif.got.tgz:54566.got - 2010.06.03 17:01:31.
