data_PCOD9485904
_publ_section_title
;
Structure prediction by ZEFSAII (Michael W. Deem and Ramdas Pophale) SiO2 
 PCOD9485904
Probable space group: C M M M
;
_chemical_formula_sum "Si O2"
_cell_formula_units_Z 72
_cell_length_a 7.812964
_cell_length_b 18.249335
_cell_length_c 25.531045
_cell_angle_alpha 90.000000
_cell_angle_beta 90.000000
_cell_angle_gamma 90.000000
_cell_volume 3640.252073
_symmetry_space_group_name_H-M "C M M M"
_symmetry_group_IT_number 65
_symmetry_cell_setting 'orthorhombic'
loop_
_space_group_symop_operation_xyz
x,y,z
-x,-y,z
x,-y,-z
-x,y,-z
-x,-y,-z
x,y,-z
-x,y,z
x,-y,z
1/2+x,1/2+y,z
1/2-x,1/2-y,z
1/2+x,1/2-y,-z
1/2-x,1/2+y,-z
1/2-x,1/2-y,-z
1/2+x,1/2+y,-z
1/2-x,1/2+y,z
1/2+x,1/2-y,z
loop_
_atom_site_type_symbol
_atom_site_label
_atom_site_fract_x
_atom_site_fract_y
_atom_site_fract_z
Si Si1 0.206135 0.336529 0.943771
Si Si2 0.500000 0.585938 0.437490
Si Si3 0.705236 0.836171 0.170577
Si Si4 0.694222 0.834400 0.378132
Si Si5 0.299107 0.584271 0.723757
O O1 0.250000 0.250000 0.943976
O O2 0.267348 0.363218 0.886908
O O3 0.000000 0.343700 0.943762
O O4 0.269267 0.366632 0.000000
O O5 0.500000 0.500000 0.424115
O O6 0.500000 0.594105 0.500000
O O7 0.668377 0.622926 0.413187
O O8 0.500000 0.842434 0.171881
O O9 0.750000 0.750000 0.175607
O O10 0.777402 0.880932 0.219094
O O11 0.500000 0.840330 0.397856
O O12 0.750000 0.750000 0.375684
O O13 0.704326 0.868534 0.320035
O O14 0.500000 0.585904 0.709952
O O15 0.240921 0.500000 0.723431
#
# Coordination Sequence:
#
# PCOD9485904 Si02
#       5
#    16   8  16  16  16
#     4   8  14  25  42  66  98 135 178 232 293 355
#     4  11  26  48  72 104 145 181 220 270 321 378
#     4  10  19  31  50  78 109 144 189 241 299 369
#     4  12  24  44  71 102 134 175 221 271 324 379
#     4  11  23  39  59  83 118 158 201 256 316 379
#
# _framework density 19.778849999999998
#
# number of rings (size 3 to 8) (size 9 to 14) (size 15 to 20)
#    0.000    1.667    2.222    2.667    0.000    4.889 
#    0.000    1.111    0.000    0.667    0.000    4.667 
#    0.000    0.000    0.000    0.000    0.000    0.000 
#
# Total GULP energy -200995.599369 kJ/mol
# GULP energy per Si atom -5583.211094 kJ/mol
# Density = 1.973383 g / cm^3
# Si number density = 19.778850 Si / 1000 Ang^3
#
#
#
# Elastic Constant Matrix: (Units=GPa)
#
#
# Indices 1 2 3 4 5 6 
#
# 1 108.1093 42.3372 43.6644 0.0000 0.0000 0.0000
# 2 42.3372 114.8105 71.4390 0.0000 0.0000 0.0000
# 3 43.6644 71.4390 121.7526 0.0000 0.0000 0.0000
# 4 0.0000 0.0000 0.0000 65.1553 0.0000 0.0000
# 5 0.0000 0.0000 0.0000 0.0000 23.8786 0.0000
# 6 0.0000 0.0000 0.0000 0.0000 0.0000 21.7759
#
#
#
# Elastic Compliance Matrix: (Units=1/GPa)
#
#
# Indices 1 2 3 4 5 6 
#
# 1 0.011285 -0.002588 -0.002529 0.000000 0.000000 0.000000
# 2 -0.002588 0.014312 -0.007470 0.000000 0.000000 0.000000
# 3 -0.002529 -0.007470 0.013503 0.000000 0.000000 0.000000
# 4 0.000000 0.000000 0.000000 0.015348 0.000000 0.000000
# 5 0.000000 0.000000 0.000000 0.000000 0.041879 0.000000
# 6 0.000000 0.000000 0.000000 0.000000 0.000000 0.045922
#
#
# Mechanical properties :
#
#
# Convention : Reuss Voigt Hill
#
# Bulk Modulus (GPa) = 71.79978 73.28374 72.54176
# Shear Modulus (GPa) = 29.05902 34.64407 31.85154
#
# Velocity S-wave (km/s) = 3.83717 4.18972 4.01731
# Velocity P-wave (km/s) = 7.48411 7.78055 7.63377
#
# Compressibility (1/GPa) = 0.01392762
#
# Stress axis : x y z
#
# Youngs Moduli (GPa) = 88.61609 69.87042 74.05732
#
# Poissons Ratio (x) = 0.18082 0.18726
# Poissons Ratio (y) = 0.22933 0.55318
# Poissons Ratio (z) = 0.22407 0.52191
#
# Static dielectric constant tensor:
#      x y z
#    x 1.706270 0.000000 0.000000 
#    y 0.000000 1.646530 0.000000 
#    z 0.000000 0.000000 1.726110 
# 
# From -- ./inp_files/72693.got.cif
#   From: 2010.05.17/outbox.cif.g08.bks.cpg/sg65_37_cif.got.tgz:72693.got - 2010.06.03 17:01:31.
