data_PCOD9485665
_publ_section_title
;
Structure prediction by ZEFSAII (Michael W. Deem and Ramdas Pophale) SiO2 
 PCOD9485665
Probable space group: C M M M
;
_chemical_formula_sum "Si O2"
_cell_formula_units_Z 96
_cell_length_a 7.734108
_cell_length_b 19.227531
_cell_length_c 32.135163
_cell_angle_alpha 90.000000
_cell_angle_beta 90.000000
_cell_angle_gamma 90.000000
_cell_volume 4778.749435
_symmetry_space_group_name_H-M "C M M M"
_symmetry_group_IT_number 65
_symmetry_cell_setting 'orthorhombic'
loop_
_space_group_symop_operation_xyz
x,y,z
-x,-y,z
x,-y,-z
-x,y,-z
-x,-y,-z
x,y,-z
-x,y,z
x,-y,z
1/2+x,1/2+y,z
1/2-x,1/2-y,z
1/2+x,1/2-y,-z
1/2-x,1/2+y,-z
1/2-x,1/2-y,-z
1/2+x,1/2+y,-z
1/2-x,1/2+y,z
1/2+x,1/2-y,z
loop_
_atom_site_type_symbol
_atom_site_label
_atom_site_fract_x
_atom_site_fract_y
_atom_site_fract_z
Si Si1 0.705125 0.669079 0.545438
Si Si2 0.793529 0.421851 0.375288
Si Si3 0.791968 0.331281 0.204339
Si Si4 0.207963 0.670231 0.046973
Si Si5 0.711030 0.918973 0.282944
Si Si6 0.788071 0.580217 0.124649
O O1 0.776305 0.646246 0.500000
O O2 0.500000 0.662960 0.543487
O O3 0.750000 0.750000 0.550391
O O4 0.760409 0.626365 0.585522
O O5 0.726148 0.500000 0.382755
O O6 0.730863 0.398353 0.329562
O O7 0.000000 0.426499 0.371355
O O8 0.750000 0.250000 0.202430
O O9 0.727324 0.368705 0.246366
O O10 0.730640 0.373919 0.163985
O O11 0.000000 0.336991 0.204509
O O12 0.250000 0.750000 0.058191
O O13 0.270139 0.617299 0.082115
O O14 0.000000 0.664429 0.045630
O O15 0.273790 0.657498 0.000000
O O16 0.500000 0.917184 0.282218
O O17 0.758975 0.000000 0.276038
O O18 0.734098 0.500000 0.127691
O O19 0.000000 0.580501 0.124612
#
# Coordination Sequence:
#
# PCOD9485665 Si02
#       6
#    16  16  16  16  16  16
#     4  10  21  36  53  73  99 131 166 204 244 286
#     4   9  18  33  53  76 101 129 161 197 239 289
#     4  10  19  31  49  71  95 123 156 195 236 280
#     4   9  17  29  46  68  94 123 154 192 237 282
#     4   8  15  30  51  72  94 123 159 195 231 275
#     4   9  17  29  47  70  92 119 159 200 235 275
#
# _framework density 20.088937999999999
#
# number of rings (size 3 to 8) (size 9 to 14) (size 15 to 20)
#    0.000    2.833    0.000    2.500    0.000    4.667 
#    0.000    5.833    0.000    4.500    0.000    2.333 
#    0.000    0.000    0.000    0.000    0.000    0.000 
#
# Total GULP energy -267743.905413 kJ/mol
# GULP energy per Si atom -5577.998029 kJ/mol
# Density = 2.004321 g / cm^3
# Si number density = 20.088938 Si / 1000 Ang^3
#
#
#
# Elastic Constant Matrix: (Units=GPa)
#
#
# Indices 1 2 3 4 5 6 
#
# 1 27.8996 0.1501 9.7025 0.0000 0.0000 0.0000
# 2 0.1501 153.3408 144.3578 0.0000 0.0000 0.0000
# 3 9.7025 144.3578 212.6806 0.0000 0.0000 0.0000
# 4 0.0000 0.0000 0.0000 44.9217 0.0000 0.0000
# 5 0.0000 0.0000 0.0000 0.0000 -268.9127 0.0000
# 6 0.0000 0.0000 0.0000 0.0000 0.0000 21.0332
#
#
#
# Elastic Compliance Matrix: (Units=1/GPa)
#
#
# Indices 1 2 3 4 5 6 
#
# 1 0.037441 0.004353 -0.004662 0.000000 0.000000 0.000000
# 2 0.004353 0.018570 -0.012803 0.000000 0.000000 0.000000
# 3 -0.004662 -0.012803 0.013605 0.000000 0.000000 0.000000
# 4 0.000000 0.000000 0.000000 0.022261 0.000000 0.000000
# 5 0.000000 0.000000 0.000000 0.000000 -0.003719 0.000000
# 6 0.000000 0.000000 0.000000 0.000000 0.000000 0.047544
#
#
# Mechanical properties :
#
#
# Convention : Reuss Voigt Hill
#
# Bulk Modulus (GPa) = 23.04679 78.03795 50.54237
# Shear Modulus (GPa) = 28.34597 -24.61085 1.86756
#
# Velocity S-wave (km/s) = 3.76044 -3.50393 0.96523
# Velocity P-wave (km/s) = 5.50924 4.74979 5.14355
#
# Compressibility (1/GPa) = 0.04338999
#
# Stress axis : x y z
#
# Youngs Moduli (GPa) = 26.70878 53.84902 73.50298
#
# Poissons Ratio (x) = -0.23439 0.34270
# Poissons Ratio (y) = -0.11625 0.94108
# Poissons Ratio (z) = 0.12453 0.68945
#
# Static dielectric constant tensor:
#      x y z
#    x 1.773710 0.000000 0.000000 
#    y 0.000000 1.655670 0.000000 
#    z 0.000000 0.000000 1.737450 
# 
# From -- ./inp_files/73070.got.cif
#   From: 2010.05.17/outbox.cif.g08.bks.cpg/sg65_37_cif.got.tgz:73070.got - 2010.06.03 17:01:31.
