data_PCOD9485406
_publ_section_title
;
Structure prediction by ZEFSAII (Michael W. Deem and Ramdas Pophale) SiO2 
 PCOD9485406
Probable space group: C M M M
;
_chemical_formula_sum "Si O2"
_cell_formula_units_Z 120
_cell_length_a 27.796643
_cell_length_b 16.019827
_cell_length_c 15.111417
_cell_angle_alpha 90.000000
_cell_angle_beta 90.000000
_cell_angle_gamma 90.000000
_cell_volume 6729.074882
_symmetry_space_group_name_H-M "C M M M"
_symmetry_group_IT_number 65
_symmetry_cell_setting 'orthorhombic'
loop_
_space_group_symop_operation_xyz
x,y,z
-x,-y,z
x,-y,-z
-x,y,-z
-x,-y,-z
x,y,-z
-x,y,z
x,-y,z
1/2+x,1/2+y,z
1/2-x,1/2-y,z
1/2+x,1/2-y,-z
1/2-x,1/2+y,-z
1/2-x,1/2-y,-z
1/2+x,1/2+y,-z
1/2-x,1/2+y,z
1/2+x,1/2-y,z
loop_
_atom_site_type_symbol
_atom_site_label
_atom_site_fract_x
_atom_site_fract_y
_atom_site_fract_z
Si Si1 0.702349 0.404825 0.218066
Si Si2 0.945129 0.677040 0.164674
Si Si3 0.739158 0.656043 0.400248
Si Si4 0.185289 0.595024 0.834756
Si Si5 0.844685 0.596020 0.631413
Si Si6 0.945694 0.500000 0.896099
Si Si7 0.052606 0.398779 0.356729
Si Si8 0.854365 0.232055 0.897218
O O1 0.684811 0.500000 0.204945
O O2 0.708044 0.386540 0.323421
O O3 0.757369 0.401406 0.183031
O O4 0.671547 0.335412 0.166152
O O5 0.924403 0.588709 0.128761
O O6 0.948570 0.656643 0.268132
O O7 0.908627 0.748661 0.136224
O O8 0.000000 0.688720 0.130792
O O9 0.718534 0.653456 0.500000
O O10 0.750000 0.750000 0.371003
O O11 0.793529 0.623063 0.404256
O O12 0.174977 0.500000 0.867881
O O13 0.160149 0.604654 0.738117
O O14 0.171482 0.677246 0.888975
O O15 0.846890 0.500000 0.609460
O O16 0.896693 0.628740 0.601155
O O17 0.000000 0.500000 0.855526
O O18 0.949881 0.500000 0.000000
O O19 0.056355 0.500000 0.336766
O O20 0.000000 0.389161 0.399828
O O21 0.853745 0.206018 0.000000
#
# Coordination Sequence:
#
# PCOD9485406 Si02
#       8
#    16  16  16  16  16   8  16  16
#     4  10  22  40  58  74 102 143 187 235 272 312
#     4  10  19  31  46  70 102 140 183 227 274 326
#     4  10  20  34  57  87 112 135 165 213 280 343
#     4   9  18  33  51  73 103 140 179 222 272 325
#     4   9  16  28  47  70 103 142 176 211 250 302
#     4   9  16  26  40  62 100 140 171 215 269 321
#     4   9  15  25  44  69  99 140 185 219 251 300
#     4  12  24  34  51  76 106 146 188 231 277 326
#
# _framework density 17.833061000000001
#
# number of rings (size 3 to 8) (size 9 to 14) (size 15 to 20)
#    0.000    2.200    2.000    3.600    0.933    3.467 
#    0.000    1.333    0.000    0.800    0.000    2.800 
#    0.000    0.533    0.000    1.200    0.000    0.000 
#
# Total GULP energy -334065.635253 kJ/mol
# GULP energy per Si atom -5567.760588 kJ/mol
# Density = 1.779247 g / cm^3
# Si number density = 17.833061 Si / 1000 Ang^3
#
#
#
# Elastic Constant Matrix: (Units=GPa)
#
#
# Indices 1 2 3 4 5 6 
#
# 1 92.6604 47.2128 25.3914 0.0000 0.0000 0.0000
# 2 47.2128 84.7368 33.9916 0.0000 0.0000 0.0000
# 3 25.3914 33.9916 76.7767 0.0000 0.0000 0.0000
# 4 0.0000 0.0000 0.0000 10.3775 0.0000 0.0000
# 5 0.0000 0.0000 0.0000 0.0000 -1.5366 0.0000
# 6 0.0000 0.0000 0.0000 0.0000 0.0000 32.2813
#
#
#
# Elastic Compliance Matrix: (Units=1/GPa)
#
#
# Indices 1 2 3 4 5 6 
#
# 1 0.015222 -0.007857 -0.001555 0.000000 0.000000 0.000000
# 2 -0.007857 0.018405 -0.005550 0.000000 0.000000 0.000000
# 3 -0.001555 -0.005550 0.015996 0.000000 0.000000 0.000000
# 4 0.000000 0.000000 0.000000 0.096362 0.000000 0.000000
# 5 0.000000 0.000000 0.000000 0.000000 -0.650797 0.000000
# 6 0.000000 0.000000 0.000000 0.000000 0.000000 0.030978
#
#
# Mechanical properties :
#
#
# Convention : Reuss Voigt Hill
#
# Bulk Modulus (GPa) = 50.76654 51.92949 51.34802
# Shear Modulus (GPa) = -11.43270 18.06299 3.31515
#
# Velocity S-wave (km/s) = -2.53473 3.18605 1.36493
# Velocity P-wave (km/s) = 4.46799 6.53587 5.59824
#
# Compressibility (1/GPa) = 0.01969801
#
# Stress axis : x y z
#
# Youngs Moduli (GPa) = 65.69559 54.33186 62.51380
#
# Poissons Ratio (x) = 0.42689 0.09724
# Poissons Ratio (y) = 0.51618 0.34696
# Poissons Ratio (z) = 0.10219 0.30155
#
# Static dielectric constant tensor:
#      x y z
#    x 2.310550 0.000000 0.000000 
#    y 0.000000 1.525430 0.000000 
#    z 0.000000 0.000000 1.685580 
# 
# From -- ./inp_files/48104.got.cif
#   From: 2010.05.17/outbox.cif.g08.bks.cpg/sg65_25_cif.got.tgz:48104.got - 2010.06.03 17:01:31.
