data_PCOD9485891
_publ_section_title
;
Structure prediction by ZEFSAII (Michael W. Deem and Ramdas Pophale) SiO2 
 PCOD9485891
Probable space group: C M M M
;
_chemical_formula_sum "Si O2"
_cell_formula_units_Z 72
_cell_length_a 14.239630
_cell_length_b 13.831747
_cell_length_c 17.275469
_cell_angle_alpha 90.000000
_cell_angle_beta 90.000000
_cell_angle_gamma 90.000000
_cell_volume 3402.558400
_symmetry_space_group_name_H-M "C M M M"
_symmetry_group_IT_number 65
_symmetry_cell_setting 'orthorhombic'
loop_
_space_group_symop_operation_xyz
x,y,z
-x,-y,z
x,-y,-z
-x,y,-z
-x,-y,-z
x,y,-z
-x,y,z
x,-y,z
1/2+x,1/2+y,z
1/2-x,1/2-y,z
1/2+x,1/2-y,-z
1/2-x,1/2+y,-z
1/2-x,1/2-y,-z
1/2+x,1/2+y,-z
1/2-x,1/2+y,z
1/2+x,1/2-y,z
loop_
_atom_site_type_symbol
_atom_site_label
_atom_site_fract_x
_atom_site_fract_y
_atom_site_fract_z
Si Si1 0.885858 0.803828 0.246308
Si Si2 0.205753 0.000000 0.581244
Si Si3 0.390149 0.000000 0.128796
Si Si4 0.731412 0.500000 0.745226
Si Si5 0.887911 0.790328 0.415867
Si Si6 0.112035 0.286522 0.082629
O O1 0.859819 0.754173 0.329487
O O2 0.857221 0.751410 0.166674
O O3 0.000000 0.814179 0.246605
O O4 0.834466 0.906740 0.243910
O O5 0.267234 0.000000 0.657186
O O6 0.142735 0.096821 0.583961
O O7 0.258195 0.000000 0.500000
O O8 0.319213 0.000000 0.199385
O O9 0.372914 0.901257 0.083536
O O10 0.500000 0.000000 0.152518
O O11 0.854933 0.749156 0.500000
O O12 0.000000 0.784261 0.417341
O O13 0.000000 0.270209 0.082560
O O14 0.146867 0.245229 0.000000
#
# Coordination Sequence:
#
# PCOD9485891 Si02
#       6
#    16   8   8   8  16  16
#     4   9  17  30  50  78 110 137 159 191 244 308
#     4   8  13  22  39  64  96 132 166 198 232 278
#     4  10  21  37  55  71  89 122 174 227 259 280
#     4  10  19  31  50  77 107 136 164 198 246 302
#     4   8  12  19  36  66 102 135 162 188 225 281
#     4   9  18  35  57  76  97 129 168 211 255 295
#
# _framework density 21.160549
#
# number of rings (size 3 to 8) (size 9 to 14) (size 15 to 20)
#    0.000    3.111    0.000    1.000    0.000    6.222 
#    0.000    3.889    0.000    4.333    0.000    9.333 
#    0.000    0.000    0.000    0.000    0.000    0.000 
#
# Total GULP energy -200423.252062 kJ/mol
# GULP energy per Si atom -5567.312557 kJ/mol
# Density = 2.111239 g / cm^3
# Si number density = 21.160549 Si / 1000 Ang^3
#
#
#
# Elastic Constant Matrix: (Units=GPa)
#
#
# Indices 1 2 3 4 5 6 
#
# 1 65.7008 2.8212 50.1485 0.0000 0.0000 0.0000
# 2 2.8212 38.3066 46.7397 0.0000 0.0000 0.0000
# 3 50.1485 46.7397 269.9038 0.0000 0.0000 0.0000
# 4 0.0000 0.0000 0.0000 241.1473 0.0000 0.0000
# 5 0.0000 0.0000 0.0000 0.0000 -7.9202 0.0000
# 6 0.0000 0.0000 0.0000 0.0000 0.0000 5.2428
#
#
#
# Elastic Compliance Matrix: (Units=1/GPa)
#
#
# Indices 1 2 3 4 5 6 
#
# 1 0.018101 0.003513 -0.003972 0.000000 0.000000 0.000000
# 2 0.003513 0.033780 -0.006502 0.000000 0.000000 0.000000
# 3 -0.003972 -0.006502 0.005569 0.000000 0.000000 0.000000
# 4 0.000000 0.000000 0.000000 0.004147 0.000000 0.000000
# 5 0.000000 0.000000 0.000000 0.000000 -0.126260 0.000000
# 6 0.000000 0.000000 0.000000 0.000000 0.000000 0.190740
#
#
# Mechanical properties :
#
#
# Convention : Reuss Voigt Hill
#
# Bulk Modulus (GPa) = 22.97376 63.70335 43.33856
# Shear Modulus (GPa) = 32.36069 65.97410 49.16739
#
# Velocity S-wave (km/s) = 3.91486 5.58977 4.82554
# Velocity P-wave (km/s) = 5.59601 8.47531 7.18144
#
# Compressibility (1/GPa) = 0.04352792
#
# Stress axis : x y z
#
# Youngs Moduli (GPa) = 55.24535 29.60296 179.56598
#
# Poissons Ratio (x) = -0.10399 0.71315
# Poissons Ratio (y) = -0.19406 1.16762
# Poissons Ratio (z) = 0.21941 0.19249
#
# Static dielectric constant tensor:
#      x y z
#    x 1.713350 0.000000 0.000000 
#    y 0.000000 1.754810 0.000000 
#    z 0.000000 0.000000 1.869430 
# 
# From -- ./inp_files/52782.got.cif
#   From: 2010.05.17/outbox.cif.g08.bks.cpg/sg65_27_cif.got.tgz:52782.got - 2010.06.03 17:01:31.
