data_PCOD9485773
_publ_section_title
;
Structure prediction by ZEFSAII (Michael W. Deem and Ramdas Pophale) SiO2 
 PCOD9485773
Probable space group: C M M M
;
_chemical_formula_sum "Si O2"
_cell_formula_units_Z 104
_cell_length_a 8.031849
_cell_length_b 29.281525
_cell_length_c 24.882324
_cell_angle_alpha 90.000000
_cell_angle_beta 90.000000
_cell_angle_gamma 90.000000
_cell_volume 5851.944077
_symmetry_space_group_name_H-M "C M M M"
_symmetry_group_IT_number 65
_symmetry_cell_setting 'orthorhombic'
loop_
_space_group_symop_operation_xyz
x,y,z
-x,-y,z
x,-y,-z
-x,y,-z
-x,-y,-z
x,y,-z
-x,y,z
x,-y,z
1/2+x,1/2+y,z
1/2-x,1/2-y,z
1/2+x,1/2-y,-z
1/2-x,1/2+y,-z
1/2-x,1/2-y,-z
1/2+x,1/2+y,-z
1/2-x,1/2+y,z
1/2+x,1/2-y,z
loop_
_atom_site_type_symbol
_atom_site_label
_atom_site_fract_x
_atom_site_fract_y
_atom_site_fract_z
Si Si1 0.700386 0.948053 0.560365
Si Si2 0.200564 0.893812 0.664467
Si Si3 0.194545 0.396836 0.878738
Si Si4 0.798917 0.946310 0.771765
Si Si5 0.696437 0.699334 0.288497
Si Si6 0.302101 0.199694 0.164763
Si Si7 0.500000 0.447005 0.935671
O O1 0.757920 0.935730 0.500000
O O2 0.500000 0.949338 0.559047
O O3 0.750357 0.914211 0.607451
O O4 0.758824 0.000000 0.571944
O O5 0.251661 0.926447 0.713921
O O6 0.267033 0.843216 0.678132
O O7 0.000000 0.892577 0.665769
O O8 0.211228 0.419065 0.819537
O O9 0.243238 0.343515 0.871776
O O10 0.332790 0.422565 0.914097
O O11 0.000000 0.400460 0.896215
O O12 0.000000 0.940101 0.777772
O O13 0.763570 0.000000 0.775294
O O14 0.500000 0.697853 0.294358
O O15 0.750000 0.750000 0.304547
O O16 0.733694 0.693275 0.225134
O O17 0.500000 0.199324 0.169669
O O18 0.250000 0.250000 0.145436
O O19 0.500000 0.500000 0.917006
O O20 0.500000 0.446295 0.000000
#
# Coordination Sequence:
#
# PCOD9485773 Si02
#       7
#    16  16  16  16  16  16   8
#     4   9  19  35  52  71  99 137 180 227 278 332
#     4  10  20  32  50  76 106 141 180 224 278 333
#     4  11  23  38  61  92 121 155 198 244 295 352
#     4  10  19  32  51  77 115 154 182 221 285 347
#     4  10  19  31  49  74 110 146 178 220 273 336
#     4  10  20  32  54  87 117 152 192 232 287 351
#     4  11  26  46  68  90 118 164 207 245 296 340
#
# _framework density 17.771871000000001
#
# number of rings (size 3 to 8) (size 9 to 14) (size 15 to 20)
#    0.000    1.923    2.308    3.231    2.154    4.615 
#    0.000    1.538    0.000    0.923    0.000    0.000 
#    0.000    0.000    0.000    0.000    0.000    0.000 
#
# Total GULP energy -290155.666951 kJ/mol
# GULP energy per Si atom -5579.916672 kJ/mol
# Density = 1.773142 g / cm^3
# Si number density = 17.771871 Si / 1000 Ang^3
#
#
#
# Elastic Constant Matrix: (Units=GPa)
#
#
# Indices 1 2 3 4 5 6 
#
# 1 48.5587 47.1382 28.1286 0.0000 0.0000 0.0000
# 2 47.1382 146.2489 51.8041 0.0000 0.0000 0.0000
# 3 28.1286 51.8041 71.6582 0.0000 0.0000 0.0000
# 4 0.0000 0.0000 0.0000 16.2930 0.0000 0.0000
# 5 0.0000 0.0000 0.0000 0.0000 8.9120 0.0000
# 6 0.0000 0.0000 0.0000 0.0000 0.0000 24.8091
#
#
#
# Elastic Compliance Matrix: (Units=1/GPa)
#
#
# Indices 1 2 3 4 5 6 
#
# 1 0.032348 -0.007969 -0.006937 0.000000 0.000000 0.000000
# 2 -0.007969 0.011155 -0.004936 0.000000 0.000000 0.000000
# 3 -0.006937 -0.004936 0.020246 0.000000 0.000000 0.000000
# 4 0.000000 0.000000 0.000000 0.061376 0.000000 0.000000
# 5 0.000000 0.000000 0.000000 0.000000 0.112208 0.000000
# 6 0.000000 0.000000 0.000000 0.000000 0.000000 0.040308
#
#
# Mechanical properties :
#
#
# Convention : Reuss Voigt Hill
#
# Bulk Modulus (GPa) = 41.55316 57.84530 49.69923
# Shear Modulus (GPa) = 15.36829 19.29581 17.33205
#
# Velocity S-wave (km/s) = 2.94386 3.29865 3.12629
# Velocity P-wave (km/s) = 5.91500 6.86495 6.40761
#
# Compressibility (1/GPa) = 0.02406556
#
# Stress axis : x y z
#
# Youngs Moduli (GPa) = 30.91401 89.64916 49.39172
#
# Poissons Ratio (x) = 0.71442 0.34261
# Poissons Ratio (y) = 0.24636 0.24379
# Poissons Ratio (z) = 0.21444 0.44249
#
# Static dielectric constant tensor:
#      x y z
#    x 1.623660 0.000000 0.000000 
#    y 0.000000 1.649130 0.000000 
#    z 0.000000 0.000000 1.579570 
# 
# From -- ./inp_files/68486.got.cif
#   From: 2010.05.17/outbox.cif.g08.bks.cpg/sg65_35_cif.got.tgz:68486.got - 2010.06.03 17:01:31.
