data_PCOD9485436
_publ_section_title
;
Structure prediction by ZEFSAII (Michael W. Deem and Ramdas Pophale) SiO2 
 PCOD9485436
Probable space group: C M M M
;
_chemical_formula_sum "Si O2"
_cell_formula_units_Z 64
_cell_length_a 18.317362
_cell_length_b 9.368956
_cell_length_c 21.656995
_cell_angle_alpha 90.000000
_cell_angle_beta 90.000000
_cell_angle_gamma 90.000000
_cell_volume 3716.655638
_symmetry_space_group_name_H-M "C M M M"
_symmetry_group_IT_number 65
_symmetry_cell_setting 'orthorhombic'
loop_
_space_group_symop_operation_xyz
x,y,z
-x,-y,z
x,-y,-z
-x,y,-z
-x,-y,-z
x,y,-z
-x,y,z
x,-y,z
1/2+x,1/2+y,z
1/2-x,1/2-y,z
1/2+x,1/2-y,-z
1/2-x,1/2+y,-z
1/2-x,1/2-y,-z
1/2+x,1/2+y,-z
1/2-x,1/2+y,z
1/2+x,1/2-y,z
loop_
_atom_site_type_symbol
_atom_site_label
_atom_site_fract_x
_atom_site_fract_y
_atom_site_fract_z
Si Si1 0.673260 0.172871 0.500000
Si Si2 0.589140 0.335737 0.121852
Si Si3 0.410872 0.835512 0.000000
Si Si4 0.083736 0.673580 0.378623
Si Si5 0.589098 0.834646 0.242761
O O1 0.750000 0.250000 0.500000
O O2 0.629895 0.214799 0.438027
O O3 0.680306 0.000000 0.500000
O O4 0.500000 0.334408 0.122022
O O5 0.612206 0.500000 0.118212
O O6 0.612335 0.246848 0.061785
O O7 0.612838 0.260849 0.185343
O O8 0.500000 0.835448 0.000000
O O9 0.387482 0.000000 0.000000
O O10 0.082223 0.500000 0.376800
O O11 0.112200 0.717294 0.310895
O O12 0.000000 0.721738 0.385727
O O13 0.500000 0.833667 0.244196
O O14 0.610769 0.000000 0.233811
#
# Coordination Sequence:
#
# PCOD9485436 Si02
#       5
#     8  16   8  16  16
#     4  10  19  31  47  67  91 116 142 176 220 266
#     4   9  15  21  29  44  68  97 128 163 205 251
#     4   9  15  21  29  41  61  95 136 171 200 235
#     4   8  14  26  46  67  83 107 148 189 217 250
#     4   8  13  22  36  53  71  93 128 173 212 244
#
# _framework density 17.219783
#
# number of rings (size 3 to 8) (size 9 to 14) (size 15 to 20)
#    0.000    3.375    0.000    3.000    0.000    6.000 
#    0.000    1.250    0.000    3.000    0.000    0.000 
#    0.000    0.000    0.000    1.125    0.000   14.750 
#
# Total GULP energy -178135.033772 kJ/mol
# GULP energy per Si atom -5566.719805 kJ/mol
# Density = 1.718059 g / cm^3
# Si number density = 17.219783 Si / 1000 Ang^3
#
#
#
# Elastic Constant Matrix: (Units=GPa)
#
#
# Indices 1 2 3 4 5 6 
#
# 1 21.0738 18.3342 41.6312 0.0000 0.0000 0.0000
# 2 18.3342 91.9505 91.7993 0.0000 0.0000 0.0000
# 3 41.6312 91.7993 224.1611 0.0000 0.0000 0.0000
# 4 0.0000 0.0000 0.0000 7.6157 0.0000 0.0000
# 5 0.0000 0.0000 0.0000 0.0000 -3.6726 0.0000
# 6 0.0000 0.0000 0.0000 0.0000 0.0000 10.9409
#
#
#
# Elastic Compliance Matrix: (Units=1/GPa)
#
#
# Indices 1 2 3 4 5 6 
#
# 1 0.075122 -0.001776 -0.013224 0.000000 0.000000 0.000000
# 2 -0.001776 0.018439 -0.007221 0.000000 0.000000 0.000000
# 3 -0.013224 -0.007221 0.009874 0.000000 0.000000 0.000000
# 4 0.000000 0.000000 0.000000 0.131308 0.000000 0.000000
# 5 0.000000 0.000000 0.000000 0.000000 -0.272289 0.000000
# 6 0.000000 0.000000 0.000000 0.000000 0.000000 0.091400
#
#
# Mechanical properties :
#
#
# Convention : Reuss Voigt Hill
#
# Bulk Modulus (GPa) = 16.95153 71.19052 44.07102
# Shear Modulus (GPa) = 42.38663 15.33820 28.86242
#
# Velocity S-wave (km/s) = 4.96674 2.98775 4.09849
# Velocity P-wave (km/s) = 6.53888 7.30303 6.93149
#
# Compressibility (1/GPa) = 0.05899173
#
# Stress axis : x y z
#
# Youngs Moduli (GPa) = 13.31171 54.23274 101.27204
#
# Poissons Ratio (x) = 0.09633 1.33924
# Poissons Ratio (y) = 0.02364 0.73132
# Poissons Ratio (z) = 0.17604 0.39163
#
# Static dielectric constant tensor:
#      x y z
#    x 1.548900 0.000000 0.000000 
#    y 0.000000 1.572130 0.000000 
#    z 0.000000 0.000000 1.604140 
# 
# From -- ./inp_files/59164.got.cif
#   From: 2010.05.17/outbox.cif.g08.bks.cpg/sg65_30_cif.got.tgz:59164.got - 2010.06.03 17:01:31.
