data_PCOD9485979
_publ_section_title
;
Structure prediction by ZEFSAII (Michael W. Deem and Ramdas Pophale) SiO2 
 PCOD9485979
Probable space group: C M M M
;
_chemical_formula_sum "Si O2"
_cell_formula_units_Z 104
_cell_length_a 21.384640
_cell_length_b 29.196746
_cell_length_c 9.068234
_cell_angle_alpha 90.000000
_cell_angle_beta 90.000000
_cell_angle_gamma 90.000000
_cell_volume 5661.859831
_symmetry_space_group_name_H-M "C M M M"
_symmetry_group_IT_number 65
_symmetry_cell_setting 'orthorhombic'
loop_
_space_group_symop_operation_xyz
x,y,z
-x,-y,z
x,-y,-z
-x,y,-z
-x,-y,-z
x,y,-z
-x,y,z
x,-y,z
1/2+x,1/2+y,z
1/2-x,1/2-y,z
1/2+x,1/2-y,-z
1/2-x,1/2+y,-z
1/2-x,1/2-y,-z
1/2+x,1/2+y,-z
1/2-x,1/2+y,z
1/2+x,1/2-y,z
loop_
_atom_site_type_symbol
_atom_site_label
_atom_site_fract_x
_atom_site_fract_y
_atom_site_fract_z
Si Si1 0.322942 0.198427 0.322824
Si Si2 0.819816 0.805848 0.323179
Si Si3 0.122916 0.109420 0.822635
Si Si4 0.751938 0.945563 0.828566
Si Si5 0.500000 0.553198 0.179935
Si Si6 0.069511 0.361148 0.175581
Si Si7 0.121836 0.553455 0.325153
O O1 0.326654 0.193123 0.500000
O O2 0.252360 0.184467 0.277722
O O3 0.331073 0.252403 0.289375
O O4 0.376111 0.169126 0.246307
O O5 0.823008 0.810932 0.500000
O O6 0.867049 0.840864 0.247611
O O7 0.185542 0.080952 0.785928
O O8 0.061884 0.081091 0.774336
O O9 0.119956 0.113535 0.000000
O O10 0.692503 0.935559 0.727170
O O11 0.764041 0.000000 0.821170
O O12 0.736680 0.934572 0.000000
O O13 0.500000 0.500000 0.228431
O O14 0.500000 0.552083 0.000000
O O15 0.077581 0.412102 0.239156
O O16 0.000000 0.343784 0.212733
O O17 0.076215 0.361838 0.000000
O O18 0.116064 0.559947 0.500000
O O19 0.110384 0.500000 0.290940
#
# Coordination Sequence:
#
# PCOD9485979 Si02
#       7
#    16  16  16  16   8  16  16
#     4   9  19  38  61  82 106 140 179 218 266 325
#     4   9  19  36  58  83 109 136 172 222 275 323
#     4  10  19  31  51  79 106 141 184 226 272 322
#     4   9  17  30  50  77 107 138 177 225 273 318
#     4   9  18  34  53  73 105 149 193 231 268 321
#     4  11  24  39  55  79 110 143 177 216 264 312
#     4  10  21  36  55  80 108 140 179 220 262 313
#
# _framework density 18.368523
#
# number of rings (size 3 to 8) (size 9 to 14) (size 15 to 20)
#    0.000    2.385    0.000    3.231    0.000    8.615 
#    1.385    3.462    0.000    1.846    0.000    0.000 
#    0.000    0.000    0.000    0.000    0.000    0.000 
#
# Total GULP energy -290260.947353 kJ/mol
# GULP energy per Si atom -5581.941295 kJ/mol
# Density = 1.832672 g / cm^3
# Si number density = 18.368523 Si / 1000 Ang^3
#
#
#
# Elastic Constant Matrix: (Units=GPa)
#
#
# Indices 1 2 3 4 5 6 
#
# 1 95.8958 70.8887 33.5394 0.0000 0.0000 0.0000
# 2 70.8887 94.1581 33.7874 0.0000 0.0000 0.0000
# 3 33.5394 33.7874 23.7693 0.0000 0.0000 0.0000
# 4 0.0000 0.0000 0.0000 32.8596 0.0000 0.0000
# 5 0.0000 0.0000 0.0000 0.0000 -3.4694 0.0000
# 6 0.0000 0.0000 0.0000 0.0000 0.0000 26.4647
#
#
#
# Elastic Compliance Matrix: (Units=1/GPa)
#
#
# Indices 1 2 3 4 5 6 
#
# 1 0.027108 -0.013641 -0.018860 0.000000 0.000000 0.000000
# 2 -0.013641 0.028542 -0.021324 0.000000 0.000000 0.000000
# 3 -0.018860 -0.021324 0.098995 0.000000 0.000000 0.000000
# 4 0.000000 0.000000 0.000000 0.030433 0.000000 0.000000
# 5 0.000000 0.000000 0.000000 0.000000 -0.288237 0.000000
# 6 0.000000 0.000000 0.000000 0.000000 0.000000 0.037786
#
#
# Mechanical properties :
#
#
# Convention : Reuss Voigt Hill
#
# Bulk Modulus (GPa) = 21.27888 54.47269 37.87579
# Shear Modulus (GPa) = 86.29273 16.21150 51.25211
#
# Velocity S-wave (km/s) = 6.86153 2.97403 5.28798
# Velocity P-wave (km/s) = 8.62460 6.44306 7.61238
#
# Compressibility (1/GPa) = 0.04699496
#
# Stress axis : x y z
#
# Youngs Moduli (GPa) = 36.88913 35.03590 10.10154
#
# Poissons Ratio (x) = 0.47793 0.19052
# Poissons Ratio (y) = 0.50321 0.21540
# Poissons Ratio (z) = 0.69574 0.74709
#
# Static dielectric constant tensor:
#      x y z
#    x 1.624550 0.000000 0.000000 
#    y 0.000000 1.633760 0.000000 
#    z 0.000000 0.000000 1.613580 
# 
# From -- ./inp_files/12769.got.cif
#   From: 2010.05.17/outbox.cif.g08.bks.cpg/sg65_7_cif.got.tgz:12769.got - 2010.06.03 17:01:31.
