data_PCOD9485684
_publ_section_title
;
Structure prediction by ZEFSAII (Michael W. Deem and Ramdas Pophale) SiO2 
 PCOD9485684
Probable space group: C M M M
;
_chemical_formula_sum "Si O2"
_cell_formula_units_Z 96
_cell_length_a 28.459539
_cell_length_b 8.529456
_cell_length_c 24.529527
_cell_angle_alpha 90.000000
_cell_angle_beta 90.000000
_cell_angle_gamma 90.000000
_cell_volume 5954.404963
_symmetry_space_group_name_H-M "C M M M"
_symmetry_group_IT_number 65
_symmetry_cell_setting 'orthorhombic'
loop_
_space_group_symop_operation_xyz
x,y,z
-x,-y,z
x,-y,-z
-x,y,-z
-x,-y,-z
x,y,-z
-x,y,z
x,-y,z
1/2+x,1/2+y,z
1/2-x,1/2-y,z
1/2+x,1/2-y,-z
1/2-x,1/2+y,-z
1/2-x,1/2-y,-z
1/2+x,1/2+y,-z
1/2-x,1/2+y,z
1/2+x,1/2-y,z
loop_
_atom_site_type_symbol
_atom_site_label
_atom_site_fract_x
_atom_site_fract_y
_atom_site_fract_z
Si Si1 0.447127 0.309426 0.774131
Si Si2 0.889726 0.810208 0.333318
Si Si3 0.198017 0.313472 0.270568
Si Si4 0.197745 0.687699 0.062258
Si Si5 0.644647 0.311891 0.164898
Si Si6 0.445924 0.691105 0.438293
O O1 0.500000 0.251430 0.782461
O O2 0.448621 0.500000 0.775564
O O3 0.426400 0.267439 0.714801
O O4 0.407848 0.259927 0.817819
O O5 0.839729 0.742044 0.315516
O O6 0.910652 0.757290 0.391056
O O7 0.886094 0.000000 0.333397
O O8 0.198856 0.500000 0.267942
O O9 0.250000 0.250000 0.281164
O O10 0.178936 0.247983 0.212822
O O11 0.198618 0.500000 0.064358
O O12 0.250000 0.750000 0.074957
O O13 0.162037 0.750956 0.107048
O O14 0.186607 0.736441 0.000000
O O15 0.645957 0.500000 0.165412
O O16 0.434046 0.740582 0.500000
O O17 0.500000 0.737673 0.426778
O O18 0.445564 0.500000 0.437763
#
# Coordination Sequence:
#
# PCOD9485684 Si02
#       6
#    16  16  16  16  16  16
#     4   8  14  25  43  67  92 119 151 186 222 260
#     4   9  16  27  45  69  95 122 153 189 228 269
#     4  11  21  33  48  66  91 120 152 189 230 277
#     4  10  20  33  49  69  94 123 154 188 227 271
#     4  10  19  31  49  72  96 121 151 187 227 270
#     4   8  13  22  41  71 101 126 154 189 227 268
#
# _framework density 16.122519
#
# number of rings (size 3 to 8) (size 9 to 14) (size 15 to 20)
#    0.000    2.667    0.000    5.000    0.000    3.000 
#    0.000    0.000    0.000   18.500    0.000    4.667 
#    0.000    0.000    0.000    0.000    0.000    0.000 
#
# Total GULP energy -267590.176760 kJ/mol
# GULP energy per Si atom -5574.795349 kJ/mol
# Density = 1.608582 g / cm^3
# Si number density = 16.122519 Si / 1000 Ang^3
#
#
#
# Elastic Constant Matrix: (Units=GPa)
#
#
# Indices 1 2 3 4 5 6 
#
# 1 154.2890 30.8008 92.4556 0.0000 0.0000 0.0000
# 2 30.8008 40.0343 27.6516 0.0000 0.0000 0.0000
# 3 92.4556 27.6516 122.1930 0.0000 0.0000 0.0000
# 4 0.0000 0.0000 0.0000 16.8633 0.0000 0.0000
# 5 0.0000 0.0000 0.0000 0.0000 24.1125 0.0000
# 6 0.0000 0.0000 0.0000 0.0000 0.0000 18.3572
#
#
#
# Elastic Compliance Matrix: (Units=1/GPa)
#
#
# Indices 1 2 3 4 5 6 
#
# 1 0.012278 -0.003591 -0.008478 0.000000 0.000000 0.000000
# 2 -0.003591 0.030656 -0.004220 0.000000 0.000000 0.000000
# 3 -0.008478 -0.004220 0.015553 0.000000 0.000000 0.000000
# 4 0.000000 0.000000 0.000000 0.059300 0.000000 0.000000
# 5 0.000000 0.000000 0.000000 0.000000 0.041472 0.000000
# 6 0.000000 0.000000 0.000000 0.000000 0.000000 0.054475
#
#
# Mechanical properties :
#
#
# Convention : Reuss Voigt Hill
#
# Bulk Modulus (GPa) = 38.59492 68.70358 53.64925
# Shear Modulus (GPa) = 19.61174 22.90715 21.25945
#
# Velocity S-wave (km/s) = 3.49150 3.77346 3.63522
# Velocity P-wave (km/s) = 6.34386 7.85438 7.13918
#
# Compressibility (1/GPa) = 0.02591014
#
# Stress axis : x y z
#
# Youngs Moduli (GPa) = 81.44463 32.61971 64.29535
#
# Poissons Ratio (x) = 0.11714 0.54507
# Poissons Ratio (y) = 0.29247 0.27134
# Poissons Ratio (z) = 0.69045 0.13766
#
# Static dielectric constant tensor:
#      x y z
#    x 1.555740 0.000000 0.000000 
#    y 0.000000 1.551910 0.000000 
#    z 0.000000 0.000000 1.536010 
# 
# From -- ./inp_files/68066.got.cif
#   From: 2010.05.17/outbox.cif.g08.bks.cpg/sg65_35_cif.got.tgz:68066.got - 2010.06.03 17:01:31.
