data_PCOD9485221
_publ_section_title
;
Structure prediction by ZEFSAII (Michael W. Deem and Ramdas Pophale) SiO2 
 PCOD9485221
Probable space group: C M M M
;
_chemical_formula_sum "Si O2"
_cell_formula_units_Z 104
_cell_length_a 28.811377
_cell_length_b 8.825584
_cell_length_c 21.730055
_cell_angle_alpha 90.000000
_cell_angle_beta 90.000000
_cell_angle_gamma 90.000000
_cell_volume 5525.458147
_symmetry_space_group_name_H-M "C M M M"
_symmetry_group_IT_number 65
_symmetry_cell_setting 'orthorhombic'
loop_
_space_group_symop_operation_xyz
x,y,z
-x,-y,z
x,-y,-z
-x,y,-z
-x,-y,-z
x,y,-z
-x,y,z
x,-y,z
1/2+x,1/2+y,z
1/2-x,1/2-y,z
1/2+x,1/2-y,-z
1/2-x,1/2+y,-z
1/2-x,1/2-y,-z
1/2+x,1/2+y,-z
1/2-x,1/2+y,z
1/2+x,1/2-y,z
loop_
_atom_site_type_symbol
_atom_site_label
_atom_site_fract_x
_atom_site_fract_y
_atom_site_fract_z
Si Si1 0.054936 0.828411 0.500000
Si Si2 0.553785 0.184835 0.740252
Si Si3 0.203378 0.172212 0.750124
Si Si4 0.869684 0.678924 0.829673
Si Si5 0.297169 0.328822 0.602552
Si Si6 0.603897 0.819015 0.386097
Si Si7 0.199221 0.818787 0.071484
O O1 0.071034 0.741015 0.560414
O O2 0.000000 0.837027 0.500000
O O3 0.074229 0.000000 0.500000
O O4 0.500000 0.233193 0.737286
O O5 0.580131 0.229749 0.803567
O O6 0.582843 0.235316 0.679703
O O7 0.554268 0.000000 0.739259
O O8 0.250000 0.250000 0.773597
O O9 0.162783 0.281855 0.771386
O O10 0.206894 0.163202 0.676870
O O11 0.197213 0.000000 0.773311
O O12 0.870923 0.500000 0.841696
O O13 0.842364 0.758978 0.885347
O O14 0.300869 0.500000 0.578882
O O15 0.250000 0.250000 0.579665
O O16 0.344975 0.239193 0.595361
O O17 0.604960 0.000000 0.383963
O O18 0.250000 0.750000 0.086998
O O19 0.202219 0.000000 0.076318
O O20 0.190136 0.778627 0.000000
#
# Coordination Sequence:
#
# PCOD9485221 Si02
#       7
#     8  16  16  16  16  16  16
#     4  11  25  43  62  87 118 151 193 243 293 345
#     4   9  19  35  56  83 113 144 183 235 288 337
#     4  10  19  30  47  73 109 145 181 219 263 319
#     4  11  20  32  53  80 111 145 185 230 280 332
#     4  10  20  34  54  81 115 151 187 226 274 333
#     4  11  21  38  63  88 116 150 192 237 290 348
#     4  10  21  37  56  80 113 151 190 230 275 331
#
# _framework density 18.82197
#
# number of rings (size 3 to 8) (size 9 to 14) (size 15 to 20)
#    0.000    1.769    1.538    3.462    0.000    3.385 
#    0.000    0.385    0.000    5.077    0.000    3.231 
#    0.000    0.000    0.000    0.000    0.000    0.000 
#
# Total GULP energy -290037.751741 kJ/mol
# GULP energy per Si atom -5577.649072 kJ/mol
# Density = 1.877913 g / cm^3
# Si number density = 18.821970 Si / 1000 Ang^3
#
#
#
# Elastic Constant Matrix: (Units=GPa)
#
#
# Indices 1 2 3 4 5 6 
#
# 1 137.3486 33.7272 42.4609 0.0000 0.0000 0.0000
# 2 33.7272 67.2481 23.1409 0.0000 0.0000 0.0000
# 3 42.4609 23.1409 96.4525 0.0000 0.0000 0.0000
# 4 0.0000 0.0000 0.0000 21.3642 0.0000 0.0000
# 5 0.0000 0.0000 0.0000 0.0000 50.1770 0.0000
# 6 0.0000 0.0000 0.0000 0.0000 0.0000 22.5314
#
#
#
# Elastic Compliance Matrix: (Units=1/GPa)
#
#
# Indices 1 2 3 4 5 6 
#
# 1 0.009118 -0.003479 -0.003179 0.000000 0.000000 0.000000
# 2 -0.003479 0.017536 -0.002676 0.000000 0.000000 0.000000
# 3 -0.003179 -0.002676 0.012409 0.000000 0.000000 0.000000
# 4 0.000000 0.000000 0.000000 0.046807 0.000000 0.000000
# 5 0.000000 0.000000 0.000000 0.000000 0.019929 0.000000
# 6 0.000000 0.000000 0.000000 0.000000 0.000000 0.044382
#
#
# Mechanical properties :
#
#
# Convention : Reuss Voigt Hill
#
# Bulk Modulus (GPa) = 49.03085 55.52302 52.27693
# Shear Modulus (GPa) = 28.46597 32.26254 30.36426
#
# Velocity S-wave (km/s) = 3.89315 4.14465 4.02087
# Velocity P-wave (km/s) = 6.80553 7.24343 7.02789
#
# Compressibility (1/GPa) = 0.02039532
#
# Stress axis : x y z
#
# Youngs Moduli (GPa) = 109.67457 57.02612 80.58435
#
# Poissons Ratio (x) = 0.19839 0.25620
# Poissons Ratio (y) = 0.38155 0.21562
# Poissons Ratio (z) = 0.34869 0.15258
#
# Static dielectric constant tensor:
#      x y z
#    x 1.661070 0.000000 0.000000 
#    y 0.000000 1.654920 0.000000 
#    z 0.000000 0.000000 1.689530 
# 
# From -- ./inp_files/65924.got.cif
#   From: 2010.05.17/outbox.cif.g08.bks.cpg/sg65_33_cif.got.tgz:65924.got - 2010.06.03 17:01:31.
