data_PCOD9485556
_publ_section_title
;
Structure prediction by ZEFSAII (Michael W. Deem and Ramdas Pophale) SiO2 
 PCOD9485556
Probable space group: C M M M
;
_chemical_formula_sum "Si O2"
_cell_formula_units_Z 80
_cell_length_a 18.407022
_cell_length_b 9.305575
_cell_length_c 26.974219
_cell_angle_alpha 90.000000
_cell_angle_beta 90.000000
_cell_angle_gamma 90.000000
_cell_volume 4620.357967
_symmetry_space_group_name_H-M "C M M M"
_symmetry_group_IT_number 65
_symmetry_cell_setting 'orthorhombic'
loop_
_space_group_symop_operation_xyz
x,y,z
-x,-y,z
x,-y,-z
-x,y,-z
-x,-y,-z
x,y,-z
-x,y,z
x,-y,z
1/2+x,1/2+y,z
1/2-x,1/2-y,z
1/2+x,1/2-y,-z
1/2-x,1/2+y,-z
1/2-x,1/2-y,-z
1/2+x,1/2+y,-z
1/2-x,1/2+y,z
1/2+x,1/2-y,z
loop_
_atom_site_type_symbol
_atom_site_label
_atom_site_fract_x
_atom_site_fract_y
_atom_site_fract_z
Si Si1 0.082674 0.825487 0.000000
Si Si2 0.088598 0.166260 0.695952
Si Si3 0.827133 0.174093 0.902510
Si Si4 0.916407 0.825152 0.194686
Si Si5 0.088693 0.165422 0.500000
Si Si6 0.588710 0.165248 0.598350
O O1 0.124967 0.784196 0.950232
O O2 0.000000 0.773022 0.000000
O O3 0.080104 0.000000 0.000000
O O4 0.110513 0.219719 0.750684
O O5 0.112504 0.260406 0.649441
O O6 0.000000 0.166815 0.696737
O O7 0.110677 0.000000 0.689373
O O8 0.750000 0.250000 0.905551
O O9 0.867660 0.216687 0.851729
O O10 0.819608 0.000000 0.902731
O O11 0.000000 0.777969 0.187764
O O12 0.917860 0.000000 0.196080
O O13 0.111923 0.246916 0.450175
O O14 0.000000 0.166258 0.500000
O O15 0.111808 0.000000 0.500000
O O16 0.500000 0.167319 0.598551
O O17 0.611468 0.000000 0.595494
#
# Coordination Sequence:
#
# PCOD9485556 Si02
#       6
#     8  16  16  16   8  16
#     4   9  17  30  51  75  94 119 160 200 226 259
#     4   8  13  22  36  52  69  93 131 177 218 256
#     4  10  19  31  48  70  96 123 151 187 231 276
#     4   8  14  26  45  65  83 110 152 194 225 261
#     4   9  15  21  29  41  61  95 138 177 210 251
#     4   9  15  21  29  44  68  97 129 168 216 266
#
# _framework density 17.314675000000001
#
# number of rings (size 3 to 8) (size 9 to 14) (size 15 to 20)
#    0.000    3.200    0.000    3.000    0.000    6.000 
#    0.000    1.000    0.000    4.200    0.000    0.000 
#    0.000    0.000    0.000    0.900    0.000   11.800 
#
# Total GULP energy -222772.393449 kJ/mol
# GULP energy per Si atom -5569.309836 kJ/mol
# Density = 1.727527 g / cm^3
# Si number density = 17.314675 Si / 1000 Ang^3
#
#
#
# Elastic Constant Matrix: (Units=GPa)
#
#
# Indices 1 2 3 4 5 6 
#
# 1 58.5638 26.4763 64.3480 0.0000 0.0000 0.0000
# 2 26.4763 69.4328 76.2551 0.0000 0.0000 0.0000
# 3 64.3480 76.2551 218.1716 0.0000 0.0000 0.0000
# 4 0.0000 0.0000 0.0000 -1.6189 0.0000 0.0000
# 5 0.0000 0.0000 0.0000 0.0000 -4.0543 0.0000
# 6 0.0000 0.0000 0.0000 0.0000 0.0000 14.4076
#
#
#
# Elastic Compliance Matrix: (Units=1/GPa)
#
#
# Indices 1 2 3 4 5 6 
#
# 1 0.025501 -0.002376 -0.006691 0.000000 0.000000 0.000000
# 2 -0.002376 0.023597 -0.007547 0.000000 0.000000 0.000000
# 3 -0.006691 -0.007547 0.009195 0.000000 0.000000 0.000000
# 4 0.000000 0.000000 0.000000 -0.617704 0.000000 0.000000
# 5 0.000000 0.000000 0.000000 0.000000 -0.246652 0.000000
# 6 0.000000 0.000000 0.000000 0.000000 0.000000 0.069408
#
#
# Mechanical properties :
#
#
# Convention : Reuss Voigt Hill
#
# Bulk Modulus (GPa) = 39.89526 75.59189 57.74357
# Shear Modulus (GPa) = -7.19349 13.68613 3.24632
#
# Velocity S-wave (km/s) = -2.04049 2.81452 1.37075
# Velocity P-wave (km/s) = 4.18806 7.36984 5.99393
#
# Compressibility (1/GPa) = 0.02506564
#
# Stress axis : x y z
#
# Youngs Moduli (GPa) = 39.21354 42.37896 108.75760
#
# Poissons Ratio (x) = 0.10068 0.72771
# Poissons Ratio (y) = 0.09316 0.82077
# Poissons Ratio (z) = 0.26238 0.31982
#
# Static dielectric constant tensor:
#      x y z
#    x 1.557010 0.000000 0.000000 
#    y 0.000000 1.575920 0.000000 
#    z 0.000000 0.000000 1.601010 
# 
# From -- ./inp_files/67319.got.cif
#   From: 2010.05.17/outbox.cif.g08.bks.cpg/sg65_34_cif.got.tgz:67319.got - 2010.06.03 17:01:31.
