data_PCOD9485661
_publ_section_title
;
Structure prediction by ZEFSAII (Michael W. Deem and Ramdas Pophale) SiO2 
 PCOD9485661
Probable space group: C M M M
;
_chemical_formula_sum "Si O2"
_cell_formula_units_Z 96
_cell_length_a 8.846203
_cell_length_b 19.611064
_cell_length_c 32.424667
_cell_angle_alpha 90.000000
_cell_angle_beta 90.000000
_cell_angle_gamma 90.000000
_cell_volume 5625.143200
_symmetry_space_group_name_H-M "C M M M"
_symmetry_group_IT_number 65
_symmetry_cell_setting 'orthorhombic'
loop_
_space_group_symop_operation_xyz
x,y,z
-x,-y,z
x,-y,-z
-x,y,-z
-x,-y,-z
x,y,-z
-x,y,z
x,-y,z
1/2+x,1/2+y,z
1/2-x,1/2-y,z
1/2+x,1/2-y,-z
1/2-x,1/2+y,-z
1/2-x,1/2-y,-z
1/2+x,1/2+y,-z
1/2-x,1/2+y,z
1/2+x,1/2-y,z
loop_
_atom_site_type_symbol
_atom_site_label
_atom_site_fract_x
_atom_site_fract_y
_atom_site_fract_z
Si Si1 0.318339 0.578622 0.715483
Si Si2 0.683811 0.078511 0.953899
Si Si3 0.321410 0.582600 0.545037
Si Si4 0.682572 0.674540 0.791597
Si Si5 0.824953 0.417134 0.629748
Si Si6 0.682812 0.825445 0.878668
O O1 0.500000 0.577943 0.713613
O O2 0.267124 0.500000 0.721210
O O3 0.274208 0.625564 0.753852
O O4 0.257918 0.604614 0.671527
O O5 0.500000 0.078841 0.954030
O O6 0.730424 0.127006 0.916720
O O7 0.730902 0.000000 0.947586
O O8 0.732589 0.100066 0.000000
O O9 0.264865 0.606568 0.500000
O O10 0.500000 0.596627 0.547446
O O11 0.305302 0.500000 0.544872
O O12 0.242618 0.608194 0.586470
O O13 0.500000 0.678129 0.794416
O O14 0.750000 0.750000 0.784937
O O15 0.750903 0.649483 0.835027
O O16 0.811494 0.500000 0.628940
O O17 0.000000 0.399556 0.632294
O O18 0.500000 0.822550 0.876519
O O19 0.750000 0.750000 0.884723
#
# Coordination Sequence:
#
# PCOD9485661 Si02
#       6
#    16  16  16  16  16  16
#     4   9  18  32  48  65  87 118 153 185 223 274
#     4   8  15  29  48  70  96 125 157 191 226 266
#     4   8  13  21  33  49  73 110 151 184 218 266
#     4  10  20  34  51  69  92 122 153 189 231 273
#     4   9  16  24  36  57  84 112 143 184 230 269
#     4  10  19  31  49  71  94 121 152 188 229 271
#
# _framework density 17.066231999999999
#
# number of rings (size 3 to 8) (size 9 to 14) (size 15 to 20)
#    0.000    3.000    0.000    3.500    0.000    4.667 
#    0.000    1.667    0.000    3.000    0.000    4.667 
#    0.000    0.667    0.000    2.167    0.000    4.333 
#
# Total GULP energy -267290.400041 kJ/mol
# GULP energy per Si atom -5568.550001 kJ/mol
# Density = 1.702739 g / cm^3
# Si number density = 17.066232 Si / 1000 Ang^3
#
#
#
# Elastic Constant Matrix: (Units=GPa)
#
#
# Indices 1 2 3 4 5 6 
#
# 1 33.7660 19.2260 51.8679 0.0000 0.0000 0.0000
# 2 19.2260 34.8278 72.1956 0.0000 0.0000 0.0000
# 3 51.8679 72.1956 213.4619 0.0000 0.0000 0.0000
# 4 0.0000 0.0000 0.0000 -9.5190 0.0000 0.0000
# 5 0.0000 0.0000 0.0000 0.0000 21.0291 0.0000
# 6 0.0000 0.0000 0.0000 0.0000 0.0000 11.5427
#
#
#
# Elastic Compliance Matrix: (Units=1/GPa)
#
#
# Indices 1 2 3 4 5 6 
#
# 1 0.047868 -0.007742 -0.009013 0.000000 0.000000 0.000000
# 2 -0.007742 0.097311 -0.031031 0.000000 0.000000 0.000000
# 3 -0.009013 -0.031031 0.017370 0.000000 0.000000 0.000000
# 4 0.000000 0.000000 0.000000 -0.105053 0.000000 0.000000
# 5 0.000000 0.000000 0.000000 0.000000 0.047553 0.000000
# 6 0.000000 0.000000 0.000000 0.000000 0.000000 0.086635
#
#
# Mechanical properties :
#
#
# Convention : Reuss Voigt Hill
#
# Bulk Modulus (GPa) = 14.93018 63.18165 39.05591
# Shear Modulus (GPa) = 16.15083 13.86163 15.00623
#
# Velocity S-wave (km/s) = 3.07964 2.85305 2.96851
# Velocity P-wave (km/s) = 4.62741 6.92495 5.88931
#
# Compressibility (1/GPa) = 0.06697845
#
# Stress axis : x y z
#
# Youngs Moduli (GPa) = 20.89059 10.27632 57.57144
#
# Poissons Ratio (x) = 0.07956 0.51889
# Poissons Ratio (y) = 0.16173 1.78649
# Poissons Ratio (z) = 0.18829 0.31888
#
# Static dielectric constant tensor:
#      x y z
#    x 1.571890 0.000000 0.000000 
#    y 0.000000 1.561580 0.000000 
#    z 0.000000 0.000000 1.596030 
# 
# From -- ./inp_files/73449.got.cif
#   From: 2010.05.17/outbox.cif.g08.bks.cpg/sg65_37_cif.got.tgz:73449.got - 2010.06.03 17:01:31.
