data_PCOD9485471
_publ_section_title
;
Structure prediction by ZEFSAII (Michael W. Deem and Ramdas Pophale) SiO2 
 PCOD9485471
Probable space group: C M M M
;
_chemical_formula_sum "Si O2"
_cell_formula_units_Z 104
_cell_length_a 8.479741
_cell_length_b 27.770468
_cell_length_c 23.530619
_cell_angle_alpha 90.000000
_cell_angle_beta 90.000000
_cell_angle_gamma 90.000000
_cell_volume 5541.140195
_symmetry_space_group_name_H-M "C M M M"
_symmetry_group_IT_number 65
_symmetry_cell_setting 'orthorhombic'
loop_
_space_group_symop_operation_xyz
x,y,z
-x,-y,z
x,-y,-z
-x,y,-z
-x,-y,-z
x,y,-z
-x,y,z
x,-y,z
1/2+x,1/2+y,z
1/2-x,1/2-y,z
1/2+x,1/2-y,-z
1/2-x,1/2+y,-z
1/2-x,1/2-y,-z
1/2+x,1/2+y,-z
1/2-x,1/2+y,z
1/2+x,1/2-y,z
loop_
_atom_site_type_symbol
_atom_site_label
_atom_site_fract_x
_atom_site_fract_y
_atom_site_fract_z
Si Si1 0.190332 0.802950 0.565312
Si Si2 0.685523 0.201769 0.244093
Si Si3 0.189974 0.945377 0.753326
Si Si4 0.184491 0.198368 0.117417
Si Si5 0.309681 0.371721 0.334604
Si Si6 0.807641 0.500000 0.934816
Si Si7 0.688748 0.903790 0.130202
O O1 0.243100 0.809871 0.500000
O O2 0.250000 0.750000 0.584032
O O3 0.238889 0.847439 0.605845
O O4 0.000000 0.801210 0.565751
O O5 0.500000 0.203953 0.231639
O O6 0.750000 0.250000 0.272638
O O7 0.778719 0.198564 0.184986
O O8 0.727661 0.160329 0.286908
O O9 0.226870 0.924728 0.690274
O O10 0.254063 0.912762 0.805078
O O11 0.000000 0.945295 0.758706
O O12 0.248228 0.000000 0.760580
O O13 0.250000 0.250000 0.095518
O O14 0.255703 0.146278 0.101648
O O15 0.000000 0.197791 0.106802
O O16 0.500000 0.366695 0.331451
O O17 0.756152 0.451164 0.903727
O O18 0.000000 0.500000 0.933365
O O19 0.757639 0.500000 0.000000
O O20 0.500000 0.902491 0.131321
#
# Coordination Sequence:
#
# PCOD9485471 Si02
#       7
#    16  16  16  16  16   8  16
#     4   9  18  32  49  69  95 130 174 220 268 321
#     4  11  20  29  43  67 100 134 169 207 250 307
#     4  10  20  33  50  73 104 141 177 219 275 332
#     4  11  21  34  51  76 111 149 184 221 269 329
#     4  10  19  31  47  68  97 134 171 214 267 322
#     4   9  20  38  61  89 119 151 188 231 278 324
#     4  11  20  34  57  84 113 148 187 230 276 329
#
# _framework density 18.768699000000002
#
# number of rings (size 3 to 8) (size 9 to 14) (size 15 to 20)
#    0.000    1.769    2.308    4.615    0.000    1.846 
#    0.000    0.000    0.000    4.615    0.000    3.231 
#    0.000    0.000    0.000    6.615    0.000    7.077 
#
# Total GULP energy -289749.755961 kJ/mol
# GULP energy per Si atom -5572.110692 kJ/mol
# Density = 1.872598 g / cm^3
# Si number density = 18.768699 Si / 1000 Ang^3
#
#
#
# Elastic Constant Matrix: (Units=GPa)
#
#
# Indices 1 2 3 4 5 6 
#
# 1 12.8208 26.2525 5.6830 0.0000 0.0000 0.0000
# 2 26.2525 146.0111 34.6521 0.0000 0.0000 0.0000
# 3 5.6830 34.6521 65.3056 0.0000 0.0000 0.0000
# 4 0.0000 0.0000 0.0000 15.7932 0.0000 0.0000
# 5 0.0000 0.0000 0.0000 0.0000 10.9155 0.0000
# 6 0.0000 0.0000 0.0000 0.0000 0.0000 23.9324
#
#
#
# Elastic Compliance Matrix: (Units=1/GPa)
#
#
# Indices 1 2 3 4 5 6 
#
# 1 0.123527 -0.022491 0.001185 0.000000 0.000000 0.000000
# 2 -0.022491 0.011931 -0.004373 0.000000 0.000000 0.000000
# 3 0.001185 -0.004373 0.017530 0.000000 0.000000 0.000000
# 4 0.000000 0.000000 0.000000 0.063319 0.000000 0.000000
# 5 0.000000 0.000000 0.000000 0.000000 0.091613 0.000000
# 6 0.000000 0.000000 0.000000 0.000000 0.000000 0.041784
#
#
# Mechanical properties :
#
#
# Convention : Reuss Voigt Hill
#
# Bulk Modulus (GPa) = 9.83982 39.70140 24.77061
# Shear Modulus (GPa) = 11.49588 20.63154 16.06371
#
# Velocity S-wave (km/s) = 2.47756 3.31909 2.92871
# Velocity P-wave (km/s) = 3.66585 5.99061 4.96618
#
# Compressibility (1/GPa) = 0.10162786
#
# Stress axis : x y z
#
# Youngs Moduli (GPa) = 8.09542 83.81858 57.04476
#
# Poissons Ratio (x) = 1.88516 -0.06758
# Poissons Ratio (y) = 0.18207 0.24948
# Poissons Ratio (z) = -0.00959 0.36657
#
# Static dielectric constant tensor:
#      x y z
#    x 1.642780 0.000000 0.000000 
#    y 0.000000 1.657670 0.000000 
#    z 0.000000 0.000000 1.659580 
# 
# From -- ./inp_files/68213.got.cif
#   From: 2010.05.17/outbox.cif.g08.bks.cpg/sg65_35_cif.got.tgz:68213.got - 2010.06.03 17:01:31.
