data_PCOD9485340
_publ_section_title
;
Structure prediction by ZEFSAII (Michael W. Deem and Ramdas Pophale) SiO2 
 PCOD9485340
Probable space group: C M M M
;
_chemical_formula_sum "Si O2"
_cell_formula_units_Z 128
_cell_length_a 20.261785
_cell_length_b 17.417447
_cell_length_c 20.648725
_cell_angle_alpha 90.000000
_cell_angle_beta 90.000000
_cell_angle_gamma 90.000000
_cell_volume 7287.111937
_symmetry_space_group_name_H-M "C M M M"
_symmetry_group_IT_number 65
_symmetry_cell_setting 'orthorhombic'
loop_
_space_group_symop_operation_xyz
x,y,z
-x,-y,z
x,-y,-z
-x,y,-z
-x,-y,-z
x,y,-z
-x,y,z
x,-y,z
1/2+x,1/2+y,z
1/2-x,1/2-y,z
1/2+x,1/2-y,-z
1/2-x,1/2+y,-z
1/2-x,1/2-y,-z
1/2+x,1/2+y,-z
1/2-x,1/2+y,z
1/2+x,1/2-y,z
loop_
_atom_site_type_symbol
_atom_site_label
_atom_site_fract_x
_atom_site_fract_y
_atom_site_fract_z
Si Si1 0.073966 0.906671 0.575253
Si Si2 0.177649 0.087531 0.680001
Si Si3 0.781211 0.333009 0.759925
Si Si4 0.122058 0.120471 0.070403
Si Si5 0.612277 0.805157 0.929906
Si Si6 0.572711 0.385209 0.210090
Si Si7 0.428276 0.800194 0.213103
Si Si8 0.229880 0.586832 0.895088
O O1 0.084068 0.886402 0.500000
O O2 0.131702 0.880145 0.622631
O O3 0.000000 0.881256 0.594818
O O4 0.073857 0.000000 0.578937
O O5 0.241207 0.136955 0.698333
O O6 0.129833 0.086681 0.742821
O O7 0.196718 0.000000 0.664956
O O8 0.750000 0.250000 0.777850
O O9 0.860264 0.327173 0.754084
O O10 0.766736 0.390309 0.819433
O O11 0.123173 0.213506 0.072394
O O12 0.084983 0.094315 0.135097
O O13 0.197181 0.093266 0.076483
O O14 0.094659 0.097933 0.000000
O O15 0.576030 0.824257 0.862772
O O16 0.680800 0.851183 0.925773
O O17 0.581060 0.822333 0.000000
O O18 0.500000 0.410994 0.230806
O O19 0.574032 0.292434 0.214069
O O20 0.500000 0.824525 0.239245
O O21 0.205264 0.500000 0.903328
#
# Coordination Sequence:
#
# PCOD9485340 Si02
#       8
#    16  16  16  16  16  16  16  16
#     4   8  15  29  49  77 116 153 176 197 235 292
#     4  11  20  31  52  80 105 134 169 208 247 286
#     4  11  19  34  52  72  99 131 165 208 252 298
#     4  10  19  31  45  62  90 128 165 203 250 306
#     4   9  18  31  47  65  87 116 156 205 264 321
#     4  10  19  31  47  70  98 129 166 207 247 296
#     4   9  18  32  50  70  93 125 166 209 255 304
#     4  11  20  30  46  67  89 117 159 212 263 310
#
# _framework density 17.565258
#
# number of rings (size 3 to 8) (size 9 to 14) (size 15 to 20)
#    0.000    2.125    2.500    3.375    0.000    3.250 
#    0.000    2.500    0.000    9.750    0.000    5.250 
#    0.000    0.500    0.000    3.125    0.000    0.000 
#
# Total GULP energy -356909.296041 kJ/mol
# GULP energy per Si atom -5576.707751 kJ/mol
# Density = 1.752528 g / cm^3
# Si number density = 17.565258 Si / 1000 Ang^3
#
#
#
# Elastic Constant Matrix: (Units=GPa)
#
#
# Indices 1 2 3 4 5 6 
#
# 1 125.1852 16.9177 39.8306 0.0000 0.0000 0.0000
# 2 16.9177 25.2456 12.2055 0.0000 0.0000 0.0000
# 3 39.8306 12.2055 67.2642 0.0000 0.0000 0.0000
# 4 0.0000 0.0000 0.0000 12.2490 0.0000 0.0000
# 5 0.0000 0.0000 0.0000 0.0000 -31.8513 0.0000
# 6 0.0000 0.0000 0.0000 0.0000 0.0000 -7.2617
#
#
#
# Elastic Compliance Matrix: (Units=1/GPa)
#
#
# Indices 1 2 3 4 5 6 
#
# 1 0.010254 -0.004314 -0.005289 0.000000 0.000000 0.000000
# 2 -0.004314 0.045235 -0.005653 0.000000 0.000000 0.000000
# 3 -0.005289 -0.005653 0.019025 0.000000 0.000000 0.000000
# 4 0.000000 0.000000 0.000000 0.081639 0.000000 0.000000
# 5 0.000000 0.000000 0.000000 0.000000 -0.031396 0.000000
# 6 0.000000 0.000000 0.000000 0.000000 0.000000 -0.137710
#
#
# Mechanical properties :
#
#
# Convention : Reuss Voigt Hill
#
# Bulk Modulus (GPa) = 22.72726 39.51141 31.11933
# Shear Modulus (GPa) = 155.14471 4.54330 79.84401
#
# Velocity S-wave (km/s) = 9.40832 1.61001 6.74939
# Velocity P-wave (km/s) = 11.44504 5.09893 8.85968
#
# Compressibility (1/GPa) = 0.04400002
#
# Stress axis : x y z
#
# Youngs Moduli (GPa) = 97.52234 22.10663 52.56370
#
# Poissons Ratio (x) = 0.09538 0.27801
# Poissons Ratio (y) = 0.42075 0.29717
# Poissons Ratio (z) = 0.51580 0.12498
#
# Static dielectric constant tensor:
#      x y z
#    x 1.614160 0.000000 0.000000 
#    y 0.000000 1.608200 0.000000 
#    z 0.000000 0.000000 1.620730 
# 
# From -- ./inp_files/64885.got.cif
#   From: 2010.05.17/outbox.cif.g08.bks.cpg/sg65_33_cif.got.tgz:64885.got - 2010.06.03 17:01:31.
