data_PCOD9485981
_publ_section_title
;
Structure prediction by ZEFSAII (Michael W. Deem and Ramdas Pophale) SiO2 
 PCOD9485981
Probable space group: C M M M
;
_chemical_formula_sum "Si O2"
_cell_formula_units_Z 56
_cell_length_a 14.645734
_cell_length_b 5.402647
_cell_length_c 32.470437
_cell_angle_alpha 90.000000
_cell_angle_beta 90.000000
_cell_angle_gamma 90.000000
_cell_volume 2569.247059
_symmetry_space_group_name_H-M "C M M M"
_symmetry_group_IT_number 65
_symmetry_cell_setting 'orthorhombic'
loop_
_space_group_symop_operation_xyz
x,y,z
-x,-y,z
x,-y,-z
-x,y,-z
-x,-y,-z
x,y,-z
-x,y,z
x,-y,z
1/2+x,1/2+y,z
1/2-x,1/2-y,z
1/2+x,1/2-y,-z
1/2-x,1/2+y,-z
1/2-x,1/2-y,-z
1/2+x,1/2+y,-z
1/2-x,1/2+y,z
1/2+x,1/2-y,z
loop_
_atom_site_type_symbol
_atom_site_label
_atom_site_fract_x
_atom_site_fract_y
_atom_site_fract_z
Si Si1 0.611422 0.500000 0.547207
Si Si2 0.891480 0.500000 0.134271
Si Si3 0.810359 0.500000 0.954776
Si Si4 0.646359 0.500000 0.724816
Si Si5 0.352586 0.000000 0.310066
Si Si6 0.388712 0.500000 0.179379
Si Si7 0.889005 0.500000 0.405290
O O1 0.500000 0.500000 0.546267
O O2 0.643355 0.500000 0.500000
O O3 0.638308 0.249352 0.570730
O O4 0.870660 0.500000 0.085943
O O5 0.858166 0.751892 0.155813
O O6 0.000000 0.500000 0.139732
O O7 0.750000 0.750000 0.953141
O O8 0.856817 0.500000 0.000000
O O9 0.603666 0.749989 0.707097
O O10 0.749939 0.500000 0.707909
O O11 0.644989 0.500000 0.773879
O O12 0.351449 0.000000 0.359151
O O13 0.500000 0.500000 0.180565
O O14 0.000000 0.500000 0.402489
#
# Coordination Sequence:
#
# PCOD9485981 Si02
#       7
#     8   8   8   8   8   8   8
#     4   9  17  30  49  77 111 140 173 220 267 319
#     4  10  21  39  60  88 118 151 193 240 296 346
#     4  10  21  39  59  88 124 158 198 240 286 340
#     4  10  21  38  53  75 104 141 182 226 279 328
#     4  10  21  36  52  76 107 141 182 231 266 330
#     4  10  21  38  59  82 114 145 185 241 291 344
#     4  10  19  31  51  79 107 140 179 217 268 320
#
# _framework density 21.796267
#
# number of rings (size 3 to 8) (size 9 to 14) (size 15 to 20)
#    0.000    2.143    0.000    3.000    0.000    3.143 
#   15.429    0.000    0.000    5.143    0.000   40.000 
#    0.000    0.000    0.000    0.000    0.000    0.857 
#
# Total GULP energy -156531.591162 kJ/mol
# GULP energy per Si atom -5590.413970 kJ/mol
# Density = 2.174666 g / cm^3
# Si number density = 21.796267 Si / 1000 Ang^3
#
#
#
# Elastic Constant Matrix: (Units=GPa)
#
#
# Indices 1 2 3 4 5 6 
#
# 1 76.6448 19.9311 22.6301 0.0000 0.0000 0.0000
# 2 19.9311 258.3450 122.2508 0.0000 0.0000 0.0000
# 3 22.6301 122.2508 241.5881 0.0000 0.0000 0.0000
# 4 0.0000 0.0000 0.0000 47.1753 0.0000 0.0000
# 5 0.0000 0.0000 0.0000 0.0000 40.9191 0.0000
# 6 0.0000 0.0000 0.0000 0.0000 0.0000 -17.8360
#
#
#
# Elastic Compliance Matrix: (Units=1/GPa)
#
#
# Indices 1 2 3 4 5 6 
#
# 1 0.013485 -0.000582 -0.000969 0.000000 0.000000 0.000000
# 2 -0.000582 0.005115 -0.002534 0.000000 0.000000 0.000000
# 3 -0.000969 -0.002534 0.005512 0.000000 0.000000 0.000000
# 4 0.000000 0.000000 0.000000 0.021198 0.000000 0.000000
# 5 0.000000 0.000000 0.000000 0.000000 0.024438 0.000000
# 6 0.000000 0.000000 0.000000 0.000000 0.000000 -0.056066
#
#
# Mechanical properties :
#
#
# Convention : Reuss Voigt Hill
#
# Bulk Modulus (GPa) = 62.72425 100.68910 81.70668
# Shear Modulus (GPa) = 184.07038 41.50275 112.78656
#
# Velocity S-wave (km/s) = 9.19966 4.36836 7.20126
# Velocity P-wave (km/s) = 11.90315 8.46990 10.33016
#
# Compressibility (1/GPa) = 0.01594280
#
# Stress axis : x y z
#
# Youngs Moduli (GPa) = 74.15905 195.51766 181.41869
#
# Poissons Ratio (x) = 0.11378 0.17573
# Poissons Ratio (y) = 0.04316 0.45965
# Poissons Ratio (z) = 0.07183 0.49537
#
# Static dielectric constant tensor:
#      x y z
#    x 1.802080 0.000000 0.000000 
#    y 0.000000 1.919710 0.000000 
#    z 0.000000 0.000000 1.727350 
# 
# From -- ./inp_files/77552.got.cif
#   From: 2010.05.17/outbox.cif.g08.bks.cpg/sg65_39_cif.got.tgz:77552.got - 2010.06.03 17:01:31.
