data_PCOD9485734
_publ_section_title
;
Structure prediction by ZEFSAII (Michael W. Deem and Ramdas Pophale) SiO2 
 PCOD9485734
Probable space group: C M M M
;
_chemical_formula_sum "Si O2"
_cell_formula_units_Z 104
_cell_length_a 15.094433
_cell_length_b 14.904193
_cell_length_c 23.774909
_cell_angle_alpha 90.000000
_cell_angle_beta 90.000000
_cell_angle_gamma 90.000000
_cell_volume 5348.649424
_symmetry_space_group_name_H-M "C M M M"
_symmetry_group_IT_number 65
_symmetry_cell_setting 'orthorhombic'
loop_
_space_group_symop_operation_xyz
x,y,z
-x,-y,z
x,-y,-z
-x,y,-z
-x,-y,-z
x,y,-z
-x,y,z
x,-y,z
1/2+x,1/2+y,z
1/2-x,1/2-y,z
1/2+x,1/2-y,-z
1/2-x,1/2+y,-z
1/2-x,1/2-y,-z
1/2+x,1/2+y,-z
1/2-x,1/2+y,z
1/2+x,1/2-y,z
loop_
_atom_site_type_symbol
_atom_site_label
_atom_site_fract_x
_atom_site_fract_y
_atom_site_fract_z
Si Si1 0.854810 0.771735 0.272849
Si Si2 0.899866 0.598595 0.084560
Si Si3 0.893399 0.897401 0.622670
Si Si4 0.392068 0.296730 0.937376
Si Si5 0.160876 0.102469 0.825534
Si Si6 0.101135 0.891208 0.500000
Si Si7 0.366687 0.901673 0.786304
O O1 0.750000 0.750000 0.272113
O O2 0.873441 0.825202 0.329629
O O3 0.884104 0.836114 0.221600
O O4 0.893502 0.674984 0.256907
O O5 0.858081 0.500000 0.072893
O O6 0.860105 0.692753 0.064869
O O7 0.907157 0.607397 0.151868
O O8 0.000000 0.595565 0.062153
O O9 0.858258 0.869205 0.560788
O O10 0.000000 0.902676 0.617641
O O11 0.862943 0.000000 0.636415
O O12 0.500000 0.296315 0.929718
O O13 0.350347 0.352017 0.886196
O O14 0.373893 0.332474 0.000000
O O15 0.262476 0.102035 0.803845
O O16 0.129261 0.000000 0.826911
O O17 0.000000 0.856068 0.500000
O O18 0.096288 0.000000 0.500000
O O19 0.385743 0.000000 0.763479
#
# Coordination Sequence:
#
# PCOD9485734 Si02
#       7
#    16  16  16  16  16   8  16
#     4  10  19  31  49  73 104 134 166 205 254 300
#     4   9  17  31  51  71  91 117 152 198 248 292
#     4   9  17  30  51  80 109 138 174 213 252 297
#     4  10  21  35  51  72  96 123 156 198 253 308
#     4  10  20  34  50  68  96 130 160 194 240 298
#     4   7  12  26  47  72 107 143 171 207 252 291
#     4   9  18  33  52  70  93 125 161 199 243 292
#
# _framework density 19.44416
#
# number of rings (size 3 to 8) (size 9 to 14) (size 15 to 20)
#    0.000    2.692    1.538    1.385    0.000    2.769 
#    0.000    4.231    0.000    2.769    0.000    0.538 
#    0.000    1.846    0.000    0.000    0.000    0.000 
#
# Total GULP energy -289650.761905 kJ/mol
# GULP energy per Si atom -5570.206960 kJ/mol
# Density = 1.939990 g / cm^3
# Si number density = 19.444160 Si / 1000 Ang^3
#
#
#
# Elastic Constant Matrix: (Units=GPa)
#
#
# Indices 1 2 3 4 5 6 
#
# 1 21.0811 12.2679 1.1648 0.0000 0.0000 0.0000
# 2 12.2679 157.0991 99.6279 0.0000 0.0000 0.0000
# 3 1.1648 99.6279 164.7060 0.0000 0.0000 0.0000
# 4 0.0000 0.0000 0.0000 18.9296 0.0000 0.0000
# 5 0.0000 0.0000 0.0000 0.0000 -2.7257 0.0000
# 6 0.0000 0.0000 0.0000 0.0000 0.0000 9.9647
#
#
#
# Elastic Compliance Matrix: (Units=1/GPa)
#
#
# Indices 1 2 3 4 5 6 
#
# 1 0.050782 -0.006064 0.003309 0.000000 0.000000 0.000000
# 2 -0.006064 0.011051 -0.006642 0.000000 0.000000 0.000000
# 3 0.003309 -0.006642 0.010065 0.000000 0.000000 0.000000
# 4 0.000000 0.000000 0.000000 0.052827 0.000000 0.000000
# 5 0.000000 0.000000 0.000000 0.000000 -0.366872 0.000000
# 6 0.000000 0.000000 0.000000 0.000000 0.000000 0.100354
#
#
# Mechanical properties :
#
#
# Convention : Reuss Voigt Hill
#
# Bulk Modulus (GPa) = 18.83067 63.22304 41.02685
# Shear Modulus (GPa) = -47.48459 20.55542 -13.46458
#
# Velocity S-wave (km/s) = -4.94712 3.25491 -2.63435
# Velocity P-wave (km/s) = 4.78816 6.83460 3.44857
#
# Compressibility (1/GPa) = 0.05310487
#
# Stress axis : x y z
#
# Youngs Moduli (GPa) = 19.69202 90.49059 99.35005
#
# Poissons Ratio (x) = 0.54874 -0.32874
# Poissons Ratio (y) = 0.11941 0.65984
# Poissons Ratio (z) = -0.06516 0.60100
#
# Static dielectric constant tensor:
#      x y z
#    x 1.771680 0.000000 0.000000 
#    y 0.000000 1.715400 0.000000 
#    z 0.000000 0.000000 1.691750 
# 
# From -- ./inp_files/63811.got.cif
#   From: 2010.05.17/outbox.cif.g08.bks.cpg/sg65_32_cif.got.tgz:63811.got - 2010.06.03 17:01:31.
