data_PCOD9485947
_publ_section_title
;
Structure prediction by ZEFSAII (Michael W. Deem and Ramdas Pophale) SiO2 
 PCOD9485947
Probable space group: C M M M
;
_chemical_formula_sum "Si O2"
_cell_formula_units_Z 80
_cell_length_a 7.590346
_cell_length_b 18.646544
_cell_length_c 26.896716
_cell_angle_alpha 90.000000
_cell_angle_beta 90.000000
_cell_angle_gamma 90.000000
_cell_volume 3806.792289
_symmetry_space_group_name_H-M "C M M M"
_symmetry_group_IT_number 65
_symmetry_cell_setting 'orthorhombic'
loop_
_space_group_symop_operation_xyz
x,y,z
-x,-y,z
x,-y,-z
-x,y,-z
-x,-y,-z
x,y,-z
-x,y,z
x,-y,z
1/2+x,1/2+y,z
1/2-x,1/2-y,z
1/2+x,1/2-y,-z
1/2-x,1/2+y,-z
1/2-x,1/2-y,-z
1/2+x,1/2+y,-z
1/2-x,1/2+y,z
1/2+x,1/2-y,z
loop_
_atom_site_type_symbol
_atom_site_label
_atom_site_fract_x
_atom_site_fract_y
_atom_site_fract_z
Si Si1 0.288724 0.334326 0.500000
Si Si2 0.711279 0.417839 0.206771
Si Si3 0.211448 0.418072 0.096158
Si Si4 0.211640 0.666386 0.000000
Si Si5 0.215798 0.916891 0.598557
Si Si6 0.288512 0.333973 0.303019
O O1 0.500000 0.341929 0.500000
O O2 0.250000 0.250000 0.500000
O O3 0.224430 0.373777 0.450200
O O4 0.500000 0.421290 0.211221
O O5 0.778377 0.500000 0.210223
O O6 0.749445 0.389997 0.151394
O O7 0.778485 0.369355 0.251880
O O8 0.278546 0.500000 0.093239
O O9 0.000000 0.421161 0.092031
O O10 0.278735 0.371554 0.050171
O O11 0.250000 0.750000 0.000000
O O12 0.000000 0.657919 0.000000
O O13 0.275423 0.876984 0.648596
O O14 0.000000 0.916225 0.598572
O O15 0.269312 0.000000 0.597380
O O16 0.500000 0.341519 0.302799
O O17 0.250000 0.250000 0.306242
#
# Coordination Sequence:
#
# PCOD9485947 Si02
#       6
#     8  16  16   8  16  16
#     4  10  19  31  51  77 103 130 162 204 250 296
#     4   9  18  33  52  73  96 125 163 203 241 284
#     4   9  18  34  55  75  96 126 163 201 241 286
#     4  10  21  35  51  73 101 130 160 196 240 290
#     4   9  17  31  52  75  97 127 170 211 243 283
#     4  10  20  33  50  72 100 132 163 200 246 293
#
# _framework density 21.015069
#
# number of rings (size 3 to 8) (size 9 to 14) (size 15 to 20)
#    0.000    2.600    0.000    1.800    0.000    7.200 
#    0.000    4.000    0.000    7.200    0.000    0.000 
#    0.000    0.000    0.000    0.000    0.000    0.000 
#
# Total GULP energy -223372.922476 kJ/mol
# GULP energy per Si atom -5584.323062 kJ/mol
# Density = 2.096724 g / cm^3
# Si number density = 21.015069 Si / 1000 Ang^3
#
#
#
# Elastic Constant Matrix: (Units=GPa)
#
#
# Indices 1 2 3 4 5 6 
#
# 1 45.7733 -1.2601 8.1289 0.0000 0.0000 0.0000
# 2 -1.2601 167.5192 147.3552 0.0000 0.0000 0.0000
# 3 8.1289 147.3552 264.0008 0.0000 0.0000 0.0000
# 4 0.0000 0.0000 0.0000 -23.2776 0.0000 0.0000
# 5 0.0000 0.0000 0.0000 0.0000 30.3907 0.0000
# 6 0.0000 0.0000 0.0000 0.0000 0.0000 24.2281
#
#
#
# Elastic Compliance Matrix: (Units=1/GPa)
#
#
# Indices 1 2 3 4 5 6 
#
# 1 0.022159 0.001507 -0.001523 0.000000 0.000000 0.000000
# 2 0.001507 0.011830 -0.006649 0.000000 0.000000 0.000000
# 3 -0.001523 -0.006649 0.007546 0.000000 0.000000 0.000000
# 4 0.000000 0.000000 0.000000 -0.042960 0.000000 0.000000
# 5 0.000000 0.000000 0.000000 0.000000 0.032905 0.000000
# 6 0.000000 0.000000 0.000000 0.000000 0.000000 0.041274
#
#
# Mechanical properties :
#
#
# Convention : Reuss Voigt Hill
#
# Bulk Modulus (GPa) = 35.45752 87.30458 61.38105
# Shear Modulus (GPa) = 52.36314 27.80618 40.08466
#
# Velocity S-wave (km/s) = 4.99710 3.64146 4.37215
# Velocity P-wave (km/s) = 7.08546 7.70158 7.39994
#
# Compressibility (1/GPa) = 0.02820276
#
# Stress axis : x y z
#
# Youngs Moduli (GPa) = 45.12883 84.53288 132.51801
#
# Poissons Ratio (x) = -0.12735 0.20185
# Poissons Ratio (y) = -0.06799 0.88115
# Poissons Ratio (z) = 0.06874 0.56208
#
# Static dielectric constant tensor:
#      x y z
#    x 1.805930 0.000000 0.000000 
#    y 0.000000 1.704350 0.000000 
#    z 0.000000 0.000000 1.746400 
# 
# From -- ./inp_files/68855.got.cif
#   From: 2010.05.17/outbox.cif.g08.bks.cpg/sg65_35_cif.got.tgz:68855.got - 2010.06.03 17:01:31.
