data_PCOD9485680
_publ_section_title
;
Structure prediction by ZEFSAII (Michael W. Deem and Ramdas Pophale) SiO2 
 PCOD9485680
Probable space group: C M M M
;
_chemical_formula_sum "Si O2"
_cell_formula_units_Z 104
_cell_length_a 26.859464
_cell_length_b 8.380513
_cell_length_c 20.086890
_cell_angle_alpha 90.000000
_cell_angle_beta 90.000000
_cell_angle_gamma 90.000000
_cell_volume 4521.480344
_symmetry_space_group_name_H-M "C M M M"
_symmetry_group_IT_number 65
_symmetry_cell_setting 'orthorhombic'
loop_
_space_group_symop_operation_xyz
x,y,z
-x,-y,z
x,-y,-z
-x,y,-z
-x,-y,-z
x,y,-z
-x,y,z
x,-y,z
1/2+x,1/2+y,z
1/2-x,1/2-y,z
1/2+x,1/2-y,-z
1/2-x,1/2+y,-z
1/2-x,1/2-y,-z
1/2+x,1/2+y,-z
1/2-x,1/2+y,z
1/2+x,1/2-y,z
loop_
_atom_site_type_symbol
_atom_site_label
_atom_site_fract_x
_atom_site_fract_y
_atom_site_fract_z
Si Si1 0.696573 0.813810 0.891190
Si Si2 0.196160 0.812173 0.603289
Si Si3 0.412681 0.194787 0.928146
Si Si4 0.941573 0.000000 0.423899
Si Si5 0.837400 0.813962 0.753877
Si Si6 0.054603 0.306896 0.217706
Si Si7 0.094127 0.328186 0.576200
O O1 0.750000 0.750000 0.912914
O O2 0.644944 0.749643 0.921795
O O3 0.689321 0.783778 0.812200
O O4 0.696759 0.000000 0.905082
O O5 0.250000 0.750000 0.583779
O O6 0.188821 0.796349 0.682909
O O7 0.152924 0.702068 0.573951
O O8 0.189124 0.000000 0.586443
O O9 0.440395 0.240989 0.860507
O O10 0.412592 0.000000 0.927468
O O11 0.432923 0.245188 0.000000
O O12 0.925727 0.165900 0.391681
O O13 0.920259 0.000000 0.500000
O O14 0.000000 0.000000 0.428831
O O15 0.894824 0.758291 0.750070
O O16 0.835974 0.000000 0.772633
O O17 0.056550 0.500000 0.220951
O O18 0.000000 0.255838 0.243005
O O19 0.074558 0.332167 0.500000
O O20 0.082349 0.500000 0.607256
#
# Coordination Sequence:
#
# PCOD9485680 Si02
#       7
#    16  16  16   8  16  16  16
#     4  10  19  31  49  72 100 135 174 218 269 325
#     4  11  23  38  58  84 114 152 194 240 292 348
#     4   8  15  28  46  71 102 134 171 216 265 322
#     4   9  18  36  62  88 120 160 200 248 294 340
#     4  10  21  36  55  78 105 139 181 229 276 328
#     4   9  18  33  54  78 104 137 175 220 277 333
#     4  10  21  38  61  90 125 162 201 247 297 352
#
# _framework density 23.001317
#
# number of rings (size 3 to 8) (size 9 to 14) (size 15 to 20)
#    0.000    2.385    0.769    2.769    0.000    5.231 
#    0.000    3.846    0.000   11.077    0.000    4.308 
#    0.000    0.000    0.000    0.000    0.000    0.000 
#
# Total GULP energy -290402.883127 kJ/mol
# GULP energy per Si atom -5584.670829 kJ/mol
# Density = 2.294896 g / cm^3
# Si number density = 23.001317 Si / 1000 Ang^3
#
#
#
# Elastic Constant Matrix: (Units=GPa)
#
#
# Indices 1 2 3 4 5 6 
#
# 1 104.3901 19.8905 -9.6823 0.0000 0.0000 0.0000
# 2 19.8905 96.4871 -0.3443 0.0000 0.0000 0.0000
# 3 -9.6823 -0.3443 65.1961 0.0000 0.0000 0.0000
# 4 0.0000 0.0000 0.0000 13.3336 0.0000 0.0000
# 5 0.0000 0.0000 0.0000 0.0000 9.3688 0.0000
# 6 0.0000 0.0000 0.0000 0.0000 0.0000 11.2605
#
#
#
# Elastic Compliance Matrix: (Units=1/GPa)
#
#
# Indices 1 2 3 4 5 6 
#
# 1 0.010114 -0.002080 0.001491 0.000000 0.000000 0.000000
# 2 -0.002080 0.010792 -0.000252 0.000000 0.000000 0.000000
# 3 0.001491 -0.000252 0.015558 0.000000 0.000000 0.000000
# 4 0.000000 0.000000 0.000000 0.074999 0.000000 0.000000
# 5 0.000000 0.000000 0.000000 0.000000 0.106737 0.000000
# 6 0.000000 0.000000 0.000000 0.000000 0.000000 0.088806
#
#
# Mechanical properties :
#
#
# Convention : Reuss Voigt Hill
#
# Bulk Modulus (GPa) = 28.74931 31.75568 30.25250
# Shear Modulus (GPa) = 15.61126 23.87320 19.74223
#
# Velocity S-wave (km/s) = 2.60804 3.22515 2.93287
# Velocity P-wave (km/s) = 4.64707 5.26353 4.96488
#
# Compressibility (1/GPa) = 0.03478344
#
# Stress axis : x y z
#
# Youngs Moduli (GPa) = 98.87285 92.66218 64.27376
#
# Poissons Ratio (x) = 0.19270 -0.09583
# Poissons Ratio (y) = 0.20562 0.01619
# Poissons Ratio (z) = -0.14742 0.02334
#
# Static dielectric constant tensor:
#      x y z
#    x 1.841500 0.000000 0.000000 
#    y 0.000000 1.940870 0.000000 
#    z 0.000000 0.000000 1.897390 
# 
# From -- ./inp_files/71804.got.cif
#   From: 2010.05.17/outbox.cif.g08.bks.cpg/sg65_36_cif.got.tgz:71804.got - 2010.06.03 17:01:31.
