data_PCOD9485015
_publ_section_title
;
Structure prediction by ZEFSAII (Michael W. Deem and Ramdas Pophale) SiO2 
 PCOD9485015
Probable space group: C M M M
;
_chemical_formula_sum "Si O2"
_cell_formula_units_Z 72
_cell_length_a 18.787480
_cell_length_b 7.601656
_cell_length_c 24.898769
_cell_angle_alpha 90.000000
_cell_angle_beta 90.000000
_cell_angle_gamma 90.000000
_cell_volume 3555.941599
_symmetry_space_group_name_H-M "C M M M"
_symmetry_group_IT_number 65
_symmetry_cell_setting 'orthorhombic'
loop_
_space_group_symop_operation_xyz
x,y,z
-x,-y,z
x,-y,-z
-x,y,-z
-x,-y,-z
x,y,-z
-x,y,z
x,-y,z
1/2+x,1/2+y,z
1/2-x,1/2-y,z
1/2+x,1/2-y,-z
1/2-x,1/2+y,-z
1/2-x,1/2-y,-z
1/2+x,1/2+y,-z
1/2-x,1/2+y,z
1/2+x,1/2-y,z
loop_
_atom_site_type_symbol
_atom_site_label
_atom_site_fract_x
_atom_site_fract_y
_atom_site_fract_z
Si Si1 0.083416 0.214577 0.231831
Si Si2 0.918204 0.210133 0.115006
Si Si3 0.666914 0.711279 0.336241
Si Si4 0.582639 0.285446 0.559827
Si Si5 0.580819 0.792790 0.000000
O O1 0.110480 0.272281 0.172698
O O2 0.128039 0.278478 0.282560
O O3 0.000000 0.262430 0.236635
O O4 0.085683 0.000000 0.232732
O O5 0.000000 0.277847 0.112055
O O6 0.921741 0.000000 0.118686
O O7 0.884209 0.247688 0.057149
O O8 0.657893 0.500000 0.336380
O O9 0.750000 0.750000 0.335320
O O10 0.630123 0.777578 0.390830
O O11 0.605207 0.228330 0.500000
O O12 0.500000 0.235944 0.567590
O O13 0.584492 0.500000 0.559747
O O14 0.500000 0.712079 0.000000
O O15 0.573604 0.000000 0.000000
#
# Coordination Sequence:
#
# PCOD9485015 Si02
#       5
#    16  16  16  16   8
#     4   8  14  26  45  65  82 108 151 193 220 249
#     4   8  13  22  37  56  77 103 138 178 215 250
#     4  10  19  30  45  66  92 119 147 182 224 266
#     4   8  14  26  46  70  91 114 150 191 222 251
#     4   9  15  21  31  53  86 115 134 159 207 267
#
# _framework density 20.247803000000001
#
# number of rings (size 3 to 8) (size 9 to 14) (size 15 to 20)
#    0.000    3.444    0.000    3.000    0.000    4.444 
#    0.000    1.111    0.000    4.000    0.000    2.333 
#    0.000    0.000    0.000    0.000    0.000    0.000 
#
# Total GULP energy -200463.115938 kJ/mol
# GULP energy per Si atom -5568.419887 kJ/mol
# Density = 2.020172 g / cm^3
# Si number density = 20.247803 Si / 1000 Ang^3
#
#
#
# Elastic Constant Matrix: (Units=GPa)
#
#
# Indices 1 2 3 4 5 6 
#
# 1 61.4256 -1.1651 97.6195 0.0000 0.0000 0.0000
# 2 -1.1651 42.0996 12.3172 0.0000 0.0000 0.0000
# 3 97.6195 12.3172 284.9030 0.0000 0.0000 0.0000
# 4 0.0000 0.0000 0.0000 -13.9906 0.0000 0.0000
# 5 0.0000 0.0000 0.0000 0.0000 -3.5812 0.0000
# 6 0.0000 0.0000 0.0000 0.0000 0.0000 13.6590
#
#
#
# Elastic Compliance Matrix: (Units=1/GPa)
#
#
# Indices 1 2 3 4 5 6 
#
# 1 0.036658 0.004749 -0.012766 0.000000 0.000000 0.000000
# 2 0.004749 0.024673 -0.002694 0.000000 0.000000 0.000000
# 3 -0.012766 -0.002694 0.008001 0.000000 0.000000 0.000000
# 4 0.000000 0.000000 0.000000 -0.071476 0.000000 0.000000
# 5 0.000000 0.000000 0.000000 0.000000 -0.279238 0.000000
# 6 0.000000 0.000000 0.000000 0.000000 0.000000 0.073212
#
#
# Mechanical properties :
#
#
# Convention : Reuss Voigt Hill
#
# Bulk Modulus (GPa) = 20.87237 67.33018 44.10127
# Shear Modulus (GPa) = -29.27723 17.86122 -5.70801
#
# Velocity S-wave (km/s) = -3.80668 2.97329 -1.68083
# Velocity P-wave (km/s) = 2.99838 6.71659 4.24984
#
# Compressibility (1/GPa) = 0.04791024
#
# Stress axis : x y z
#
# Youngs Moduli (GPa) = 27.27939 40.53045 124.99190
#
# Poissons Ratio (x) = -0.19250 1.59562
# Poissons Ratio (y) = -0.12956 0.33673
# Poissons Ratio (z) = 0.34824 0.10919
#
# Static dielectric constant tensor:
#      x y z
#    x 1.655190 0.000000 0.000000 
#    y 0.000000 1.756990 0.000000 
#    z 0.000000 0.000000 1.789930 
# 
# From -- ./inp_files/67080.got.cif
#   From: 2010.05.17/outbox.cif.g08.bks.cpg/sg65_34_cif.got.tgz:67080.got - 2010.06.03 17:01:31.
