data_PCOD9485602
_publ_section_title
;
Structure prediction by ZEFSAII (Michael W. Deem and Ramdas Pophale) SiO2 
 PCOD9485602
Probable space group: C M M M
;
_chemical_formula_sum "Si O2"
_cell_formula_units_Z 72
_cell_length_a 7.383934
_cell_length_b 18.316164
_cell_length_c 25.946224
_cell_angle_alpha 90.000000
_cell_angle_beta 90.000000
_cell_angle_gamma 90.000000
_cell_volume 3509.106045
_symmetry_space_group_name_H-M "C M M M"
_symmetry_group_IT_number 65
_symmetry_cell_setting 'orthorhombic'
loop_
_space_group_symop_operation_xyz
x,y,z
-x,-y,z
x,-y,-z
-x,y,-z
-x,-y,-z
x,y,-z
-x,y,z
x,-y,z
1/2+x,1/2+y,z
1/2-x,1/2-y,z
1/2+x,1/2-y,-z
1/2-x,1/2+y,-z
1/2-x,1/2-y,-z
1/2+x,1/2+y,-z
1/2-x,1/2+y,z
1/2+x,1/2-y,z
loop_
_atom_site_type_symbol
_atom_site_label
_atom_site_fract_x
_atom_site_fract_y
_atom_site_fract_z
Si Si1 0.500000 0.086737 0.061177
Si Si2 0.285959 0.336371 0.867727
Si Si3 0.220497 0.914993 0.557221
Si Si4 0.783729 0.164330 0.340568
Si Si5 0.279361 0.415954 0.237592
O O1 0.672663 0.123923 0.088039
O O2 0.500000 0.000000 0.071024
O O3 0.500000 0.098653 0.000000
O O4 0.500000 0.349146 0.873964
O O5 0.250000 0.250000 0.868115
O O6 0.227311 0.370212 0.812767
O O7 0.279574 0.891164 0.500000
O O8 0.285289 0.867663 0.605314
O O9 0.000000 0.912772 0.556968
O O10 0.270457 0.000000 0.564101
O O11 0.750000 0.250000 0.335949
O O12 0.715689 0.121424 0.290390
O O13 0.000000 0.153330 0.341240
O O14 0.500000 0.415767 0.238644
O O15 0.221586 0.500000 0.233943
#
# Coordination Sequence:
#
# PCOD9485602 Si02
#       5
#     8  16  16  16  16
#     4  11  26  46  68  98 133 169 214 262 309 366
#     4  11  22  41  66  96 129 168 209 259 314 371
#     4   8  14  26  46  70  94 126 175 228 274 327
#     4  10  19  31  48  72 104 139 176 226 282 340
#     4   9  18  33  56  82 110 147 192 239 292 353
#
# _framework density 20.518046999999999
#
# number of rings (size 3 to 8) (size 9 to 14) (size 15 to 20)
#    0.000    2.333    1.111    2.667    0.000    5.333 
#    2.000    1.111    0.000    2.000    0.000    1.556 
#    0.000    0.000    0.000    0.000    0.000    0.000 
#
# Total GULP energy -201180.268375 kJ/mol
# GULP energy per Si atom -5588.340788 kJ/mol
# Density = 2.047135 g / cm^3
# Si number density = 20.518047 Si / 1000 Ang^3
#
#
#
# Elastic Constant Matrix: (Units=GPa)
#
#
# Indices 1 2 3 4 5 6 
#
# 1 97.3711 26.2213 45.6411 0.0000 0.0000 0.0000
# 2 26.2213 173.4241 131.2572 0.0000 0.0000 0.0000
# 3 45.6411 131.2572 202.9177 0.0000 0.0000 0.0000
# 4 0.0000 0.0000 0.0000 -35.4810 0.0000 0.0000
# 5 0.0000 0.0000 0.0000 0.0000 19.7156 0.0000
# 6 0.0000 0.0000 0.0000 0.0000 0.0000 13.1436
#
#
#
# Elastic Compliance Matrix: (Units=1/GPa)
#
#
# Indices 1 2 3 4 5 6 
#
# 1 0.011497 0.000429 -0.002863 0.000000 0.000000 0.000000
# 2 0.000429 0.011313 -0.007414 0.000000 0.000000 0.000000
# 3 -0.002863 -0.007414 0.010368 0.000000 0.000000 0.000000
# 4 0.000000 0.000000 0.000000 -0.028184 0.000000 0.000000
# 5 0.000000 0.000000 0.000000 0.000000 0.050721 0.000000
# 6 0.000000 0.000000 0.000000 0.000000 0.000000 0.076083
#
#
# Mechanical properties :
#
#
# Convention : Reuss Voigt Hill
#
# Bulk Modulus (GPa) = 74.18271 97.77244 85.97757
# Shear Modulus (GPa) = 32.05377 17.51519 24.78448
#
# Velocity S-wave (km/s) = 3.95678 2.92490 3.47931
# Velocity P-wave (km/s) = 7.55700 7.69169 7.62464
#
# Compressibility (1/GPa) = 0.01348023
#
# Stress axis : x y z
#
# Youngs Moduli (GPa) = 86.98222 88.39524 96.45105
#
# Poissons Ratio (x) = -0.03790 0.27616
# Poissons Ratio (y) = -0.03730 0.71510
# Poissons Ratio (z) = 0.24905 0.65538
#
# Static dielectric constant tensor:
#      x y z
#    x 1.785620 0.000000 0.000000 
#    y 0.000000 1.677110 0.000000 
#    z 0.000000 0.000000 1.704340 
# 
# From -- ./inp_files/66980.got.cif
#   From: 2010.05.17/outbox.cif.g08.bks.cpg/sg65_34_cif.got.tgz:66980.got - 2010.06.03 17:01:31.
