data_PCOD9485428
_publ_section_title
;
Structure prediction by ZEFSAII (Michael W. Deem and Ramdas Pophale) SiO2 
 PCOD9485428
Probable space group: C M M M
;
_chemical_formula_sum "Si O2"
_cell_formula_units_Z 72
_cell_length_a 19.376298
_cell_length_b 8.007507
_cell_length_c 24.586454
_cell_angle_alpha 90.000000
_cell_angle_beta 90.000000
_cell_angle_gamma 90.000000
_cell_volume 3814.731969
_symmetry_space_group_name_H-M "C M M M"
_symmetry_group_IT_number 65
_symmetry_cell_setting 'orthorhombic'
loop_
_space_group_symop_operation_xyz
x,y,z
-x,-y,z
x,-y,-z
-x,y,-z
-x,-y,-z
x,y,-z
-x,y,z
x,-y,z
1/2+x,1/2+y,z
1/2-x,1/2-y,z
1/2+x,1/2-y,-z
1/2-x,1/2+y,-z
1/2-x,1/2-y,-z
1/2+x,1/2+y,-z
1/2-x,1/2+y,z
1/2+x,1/2-y,z
loop_
_atom_site_type_symbol
_atom_site_label
_atom_site_fract_x
_atom_site_fract_y
_atom_site_fract_z
Si Si1 0.416685 0.699849 0.941572
Si Si2 0.920349 0.294925 0.500000
Si Si3 0.919661 0.795261 0.823131
Si Si4 0.829725 0.698571 0.398711
Si Si5 0.670514 0.301152 0.722442
O O1 0.500000 0.719868 0.940927
O O2 0.404024 0.500000 0.942360
O O3 0.392906 0.762716 0.882575
O O4 0.391641 0.768241 0.000000
O O5 0.919877 0.500000 0.500000
O O6 0.879022 0.237271 0.553505
O O7 0.000000 0.242816 0.500000
O O8 0.875463 0.735258 0.772057
O O9 0.000000 0.748273 0.817349
O O10 0.917991 0.000000 0.823927
O O11 0.831237 0.500000 0.401147
O O12 0.750000 0.750000 0.406754
O O13 0.851895 0.748804 0.338002
O O14 0.667151 0.500000 0.724215
O O15 0.750000 0.250000 0.729049
#
# Coordination Sequence:
#
# PCOD9485428 Si02
#       5
#    16   8  16  16  16
#     4   7   9  15  30  53  80 108 139 177 220 263
#     4   9  19  34  51  73  98 121 144 176 222 267
#     4   8  14  24  39  61  87 114 145 184 228 265
#     4  10  19  33  53  71  90 118 152 186 216 256
#     4  10  19  31  47  66  91 121 151 183 219 262
#
# _framework density 18.874195
#
# number of rings (size 3 to 8) (size 9 to 14) (size 15 to 20)
#    0.000    3.222    0.000    5.000    0.000    0.889 
#    0.000    1.667    0.000    7.333    0.000    0.000 
#    0.000    2.667    0.000   22.222    0.000   18.667 
#
# Total GULP energy -200461.047158 kJ/mol
# GULP energy per Si atom -5568.362421 kJ/mol
# Density = 1.883124 g / cm^3
# Si number density = 18.874195 Si / 1000 Ang^3
#
#
#
# Elastic Constant Matrix: (Units=GPa)
#
#
# Indices 1 2 3 4 5 6 
#
# 1 62.0471 5.0618 103.0350 0.0000 0.0000 0.0000
# 2 5.0618 21.0884 14.1357 0.0000 0.0000 0.0000
# 3 103.0350 14.1357 252.4902 0.0000 0.0000 0.0000
# 4 0.0000 0.0000 0.0000 -25.4897 0.0000 0.0000
# 5 0.0000 0.0000 0.0000 0.0000 -5.5407 0.0000
# 6 0.0000 0.0000 0.0000 0.0000 0.0000 7.9121
#
#
#
# Elastic Compliance Matrix: (Units=1/GPa)
#
#
# Indices 1 2 3 4 5 6 
#
# 1 0.050059 0.001743 -0.020525 0.000000 0.000000 0.000000
# 2 0.001743 0.049329 -0.003473 0.000000 0.000000 0.000000
# 3 -0.020525 -0.003473 0.012531 0.000000 0.000000 0.000000
# 4 0.000000 0.000000 0.000000 -0.039231 0.000000 0.000000
# 5 0.000000 0.000000 0.000000 0.000000 -0.180481 0.000000
# 6 0.000000 0.000000 0.000000 0.000000 0.000000 0.126388
#
#
# Mechanical properties :
#
#
# Convention : Reuss Voigt Hill
#
# Bulk Modulus (GPa) = 14.83507 64.45451 39.64479
# Shear Modulus (GPa) = 58.42891 9.60256 34.01573
#
# Velocity S-wave (km/s) = 5.56994 2.25803 4.24988
# Velocity P-wave (km/s) = 7.01731 6.40484 6.71806
#
# Compressibility (1/GPa) = 0.06740783
#
# Stress axis : x y z
#
# Youngs Moduli (GPa) = 19.97648 20.27207 79.80296
#
# Poissons Ratio (x) = -0.03533 1.63798
# Poissons Ratio (y) = -0.03482 0.27715
# Poissons Ratio (z) = 0.41002 0.07040
#
# Static dielectric constant tensor:
#      x y z
#    x 1.625360 0.000000 0.000000 
#    y 0.000000 1.669490 0.000000 
#    z 0.000000 0.000000 1.719570 
# 
# From -- ./inp_files/67252.got.cif
#   From: 2010.05.17/outbox.cif.g08.bks.cpg/sg65_34_cif.got.tgz:67252.got - 2010.06.03 17:01:31.
