data_PCOD9485191
_publ_section_title
;
Structure prediction by ZEFSAII (Michael W. Deem and Ramdas Pophale) SiO2 
 PCOD9485191
Probable space group: C M M M
;
_chemical_formula_sum "Si O2"
_cell_formula_units_Z 112
_cell_length_a 17.135610
_cell_length_b 15.198128
_cell_length_c 23.766749
_cell_angle_alpha 90.000000
_cell_angle_beta 90.000000
_cell_angle_gamma 90.000000
_cell_volume 6189.555289
_symmetry_space_group_name_H-M "C M M M"
_symmetry_group_IT_number 65
_symmetry_cell_setting 'orthorhombic'
loop_
_space_group_symop_operation_xyz
x,y,z
-x,-y,z
x,-y,-z
-x,y,-z
-x,-y,-z
x,y,-z
-x,y,z
x,-y,z
1/2+x,1/2+y,z
1/2-x,1/2-y,z
1/2+x,1/2-y,-z
1/2-x,1/2+y,-z
1/2-x,1/2-y,-z
1/2+x,1/2+y,-z
1/2-x,1/2+y,z
1/2+x,1/2-y,z
loop_
_atom_site_type_symbol
_atom_site_label
_atom_site_fract_x
_atom_site_fract_y
_atom_site_fract_z
Si Si1 0.092795 0.732284 0.658609
Si Si2 0.595090 0.099435 0.565554
Si Si3 0.208512 0.341903 0.141501
Si Si4 0.594535 0.399732 0.275524
Si Si5 0.874087 0.097885 0.144819
Si Si6 0.086799 0.257894 0.065194
Si Si7 0.911286 0.601961 0.236530
O O1 0.124254 0.678723 0.604919
O O2 0.124260 0.826019 0.680848
O O3 0.099784 0.665401 0.710701
O O4 0.000000 0.746034 0.648281
O O5 0.615406 0.111288 0.500000
O O6 0.500000 0.099664 0.569032
O O7 0.619343 0.000000 0.583017
O O8 0.250000 0.250000 0.158518
O O9 0.282140 0.403138 0.131376
O O10 0.154675 0.320741 0.088015
O O11 0.151879 0.376453 0.189614
O O12 0.500000 0.398829 0.277481
O O13 0.620784 0.500000 0.287078
O O14 0.616142 0.378101 0.210836
O O15 0.909670 0.171759 0.104742
O O16 0.906996 0.000000 0.137528
O O17 0.000000 0.297012 0.070670
O O18 0.099210 0.234970 0.000000
O O19 0.905450 0.500000 0.253541
O O20 0.000000 0.616837 0.215178
#
# Coordination Sequence:
#
# PCOD9485191 Si02
#       7
#    16  16  16  16  16  16  16
#     4   9  15  24  40  62  89 122 159 195 236 288
#     4   8  13  21  34  55  86 123 160 198 242 291
#     4  10  20  33  50  69  94 125 155 189 234 288
#     4   9  17  29  46  68  94 124 158 198 244 294
#     4  10  20  33  50  72  97 122 150 192 245 294
#     4  10  21  36  53  71  91 120 159 197 233 280
#     4  10  19  30  47  71  97 124 156 196 240 288
#
# _framework density 18.094999999999999
#
# number of rings (size 3 to 8) (size 9 to 14) (size 15 to 20)
#    0.000    2.571    0.000    3.857    0.000    6.571 
#    0.000    0.714    0.000    1.714    0.000    8.000 
#    0.000    5.143    0.000    7.143    0.000    8.143 
#
# Total GULP energy -312032.081850 kJ/mol
# GULP energy per Si atom -5572.001462 kJ/mol
# Density = 1.805381 g / cm^3
# Si number density = 18.095000 Si / 1000 Ang^3
#
#
#
# Elastic Constant Matrix: (Units=GPa)
#
#
# Indices 1 2 3 4 5 6 
#
# 1 56.6071 17.1792 17.9803 0.0000 0.0000 0.0000
# 2 17.1792 103.1051 56.5406 0.0000 0.0000 0.0000
# 3 17.9803 56.5406 83.9993 0.0000 0.0000 0.0000
# 4 0.0000 0.0000 0.0000 -129.6616 0.0000 0.0000
# 5 0.0000 0.0000 0.0000 0.0000 -13.2975 0.0000
# 6 0.0000 0.0000 0.0000 0.0000 0.0000 2.5794
#
#
#
# Elastic Compliance Matrix: (Units=1/GPa)
#
#
# Indices 1 2 3 4 5 6 
#
# 1 0.019098 -0.001490 -0.003085 0.000000 0.000000 0.000000
# 2 -0.001490 0.015490 -0.010107 0.000000 0.000000 0.000000
# 3 -0.003085 -0.010107 0.019368 0.000000 0.000000 0.000000
# 4 0.000000 0.000000 0.000000 -0.007712 0.000000 0.000000
# 5 0.000000 0.000000 0.000000 0.000000 -0.075202 0.000000
# 6 0.000000 0.000000 0.000000 0.000000 0.000000 0.387685
#
#
# Mechanical properties :
#
#
# Convention : Reuss Voigt Hill
#
# Bulk Modulus (GPa) = 40.66507 47.45688 44.06098
# Shear Modulus (GPa) = 12.61708 -17.94186 -2.66239
#
# Velocity S-wave (km/s) = 2.64345 -3.15228 -1.21430
# Velocity P-wave (km/s) = 5.64261 3.61030 4.73673
#
# Compressibility (1/GPa) = 0.02459113
#
# Stress axis : x y z
#
# Youngs Moduli (GPa) = 52.36218 64.55869 51.63045
#
# Poissons Ratio (x) = 0.09622 0.15926
# Poissons Ratio (y) = 0.07804 0.52184
# Poissons Ratio (z) = 0.16152 0.65251
#
# Static dielectric constant tensor:
#      x y z
#    x 1.632970 0.000000 0.000000 
#    y 0.000000 1.654290 0.000000 
#    z 0.000000 0.000000 1.599320 
# 
# From -- ./inp_files/74888.got.cif
#   From: 2010.05.17/outbox.cif.g08.bks.cpg/sg65_38_cif.got.tgz:74888.got - 2010.06.03 17:01:31.
