data_PCOD9485609
_publ_section_title
;
Structure prediction by ZEFSAII (Michael W. Deem and Ramdas Pophale) SiO2 
 PCOD9485609
Probable space group: C M M M
;
_chemical_formula_sum "Si O2"
_cell_formula_units_Z 104
_cell_length_a 26.914743
_cell_length_b 20.228645
_cell_length_c 7.641526
_cell_angle_alpha 90.000000
_cell_angle_beta 90.000000
_cell_angle_gamma 90.000000
_cell_volume 4160.419519
_symmetry_space_group_name_H-M "C M M M"
_symmetry_group_IT_number 65
_symmetry_cell_setting 'orthorhombic'
loop_
_space_group_symop_operation_xyz
x,y,z
-x,-y,z
x,-y,-z
-x,y,-z
-x,-y,-z
x,y,-z
-x,y,z
x,-y,z
1/2+x,1/2+y,z
1/2-x,1/2-y,z
1/2+x,1/2-y,-z
1/2-x,1/2+y,-z
1/2-x,1/2-y,-z
1/2+x,1/2+y,-z
1/2-x,1/2+y,z
1/2+x,1/2-y,z
loop_
_atom_site_type_symbol
_atom_site_label
_atom_site_fract_x
_atom_site_fract_y
_atom_site_fract_z
Si Si1 0.000000 0.422540 0.284265
Si Si2 0.423603 0.428836 0.300515
Si Si3 0.835042 0.752994 0.711492
Si Si4 0.554913 0.280040 0.713699
Si Si5 0.682507 0.598451 0.193751
Si Si6 0.604324 0.921326 0.699407
Si Si7 0.210089 0.383077 0.288702
O O1 0.052784 0.394648 0.223932
O O2 0.000000 0.500000 0.234688
O O3 0.000000 0.419338 0.500000
O O4 0.441874 0.428826 0.500000
O O5 0.437972 0.500000 0.220920
O O6 0.439518 0.357286 0.226990
O O7 0.363422 0.426241 0.306700
O O8 0.833543 0.759009 0.500000
O O9 0.893303 0.744018 0.763322
O O10 0.818745 0.822389 0.788185
O O11 0.798292 0.693748 0.758640
O O12 0.555180 0.279640 0.500000
O O13 0.500000 0.255896 0.767611
O O14 0.739632 0.582420 0.229567
O O15 0.669172 0.577732 0.000000
O O16 0.607483 0.893892 0.500000
O O17 0.658181 0.912109 0.779200
O O18 0.597560 0.000000 0.685319
O O19 0.211517 0.387693 0.500000
#
# Coordination Sequence:
#
# PCOD9485609 Si02
#       7
#     8  16  16  16  16  16  16
#     4   7  10  20  38  60  91 125 149 175 218 273
#     4   9  18  33  53  76 102 134 168 200 242 298
#     4   9  18  33  50  70  97 129 164 204 249 298
#     4   8  14  27  48  74 103 130 158 199 249 296
#     4  11  22  34  50  70  95 129 166 208 251 292
#     4   8  14  25  42  66  96 127 155 187 233 286
#     4  10  19  31  48  72  98 127 165 207 248 295
#
# _framework density 24.997478000000001
#
# number of rings (size 3 to 8) (size 9 to 14) (size 15 to 20)
#    0.000    3.000    0.000    3.692    0.000    3.692 
#    1.385    3.077    0.000    7.385    0.000    4.846 
#    0.000    1.846    0.000    0.000    0.000    0.000 
#
# Total GULP energy -290070.677289 kJ/mol
# GULP energy per Si atom -5578.282256 kJ/mol
# Density = 2.494058 g / cm^3
# Si number density = 24.997478 Si / 1000 Ang^3
#
#
#
# Elastic Constant Matrix: (Units=GPa)
#
#
# Indices 1 2 3 4 5 6 
#
# 1 195.4990 9.1134 7.0688 0.0000 0.0000 0.0000
# 2 9.1134 56.7127 6.6965 0.0000 0.0000 0.0000
# 3 7.0688 6.6965 52.7665 0.0000 0.0000 0.0000
# 4 0.0000 0.0000 0.0000 28.1208 0.0000 0.0000
# 5 0.0000 0.0000 0.0000 0.0000 481.2926 0.0000
# 6 0.0000 0.0000 0.0000 0.0000 0.0000 -18.0611
#
#
#
# Elastic Compliance Matrix: (Units=1/GPa)
#
#
# Indices 1 2 3 4 5 6 
#
# 1 0.005172 -0.000761 -0.000596 0.000000 0.000000 0.000000
# 2 -0.000761 0.018013 -0.002184 0.000000 0.000000 0.000000
# 3 -0.000596 -0.002184 0.019308 0.000000 0.000000 0.000000
# 4 0.000000 0.000000 0.000000 0.035561 0.000000 0.000000
# 5 0.000000 0.000000 0.000000 0.000000 0.002078 0.000000
# 6 0.000000 0.000000 0.000000 0.000000 0.000000 -0.055368
#
#
# Mechanical properties :
#
#
# Convention : Reuss Voigt Hill
#
# Bulk Modulus (GPa) = 28.23965 38.97063 33.60514
# Shear Modulus (GPa) = 114.54655 117.07709 115.81182
#
# Velocity S-wave (km/s) = 6.77663 6.85108 6.81395
# Velocity P-wave (km/s) = 8.51774 8.84345 8.68212
#
# Compressibility (1/GPa) = 0.03541121
#
# Stress axis : x y z
#
# Youngs Moduli (GPa) = 193.34356 55.51591 51.79075
#
# Poissons Ratio (x) = 0.04223 0.03088
# Poissons Ratio (y) = 0.14708 0.11311
# Poissons Ratio (z) = 0.11530 0.12125
#
# Static dielectric constant tensor:
#      x y z
#    x 2.014980 0.000000 0.000000 
#    y 0.000000 2.013700 0.000000 
#    z 0.000000 0.000000 1.983120 
# 
# From -- ./inp_files/16762.got.cif
#   From: 2010.05.17/outbox.cif.g08.bks.cpg/sg65_9_cif.got.tgz:16762.got - 2010.06.03 17:01:31.
