data_PCOD9485508
_publ_section_title
;
Structure prediction by ZEFSAII (Michael W. Deem and Ramdas Pophale) SiO2 
 PCOD9485508
Probable space group: C M M M
;
_chemical_formula_sum "Si O2"
_cell_formula_units_Z 64
_cell_length_a 18.772168
_cell_length_b 7.621816
_cell_length_c 22.639105
_cell_angle_alpha 90.000000
_cell_angle_beta 90.000000
_cell_angle_gamma 90.000000
_cell_volume 3239.158101
_symmetry_space_group_name_H-M "C M M M"
_symmetry_group_IT_number 65
_symmetry_cell_setting 'orthorhombic'
loop_
_space_group_symop_operation_xyz
x,y,z
-x,-y,z
x,-y,-z
-x,y,-z
-x,-y,-z
x,y,-z
-x,y,z
x,-y,z
1/2+x,1/2+y,z
1/2-x,1/2-y,z
1/2+x,1/2-y,-z
1/2-x,1/2+y,-z
1/2-x,1/2-y,-z
1/2+x,1/2+y,-z
1/2-x,1/2+y,z
1/2+x,1/2-y,z
loop_
_atom_site_type_symbol
_atom_site_label
_atom_site_fract_x
_atom_site_fract_y
_atom_site_fract_z
Si Si1 0.917813 0.213963 0.613819
Si Si2 0.167102 0.698406 0.862501
Si Si3 0.083017 0.000000 0.070656
Si Si4 0.583332 0.287446 0.253323
Si Si5 0.667144 0.710624 0.500000
O O1 0.896604 0.267961 0.680062
O O2 0.869969 0.276949 0.559829
O O3 0.000000 0.264807 0.604306
O O4 0.916282 0.000000 0.614142
O O5 0.160406 0.500000 0.884172
O O6 0.250000 0.750000 0.860977
O O7 0.122919 0.832135 0.902680
O O8 0.133347 0.712535 0.797179
O O9 0.000000 0.000000 0.089063
O O10 0.086452 0.000000 0.000000
O O11 0.500000 0.240822 0.243929
O O12 0.587567 0.500000 0.250155
O O13 0.657611 0.500000 0.500000
O O14 0.750000 0.750000 0.500000
#
# Coordination Sequence:
#
# PCOD9485508 Si02
#       5
#    16  16   8  16   8
#     4   8  15  29  52  78 103 144 196 246 297 358
#     4  12  24  42  66  98 133 173 215 260 319 379
#     4  11  26  48  72 100 135 172 214 264 312 372
#     4   9  17  33  58  86 119 156 200 256 316 375
#     4  10  19  31  47  71 105 142 192 242 300 362
#
# _framework density 19.758219
#
# number of rings (size 3 to 8) (size 9 to 14) (size 15 to 20)
#    0.000    2.125    2.500    2.625    0.000    5.500 
#    0.000    5.000    0.000    3.000    0.000    0.000 
#    0.000    0.000    0.000    0.000    0.000    0.000 
#
# Total GULP energy -178782.963008 kJ/mol
# GULP energy per Si atom -5586.967594 kJ/mol
# Density = 1.971325 g / cm^3
# Si number density = 19.758219 Si / 1000 Ang^3
#
#
#
# Elastic Constant Matrix: (Units=GPa)
#
#
# Indices 1 2 3 4 5 6 
#
# 1 140.2468 50.7918 89.6221 0.0000 0.0000 0.0000
# 2 50.7918 107.9901 42.8822 0.0000 0.0000 0.0000
# 3 89.6221 42.8822 122.8254 0.0000 0.0000 0.0000
# 4 0.0000 0.0000 0.0000 -12.7285 0.0000 0.0000
# 5 0.0000 0.0000 0.0000 0.0000 -21.4268 0.0000
# 6 0.0000 0.0000 0.0000 0.0000 0.0000 22.6486
#
#
#
# Elastic Compliance Matrix: (Units=1/GPa)
#
#
# Indices 1 2 3 4 5 6 
#
# 1 0.014132 -0.002963 -0.009277 0.000000 0.000000 0.000000
# 2 -0.002963 0.011372 -0.001808 0.000000 0.000000 0.000000
# 3 -0.009277 -0.001808 0.015542 0.000000 0.000000 0.000000
# 4 0.000000 0.000000 0.000000 -0.078564 0.000000 0.000000
# 5 0.000000 0.000000 0.000000 0.000000 -0.046671 0.000000
# 6 0.000000 0.000000 0.000000 0.000000 0.000000 0.044153
#
#
# Mechanical properties :
#
#
# Convention : Reuss Voigt Hill
#
# Bulk Modulus (GPa) = 77.22515 81.96160 79.59338
# Shear Modulus (GPa) = -655.87982 10.21641 -322.83171
#
# Velocity S-wave (km/s) = -18.23934 2.27639 -12.79632
# Velocity P-wave (km/s) = 20.10957 6.96287 13.34004
#
# Compressibility (1/GPa) = 0.01294915
#
# Stress axis : x y z
#
# Youngs Moduli (GPa) = 70.76352 87.93759 64.34116
#
# Poissons Ratio (x) = 0.26054 0.59689
# Poissons Ratio (y) = 0.20966 0.11635
# Poissons Ratio (z) = 0.65647 0.15902
#
# Static dielectric constant tensor:
#      x y z
#    x 1.646080 0.000000 0.000000 
#    y 0.000000 1.744740 0.000000 
#    z 0.000000 0.000000 1.685250 
# 
# From -- ./inp_files/63284.got.cif
#   From: 2010.05.17/outbox.cif.g08.bks.cpg/sg65_32_cif.got.tgz:63284.got - 2010.06.03 17:01:31.
