data_PCOD9485940
_publ_section_title
;
Structure prediction by ZEFSAII (Michael W. Deem and Ramdas Pophale) SiO2 
 PCOD9485940
Probable space group: C M M M
;
_chemical_formula_sum "Si O2"
_cell_formula_units_Z 64
_cell_length_a 7.398212
_cell_length_b 26.636012
_cell_length_c 14.741677
_cell_angle_alpha 90.000000
_cell_angle_beta 90.000000
_cell_angle_gamma 90.000000
_cell_volume 2904.978117
_symmetry_space_group_name_H-M "C M M M"
_symmetry_group_IT_number 65
_symmetry_cell_setting 'orthorhombic'
loop_
_space_group_symop_operation_xyz
x,y,z
-x,-y,z
x,-y,-z
-x,y,-z
-x,-y,-z
x,y,-z
-x,y,z
x,-y,z
1/2+x,1/2+y,z
1/2-x,1/2-y,z
1/2+x,1/2-y,-z
1/2-x,1/2+y,-z
1/2-x,1/2-y,-z
1/2+x,1/2+y,-z
1/2-x,1/2+y,z
1/2+x,1/2-y,z
loop_
_atom_site_type_symbol
_atom_site_label
_atom_site_fract_x
_atom_site_fract_y
_atom_site_fract_z
Si Si1 0.282862 0.691064 0.700540
Si Si2 0.779763 0.000000 0.893976
Si Si3 0.796854 0.901660 0.793299
Si Si4 0.784520 0.190052 0.500000
Si Si5 0.283059 0.059547 0.598474
O O1 0.500000 0.685120 0.698227
O O2 0.250000 0.750000 0.714764
O O3 0.213822 0.653600 0.778837
O O4 0.212717 0.675359 0.599851
O O5 0.713559 0.948494 0.847172
O O6 0.000000 0.000000 0.882337
O O7 0.738992 0.000000 0.000000
O O8 0.803552 0.919541 0.688760
O O9 0.000000 0.895297 0.830517
O O10 0.750000 0.250000 0.500000
O O11 0.000000 0.182173 0.500000
O O12 0.223171 0.079952 0.500000
O O13 0.500000 0.065383 0.604350
O O14 0.247011 0.000000 0.597594
#
# Coordination Sequence:
#
# PCOD9485940 Si02
#       5
#    16   8  16   8  16
#     4   9  18  30  45  67  96 129 168 204 240 283
#     4   9  18  34  54  77 102 124 155 205 262 313
#     4  10  19  31  51  76  97 127 170 210 247 290
#     4   8  14  26  40  57  87 124 158 197 228 262
#     4   9  18  31  45  66 101 139 167 195 239 296
#
# _framework density 22.031146
#
# number of rings (size 3 to 8) (size 9 to 14) (size 15 to 20)
#    0.000    2.875    1.250    0.750    1.750    1.500 
#    0.000    1.250    0.000    2.250    0.000    0.000 
#    0.000    0.000    0.000    0.000    0.000    0.000 
#
# Total GULP energy -178472.710300 kJ/mol
# GULP energy per Si atom -5577.272197 kJ/mol
# Density = 2.198100 g / cm^3
# Si number density = 22.031146 Si / 1000 Ang^3
#
#
#
# Elastic Constant Matrix: (Units=GPa)
#
#
# Indices 1 2 3 4 5 6 
#
# 1 79.8363 7.6324 -0.1972 0.0000 0.0000 0.0000
# 2 7.6324 173.9334 70.5144 0.0000 0.0000 0.0000
# 3 -0.1972 70.5144 90.2551 0.0000 0.0000 0.0000
# 4 0.0000 0.0000 0.0000 21.5119 0.0000 0.0000
# 5 0.0000 0.0000 0.0000 0.0000 -30.3698 0.0000
# 6 0.0000 0.0000 0.0000 0.0000 0.0000 16.5862
#
#
#
# Elastic Compliance Matrix: (Units=1/GPa)
#
#
# Indices 1 2 3 4 5 6 
#
# 1 0.012606 -0.000826 0.000673 0.000000 0.000000 0.000000
# 2 -0.000826 0.008469 -0.006618 0.000000 0.000000 0.000000
# 3 0.000673 -0.006618 0.016252 0.000000 0.000000 0.000000
# 4 0.000000 0.000000 0.000000 0.046486 0.000000 0.000000
# 5 0.000000 0.000000 0.000000 0.000000 -0.032927 0.000000
# 6 0.000000 0.000000 0.000000 0.000000 0.000000 0.060291
#
#
# Mechanical properties :
#
#
# Convention : Reuss Voigt Hill
#
# Bulk Modulus (GPa) = 42.04484 55.54711 48.79597
# Shear Modulus (GPa) = 37.69407 19.28401 28.48904
#
# Velocity S-wave (km/s) = 4.14084 2.96177 3.59991
# Velocity P-wave (km/s) = 6.47980 6.07979 6.28298
#
# Compressibility (1/GPa) = 0.02378413
#
# Stress axis : x y z
#
# Youngs Moduli (GPa) = 79.32572 118.08260 61.53160
#
# Poissons Ratio (x) = 0.09753 -0.04140
# Poissons Ratio (y) = 0.06552 0.40723
# Poissons Ratio (z) = -0.05337 0.78149
#
# Static dielectric constant tensor:
#      x y z
#    x 1.869030 0.000000 0.000000 
#    y 0.000000 1.955130 0.000000 
#    z 0.000000 0.000000 1.765090 
# 
# From -- ./inp_files/31921.got.cif
#   From: 2010.05.17/outbox.cif.g08.bks.cpg/sg65_16_cif.got.tgz:31921.got - 2010.06.03 17:01:31.
