data_PCOD9485296
_publ_section_title
;
Structure prediction by ZEFSAII (Michael W. Deem and Ramdas Pophale) SiO2 
 PCOD9485296
Probable space group: C M M M
;
_chemical_formula_sum "Si O2"
_cell_formula_units_Z 88
_cell_length_a 14.870866
_cell_length_b 10.578987
_cell_length_c 26.227317
_cell_angle_alpha 90.000000
_cell_angle_beta 90.000000
_cell_angle_gamma 90.000000
_cell_volume 4126.047365
_symmetry_space_group_name_H-M "C M M M"
_symmetry_group_IT_number 65
_symmetry_cell_setting 'orthorhombic'
loop_
_space_group_symop_operation_xyz
x,y,z
-x,-y,z
x,-y,-z
-x,y,-z
-x,-y,-z
x,y,-z
-x,y,z
x,-y,z
1/2+x,1/2+y,z
1/2-x,1/2-y,z
1/2+x,1/2-y,-z
1/2-x,1/2+y,-z
1/2-x,1/2-y,-z
1/2+x,1/2+y,-z
1/2-x,1/2+y,z
1/2+x,1/2-y,z
loop_
_atom_site_type_symbol
_atom_site_label
_atom_site_fract_x
_atom_site_fract_y
_atom_site_fract_z
Si Si1 0.103421 0.000000 0.722776
Si Si2 0.169028 0.148291 0.888863
Si Si3 0.109361 0.500000 0.743582
Si Si4 0.634404 0.500000 0.395202
Si Si5 0.359327 0.763129 0.442095
Si Si6 0.604946 0.265391 0.781831
Si Si7 0.828714 0.145558 0.000000
Si Si8 0.849071 0.500000 0.376212
O O1 0.145628 0.127362 0.745186
O O2 0.101703 0.000000 0.662508
O O3 0.000000 0.000000 0.741638
O O4 0.250000 0.250000 0.888941
O O5 0.112989 0.186888 0.839506
O O6 0.196110 0.000000 0.883494
O O7 0.123880 0.159444 0.945080
O O8 0.143084 0.626495 0.771600
O O9 0.136024 0.500000 0.684160
O O10 0.000000 0.500000 0.745460
O O11 0.607053 0.373258 0.424214
O O12 0.742829 0.500000 0.389003
O O13 0.385644 0.793361 0.500000
O O14 0.250000 0.750000 0.441696
O O15 0.385668 0.873642 0.403172
O O16 0.500000 0.254217 0.768601
O O17 0.750000 0.250000 0.000000
O O18 0.792982 0.000000 0.000000
#
# Coordination Sequence:
#
# PCOD9485296 Si02
#       8
#     8  16   8   8  16  16   8   8
#     4  10  20  35  53  72  99 138 173 209 262 313
#     4  10  20  34  56  83 111 141 177 219 264 312
#     4  10  22  37  53  74 103 140 175 217 270 319
#     4  10  19  30  50  76  99 127 164 209 253 305
#     4   9  17  30  49  74 101 128 160 203 255 308
#     4  10  21  37  55  74 103 142 182 220 264 318
#     4   8  16  32  51  77 110 142 172 209 262 317
#     4  10  19  32  52  74  97 127 170 211 251 303
#
# _framework density 21.327919000000001
#
# number of rings (size 3 to 8) (size 9 to 14) (size 15 to 20)
#    0.000    2.364    0.909    1.636    1.273    3.636 
#    0.000    0.455    0.000    4.909    0.000    1.909 
#    0.000    0.000    0.000    0.000    0.000    0.000 
#
# Total GULP energy -245422.587867 kJ/mol
# GULP energy per Si atom -5577.786088 kJ/mol
# Density = 2.127938 g / cm^3
# Si number density = 21.327919 Si / 1000 Ang^3
#
#
#
# Elastic Constant Matrix: (Units=GPa)
#
#
# Indices 1 2 3 4 5 6 
#
# 1 43.0972 8.5089 -19.1883 0.0000 0.0000 0.0000
# 2 8.5089 192.5151 68.9834 0.0000 0.0000 0.0000
# 3 -19.1883 68.9834 131.1980 0.0000 0.0000 0.0000
# 4 0.0000 0.0000 0.0000 39.5927 0.0000 0.0000
# 5 0.0000 0.0000 0.0000 0.0000 42.2406 0.0000
# 6 0.0000 0.0000 0.0000 0.0000 0.0000 -4.3262
#
#
#
# Elastic Compliance Matrix: (Units=1/GPa)
#
#
# Indices 1 2 3 4 5 6 
#
# 1 0.026263 -0.003126 0.005485 0.000000 0.000000 0.000000
# 2 -0.003126 0.006772 -0.004018 0.000000 0.000000 0.000000
# 3 0.005485 -0.004018 0.010537 0.000000 0.000000 0.000000
# 4 0.000000 0.000000 0.000000 0.025257 0.000000 0.000000
# 5 0.000000 0.000000 0.000000 0.000000 0.023674 0.000000
# 6 0.000000 0.000000 0.000000 0.000000 0.000000 -0.231149
#
#
# Mechanical properties :
#
#
# Convention : Reuss Voigt Hill
#
# Bulk Modulus (GPa) = 24.84296 53.71316 39.27806
# Shear Modulus (GPa) = -41.01394 36.06850 -2.47272
#
# Velocity S-wave (km/s) = -4.38998 4.11681 -1.07791
# Velocity P-wave (km/s) = 3.74466 6.91640 4.11182
#
# Compressibility (1/GPa) = 0.04025285
#
# Stress axis : x y z
#
# Youngs Moduli (GPa) = 38.07707 147.65916 94.90438
#
# Poissons Ratio (x) = 0.46159 -0.52052
# Poissons Ratio (y) = 0.11903 0.38133
# Poissons Ratio (z) = -0.20884 0.59331
#
# Static dielectric constant tensor:
#      x y z
#    x 1.792450 0.000000 0.000000 
#    y 0.000000 1.813290 0.000000 
#    z 0.000000 0.000000 1.738220 
# 
# From -- ./inp_files/71121.got.cif
#   From: 2010.05.17/outbox.cif.g08.bks.cpg/sg65_36_cif.got.tgz:71121.got - 2010.06.03 17:01:31.
