data_PCOD9485689
_publ_section_title
;
Structure prediction by ZEFSAII (Michael W. Deem and Ramdas Pophale) SiO2 
 PCOD9485689
Probable space group: C M M M
;
_chemical_formula_sum "Si O2"
_cell_formula_units_Z 104
_cell_length_a 29.718036
_cell_length_b 8.877383
_cell_length_c 25.408746
_cell_angle_alpha 90.000000
_cell_angle_beta 90.000000
_cell_angle_gamma 90.000000
_cell_volume 6703.294400
_symmetry_space_group_name_H-M "C M M M"
_symmetry_group_IT_number 65
_symmetry_cell_setting 'orthorhombic'
loop_
_space_group_symop_operation_xyz
x,y,z
-x,-y,z
x,-y,-z
-x,y,-z
-x,-y,-z
x,y,-z
-x,y,z
x,-y,z
1/2+x,1/2+y,z
1/2-x,1/2-y,z
1/2+x,1/2-y,-z
1/2-x,1/2+y,-z
1/2-x,1/2-y,-z
1/2+x,1/2+y,-z
1/2-x,1/2+y,z
1/2+x,1/2-y,z
loop_
_atom_site_type_symbol
_atom_site_label
_atom_site_fract_x
_atom_site_fract_y
_atom_site_fract_z
Si Si1 0.947811 0.318113 0.843653
Si Si2 0.000000 0.319845 0.439233
Si Si3 0.449933 0.322897 0.650506
Si Si4 0.605311 0.318833 0.058577
Si Si5 0.796301 0.680939 0.785154
Si Si6 0.892264 0.319042 0.740093
Si Si7 0.796273 0.180520 0.901973
O O1 0.945965 0.500000 0.845507
O O2 0.923297 0.254394 0.895034
O O3 0.921146 0.270043 0.791152
O O4 0.000000 0.272288 0.841559
O O5 0.957683 0.255399 0.406052
O O6 0.000000 0.500000 0.436255
O O7 0.000000 0.273608 0.500000
O O8 0.500000 0.301192 0.675973
O O9 0.442847 0.500000 0.643632
O O10 0.412988 0.252462 0.688008
O O11 0.600991 0.500000 0.062152
O O12 0.658203 0.283901 0.066836
O O13 0.591140 0.271263 0.000000
O O14 0.792879 0.500000 0.789686
O O15 0.750000 0.750000 0.763705
O O16 0.840366 0.718424 0.751469
O O17 0.802012 0.750600 0.843476
O O18 0.896002 0.500000 0.736352
O O19 0.750000 0.250000 0.923842
O O20 0.791681 0.000000 0.898527
#
# Coordination Sequence:
#
# PCOD9485689 Si02
#       7
#    16   8  16  16  16  16  16
#     4  10  21  36  53  72  92 120 156 196 244 292
#     4   9  17  31  51  73 105 149 186 213 246 285
#     4   9  19  30  45  74 105 137 174 211 247 283
#     4  10  22  38  52  68  91 119 152 193 244 299
#     4  10  19  31  49  72  96 125 158 193 243 299
#     4  10  19  32  51  71  98 131 163 201 246 297
#     4  10  19  32  51  71  92 117 147 188 238 297
#
# _framework density 15.514760000000001
#
# number of rings (size 3 to 8) (size 9 to 14) (size 15 to 20)
#    0.462    1.769    1.538    2.769    0.000    4.923 
#    0.000    1.538    0.000    0.000    0.000    0.000 
#    0.000    0.615    0.000    2.000    0.000    2.462 
#
# Total GULP energy -289842.423510 kJ/mol
# GULP energy per Si atom -5573.892760 kJ/mol
# Density = 1.547945 g / cm^3
# Si number density = 15.514760 Si / 1000 Ang^3
#
#
#
# Elastic Constant Matrix: (Units=GPa)
#
#
# Indices 1 2 3 4 5 6 
#
# 1 105.5747 39.3334 58.5062 0.0000 0.0000 0.0000
# 2 39.3334 37.7887 33.0952 0.0000 0.0000 0.0000
# 3 58.5062 33.0952 111.0547 0.0000 0.0000 0.0000
# 4 0.0000 0.0000 0.0000 14.6607 0.0000 0.0000
# 5 0.0000 0.0000 0.0000 0.0000 18.0731 0.0000
# 6 0.0000 0.0000 0.0000 0.0000 0.0000 25.5128
#
#
#
# Elastic Compliance Matrix: (Units=1/GPa)
#
#
# Indices 1 2 3 4 5 6 
#
# 1 0.017367 -0.013618 -0.005091 0.000000 0.000000 0.000000
# 2 -0.013618 0.046487 -0.006679 0.000000 0.000000 0.000000
# 3 -0.005091 -0.006679 0.013677 0.000000 0.000000 0.000000
# 4 0.000000 0.000000 0.000000 0.068209 0.000000 0.000000
# 5 0.000000 0.000000 0.000000 0.000000 0.055331 0.000000
# 6 0.000000 0.000000 0.000000 0.000000 0.000000 0.039196
#
#
# Mechanical properties :
#
#
# Convention : Reuss Voigt Hill
#
# Bulk Modulus (GPa) = 37.37669 57.36530 47.37100
# Shear Modulus (GPa) = 16.66874 19.88154 18.27514
#
# Velocity S-wave (km/s) = 3.28133 3.58363 3.43581
# Velocity P-wave (km/s) = 6.20480 7.36058 6.80726
#
# Compressibility (1/GPa) = 0.02675464
#
# Stress axis : x y z
#
# Youngs Moduli (GPa) = 57.58099 21.51118 73.11505
#
# Poissons Ratio (x) = 0.29294 0.37222
# Poissons Ratio (y) = 0.78415 0.48836
# Poissons Ratio (z) = 0.29314 0.14368
#
# Static dielectric constant tensor:
#      x y z
#    x 1.527010 0.000000 0.000000 
#    y 0.000000 1.520190 0.000000 
#    z 0.000000 0.000000 1.491350 
# 
# From -- ./inp_files/75999.got.cif
#   From: 2010.05.17/outbox.cif.g08.bks.cpg/sg65_38_cif.got.tgz:75999.got - 2010.06.03 17:01:31.
