data_PCOD9485900
_publ_section_title
;
Structure prediction by ZEFSAII (Michael W. Deem and Ramdas Pophale) SiO2 
 PCOD9485900
Probable space group: C M M M
;
_chemical_formula_sum "Si O2"
_cell_formula_units_Z 72
_cell_length_a 15.055526
_cell_length_b 30.969989
_cell_length_c 7.505220
_cell_angle_alpha 90.000000
_cell_angle_beta 90.000000
_cell_angle_gamma 90.000000
_cell_volume 3499.454986
_symmetry_space_group_name_H-M "C M M M"
_symmetry_group_IT_number 65
_symmetry_cell_setting 'orthorhombic'
loop_
_space_group_symop_operation_xyz
x,y,z
-x,-y,z
x,-y,-z
-x,y,-z
-x,-y,-z
x,y,-z
-x,y,z
x,-y,z
1/2+x,1/2+y,z
1/2-x,1/2-y,z
1/2+x,1/2-y,-z
1/2-x,1/2+y,-z
1/2-x,1/2-y,-z
1/2+x,1/2+y,-z
1/2-x,1/2+y,z
1/2+x,1/2-y,z
loop_
_atom_site_type_symbol
_atom_site_label
_atom_site_fract_x
_atom_site_fract_y
_atom_site_fract_z
Si Si1 0.905196 0.817319 0.713414
Si Si2 0.162675 0.271456 0.205571
Si Si3 0.605008 0.551671 0.000000
Si Si4 0.599640 0.135526 0.215707
Si Si5 0.288694 0.604059 0.708510
O O1 0.901241 0.813112 0.500000
O O2 0.901508 0.769468 0.789794
O O3 0.825468 0.848618 0.767565
O O4 0.000000 0.837863 0.760761
O O5 0.250000 0.250000 0.292354
O O6 0.123246 0.315657 0.279867
O O7 0.184734 0.281467 0.000000
O O8 0.658046 0.570757 0.169670
O O9 0.609781 0.500000 0.000000
O O10 0.500000 0.563559 0.000000
O O11 0.500000 0.123843 0.275909
O O12 0.682404 0.105601 0.269432
O O13 0.597468 0.135976 0.000000
O O14 0.310150 0.598436 0.500000
#
# Coordination Sequence:
#
# PCOD9485900 Si02
#       5
#    16  16   8  16  16
#     4  10  21  34  50  77 114 158 207 259 311 361
#     4  10  19  31  50  77 114 164 219 270 314 356
#     4  11  26  48  75 104 131 161 193 235 311 399
#     4  10  20  36  58  87 127 176 229 276 317 364
#     4  11  23  41  66  96 130 165 210 262 312 374
#
# _framework density 20.574632000000001
#
# number of rings (size 3 to 8) (size 9 to 14) (size 15 to 20)
#    0.000    1.667    3.333    1.333    1.556    4.889 
#    0.000    1.111    0.000    1.333    0.000    1.556 
#    0.000    0.000    0.000    0.000    0.000    0.000 
#
# Total GULP energy -200916.278192 kJ/mol
# GULP energy per Si atom -5581.007728 kJ/mol
# Density = 2.052780 g / cm^3
# Si number density = 20.574632 Si / 1000 Ang^3
#
#
#
# Elastic Constant Matrix: (Units=GPa)
#
#
# Indices 1 2 3 4 5 6 
#
# 1 181.0817 45.2588 36.7435 0.0000 0.0000 0.0000
# 2 45.2588 79.7352 33.9472 0.0000 0.0000 0.0000
# 3 36.7435 33.9472 99.7542 0.0000 0.0000 0.0000
# 4 0.0000 0.0000 0.0000 -257.7416 0.0000 0.0000
# 5 0.0000 0.0000 0.0000 0.0000 19.0957 0.0000
# 6 0.0000 0.0000 0.0000 0.0000 0.0000 28.0624
#
#
#
# Elastic Compliance Matrix: (Units=1/GPa)
#
#
# Indices 1 2 3 4 5 6 
#
# 1 0.006587 -0.003164 -0.001349 0.000000 0.000000 0.000000
# 2 -0.003164 0.016187 -0.004343 0.000000 0.000000 0.000000
# 3 -0.001349 -0.004343 0.012000 0.000000 0.000000 0.000000
# 4 0.000000 0.000000 0.000000 -0.003880 0.000000 0.000000
# 5 0.000000 0.000000 0.000000 0.000000 0.052368 0.000000
# 6 0.000000 0.000000 0.000000 0.000000 0.000000 0.035635
#
#
# Mechanical properties :
#
#
# Convention : Reuss Voigt Hill
#
# Bulk Modulus (GPa) = 58.61683 65.82999 62.22341
# Shear Modulus (GPa) = 35.13802 -25.80857 4.66473
#
# Velocity S-wave (km/s) = 4.13708 -3.54558 1.50736
# Velocity P-wave (km/s) = 7.16744 3.91199 5.77390
#
# Compressibility (1/GPa) = 0.01705995
#
# Stress axis : x y z
#
# Youngs Moduli (GPa) = 151.81246 61.77934 83.33608
#
# Poissons Ratio (x) = 0.19549 0.11245
# Poissons Ratio (y) = 0.48040 0.36192
# Poissons Ratio (z) = 0.20486 0.26830
#
# Static dielectric constant tensor:
#      x y z
#    x 1.836710 0.000000 0.000000 
#    y 0.000000 1.702460 0.000000 
#    z 0.000000 0.000000 1.755250 
# 
# From -- ./inp_files/7646.got.cif
#   From: 2010.05.17/outbox.cif.g08.bks.cpg/sg65_4_cif.got.tgz:7646.got - 2010.06.03 17:01:31.
