data_PCOD9485808
_publ_section_title
;
Structure prediction by ZEFSAII (Michael W. Deem and Ramdas Pophale) SiO2 
 PCOD9485808
Probable space group: C M M M
;
_chemical_formula_sum "Si O2"
_cell_formula_units_Z 88
_cell_length_a 7.868885
_cell_length_b 18.868324
_cell_length_c 29.671579
_cell_angle_alpha 90.000000
_cell_angle_beta 90.000000
_cell_angle_gamma 90.000000
_cell_volume 4405.418608
_symmetry_space_group_name_H-M "C M M M"
_symmetry_group_IT_number 65
_symmetry_cell_setting 'orthorhombic'
loop_
_space_group_symop_operation_xyz
x,y,z
-x,-y,z
x,-y,-z
-x,y,-z
-x,-y,-z
x,y,-z
-x,y,z
x,-y,z
1/2+x,1/2+y,z
1/2-x,1/2-y,z
1/2+x,1/2-y,-z
1/2-x,1/2+y,-z
1/2-x,1/2-y,-z
1/2+x,1/2+y,-z
1/2-x,1/2+y,z
1/2+x,1/2-y,z
loop_
_atom_site_type_symbol
_atom_site_label
_atom_site_fract_x
_atom_site_fract_y
_atom_site_fract_z
Si Si1 0.204657 0.332685 0.911465
Si Si2 0.708247 0.081877 0.823325
Si Si3 0.798581 0.331608 0.363326
Si Si4 0.203951 0.080821 0.450917
Si Si5 0.291846 0.917720 0.000000
Si Si6 0.294867 0.167510 0.736198
O O1 0.250000 0.250000 0.912767
O O2 0.264814 0.371643 0.866051
O O3 0.000000 0.337053 0.911434
O O4 0.264550 0.375426 0.955521
O O5 0.500000 0.082342 0.823316
O O6 0.766117 0.118643 0.776997
O O7 0.760712 0.000000 0.826827
O O8 0.750000 0.250000 0.369828
O O9 0.746455 0.375559 0.406743
O O10 0.730392 0.353339 0.313800
O O11 0.000000 0.336475 0.360368
O O12 0.263820 0.108833 0.500000
O O13 0.000000 0.078402 0.452963
O O14 0.266489 0.000000 0.446612
O O15 0.500000 0.917881 0.000000
O O16 0.238907 0.000000 0.000000
O O17 0.500000 0.162711 0.735935
O O18 0.250000 0.250000 0.743673
#
# Coordination Sequence:
#
# PCOD9485808 Si02
#       6
#    16  16  16  16   8  16
#     4  10  19  31  50  73  97 128 163 201 244 289
#     4   9  17  30  49  72  96 125 163 202 240 284
#     4  10  20  33  51  75 101 130 164 203 246 291
#     4   9  19  36  55  74  99 131 164 200 245 295
#     4   9  17  30  49  73  98 125 164 208 242 281
#     4   9  18  32  50  71  96 126 159 198 241 287
#
# _framework density 19.975398999999999
#
# number of rings (size 3 to 8) (size 9 to 14) (size 15 to 20)
#    0.000    2.636    0.000    2.455    0.000    4.727 
#    0.000    2.727    0.000    4.364    0.000    0.000 
#    0.000    0.000    0.000    0.000    0.000    0.000 
#
# Total GULP energy -245473.076888 kJ/mol
# GULP energy per Si atom -5578.933566 kJ/mol
# Density = 1.992993 g / cm^3
# Si number density = 19.975399 Si / 1000 Ang^3
#
#
#
# Elastic Constant Matrix: (Units=GPa)
#
#
# Indices 1 2 3 4 5 6 
#
# 1 19.0545 4.0890 16.6694 0.0000 0.0000 0.0000
# 2 4.0890 154.3982 143.6828 0.0000 0.0000 0.0000
# 3 16.6694 143.6828 250.3379 0.0000 0.0000 0.0000
# 4 0.0000 0.0000 0.0000 99.8158 0.0000 0.0000
# 5 0.0000 0.0000 0.0000 0.0000 6.5962 0.0000
# 6 0.0000 0.0000 0.0000 0.0000 0.0000 19.0753
#
#
#
# Elastic Compliance Matrix: (Units=1/GPa)
#
#
# Indices 1 2 3 4 5 6 
#
# 1 0.057054 0.004345 -0.006293 0.000000 0.000000 0.000000
# 2 0.004345 0.014233 -0.008459 0.000000 0.000000 0.000000
# 3 -0.006293 -0.008459 0.009269 0.000000 0.000000 0.000000
# 4 0.000000 0.000000 0.000000 0.010018 0.000000 0.000000
# 5 0.000000 0.000000 0.000000 0.000000 0.151602 0.000000
# 6 0.000000 0.000000 0.000000 0.000000 0.000000 0.052424
#
#
# Mechanical properties :
#
#
# Convention : Reuss Voigt Hill
#
# Bulk Modulus (GPa) = 16.73833 83.63034 50.18433
# Shear Modulus (GPa) = 14.91083 42.38743 28.64913
#
# Velocity S-wave (km/s) = 2.73511 4.61149 3.79122
# Velocity P-wave (km/s) = 4.28626 8.38523 6.65898
#
# Compressibility (1/GPa) = 0.05974311
#
# Stress axis : x y z
#
# Youngs Moduli (GPa) = 17.52724 70.25807 107.89227
#
# Poissons Ratio (x) = -0.30530 0.67898
# Poissons Ratio (y) = -0.07616 0.91262
# Poissons Ratio (z) = 0.11030 0.59428
#
# Static dielectric constant tensor:
#      x y z
#    x 1.734790 0.000000 0.000000 
#    y 0.000000 1.651950 0.000000 
#    z 0.000000 0.000000 1.734210 
# 
# From -- ./inp_files/67511.got.cif
#   From: 2010.05.17/outbox.cif.g08.bks.cpg/sg65_34_cif.got.tgz:67511.got - 2010.06.03 17:01:31.
