data_PCOD9485470
_publ_section_title
;
Structure prediction by ZEFSAII (Michael W. Deem and Ramdas Pophale) SiO2 
 PCOD9485470
Probable space group: C M M M
;
_chemical_formula_sum "Si O2"
_cell_formula_units_Z 120
_cell_length_a 30.014437
_cell_length_b 8.842941
_cell_length_c 26.328990
_cell_angle_alpha 90.000000
_cell_angle_beta 90.000000
_cell_angle_gamma 90.000000
_cell_volume 6988.132459
_symmetry_space_group_name_H-M "C M M M"
_symmetry_group_IT_number 65
_symmetry_cell_setting 'orthorhombic'
loop_
_space_group_symop_operation_xyz
x,y,z
-x,-y,z
x,-y,-z
-x,y,-z
-x,-y,-z
x,y,-z
-x,y,z
x,-y,z
1/2+x,1/2+y,z
1/2-x,1/2-y,z
1/2+x,1/2-y,-z
1/2-x,1/2+y,-z
1/2-x,1/2-y,-z
1/2+x,1/2+y,-z
1/2-x,1/2+y,z
1/2+x,1/2-y,z
loop_
_atom_site_type_symbol
_atom_site_label
_atom_site_fract_x
_atom_site_fract_y
_atom_site_fract_z
Si Si1 0.700568 0.818086 0.500000
Si Si2 0.051367 0.180610 0.258206
Si Si3 0.203421 0.180645 0.092218
Si Si4 0.552861 0.824009 0.851413
Si Si5 0.200358 0.682574 0.388426
Si Si6 0.638367 0.818652 0.705521
Si Si7 0.297589 0.318663 0.211561
Si Si8 0.892718 0.182665 0.056511
O O1 0.750000 0.750000 0.500000
O O2 0.682143 0.773743 0.555364
O O3 0.702725 0.000000 0.500000
O O4 0.061289 0.234149 0.200624
O O5 0.088273 0.256592 0.293554
O O6 0.000000 0.224221 0.269241
O O7 0.054859 0.000000 0.260888
O O8 0.250000 0.250000 0.074793
O O9 0.196759 0.219291 0.151932
O O10 0.159068 0.227165 0.062882
O O11 0.207193 0.000000 0.088819
O O12 0.500000 0.813483 0.861659
O O13 0.579523 0.756542 0.898493
O O14 0.564303 0.000000 0.843618
O O15 0.204416 0.500000 0.386743
O O16 0.250000 0.750000 0.381770
O O17 0.167033 0.728407 0.343715
O O18 0.664015 0.751560 0.754178
O O19 0.637963 0.000000 0.708335
O O20 0.297083 0.500000 0.216623
O O21 0.250000 0.250000 0.227821
O O22 0.894986 0.000000 0.061474
O O23 0.908515 0.223602 0.000000
#
# Coordination Sequence:
#
# PCOD9485470 Si02
#       8
#     8  16  16  16  16  16  16  16
#     4   8  14  28  46  64  93 134 177 215 248 283
#     4  10  21  37  56  76  98 127 162 198 242 299
#     4   9  19  34  50  68  91 122 161 199 234 277
#     4  10  21  37  57  79 101 125 155 195 243 295
#     4   9  18  30  46  70 101 138 176 212 248 288
#     4  11  21  31  47  74 104 132 164 204 251 297
#     4  10  19  31  47  68  97 132 167 203 244 292
#     4  10  21  36  53  74 100 129 162 199 239 287
#
# _framework density 17.171970000000002
#
# number of rings (size 3 to 8) (size 9 to 14) (size 15 to 20)
#    0.000    2.267    0.000    2.800    0.000    6.667 
#    0.000    1.333    0.000    0.000    0.000    0.467 
#    0.000    3.733    0.000    0.000    0.000    0.000 
#
# Total GULP energy -334792.233007 kJ/mol
# GULP energy per Si atom -5579.870550 kJ/mol
# Density = 1.713289 g / cm^3
# Si number density = 17.171970 Si / 1000 Ang^3
#
#
#
# Elastic Constant Matrix: (Units=GPa)
#
#
# Indices 1 2 3 4 5 6 
#
# 1 83.0088 27.3494 49.9961 0.0000 0.0000 0.0000
# 2 27.3494 31.1443 23.8537 0.0000 0.0000 0.0000
# 3 49.9961 23.8537 67.1871 0.0000 0.0000 0.0000
# 4 0.0000 0.0000 0.0000 10.8356 0.0000 0.0000
# 5 0.0000 0.0000 0.0000 0.0000 17.8311 0.0000
# 6 0.0000 0.0000 0.0000 0.0000 0.0000 30.5346
#
#
#
# Elastic Compliance Matrix: (Units=1/GPa)
#
#
# Indices 1 2 3 4 5 6 
#
# 1 0.023957 -0.010142 -0.014227 0.000000 0.000000 0.000000
# 2 -0.010142 0.048394 -0.009635 0.000000 0.000000 0.000000
# 3 -0.014227 -0.009635 0.028891 0.000000 0.000000 0.000000
# 4 0.000000 0.000000 0.000000 0.092288 0.000000 0.000000
# 5 0.000000 0.000000 0.000000 0.000000 0.056082 0.000000
# 6 0.000000 0.000000 0.000000 0.000000 0.000000 0.032750
#
#
# Mechanical properties :
#
#
# Convention : Reuss Voigt Hill
#
# Bulk Modulus (GPa) = 30.08798 42.63764 36.36281
# Shear Modulus (GPa) = 13.83333 17.18299 15.50816
#
# Velocity S-wave (km/s) = 2.84135 3.16672 3.00844
# Velocity P-wave (km/s) = 5.32202 6.18503 5.76968
#
# Compressibility (1/GPa) = 0.03323587
#
# Stress axis : x y z
#
# Youngs Moduli (GPa) = 41.74148 20.66380 34.61291
#
# Poissons Ratio (x) = 0.20956 0.49242
# Poissons Ratio (y) = 0.42333 0.33349
# Poissons Ratio (z) = 0.59384 0.19909
#
# Static dielectric constant tensor:
#      x y z
#    x 1.577010 0.000000 0.000000 
#    y 0.000000 1.578800 0.000000 
#    z 0.000000 0.000000 1.595270 
# 
# From -- ./inp_files/76189.got.cif
#   From: 2010.05.17/outbox.cif.g08.bks.cpg/sg65_39_cif.got.tgz:76189.got - 2010.06.03 17:01:31.
