data_PCOD9485108
_publ_section_title
;
Structure prediction by ZEFSAII (Michael W. Deem and Ramdas Pophale) SiO2 
 PCOD9485108
Probable space group: C M M M
;
_chemical_formula_sum "Si O2"
_cell_formula_units_Z 64
_cell_length_a 18.627609
_cell_length_b 11.373765
_cell_length_c 13.615201
_cell_angle_alpha 90.000000
_cell_angle_beta 90.000000
_cell_angle_gamma 90.000000
_cell_volume 2884.598819
_symmetry_space_group_name_H-M "C M M M"
_symmetry_group_IT_number 65
_symmetry_cell_setting 'orthorhombic'
loop_
_space_group_symop_operation_xyz
x,y,z
-x,-y,z
x,-y,-z
-x,y,-z
-x,-y,-z
x,y,-z
-x,y,z
x,-y,z
1/2+x,1/2+y,z
1/2-x,1/2-y,z
1/2+x,1/2-y,-z
1/2-x,1/2+y,-z
1/2-x,1/2-y,-z
1/2+x,1/2+y,-z
1/2-x,1/2+y,z
1/2+x,1/2-y,z
loop_
_atom_site_type_symbol
_atom_site_label
_atom_site_fract_x
_atom_site_fract_y
_atom_site_fract_z
Si Si1 0.085422 0.500000 0.880385
Si Si2 0.500000 0.372326 0.117210
Si Si3 0.840390 0.629474 0.382985
Si Si4 0.319568 0.368925 0.297096
Si Si5 0.149181 0.747703 0.116067
O O1 0.133773 0.386729 0.855259
O O2 0.000000 0.500000 0.847987
O O3 0.079927 0.500000 0.000000
O O4 0.500000 0.500000 0.163766
O O5 0.571269 0.302914 0.137005
O O6 0.500000 0.385075 0.000000
O O7 0.847961 0.636643 0.500000
O O8 0.871092 0.500000 0.353002
O O9 0.755914 0.625657 0.354518
O O10 0.863359 0.755989 0.338387
O O11 0.351359 0.500000 0.302699
O O12 0.303419 0.332260 0.184251
O O13 0.165808 0.755686 0.000000
#
# Coordination Sequence:
#
# PCOD9485108 Si02
#       5
#     8   8  16  16  16
#     4   9  16  30  48  66  91 131 177 213 240 271
#     4   9  16  27  43  63  92 130 166 198 234 278
#     4   9  19  37  57  75  97 124 158 204 253 299
#     4  10  19  30  49  76 101 127 162 202 243 290
#     4  10  19  30  46  69 100 135 168 202 240 282
#
# _framework density 22.186793000000002
#
# number of rings (size 3 to 8) (size 9 to 14) (size 15 to 20)
#    0.000    2.500    1.250    2.250    1.750    3.000 
#    0.000    2.500    0.000    1.500    0.000    3.500 
#    0.000   20.000    0.000    0.000    0.000    0.000 
#
# Total GULP energy -178219.886782 kJ/mol
# GULP energy per Si atom -5569.371462 kJ/mol
# Density = 2.213629 g / cm^3
# Si number density = 22.186793 Si / 1000 Ang^3
#
#
#
# Elastic Constant Matrix: (Units=GPa)
#
#
# Indices 1 2 3 4 5 6 
#
# 1 44.8120 13.9247 -9.3887 0.0000 0.0000 0.0000
# 2 13.9247 252.9846 56.9276 0.0000 0.0000 0.0000
# 3 -9.3887 56.9276 100.8698 0.0000 0.0000 0.0000
# 4 0.0000 0.0000 0.0000 16.6848 0.0000 0.0000
# 5 0.0000 0.0000 0.0000 0.0000 -143.7005 0.0000
# 6 0.0000 0.0000 0.0000 0.0000 0.0000 5.8929
#
#
#
# Elastic Compliance Matrix: (Units=1/GPa)
#
#
# Indices 1 2 3 4 5 6 
#
# 1 0.023660 -0.002059 0.003364 0.000000 0.000000 0.000000
# 2 -0.002059 0.004707 -0.002848 0.000000 0.000000 0.000000
# 3 0.003364 -0.002848 0.011834 0.000000 0.000000 0.000000
# 4 0.000000 0.000000 0.000000 0.059935 0.000000 0.000000
# 5 0.000000 0.000000 0.000000 0.000000 -0.006959 0.000000
# 6 0.000000 0.000000 0.000000 0.000000 0.000000 0.169697
#
#
# Mechanical properties :
#
#
# Convention : Reuss Voigt Hill
#
# Bulk Modulus (GPa) = 26.94290 57.95485 42.44887
# Shear Modulus (GPa) = 17.96414 -1.74438 8.10988
#
# Velocity S-wave (km/s) = 2.84857 -0.88766 1.91395
# Velocity P-wave (km/s) = 4.79470 5.01273 4.90493
#
# Compressibility (1/GPa) = 0.03711553
#
# Stress axis : x y z
#
# Youngs Moduli (GPa) = 42.26488 212.44613 84.49974
#
# Poissons Ratio (x) = 0.43751 -0.28430
# Poissons Ratio (y) = 0.08704 0.24067
# Poissons Ratio (z) = -0.14220 0.60509
#
# Static dielectric constant tensor:
#      x y z
#    x 1.527630 0.000000 0.000000 
#    y 0.000000 1.887850 0.000000 
#    z 0.000000 0.000000 1.850490 
# 
# From -- ./inp_files/30172.got.cif
#   From: 2010.05.17/outbox.cif.g08.bks.cpg/sg65_16_cif.got.tgz:30172.got - 2010.06.03 17:01:31.
