data_PCOD9485362
_publ_section_title
;
Structure prediction by ZEFSAII (Michael W. Deem and Ramdas Pophale) SiO2 
 PCOD9485362
Probable space group: C M M M
;
_chemical_formula_sum "Si O2"
_cell_formula_units_Z 80
_cell_length_a 8.668970
_cell_length_b 34.714321
_cell_length_c 19.047767
_cell_angle_alpha 90.000000
_cell_angle_beta 90.000000
_cell_angle_gamma 90.000000
_cell_volume 5732.185616
_symmetry_space_group_name_H-M "C M M M"
_symmetry_group_IT_number 65
_symmetry_cell_setting 'orthorhombic'
loop_
_space_group_symop_operation_xyz
x,y,z
-x,-y,z
x,-y,-z
-x,y,-z
-x,-y,-z
x,y,-z
-x,y,z
x,-y,z
1/2+x,1/2+y,z
1/2-x,1/2-y,z
1/2+x,1/2-y,-z
1/2-x,1/2+y,-z
1/2-x,1/2-y,-z
1/2+x,1/2+y,-z
1/2-x,1/2+y,z
1/2+x,1/2-y,z
loop_
_atom_site_type_symbol
_atom_site_label
_atom_site_fract_x
_atom_site_fract_y
_atom_site_fract_z
Si Si1 0.678464 0.500000 0.585190
Si Si2 0.686326 0.293574 0.924550
Si Si3 0.184388 0.706882 0.500000
Si Si4 0.685176 0.339526 0.632853
Si Si5 0.315799 0.081676 0.582893
Si Si6 0.686422 0.293393 0.770739
O O1 0.500000 0.500000 0.606259
O O2 0.684786 0.500000 0.500000
O O3 0.759692 0.539620 0.607012
O O4 0.500000 0.292524 0.924659
O O5 0.750000 0.250000 0.924841
O O6 0.733791 0.309087 0.848007
O O7 0.734940 0.311230 0.000000
O O8 0.250000 0.750000 0.500000
O O9 0.243493 0.684452 0.568562
O O10 0.000000 0.707704 0.500000
O O11 0.500000 0.337728 0.627948
O O12 0.739486 0.383373 0.624468
O O13 0.734671 0.320044 0.706052
O O14 0.273582 0.086034 0.500000
O O15 0.500000 0.084094 0.587490
O O16 0.500000 0.291114 0.769478
O O17 0.750000 0.250000 0.762439
#
# Coordination Sequence:
#
# PCOD9485362 Si02
#       6
#     8  16   8  16  16  16
#     4   9  17  29  47  67  85 105 130 163 205 252
#     4   8  13  23  39  57  77 100 128 163 203 246
#     4  12  24  36  46  57  74 103 144 184 218 250
#     4  11  21  32  45  60  81 108 140 177 212 247
#     4  10  19  31  46  64  84 106 135 171 207 249
#     4   9  18  29  41  59  80 106 139 174 210 247
#
# _framework density 13.956281000000001
#
# number of rings (size 3 to 8) (size 9 to 14) (size 15 to 20)
#    0.000    2.300    1.000    3.000    0.000    5.200 
#    0.000    0.000    0.000    0.000    0.000    0.000 
#    0.000    0.000    0.000    0.900    0.000   21.200 
#
# Total GULP energy -222824.896757 kJ/mol
# GULP energy per Si atom -5570.622419 kJ/mol
# Density = 1.392452 g / cm^3
# Si number density = 13.956281 Si / 1000 Ang^3
#
#
#
# Elastic Constant Matrix: (Units=GPa)
#
#
# Indices 1 2 3 4 5 6 
#
# 1 36.1920 27.1762 29.2185 0.0000 0.0000 0.0000
# 2 27.1762 94.5227 56.2122 0.0000 0.0000 0.0000
# 3 29.2185 56.2122 130.5830 0.0000 0.0000 0.0000
# 4 0.0000 0.0000 0.0000 1.3105 0.0000 0.0000
# 5 0.0000 0.0000 0.0000 0.0000 7.1223 0.0000
# 6 0.0000 0.0000 0.0000 0.0000 0.0000 22.6678
#
#
#
# Elastic Compliance Matrix: (Units=1/GPa)
#
#
# Indices 1 2 3 4 5 6 
#
# 1 0.037560 -0.007797 -0.005048 0.000000 0.000000 0.000000
# 2 -0.007797 0.015838 -0.005073 0.000000 0.000000 0.000000
# 3 -0.005048 -0.005073 0.010971 0.000000 0.000000 0.000000
# 4 0.000000 0.000000 0.000000 0.763058 0.000000 0.000000
# 5 0.000000 0.000000 0.000000 0.000000 0.140404 0.000000
# 6 0.000000 0.000000 0.000000 0.000000 0.000000 0.044115
#
#
# Mechanical properties :
#
#
# Convention : Reuss Voigt Hill
#
# Bulk Modulus (GPa) = 35.04645 54.05685 44.55165
# Shear Modulus (GPa) = 4.72905 16.13284 10.43095
#
# Velocity S-wave (km/s) = 1.84278 3.40362 2.73683
# Velocity P-wave (km/s) = 5.44921 7.36636 6.47909
#
# Compressibility (1/GPa) = 0.02853356
#
# Stress axis : x y z
#
# Youngs Moduli (GPa) = 26.62383 63.13838 91.14637
#
# Poissons Ratio (x) = 0.49229 0.46010
# Poissons Ratio (y) = 0.20759 0.46241
# Poissons Ratio (z) = 0.13440 0.32032
#
# Static dielectric constant tensor:
#      x y z
#    x 1.466340 0.000000 0.000000 
#    y 0.000000 1.431670 0.000000 
#    z 0.000000 0.000000 1.491850 
# 
# From -- ./inp_files/50226.got.cif
#   From: 2010.05.17/outbox.cif.g08.bks.cpg/sg65_26_cif.got.tgz:50226.got - 2010.06.03 17:01:31.
