data_PCOD9485333
_publ_section_title
;
Structure prediction by ZEFSAII (Michael W. Deem and Ramdas Pophale) SiO2 
 PCOD9485333
Probable space group: C M M M
;
_chemical_formula_sum "Si O2"
_cell_formula_units_Z 104
_cell_length_a 36.833518
_cell_length_b 9.038319
_cell_length_c 25.174704
_cell_angle_alpha 90.000000
_cell_angle_beta 90.000000
_cell_angle_gamma 90.000000
_cell_volume 8380.988387
_symmetry_space_group_name_H-M "C M M M"
_symmetry_group_IT_number 65
_symmetry_cell_setting 'orthorhombic'
loop_
_space_group_symop_operation_xyz
x,y,z
-x,-y,z
x,-y,-z
-x,y,-z
-x,-y,-z
x,y,-z
-x,y,z
x,-y,z
1/2+x,1/2+y,z
1/2-x,1/2-y,z
1/2+x,1/2-y,-z
1/2-x,1/2+y,-z
1/2-x,1/2-y,-z
1/2+x,1/2+y,-z
1/2-x,1/2+y,z
1/2+x,1/2-y,z
loop_
_atom_site_type_symbol
_atom_site_label
_atom_site_fract_x
_atom_site_fract_y
_atom_site_fract_z
Si Si1 0.955898 0.326831 0.941150
Si Si2 0.213071 0.829384 0.435421
Si Si3 0.068901 0.823023 0.619110
Si Si4 0.500000 0.172909 0.563673
Si Si5 0.543663 0.825506 0.275010
Si Si6 0.637552 0.175527 0.436314
Si Si7 0.955843 0.830556 0.834164
O O1 0.946532 0.500000 0.935243
O O2 0.943089 0.235361 0.890351
O O3 0.000000 0.319697 0.941098
O O4 0.944035 0.276112 0.000000
O O5 0.214109 0.830210 0.500000
O O6 0.250000 0.750000 0.417348
O O7 0.176840 0.740277 0.420900
O O8 0.211410 0.000000 0.418055
O O9 0.035449 0.752952 0.586346
O O10 0.063301 0.765905 0.679063
O O11 0.105785 0.760299 0.594068
O O12 0.067784 0.000000 0.616624
O O13 0.500000 0.178026 0.500000
O O14 0.500000 0.000000 0.580368
O O15 0.500000 0.803441 0.281039
O O16 0.554172 0.767657 0.216654
O O17 0.550738 0.000000 0.280455
O O18 0.633080 0.197272 0.500000
O O19 0.635676 0.000000 0.426193
O O20 0.000000 0.829376 0.835790
O O21 0.944327 0.000000 0.827218
#
# Coordination Sequence:
#
# PCOD9485333 Si02
#       7
#    16  16  16   8  16  16  16
#     4   8  13  21  32  46  65  88 112 136 168 214
#     4   9  16  27  44  65  86 105 124 145 173 213
#     4  12  23  33  46  61  77  95 121 158 195 230
#     4  11  23  37  49  59  73  95 122 151 188 235
#     4  10  19  31  45  55  68  91 121 153 188 229
#     4  10  20  33  47  62  81 103 125 150 183 226
#     4   9  16  24  35  51  69  86 110 144 181 218
#
# _framework density 12.409038000000001
#
# number of rings (size 3 to 8) (size 9 to 14) (size 15 to 20)
#    0.000    2.231    0.769    4.385    0.000    8.000 
#    0.000    1.538    0.000    0.000    0.000    0.000 
#    0.000    0.000    0.000    0.000    0.000    0.000 
#
# Total GULP energy -289906.280161 kJ/mol
# GULP energy per Si atom -5575.120772 kJ/mol
# Density = 1.238079 g / cm^3
# Si number density = 12.409038 Si / 1000 Ang^3
#
#
#
# Elastic Constant Matrix: (Units=GPa)
#
#
# Indices 1 2 3 4 5 6 
#
# 1 69.4823 46.7624 32.3454 0.0000 0.0000 0.0000
# 2 46.7624 112.7320 51.8833 0.0000 0.0000 0.0000
# 3 32.3454 51.8833 71.7770 0.0000 0.0000 0.0000
# 4 0.0000 0.0000 0.0000 15.7543 0.0000 0.0000
# 5 0.0000 0.0000 0.0000 0.0000 -0.5504 0.0000
# 6 0.0000 0.0000 0.0000 0.0000 0.0000 17.2713
#
#
#
# Elastic Compliance Matrix: (Units=1/GPa)
#
#
# Indices 1 2 3 4 5 6 
#
# 1 0.020991 -0.006524 -0.004743 0.000000 0.000000 0.000000
# 2 -0.006524 0.015321 -0.008134 0.000000 0.000000 0.000000
# 3 -0.004743 -0.008134 0.021949 0.000000 0.000000 0.000000
# 4 0.000000 0.000000 0.000000 0.063475 0.000000 0.000000
# 5 0.000000 0.000000 0.000000 0.000000 -1.816982 0.000000
# 6 0.000000 0.000000 0.000000 0.000000 0.000000 0.057899
#
#
# Mechanical properties :
#
#
# Convention : Reuss Voigt Hill
#
# Bulk Modulus (GPa) = 51.39465 57.33040 54.36252
# Shear Modulus (GPa) = -3.14059 14.69506 5.77723
#
# Velocity S-wave (km/s) = -1.59260 3.44499 2.16004
# Velocity P-wave (km/s) = 6.17456 7.88192 7.07990
#
# Compressibility (1/GPa) = 0.01945728
#
# Stress axis : x y z
#
# Youngs Moduli (GPa) = 47.63893 65.27153 45.55938
#
# Poissons Ratio (x) = 0.42585 0.21611
# Poissons Ratio (y) = 0.31081 0.37059
# Poissons Ratio (z) = 0.22597 0.53094
#
# Static dielectric constant tensor:
#      x y z
#    x 1.374230 0.000000 0.000000 
#    y 0.000000 1.414220 0.000000 
#    z 0.000000 0.000000 1.405010 
# 
# From -- ./inp_files/72146.got.cif
#   From: 2010.05.17/outbox.cif.g08.bks.cpg/sg65_37_cif.got.tgz:72146.got - 2010.06.03 17:01:31.
