data_PCOD9485709
_publ_section_title
;
Structure prediction by ZEFSAII (Michael W. Deem and Ramdas Pophale) SiO2 
 PCOD9485709
Probable space group: C M M M
;
_chemical_formula_sum "Si O2"
_cell_formula_units_Z 88
_cell_length_a 28.579891
_cell_length_b 19.289577
_cell_length_c 7.437117
_cell_angle_alpha 90.000000
_cell_angle_beta 90.000000
_cell_angle_gamma 90.000000
_cell_volume 4100.038040
_symmetry_space_group_name_H-M "C M M M"
_symmetry_group_IT_number 65
_symmetry_cell_setting 'orthorhombic'
loop_
_space_group_symop_operation_xyz
x,y,z
-x,-y,z
x,-y,-z
-x,y,-z
-x,-y,-z
x,y,-z
-x,y,z
x,-y,z
1/2+x,1/2+y,z
1/2-x,1/2-y,z
1/2+x,1/2-y,-z
1/2-x,1/2+y,-z
1/2-x,1/2-y,-z
1/2+x,1/2+y,-z
1/2-x,1/2+y,z
1/2+x,1/2-y,z
loop_
_atom_site_type_symbol
_atom_site_label
_atom_site_fract_x
_atom_site_fract_y
_atom_site_fract_z
Si Si1 0.789235 0.921585 0.283169
Si Si2 0.109139 0.136167 0.787216
Si Si3 0.054379 0.000000 0.780065
Si Si4 0.445275 0.923609 0.218977
Si Si5 0.215901 0.312546 0.282500
Si Si6 0.608182 0.210677 0.791030
O O1 0.788044 0.923493 0.500000
O O2 0.835863 0.879649 0.234517
O O3 0.742526 0.882130 0.223959
O O4 0.792901 0.000000 0.216043
O O5 0.080670 0.069726 0.716829
O O6 0.098437 0.212772 0.712716
O O7 0.099465 0.138736 0.000000
O O8 0.000000 0.000000 0.729823
O O9 0.056671 0.000000 0.000000
O O10 0.500000 0.917609 0.264927
O O11 0.417381 0.856775 0.286404
O O12 0.428457 0.000000 0.278655
O O13 0.442341 0.924024 0.000000
O O14 0.213414 0.311954 0.500000
O O15 0.250000 0.250000 0.228140
O O16 0.163697 0.302152 0.215638
O O17 0.593767 0.214140 0.000000
#
# Coordination Sequence:
#
# PCOD9485709 Si02
#       6
#    16  16   8  16  16  16
#     4  10  20  34  52  71  93 129 174 208 239 293
#     4  10  19  31  49  73 100 130 165 206 251 296
#     4   9  18  32  49  71 101 133 163 203 256 303
#     4   8  15  30  51  74 103 136 166 201 251 306
#     4  10  20  34  50  70  98 134 168 200 248 301
#     4  10  20  31  50  80 105 128 167 214 251 291
#
# _framework density 21.463215999999999
#
# number of rings (size 3 to 8) (size 9 to 14) (size 15 to 20)
#    0.000    2.455    2.727    0.545    0.000    2.545 
#    0.000    3.636    0.000    1.636    0.000    3.818 
#    0.000    0.000    0.000    0.000    0.000    0.000 
#
# Total GULP energy -245636.034907 kJ/mol
# GULP energy per Si atom -5582.637157 kJ/mol
# Density = 2.141436 g / cm^3
# Si number density = 21.463216 Si / 1000 Ang^3
#
#
#
# Elastic Constant Matrix: (Units=GPa)
#
#
# Indices 1 2 3 4 5 6 
#
# 1 82.3594 84.1587 -3.9055 0.0000 0.0000 0.0000
# 2 84.1587 243.3112 12.4519 0.0000 0.0000 0.0000
# 3 -3.9055 12.4519 66.7643 0.0000 0.0000 0.0000
# 4 0.0000 0.0000 0.0000 1.4319 0.0000 0.0000
# 5 0.0000 0.0000 0.0000 0.0000 -36.6739 0.0000
# 6 0.0000 0.0000 0.0000 0.0000 0.0000 42.9677
#
#
#
# Elastic Compliance Matrix: (Units=1/GPa)
#
#
# Indices 1 2 3 4 5 6 
#
# 1 0.019146 -0.006744 0.002378 0.000000 0.000000 0.000000
# 2 -0.006744 0.006525 -0.001611 0.000000 0.000000 0.000000
# 3 0.002378 -0.001611 0.015418 0.000000 0.000000 0.000000
# 4 0.000000 0.000000 0.000000 0.698362 0.000000 0.000000
# 5 0.000000 0.000000 0.000000 0.000000 -0.027267 0.000000
# 6 0.000000 0.000000 0.000000 0.000000 0.000000 0.023273
#
#
# Mechanical properties :
#
#
# Convention : Reuss Voigt Hill
#
# Bulk Modulus (GPa) = 34.32490 64.20502 49.26496
# Shear Modulus (GPa) = 6.60394 21.52714 14.06554
#
# Velocity S-wave (km/s) = 1.75600 3.17042 2.56272
# Velocity P-wave (km/s) = 4.48760 6.58643 5.63558
#
# Compressibility (1/GPa) = 0.02913337
#
# Stress axis : x y z
#
# Youngs Moduli (GPa) = 52.22990 153.25306 64.86047
#
# Poissons Ratio (x) = 1.03356 -0.15423
# Poissons Ratio (y) = 0.35225 0.10452
# Poissons Ratio (z) = -0.12419 0.24697
#
# Static dielectric constant tensor:
#      x y z
#    x 1.706410 0.000000 0.000000 
#    y 0.000000 1.808500 0.000000 
#    z 0.000000 0.000000 1.821510 
# 
# From -- ./inp_files/10167.got.cif
#   From: 2010.05.17/outbox.cif.g08.bks.cpg/sg65_6_cif.got.tgz:10167.got - 2010.06.03 17:01:31.
