data_PCOD9485361
_publ_section_title
;
Structure prediction by ZEFSAII (Michael W. Deem and Ramdas Pophale) SiO2 
 PCOD9485361
Probable space group: C M M M
;
_chemical_formula_sum "Si O2"
_cell_formula_units_Z 80
_cell_length_a 8.959350
_cell_length_b 25.967325
_cell_length_c 22.518538
_cell_angle_alpha 90.000000
_cell_angle_beta 90.000000
_cell_angle_gamma 90.000000
_cell_volume 5238.945820
_symmetry_space_group_name_H-M "C M M M"
_symmetry_group_IT_number 65
_symmetry_cell_setting 'orthorhombic'
loop_
_space_group_symop_operation_xyz
x,y,z
-x,-y,z
x,-y,-z
-x,y,-z
-x,-y,-z
x,y,-z
-x,y,z
x,-y,z
1/2+x,1/2+y,z
1/2-x,1/2-y,z
1/2+x,1/2-y,-z
1/2-x,1/2+y,-z
1/2-x,1/2-y,-z
1/2+x,1/2+y,-z
1/2-x,1/2+y,z
1/2+x,1/2-y,z
loop_
_atom_site_type_symbol
_atom_site_label
_atom_site_fract_x
_atom_site_fract_y
_atom_site_fract_z
Si Si1 0.672687 0.437210 0.000000
Si Si2 0.675527 0.500000 0.428830
Si Si3 0.677425 0.305501 0.570417
Si Si4 0.671790 0.937384 0.878104
Si Si5 0.321553 0.097844 0.635179
Si Si6 0.676291 0.561922 0.754680
O O1 0.754181 0.420197 0.060218
O O2 0.676040 0.500000 0.000000
O O3 0.500000 0.421798 0.000000
O O4 0.500000 0.500000 0.412104
O O5 0.685759 0.500000 0.500000
O O6 0.753453 0.449695 0.402085
O O7 0.698690 0.316136 0.500000
O O8 0.500000 0.304547 0.581774
O O9 0.750000 0.250000 0.582750
O O10 0.756029 0.349926 0.607879
O O11 0.500000 0.920860 0.873864
O O12 0.763686 0.922757 0.819547
O O13 0.672455 0.000000 0.879417
O O14 0.500000 0.097162 0.632054
O O15 0.265859 0.089346 0.702348
O O16 0.500000 0.571844 0.749455
O O17 0.698471 0.500000 0.748320
#
# Coordination Sequence:
#
# PCOD9485361 Si02
#       6
#     8   8  16  16  16  16
#     4   9  15  23  35  53  77 109 152 193 232 273
#     4  11  23  37  51  69  95 126 159 196 239 285
#     4  10  21  38  58  77  97 122 155 196 242 291
#     4   9  16  25  38  56  81 112 151 195 236 274
#     4  12  23  34  51  73  98 126 159 197 240 289
#     4  10  19  31  46  63  89 124 160 195 236 285
#
# _framework density 15.270248
#
# number of rings (size 3 to 8) (size 9 to 14) (size 15 to 20)
#    0.000    1.800    1.000    4.800    0.000    8.800 
#    0.000    0.000    0.000    0.000    0.000    0.000 
#    0.000    0.000    0.000    0.900    0.000   12.700 
#
# Total GULP energy -223295.990455 kJ/mol
# GULP energy per Si atom -5582.399761 kJ/mol
# Density = 1.523549 g / cm^3
# Si number density = 15.270248 Si / 1000 Ang^3
#
#
#
# Elastic Constant Matrix: (Units=GPa)
#
#
# Indices 1 2 3 4 5 6 
#
# 1 151.7138 56.0734 83.9396 0.0000 0.0000 0.0000
# 2 56.0734 67.6207 57.4524 0.0000 0.0000 0.0000
# 3 83.9396 57.4524 123.8641 0.0000 0.0000 0.0000
# 4 0.0000 0.0000 0.0000 0.4187 0.0000 0.0000
# 5 0.0000 0.0000 0.0000 0.0000 28.4671 0.0000
# 6 0.0000 0.0000 0.0000 0.0000 0.0000 20.6414
#
#
#
# Elastic Compliance Matrix: (Units=1/GPa)
#
#
# Indices 1 2 3 4 5 6 
#
# 1 0.011408 -0.004772 -0.005517 0.000000 0.000000 0.000000
# 2 -0.004772 0.026403 -0.009013 0.000000 0.000000 0.000000
# 3 -0.005517 -0.009013 0.015993 0.000000 0.000000 0.000000
# 4 0.000000 0.000000 0.000000 2.388377 0.000000 0.000000
# 5 0.000000 0.000000 0.000000 0.000000 0.035128 0.000000
# 6 0.000000 0.000000 0.000000 0.000000 0.000000 0.048446
#
#
# Mechanical properties :
#
#
# Convention : Reuss Voigt Hill
#
# Bulk Modulus (GPa) = 65.79252 82.01439 73.90346
# Shear Modulus (GPa) = 1.94596 19.62099 10.78348
#
# Velocity S-wave (km/s) = 1.13009 3.58846 2.66028
# Velocity P-wave (km/s) = 6.69939 8.42583 7.61172
#
# Compressibility (1/GPa) = 0.01519930
#
# Stress axis : x y z
#
# Youngs Moduli (GPa) = 87.66043 37.87460 62.52863
#
# Poissons Ratio (x) = 0.18074 0.34499
# Poissons Ratio (y) = 0.41832 0.56355
# Poissons Ratio (z) = 0.48365 0.34135
#
# Static dielectric constant tensor:
#      x y z
#    x 1.507220 0.000000 0.000000 
#    y 0.000000 1.470160 0.000000 
#    z 0.000000 0.000000 1.507000 
# 
# From -- ./inp_files/59634.got.cif
#   From: 2010.05.17/outbox.cif.g08.bks.cpg/sg65_30_cif.got.tgz:59634.got - 2010.06.03 17:01:31.
