data_PCOD9485041
_publ_section_title
;
Structure prediction by ZEFSAII (Michael W. Deem and Ramdas Pophale) SiO2 
 PCOD9485041
Probable space group: C M M M
;
_chemical_formula_sum "Si O2"
_cell_formula_units_Z 80
_cell_length_a 19.777971
_cell_length_b 21.080834
_cell_length_c 12.152140
_cell_angle_alpha 90.000000
_cell_angle_beta 90.000000
_cell_angle_gamma 90.000000
_cell_volume 5066.666144
_symmetry_space_group_name_H-M "C M M M"
_symmetry_group_IT_number 65
_symmetry_cell_setting 'orthorhombic'
loop_
_space_group_symop_operation_xyz
x,y,z
-x,-y,z
x,-y,-z
-x,y,-z
-x,-y,-z
x,y,-z
-x,y,z
x,-y,z
1/2+x,1/2+y,z
1/2-x,1/2-y,z
1/2+x,1/2-y,-z
1/2-x,1/2+y,-z
1/2-x,1/2-y,-z
1/2+x,1/2+y,-z
1/2-x,1/2+y,z
1/2+x,1/2-y,z
loop_
_atom_site_type_symbol
_atom_site_label
_atom_site_fract_x
_atom_site_fract_y
_atom_site_fract_z
Si Si1 0.078303 0.500000 0.134096
Si Si2 0.420868 0.249440 0.870875
Si Si3 0.420499 0.379188 0.739058
Si Si4 0.081411 0.926801 0.500000
Si Si5 0.299699 0.572435 0.127354
Si Si6 0.838850 0.624373 0.133737
O O1 0.116895 0.436182 0.169864
O O2 0.000000 0.500000 0.168221
O O3 0.079010 0.500000 0.000000
O O4 0.500000 0.230308 0.866563
O O5 0.411958 0.309178 0.790741
O O6 0.374229 0.190413 0.838231
O O7 0.407004 0.266205 0.000000
O O8 0.500000 0.396133 0.752434
O O9 0.401605 0.389453 0.611573
O O10 0.368899 0.421640 0.807615
O O11 0.000000 0.931308 0.500000
O O12 0.107053 0.000000 0.500000
O O13 0.274419 0.500000 0.130802
O O14 0.238626 0.615997 0.170503
O O15 0.312662 0.588496 0.000000
O O16 0.837123 0.621737 0.000000
#
# Coordination Sequence:
#
# PCOD9485041 Si02
#       6
#     8  16  16   8  16  16
#     4   9  14  22  40  64  91 126 163 198 229 256
#     4   9  17  29  46  70  99 128 158 190 227 278
#     4  10  20  33  49  69  92 119 153 193 236 282
#     4   9  18  34  54  71  86 111 155 204 243 279
#     4  10  19  30  45  67  97 129 159 192 229 274
#     4   9  16  27  42  64  96 130 161 191 226 271
#
# _framework density 15.789474999999999
#
# number of rings (size 3 to 8) (size 9 to 14) (size 15 to 20)
#    0.000    2.600    1.000    1.800    0.000    5.600 
#    0.000    4.000    0.000    2.400    0.000    0.000 
#    0.000    0.000    0.000    8.400    0.000    2.400 
#
# Total GULP energy -222728.790109 kJ/mol
# GULP energy per Si atom -5568.219753 kJ/mol
# Density = 1.575354 g / cm^3
# Si number density = 15.789475 Si / 1000 Ang^3
#
#
#
# Elastic Constant Matrix: (Units=GPa)
#
#
# Indices 1 2 3 4 5 6 
#
# 1 73.4260 41.0596 39.4804 0.0000 0.0000 0.0000
# 2 41.0596 78.0081 42.2456 0.0000 0.0000 0.0000
# 3 39.4804 42.2456 74.5921 0.0000 0.0000 0.0000
# 4 0.0000 0.0000 0.0000 -13.1606 0.0000 0.0000
# 5 0.0000 0.0000 0.0000 0.0000 5.9848 0.0000
# 6 0.0000 0.0000 0.0000 0.0000 0.0000 27.4568
#
#
#
# Elastic Compliance Matrix: (Units=1/GPa)
#
#
# Indices 1 2 3 4 5 6 
#
# 1 0.021709 -0.007506 -0.007239 0.000000 0.000000 0.000000
# 2 -0.007506 0.021086 -0.007969 0.000000 0.000000 0.000000
# 3 -0.007239 -0.007969 0.021751 0.000000 0.000000 0.000000
# 4 0.000000 0.000000 0.000000 -0.075984 0.000000 0.000000
# 5 0.000000 0.000000 0.000000 0.000000 0.167091 0.000000
# 6 0.000000 0.000000 0.000000 0.000000 0.000000 0.036421
#
#
# Mechanical properties :
#
#
# Convention : Reuss Voigt Hill
#
# Bulk Modulus (GPa) = 52.30910 52.39971 52.35441
# Shear Modulus (GPa) = 20.50237 10.93890 15.72063
#
# Velocity S-wave (km/s) = 3.60736 2.63496 3.15880
# Velocity P-wave (km/s) = 7.10997 6.52042 6.82157
#
# Compressibility (1/GPa) = 0.01911713
#
# Stress axis : x y z
#
# Youngs Moduli (GPa) = 46.06401 47.42527 45.97473
#
# Poissons Ratio (x) = 0.35598 0.33281
# Poissons Ratio (y) = 0.34577 0.36638
# Poissons Ratio (z) = 0.33346 0.37794
#
# Static dielectric constant tensor:
#      x y z
#    x 1.542040 0.000000 0.000000 
#    y 0.000000 1.542930 0.000000 
#    z 0.000000 0.000000 1.506690 
# 
# From -- ./inp_files/26702.got.cif
#   From: 2010.05.17/outbox.cif.g08.bks.cpg/sg65_14_cif.got.tgz:26702.got - 2010.06.03 17:01:31.
