data_PCOD9485751
_publ_section_title
;
Structure prediction by ZEFSAII (Michael W. Deem and Ramdas Pophale) SiO2 
 PCOD9485751
Probable space group: C M M M
;
_chemical_formula_sum "Si O2"
_cell_formula_units_Z 128
_cell_length_a 17.776489
_cell_length_b 22.133357
_cell_length_c 20.149870
_cell_angle_alpha 90.000000
_cell_angle_beta 90.000000
_cell_angle_gamma 90.000000
_cell_volume 7928.034403
_symmetry_space_group_name_H-M "C M M M"
_symmetry_group_IT_number 65
_symmetry_cell_setting 'orthorhombic'
loop_
_space_group_symop_operation_xyz
x,y,z
-x,-y,z
x,-y,-z
-x,y,-z
-x,-y,-z
x,y,-z
-x,y,z
x,-y,z
1/2+x,1/2+y,z
1/2-x,1/2-y,z
1/2+x,1/2-y,-z
1/2-x,1/2+y,-z
1/2-x,1/2-y,-z
1/2+x,1/2+y,-z
1/2-x,1/2+y,z
1/2+x,1/2-y,z
loop_
_atom_site_type_symbol
_atom_site_label
_atom_site_fract_x
_atom_site_fract_y
_atom_site_fract_z
Si Si1 0.912010 0.254537 0.190210
Si Si2 0.314536 0.875751 0.800892
Si Si3 0.410248 0.069078 0.687733
Si Si4 0.914522 0.156951 0.077445
Si Si5 0.272900 0.571693 0.922847
Si Si6 0.671025 0.285447 0.426935
Si Si7 0.695865 0.690783 0.286926
Si Si8 0.589931 0.162134 0.574626
O O1 0.863070 0.315179 0.186944
O O2 0.902347 0.214662 0.124038
O O3 0.878096 0.213670 0.249113
O O4 0.000000 0.267892 0.200253
O O5 0.365636 0.918483 0.755185
O O6 0.286834 0.904257 0.869511
O O7 0.241718 0.856674 0.757152
O O8 0.500000 0.078095 0.697848
O O9 0.383447 0.117125 0.632171
O O10 0.399449 0.000000 0.665412
O O11 0.851092 0.106935 0.089726
O O12 0.000000 0.134824 0.089820
O O13 0.909592 0.173981 0.000000
O O14 0.282788 0.500000 0.915279
O O15 0.251514 0.583472 0.000000
O O16 0.654957 0.311748 0.500000
O O17 0.750000 0.250000 0.432054
O O18 0.677608 0.327250 0.362484
O O19 0.612742 0.231186 0.412144
O O20 0.750000 0.750000 0.290789
O O21 0.618257 0.147299 0.500000
O O22 0.500000 0.157156 0.573316
#
# Coordination Sequence:
#
# PCOD9485751 Si02
#       8
#    16  16  16  16  16  16  16  16
#     4  10  19  31  49  73  99 128 157 195 246 294
#     4  11  20  33  49  71  98 130 162 203 238 292
#     4  10  20  32  47  67  92 128 171 210 246 285
#     4   9  18  33  52  76 102 124 152 191 242 303
#     4  10  21  36  54  74  97 129 166 203 243 285
#     4   9  16  26  41  62  89 120 154 190 233 288
#     4   9  17  28  44  67  93 123 158 195 235 289
#     4   9  17  29  45  66  92 123 161 204 247 287
#
# _framework density 16.145237999999999
#
# number of rings (size 3 to 8) (size 9 to 14) (size 15 to 20)
#    0.000    2.375    1.250    3.000    0.000    2.500 
#    0.000    3.750    0.000    1.125    0.000    4.375 
#    0.000    0.000    0.000    0.000    0.000    4.000 
#
# Total GULP energy -356552.261235 kJ/mol
# GULP energy per Si atom -5571.129082 kJ/mol
# Density = 1.610849 g / cm^3
# Si number density = 16.145238 Si / 1000 Ang^3
#
#
#
# Elastic Constant Matrix: (Units=GPa)
#
#
# Indices 1 2 3 4 5 6 
#
# 1 57.2313 25.4392 46.4915 0.0000 0.0000 0.0000
# 2 25.4392 38.3870 31.7543 0.0000 0.0000 0.0000
# 3 46.4915 31.7543 103.5387 0.0000 0.0000 0.0000
# 4 0.0000 0.0000 0.0000 19.1870 0.0000 0.0000
# 5 0.0000 0.0000 0.0000 0.0000 23.4372 0.0000
# 6 0.0000 0.0000 0.0000 0.0000 0.0000 15.8547
#
#
#
# Elastic Compliance Matrix: (Units=1/GPa)
#
#
# Indices 1 2 3 4 5 6 
#
# 1 0.031258 -0.012199 -0.010294 0.000000 0.000000 0.000000
# 2 -0.012199 0.039667 -0.006688 0.000000 0.000000 0.000000
# 3 -0.010294 -0.006688 0.016332 0.000000 0.000000 0.000000
# 4 0.000000 0.000000 0.000000 0.052119 0.000000 0.000000
# 5 0.000000 0.000000 0.000000 0.000000 0.042667 0.000000
# 6 0.000000 0.000000 0.000000 0.000000 0.000000 0.063073
#
#
# Mechanical properties :
#
#
# Convention : Reuss Voigt Hill
#
# Bulk Modulus (GPa) = 34.60881 45.16965 39.88923
# Shear Modulus (GPa) = 15.96886 18.06058 17.01472
#
# Velocity S-wave (km/s) = 3.14837 3.34822 3.24983
# Velocity P-wave (km/s) = 5.89057 6.55632 6.23234
#
# Compressibility (1/GPa) = 0.02889437
#
# Stress axis : x y z
#
# Youngs Moduli (GPa) = 31.99186 25.20974 61.23081
#
# Poissons Ratio (x) = 0.30754 0.63032
# Poissons Ratio (y) = 0.39028 0.40950
# Poissons Ratio (z) = 0.32933 0.16860
#
# Static dielectric constant tensor:
#      x y z
#    x 1.555020 0.000000 0.000000 
#    y 0.000000 1.518230 0.000000 
#    z 0.000000 0.000000 1.579680 
# 
# From -- ./inp_files/64136.got.cif
#   From: 2010.05.17/outbox.cif.g08.bks.cpg/sg65_33_cif.got.tgz:64136.got - 2010.06.03 17:01:31.
