data_PCOD9485249
_publ_section_title
;
Structure prediction by ZEFSAII (Michael W. Deem and Ramdas Pophale) SiO2 
 PCOD9485249
Probable space group: C M M M
;
_chemical_formula_sum "Si O2"
_cell_formula_units_Z 80
_cell_length_a 19.566785
_cell_length_b 8.805812
_cell_length_c 26.715013
_cell_angle_alpha 90.000000
_cell_angle_beta 90.000000
_cell_angle_gamma 90.000000
_cell_volume 4603.034946
_symmetry_space_group_name_H-M "C M M M"
_symmetry_group_IT_number 65
_symmetry_cell_setting 'orthorhombic'
loop_
_space_group_symop_operation_xyz
x,y,z
-x,-y,z
x,-y,-z
-x,y,-z
-x,-y,-z
x,y,-z
-x,y,z
x,-y,z
1/2+x,1/2+y,z
1/2-x,1/2-y,z
1/2+x,1/2-y,-z
1/2-x,1/2+y,-z
1/2-x,1/2-y,-z
1/2+x,1/2+y,-z
1/2-x,1/2+y,z
1/2+x,1/2-y,z
loop_
_atom_site_type_symbol
_atom_site_label
_atom_site_fract_x
_atom_site_fract_y
_atom_site_fract_z
Si Si1 0.325287 0.818346 0.057111
Si Si2 0.579478 0.182631 0.249098
Si Si3 0.419842 0.681240 0.857530
Si Si4 0.173673 0.317545 0.342840
Si Si5 0.826763 0.817912 0.554776
O O1 0.250000 0.750000 0.065028
O O2 0.376285 0.753396 0.098192
O O3 0.321994 0.000000 0.060957
O O4 0.346269 0.779082 0.000000
O O5 0.500000 0.224448 0.258096
O O6 0.601720 0.257139 0.196905
O O7 0.627041 0.225374 0.295652
O O8 0.582484 0.000000 0.243755
O O9 0.500000 0.720684 0.863471
O O10 0.413114 0.500000 0.858604
O O11 0.178163 0.500000 0.345812
O O12 0.250000 0.250000 0.337070
O O13 0.143003 0.254021 0.394970
O O14 0.858017 0.783069 0.500000
O O15 0.750000 0.750000 0.553356
O O16 0.823190 0.000000 0.559775
#
# Coordination Sequence:
#
# PCOD9485249 Si02
#       5
#    16  16  16  16  16
#     4  10  21  37  57  80 107 139 172 208 253 302
#     4   9  19  36  54  71  96 132 171 208 248 295
#     4  10  21  36  55  79 105 135 172 212 253 299
#     4  10  19  30  48  73  98 125 159 202 248 293
#     4   9  16  26  42  65  94 126 158 195 240 289
#
# _framework density 17.379836999999998
#
# number of rings (size 3 to 8) (size 9 to 14) (size 15 to 20)
#    0.000    2.400    0.000    3.600    0.000    6.400 
#    0.000    4.000    0.000    0.600    0.000    4.200 
#    0.000    0.000    0.000    0.000    0.000    0.000 
#
# Total GULP energy -223048.303943 kJ/mol
# GULP energy per Si atom -5576.207599 kJ/mol
# Density = 1.734028 g / cm^3
# Si number density = 17.379837 Si / 1000 Ang^3
#
#
#
# Elastic Constant Matrix: (Units=GPa)
#
#
# Indices 1 2 3 4 5 6 
#
# 1 52.3722 34.4541 87.4850 0.0000 0.0000 0.0000
# 2 34.4541 55.4441 71.5846 0.0000 0.0000 0.0000
# 3 87.4850 71.5846 214.1289 0.0000 0.0000 0.0000
# 4 0.0000 0.0000 0.0000 29.3979 0.0000 0.0000
# 5 0.0000 0.0000 0.0000 0.0000 -201.2293 0.0000
# 6 0.0000 0.0000 0.0000 0.0000 0.0000 22.4572
#
#
#
# Elastic Compliance Matrix: (Units=1/GPa)
#
#
# Indices 1 2 3 4 5 6 
#
# 1 0.063417 -0.010479 -0.022407 0.000000 0.000000 0.000000
# 2 -0.010479 0.033465 -0.006906 0.000000 0.000000 0.000000
# 3 -0.022407 -0.006906 0.016133 0.000000 0.000000 0.000000
# 4 0.000000 0.000000 0.000000 0.034016 0.000000 0.000000
# 5 0.000000 0.000000 0.000000 0.000000 -0.004969 0.000000
# 6 0.000000 0.000000 0.000000 0.000000 0.000000 0.044529
#
#
# Mechanical properties :
#
#
# Convention : Reuss Voigt Hill
#
# Bulk Modulus (GPa) = 29.91205 78.77696 54.34451
# Shear Modulus (GPa) = 18.02983 -21.31343 -1.64180
#
# Velocity S-wave (km/s) = 3.22436 -3.50570 -0.97299
# Velocity P-wave (km/s) = 5.57765 5.38874 5.48401
#
# Compressibility (1/GPa) = 0.03343134
#
# Stress axis : x y z
#
# Youngs Moduli (GPa) = 15.76863 29.88227 61.98373
#
# Poissons Ratio (x) = 0.31315 1.38884
# Poissons Ratio (y) = 0.16524 0.42806
# Poissons Ratio (z) = 0.35332 0.20637
#
# Static dielectric constant tensor:
#      x y z
#    x 1.564410 0.000000 0.000000 
#    y 0.000000 1.584070 0.000000 
#    z 0.000000 0.000000 1.609960 
# 
# From -- ./inp_files/72809.got.cif
#   From: 2010.05.17/outbox.cif.g08.bks.cpg/sg65_37_cif.got.tgz:72809.got - 2010.06.03 17:01:31.
