data_PCOD9485264
_publ_section_title
;
Structure prediction by ZEFSAII (Michael W. Deem and Ramdas Pophale) SiO2 
 PCOD9485264
Probable space group: C M M M
;
_chemical_formula_sum "Si O2"
_cell_formula_units_Z 96
_cell_length_a 24.420134
_cell_length_b 8.323149
_cell_length_c 26.914150
_cell_angle_alpha 90.000000
_cell_angle_beta 90.000000
_cell_angle_gamma 90.000000
_cell_volume 5470.365955
_symmetry_space_group_name_H-M "C M M M"
_symmetry_group_IT_number 65
_symmetry_cell_setting 'orthorhombic'
loop_
_space_group_symop_operation_xyz
x,y,z
-x,-y,z
x,-y,-z
-x,y,-z
-x,-y,-z
x,y,-z
-x,y,z
x,-y,z
1/2+x,1/2+y,z
1/2-x,1/2-y,z
1/2+x,1/2-y,-z
1/2-x,1/2+y,-z
1/2-x,1/2-y,-z
1/2+x,1/2+y,-z
1/2-x,1/2+y,z
1/2+x,1/2-y,z
loop_
_atom_site_type_symbol
_atom_site_label
_atom_site_fract_x
_atom_site_fract_y
_atom_site_fract_z
Si Si1 0.500000 0.694286 0.600116
Si Si2 0.186842 0.194084 0.946650
Si Si3 0.812129 0.692156 0.352433
Si Si4 0.119162 0.694039 0.743560
Si Si5 0.812879 0.192657 0.837797
Si Si6 0.500000 0.805893 0.286023
Si Si7 0.616354 0.305776 0.443942
O O1 0.500000 0.500000 0.600481
O O2 0.500000 0.754569 0.656509
O O3 0.555507 0.747171 0.572784
O O4 0.250000 0.250000 0.946981
O O5 0.165992 0.247588 0.892525
O O6 0.185379 0.000000 0.946702
O O7 0.162681 0.248749 0.000000
O O8 0.812686 0.500000 0.351510
O O9 0.750000 0.750000 0.348797
O O10 0.847433 0.750751 0.305102
O O11 0.840715 0.748753 0.403000
O O12 0.118902 0.500000 0.742366
O O13 0.149895 0.746919 0.793107
O O14 0.056396 0.750439 0.739045
O O15 0.750000 0.250000 0.831707
O O16 0.812292 0.000000 0.837126
O O17 0.500000 0.000000 0.284696
O O18 0.628331 0.250921 0.500000
O O19 0.616481 0.500000 0.443994
#
# Coordination Sequence:
#
# PCOD9485264 Si02
#       7
#     8  16  16  16  16   8  16
#     4  10  19  34  58  84 106 129 159 201 250 298
#     4   8  14  25  41  64  96 133 169 205 245 288
#     4  11  23  38  56  76 101 134 170 206 248 299
#     4  10  21  36  54  75 101 131 165 207 253 301
#     4  10  19  30  48  74 105 138 172 208 247 296
#     4  10  20  37  57  77 101 129 162 204 254 301
#     4  10  21  37  57  81 107 133 163 201 247 298
#
# _framework density 17.549099999999999
#
# number of rings (size 3 to 8) (size 9 to 14) (size 15 to 20)
#    0.000    2.167    1.667    1.750    0.000    5.667 
#    0.000    0.000    0.000    1.500    0.000    0.583 
#    0.000    4.667    0.000    0.000    0.000    0.000 
#
# Total GULP energy -267671.203520 kJ/mol
# GULP energy per Si atom -5576.483407 kJ/mol
# Density = 1.750916 g / cm^3
# Si number density = 17.549100 Si / 1000 Ang^3
#
#
#
# Elastic Constant Matrix: (Units=GPa)
#
#
# Indices 1 2 3 4 5 6 
#
# 1 129.4512 19.3098 89.6347 0.0000 0.0000 0.0000
# 2 19.3098 10.0310 17.3880 0.0000 0.0000 0.0000
# 3 89.6347 17.3880 197.6953 0.0000 0.0000 0.0000
# 4 0.0000 0.0000 0.0000 16.6709 0.0000 0.0000
# 5 0.0000 0.0000 0.0000 0.0000 1.8695 0.0000
# 6 0.0000 0.0000 0.0000 0.0000 0.0000 2.7220
#
#
#
# Elastic Compliance Matrix: (Units=1/GPa)
#
#
# Indices 1 2 3 4 5 6 
#
# 1 0.013614 -0.018297 -0.004563 0.000000 0.000000 0.000000
# 2 -0.018297 0.142216 -0.004213 0.000000 0.000000 0.000000
# 3 -0.004563 -0.004213 0.007498 0.000000 0.000000 0.000000
# 4 0.000000 0.000000 0.000000 0.059985 0.000000 0.000000
# 5 0.000000 0.000000 0.000000 0.000000 0.534904 0.000000
# 6 0.000000 0.000000 0.000000 0.000000 0.000000 0.367382
#
#
# Mechanical properties :
#
#
# Convention : Reuss Voigt Hill
#
# Bulk Modulus (GPa) = 9.15905 65.53807 37.34856
# Shear Modulus (GPa) = 4.11138 18.30880 11.21009
#
# Velocity S-wave (km/s) = 1.53228 3.23350 2.53016
# Velocity P-wave (km/s) = 2.89153 7.16710 5.46481
#
# Compressibility (1/GPa) = 0.10918167
#
# Stress axis : x y z
#
# Youngs Moduli (GPa) = 73.45436 7.03158 133.37313
#
# Poissons Ratio (x) = 0.12866 0.60861
# Poissons Ratio (y) = 1.34399 0.56184
# Poissons Ratio (z) = 0.33519 0.02962
#
# Static dielectric constant tensor:
#      x y z
#    x 1.612740 0.000000 0.000000 
#    y 0.000000 1.614010 0.000000 
#    z 0.000000 0.000000 1.622990 
# 
# From -- ./inp_files/71425.got.cif
#   From: 2010.05.17/outbox.cif.g08.bks.cpg/sg65_36_cif.got.tgz:71425.got - 2010.06.03 17:01:31.
