data_PCOD9485164
_publ_section_title
;
Structure prediction by ZEFSAII (Michael W. Deem and Ramdas Pophale) SiO2 
 PCOD9485164
Probable space group: C M M M
;
_chemical_formula_sum "Si O2"
_cell_formula_units_Z 88
_cell_length_a 30.605438
_cell_length_b 13.388735
_cell_length_c 13.184150
_cell_angle_alpha 90.000000
_cell_angle_beta 90.000000
_cell_angle_gamma 90.000000
_cell_volume 5402.444082
_symmetry_space_group_name_H-M "C M M M"
_symmetry_group_IT_number 65
_symmetry_cell_setting 'orthorhombic'
loop_
_space_group_symop_operation_xyz
x,y,z
-x,-y,z
x,-y,-z
-x,y,-z
-x,-y,-z
x,y,-z
-x,y,z
x,-y,z
1/2+x,1/2+y,z
1/2-x,1/2-y,z
1/2+x,1/2-y,-z
1/2-x,1/2+y,-z
1/2-x,1/2-y,-z
1/2+x,1/2+y,-z
1/2-x,1/2+y,z
1/2+x,1/2-y,z
loop_
_atom_site_type_symbol
_atom_site_label
_atom_site_fract_x
_atom_site_fract_y
_atom_site_fract_z
Si Si1 0.821267 0.726869 0.304986
Si Si2 0.638558 0.117626 0.882680
Si Si3 0.241659 0.883952 0.616589
Si Si4 0.083360 0.781013 0.380669
Si Si5 0.449101 0.500000 0.622840
Si Si6 0.549236 0.885099 0.768630
O O1 0.834069 0.684521 0.195296
O O2 0.789528 0.822160 0.309249
O O3 0.791790 0.644547 0.361949
O O4 0.865929 0.755191 0.361365
O O5 0.587694 0.128702 0.850427
O O6 0.649470 0.000000 0.868798
O O7 0.644959 0.143394 0.000000
O O8 0.230728 0.856662 0.500000
O O9 0.234721 0.000000 0.628950
O O10 0.073167 0.774448 0.500000
O O11 0.056998 0.697953 0.317433
O O12 0.072789 0.894770 0.345830
O O13 0.500000 0.500000 0.653197
O O14 0.447401 0.500000 0.500000
O O15 0.500000 0.875570 0.809102
O O16 0.553959 0.000000 0.729890
#
# Coordination Sequence:
#
# PCOD9485164 Si02
#       6
#    16  16  16  16   8  16
#     4  10  19  33  50  73  99 127 169 210 253 298
#     4   9  18  33  53  74  97 128 166 211 260 306
#     4  10  20  33  51  74 105 138 165 199 243 300
#     4  10  19  30  47  70 100 136 171 208 249 301
#     4   9  18  30  44  66  97 135 175 209 240 284
#     4   9  18  31  47  71 100 129 165 208 254 306
#
# _framework density 16.288923
#
# number of rings (size 3 to 8) (size 9 to 14) (size 15 to 20)
#    0.000    2.455    0.000    3.273    1.273    2.545 
#    0.000    4.545    0.000    1.636    0.000    0.000 
#    0.000    6.909    0.000    0.000    0.000    0.000 
#
# Total GULP energy -245092.507185 kJ/mol
# GULP energy per Si atom -5570.284254 kJ/mol
# Density = 1.625185 g / cm^3
# Si number density = 16.288923 Si / 1000 Ang^3
#
#
#
# Elastic Constant Matrix: (Units=GPa)
#
#
# Indices 1 2 3 4 5 6 
#
# 1 87.4216 36.0042 32.7794 0.0000 0.0000 0.0000
# 2 36.0042 106.0757 56.8089 0.0000 0.0000 0.0000
# 3 32.7794 56.8089 84.3737 0.0000 0.0000 0.0000
# 4 0.0000 0.0000 0.0000 21.0683 0.0000 0.0000
# 5 0.0000 0.0000 0.0000 0.0000 8.4161 0.0000
# 6 0.0000 0.0000 0.0000 0.0000 0.0000 20.5607
#
#
#
# Elastic Compliance Matrix: (Units=1/GPa)
#
#
# Indices 1 2 3 4 5 6 
#
# 1 0.013923 -0.002860 -0.003483 0.000000 0.000000 0.000000
# 2 -0.002860 0.015331 -0.009211 0.000000 0.000000 0.000000
# 3 -0.003483 -0.009211 0.019407 0.000000 0.000000 0.000000
# 4 0.000000 0.000000 0.000000 0.047465 0.000000 0.000000
# 5 0.000000 0.000000 0.000000 0.000000 0.118820 0.000000
# 6 0.000000 0.000000 0.000000 0.000000 0.000000 0.048637
#
#
# Mechanical properties :
#
#
# Convention : Reuss Voigt Hill
#
# Bulk Modulus (GPa) = 56.97447 58.78401 57.87924
# Shear Modulus (GPa) = 16.63659 20.16091 18.39875
#
# Velocity S-wave (km/s) = 3.19931 3.52192 3.36449
# Velocity P-wave (km/s) = 6.97860 7.25984 7.12061
#
# Compressibility (1/GPa) = 0.01755172
#
# Stress axis : x y z
#
# Youngs Moduli (GPa) = 71.82428 65.22667 51.52717
#
# Poissons Ratio (x) = 0.18656 0.17948
# Poissons Ratio (y) = 0.20543 0.47463
# Poissons Ratio (z) = 0.25018 0.60082
#
# Static dielectric constant tensor:
#      x y z
#    x 1.564380 0.000000 0.000000 
#    y 0.000000 1.558110 0.000000 
#    z 0.000000 0.000000 1.513960 
# 
# From -- ./inp_files/33799.got.cif
#   From: 2010.05.17/outbox.cif.g08.bks.cpg/sg65_17_cif.got.tgz:33799.got - 2010.06.03 17:01:31.
