data_PCOD9485092
_publ_section_title
;
Structure prediction by ZEFSAII (Michael W. Deem and Ramdas Pophale) SiO2 
 PCOD9485092
Probable space group: C M M M
;
_chemical_formula_sum "Si O2"
_cell_formula_units_Z 96
_cell_length_a 18.567835
_cell_length_b 7.356351
_cell_length_c 32.361449
_cell_angle_alpha 90.000000
_cell_angle_beta 90.000000
_cell_angle_gamma 90.000000
_cell_volume 4420.299236
_symmetry_space_group_name_H-M "C M M M"
_symmetry_group_IT_number 65
_symmetry_cell_setting 'orthorhombic'
loop_
_space_group_symop_operation_xyz
x,y,z
-x,-y,z
x,-y,-z
-x,y,-z
-x,-y,-z
x,y,-z
-x,y,z
x,-y,z
1/2+x,1/2+y,z
1/2-x,1/2-y,z
1/2+x,1/2-y,-z
1/2-x,1/2+y,-z
1/2-x,1/2-y,-z
1/2+x,1/2+y,-z
1/2-x,1/2+y,z
1/2+x,1/2-y,z
loop_
_atom_site_type_symbol
_atom_site_label
_atom_site_fract_x
_atom_site_fract_y
_atom_site_fract_z
Si Si1 0.416352 0.721313 0.837234
Si Si2 0.165341 0.783152 0.918095
Si Si3 0.416562 0.277667 0.582189
Si Si4 0.334707 0.716885 0.664204
Si Si5 0.835121 0.216821 0.500000
Si Si6 0.916708 0.222336 0.000000
Si Si7 0.083666 0.221335 0.254928
O O1 0.500000 0.771994 0.843467
O O2 0.414404 0.500000 0.837009
O O3 0.368075 0.786085 0.875163
O O4 0.393997 0.780209 0.791156
O O5 0.250000 0.750000 0.920935
O O6 0.123962 0.715599 0.958689
O O7 0.154411 0.000000 0.917643
O O8 0.500000 0.223560 0.580963
O O9 0.415408 0.500000 0.582262
O O10 0.377261 0.215793 0.623973
O O11 0.373449 0.215854 0.541636
O O12 0.345335 0.500000 0.664700
O O13 0.250000 0.750000 0.660857
O O14 0.367664 0.785933 0.707277
O O15 0.750000 0.250000 0.500000
O O16 0.845222 0.000000 0.500000
O O17 0.000000 0.276294 0.000000
O O18 0.915215 0.000000 0.000000
O O19 0.000000 0.272169 0.261252
O O20 0.085467 0.000000 0.254719
#
# Coordination Sequence:
#
# PCOD9485092 Si02
#       7
#    16  16  16  16   8   8  16
#     4   8  14  26  45  67  88 113 150 190 220 251
#     4  10  19  30  46  68  93 118 144 179 223 266
#     4   9  17  30  49  70  89 115 155 193 219 252
#     4  10  19  30  46  68  93 119 147 183 226 268
#     4  10  19  31  49  71  95 120 146 182 226 268
#     4   9  17  30  49  69  86 111 152 192 218 249
#     4   8  14  26  45  67  88 113 150 191 222 252
#
# _framework density 21.717987000000001
#
# number of rings (size 3 to 8) (size 9 to 14) (size 15 to 20)
#    0.000    2.917    0.000    3.000    0.000    5.667 
#    0.000    0.000    0.000    6.500    0.000    2.333 
#    0.000    0.000    0.000    0.000    0.000    0.000 
#
# Total GULP energy -268140.953335 kJ/mol
# GULP energy per Si atom -5586.269861 kJ/mol
# Density = 2.166856 g / cm^3
# Si number density = 21.717987 Si / 1000 Ang^3
#
#
#
# Elastic Constant Matrix: (Units=GPa)
#
#
# Indices 1 2 3 4 5 6 
#
# 1 194.8332 -3.4962 166.1503 0.0000 0.0000 0.0000
# 2 -3.4962 80.3291 11.1627 0.0000 0.0000 0.0000
# 3 166.1503 11.1627 268.6759 0.0000 0.0000 0.0000
# 4 0.0000 0.0000 0.0000 -16.5155 0.0000 0.0000
# 5 0.0000 0.0000 0.0000 0.0000 8.4606 0.0000
# 6 0.0000 0.0000 0.0000 0.0000 0.0000 18.1241
#
#
#
# Elastic Compliance Matrix: (Units=1/GPa)
#
#
# Indices 1 2 3 4 5 6 
#
# 1 0.011022 0.001435 -0.006875 0.000000 0.000000 0.000000
# 2 0.001435 0.012708 -0.001415 0.000000 0.000000 0.000000
# 3 -0.006875 -0.001415 0.008033 0.000000 0.000000 0.000000
# 4 0.000000 0.000000 0.000000 -0.060549 0.000000 0.000000
# 5 0.000000 0.000000 0.000000 0.000000 0.118196 0.000000
# 6 0.000000 0.000000 0.000000 0.000000 0.000000 0.055175
#
#
# Mechanical properties :
#
#
# Convention : Reuss Voigt Hill
#
# Bulk Modulus (GPa) = 55.39995 99.05241 77.22618
# Shear Modulus (GPa) = 30.42995 26.68193 28.55594
#
# Velocity S-wave (km/s) = 3.74724 3.50889 3.63002
# Velocity P-wave (km/s) = 6.65482 7.88187 7.29419
#
# Compressibility (1/GPa) = 0.01805056
#
# Stress axis : x y z
#
# Youngs Moduli (GPa) = 90.73110 78.69094 124.49346
#
# Poissons Ratio (x) = -0.11293 0.85594
# Poissons Ratio (y) = -0.13021 0.17621
# Poissons Ratio (z) = 0.62381 0.11138
#
# Static dielectric constant tensor:
#      x y z
#    x 1.716440 0.000000 0.000000 
#    y 0.000000 1.849060 0.000000 
#    z 0.000000 0.000000 1.774600 
# 
# From -- ./inp_files/77352.got.cif
#   From: 2010.05.17/outbox.cif.g08.bks.cpg/sg65_39_cif.got.tgz:77352.got - 2010.06.03 17:01:31.
