data_PCOD9485159
_publ_section_title
;
Structure prediction by ZEFSAII (Michael W. Deem and Ramdas Pophale) SiO2 
 PCOD9485159
Probable space group: C M M M
;
_chemical_formula_sum "Si O2"
_cell_formula_units_Z 104
_cell_length_a 26.194218
_cell_length_b 16.206350
_cell_length_c 13.705363
_cell_angle_alpha 90.000000
_cell_angle_beta 90.000000
_cell_angle_gamma 90.000000
_cell_volume 5818.100170
_symmetry_space_group_name_H-M "C M M M"
_symmetry_group_IT_number 65
_symmetry_cell_setting 'orthorhombic'
loop_
_space_group_symop_operation_xyz
x,y,z
-x,-y,z
x,-y,-z
-x,y,-z
-x,-y,-z
x,y,-z
-x,y,z
x,-y,z
1/2+x,1/2+y,z
1/2-x,1/2-y,z
1/2+x,1/2-y,-z
1/2-x,1/2+y,-z
1/2-x,1/2-y,-z
1/2+x,1/2+y,-z
1/2-x,1/2+y,z
1/2+x,1/2-y,z
loop_
_atom_site_type_symbol
_atom_site_label
_atom_site_fract_x
_atom_site_fract_y
_atom_site_fract_z
Si Si1 0.195955 0.865999 0.108847
Si Si2 0.303827 0.099042 0.813488
Si Si3 0.237831 0.600628 0.393634
Si Si4 0.345559 0.406498 0.318685
Si Si5 0.560545 0.500000 0.891708
Si Si6 0.117153 0.715843 0.110928
Si Si7 0.440441 0.662167 0.239553
O O1 0.256697 0.863597 0.124790
O O2 0.175768 0.910148 0.206767
O O3 0.164703 0.780647 0.112313
O O4 0.186718 0.900558 0.000000
O O5 0.294172 0.125685 0.701157
O O6 0.357538 0.132416 0.850986
O O7 0.300168 0.000000 0.820389
O O8 0.219445 0.627605 0.500000
O O9 0.238563 0.500000 0.392260
O O10 0.296747 0.626306 0.377413
O O11 0.357234 0.500000 0.349960
O O12 0.396801 0.352554 0.320484
O O13 0.500000 0.500000 0.903076
O O14 0.570045 0.583460 0.831979
O O15 0.583429 0.500000 0.000000
O O16 0.074481 0.756496 0.179344
O O17 0.099029 0.709375 0.000000
O O18 0.500000 0.660414 0.267892
#
# Coordination Sequence:
#
# PCOD9485159 Si02
#       7
#    16  16  16  16   8  16  16
#     4   9  17  28  42  61  91 126 152 181 225 275
#     4  10  19  30  47  69  92 121 160 197 230 276
#     4   8  15  29  49  71  96 122 149 188 237 288
#     4   9  16  26  42  69  95 118 151 186 228 282
#     4   9  16  26  42  64  87 113 151 195 232 270
#     4  10  20  31  44  64  95 131 162 194 234 279
#     4  10  19  31  46  64  91 126 161 201 240 275
#
# _framework density 17.875250999999999
#
# number of rings (size 3 to 8) (size 9 to 14) (size 15 to 20)
#    0.000    2.692    0.769    2.769    0.000    4.923 
#    0.000    0.000    0.000   17.538    0.000    3.231 
#    0.000    0.000    0.000    3.846    0.000    0.000 
#
# Total GULP energy -289594.255775 kJ/mol
# GULP energy per Si atom -5569.120303 kJ/mol
# Density = 1.783457 g / cm^3
# Si number density = 17.875251 Si / 1000 Ang^3
#
#
#
# Elastic Constant Matrix: (Units=GPa)
#
#
# Indices 1 2 3 4 5 6 
#
# 1 37.0605 2.5466 -18.9592 0.0000 0.0000 0.0000
# 2 2.5466 11.6472 -0.9254 0.0000 0.0000 0.0000
# 3 -18.9592 -0.9254 36.0360 0.0000 0.0000 0.0000
# 4 0.0000 0.0000 0.0000 9.0053 0.0000 0.0000
# 5 0.0000 0.0000 0.0000 0.0000 10.6739 0.0000
# 6 0.0000 0.0000 0.0000 0.0000 0.0000 19.4653
#
#
#
# Elastic Compliance Matrix: (Units=1/GPa)
#
#
# Indices 1 2 3 4 5 6 
#
# 1 0.037424 -0.006632 0.019519 0.000000 0.000000 0.000000
# 2 -0.006632 0.087208 -0.001250 0.000000 0.000000 0.000000
# 3 0.019519 -0.001250 0.037987 0.000000 0.000000 0.000000
# 4 0.000000 0.000000 0.000000 0.111046 0.000000 0.000000
# 5 0.000000 0.000000 0.000000 0.000000 0.093687 0.000000
# 6 0.000000 0.000000 0.000000 0.000000 0.000000 0.051373
#
#
# Mechanical properties :
#
#
# Convention : Reuss Voigt Hill
#
# Bulk Modulus (GPa) = 5.37937 5.56309 5.47123
# Shear Modulus (GPa) = 10.93098 14.63433 12.78266
#
# Velocity S-wave (km/s) = 2.47557 2.86438 2.67704
# Velocity P-wave (km/s) = 3.34472 3.74947 3.55286
#
# Compressibility (1/GPa) = 0.18589537
#
# Stress axis : x y z
#
# Youngs Moduli (GPa) = 26.72077 11.46678 26.32459
#
# Poissons Ratio (x) = 0.07604 -0.51383
# Poissons Ratio (y) = 0.17721 0.03290
# Poissons Ratio (z) = -0.52157 0.01433
#
# Static dielectric constant tensor:
#      x y z
#    x 1.612990 0.000000 0.000000 
#    y 0.000000 1.638570 0.000000 
#    z 0.000000 0.000000 1.651370 
# 
# From -- ./inp_files/45944.got.cif
#   From: 2010.05.17/outbox.cif.g08.bks.cpg/sg65_23_cif.got.tgz:45944.got - 2010.06.03 17:01:31.
