data_PCOD9485547
_publ_section_title
;
Structure prediction by ZEFSAII (Michael W. Deem and Ramdas Pophale) SiO2 
 PCOD9485547
Probable space group: C M M M
;
_chemical_formula_sum "Si O2"
_cell_formula_units_Z 72
_cell_length_a 27.381602
_cell_length_b 7.674181
_cell_length_c 16.692141
_cell_angle_alpha 90.000000
_cell_angle_beta 90.000000
_cell_angle_gamma 90.000000
_cell_volume 3507.542454
_symmetry_space_group_name_H-M "C M M M"
_symmetry_group_IT_number 65
_symmetry_cell_setting 'orthorhombic'
loop_
_space_group_symop_operation_xyz
x,y,z
-x,-y,z
x,-y,-z
-x,y,-z
-x,-y,-z
x,y,-z
-x,y,z
x,-y,z
1/2+x,1/2+y,z
1/2-x,1/2-y,z
1/2+x,1/2-y,-z
1/2-x,1/2+y,-z
1/2-x,1/2-y,-z
1/2+x,1/2+y,-z
1/2-x,1/2+y,z
1/2+x,1/2-y,z
loop_
_atom_site_type_symbol
_atom_site_label
_atom_site_fract_x
_atom_site_fract_y
_atom_site_fract_z
Si Si1 0.807047 0.709836 0.500000
Si Si2 0.905593 0.795361 0.087227
Si Si3 0.054424 0.211388 0.255886
Si Si4 0.155157 0.294360 0.331133
Si Si5 0.694764 0.792000 0.162200
O O1 0.814172 0.500000 0.500000
O O2 0.750000 0.750000 0.500000
O O3 0.829589 0.779066 0.416996
O O4 0.932512 0.724447 0.165987
O O5 0.847850 0.779965 0.105655
O O6 0.918024 0.000000 0.084256
O O7 0.916958 0.719122 0.000000
O O8 0.098021 0.271143 0.312849
O O9 0.000000 0.266249 0.278636
O O10 0.055805 0.000000 0.254756
O O11 0.166333 0.500000 0.333018
O O12 0.183438 0.223841 0.252593
O O13 0.750000 0.750000 0.139071
O O14 0.688775 0.000000 0.162413
#
# Coordination Sequence:
#
# PCOD9485547 Si02
#       5
#     8  16  16  16  16
#     4  10  20  34  53  78 105 131 162 199 239 284
#     4   9  18  32  49  70  96 125 159 200 244 289
#     4   9  18  33  53  75  98 126 161 201 244 288
#     4   9  19  34  51  73 100 129 162 199 239 287
#     4  10  19  31  48  69  95 128 163 198 239 288
#
# _framework density 20.527193
#
# number of rings (size 3 to 8) (size 9 to 14) (size 15 to 20)
#    0.000    2.667    0.000    1.333    0.000    3.556 
#    0.000    2.778    0.000    3.333    0.000    6.222 
#    0.000    0.000    0.000    0.000    0.000    0.000 
#
# Total GULP energy -200861.969578 kJ/mol
# GULP energy per Si atom -5579.499155 kJ/mol
# Density = 2.048047 g / cm^3
# Si number density = 20.527193 Si / 1000 Ang^3
#
#
#
# Elastic Constant Matrix: (Units=GPa)
#
#
# Indices 1 2 3 4 5 6 
#
# 1 62.4655 -27.0854 13.2528 0.0000 0.0000 0.0000
# 2 -27.0854 36.0526 -0.7239 0.0000 0.0000 0.0000
# 3 13.2528 -0.7239 112.6941 0.0000 0.0000 0.0000
# 4 0.0000 0.0000 0.0000 9.7061 0.0000 0.0000
# 5 0.0000 0.0000 0.0000 0.0000 2.6013 0.0000
# 6 0.0000 0.0000 0.0000 0.0000 0.0000 21.9436
#
#
#
# Elastic Compliance Matrix: (Units=1/GPa)
#
#
# Indices 1 2 3 4 5 6 
#
# 1 0.024580 0.018411 -0.002772 0.000000 0.000000 0.000000
# 2 0.018411 0.041531 -0.001898 0.000000 0.000000 0.000000
# 3 -0.002772 -0.001898 0.009187 0.000000 0.000000 0.000000
# 4 0.000000 0.000000 0.000000 0.103028 0.000000 0.000000
# 5 0.000000 0.000000 0.000000 0.000000 0.384425 0.000000
# 6 0.000000 0.000000 0.000000 0.000000 0.000000 0.045571
#
#
# Mechanical properties :
#
#
# Convention : Reuss Voigt Hill
#
# Bulk Modulus (GPa) = 9.72974 20.23327 14.98150
# Shear Modulus (GPa) = 8.12874 21.90143 15.01508
#
# Velocity S-wave (km/s) = 1.99213 3.26996 2.70751
# Velocity P-wave (km/s) = 3.16886 4.91274 4.13381
#
# Compressibility (1/GPa) = 0.10277768
#
# Stress axis : x y z
#
# Youngs Moduli (GPa) = 40.68360 24.07868 108.84456
#
# Poissons Ratio (x) = -0.44330 0.30175
# Poissons Ratio (y) = -0.74901 0.20662
# Poissons Ratio (z) = 0.11279 0.04571
#
# Static dielectric constant tensor:
#      x y z
#    x 1.695960 0.000000 0.000000 
#    y 0.000000 1.777650 0.000000 
#    z 0.000000 0.000000 1.755280 
# 
# From -- ./inp_files/36528.got.cif
#   From: 2010.05.17/outbox.cif.g08.bks.cpg/sg65_19_cif.got.tgz:36528.got - 2010.06.03 17:01:31.
