data_PCOD9485839
_publ_section_title
;
Structure prediction by ZEFSAII (Michael W. Deem and Ramdas Pophale) SiO2 
 PCOD9485839
Probable space group: C M M M
;
_chemical_formula_sum "Si O2"
_cell_formula_units_Z 104
_cell_length_a 28.452179
_cell_length_b 20.306858
_cell_length_c 7.298644
_cell_angle_alpha 90.000000
_cell_angle_beta 90.000000
_cell_angle_gamma 90.000000
_cell_volume 4216.969357
_symmetry_space_group_name_H-M "C M M M"
_symmetry_group_IT_number 65
_symmetry_cell_setting 'orthorhombic'
loop_
_space_group_symop_operation_xyz
x,y,z
-x,-y,z
x,-y,-z
-x,y,-z
-x,-y,-z
x,y,-z
-x,y,z
x,-y,z
1/2+x,1/2+y,z
1/2-x,1/2-y,z
1/2+x,1/2-y,-z
1/2-x,1/2+y,-z
1/2-x,1/2-y,-z
1/2+x,1/2+y,-z
1/2-x,1/2+y,z
1/2+x,1/2-y,z
loop_
_atom_site_type_symbol
_atom_site_label
_atom_site_fract_x
_atom_site_fract_y
_atom_site_fract_z
Si Si1 0.598608 0.378172 0.709178
Si Si2 0.274602 0.183760 0.207245
Si Si3 0.000000 0.922185 0.283978
Si Si4 0.052403 0.752984 0.219997
Si Si5 0.051789 0.600330 0.777516
Si Si6 0.698719 0.574739 0.722834
Si Si7 0.656422 0.071915 0.223768
O O1 0.597665 0.402890 0.500000
O O2 0.549443 0.399132 0.796862
O O3 0.593752 0.299302 0.709904
O O4 0.646441 0.405830 0.785956
O O5 0.250000 0.250000 0.287568
O O6 0.234298 0.128503 0.203867
O O7 0.317349 0.138926 0.286489
O O8 0.289253 0.202971 0.000000
O O9 0.000000 0.903402 0.500000
O O10 0.000000 0.000000 0.274560
O O11 0.055143 0.677227 0.272603
O O12 0.000000 0.776322 0.277826
O O13 0.053927 0.754741 0.000000
O O14 0.101672 0.571483 0.720796
O O15 0.000000 0.576493 0.716481
O O16 0.051015 0.595080 0.000000
O O17 0.700312 0.578722 0.500000
O O18 0.709435 0.500000 0.775791
O O19 0.676887 0.000000 0.278669
O O20 0.658429 0.074068 0.000000
#
# Coordination Sequence:
#
# PCOD9485839 Si02
#       7
#    16  16   8  16  16  16  16
#     4  10  19  31  50  75 100 133 179 224 267 319
#     4  10  22  38  58  84 109 142 186 228 272 326
#     4   9  16  28  47  69  95 129 170 215 260 310
#     4   9  17  29  46  70 103 141 174 210 261 320
#     4   8  15  27  45  72 105 138 170 208 261 321
#     4  10  22  39  57  79 109 143 181 228 280 331
#     4   9  17  30  50  76 106 138 176 222 265 315
#
# _framework density 24.662261999999998
#
# number of rings (size 3 to 8) (size 9 to 14) (size 15 to 20)
#    0.000    2.692    0.769    1.846    2.154    4.000 
#    0.000    1.538    0.000    1.846    0.000    0.000 
#    0.000    0.000    0.000    6.615    0.000    6.462 
#
# Total GULP energy -290248.809655 kJ/mol
# GULP energy per Si atom -5581.707878 kJ/mol
# Density = 2.460613 g / cm^3
# Si number density = 24.662262 Si / 1000 Ang^3
#
#
#
# Elastic Constant Matrix: (Units=GPa)
#
#
# Indices 1 2 3 4 5 6 
#
# 1 160.0277 62.7700 -2.6300 0.0000 0.0000 0.0000
# 2 62.7700 165.9801 1.8816 0.0000 0.0000 0.0000
# 3 -2.6300 1.8816 100.6495 0.0000 0.0000 0.0000
# 4 0.0000 0.0000 0.0000 -3.7800 0.0000 0.0000
# 5 0.0000 0.0000 0.0000 0.0000 16.1446 0.0000
# 6 0.0000 0.0000 0.0000 0.0000 0.0000 21.7430
#
#
#
# Elastic Compliance Matrix: (Units=1/GPa)
#
#
# Indices 1 2 3 4 5 6 
#
# 1 0.007343 -0.002780 0.000244 0.000000 0.000000 0.000000
# 2 -0.002780 0.007078 -0.000205 0.000000 0.000000 0.000000
# 3 0.000244 -0.000205 0.009946 0.000000 0.000000 0.000000
# 4 0.000000 0.000000 0.000000 -0.264547 0.000000 0.000000
# 5 0.000000 0.000000 0.000000 0.000000 0.061940 0.000000
# 6 0.000000 0.000000 0.000000 0.000000 0.000000 0.045992
#
#
# Mechanical properties :
#
#
# Convention : Reuss Voigt Hill
#
# Bulk Modulus (GPa) = 52.95071 61.18893 57.06982
# Shear Modulus (GPa) = -41.50384 31.13057 -5.18663
#
# Velocity S-wave (km/s) = -4.10675 3.55671 -1.45177
# Velocity P-wave (km/s) = 0.98503 6.45999 4.51449
#
# Compressibility (1/GPa) = 0.01888549
#
# Stress axis : x y z
#
# Youngs Moduli (GPa) = 136.17848 141.27456 100.54622
#
# Poissons Ratio (x) = 0.39272 -0.02452
# Poissons Ratio (y) = 0.37855 0.02061
# Poissons Ratio (z) = -0.03321 0.02896
#
# Static dielectric constant tensor:
#      x y z
#    x 1.965210 0.000000 0.000000 
#    y 0.000000 1.960220 0.000000 
#    z 0.000000 0.000000 1.944900 
# 
# From -- ./inp_files/16503.got.cif
#   From: 2010.05.17/outbox.cif.g08.bks.cpg/sg65_9_cif.got.tgz:16503.got - 2010.06.03 17:01:31.
