data_PCOD9485287
_publ_section_title
;
Structure prediction by ZEFSAII (Michael W. Deem and Ramdas Pophale) SiO2 
 PCOD9485287
Probable space group: C M M M
;
_chemical_formula_sum "Si O2"
_cell_formula_units_Z 112
_cell_length_a 18.580469
_cell_length_b 19.015719
_cell_length_c 18.230521
_cell_angle_alpha 90.000000
_cell_angle_beta 90.000000
_cell_angle_gamma 90.000000
_cell_volume 6441.225498
_symmetry_space_group_name_H-M "C M M M"
_symmetry_group_IT_number 65
_symmetry_cell_setting 'orthorhombic'
loop_
_space_group_symop_operation_xyz
x,y,z
-x,-y,z
x,-y,-z
-x,y,-z
-x,-y,-z
x,y,-z
-x,y,z
x,-y,z
1/2+x,1/2+y,z
1/2-x,1/2-y,z
1/2+x,1/2-y,-z
1/2-x,1/2+y,-z
1/2-x,1/2-y,-z
1/2+x,1/2+y,-z
1/2-x,1/2+y,z
1/2+x,1/2-y,z
loop_
_atom_site_type_symbol
_atom_site_label
_atom_site_fract_x
_atom_site_fract_y
_atom_site_fract_z
Si Si1 0.583124 0.655090 0.300661
Si Si2 0.416854 0.211177 0.193486
Si Si3 0.187607 0.919956 0.200359
Si Si4 0.841690 0.420038 0.269096
Si Si5 0.913977 0.370708 0.416062
Si Si6 0.177823 0.203883 0.083723
Si Si7 0.172315 0.225344 0.584094
O O1 0.500000 0.643114 0.318846
O O2 0.588943 0.729472 0.257036
O O3 0.616494 0.597471 0.246869
O O4 0.634393 0.664791 0.370152
O O5 0.500000 0.196750 0.180538
O O6 0.379099 0.140595 0.221312
O O7 0.380929 0.247141 0.123217
O O8 0.256658 0.910479 0.253879
O O9 0.190236 0.864390 0.134214
O O10 0.188160 0.000000 0.174122
O O11 0.859822 0.500000 0.246507
O O12 0.869775 0.409901 0.352412
O O13 0.904484 0.397369 0.500000
O O14 0.881971 0.291716 0.415358
O O15 0.000000 0.370903 0.400110
O O16 0.250000 0.250000 0.083797
O O17 0.159061 0.185978 0.000000
O O18 0.184760 0.203950 0.500000
O O19 0.250000 0.250000 0.614761
#
# Coordination Sequence:
#
# PCOD9485287 Si02
#       7
#    16  16  16  16  16  16  16
#     4  10  20  33  55  80 106 145 185 230 284 334
#     4  10  20  34  54  83 112 143 183 227 273 327
#     4  10  22  38  58  85 114 145 183 231 278 329
#     4  11  21  34  53  78 110 153 193 229 280 335
#     4  10  20  33  49  73 108 147 189 238 286 331
#     4  10  20  37  62  87 111 145 182 223 275 333
#     4  10  19  30  49  77 107 142 186 239 292 336
#
# _framework density 17.387995
#
# number of rings (size 3 to 8) (size 9 to 14) (size 15 to 20)
#    0.000    1.857    2.857    1.714    0.000    3.143 
#    0.000    0.714    0.000    1.714    0.000    6.000 
#    0.000    0.000    0.000    0.000    0.000    0.000 
#
# Total GULP energy -312328.125472 kJ/mol
# GULP energy per Si atom -5577.287955 kJ/mol
# Density = 1.734842 g / cm^3
# Si number density = 17.387995 Si / 1000 Ang^3
#
#
#
# Elastic Constant Matrix: (Units=GPa)
#
#
# Indices 1 2 3 4 5 6 
#
# 1 90.8285 27.7250 43.9558 0.0000 0.0000 0.0000
# 2 27.7250 86.4794 35.0301 0.0000 0.0000 0.0000
# 3 43.9558 35.0301 101.4196 0.0000 0.0000 0.0000
# 4 0.0000 0.0000 0.0000 4.8364 0.0000 0.0000
# 5 0.0000 0.0000 0.0000 0.0000 14.4615 0.0000
# 6 0.0000 0.0000 0.0000 0.0000 0.0000 15.6005
#
#
#
# Elastic Compliance Matrix: (Units=1/GPa)
#
#
# Indices 1 2 3 4 5 6 
#
# 1 0.014355 -0.002421 -0.005385 0.000000 0.000000 0.000000
# 2 -0.002421 0.013853 -0.003736 0.000000 0.000000 0.000000
# 3 -0.005385 -0.003736 0.013484 0.000000 0.000000 0.000000
# 4 0.000000 0.000000 0.000000 0.206763 0.000000 0.000000
# 5 0.000000 0.000000 0.000000 0.000000 0.069149 0.000000
# 6 0.000000 0.000000 0.000000 0.000000 0.000000 0.064101
#
#
# Mechanical properties :
#
#
# Convention : Reuss Voigt Hill
#
# Bulk Modulus (GPa) = 53.73844 54.68327 54.21085
# Shear Modulus (GPa) = 12.16571 18.44745 15.30658
#
# Velocity S-wave (km/s) = 2.64798 3.26073 2.97020
# Velocity P-wave (km/s) = 6.34993 6.75970 6.55802
#
# Compressibility (1/GPa) = 0.01860866
#
# Stress axis : x y z
#
# Youngs Moduli (GPa) = 69.66269 72.18832 74.16012
#
# Poissons Ratio (x) = 0.17474 0.39938
# Poissons Ratio (y) = 0.16863 0.27703
# Poissons Ratio (z) = 0.37516 0.26966
#
# Static dielectric constant tensor:
#      x y z
#    x 1.586180 0.000000 0.000000 
#    y 0.000000 1.581350 0.000000 
#    z 0.000000 0.000000 1.603660 
# 
# From -- ./inp_files/56067.got.cif
#   From: 2010.05.17/outbox.cif.g08.bks.cpg/sg65_29_cif.got.tgz:56067.got - 2010.06.03 17:01:31.
