data_PCOD9485349
_publ_section_title
;
Structure prediction by ZEFSAII (Michael W. Deem and Ramdas Pophale) SiO2 
 PCOD9485349
Probable space group: C M M M
;
_chemical_formula_sum "Si O2"
_cell_formula_units_Z 88
_cell_length_a 17.816693
_cell_length_b 7.473863
_cell_length_c 34.211382
_cell_angle_alpha 90.000000
_cell_angle_beta 90.000000
_cell_angle_gamma 90.000000
_cell_volume 4555.571294
_symmetry_space_group_name_H-M "C M M M"
_symmetry_group_IT_number 65
_symmetry_cell_setting 'orthorhombic'
loop_
_space_group_symop_operation_xyz
x,y,z
-x,-y,z
x,-y,-z
-x,y,-z
-x,-y,-z
x,y,-z
-x,y,z
x,-y,z
1/2+x,1/2+y,z
1/2-x,1/2-y,z
1/2+x,1/2-y,-z
1/2-x,1/2+y,-z
1/2-x,1/2-y,-z
1/2+x,1/2+y,-z
1/2-x,1/2+y,z
1/2+x,1/2-y,z
loop_
_atom_site_type_symbol
_atom_site_label
_atom_site_fract_x
_atom_site_fract_y
_atom_site_fract_z
Si Si1 0.091712 0.794465 0.164954
Si Si2 0.837295 0.213587 0.000000
Si Si3 0.413193 0.281620 0.920696
Si Si4 0.910032 0.500000 0.684070
Si Si5 0.160513 0.786878 0.372031
Si Si6 0.591491 0.000000 0.226134
Si Si7 0.160498 0.213843 0.458071
O O1 0.116441 0.726936 0.122026
O O2 0.115357 0.671075 0.200700
O O3 0.000000 0.792072 0.163456
O O4 0.114691 0.000000 0.170166
O O5 0.750000 0.250000 0.000000
O O6 0.871682 0.282146 0.040568
O O7 0.851258 0.000000 0.000000
O O8 0.500000 0.228791 0.923813
O O9 0.411220 0.500000 0.919903
O O10 0.879522 0.672376 0.661029
O O11 0.883837 0.500000 0.729108
O O12 0.000000 0.500000 0.683545
O O13 0.250000 0.750000 0.370258
O O14 0.133525 0.725243 0.415491
O O15 0.148567 0.000000 0.368253
O O16 0.500000 0.000000 0.226701
O O17 0.131007 0.283070 0.500000
O O18 0.250000 0.250000 0.458231
O O19 0.150236 0.000000 0.458203
#
# Coordination Sequence:
#
# PCOD9485349 Si02
#       7
#    16   8  16   8  16   8  16
#     4   8  14  27  49  75  99 126 165 214 265 310
#     4  10  19  31  45  67  99 136 164 190 238 298
#     4   8  14  27  50  74  93 121 165 210 244 285
#     4  11  24  38  55  86 119 147 190 238 283 347
#     4  10  19  35  59  83 111 153 190 229 284 337
#     4   9  18  32  50  76 108 135 165 219 279 321
#     4   8  14  24  43  75 107 134 178 233 275 317
#
# _framework density 19.317007
#
# number of rings (size 3 to 8) (size 9 to 14) (size 15 to 20)
#    0.000    3.091    0.909    1.364    1.273    2.182 
#    1.636    1.818    0.000    2.727    0.000    2.545 
#    0.000    0.000    0.000    0.000    0.000    0.000 
#
# Total GULP energy -245136.154614 kJ/mol
# GULP energy per Si atom -5571.276241 kJ/mol
# Density = 1.927304 g / cm^3
# Si number density = 19.317007 Si / 1000 Ang^3
#
#
#
# Elastic Constant Matrix: (Units=GPa)
#
#
# Indices 1 2 3 4 5 6 
#
# 1 26.0631 12.2155 46.3585 0.0000 0.0000 0.0000
# 2 12.2155 98.5613 75.7314 0.0000 0.0000 0.0000
# 3 46.3585 75.7314 251.9192 0.0000 0.0000 0.0000
# 4 0.0000 0.0000 0.0000 42.9650 0.0000 0.0000
# 5 0.0000 0.0000 0.0000 0.0000 40.2306 0.0000
# 6 0.0000 0.0000 0.0000 0.0000 0.0000 15.7364
#
#
#
# Elastic Compliance Matrix: (Units=1/GPa)
#
#
# Indices 1 2 3 4 5 6 
#
# 1 0.057165 0.001298 -0.010910 0.000000 0.000000 0.000000
# 2 0.001298 0.013223 -0.004214 0.000000 0.000000 0.000000
# 3 -0.010910 -0.004214 0.007244 0.000000 0.000000 0.000000
# 4 0.000000 0.000000 0.000000 0.023275 0.000000 0.000000
# 5 0.000000 0.000000 0.000000 0.000000 0.024857 0.000000
# 6 0.000000 0.000000 0.000000 0.000000 0.000000 0.063547
#
#
# Mechanical properties :
#
#
# Convention : Reuss Voigt Hill
#
# Bulk Modulus (GPa) = 20.00781 71.68383 45.84582
# Shear Modulus (GPa) = 21.40203 35.93559 28.66881
#
# Velocity S-wave (km/s) = 3.33218 4.31781 3.85661
# Velocity P-wave (km/s) = 5.01843 7.87704 6.60426
#
# Compressibility (1/GPa) = 0.04998049
#
# Stress axis : x y z
#
# Youngs Moduli (GPa) = 17.49310 75.62615 138.04660
#
# Poissons Ratio (x) = -0.09815 1.50606
# Poissons Ratio (y) = -0.02270 0.58171
# Poissons Ratio (z) = 0.19085 0.31868
#
# Static dielectric constant tensor:
#      x y z
#    x 1.642330 0.000000 0.000000 
#    y 0.000000 1.709710 0.000000 
#    z 0.000000 0.000000 1.708560 
# 
# From -- ./inp_files/77992.got.cif
#   From: 2010.05.17/outbox.cif.g08.bks.cpg/sg65_39_cif.got.tgz:77992.got - 2010.06.03 17:01:31.
