data_PCOD9485907
_publ_section_title
;
Structure prediction by ZEFSAII (Michael W. Deem and Ramdas Pophale) SiO2 
 PCOD9485907
Probable space group: C M M M
;
_chemical_formula_sum "Si O2"
_cell_formula_units_Z 88
_cell_length_a 29.167945
_cell_length_b 17.244195
_cell_length_c 7.381382
_cell_angle_alpha 90.000000
_cell_angle_beta 90.000000
_cell_angle_gamma 90.000000
_cell_volume 3712.670772
_symmetry_space_group_name_H-M "C M M M"
_symmetry_group_IT_number 65
_symmetry_cell_setting 'orthorhombic'
loop_
_space_group_symop_operation_xyz
x,y,z
-x,-y,z
x,-y,-z
-x,y,-z
-x,-y,-z
x,y,-z
-x,y,z
x,-y,z
1/2+x,1/2+y,z
1/2-x,1/2-y,z
1/2+x,1/2-y,-z
1/2-x,1/2+y,-z
1/2-x,1/2-y,-z
1/2+x,1/2+y,-z
1/2-x,1/2+y,z
1/2+x,1/2-y,z
loop_
_atom_site_type_symbol
_atom_site_label
_atom_site_fract_x
_atom_site_fract_y
_atom_site_fract_z
Si Si1 0.447855 0.310920 0.717692
Si Si2 0.197048 0.587556 0.281383
Si Si3 0.781227 0.817539 0.793608
Si Si4 0.604170 0.843114 0.279149
Si Si5 0.447229 0.000000 0.720861
Si Si6 0.863811 0.913123 0.784906
O O1 0.450060 0.304822 0.500000
O O2 0.500000 0.316381 0.784148
O O3 0.421836 0.233497 0.783964
O O4 0.415291 0.383133 0.760174
O O5 0.199764 0.590044 0.500000
O O6 0.183966 0.500000 0.231132
O O7 0.246226 0.610388 0.206596
O O8 0.157017 0.646485 0.223715
O O9 0.750000 0.750000 0.707100
O O10 0.828272 0.848894 0.710125
O O11 0.790862 0.792479 0.000000
O O12 0.603961 0.841853 0.500000
O O13 0.577847 0.921240 0.222819
O O14 0.500000 0.000000 0.777012
O O15 0.446211 0.000000 0.500000
O O16 0.857129 0.000000 0.712947
O O17 0.854611 0.916117 0.000000
#
# Coordination Sequence:
#
# PCOD9485907 Si02
#       6
#    16  16  16  16   8  16
#     4  10  21  36  56  83 111 139 177 229 282 325
#     4  10  19  31  50  78 111 145 179 216 260 314
#     4  10  21  37  57  81 108 139 178 223 272 326
#     4   9  16  29  47  74 112 146 178 218 265 318
#     4   9  14  22  42  70 103 145 185 217 254 307
#     4  10  22  40  59  79 106 142 183 224 268 325
#
# _framework density 23.702614000000001
#
# number of rings (size 3 to 8) (size 9 to 14) (size 15 to 20)
#    0.000    2.273    0.909    2.182    0.000    5.455 
#    0.000    1.818    0.000    0.000    0.000    0.000 
#    0.000    2.909    0.000    0.000    0.000    0.000 
#
# Total GULP energy -245996.024873 kJ/mol
# GULP energy per Si atom -5590.818747 kJ/mol
# Density = 2.364867 g / cm^3
# Si number density = 23.702614 Si / 1000 Ang^3
#
#
#
# Elastic Constant Matrix: (Units=GPa)
#
#
# Indices 1 2 3 4 5 6 
#
# 1 148.9517 38.7685 1.1222 0.0000 0.0000 0.0000
# 2 38.7685 112.6555 6.5182 0.0000 0.0000 0.0000
# 3 1.1222 6.5182 87.8975 0.0000 0.0000 0.0000
# 4 0.0000 0.0000 0.0000 17.3024 0.0000 0.0000
# 5 0.0000 0.0000 0.0000 0.0000 13.2130 0.0000
# 6 0.0000 0.0000 0.0000 0.0000 0.0000 40.1688
#
#
#
# Elastic Compliance Matrix: (Units=1/GPa)
#
#
# Indices 1 2 3 4 5 6 
#
# 1 0.007375 -0.002543 0.000094 0.000000 0.000000 0.000000
# 2 -0.002543 0.009792 -0.000694 0.000000 0.000000 0.000000
# 3 0.000094 -0.000694 0.011427 0.000000 0.000000 0.000000
# 4 0.000000 0.000000 0.000000 0.057795 0.000000 0.000000
# 5 0.000000 0.000000 0.000000 0.000000 0.075683 0.000000
# 6 0.000000 0.000000 0.000000 0.000000 0.000000 0.024895
#
#
# Mechanical properties :
#
#
# Convention : Reuss Voigt Hill
#
# Bulk Modulus (GPa) = 44.82543 49.14695 46.98619
# Shear Modulus (GPa) = 24.91422 34.34324 29.62873
#
# Velocity S-wave (km/s) = 3.24561 3.81060 3.53940
# Velocity P-wave (km/s) = 5.74439 6.33567 6.04726
#
# Compressibility (1/GPa) = 0.02230877
#
# Stress axis : x y z
#
# Youngs Moduli (GPa) = 135.59577 102.12388 87.51110
#
# Poissons Ratio (x) = 0.25974 -0.00827
# Poissons Ratio (y) = 0.34487 0.06070
# Poissons Ratio (z) = -0.01281 0.07084
#
# Static dielectric constant tensor:
#      x y z
#    x 1.866260 0.000000 0.000000 
#    y 0.000000 1.894860 0.000000 
#    z 0.000000 0.000000 1.978690 
# 
# From -- ./inp_files/24820.got.cif
#   From: 2010.05.17/outbox.cif.g08.bks.cpg/sg65_13_cif.got.tgz:24820.got - 2010.06.03 17:01:31.
