data_PCOD9485890
_publ_section_title
;
Structure prediction by ZEFSAII (Michael W. Deem and Ramdas Pophale) SiO2 
 PCOD9485890
Probable space group: C M M M
;
_chemical_formula_sum "Si O2"
_cell_formula_units_Z 72
_cell_length_a 24.700318
_cell_length_b 17.405331
_cell_length_c 9.246632
_cell_angle_alpha 90.000000
_cell_angle_beta 90.000000
_cell_angle_gamma 90.000000
_cell_volume 3975.286237
_symmetry_space_group_name_H-M "C M M M"
_symmetry_group_IT_number 65
_symmetry_cell_setting 'orthorhombic'
loop_
_space_group_symop_operation_xyz
x,y,z
-x,-y,z
x,-y,-z
-x,y,-z
-x,-y,-z
x,y,-z
-x,y,z
x,-y,z
1/2+x,1/2+y,z
1/2-x,1/2-y,z
1/2+x,1/2-y,-z
1/2-x,1/2+y,-z
1/2-x,1/2-y,-z
1/2+x,1/2+y,-z
1/2-x,1/2+y,z
1/2+x,1/2-y,z
loop_
_atom_site_type_symbol
_atom_site_label
_atom_site_fract_x
_atom_site_fract_y
_atom_site_fract_z
Si Si1 0.593959 0.656440 0.672415
Si Si2 0.000000 0.757998 0.161376
Si Si3 0.690158 0.768275 0.325685
Si Si4 0.000000 0.413276 0.767258
Si Si5 0.876907 0.584272 0.329041
Si Si6 0.934678 0.000000 0.170352
O O1 0.583704 0.651354 0.500000
O O2 0.551062 0.712837 0.748030
O O3 0.652016 0.694874 0.696131
O O4 0.587281 0.574949 0.748791
O O5 0.000000 0.666399 0.147853
O O6 0.000000 0.792806 0.000000
O O7 0.694765 0.778445 0.500000
O O8 0.750000 0.750000 0.268493
O O9 0.657977 0.844051 0.270109
O O10 0.057901 0.408077 0.685976
O O11 0.000000 0.500000 0.832139
O O12 0.866210 0.582239 0.500000
O O13 0.862394 0.500000 0.267136
O O14 0.000000 0.000000 0.183045
O O15 0.921312 0.000000 0.000000
#
# Coordination Sequence:
#
# PCOD9485890 Si02
#       6
#    16   8  16   8  16   8
#     4  11  22  37  60  86 113 149 191 236 284 342
#     4  12  23  35  55  83 116 153 186 228 289 344
#     4   9  18  33  52  79 113 146 185 234 283 328
#     4  10  19  31  50  77 106 146 185 225 270 330
#     4   9  16  27  47  77 109 140 177 224 278 327
#     4  11  23  39  59  87 122 154 182 229 290 349
#
# _framework density 18.111903000000002
#
# number of rings (size 3 to 8) (size 9 to 14) (size 15 to 20)
#    0.000    1.889    3.333    1.667    0.000    2.889 
#    2.000    0.000    0.000    2.667    0.000    0.000 
#    0.000    0.000    0.000    0.000    0.000    0.000 
#
# Total GULP energy -200489.320543 kJ/mol
# GULP energy per Si atom -5569.147793 kJ/mol
# Density = 1.807068 g / cm^3
# Si number density = 18.111903 Si / 1000 Ang^3
#
#
#
# Elastic Constant Matrix: (Units=GPa)
#
#
# Indices 1 2 3 4 5 6 
#
# 1 133.2178 71.1532 39.6909 0.0000 0.0000 0.0000
# 2 71.1532 175.8901 52.9021 0.0000 0.0000 0.0000
# 3 39.6909 52.9021 77.8992 0.0000 0.0000 0.0000
# 4 0.0000 0.0000 0.0000 31.6264 0.0000 0.0000
# 5 0.0000 0.0000 0.0000 0.0000 -8.7956 0.0000
# 6 0.0000 0.0000 0.0000 0.0000 0.0000 6.8604
#
#
#
# Elastic Compliance Matrix: (Units=1/GPa)
#
#
# Indices 1 2 3 4 5 6 
#
# 1 0.010097 -0.003189 -0.002979 0.000000 0.000000 0.000000
# 2 -0.003189 0.008152 -0.003911 0.000000 0.000000 0.000000
# 3 -0.002979 -0.003911 0.017011 0.000000 0.000000 0.000000
# 4 0.000000 0.000000 0.000000 0.031619 0.000000 0.000000
# 5 0.000000 0.000000 0.000000 0.000000 -0.113693 0.000000
# 6 0.000000 0.000000 0.000000 0.000000 0.000000 0.145764
#
#
# Mechanical properties :
#
#
# Convention : Reuss Voigt Hill
#
# Bulk Modulus (GPa) = 66.21685 79.38885 72.80285
# Shear Modulus (GPa) = 40.27643 20.82230 30.54937
#
# Velocity S-wave (km/s) = 4.72079 3.39432 4.11140
# Velocity P-wave (km/s) = 8.14578 7.69997 7.92601
#
# Compressibility (1/GPa) = 0.01510190
#
# Stress axis : x y z
#
# Youngs Moduli (GPa) = 99.03725 122.67509 58.78462
#
# Poissons Ratio (x) = 0.39116 0.17514
# Poissons Ratio (y) = 0.31579 0.22992
# Poissons Ratio (z) = 0.29506 0.47981
#
# Static dielectric constant tensor:
#      x y z
#    x 1.622170 0.000000 0.000000 
#    y 0.000000 1.660130 0.000000 
#    z 0.000000 0.000000 1.605030 
# 
# From -- ./inp_files/13645.got.cif
#   From: 2010.05.17/outbox.cif.g08.bks.cpg/sg65_7_cif.got.tgz:13645.got - 2010.06.03 17:01:31.
