data_PCOD9485136
_publ_section_title
;
Structure prediction by ZEFSAII (Michael W. Deem and Ramdas Pophale) SiO2 
 PCOD9485136
Probable space group: C M M M
;
_chemical_formula_sum "Si O2"
_cell_formula_units_Z 80
_cell_length_a 24.545512
_cell_length_b 24.556498
_cell_length_c 7.978458
_cell_angle_alpha 90.000000
_cell_angle_beta 90.000000
_cell_angle_gamma 90.000000
_cell_volume 4809.030051
_symmetry_space_group_name_H-M "C M M M"
_symmetry_group_IT_number 65
_symmetry_cell_setting 'orthorhombic'
loop_
_space_group_symop_operation_xyz
x,y,z
-x,-y,z
x,-y,-z
-x,y,-z
-x,-y,-z
x,y,-z
-x,y,z
x,-y,z
1/2+x,1/2+y,z
1/2-x,1/2-y,z
1/2+x,1/2-y,-z
1/2-x,1/2+y,-z
1/2-x,1/2-y,-z
1/2+x,1/2+y,-z
1/2-x,1/2+y,z
1/2+x,1/2-y,z
loop_
_atom_site_type_symbol
_atom_site_label
_atom_site_fract_x
_atom_site_fract_y
_atom_site_fract_z
Si Si1 0.437467 0.154226 0.198277
Si Si2 0.846850 0.934422 0.000000
Si Si3 0.933825 0.227718 0.315654
Si Si4 0.853605 0.437723 0.702162
Si Si5 0.730289 0.566109 0.691588
Si Si6 0.065690 0.845761 0.000000
O O1 0.500000 0.143131 0.252410
O O2 0.417502 0.209642 0.285513
O O3 0.398698 0.103555 0.233143
O O4 0.438664 0.165426 0.000000
O O5 0.812633 0.918418 0.833890
O O6 0.903613 0.902910 0.000000
O O7 0.853041 0.000000 0.000000
O O8 0.916186 0.209213 0.500000
O O9 0.000000 0.228511 0.312350
O O10 0.917598 0.188825 0.163881
O O11 0.856289 0.438887 0.500000
O O12 0.861453 0.500000 0.762308
O O13 0.792051 0.419091 0.743254
O O14 0.719338 0.584816 0.500000
O O15 0.730476 0.500000 0.685705
O O16 0.000000 0.851503 0.000000
#
# Coordination Sequence:
#
# PCOD9485136 Si02
#       6
#    16   8  16  16  16   8
#     4  10  19  30  46  71 102 133 170 216 257 295
#     4  10  20  33  55  81 102 132 158 186 246 300
#     4   9  17  32  53  72  95 133 174 207 240 282
#     4   9  18  31  47  69  98 134 174 215 256 294
#     4   8  16  32  51  72  98 130 173 211 235 279
#     4  10  20  35  53  79 108 126 156 198 236 296
#
# _framework density 16.635370999999999
#
# number of rings (size 3 to 8) (size 9 to 14) (size 15 to 20)
#    0.000    2.800    1.000    1.800    1.400    3.000 
#    0.000    2.000    0.000    2.400    0.000    9.800 
#    0.000    0.000    0.000    0.000    0.000    0.000 
#
# Total GULP energy -222826.007468 kJ/mol
# GULP energy per Si atom -5570.650187 kJ/mol
# Density = 1.659751 g / cm^3
# Si number density = 16.635371 Si / 1000 Ang^3
#
#
#
# Elastic Constant Matrix: (Units=GPa)
#
#
# Indices 1 2 3 4 5 6 
#
# 1 61.6572 38.2466 38.2882 0.0000 0.0000 0.0000
# 2 38.2466 62.2780 39.0090 0.0000 0.0000 0.0000
# 3 38.2882 39.0090 94.4173 0.0000 0.0000 0.0000
# 4 0.0000 0.0000 0.0000 6.8314 0.0000 0.0000
# 5 0.0000 0.0000 0.0000 0.0000 4.2085 0.0000
# 6 0.0000 0.0000 0.0000 0.0000 0.0000 -5.0333
#
#
#
# Elastic Compliance Matrix: (Units=1/GPa)
#
#
# Indices 1 2 3 4 5 6 
#
# 1 0.028382 -0.013789 -0.005812 0.000000 0.000000 0.000000
# 2 -0.013789 0.028363 -0.006126 0.000000 0.000000 0.000000
# 3 -0.005812 -0.006126 0.015479 0.000000 0.000000 0.000000
# 4 0.000000 0.000000 0.000000 0.146382 0.000000 0.000000
# 5 0.000000 0.000000 0.000000 0.000000 0.237613 0.000000
# 6 0.000000 0.000000 0.000000 0.000000 0.000000 -0.198679
#
#
# Mechanical properties :
#
#
# Convention : Reuss Voigt Hill
#
# Bulk Modulus (GPa) = 48.15100 49.93779 49.04439
# Shear Modulus (GPa) = 15.82683 8.05525 11.94104
#
# Velocity S-wave (km/s) = 3.08782 2.20290 2.68210
# Velocity P-wave (km/s) = 6.45915 6.04604 6.25600
#
# Compressibility (1/GPa) = 0.02076800
#
# Stress axis : x y z
#
# Youngs Moduli (GPa) = 35.23398 35.25742 64.60191
#
# Poissons Ratio (x) = 0.48618 0.37548
# Poissons Ratio (y) = 0.48585 0.39578
# Poissons Ratio (z) = 0.20479 0.21600
#
# Static dielectric constant tensor:
#      x y z
#    x 1.546410 0.000000 0.000000 
#    y 0.000000 1.539430 0.000000 
#    z 0.000000 0.000000 1.594530 
# 
# From -- ./inp_files/13820.got.cif
#   From: 2010.05.17/outbox.cif.g08.bks.cpg/sg65_7_cif.got.tgz:13820.got - 2010.06.03 17:01:31.
