data_PCOD9485534
_publ_section_title
;
Structure prediction by ZEFSAII (Michael W. Deem and Ramdas Pophale) SiO2 
 PCOD9485534
Probable space group: C M M M
;
_chemical_formula_sum "Si O2"
_cell_formula_units_Z 88
_cell_length_a 18.354214
_cell_length_b 32.048609
_cell_length_c 7.765201
_cell_angle_alpha 90.000000
_cell_angle_beta 90.000000
_cell_angle_gamma 90.000000
_cell_volume 4567.701106
_symmetry_space_group_name_H-M "C M M M"
_symmetry_group_IT_number 65
_symmetry_cell_setting 'orthorhombic'
loop_
_space_group_symop_operation_xyz
x,y,z
-x,-y,z
x,-y,-z
-x,y,-z
-x,-y,-z
x,y,-z
-x,y,z
x,-y,z
1/2+x,1/2+y,z
1/2-x,1/2-y,z
1/2+x,1/2-y,-z
1/2-x,1/2+y,-z
1/2-x,1/2-y,-z
1/2+x,1/2+y,-z
1/2-x,1/2+y,z
1/2+x,1/2-y,z
loop_
_atom_site_type_symbol
_atom_site_label
_atom_site_fract_x
_atom_site_fract_y
_atom_site_fract_z
Si Si1 0.692150 0.620594 0.804771
Si Si2 0.654519 0.914770 0.704065
Si Si3 0.916847 0.046674 0.293996
Si Si4 0.416691 0.000000 0.289181
Si Si5 0.734131 0.797124 0.211361
Si Si6 0.579424 0.167457 0.208002
O O1 0.771800 0.599481 0.795415
O O2 0.635364 0.586001 0.739767
O O3 0.709781 0.666657 0.726811
O O4 0.669792 0.628542 0.000000
O O5 0.670336 0.916898 0.500000
O O6 0.593384 0.879992 0.735900
O O7 0.625380 0.958853 0.765589
O O8 0.920372 0.043816 0.500000
O O9 0.000000 0.053342 0.230510
O O10 0.892433 0.000000 0.232356
O O11 0.500000 0.000000 0.231315
O O12 0.417798 0.000000 0.500000
O O13 0.750000 0.750000 0.264113
O O14 0.652037 0.808774 0.266930
O O15 0.735513 0.798587 0.000000
O O16 0.500000 0.182221 0.267864
O O17 0.579647 0.168984 0.000000
#
# Coordination Sequence:
#
# PCOD9485534 Si02
#       6
#    16  16  16   8  16  16
#     4  10  20  33  51  77 103 128 164 210 256 300
#     4  10  19  31  48  68  93 129 167 200 237 288
#     4   9  19  36  56  76 101 137 177 211 250 308
#     4   9  18  30  43  63  90 121 160 199 229 266
#     4   8  15  30  50  71  98 131 166 207 255 307
#     4   9  17  30  48  70  95 123 160 207 255 298
#
# _framework density 19.265709999999999
#
# number of rings (size 3 to 8) (size 9 to 14) (size 15 to 20)
#    0.000    2.818    0.000    3.273    1.273    1.818 
#    0.000    3.182    0.000   20.182    0.000    0.000 
#    0.000    0.000    0.000    0.000    0.000    0.000 
#
# Total GULP energy -245073.912454 kJ/mol
# GULP energy per Si atom -5569.861647 kJ/mol
# Density = 1.922186 g / cm^3
# Si number density = 19.265710 Si / 1000 Ang^3
#
#
#
# Elastic Constant Matrix: (Units=GPa)
#
#
# Indices 1 2 3 4 5 6 
#
# 1 90.7370 79.8688 4.4668 0.0000 0.0000 0.0000
# 2 79.8688 189.1137 4.4341 0.0000 0.0000 0.0000
# 3 4.4668 4.4341 26.1727 0.0000 0.0000 0.0000
# 4 0.0000 0.0000 0.0000 20.2167 0.0000 0.0000
# 5 0.0000 0.0000 0.0000 0.0000 22.1556 0.0000
# 6 0.0000 0.0000 0.0000 0.0000 0.0000 17.8173
#
#
#
# Elastic Compliance Matrix: (Units=1/GPa)
#
#
# Indices 1 2 3 4 5 6 
#
# 1 0.017622 -0.007401 -0.001754 0.000000 0.000000 0.000000
# 2 -0.007401 0.008417 -0.000163 0.000000 0.000000 0.000000
# 3 -0.001754 -0.000163 0.038535 0.000000 0.000000 0.000000
# 4 0.000000 0.000000 0.000000 0.049464 0.000000 0.000000
# 5 0.000000 0.000000 0.000000 0.000000 0.045135 0.000000
# 6 0.000000 0.000000 0.000000 0.000000 0.000000 0.056125
#
#
# Mechanical properties :
#
#
# Convention : Reuss Voigt Hill
#
# Bulk Modulus (GPa) = 21.76818 53.72916 37.74867
# Shear Modulus (GPa) = 20.06045 26.52151 23.29098
#
# Velocity S-wave (km/s) = 3.23034 3.71430 3.48075
# Velocity P-wave (km/s) = 5.02364 6.80763 5.98250
#
# Compressibility (1/GPa) = 0.04593862
#
# Stress axis : x y z
#
# Youngs Moduli (GPa) = 56.74772 118.80165 25.95067
#
# Poissons Ratio (x) = 0.87927 0.04551
# Poissons Ratio (y) = 0.42000 0.00423
# Poissons Ratio (z) = 0.09951 0.01935
#
# Static dielectric constant tensor:
#      x y z
#    x 1.658710 0.000000 0.000000 
#    y 0.000000 1.683830 0.000000 
#    z 0.000000 0.000000 1.709540 
# 
# From -- ./inp_files/10029.got.cif
#   From: 2010.05.17/outbox.cif.g08.bks.cpg/sg65_6_cif.got.tgz:10029.got - 2010.06.03 17:01:31.
