data_PCOD9485886
_publ_section_title
;
Structure prediction by ZEFSAII (Michael W. Deem and Ramdas Pophale) SiO2 
 PCOD9485886
Probable space group: C M M M
;
_chemical_formula_sum "Si O2"
_cell_formula_units_Z 96
_cell_length_a 22.492581
_cell_length_b 13.908087
_cell_length_c 15.387563
_cell_angle_alpha 90.000000
_cell_angle_beta 90.000000
_cell_angle_gamma 90.000000
_cell_volume 4813.672459
_symmetry_space_group_name_H-M "C M M M"
_symmetry_group_IT_number 65
_symmetry_cell_setting 'orthorhombic'
loop_
_space_group_symop_operation_xyz
x,y,z
-x,-y,z
x,-y,-z
-x,y,-z
-x,-y,-z
x,y,-z
-x,y,z
x,-y,z
1/2+x,1/2+y,z
1/2-x,1/2-y,z
1/2+x,1/2-y,-z
1/2-x,1/2+y,-z
1/2-x,1/2-y,-z
1/2+x,1/2+y,-z
1/2-x,1/2+y,z
1/2+x,1/2-y,z
loop_
_atom_site_type_symbol
_atom_site_label
_atom_site_fract_x
_atom_site_fract_y
_atom_site_fract_z
Si Si1 0.432923 0.384416 0.328997
Si Si2 0.728252 0.116252 0.762587
Si Si3 0.686043 0.385140 0.090950
Si Si4 0.063599 0.198185 0.136726
Si Si5 0.876505 0.612727 0.101222
Si Si6 0.802113 0.883105 0.597914
O O1 0.500000 0.369157 0.368902
O O2 0.429153 0.500000 0.312159
O O3 0.432882 0.326985 0.238697
O O4 0.370843 0.357415 0.376557
O O5 0.781797 0.150613 0.823870
O O6 0.670616 0.138148 0.822038
O O7 0.750411 0.145524 0.666604
O O8 0.727125 0.000000 0.759152
O O9 0.691198 0.500000 0.092959
O O10 0.618408 0.355214 0.094301
O O11 0.712959 0.351546 0.000000
O O12 0.071800 0.310591 0.116391
O O13 0.000000 0.163743 0.105355
O O14 0.891756 0.500000 0.110373
O O15 0.855382 0.624073 0.000000
O O16 0.790057 0.850545 0.500000
O O17 0.802194 0.000000 0.598233
#
# Coordination Sequence:
#
# PCOD9485886 Si02
#       6
#    16  16  16  16  16  16
#     4   9  17  31  51  76 111 152 184 210 249 307
#     4   9  17  33  53  75 106 138 172 216 260 310
#     4  10  19  31  50  76 107 143 175 204 248 310
#     4  11  22  35  52  75 105 139 178 221 264 311
#     4  10  22  39  57  75  98 135 183 232 276 314
#     4   9  16  28  51  82 112 142 174 211 260 315
#
# _framework density 19.943193000000001
#
# number of rings (size 3 to 8) (size 9 to 14) (size 15 to 20)
#    0.000    2.333    1.667    1.500    0.000    5.667 
#    0.000    5.000    0.000    2.000    0.000    0.000 
#    0.000    0.000    0.000   10.167    0.000    0.333 
#
# Total GULP energy -267289.639538 kJ/mol
# GULP energy per Si atom -5568.534157 kJ/mol
# Density = 1.989780 g / cm^3
# Si number density = 19.943193 Si / 1000 Ang^3
#
#
#
# Elastic Constant Matrix: (Units=GPa)
#
#
# Indices 1 2 3 4 5 6 
#
# 1 51.1501 -12.1196 30.0979 0.0000 0.0000 0.0000
# 2 -12.1196 40.2618 11.9225 0.0000 0.0000 0.0000
# 3 30.0979 11.9225 126.1174 0.0000 0.0000 0.0000
# 4 0.0000 0.0000 0.0000 -24.2173 0.0000 0.0000
# 5 0.0000 0.0000 0.0000 0.0000 -12.5885 0.0000
# 6 0.0000 0.0000 0.0000 0.0000 0.0000 20.0929
#
#
#
# Elastic Compliance Matrix: (Units=1/GPa)
#
#
# Indices 1 2 3 4 5 6 
#
# 1 0.026147 0.009999 -0.007185 0.000000 0.000000 0.000000
# 2 0.009999 0.029376 -0.005163 0.000000 0.000000 0.000000
# 3 -0.007185 -0.005163 0.010132 0.000000 0.000000 0.000000
# 4 0.000000 0.000000 0.000000 -0.041293 0.000000 0.000000
# 5 0.000000 0.000000 0.000000 0.000000 -0.079437 0.000000
# 6 0.000000 0.000000 0.000000 0.000000 0.000000 0.049769
#
#
# Mechanical properties :
#
#
# Convention : Reuss Voigt Hill
#
# Bulk Modulus (GPa) = 16.40531 30.81454 23.60993
# Shear Modulus (GPa) = 253.64049 9.16596 131.40322
#
# Velocity S-wave (km/s) = 11.28971 2.14616 8.12600
# Velocity P-wave (km/s) = 13.34868 4.65038 9.99533
#
# Compressibility (1/GPa) = 0.06095587
#
# Stress axis : x y z
#
# Youngs Moduli (GPa) = 38.24465 34.04112 98.69710
#
# Poissons Ratio (x) = -0.34037 0.70917
# Poissons Ratio (y) = -0.38240 0.50960
# Poissons Ratio (z) = 0.27480 0.17576
#
# Static dielectric constant tensor:
#      x y z
#    x 1.731580 0.000000 0.000000 
#    y 0.000000 1.710370 0.000000 
#    z 0.000000 0.000000 1.746830 
# 
# From -- ./inp_files/40369.got.cif
#   From: 2010.05.17/outbox.cif.g08.bks.cpg/sg65_21_cif.got.tgz:40369.got - 2010.06.03 17:01:31.
