data_PCOD9485526
_publ_section_title
;
Structure prediction by ZEFSAII (Michael W. Deem and Ramdas Pophale) SiO2 
 PCOD9485526
Probable space group: C M M M
;
_chemical_formula_sum "Si O2"
_cell_formula_units_Z 104
_cell_length_a 8.290557
_cell_length_b 28.316310
_cell_length_c 28.673623
_cell_angle_alpha 90.000000
_cell_angle_beta 90.000000
_cell_angle_gamma 90.000000
_cell_volume 6731.361875
_symmetry_space_group_name_H-M "C M M M"
_symmetry_group_IT_number 65
_symmetry_cell_setting 'orthorhombic'
loop_
_space_group_symop_operation_xyz
x,y,z
-x,-y,z
x,-y,-z
-x,y,-z
-x,-y,-z
x,y,-z
-x,y,z
x,-y,z
1/2+x,1/2+y,z
1/2-x,1/2-y,z
1/2+x,1/2-y,-z
1/2-x,1/2+y,-z
1/2-x,1/2-y,-z
1/2+x,1/2+y,-z
1/2-x,1/2+y,z
1/2+x,1/2-y,z
loop_
_atom_site_type_symbol
_atom_site_label
_atom_site_fract_x
_atom_site_fract_y
_atom_site_fract_z
Si Si1 0.500000 0.442831 0.053278
Si Si2 0.197015 0.552912 0.693645
Si Si3 0.692346 0.303365 0.447991
Si Si4 0.806974 0.606926 0.213832
Si Si5 0.690201 0.697609 0.735517
Si Si6 0.689643 0.056845 0.884306
Si Si7 0.807914 0.354531 0.643286
O O1 0.500000 0.500000 0.052070
O O2 0.332548 0.430082 0.079616
O O3 0.500000 0.425550 0.000000
O O4 0.253872 0.500000 0.684509
O O5 0.245288 0.571279 0.744962
O O6 0.251335 0.593293 0.657831
O O7 0.000000 0.552131 0.692888
O O8 0.752119 0.316861 0.500000
O O9 0.500000 0.303032 0.449067
O O10 0.750000 0.250000 0.438841
O O11 0.746194 0.336228 0.405891
O O12 0.735553 0.657987 0.226278
O O13 0.774435 0.584516 0.163629
O O14 0.000000 0.611655 0.217900
O O15 0.500000 0.698840 0.730223
O O16 0.750000 0.750000 0.746969
O O17 0.761880 0.679815 0.686141
O O18 0.500000 0.066390 0.897639
O O19 0.698717 0.000000 0.876589
O O20 0.000000 0.355938 0.641365
#
# Coordination Sequence:
#
# PCOD9485526 Si02
#       7
#     8  16  16  16  16  16  16
#     4   9  18  30  44  66  98 132 168 208 243 285
#     4   8  14  26  45  67  90 117 150 186 222 261
#     4  10  20  33  49  68  89 112 142 183 228 276
#     4   9  17  29  46  68  93 122 157 196 232 277
#     4  11  21  32  46  64  92 126 155 186 226 276
#     4   9  17  29  47  69  96 132 166 201 243 285
#     4  10  19  31  48  68  91 118 150 184 224 270
#
# _framework density 15.450067000000001
#
# number of rings (size 3 to 8) (size 9 to 14) (size 15 to 20)
#    0.000    2.538    0.000    4.154    1.077    3.077 
#    0.000    1.538    0.000    8.769    0.000    3.231 
#    0.000    0.615    0.308    0.000    0.000    0.000 
#
# Total GULP energy -289729.474709 kJ/mol
# GULP energy per Si atom -5571.720667 kJ/mol
# Density = 1.541490 g / cm^3
# Si number density = 15.450067 Si / 1000 Ang^3
#
#
#
# Elastic Constant Matrix: (Units=GPa)
#
#
# Indices 1 2 3 4 5 6 
#
# 1 62.3230 34.3805 54.7455 0.0000 0.0000 0.0000
# 2 34.3805 98.9986 60.7735 0.0000 0.0000 0.0000
# 3 54.7455 60.7735 115.8198 0.0000 0.0000 0.0000
# 4 0.0000 0.0000 0.0000 14.9697 0.0000 0.0000
# 5 0.0000 0.0000 0.0000 0.0000 22.9103 0.0000
# 6 0.0000 0.0000 0.0000 0.0000 0.0000 18.4464
#
#
#
# Elastic Compliance Matrix: (Units=1/GPa)
#
#
# Indices 1 2 3 4 5 6 
#
# 1 0.027801 -0.002342 -0.011912 0.000000 0.000000 0.000000
# 2 -0.002342 0.015098 -0.006815 0.000000 0.000000 0.000000
# 3 -0.011912 -0.006815 0.017841 0.000000 0.000000 0.000000
# 4 0.000000 0.000000 0.000000 0.066802 0.000000 0.000000
# 5 0.000000 0.000000 0.000000 0.000000 0.043649 0.000000
# 6 0.000000 0.000000 0.000000 0.000000 0.000000 0.054211
#
#
# Mechanical properties :
#
#
# Convention : Reuss Voigt Hill
#
# Bulk Modulus (GPa) = 53.76002 64.10450 58.93226
# Shear Modulus (GPa) = 18.26540 19.74806 19.00673
#
# Velocity S-wave (km/s) = 3.44208 3.57905 3.51123
# Velocity P-wave (km/s) = 7.11819 7.65904 7.39357
#
# Compressibility (1/GPa) = 0.01860119
#
# Stress axis : x y z
#
# Youngs Moduli (GPa) = 35.96961 66.23208 56.05133
#
# Poissons Ratio (x) = 0.15514 0.66768
# Poissons Ratio (y) = 0.08425 0.38201
# Poissons Ratio (z) = 0.42847 0.45139
#
# Static dielectric constant tensor:
#      x y z
#    x 1.537430 0.000000 0.000000 
#    y 0.000000 1.510530 0.000000 
#    z 0.000000 0.000000 1.513280 
# 
# From -- ./inp_files/73792.got.cif
#   From: 2010.05.17/outbox.cif.g08.bks.cpg/sg65_37_cif.got.tgz:73792.got - 2010.06.03 17:01:31.
