data_PCOD9485284
_publ_section_title
;
Structure prediction by ZEFSAII (Michael W. Deem and Ramdas Pophale) SiO2 
 PCOD9485284
Probable space group: C M M M
;
_chemical_formula_sum "Si O2"
_cell_formula_units_Z 96
_cell_length_a 33.851374
_cell_length_b 14.112690
_cell_length_c 11.011895
_cell_angle_alpha 90.000000
_cell_angle_beta 90.000000
_cell_angle_gamma 90.000000
_cell_volume 5260.756066
_symmetry_space_group_name_H-M "C M M M"
_symmetry_group_IT_number 65
_symmetry_cell_setting 'orthorhombic'
loop_
_space_group_symop_operation_xyz
x,y,z
-x,-y,z
x,-y,-z
-x,y,-z
-x,-y,-z
x,y,-z
-x,y,z
x,-y,z
1/2+x,1/2+y,z
1/2-x,1/2-y,z
1/2+x,1/2-y,-z
1/2-x,1/2+y,-z
1/2-x,1/2-y,-z
1/2+x,1/2+y,-z
1/2-x,1/2+y,z
1/2+x,1/2-y,z
loop_
_atom_site_type_symbol
_atom_site_label
_atom_site_fract_x
_atom_site_fract_y
_atom_site_fract_z
Si Si1 0.751873 0.362120 0.000000
Si Si2 0.846689 0.611560 0.000000
Si Si3 0.546562 0.887414 0.358446
Si Si4 0.231659 0.892094 0.266972
Si Si5 0.687690 0.892270 0.641056
Si Si6 0.353667 0.386832 0.357188
Si Si7 0.117956 0.709214 0.759406
O O1 0.750000 0.250000 0.000000
O O2 0.798521 0.388618 0.000000
O O3 0.729977 0.394254 0.878208
O O4 0.863814 0.668254 0.115971
O O5 0.858615 0.500000 0.000000
O O6 0.554955 0.863357 0.500000
O O7 0.500000 0.871312 0.337659
O O8 0.574749 0.830193 0.269169
O O9 0.554015 0.000000 0.344775
O O10 0.274112 0.846763 0.295293
O O11 0.191808 0.857966 0.328838
O O12 0.236019 0.000000 0.313614
O O13 0.697019 0.896748 0.500000
O O14 0.647685 0.836609 0.661155
O O15 0.681393 0.000000 0.688938
O O16 0.362302 0.370875 0.500000
O O17 0.357262 0.500000 0.334151
O O18 0.379109 0.321018 0.267587
#
# Coordination Sequence:
#
# PCOD9485284 Si02
#       7
#     8   8  16  16  16  16  16
#     4  12  22  34  48  71 102 151 197 234 273 324
#     4  12  24  38  56  82 119 151 187 240 283 324
#     4   9  18  34  58  88 119 146 175 221 284 353
#     4  10  20  34  49  68 101 142 184 229 280 328
#     4  10  19  30  49  76 103 134 175 224 278 337
#     4  10  22  39  57  79 109 146 192 249 297 329
#     4  12  22  36  56  81 109 150 191 225 281 342
#
# _framework density 18.248328000000001
#
# number of rings (size 3 to 8) (size 9 to 14) (size 15 to 20)
#    0.000    1.500    1.667    5.750    0.000    3.333 
#    0.000    3.333    0.000    2.000    0.000    2.333 
#    0.000    1.333    0.000    0.000    0.000    0.000 
#
# Total GULP energy -267898.681533 kJ/mol
# GULP energy per Si atom -5581.222532 kJ/mol
# Density = 1.820679 g / cm^3
# Si number density = 18.248328 Si / 1000 Ang^3
#
#
#
# Elastic Constant Matrix: (Units=GPa)
#
#
# Indices 1 2 3 4 5 6 
#
# 1 51.9505 22.1061 12.7577 0.0000 0.0000 0.0000
# 2 22.1061 97.4373 23.8110 0.0000 0.0000 0.0000
# 3 12.7577 23.8110 78.8774 0.0000 0.0000 0.0000
# 4 0.0000 0.0000 0.0000 20.9834 0.0000 0.0000
# 5 0.0000 0.0000 0.0000 0.0000 11.9283 0.0000
# 6 0.0000 0.0000 0.0000 0.0000 0.0000 24.6702
#
#
#
# Elastic Compliance Matrix: (Units=1/GPa)
#
#
# Indices 1 2 3 4 5 6 
#
# 1 0.021648 -0.004379 -0.002179 0.000000 0.000000 0.000000
# 2 -0.004379 0.011966 -0.002904 0.000000 0.000000 0.000000
# 3 -0.002179 -0.002904 0.013907 0.000000 0.000000 0.000000
# 4 0.000000 0.000000 0.000000 0.047657 0.000000 0.000000
# 5 0.000000 0.000000 0.000000 0.000000 0.083834 0.000000
# 6 0.000000 0.000000 0.000000 0.000000 0.000000 0.040535
#
#
# Mechanical properties :
#
#
# Convention : Reuss Voigt Hill
#
# Bulk Modulus (GPa) = 34.96955 38.40164 36.68560
# Shear Modulus (GPa) = 20.16105 22.82239 21.49172
#
# Velocity S-wave (km/s) = 3.32748 3.54030 3.43554
# Velocity P-wave (km/s) = 5.82817 6.14827 5.99036
#
# Compressibility (1/GPa) = 0.02859631
#
# Stress axis : x y z
#
# Youngs Moduli (GPa) = 46.19458 83.56946 71.90584
#
# Poissons Ratio (x) = 0.36592 0.15672
# Poissons Ratio (y) = 0.20227 0.20882
# Poissons Ratio (z) = 0.10068 0.24269
#
# Static dielectric constant tensor:
#      x y z
#    x 1.606890 0.000000 0.000000 
#    y 0.000000 1.724900 0.000000 
#    z 0.000000 0.000000 1.648290 
# 
# From -- ./inp_files/33906.got.cif
#   From: 2010.05.17/outbox.cif.g08.bks.cpg/sg65_17_cif.got.tgz:33906.got - 2010.06.03 17:01:31.
