data_PCOD9485057
_publ_section_title
;
Structure prediction by ZEFSAII (Michael W. Deem and Ramdas Pophale) SiO2 
 PCOD9485057
Probable space group: C M M M
;
_chemical_formula_sum "Si O2"
_cell_formula_units_Z 112
_cell_length_a 17.498812
_cell_length_b 19.937263
_cell_length_c 18.749874
_cell_angle_alpha 90.000000
_cell_angle_beta 90.000000
_cell_angle_gamma 90.000000
_cell_volume 6541.426361
_symmetry_space_group_name_H-M "C M M M"
_symmetry_group_IT_number 65
_symmetry_cell_setting 'orthorhombic'
loop_
_space_group_symop_operation_xyz
x,y,z
-x,-y,z
x,-y,-z
-x,y,-z
-x,-y,-z
x,y,-z
-x,y,z
x,-y,z
1/2+x,1/2+y,z
1/2-x,1/2-y,z
1/2+x,1/2-y,-z
1/2-x,1/2+y,-z
1/2-x,1/2-y,-z
1/2+x,1/2+y,-z
1/2-x,1/2+y,z
1/2+x,1/2-y,z
loop_
_atom_site_type_symbol
_atom_site_label
_atom_site_fract_x
_atom_site_fract_y
_atom_site_fract_z
Si Si1 0.697271 0.421722 0.693934
Si Si2 0.855678 0.574223 0.222964
Si Si3 0.591626 0.673251 0.221632
Si Si4 0.777462 0.327035 0.582381
Si Si5 0.161452 0.229866 0.917995
Si Si6 0.913240 0.306208 0.311785
Si Si7 0.590166 0.876692 0.081012
O O1 0.686043 0.500000 0.676114
O O2 0.770374 0.417027 0.746934
O O3 0.626299 0.388860 0.734951
O O4 0.721558 0.376366 0.626209
O O5 0.882089 0.500000 0.243493
O O6 0.906584 0.632238 0.257098
O O7 0.861365 0.583578 0.138703
O O8 0.500000 0.670485 0.214414
O O9 0.630878 0.682097 0.144370
O O10 0.611525 0.739736 0.268465
O O11 0.783711 0.347436 0.500000
O O12 0.750000 0.250000 0.584988
O O13 0.857839 0.324883 0.623640
O O14 0.250000 0.250000 0.905784
O O15 0.112209 0.298292 0.913109
O O16 0.155202 0.204727 0.000000
O O17 0.000000 0.296163 0.335307
O O18 0.500000 0.885417 0.094845
O O19 0.605894 0.897571 0.000000
#
# Coordination Sequence:
#
# PCOD9485057 Si02
#       7
#    16  16  16  16  16  16  16
#     4  10  22  39  59  83 110 142 184 235 281 331
#     4  10  20  33  51  74 104 145 185 224 274 331
#     4  11  21  34  57  83 110 149 190 235 285 335
#     4  10  20  36  60  86 112 146 181 220 270 330
#     4  10  20  32  51  79 110 146 189 240 291 334
#     4  10  20  33  53  83 112 145 183 223 274 330
#     4  10  19  30  45  69 104 142 180 224 274 330
#
# _framework density 17.121648
#
# number of rings (size 3 to 8) (size 9 to 14) (size 15 to 20)
#    0.000    1.857    2.857    1.714    2.000    3.143 
#    0.000    0.714    0.000    1.714    0.000    6.000 
#    0.000    0.000    0.000    0.000    0.000    0.000 
#
# Total GULP energy -312409.682751 kJ/mol
# GULP energy per Si atom -5578.744335 kJ/mol
# Density = 1.708268 g / cm^3
# Si number density = 17.121648 Si / 1000 Ang^3
#
#
#
# Elastic Constant Matrix: (Units=GPa)
#
#
# Indices 1 2 3 4 5 6 
#
# 1 46.1253 18.5999 47.0977 0.0000 0.0000 0.0000
# 2 18.5999 85.2001 40.2736 0.0000 0.0000 0.0000
# 3 47.0977 40.2736 132.5277 0.0000 0.0000 0.0000
# 4 0.0000 0.0000 0.0000 10.6430 0.0000 0.0000
# 5 0.0000 0.0000 0.0000 0.0000 14.5983 0.0000
# 6 0.0000 0.0000 0.0000 0.0000 0.0000 10.5573
#
#
#
# Elastic Compliance Matrix: (Units=1/GPa)
#
#
# Indices 1 2 3 4 5 6 
#
# 1 0.034322 -0.002017 -0.011584 0.000000 0.000000 0.000000
# 2 -0.002017 0.013824 -0.003484 0.000000 0.000000 0.000000
# 3 -0.011584 -0.003484 0.012721 0.000000 0.000000 0.000000
# 4 0.000000 0.000000 0.000000 0.093959 0.000000 0.000000
# 5 0.000000 0.000000 0.000000 0.000000 0.068501 0.000000
# 6 0.000000 0.000000 0.000000 0.000000 0.000000 0.094722
#
#
# Mechanical properties :
#
#
# Convention : Reuss Voigt Hill
#
# Bulk Modulus (GPa) = 37.45815 52.86615 45.16215
# Shear Modulus (GPa) = 13.84583 17.68516 15.76549
#
# Velocity S-wave (km/s) = 2.84680 3.21738 3.03775
# Velocity P-wave (km/s) = 5.72109 6.68924 6.22402
#
# Compressibility (1/GPa) = 0.02669646
#
# Stress axis : x y z
#
# Youngs Moduli (GPa) = 29.13573 72.33588 78.60820
#
# Poissons Ratio (x) = 0.14590 0.91063
# Poissons Ratio (y) = 0.05876 0.27389
# Poissons Ratio (z) = 0.33752 0.25204
#
# Static dielectric constant tensor:
#      x y z
#    x 1.573830 0.000000 0.000000 
#    y 0.000000 1.581660 0.000000 
#    z 0.000000 0.000000 1.581720 
# 
# From -- ./inp_files/54816.got.cif
#   From: 2010.05.17/outbox.cif.g08.bks.cpg/sg65_28_cif.got.tgz:54816.got - 2010.06.03 17:01:31.
