data_PCOD9485780
_publ_section_title
;
Structure prediction by ZEFSAII (Michael W. Deem and Ramdas Pophale) SiO2 
 PCOD9485780
Probable space group: C M M M
;
_chemical_formula_sum "Si O2"
_cell_formula_units_Z 88
_cell_length_a 19.119155
_cell_length_b 8.574946
_cell_length_c 30.135161
_cell_angle_alpha 90.000000
_cell_angle_beta 90.000000
_cell_angle_gamma 90.000000
_cell_volume 4940.530718
_symmetry_space_group_name_H-M "C M M M"
_symmetry_group_IT_number 65
_symmetry_cell_setting 'orthorhombic'
loop_
_space_group_symop_operation_xyz
x,y,z
-x,-y,z
x,-y,-z
-x,y,-z
-x,-y,-z
x,y,-z
-x,y,z
x,-y,z
1/2+x,1/2+y,z
1/2-x,1/2-y,z
1/2+x,1/2-y,-z
1/2-x,1/2+y,-z
1/2-x,1/2-y,-z
1/2+x,1/2+y,-z
1/2-x,1/2+y,z
1/2+x,1/2-y,z
loop_
_atom_site_type_symbol
_atom_site_label
_atom_site_fract_x
_atom_site_fract_y
_atom_site_fract_z
Si Si1 0.828345 0.310966 0.000000
Si Si2 0.082910 0.313237 0.183454
Si Si3 0.919443 0.690072 0.916219
Si Si4 0.171313 0.184314 0.735682
Si Si5 0.829841 0.311496 0.452234
Si Si6 0.670193 0.812902 0.356298
O O1 0.750000 0.250000 0.000000
O O2 0.869794 0.258604 0.955964
O O3 0.827969 0.500000 0.000000
O O4 0.093382 0.500000 0.186373
O O5 0.102628 0.262026 0.133412
O O6 0.126391 0.233499 0.222029
O O7 0.000000 0.283956 0.188371
O O8 0.919756 0.500000 0.916146
O O9 0.000000 0.738384 0.923655
O O10 0.250000 0.250000 0.740379
O O11 0.139438 0.249304 0.689516
O O12 0.175909 0.000000 0.732093
O O13 0.861219 0.262054 0.500000
O O14 0.827969 0.500000 0.452101
O O15 0.750000 0.250000 0.452307
O O16 0.861004 0.264615 0.404333
O O17 0.750000 0.750000 0.356675
O O18 0.671351 0.000000 0.354061
#
# Coordination Sequence:
#
# PCOD9485780 Si02
#       6
#     8  16  16  16  16  16
#     4  10  19  31  49  75 105 130 156 190 228 270
#     4   9  18  34  54  74  96 122 156 198 242 286
#     4   8  15  30  53  75  93 121 160 195 226 269
#     4  11  21  32  47  67  94 126 161 198 238 285
#     4   8  13  20  31  49  74 106 143 182 224 271
#     4   9  15  24  38  56  82 115 151 189 231 279
#
# _framework density 17.811851000000001
#
# number of rings (size 3 to 8) (size 9 to 14) (size 15 to 20)
#    0.000    2.909    0.000    4.636    0.000    2.909 
#    0.000    2.727    0.000    2.182    0.000    0.000 
#    0.000    0.727    0.000    8.364    0.000    5.455 
#
# Total GULP energy -244942.990077 kJ/mol
# GULP energy per Si atom -5566.886138 kJ/mol
# Density = 1.777131 g / cm^3
# Si number density = 17.811851 Si / 1000 Ang^3
#
#
#
# Elastic Constant Matrix: (Units=GPa)
#
#
# Indices 1 2 3 4 5 6 
#
# 1 33.0565 21.6244 66.9786 0.0000 0.0000 0.0000
# 2 21.6244 43.7115 49.6045 0.0000 0.0000 0.0000
# 3 66.9786 49.6045 225.6537 0.0000 0.0000 0.0000
# 4 0.0000 0.0000 0.0000 16.2865 0.0000 0.0000
# 5 0.0000 0.0000 0.0000 0.0000 -19.7015 0.0000
# 6 0.0000 0.0000 0.0000 0.0000 0.0000 17.3569
#
#
#
# Elastic Compliance Matrix: (Units=1/GPa)
#
#
# Indices 1 2 3 4 5 6 
#
# 1 0.085293 -0.017941 -0.021373 0.000000 0.000000 0.000000
# 2 -0.017941 0.034255 -0.002205 0.000000 0.000000 0.000000
# 3 -0.021373 -0.002205 0.011260 0.000000 0.000000 0.000000
# 4 0.000000 0.000000 0.000000 0.061401 0.000000 0.000000
# 5 0.000000 0.000000 0.000000 0.000000 -0.050757 0.000000
# 6 0.000000 0.000000 0.000000 0.000000 0.000000 0.057614
#
#
# Mechanical properties :
#
#
# Convention : Reuss Voigt Hill
#
# Bulk Modulus (GPa) = 20.93328 64.31519 42.62424
# Shear Modulus (GPa) = 16.77712 13.73599 15.25655
#
# Velocity S-wave (km/s) = 3.07238 2.78001 2.92984
# Velocity P-wave (km/s) = 4.93599 6.81844 5.95210
#
# Compressibility (1/GPa) = 0.04777082
#
# Stress axis : x y z
#
# Youngs Moduli (GPa) = 11.72435 29.19294 88.80890
#
# Poissons Ratio (x) = 0.52374 1.89809
# Poissons Ratio (y) = 0.21034 0.19582
# Poissons Ratio (z) = 0.25058 0.06437
#
# Static dielectric constant tensor:
#      x y z
#    x 1.571260 0.000000 0.000000 
#    y 0.000000 1.603460 0.000000 
#    z 0.000000 0.000000 1.679640 
# 
# From -- ./inp_files/78093.got.cif
#   From: 2010.05.17/outbox.cif.g08.bks.cpg/sg65_40_cif.got.tgz:78093.got - 2010.06.03 17:01:31.
