data_PCOD9485495
_publ_section_title
;
Structure prediction by ZEFSAII (Michael W. Deem and Ramdas Pophale) SiO2 
 PCOD9485495
Probable space group: C M M M
;
_chemical_formula_sum "Si O2"
_cell_formula_units_Z 96
_cell_length_a 23.030742
_cell_length_b 18.043482
_cell_length_c 13.767201
_cell_angle_alpha 90.000000
_cell_angle_beta 90.000000
_cell_angle_gamma 90.000000
_cell_volume 5721.026165
_symmetry_space_group_name_H-M "C M M M"
_symmetry_group_IT_number 65
_symmetry_cell_setting 'orthorhombic'
loop_
_space_group_symop_operation_xyz
x,y,z
-x,-y,z
x,-y,-z
-x,y,-z
-x,-y,-z
x,y,-z
-x,y,z
x,-y,z
1/2+x,1/2+y,z
1/2-x,1/2-y,z
1/2+x,1/2-y,-z
1/2-x,1/2+y,-z
1/2-x,1/2-y,-z
1/2+x,1/2+y,-z
1/2-x,1/2+y,z
1/2+x,1/2-y,z
loop_
_atom_site_type_symbol
_atom_site_label
_atom_site_fract_x
_atom_site_fract_y
_atom_site_fract_z
Si Si1 0.297646 0.806109 0.246965
Si Si2 0.500000 0.915348 0.818180
Si Si3 0.396596 0.259147 0.385570
Si Si4 0.591828 0.419865 0.613865
Si Si5 0.500000 0.858804 0.607940
Si Si6 0.625672 0.912358 0.884526
Si Si7 0.268061 0.416132 0.611415
O O1 0.250000 0.750000 0.203431
O O2 0.344381 0.762798 0.314220
O O3 0.330209 0.858651 0.170751
O O4 0.261894 0.859248 0.318425
O O5 0.500000 0.910630 0.701552
O O6 0.560667 0.884813 0.857483
O O7 0.500000 0.000000 0.852403
O O8 0.378039 0.267720 0.500000
O O9 0.425024 0.337630 0.352783
O O10 0.443999 0.194332 0.384511
O O11 0.575830 0.422675 0.500000
O O12 0.573243 0.500000 0.656463
O O13 0.662114 0.417093 0.620292
O O14 0.500000 0.893477 0.500000
O O15 0.631234 0.000000 0.854912
O O16 0.633477 0.909402 0.000000
O O17 0.254243 0.397629 0.500000
O O18 0.247733 0.500000 0.630574
#
# Coordination Sequence:
#
# PCOD9485495 Si02
#       7
#    16   8  16  16   8  16  16
#     4  12  21  30  50  76 103 136 167 204 255 314
#     4  10  19  37  62  80  98 133 176 211 256 313
#     4  10  19  31  47  70 103 140 172 204 246 299
#     4   8  14  26  43  63  91 129 171 206 230 267
#     4  10  20  34  50  74 110 141 163 202 256 306
#     4  10  22  40  59  77  98 128 172 224 268 309
#     4   9  17  28  42  65  99 135 169 200 230 279
#
# _framework density 16.780206
#
# number of rings (size 3 to 8) (size 9 to 14) (size 15 to 20)
#    0.000    2.167    3.333    2.250    0.000    2.167 
#    0.000    0.417    0.000    2.500    0.000    0.000 
#    0.000    0.000    0.000    1.500    0.000    0.500 
#
# Total GULP energy -267359.031007 kJ/mol
# GULP energy per Si atom -5569.979813 kJ/mol
# Density = 1.674201 g / cm^3
# Si number density = 16.780206 Si / 1000 Ang^3
#
#
#
# Elastic Constant Matrix: (Units=GPa)
#
#
# Indices 1 2 3 4 5 6 
#
# 1 75.9327 34.8999 21.0063 0.0000 0.0000 0.0000
# 2 34.8999 64.6904 36.2343 0.0000 0.0000 0.0000
# 3 21.0063 36.2343 39.4008 0.0000 0.0000 0.0000
# 4 0.0000 0.0000 0.0000 18.7560 0.0000 0.0000
# 5 0.0000 0.0000 0.0000 0.0000 14.0143 0.0000
# 6 0.0000 0.0000 0.0000 0.0000 0.0000 9.5773
#
#
#
# Elastic Compliance Matrix: (Units=1/GPa)
#
#
# Indices 1 2 3 4 5 6 
#
# 1 0.017546 -0.008716 -0.001339 0.000000 0.000000 0.000000
# 2 -0.008716 0.036209 -0.028652 0.000000 0.000000 0.000000
# 3 -0.001339 -0.028652 0.052444 0.000000 0.000000 0.000000
# 4 0.000000 0.000000 0.000000 0.053316 0.000000 0.000000
# 5 0.000000 0.000000 0.000000 0.000000 0.071356 0.000000
# 6 0.000000 0.000000 0.000000 0.000000 0.000000 0.104413
#
#
# Mechanical properties :
#
#
# Convention : Reuss Voigt Hill
#
# Bulk Modulus (GPa) = 34.74119 40.47833 37.60976
# Shear Modulus (GPa) = 11.84009 14.32841 13.08425
#
# Velocity S-wave (km/s) = 2.65919 2.92531 2.79542
# Velocity P-wave (km/s) = 5.49336 5.96531 5.73419
#
# Compressibility (1/GPa) = 0.02878428
#
# Stress axis : x y z
#
# Youngs Moduli (GPa) = 56.99326 27.61738 19.06798
#
# Poissons Ratio (x) = 0.24071 0.02554
# Poissons Ratio (y) = 0.49674 0.54634
# Poissons Ratio (z) = 0.07632 0.79130
#
# Static dielectric constant tensor:
#      x y z
#    x 1.594930 0.000000 0.000000 
#    y 0.000000 1.617260 0.000000 
#    z 0.000000 0.000000 1.528670 
# 
# From -- ./inp_files/30832.got.cif
#   From: 2010.05.17/outbox.cif.g08.bks.cpg/sg65_16_cif.got.tgz:30832.got - 2010.06.03 17:01:31.
