data_PCOD9485579
_publ_section_title
;
Structure prediction by ZEFSAII (Michael W. Deem and Ramdas Pophale) SiO2 
 PCOD9485579
Probable space group: C M M M
;
_chemical_formula_sum "Si O2"
_cell_formula_units_Z 96
_cell_length_a 28.471393
_cell_length_b 8.495941
_cell_length_c 24.529687
_cell_angle_alpha 90.000000
_cell_angle_beta 90.000000
_cell_angle_gamma 90.000000
_cell_volume 5933.517267
_symmetry_space_group_name_H-M "C M M M"
_symmetry_group_IT_number 65
_symmetry_cell_setting 'orthorhombic'
loop_
_space_group_symop_operation_xyz
x,y,z
-x,-y,z
x,-y,-z
-x,y,-z
-x,-y,-z
x,y,-z
-x,y,z
x,-y,z
1/2+x,1/2+y,z
1/2-x,1/2-y,z
1/2+x,1/2-y,-z
1/2-x,1/2+y,-z
1/2-x,1/2-y,-z
1/2+x,1/2+y,-z
1/2-x,1/2+y,z
1/2+x,1/2-y,z
loop_
_atom_site_type_symbol
_atom_site_label
_atom_site_fract_x
_atom_site_fract_y
_atom_site_fract_z
Si Si1 0.197253 0.190349 0.561414
Si Si2 0.355533 0.690468 0.668377
Si Si3 0.053966 0.310054 0.937389
Si Si4 0.698003 0.813049 0.774176
Si Si5 0.110173 0.811876 0.836084
Si Si6 0.947059 0.808373 0.729064
O O1 0.183836 0.240623 0.500000
O O2 0.250000 0.250000 0.571859
O O3 0.163225 0.244347 0.609828
O O4 0.197984 0.000000 0.562095
O O5 0.355202 0.500000 0.668796
O O6 0.321252 0.746010 0.716693
O O7 0.408009 0.742166 0.685124
O O8 0.055566 0.500000 0.934831
O O9 0.089436 0.241033 0.893525
O O10 0.000000 0.261956 0.925041
O O11 0.064073 0.264084 0.000000
O O12 0.750000 0.750000 0.784942
O O13 0.660176 0.759786 0.819320
O O14 0.698968 0.000000 0.770951
O O15 0.073691 0.763263 0.788147
O O16 0.114186 0.000000 0.834104
O O17 0.000000 0.751131 0.720767
O O18 0.948337 0.000000 0.727955
#
# Coordination Sequence:
#
# PCOD9485579 Si02
#       6
#    16  16  16  16  16  16
#     4   9  17  28  42  61  86 116 149 187 231 277
#     4   9  17  29  45  66  91 119 152 189 229 274
#     4   9  18  32  49  71 101 134 164 195 233 275
#     4  11  21  33  49  69  94 122 152 188 233 283
#     4  10  19  31  48  71  96 123 158 196 234 276
#     4   8  14  25  42  64  89 117 148 183 223 266
#
# _framework density 16.179272999999998
#
# number of rings (size 3 to 8) (size 9 to 14) (size 15 to 20)
#    0.000    2.667    0.000    4.500    0.000    3.333 
#    0.000    0.833    0.000    5.500    0.000    3.500 
#    0.000    0.000    0.000   10.167    0.000   11.000 
#
# Total GULP energy -267586.841169 kJ/mol
# GULP energy per Si atom -5574.725858 kJ/mol
# Density = 1.614245 g / cm^3
# Si number density = 16.179273 Si / 1000 Ang^3
#
#
#
# Elastic Constant Matrix: (Units=GPa)
#
#
# Indices 1 2 3 4 5 6 
#
# 1 150.4794 23.9489 87.0532 0.0000 0.0000 0.0000
# 2 23.9489 21.8048 18.8885 0.0000 0.0000 0.0000
# 3 87.0532 18.8885 116.2566 0.0000 0.0000 0.0000
# 4 0.0000 0.0000 0.0000 19.3686 0.0000 0.0000
# 5 0.0000 0.0000 0.0000 0.0000 23.1927 0.0000
# 6 0.0000 0.0000 0.0000 0.0000 0.0000 15.2679
#
#
#
# Elastic Compliance Matrix: (Units=1/GPa)
#
#
# Indices 1 2 3 4 5 6 
#
# 1 0.012475 -0.006528 -0.008280 0.000000 0.000000 0.000000
# 2 -0.006528 0.056790 -0.004338 0.000000 0.000000 0.000000
# 3 -0.008280 -0.004338 0.015507 0.000000 0.000000 0.000000
# 4 0.000000 0.000000 0.000000 0.051630 0.000000 0.000000
# 5 0.000000 0.000000 0.000000 0.000000 0.043117 0.000000
# 6 0.000000 0.000000 0.000000 0.000000 0.000000 0.065497
#
#
# Mechanical properties :
#
#
# Convention : Reuss Voigt Hill
#
# Bulk Modulus (GPa) = 21.51593 60.92468 41.22030
# Shear Modulus (GPa) = 16.73350 22.14252 19.43801
#
# Velocity S-wave (km/s) = 3.21947 3.70344 3.46990
# Velocity P-wave (km/s) = 5.21031 7.48499 6.44873
#
# Compressibility (1/GPa) = 0.04647720
#
# Stress axis : x y z
#
# Youngs Moduli (GPa) = 80.16237 17.60879 64.48751
#
# Poissons Ratio (x) = 0.11496 0.53398
# Poissons Ratio (y) = 0.52333 0.27976
# Poissons Ratio (z) = 0.66377 0.07639
#
# Static dielectric constant tensor:
#      x y z
#    x 1.531780 0.000000 0.000000 
#    y 0.000000 1.556110 0.000000 
#    z 0.000000 0.000000 1.538520 
# 
# From -- ./inp_files/68057.got.cif
#   From: 2010.05.17/outbox.cif.g08.bks.cpg/sg65_35_cif.got.tgz:68057.got - 2010.06.03 17:01:31.
