data_PCOD9485521
_publ_section_title
;
Structure prediction by ZEFSAII (Michael W. Deem and Ramdas Pophale) SiO2 
 PCOD9485521
Probable space group: C M M M
;
_chemical_formula_sum "Si O2"
_cell_formula_units_Z 100
_cell_length_a 28.846162
_cell_length_b 28.846153
_cell_length_c 8.599686
_cell_angle_alpha 90.000000
_cell_angle_beta 90.000000
_cell_angle_gamma 90.000000
_cell_volume 7155.805622
_symmetry_space_group_name_H-M "C M M M"
_symmetry_group_IT_number 65
_symmetry_cell_setting 'orthorhombic'
loop_
_space_group_symop_operation_xyz
x,y,z
-x,-y,z
x,-y,-z
-x,y,-z
-x,-y,-z
x,y,-z
-x,y,z
x,-y,z
1/2+x,1/2+y,z
1/2-x,1/2-y,z
1/2+x,1/2-y,-z
1/2-x,1/2+y,-z
1/2-x,1/2-y,-z
1/2+x,1/2+y,-z
1/2-x,1/2+y,z
1/2+x,1/2-y,z
loop_
_atom_site_type_symbol
_atom_site_label
_atom_site_fract_x
_atom_site_fract_y
_atom_site_fract_z
Si Si1 0.673816 0.947040 0.683936
Si Si2 0.500000 0.000000 0.709860
Si Si3 0.052960 0.673816 0.683936
Si Si4 0.573403 0.073403 0.182321
Si Si5 0.218804 0.641432 0.185575
Si Si6 0.710241 0.710241 0.679647
Si Si7 0.358568 0.218804 0.814425
O O1 0.664167 0.942375 0.500000
O O2 0.626454 0.937334 0.777170
O O3 0.709757 0.907758 0.735279
O O4 0.688704 0.000000 0.713584
O O5 0.540241 0.959759 0.719401
O O6 0.057625 0.664168 0.500000
O O7 0.062666 0.626454 0.777170
O O8 0.092242 0.709757 0.735280
O O9 0.000000 0.688705 0.713584
O O10 0.564018 0.064018 0.000000
O O11 0.265922 0.666546 0.238268
O O12 0.176200 0.676200 0.229610
O O13 0.217903 0.636734 0.000000
O O14 0.700152 0.700152 0.500000
O O15 0.750000 0.750000 0.684716
O O16 0.666546 0.734078 0.761732
O O17 0.363266 0.217903 0.000000
#
# Coordination Sequence:
#
# PCOD9485521 Si02
#       7
#    16   4  16  16  16  16  16
#     4  11  23  35  46  63  85 112 145 184 228 272
#     4  12  25  36  49  62  77 104 149 198 241 284
#     4  11  23  35  46  63  85 112 145 184 228 272
#     4  12  22  35  48  60  77 105 143 188 234 277
#     4  10  19  31  48  68  88 112 142 179 219 268
#     4   9  17  29  47  69  91 113 135 170 216 265
#     4  10  19  31  48  68  88 112 142 179 219 268
#
# _framework density 13.974665999999999
#
# number of rings (size 3 to 8) (size 9 to 14) (size 15 to 20)
#    0.000    1.440    3.200    3.600    0.000    5.120 
#    0.000    1.600    0.000    0.000    0.000    0.000 
#    0.000    0.000    0.000    0.000    0.000    0.800 
#
# Total GULP energy -278645.428358 kJ/mol
# GULP energy per Si atom -5572.908567 kJ/mol
# Density = 1.394286 g / cm^3
# Si number density = 13.974666 Si / 1000 Ang^3
#
#
#
# Elastic Constant Matrix: (Units=GPa)
#
#
# Indices 1 2 3 4 5 6 
#
# 1 62.9794 46.3236 16.7932 0.0000 0.0000 0.0000
# 2 46.3236 62.9794 16.7933 0.0000 0.0000 0.0000
# 3 16.7932 16.7933 37.0740 0.0000 0.0000 0.0000
# 4 0.0000 0.0000 0.0000 39.9955 0.0000 0.0000
# 5 0.0000 0.0000 0.0000 0.0000 39.9973 0.0000
# 6 0.0000 0.0000 0.0000 0.0000 0.0000 14.8012
#
#
#
# Elastic Compliance Matrix: (Units=1/GPa)
#
#
# Indices 1 2 3 4 5 6 
#
# 1 0.035334 -0.024705 -0.004814 0.000000 0.000000 0.000000
# 2 -0.024705 0.035334 -0.004814 0.000000 0.000000 0.000000
# 3 -0.004814 -0.004814 0.031334 0.000000 0.000000 0.000000
# 4 0.000000 0.000000 0.000000 0.025003 0.000000 0.000000
# 5 0.000000 0.000000 0.000000 0.000000 0.025002 0.000000
# 6 0.000000 0.000000 0.000000 0.000000 0.000000 0.067562
#
#
# Mechanical properties :
#
#
# Convention : Reuss Voigt Hill
#
# Bulk Modulus (GPa) = 29.99945 35.87257 32.93601
# Shear Modulus (GPa) = 16.70301 24.50031 20.60166
#
# Velocity S-wave (km/s) = 3.46097 4.19166 3.84372
# Velocity P-wave (km/s) = 6.12247 7.01086 6.58167
#
# Compressibility (1/GPa) = 0.03333394
#
# Stress axis : x y z
#
# Youngs Moduli (GPa) = 28.30169 28.30163 31.91380
#
# Poissons Ratio (x) = 0.69920 0.15364
# Poissons Ratio (y) = 0.69921 0.15364
# Poissons Ratio (z) = 0.13625 0.13625
#
# Static dielectric constant tensor:
#      x y z
#    x 1.448810 0.000000 0.000000 
#    y 0.000000 1.448810 0.000000 
#    z 0.000000 0.000000 1.493410 
# 
# From -- ./inp_files/19044.got.cif
#   From: 2010.05.17/outbox.cif.g08.bks.cpg/sg65_10_cif.got.tgz:19044.got - 2010.06.03 17:01:31.
