data_PCOD9485679
_publ_section_title
;
Structure prediction by ZEFSAII (Michael W. Deem and Ramdas Pophale) SiO2 
 PCOD9485679
Probable space group: C M M M
;
_chemical_formula_sum "Si O2"
_cell_formula_units_Z 96
_cell_length_a 14.781842
_cell_length_b 22.775510
_cell_length_c 16.207436
_cell_angle_alpha 90.000000
_cell_angle_beta 90.000000
_cell_angle_gamma 90.000000
_cell_volume 5456.460076
_symmetry_space_group_name_H-M "C M M M"
_symmetry_group_IT_number 65
_symmetry_cell_setting 'orthorhombic'
loop_
_space_group_symop_operation_xyz
x,y,z
-x,-y,z
x,-y,-z
-x,y,-z
-x,-y,-z
x,y,-z
-x,y,z
x,-y,z
1/2+x,1/2+y,z
1/2-x,1/2-y,z
1/2+x,1/2-y,-z
1/2-x,1/2+y,-z
1/2-x,1/2-y,-z
1/2+x,1/2+y,-z
1/2-x,1/2+y,z
1/2+x,1/2-y,z
loop_
_atom_site_type_symbol
_atom_site_label
_atom_site_fract_x
_atom_site_fract_y
_atom_site_fract_z
Si Si1 0.603238 0.738819 0.905460
Si Si2 0.897858 0.634852 0.155209
Si Si3 0.205675 0.119000 0.092789
Si Si4 0.211935 0.928791 0.409050
Si Si5 0.602535 0.429607 0.750847
Si Si6 0.601312 0.069614 0.329530
O O1 0.500000 0.715376 0.898102
O O2 0.611683 0.794465 0.846180
O O3 0.674569 0.686844 0.895496
O O4 0.612665 0.761321 0.000000
O O5 0.813143 0.612330 0.102914
O O6 0.890275 0.606644 0.245646
O O7 0.000000 0.622122 0.124155
O O8 0.156574 0.085557 0.166555
O O9 0.177595 0.101983 0.000000
O O10 0.184836 0.907614 0.500000
O O11 0.153123 0.907501 0.331486
O O12 0.316743 0.915452 0.389940
O O13 0.204332 0.000000 0.410134
O O14 0.500000 0.407190 0.755124
O O15 0.599407 0.500000 0.744471
O O16 0.500000 0.078422 0.363331
O O17 0.610104 0.000000 0.309139
#
# Coordination Sequence:
#
# PCOD9485679 Si02
#       6
#    16  16  16  16  16  16
#     4   9  18  32  49  71  97 126 168 216 252 285
#     4  10  19  31  49  72 100 134 168 206 249 291
#     4  11  21  33  51  73 100 135 172 209 249 291
#     4   9  17  31  52  76 101 129 162 201 248 298
#     4  10  21  36  52  73 102 132 165 206 250 299
#     4   9  17  30  49  74 104 134 164 200 243 295
#
# _framework density 17.593824999999999
#
# number of rings (size 3 to 8) (size 9 to 14) (size 15 to 20)
#    0.000    2.333    1.667    1.500    0.000    4.333 
#    0.000    4.167    0.000    1.500    0.000   14.000 
#    0.000    4.000    0.000    0.000    0.000    0.000 
#
# Total GULP energy -267456.556369 kJ/mol
# GULP energy per Si atom -5572.011591 kJ/mol
# Density = 1.755378 g / cm^3
# Si number density = 17.593825 Si / 1000 Ang^3
#
#
#
# Elastic Constant Matrix: (Units=GPa)
#
#
# Indices 1 2 3 4 5 6 
#
# 1 123.0508 11.3491 62.6837 0.0000 0.0000 0.0000
# 2 11.3491 15.5004 17.9561 0.0000 0.0000 0.0000
# 3 62.6837 17.9561 114.5623 0.0000 0.0000 0.0000
# 4 0.0000 0.0000 0.0000 -8.7030 0.0000 0.0000
# 5 0.0000 0.0000 0.0000 0.0000 13.7595 0.0000
# 6 0.0000 0.0000 0.0000 0.0000 0.0000 20.9167
#
#
#
# Elastic Compliance Matrix: (Units=1/GPa)
#
#
# Indices 1 2 3 4 5 6 
#
# 1 0.011291 -0.001357 -0.005965 0.000000 0.000000 0.000000
# 2 -0.001357 0.078990 -0.011638 0.000000 0.000000 0.000000
# 3 -0.005965 -0.011638 0.013817 0.000000 0.000000 0.000000
# 4 0.000000 0.000000 0.000000 -0.114902 0.000000 0.000000
# 5 0.000000 0.000000 0.000000 0.000000 0.072677 0.000000
# 6 0.000000 0.000000 0.000000 0.000000 0.000000 0.047809
#
#
# Mechanical properties :
#
#
# Convention : Reuss Voigt Hill
#
# Bulk Modulus (GPa) = 15.11095 48.56570 31.83832
# Shear Modulus (GPa) = 29.47085 15.93630 22.70357
#
# Velocity S-wave (km/s) = 4.09720 3.01290 3.59615
# Velocity P-wave (km/s) = 5.56688 6.30612 5.94800
#
# Compressibility (1/GPa) = 0.06617719
#
# Stress axis : x y z
#
# Youngs Moduli (GPa) = 88.56986 12.65987 72.37532
#
# Poissons Ratio (x) = 0.01717 0.43172
# Poissons Ratio (y) = 0.12015 0.84233
# Poissons Ratio (z) = 0.52833 0.14734
#
# Static dielectric constant tensor:
#      x y z
#    x 1.652600 0.000000 0.000000 
#    y 0.000000 1.589660 0.000000 
#    z 0.000000 0.000000 1.591030 
# 
# From -- ./inp_files/40378.got.cif
#   From: 2010.05.17/outbox.cif.g08.bks.cpg/sg65_21_cif.got.tgz:40378.got - 2010.06.03 17:01:31.
