data_PCOD9485559
_publ_section_title
;
Structure prediction by ZEFSAII (Michael W. Deem and Ramdas Pophale) SiO2 
 PCOD9485559
Probable space group: C M M M
;
_chemical_formula_sum "Si O2"
_cell_formula_units_Z 80
_cell_length_a 8.038473
_cell_length_b 26.819911
_cell_length_c 20.424907
_cell_angle_alpha 90.000000
_cell_angle_beta 90.000000
_cell_angle_gamma 90.000000
_cell_volume 4403.428789
_symmetry_space_group_name_H-M "C M M M"
_symmetry_group_IT_number 65
_symmetry_cell_setting 'orthorhombic'
loop_
_space_group_symop_operation_xyz
x,y,z
-x,-y,z
x,-y,-z
-x,y,-z
-x,-y,-z
x,y,-z
-x,y,z
x,-y,z
1/2+x,1/2+y,z
1/2-x,1/2-y,z
1/2+x,1/2-y,-z
1/2-x,1/2+y,-z
1/2-x,1/2-y,-z
1/2+x,1/2+y,-z
1/2-x,1/2+y,z
1/2+x,1/2-y,z
loop_
_atom_site_type_symbol
_atom_site_label
_atom_site_fract_x
_atom_site_fract_y
_atom_site_fract_z
Si Si1 0.299029 0.192950 0.500000
Si Si2 0.304327 0.306041 0.781961
Si Si3 0.692315 0.158783 0.639991
Si Si4 0.199473 0.055343 0.684544
Si Si5 0.795939 0.000000 0.075721
Si Si6 0.799169 0.910903 0.831854
O O1 0.500000 0.185955 0.500000
O O2 0.250000 0.250000 0.500000
O O3 0.235086 0.172030 0.430808
O O4 0.500000 0.307606 0.791679
O O5 0.250000 0.250000 0.798605
O O6 0.271704 0.317000 0.704872
O O7 0.234232 0.353929 0.822615
O O8 0.500000 0.174464 0.641432
O O9 0.709128 0.099690 0.648426
O O10 0.230656 0.063079 0.761779
O O11 0.000000 0.061063 0.675511
O O12 0.248336 0.000000 0.664472
O O13 0.739298 0.949493 0.112949
O O14 0.000000 0.000000 0.078768
O O15 0.747467 0.000000 0.000000
O O16 0.000000 0.907510 0.839910
#
# Coordination Sequence:
#
# PCOD9485559 Si02
#       6
#     8  16  16  16   8  16
#     4  10  22  36  49  64  87 119 150 191 241 290
#     4  10  19  31  48  70  96 125 158 199 244 284
#     4  10  20  33  48  69  94 120 156 196 240 290
#     4   9  16  29  49  69  94 126 158 194 237 278
#     4   9  14  22  42  72 101 126 155 192 232 277
#     4   8  14  25  42  66  96 126 154 191 236 276
#
# _framework density 18.167660000000001
#
# number of rings (size 3 to 8) (size 9 to 14) (size 15 to 20)
#    0.000    2.700    1.000    3.000    0.000    3.600 
#    0.000    0.500    0.000    3.600    0.000    0.000 
#    0.000   39.200    0.000    0.000    0.000    0.800 
#
# Total GULP energy -222774.633481 kJ/mol
# GULP energy per Si atom -5569.365837 kJ/mol
# Density = 1.812631 g / cm^3
# Si number density = 18.167660 Si / 1000 Ang^3
#
#
#
# Elastic Constant Matrix: (Units=GPa)
#
#
# Indices 1 2 3 4 5 6 
#
# 1 8.2595 8.5088 5.9004 0.0000 0.0000 0.0000
# 2 8.5088 150.7577 67.8155 0.0000 0.0000 0.0000
# 3 5.9004 67.8155 108.5798 0.0000 0.0000 0.0000
# 4 0.0000 0.0000 0.0000 21.5971 0.0000 0.0000
# 5 0.0000 0.0000 0.0000 0.0000 8.9335 0.0000
# 6 0.0000 0.0000 0.0000 0.0000 0.0000 24.8718
#
#
#
# Elastic Compliance Matrix: (Units=1/GPa)
#
#
# Indices 1 2 3 4 5 6 
#
# 1 0.129463 -0.005761 -0.003437 0.000000 0.000000 0.000000
# 2 -0.005761 0.009481 -0.005609 0.000000 0.000000 0.000000
# 3 -0.003437 -0.005609 0.012900 0.000000 0.000000 0.000000
# 4 0.000000 0.000000 0.000000 0.046303 0.000000 0.000000
# 5 0.000000 0.000000 0.000000 0.000000 0.111939 0.000000
# 6 0.000000 0.000000 0.000000 0.000000 0.000000 0.040206
#
#
# Mechanical properties :
#
#
# Convention : Reuss Voigt Hill
#
# Bulk Modulus (GPa) = 8.18126 48.00515 28.09320
# Shear Modulus (GPa) = 11.88643 23.43862 17.66253
#
# Velocity S-wave (km/s) = 2.56063 3.59573 3.12139
# Velocity P-wave (km/s) = 3.64080 6.61210 5.33738
#
# Compressibility (1/GPa) = 0.12223057
#
# Stress axis : x y z
#
# Youngs Moduli (GPa) = 7.72422 105.47161 77.52199
#
# Poissons Ratio (x) = 0.60759 0.26647
# Poissons Ratio (y) = 0.04450 0.43479
# Poissons Ratio (z) = 0.02655 0.59155
#
# Static dielectric constant tensor:
#      x y z
#    x 1.687820 0.000000 0.000000 
#    y 0.000000 1.654580 0.000000 
#    z 0.000000 0.000000 1.613070 
# 
# From -- ./inp_files/49911.got.cif
#   From: 2010.05.17/outbox.cif.g08.bks.cpg/sg65_25_cif.got.tgz:49911.got - 2010.06.03 17:01:31.
