data_PCOD9485044
_publ_section_title
;
Structure prediction by ZEFSAII (Michael W. Deem and Ramdas Pophale) SiO2 
 PCOD9485044
Probable space group: C M M M
;
_chemical_formula_sum "Si O2"
_cell_formula_units_Z 96
_cell_length_a 11.308873
_cell_length_b 27.168343
_cell_length_c 20.931316
_cell_angle_alpha 90.000000
_cell_angle_beta 90.000000
_cell_angle_gamma 90.000000
_cell_volume 6431.007451
_symmetry_space_group_name_H-M "C M M M"
_symmetry_group_IT_number 65
_symmetry_cell_setting 'orthorhombic'
loop_
_space_group_symop_operation_xyz
x,y,z
-x,-y,z
x,-y,-z
-x,y,-z
-x,-y,-z
x,y,-z
-x,y,z
x,-y,z
1/2+x,1/2+y,z
1/2-x,1/2-y,z
1/2+x,1/2-y,-z
1/2-x,1/2+y,-z
1/2-x,1/2-y,-z
1/2+x,1/2+y,-z
1/2-x,1/2+y,z
1/2+x,1/2-y,z
loop_
_atom_site_type_symbol
_atom_site_label
_atom_site_fract_x
_atom_site_fract_y
_atom_site_fract_z
Si Si1 0.359451 0.712467 0.077159
Si Si2 0.000000 0.942381 0.834338
Si Si3 0.250940 0.559408 0.367795
Si Si4 0.269664 0.393653 0.119908
Si Si5 0.000000 0.060182 0.687420
Si Si6 0.637359 0.060161 0.500000
Si Si7 0.641685 0.058037 0.000000
Si Si8 0.639591 0.056802 0.233081
O O1 0.500000 0.723606 0.094567
O O2 0.250000 0.750000 0.092085
O O3 0.316062 0.661260 0.107820
O O4 0.360379 0.707455 0.000000
O O5 0.113520 0.925816 0.872602
O O6 0.000000 0.922574 0.761159
O O7 0.000000 0.000000 0.827325
O O8 0.255670 0.500000 0.373075
O O9 0.381975 0.576292 0.348897
O O10 0.200676 0.577367 0.435107
O O11 0.169459 0.569290 0.306294
O O12 0.192359 0.414130 0.061650
O O13 0.198775 0.405090 0.184855
O O14 0.000000 0.000000 0.688189
O O15 0.500000 0.074234 0.500000
O O16 0.640279 0.000000 0.500000
O O17 0.500000 0.060418 0.000000
O O18 0.674877 0.000000 0.000000
O O19 0.500000 0.056225 0.223141
O O20 0.683885 0.000000 0.221543
#
# Coordination Sequence:
#
# PCOD9485044 Si02
#       8
#    16   8  16  16   8   8   8  16
#     4  10  22  41  59  76  96 121 160 210 258 311
#     4  11  20  31  51  75 103 131 163 201 245 299
#     4   9  16  26  40  58  84 121 163 205 243 279
#     4  12  21  35  53  73  97 128 164 202 252 300
#     4   9  16  27  41  61  89 123 161 199 239 283
#     4   9  16  25  37  55  81 116 162 209 244 273
#     4  11  24  37  48  71 106 134 162 203 249 302
#     4  10  19  30  45  67  97 133 170 202 240 297
#
# _framework density 14.927678
#
# number of rings (size 3 to 8) (size 9 to 14) (size 15 to 20)
#    0.000    1.833    3.333    2.500    0.000    5.333 
#    0.000    2.500    0.000    0.000    0.000    0.000 
#    0.000    0.000    0.000    0.750    0.000    6.083 
#
# Total GULP energy -267345.703872 kJ/mol
# GULP energy per Si atom -5569.702164 kJ/mol
# Density = 1.489370 g / cm^3
# Si number density = 14.927678 Si / 1000 Ang^3
#
#
#
# Elastic Constant Matrix: (Units=GPa)
#
#
# Indices 1 2 3 4 5 6 
#
# 1 101.3773 37.7758 34.5787 0.0000 0.0000 0.0000
# 2 37.7758 50.9648 27.9279 0.0000 0.0000 0.0000
# 3 34.5787 27.9279 79.1227 0.0000 0.0000 0.0000
# 4 0.0000 0.0000 0.0000 2.3256 0.0000 0.0000
# 5 0.0000 0.0000 0.0000 0.0000 21.0621 0.0000
# 6 0.0000 0.0000 0.0000 0.0000 0.0000 -8.5912
#
#
#
# Elastic Compliance Matrix: (Units=1/GPa)
#
#
# Indices 1 2 3 4 5 6 
#
# 1 0.014213 -0.008841 -0.003091 0.000000 0.000000 0.000000
# 2 -0.008841 0.029826 -0.006664 0.000000 0.000000 0.000000
# 3 -0.003091 -0.006664 0.016342 0.000000 0.000000 0.000000
# 4 0.000000 0.000000 0.000000 0.429990 0.000000 0.000000
# 5 0.000000 0.000000 0.000000 0.000000 0.047479 0.000000
# 6 0.000000 0.000000 0.000000 0.000000 0.000000 -0.116398
#
#
# Mechanical properties :
#
#
# Convention : Reuss Voigt Hill
#
# Bulk Modulus (GPa) = 43.12390 48.00331 45.56360
# Shear Modulus (GPa) = 10.72104 11.70480 11.21292
#
# Velocity S-wave (km/s) = 2.68283 2.80322 2.74368
# Velocity P-wave (km/s) = 6.20871 6.53486 6.37387
#
# Compressibility (1/GPa) = 0.02318900
#
# Stress axis : x y z
#
# Youngs Moduli (GPa) = 70.35941 33.52755 61.19379
#
# Poissons Ratio (x) = 0.29642 0.18913
# Poissons Ratio (y) = 0.62205 0.40780
# Poissons Ratio (z) = 0.21746 0.22343
#
# Static dielectric constant tensor:
#      x y z
#    x 1.531420 0.000000 0.000000 
#    y 0.000000 1.474950 0.000000 
#    z 0.000000 0.000000 1.512510 
# 
# From -- ./inp_files/61684.got.cif
#   From: 2010.05.17/outbox.cif.g08.bks.cpg/sg65_31_cif.got.tgz:61684.got - 2010.06.03 17:01:31.
