data_PCOD9485978
_publ_section_title
;
Structure prediction by ZEFSAII (Michael W. Deem and Ramdas Pophale) SiO2 
 PCOD9485978
Probable space group: C M M M
;
_chemical_formula_sum "Si O2"
_cell_formula_units_Z 104
_cell_length_a 27.463776
_cell_length_b 24.896724
_cell_length_c 7.820030
_cell_angle_alpha 90.000000
_cell_angle_beta 90.000000
_cell_angle_gamma 90.000000
_cell_volume 5347.008472
_symmetry_space_group_name_H-M "C M M M"
_symmetry_group_IT_number 65
_symmetry_cell_setting 'orthorhombic'
loop_
_space_group_symop_operation_xyz
x,y,z
-x,-y,z
x,-y,-z
-x,y,-z
-x,-y,-z
x,y,-z
-x,y,z
x,-y,z
1/2+x,1/2+y,z
1/2-x,1/2-y,z
1/2+x,1/2-y,-z
1/2-x,1/2+y,-z
1/2-x,1/2-y,-z
1/2+x,1/2+y,-z
1/2-x,1/2+y,z
1/2+x,1/2-y,z
loop_
_atom_site_type_symbol
_atom_site_label
_atom_site_fract_x
_atom_site_fract_y
_atom_site_fract_z
Si Si1 0.500000 0.565398 0.197408
Si Si2 0.632208 0.060521 0.704825
Si Si3 0.394674 0.438699 0.792857
Si Si4 0.211764 0.357109 0.709207
Si Si5 0.822095 0.154303 0.295282
Si Si6 0.444960 0.151561 0.796927
Si Si7 0.364279 0.765881 0.293881
O O1 0.500000 0.500000 0.194360
O O2 0.447819 0.580469 0.273298
O O3 0.500000 0.416060 0.000000
O O4 0.636541 0.056896 0.500000
O O5 0.681193 0.090730 0.766891
O O6 0.587335 0.100822 0.737600
O O7 0.626041 0.000000 0.772295
O O8 0.386370 0.500000 0.735784
O O9 0.352680 0.398724 0.740614
O O10 0.397596 0.439769 0.000000
O O11 0.212673 0.358306 0.500000
O O12 0.266941 0.351455 0.770337
O O13 0.179185 0.305994 0.759329
O O14 0.818135 0.161013 0.500000
O O15 0.851153 0.206583 0.229628
O O16 0.500000 0.151893 0.726577
O O17 0.414451 0.205487 0.757359
O O18 0.447948 0.147318 0.000000
O O19 0.364513 0.764799 0.500000
#
# Coordination Sequence:
#
# PCOD9485978 Si02
#       7
#     8  16  16  16  16  16  16
#     4   7  12  28  51  65  79 117 165 195 220 267
#     4   9  18  33  54  79 104 135 175 210 245 298
#     4   9  18  33  51  70  95 129 167 202 239 291
#     4   8  15  30  52  74  99 131 166 203 244 294
#     4  10  19  31  51  79 103 126 161 207 255 298
#     4  10  21  36  53  74 102 136 172 212 259 304
#     4   9  18  34  54  74  97 130 170 208 248 298
#
# _framework density 19.450129
#
# number of rings (size 3 to 8) (size 9 to 14) (size 15 to 20)
#    0.000    3.000    0.000    2.769    0.000    5.231 
#    1.385    6.538    0.000    6.000    0.000    0.000 
#    0.000    0.000    0.000    0.000    0.000    0.000 
#
# Total GULP energy -289803.619676 kJ/mol
# GULP energy per Si atom -5573.146532 kJ/mol
# Density = 1.940586 g / cm^3
# Si number density = 19.450129 Si / 1000 Ang^3
#
#
#
# Elastic Constant Matrix: (Units=GPa)
#
#
# Indices 1 2 3 4 5 6 
#
# 1 93.2079 86.6683 0.0668 0.0000 0.0000 0.0000
# 2 86.6683 132.7742 5.7547 0.0000 0.0000 0.0000
# 3 0.0668 5.7547 23.8014 0.0000 0.0000 0.0000
# 4 0.0000 0.0000 0.0000 -102.4508 0.0000 0.0000
# 5 0.0000 0.0000 0.0000 0.0000 19.8727 0.0000
# 6 0.0000 0.0000 0.0000 0.0000 0.0000 8.0957
#
#
#
# Elastic Compliance Matrix: (Units=1/GPa)
#
#
# Indices 1 2 3 4 5 6 
#
# 1 0.027734 -0.018291 0.004345 0.000000 0.000000 0.000000
# 2 -0.018291 0.019675 -0.004706 0.000000 0.000000 0.000000
# 3 0.004345 -0.004706 0.043140 0.000000 0.000000 0.000000
# 4 0.000000 0.000000 0.000000 -0.009761 0.000000 0.000000
# 5 0.000000 0.000000 0.000000 0.000000 0.050320 0.000000
# 6 0.000000 0.000000 0.000000 0.000000 0.000000 0.123523
#
#
# Mechanical properties :
#
#
# Convention : Reuss Voigt Hill
#
# Bulk Modulus (GPa) = 18.78150 48.30701 33.54426
# Shear Modulus (GPa) = 16.14545 -4.41024 5.86761
#
# Velocity S-wave (km/s) = 2.88426 -1.50744 1.73876
# Velocity P-wave (km/s) = 4.55732 4.67551 4.61679
#
# Compressibility (1/GPa) = 0.05324388
#
# Stress axis : x y z
#
# Youngs Moduli (GPa) = 36.05716 50.82513 23.18036
#
# Poissons Ratio (x) = 0.92967 -0.10071
# Poissons Ratio (y) = 0.65954 0.10908
# Poissons Ratio (z) = -0.15666 0.23917
#
# Static dielectric constant tensor:
#      x y z
#    x 1.689500 0.000000 0.000000 
#    y 0.000000 1.674600 0.000000 
#    z 0.000000 0.000000 1.720300 
# 
# From -- ./inp_files/16517.got.cif
#   From: 2010.05.17/outbox.cif.g08.bks.cpg/sg65_9_cif.got.tgz:16517.got - 2010.06.03 17:01:31.
