data_PCOD9485242
_publ_section_title
;
Structure prediction by ZEFSAII (Michael W. Deem and Ramdas Pophale) SiO2 
 PCOD9485242
Probable space group: C M M M
;
_chemical_formula_sum "Si O2"
_cell_formula_units_Z 88
_cell_length_a 18.497950
_cell_length_b 8.756395
_cell_length_c 29.436593
_cell_angle_alpha 90.000000
_cell_angle_beta 90.000000
_cell_angle_gamma 90.000000
_cell_volume 4768.002657
_symmetry_space_group_name_H-M "C M M M"
_symmetry_group_IT_number 65
_symmetry_cell_setting 'orthorhombic'
loop_
_space_group_symop_operation_xyz
x,y,z
-x,-y,z
x,-y,-z
-x,y,-z
-x,-y,-z
x,y,-z
-x,y,z
x,-y,z
1/2+x,1/2+y,z
1/2-x,1/2-y,z
1/2+x,1/2-y,-z
1/2-x,1/2+y,-z
1/2-x,1/2-y,-z
1/2+x,1/2+y,-z
1/2-x,1/2+y,z
1/2+x,1/2-y,z
loop_
_atom_site_type_symbol
_atom_site_label
_atom_site_fract_x
_atom_site_fract_y
_atom_site_fract_z
Si Si1 0.169615 0.318074 0.914057
Si Si2 0.331585 0.316976 0.549669
Si Si3 0.085139 0.183208 0.000000
Si Si4 0.414208 0.318720 0.170487
Si Si5 0.169226 0.316703 0.357798
Si Si6 0.414490 0.181615 0.266691
O O1 0.172848 0.500000 0.917580
O O2 0.250000 0.250000 0.915731
O O3 0.130945 0.268495 0.867471
O O4 0.123418 0.250639 0.955621
O O5 0.364303 0.280151 0.500000
O O6 0.327915 0.500000 0.553761
O O7 0.250000 0.250000 0.548621
O O8 0.364696 0.247247 0.595389
O O9 0.000000 0.220158 0.000000
O O10 0.092612 0.000000 0.000000
O O11 0.500000 0.283308 0.165722
O O12 0.405168 0.500000 0.164575
O O13 0.391805 0.269170 0.221179
O O14 0.172267 0.500000 0.360642
O O15 0.250000 0.250000 0.354376
O O16 0.126430 0.272608 0.312452
O O17 0.500000 0.206977 0.272879
O O18 0.403237 0.000000 0.259671
#
# Coordination Sequence:
#
# PCOD9485242 Si02
#       6
#    16  16   8  16  16  16
#     4  12  25  41  62  88 120 154 189 231 279 327
#     4   9  16  26  42  65  94 127 163 205 253 307
#     4  11  24  43  66  91 121 155 192 233 274 323
#     4  10  21  38  60  85 112 144 184 227 272 325
#     4  10  19  30  48  73 100 130 165 211 262 312
#     4   9  19  36  55  75 102 139 181 220 261 313
#
# _framework density 18.456365999999999
#
# number of rings (size 3 to 8) (size 9 to 14) (size 15 to 20)
#    0.000    1.909    0.000    5.455    0.000    7.273 
#    0.000    1.818    0.000    0.545    0.000    3.818 
#    0.000    0.000    0.000    0.000    0.000    0.000 
#
# Total GULP energy -245653.691650 kJ/mol
# GULP energy per Si atom -5583.038447 kJ/mol
# Density = 1.841436 g / cm^3
# Si number density = 18.456366 Si / 1000 Ang^3
#
#
#
# Elastic Constant Matrix: (Units=GPa)
#
#
# Indices 1 2 3 4 5 6 
#
# 1 70.2753 54.3790 74.0419 0.0000 0.0000 0.0000
# 2 54.3790 93.4279 77.1178 0.0000 0.0000 0.0000
# 3 74.0419 77.1178 183.9579 0.0000 0.0000 0.0000
# 4 0.0000 0.0000 0.0000 37.4939 0.0000 0.0000
# 5 0.0000 0.0000 0.0000 0.0000 47.1175 0.0000
# 6 0.0000 0.0000 0.0000 0.0000 0.0000 23.1301
#
#
#
# Elastic Compliance Matrix: (Units=1/GPa)
#
#
# Indices 1 2 3 4 5 6 
#
# 1 0.031687 -0.012104 -0.007680 0.000000 0.000000 0.000000
# 2 -0.012104 0.020991 -0.003928 0.000000 0.000000 0.000000
# 3 -0.007680 -0.003928 0.010174 0.000000 0.000000 0.000000
# 4 0.000000 0.000000 0.000000 0.026671 0.000000 0.000000
# 5 0.000000 0.000000 0.000000 0.000000 0.021224 0.000000
# 6 0.000000 0.000000 0.000000 0.000000 0.000000 0.043234
#
#
# Mechanical properties :
#
#
# Convention : Reuss Voigt Hill
#
# Bulk Modulus (GPa) = 64.81626 84.30430 74.56028
# Shear Modulus (GPa) = 24.20766 31.02312 27.61539
#
# Velocity S-wave (km/s) = 3.62555 4.10431 3.87234
# Velocity P-wave (km/s) = 7.26093 8.26059 7.77684
#
# Compressibility (1/GPa) = 0.01542823
#
# Stress axis : x y z
#
# Youngs Moduli (GPa) = 31.55826 47.64007 98.29407
#
# Poissons Ratio (x) = 0.57666 0.75486
# Poissons Ratio (y) = 0.38200 0.38606
# Poissons Ratio (z) = 0.24236 0.18711
#
# Static dielectric constant tensor:
#      x y z
#    x 1.610690 0.000000 0.000000 
#    y 0.000000 1.622170 0.000000 
#    z 0.000000 0.000000 1.653330 
# 
# From -- ./inp_files/77951.got.cif
#   From: 2010.05.17/outbox.cif.g08.bks.cpg/sg65_39_cif.got.tgz:77951.got - 2010.06.03 17:01:31.
