data_PCOD9485382
_publ_section_title
;
Structure prediction by ZEFSAII (Michael W. Deem and Ramdas Pophale) SiO2 
 PCOD9485382
Probable space group: C M M M
;
_chemical_formula_sum "Si O2"
_cell_formula_units_Z 96
_cell_length_a 8.617004
_cell_length_b 27.855471
_cell_length_c 24.899789
_cell_angle_alpha 90.000000
_cell_angle_beta 90.000000
_cell_angle_gamma 90.000000
_cell_volume 5976.713909
_symmetry_space_group_name_H-M "C M M M"
_symmetry_group_IT_number 65
_symmetry_cell_setting 'orthorhombic'
loop_
_space_group_symop_operation_xyz
x,y,z
-x,-y,z
x,-y,-z
-x,y,-z
-x,-y,-z
x,y,-z
-x,y,z
x,-y,z
1/2+x,1/2+y,z
1/2-x,1/2-y,z
1/2+x,1/2-y,-z
1/2-x,1/2+y,-z
1/2-x,1/2-y,-z
1/2+x,1/2+y,-z
1/2-x,1/2+y,z
1/2+x,1/2-y,z
loop_
_atom_site_type_symbol
_atom_site_label
_atom_site_fract_x
_atom_site_fract_y
_atom_site_fract_z
Si Si1 0.811579 0.899137 0.440496
Si Si2 0.187929 0.054469 0.329672
Si Si3 0.184928 0.195622 0.829767
Si Si4 0.186102 0.304498 0.058668
Si Si5 0.315096 0.851166 0.723011
Si Si6 0.313936 0.301783 0.617102
O O1 0.754205 0.911277 0.500000
O O2 0.764691 0.932999 0.391091
O O3 0.769302 0.844852 0.423262
O O4 0.000000 0.900974 0.442019
O O5 0.261341 0.095255 0.292560
O O6 0.000000 0.058980 0.326988
O O7 0.230029 0.000000 0.316133
O O8 0.250000 0.250000 0.825139
O O9 0.242855 0.174632 0.886876
O O10 0.246414 0.165825 0.779420
O O11 0.000000 0.197805 0.829445
O O12 0.250000 0.250000 0.057323
O O13 0.000000 0.303120 0.063396
O O14 0.225507 0.326071 0.000000
O O15 0.500000 0.847939 0.724004
O O16 0.250570 0.817235 0.675330
O O17 0.500000 0.300338 0.619932
O O18 0.250000 0.250000 0.601499
#
# Coordination Sequence:
#
# PCOD9485382 Si02
#       6
#    16  16  16  16  16  16
#     4   8  15  28  46  69  94 118 146 180 218 266
#     4   9  18  33  52  72  93 116 143 180 228 278
#     4  11  20  30  45  66  94 126 161 196 231 270
#     4   9  16  26  40  60  89 125 163 197 227 261
#     4  11  21  33  48  66  90 118 152 191 230 274
#     4  10  19  31  46  65  90 120 153 187 225 268
#
# _framework density 16.062338
#
# number of rings (size 3 to 8) (size 9 to 14) (size 15 to 20)
#    0.000    2.333    0.000    6.500    0.000    2.000 
#    0.000    1.667    0.000   12.000    0.000    4.667 
#    0.000    0.667    0.000    7.000    0.000    3.000 
#
# Total GULP energy -267626.950650 kJ/mol
# GULP energy per Si atom -5575.561472 kJ/mol
# Density = 1.602578 g / cm^3
# Si number density = 16.062338 Si / 1000 Ang^3
#
#
#
# Elastic Constant Matrix: (Units=GPa)
#
#
# Indices 1 2 3 4 5 6 
#
# 1 75.8951 19.9852 31.1201 0.0000 0.0000 0.0000
# 2 19.9852 56.2282 20.0607 0.0000 0.0000 0.0000
# 3 31.1201 20.0607 119.3896 0.0000 0.0000 0.0000
# 4 0.0000 0.0000 0.0000 10.0175 0.0000 0.0000
# 5 0.0000 0.0000 0.0000 0.0000 15.0575 0.0000
# 6 0.0000 0.0000 0.0000 0.0000 0.0000 19.7897
#
#
#
# Elastic Compliance Matrix: (Units=1/GPa)
#
#
# Indices 1 2 3 4 5 6 
#
# 1 0.015707 -0.004385 -0.003358 0.000000 0.000000 0.000000
# 2 -0.004385 0.020143 -0.002242 0.000000 0.000000 0.000000
# 3 -0.003358 -0.002242 0.009628 0.000000 0.000000 0.000000
# 4 0.000000 0.000000 0.000000 0.099825 0.000000 0.000000
# 5 0.000000 0.000000 0.000000 0.000000 0.066412 0.000000
# 6 0.000000 0.000000 0.000000 0.000000 0.000000 0.050531
#
#
# Mechanical properties :
#
#
# Convention : Reuss Voigt Hill
#
# Bulk Modulus (GPa) = 39.20035 43.76056 41.48045
# Shear Modulus (GPa) = 17.19876 20.99607 19.09741
#
# Velocity S-wave (km/s) = 3.27578 3.61939 3.45187
# Velocity P-wave (km/s) = 6.22622 6.69104 6.46281
#
# Compressibility (1/GPa) = 0.02550998
#
# Stress axis : x y z
#
# Youngs Moduli (GPa) = 63.66390 49.64516 103.86641
#
# Poissons Ratio (x) = 0.21770 0.34873
# Poissons Ratio (y) = 0.27917 0.23282
# Poissons Ratio (z) = 0.21375 0.11128
#
# Static dielectric constant tensor:
#      x y z
#    x 1.546930 0.000000 0.000000 
#    y 0.000000 1.516110 0.000000 
#    z 0.000000 0.000000 1.563930 
# 
# From -- ./inp_files/68055.got.cif
#   From: 2010.05.17/outbox.cif.g08.bks.cpg/sg65_35_cif.got.tgz:68055.got - 2010.06.03 17:01:31.
