data_PCOD9485782
_publ_section_title
;
Structure prediction by ZEFSAII (Michael W. Deem and Ramdas Pophale) SiO2 
 PCOD9485782
Probable space group: C M M M
;
_chemical_formula_sum "Si O2"
_cell_formula_units_Z 128
_cell_length_a 15.891614
_cell_length_b 21.422370
_cell_length_c 18.200787
_cell_angle_alpha 90.000000
_cell_angle_beta 90.000000
_cell_angle_gamma 90.000000
_cell_volume 6196.203760
_symmetry_space_group_name_H-M "C M M M"
_symmetry_group_IT_number 65
_symmetry_cell_setting 'orthorhombic'
loop_
_space_group_symop_operation_xyz
x,y,z
-x,-y,z
x,-y,-z
-x,y,-z
-x,-y,-z
x,y,-z
-x,y,z
x,-y,z
1/2+x,1/2+y,z
1/2-x,1/2-y,z
1/2+x,1/2-y,-z
1/2-x,1/2+y,-z
1/2-x,1/2-y,-z
1/2+x,1/2+y,-z
1/2-x,1/2+y,z
1/2+x,1/2-y,z
loop_
_atom_site_type_symbol
_atom_site_label
_atom_site_fract_x
_atom_site_fract_y
_atom_site_fract_z
Si Si1 0.093400 0.230382 0.770914
Si Si2 0.751369 0.928391 0.159782
Si Si3 0.847429 0.253199 0.617814
Si Si4 0.181828 0.804826 0.918980
Si Si5 0.148936 0.612123 0.419560
Si Si6 0.146374 0.113642 0.581271
Si Si7 0.906455 0.426131 0.741101
Si Si8 0.407175 0.415086 0.734048
O O1 0.146677 0.262696 0.706449
O O2 0.124320 0.221833 0.853525
O O3 0.091914 0.159311 0.743336
O O4 0.000000 0.256642 0.768442
O O5 0.778730 0.872008 0.105341
O O6 0.669781 0.904907 0.205984
O O7 0.829201 0.934810 0.216397
O O8 0.737078 0.000000 0.130504
O O9 0.750000 0.250000 0.596993
O O10 0.881911 0.315994 0.582816
O O11 0.881828 0.186288 0.592234
O O12 0.250000 0.750000 0.924410
O O13 0.142292 0.812240 0.000000
O O14 0.127621 0.585107 0.500000
O O15 0.251321 0.611819 0.413238
O O16 0.114293 0.582790 0.344927
O O17 0.122648 0.092828 0.500000
O O18 0.110041 0.074362 0.648404
O O19 0.908888 0.500000 0.753956
O O20 0.000000 0.400902 0.757245
O O21 0.500000 0.436173 0.756692
#
# Coordination Sequence:
#
# PCOD9485782 Si02
#       8
#    16  16  16  16  16  16  16  16
#     4   9  18  31  51  78 111 152 189 224 274 338
#     4  10  21  40  64  87 114 152 196 236 277 338
#     4   9  17  28  47  74 107 146 192 238 286 341
#     4  10  22  39  61  90 122 151 180 224 288 349
#     4  10  19  31  49  75 106 144 193 248 301 350
#     4   9  16  28  46  71 108 152 190 234 293 348
#     4  10  22  39  57  78 105 144 196 247 292 341
#     4   9  17  31  52  81 111 142 189 240 283 331
#
# _framework density 20.657810000000001
#
# number of rings (size 3 to 8) (size 9 to 14) (size 15 to 20)
#    0.000    2.500    1.250    0.750    3.500    3.500 
#    0.000    0.625    0.000    3.750    0.000    6.125 
#    0.000    0.000    0.000    0.000    0.000    0.000 
#
# Total GULP energy -356488.896798 kJ/mol
# GULP energy per Si atom -5570.139012 kJ/mol
# Density = 2.061079 g / cm^3
# Si number density = 20.657810 Si / 1000 Ang^3
#
#
#
# Elastic Constant Matrix: (Units=GPa)
#
#
# Indices 1 2 3 4 5 6 
#
# 1 66.7222 -1.4394 12.6863 0.0000 0.0000 0.0000
# 2 -1.4394 63.2089 8.2391 0.0000 0.0000 0.0000
# 3 12.6863 8.2391 105.9136 0.0000 0.0000 0.0000
# 4 0.0000 0.0000 0.0000 15.4844 0.0000 0.0000
# 5 0.0000 0.0000 0.0000 0.0000 -0.8052 0.0000
# 6 0.0000 0.0000 0.0000 0.0000 0.0000 0.7773
#
#
#
# Elastic Compliance Matrix: (Units=1/GPa)
#
#
# Indices 1 2 3 4 5 6 
#
# 1 0.015359 0.000596 -0.001886 0.000000 0.000000 0.000000
# 2 0.000596 0.016006 -0.001316 0.000000 0.000000 0.000000
# 3 -0.001886 -0.001316 0.009770 0.000000 0.000000 0.000000
# 4 0.000000 0.000000 0.000000 0.064581 0.000000 0.000000
# 5 0.000000 0.000000 0.000000 0.000000 -1.241938 0.000000
# 6 0.000000 0.000000 0.000000 0.000000 0.000000 1.286509
#
#
# Mechanical properties :
#
#
# Convention : Reuss Voigt Hill
#
# Bulk Modulus (GPa) = 27.83893 30.53520 29.18706
# Shear Modulus (GPa) = 29.85547 17.51522 23.68534
#
# Velocity S-wave (km/s) = 3.80575 2.91499 3.38976
# Velocity P-wave (km/s) = 5.72863 5.11303 5.42956
#
# Compressibility (1/GPa) = 0.03592092
#
# Stress axis : x y z
#
# Youngs Moduli (GPa) = 65.10851 62.47770 102.35447
#
# Poissons Ratio (x) = -0.03721 0.19304
# Poissons Ratio (y) = -0.03878 0.13474
# Poissons Ratio (z) = 0.12280 0.08225
#
# Static dielectric constant tensor:
#      x y z
#    x 1.769830 0.000000 0.000000 
#    y 0.000000 1.819900 0.000000 
#    z 0.000000 0.000000 1.757290 
# 
# From -- ./inp_files/55096.got.cif
#   From: 2010.05.17/outbox.cif.g08.bks.cpg/sg65_28_cif.got.tgz:55096.got - 2010.06.03 17:01:31.
