data_PCOD9485722
_publ_section_title
;
Structure prediction by ZEFSAII (Michael W. Deem and Ramdas Pophale) SiO2 
 PCOD9485722
Probable space group: C M M M
;
_chemical_formula_sum "Si O2"
_cell_formula_units_Z 88
_cell_length_a 20.054583
_cell_length_b 8.948662
_cell_length_c 28.435084
_cell_angle_alpha 90.000000
_cell_angle_beta 90.000000
_cell_angle_gamma 90.000000
_cell_volume 5103.008083
_symmetry_space_group_name_H-M "C M M M"
_symmetry_group_IT_number 65
_symmetry_cell_setting 'orthorhombic'
loop_
_space_group_symop_operation_xyz
x,y,z
-x,-y,z
x,-y,-z
-x,y,-z
-x,-y,-z
x,y,-z
-x,y,z
x,-y,z
1/2+x,1/2+y,z
1/2-x,1/2-y,z
1/2+x,1/2-y,-z
1/2-x,1/2+y,-z
1/2-x,1/2-y,-z
1/2+x,1/2+y,-z
1/2-x,1/2+y,z
1/2+x,1/2-y,z
loop_
_atom_site_type_symbol
_atom_site_label
_atom_site_fract_x
_atom_site_fract_y
_atom_site_fract_z
Si Si1 0.575965 0.818293 0.417846
Si Si2 0.322072 0.321662 0.236264
Si Si3 0.921937 0.320560 0.946042
Si Si4 0.078092 0.678851 0.690045
Si Si5 0.176344 0.318535 0.500000
Si Si6 0.822168 0.821519 0.872074
O O1 0.500000 0.769915 0.429837
O O2 0.591076 0.774594 0.364085
O O3 0.632122 0.772060 0.454771
O O4 0.574486 0.000000 0.418722
O O5 0.317232 0.500000 0.239814
O O6 0.250000 0.250000 0.245791
O O7 0.375340 0.259742 0.272864
O O8 0.340114 0.283698 0.182111
O O9 0.914884 0.500000 0.941914
O O10 0.875613 0.241044 0.908460
O O11 0.000000 0.284906 0.938754
O O12 0.904765 0.279893 0.000000
O O13 0.088486 0.500000 0.692957
O O14 0.000000 0.707578 0.699384
O O15 0.181333 0.500000 0.500000
O O16 0.250000 0.250000 0.500000
O O17 0.750000 0.750000 0.881600
O O18 0.817487 0.000000 0.875789
#
# Coordination Sequence:
#
# PCOD9485722 Si02
#       6
#    16  16  16  16   8  16
#     4   8  15  30  52  74  95 126 169 208 241 287
#     4  10  21  36  53  74 102 135 171 210 253 301
#     4   9  19  36  56  78 105 136 169 206 250 300
#     4   9  18  33  53  77 103 131 167 209 252 302
#     4  10  19  31  49  73 101 130 162 204 250 294
#     4  10  21  36  54  76 102 134 172 212 252 298
#
# _framework density 17.244731000000002
#
# number of rings (size 3 to 8) (size 9 to 14) (size 15 to 20)
#    0.000    2.727    0.000    3.000    0.000    6.182 
#    0.000    7.273    0.000    2.182    0.000    0.000 
#    0.000    0.000    0.000    0.000    0.000    0.000 
#
# Total GULP energy -245392.062253 kJ/mol
# GULP energy per Si atom -5577.092324 kJ/mol
# Density = 1.720548 g / cm^3
# Si number density = 17.244731 Si / 1000 Ang^3
#
#
#
# Elastic Constant Matrix: (Units=GPa)
#
#
# Indices 1 2 3 4 5 6 
#
# 1 136.1404 57.7149 129.5249 0.0000 0.0000 0.0000
# 2 57.7149 36.3084 60.9877 0.0000 0.0000 0.0000
# 3 129.5249 60.9877 154.2945 0.0000 0.0000 0.0000
# 4 0.0000 0.0000 0.0000 23.4012 0.0000 0.0000
# 5 0.0000 0.0000 0.0000 0.0000 51.0004 0.0000
# 6 0.0000 0.0000 0.0000 0.0000 0.0000 35.7747
#
#
#
# Elastic Compliance Matrix: (Units=1/GPa)
#
#
# Indices 1 2 3 4 5 6 
#
# 1 0.041794 -0.022325 -0.026260 0.000000 0.000000 0.000000
# 2 -0.022325 0.093880 -0.018367 0.000000 0.000000 0.000000
# 3 -0.026260 -0.018367 0.035785 0.000000 0.000000 0.000000
# 4 0.000000 0.000000 0.000000 0.042733 0.000000 0.000000
# 5 0.000000 0.000000 0.000000 0.000000 0.019608 0.000000
# 6 0.000000 0.000000 0.000000 0.000000 0.000000 0.027953
#
#
# Mechanical properties :
#
#
# Convention : Reuss Voigt Hill
#
# Bulk Modulus (GPa) = 26.62732 91.46647 59.04689
# Shear Modulus (GPa) = 12.24971 27.26966 19.75968
#
# Velocity S-wave (km/s) = 2.66812 3.98091 3.38870
# Velocity P-wave (km/s) = 4.99662 8.61891 7.04456
#
# Compressibility (1/GPa) = 0.03755541
#
# Stress axis : x y z
#
# Youngs Moduli (GPa) = 23.92712 10.65195 27.94454
#
# Poissons Ratio (x) = 0.23780 0.73382
# Poissons Ratio (y) = 0.53417 0.51325
# Poissons Ratio (z) = 0.62832 0.19564
#
# Static dielectric constant tensor:
#      x y z
#    x 1.552810 0.000000 0.000000 
#    y 0.000000 1.577670 0.000000 
#    z 0.000000 0.000000 1.582360 
# 
# From -- ./inp_files/67459.got.cif
#   From: 2010.05.17/outbox.cif.g08.bks.cpg/sg65_34_cif.got.tgz:67459.got - 2010.06.03 17:01:31.
