data_PCOD9485638
_publ_section_title
;
Structure prediction by ZEFSAII (Michael W. Deem and Ramdas Pophale) SiO2 
 PCOD9485638
Probable space group: C M M M
;
_chemical_formula_sum "Si O2"
_cell_formula_units_Z 72
_cell_length_a 7.624684
_cell_length_b 27.051555
_cell_length_c 23.183238
_cell_angle_alpha 90.000000
_cell_angle_beta 90.000000
_cell_angle_gamma 90.000000
_cell_volume 4781.764436
_symmetry_space_group_name_H-M "C M M M"
_symmetry_group_IT_number 65
_symmetry_cell_setting 'orthorhombic'
loop_
_space_group_symop_operation_xyz
x,y,z
-x,-y,z
x,-y,-z
-x,y,-z
-x,-y,-z
x,y,-z
-x,y,z
x,-y,z
1/2+x,1/2+y,z
1/2-x,1/2-y,z
1/2+x,1/2-y,-z
1/2-x,1/2+y,-z
1/2-x,1/2-y,-z
1/2+x,1/2+y,-z
1/2-x,1/2+y,z
1/2+x,1/2-y,z
loop_
_atom_site_type_symbol
_atom_site_label
_atom_site_fract_x
_atom_site_fract_y
_atom_site_fract_z
Si Si1 0.795941 0.194872 0.348950
Si Si2 0.500000 0.055535 0.364889
Si Si3 0.795390 0.940749 0.155244
Si Si4 0.293251 0.404224 0.718128
Si Si5 0.500000 0.060071 0.065736
Si Si6 0.000000 0.344005 0.568132
O O1 0.750000 0.250000 0.328999
O O2 0.767332 0.152753 0.300672
O O3 0.668904 0.180793 0.401682
O O4 0.000000 0.192980 0.365723
O O5 0.668985 0.064730 0.324119
O O6 0.500000 0.098491 0.412670
O O7 0.500000 0.000000 0.387623
O O8 0.747994 0.915099 0.215648
O O9 0.669886 0.925577 0.103050
O O10 0.000000 0.931123 0.142899
O O11 0.775470 0.000000 0.163703
O O12 0.500000 0.416323 0.710602
O O13 0.500000 0.000000 0.063295
O O14 0.500000 0.078102 0.000000
O O15 0.000000 0.338242 0.500000
#
# Coordination Sequence:
#
# PCOD9485638 Si02
#       6
#    16   8  16  16   8   8
#     4  10  19  34  51  70  94 119 145 185 238 279
#     4  10  19  31  49  69  91 121 154 188 230 271
#     4   9  16  26  41  62  87 117 151 183 218 261
#     4   9  18  30  47  69  94 120 148 189 230 281
#     4   9  17  27  38  56  87 125 159 187 214 249
#     4  10  22  36  49  69  93 121 158 188 221 272
#
# _framework density 15.057202999999999
#
# number of rings (size 3 to 8) (size 9 to 14) (size 15 to 20)
#    0.000    2.556    1.111    1.333    0.000    3.778 
#    0.000    2.222    0.000    0.000    0.000    6.222 
#    0.000    0.889    0.444    0.000    0.000    0.000 
#
# Total GULP energy -200631.951050 kJ/mol
# GULP energy per Si atom -5573.109751 kJ/mol
# Density = 1.502293 g / cm^3
# Si number density = 15.057203 Si / 1000 Ang^3
#
#
#
# Elastic Constant Matrix: (Units=GPa)
#
#
# Indices 1 2 3 4 5 6 
#
# 1 78.3069 24.7822 50.0650 0.0000 0.0000 0.0000
# 2 24.7822 62.7126 15.5592 0.0000 0.0000 0.0000
# 3 50.0650 15.5592 101.1130 0.0000 0.0000 0.0000
# 4 0.0000 0.0000 0.0000 9.5935 0.0000 0.0000
# 5 0.0000 0.0000 0.0000 0.0000 13.9613 0.0000
# 6 0.0000 0.0000 0.0000 0.0000 0.0000 12.2308
#
#
#
# Elastic Compliance Matrix: (Units=1/GPa)
#
#
# Indices 1 2 3 4 5 6 
#
# 1 0.020541 -0.005816 -0.009276 0.000000 0.000000 0.000000
# 2 -0.005816 0.018225 0.000075 0.000000 0.000000 0.000000
# 3 -0.009276 0.000075 0.014471 0.000000 0.000000 0.000000
# 4 0.000000 0.000000 0.000000 0.104237 0.000000 0.000000
# 5 0.000000 0.000000 0.000000 0.000000 0.071626 0.000000
# 6 0.000000 0.000000 0.000000 0.000000 0.000000 0.081761
#
#
# Mechanical properties :
#
#
# Convention : Reuss Voigt Hill
#
# Bulk Modulus (GPa) = 43.09477 46.99393 45.04435
# Shear Modulus (GPa) = 14.34184 17.27220 15.80702
#
# Velocity S-wave (km/s) = 3.08959 3.39057 3.24357
# Velocity P-wave (km/s) = 6.43508 6.82686 6.63386
#
# Compressibility (1/GPa) = 0.02320467
#
# Stress axis : x y z
#
# Youngs Moduli (GPa) = 48.68236 54.86844 69.10288
#
# Poissons Ratio (x) = 0.31911 0.64099
# Poissons Ratio (y) = 0.28314 -0.00520
# Poissons Ratio (z) = 0.45157 -0.00413
#
# Static dielectric constant tensor:
#      x y z
#    x 1.524660 0.000000 0.000000 
#    y 0.000000 1.492260 0.000000 
#    z 0.000000 0.000000 1.466810 
# 
# From -- ./inp_files/49786.got.cif
#   From: 2010.05.17/outbox.cif.g08.bks.cpg/sg65_25_cif.got.tgz:49786.got - 2010.06.03 17:01:31.
