data_PCOD9485678
_publ_section_title
;
Structure prediction by ZEFSAII (Michael W. Deem and Ramdas Pophale) SiO2 
 PCOD9485678
Probable space group: C M M M
;
_chemical_formula_sum "Si O2"
_cell_formula_units_Z 104
_cell_length_a 29.626411
_cell_length_b 7.817066
_cell_length_c 25.849535
_cell_angle_alpha 90.000000
_cell_angle_beta 90.000000
_cell_angle_gamma 90.000000
_cell_volume 5986.535432
_symmetry_space_group_name_H-M "C M M M"
_symmetry_group_IT_number 65
_symmetry_cell_setting 'orthorhombic'
loop_
_space_group_symop_operation_xyz
x,y,z
-x,-y,z
x,-y,-z
-x,y,-z
-x,-y,-z
x,y,-z
-x,y,z
x,-y,z
1/2+x,1/2+y,z
1/2-x,1/2-y,z
1/2+x,1/2-y,-z
1/2-x,1/2+y,-z
1/2-x,1/2-y,-z
1/2+x,1/2+y,-z
1/2-x,1/2+y,z
1/2+x,1/2-y,z
loop_
_atom_site_type_symbol
_atom_site_label
_atom_site_fract_x
_atom_site_fract_y
_atom_site_fract_z
Si Si1 0.554672 0.500000 0.558858
Si Si2 0.799722 0.205599 0.104469
Si Si3 0.395785 0.203287 0.258623
Si Si4 0.051282 0.705896 0.841836
Si Si5 0.107196 0.206423 0.942899
Si Si6 0.799792 0.796634 0.223051
Si Si7 0.945858 0.297552 0.362544
O O1 0.500000 0.500000 0.556652
O O2 0.571614 0.500000 0.500000
O O3 0.566941 0.670725 0.590847
O O4 0.750000 0.250000 0.084450
O O5 0.842376 0.267604 0.071892
O O6 0.803353 0.271482 0.163777
O O7 0.802406 0.000000 0.106356
O O8 0.418949 0.273008 0.206217
O O9 0.342490 0.234823 0.255356
O O10 0.420029 0.262403 0.310839
O O11 0.403086 0.000000 0.258165
O O12 0.049930 0.500000 0.837715
O O13 0.074230 0.746483 0.896365
O O14 0.000000 0.769795 0.838977
O O15 0.108533 0.000000 0.944580
O O16 0.093959 0.268218 0.000000
O O17 0.750000 0.750000 0.242641
O O18 0.802629 0.000000 0.220309
O O19 0.936355 0.500000 0.372330
O O20 0.000000 0.284112 0.354111
#
# Coordination Sequence:
#
# PCOD9485678 Si02
#       7
#     8  16  16  16  16  16  16
#     4   9  18  32  50  76 112 152 193 229 259 301
#     4   9  18  32  49  70  93 118 153 194 245 305
#     4  10  19  32  52  75 102 134 167 210 259 309
#     4  10  21  36  53  72  94 123 162 206 254 306
#     4  10  21  37  52  68  93 122 157 202 251 305
#     4  10  19  31  49  72 100 131 162 199 251 310
#     4   9  18  32  50  76 111 149 185 224 268 308
#
# _framework density 17.372319000000001
#
# number of rings (size 3 to 8) (size 9 to 14) (size 15 to 20)
#    0.000    2.385    1.538    0.923    1.077    4.615 
#    0.000    3.077    0.000    0.000    0.000    0.000 
#    0.000    0.615    0.308    0.000    0.000    0.000 
#
# Total GULP energy -290019.652846 kJ/mol
# GULP energy per Si atom -5577.301016 kJ/mol
# Density = 1.733278 g / cm^3
# Si number density = 17.372319 Si / 1000 Ang^3
#
#
#
# Elastic Constant Matrix: (Units=GPa)
#
#
# Indices 1 2 3 4 5 6 
#
# 1 97.1962 12.5109 64.0160 0.0000 0.0000 0.0000
# 2 12.5109 38.8340 35.7337 0.0000 0.0000 0.0000
# 3 64.0160 35.7337 136.1829 0.0000 0.0000 0.0000
# 4 0.0000 0.0000 0.0000 20.5221 0.0000 0.0000
# 5 0.0000 0.0000 0.0000 0.0000 21.3328 0.0000
# 6 0.0000 0.0000 0.0000 0.0000 0.0000 20.7242
#
#
#
# Elastic Compliance Matrix: (Units=1/GPa)
#
#
# Indices 1 2 3 4 5 6 
#
# 1 0.015042 0.002189 -0.007645 0.000000 0.000000 0.000000
# 2 0.002189 0.034266 -0.010020 0.000000 0.000000 0.000000
# 3 -0.007645 -0.010020 0.013566 0.000000 0.000000 0.000000
# 4 0.000000 0.000000 0.000000 0.048728 0.000000 0.000000
# 5 0.000000 0.000000 0.000000 0.000000 0.046876 0.000000
# 6 0.000000 0.000000 0.000000 0.000000 0.000000 0.048253
#
#
# Mechanical properties :
#
#
# Convention : Reuss Voigt Hill
#
# Bulk Modulus (GPa) = 31.32741 55.19270 43.26005
# Shear Modulus (GPa) = 20.13500 23.17932 21.65716
#
# Velocity S-wave (km/s) = 3.40814 3.65673 3.53462
# Velocity P-wave (km/s) = 5.79304 7.04757 6.45088
#
# Compressibility (1/GPa) = 0.03192093
#
# Stress axis : x y z
#
# Youngs Moduli (GPa) = 66.48024 29.18378 73.71313
#
# Poissons Ratio (x) = -0.06388 0.56355
# Poissons Ratio (y) = -0.14552 0.73861
# Poissons Ratio (z) = 0.50826 0.29242
#
# Static dielectric constant tensor:
#      x y z
#    x 1.562680 0.000000 0.000000 
#    y 0.000000 1.602540 0.000000 
#    z 0.000000 0.000000 1.587200 
# 
# From -- ./inp_files/72104.got.cif
#   From: 2010.05.17/outbox.cif.g08.bks.cpg/sg65_37_cif.got.tgz:72104.got - 2010.06.03 17:01:31.
