data_PCOD9485912
_publ_section_title
;
Structure prediction by ZEFSAII (Michael W. Deem and Ramdas Pophale) SiO2 
 PCOD9485912
Probable space group: C M M M
;
_chemical_formula_sum "Si O2"
_cell_formula_units_Z 88
_cell_length_a 17.092982
_cell_length_b 29.629725
_cell_length_c 9.265373
_cell_angle_alpha 90.000000
_cell_angle_beta 90.000000
_cell_angle_gamma 90.000000
_cell_volume 4692.544109
_symmetry_space_group_name_H-M "C M M M"
_symmetry_group_IT_number 65
_symmetry_cell_setting 'orthorhombic'
loop_
_space_group_symop_operation_xyz
x,y,z
-x,-y,z
x,-y,-z
-x,y,-z
-x,-y,-z
x,y,-z
-x,y,z
x,-y,z
1/2+x,1/2+y,z
1/2-x,1/2-y,z
1/2+x,1/2-y,-z
1/2-x,1/2+y,-z
1/2-x,1/2-y,-z
1/2+x,1/2+y,-z
1/2-x,1/2+y,z
1/2+x,1/2-y,z
loop_
_atom_site_type_symbol
_atom_site_label
_atom_site_fract_x
_atom_site_fract_y
_atom_site_fract_z
Si Si1 0.595325 0.290584 0.665568
Si Si2 0.594105 0.380092 0.833920
Si Si3 0.000000 0.551313 0.675220
Si Si4 0.696158 0.447475 0.671215
Si Si5 0.648976 0.889001 0.672672
Si Si6 0.906175 0.698884 0.828315
O O1 0.622128 0.288834 0.500000
O O2 0.500000 0.291501 0.664152
O O3 0.621383 0.336409 0.743528
O O4 0.617202 0.245957 0.753816
O O5 0.500000 0.380463 0.830362
O O6 0.627354 0.424975 0.761771
O O7 0.618986 0.376169 0.000000
O O8 0.076642 0.579043 0.716679
O O9 0.000000 0.500000 0.728801
O O10 0.000000 0.549214 0.500000
O O11 0.679137 0.444590 0.500000
O O12 0.709701 0.500000 0.705709
O O13 0.772505 0.417067 0.699192
O O14 0.643135 0.880360 0.500000
O O15 0.639977 0.842474 0.757595
O O16 0.000000 0.692266 0.801329
O O17 0.895117 0.701044 0.000000
#
# Coordination Sequence:
#
# PCOD9485912 Si02
#       6
#    16  16   8  16  16  16
#     4   9  17  31  55  84 112 143 181 225 275 328
#     4  10  21  38  60  85 112 143 181 224 276 340
#     4   9  16  28  51  79 105 139 187 237 276 315
#     4  10  22  39  58  82 112 145 184 233 285 330
#     4  10  19  33  54  80 110 146 190 234 276 324
#     4  10  19  31  50  79 116 153 188 226 271 324
#
# _framework density 18.753153000000001
#
# number of rings (size 3 to 8) (size 9 to 14) (size 15 to 20)
#    0.000    2.273    0.909    2.182    0.000    7.636 
#    0.000    2.727    0.000    7.636    0.000    0.000 
#    0.000    0.000    0.000    0.000    0.000    0.000 
#
# Total GULP energy -245642.137728 kJ/mol
# GULP energy per Si atom -5582.775857 kJ/mol
# Density = 1.871047 g / cm^3
# Si number density = 18.753153 Si / 1000 Ang^3
#
#
#
# Elastic Constant Matrix: (Units=GPa)
#
#
# Indices 1 2 3 4 5 6 
#
# 1 16.0118 33.0924 34.6723 0.0000 0.0000 0.0000
# 2 33.0924 130.7588 79.6245 0.0000 0.0000 0.0000
# 3 34.6723 79.6245 93.8863 0.0000 0.0000 0.0000
# 4 0.0000 0.0000 0.0000 -20.9677 0.0000 0.0000
# 5 0.0000 0.0000 0.0000 0.0000 14.0053 0.0000
# 6 0.0000 0.0000 0.0000 0.0000 0.0000 36.0476
#
#
#
# Elastic Compliance Matrix: (Units=1/GPa)
#
#
# Indices 1 2 3 4 5 6 
#
# 1 0.334197 -0.019487 -0.106892 0.000000 0.000000 0.000000
# 2 -0.019487 0.016952 -0.007180 0.000000 0.000000 0.000000
# 3 -0.106892 -0.007180 0.056216 0.000000 0.000000 0.000000
# 4 0.000000 0.000000 0.000000 -0.047692 0.000000 0.000000
# 5 0.000000 0.000000 0.000000 0.000000 0.071402 0.000000
# 6 0.000000 0.000000 0.000000 0.000000 0.000000 0.027741
#
#
# Mechanical properties :
#
#
# Convention : Reuss Voigt Hill
#
# Bulk Modulus (GPa) = 7.13036 59.49283 33.31159
# Shear Modulus (GPa) = 6.47096 12.03486 9.25291
#
# Velocity S-wave (km/s) = 1.85959 2.53603 2.22368
# Velocity P-wave (km/s) = 2.90194 6.35361 4.93911
#
# Compressibility (1/GPa) = 0.14024533
#
# Stress axis : x y z
#
# Youngs Moduli (GPa) = 2.99225 58.99116 17.78853
#
# Poissons Ratio (x) = 1.14958 1.90146
# Poissons Ratio (y) = 0.05831 0.12772
# Poissons Ratio (z) = 0.31985 0.42355
#
# Static dielectric constant tensor:
#      x y z
#    x 1.658670 0.000000 0.000000 
#    y 0.000000 1.619970 0.000000 
#    z 0.000000 0.000000 1.626370 
# 
# From -- ./inp_files/10009.got.cif
#   From: 2010.05.17/outbox.cif.g08.bks.cpg/sg65_6_cif.got.tgz:10009.got - 2010.06.03 17:01:31.
