data_PCOD9485066
_publ_section_title
;
Structure prediction by ZEFSAII (Michael W. Deem and Ramdas Pophale) SiO2 
 PCOD9485066
Probable space group: C M M M
;
_chemical_formula_sum "Si O2"
_cell_formula_units_Z 56
_cell_length_a 17.222620
_cell_length_b 8.664355
_cell_length_c 18.785472
_cell_angle_alpha 90.000000
_cell_angle_beta 90.000000
_cell_angle_gamma 90.000000
_cell_volume 2803.222492
_symmetry_space_group_name_H-M "C M M M"
_symmetry_group_IT_number 65
_symmetry_cell_setting 'orthorhombic'
loop_
_space_group_symop_operation_xyz
x,y,z
-x,-y,z
x,-y,-z
-x,y,-z
-x,-y,-z
x,y,-z
-x,y,z
x,-y,z
1/2+x,1/2+y,z
1/2-x,1/2-y,z
1/2+x,1/2-y,-z
1/2-x,1/2+y,-z
1/2-x,1/2-y,-z
1/2+x,1/2+y,-z
1/2-x,1/2+y,z
1/2+x,1/2-y,z
loop_
_atom_site_type_symbol
_atom_site_label
_atom_site_fract_x
_atom_site_fract_y
_atom_site_fract_z
Si Si1 0.905062 0.000000 0.657559
Si Si2 0.780093 0.500000 0.079417
Si Si3 0.366171 0.500000 0.820379
Si Si4 0.415648 0.244533 0.920916
Si Si5 0.905850 0.673658 0.583644
O O1 0.869708 0.000000 0.736379
O O2 0.881821 0.163805 0.620341
O O3 0.000000 0.000000 0.661097
O O4 0.718083 0.500000 0.141877
O O5 0.839357 0.358456 0.083114
O O6 0.744139 0.500000 0.000000
O O7 0.409827 0.356058 0.854682
O O8 0.500000 0.166098 0.917787
O O9 0.413543 0.318048 0.000000
O O10 0.885408 0.682584 0.500000
O O11 0.880309 0.500000 0.609561
O O12 0.000000 0.672095 0.588257
#
# Coordination Sequence:
#
# PCOD9485066 Si02
#       5
#     8   8   8  16  16
#     4  10  19  30  45  74 118 158 192 234 289 348
#     4  10  21  38  59  80 106 146 194 244 293 342
#     4  12  22  33  50  80 118 154 186 225 288 356
#     4  10  20  36  58  81 105 141 193 245 290 341
#     4   8  14  27  49  75 105 147 196 241 285 336
#
# _framework density 19.977008999999999
#
# number of rings (size 3 to 8) (size 9 to 14) (size 15 to 20)
#    0.000    2.286    0.000    5.143    0.000    6.857 
#    2.571    0.000    0.000    0.000    0.000    0.000 
#    0.000   18.286    0.000    2.286    0.000    3.429 
#
# Total GULP energy -155869.328113 kJ/mol
# GULP energy per Si atom -5566.761718 kJ/mol
# Density = 1.993154 g / cm^3
# Si number density = 19.977009 Si / 1000 Ang^3
#
#
#
# Elastic Constant Matrix: (Units=GPa)
#
#
# Indices 1 2 3 4 5 6 
#
# 1 91.2404 30.0174 25.8508 0.0000 0.0000 0.0000
# 2 30.0174 168.0432 90.9515 0.0000 0.0000 0.0000
# 3 25.8508 90.9515 130.8517 0.0000 0.0000 0.0000
# 4 0.0000 0.0000 0.0000 28.6911 0.0000 0.0000
# 5 0.0000 0.0000 0.0000 0.0000 54.9598 0.0000
# 6 0.0000 0.0000 0.0000 0.0000 0.0000 21.4322
#
#
#
# Elastic Compliance Matrix: (Units=1/GPa)
#
#
# Indices 1 2 3 4 5 6 
#
# 1 0.011800 -0.001356 -0.001388 0.000000 0.000000 0.000000
# 2 -0.001356 0.009696 -0.006471 0.000000 0.000000 0.000000
# 3 -0.001388 -0.006471 0.012414 0.000000 0.000000 0.000000
# 4 0.000000 0.000000 0.000000 0.034854 0.000000 0.000000
# 5 0.000000 0.000000 0.000000 0.000000 0.018195 0.000000
# 6 0.000000 0.000000 0.000000 0.000000 0.000000 0.046659
#
#
# Mechanical properties :
#
#
# Convention : Reuss Voigt Hill
#
# Bulk Modulus (GPa) = 64.60810 75.97498 70.29154
# Shear Modulus (GPa) = 31.80487 37.23765 34.52126
#
# Velocity S-wave (km/s) = 3.99441 4.32212 4.16149
# Velocity P-wave (km/s) = 7.32702 7.93860 7.63893
#
# Compressibility (1/GPa) = 0.01547794
#
# Stress axis : x y z
#
# Youngs Moduli (GPa) = 84.74833 103.13968 80.55114
#
# Poissons Ratio (x) = 0.13989 0.11184
# Poissons Ratio (y) = 0.11495 0.52126
# Poissons Ratio (z) = 0.11766 0.66744
#
# Static dielectric constant tensor:
#      x y z
#    x 1.707740 0.000000 0.000000 
#    y 0.000000 1.830240 0.000000 
#    z 0.000000 0.000000 1.654830 
# 
# From -- ./inp_files/48807.got.cif
#   From: 2010.05.17/outbox.cif.g08.bks.cpg/sg65_25_cif.got.tgz:48807.got - 2010.06.03 17:01:31.
