data_PCOD9485128
_publ_section_title
;
Structure prediction by ZEFSAII (Michael W. Deem and Ramdas Pophale) SiO2 
 PCOD9485128
Probable space group: C M M M
;
_chemical_formula_sum "Si O2"
_cell_formula_units_Z 88
_cell_length_a 9.152994
_cell_length_b 27.259263
_cell_length_c 21.614045
_cell_angle_alpha 90.000000
_cell_angle_beta 90.000000
_cell_angle_gamma 90.000000
_cell_volume 5392.787889
_symmetry_space_group_name_H-M "C M M M"
_symmetry_group_IT_number 65
_symmetry_cell_setting 'orthorhombic'
loop_
_space_group_symop_operation_xyz
x,y,z
-x,-y,z
x,-y,-z
-x,y,-z
-x,-y,-z
x,y,-z
-x,y,z
x,-y,z
1/2+x,1/2+y,z
1/2-x,1/2-y,z
1/2+x,1/2-y,-z
1/2-x,1/2+y,-z
1/2-x,1/2-y,-z
1/2+x,1/2+y,-z
1/2-x,1/2+y,z
1/2+x,1/2-y,z
loop_
_atom_site_type_symbol
_atom_site_label
_atom_site_fract_x
_atom_site_fract_y
_atom_site_fract_z
Si Si1 0.826611 0.403005 0.748877
Si Si2 0.824954 0.843087 0.929785
Si Si3 0.331557 0.940381 0.500000
Si Si4 0.327883 0.559114 0.626444
Si Si5 0.327106 0.798930 0.811312
Si Si6 0.825955 0.054702 0.131566
O O1 0.748773 0.416760 0.685317
O O2 0.801787 0.346424 0.768402
O O3 0.759203 0.434577 0.805033
O O4 0.000000 0.411517 0.744538
O O5 0.741696 0.812280 0.877975
O O6 0.794318 0.900511 0.914784
O O7 0.000000 0.835969 0.923296
O O8 0.783212 0.831261 0.000000
O O9 0.500000 0.924300 0.500000
O O10 0.248468 0.925357 0.562395
O O11 0.331210 0.000000 0.500000
O O12 0.500000 0.570057 0.625064
O O13 0.312029 0.500000 0.631902
O O14 0.500000 0.791528 0.817261
O O15 0.250000 0.750000 0.787605
O O16 0.000000 0.056700 0.144446
O O17 0.792066 0.000000 0.108297
#
# Coordination Sequence:
#
# PCOD9485128 Si02
#       6
#    16  16   8  16  16  16
#     4  10  20  32  47  69  94 121 156 195 235 280
#     4   9  18  32  49  69  93 121 153 189 231 281
#     4   9  17  29  45  67  98 135 170 201 231 263
#     4  10  19  30  46  70 101 135 167 196 227 266
#     4  10  21  36  53  71  91 116 149 193 242 289
#     4   9  17  29  45  66  93 124 157 192 229 271
#
# _framework density 16.318090000000002
#
# number of rings (size 3 to 8) (size 9 to 14) (size 15 to 20)
#    0.000    2.455    0.000    2.455    0.000    8.000 
#    0.000    1.818    0.000    0.000    0.000    5.727 
#    0.000    0.000    0.000    0.000    0.000    0.000 
#
# Total GULP energy -245452.684021 kJ/mol
# GULP energy per Si atom -5578.470091 kJ/mol
# Density = 1.628095 g / cm^3
# Si number density = 16.318090 Si / 1000 Ang^3
#
#
#
# Elastic Constant Matrix: (Units=GPa)
#
#
# Indices 1 2 3 4 5 6 
#
# 1 67.6365 25.3788 44.0514 0.0000 0.0000 0.0000
# 2 25.3788 41.5185 -4.4916 0.0000 0.0000 0.0000
# 3 44.0514 -4.4916 88.5881 0.0000 0.0000 0.0000
# 4 0.0000 0.0000 0.0000 7.2513 0.0000 0.0000
# 5 0.0000 0.0000 0.0000 0.0000 20.5936 0.0000
# 6 0.0000 0.0000 0.0000 0.0000 0.0000 23.2691
#
#
#
# Elastic Compliance Matrix: (Units=1/GPa)
#
#
# Indices 1 2 3 4 5 6 
#
# 1 0.036675 -0.024526 -0.019481 0.000000 0.000000 0.000000
# 2 -0.024526 0.040620 0.014255 0.000000 0.000000 0.000000
# 3 -0.019481 0.014255 0.021698 0.000000 0.000000 0.000000
# 4 0.000000 0.000000 0.000000 0.137906 0.000000 0.000000
# 5 0.000000 0.000000 0.000000 0.000000 0.048559 0.000000
# 6 0.000000 0.000000 0.000000 0.000000 0.000000 0.042976
#
#
# Mechanical properties :
#
#
# Convention : Reuss Voigt Hill
#
# Bulk Modulus (GPa) = 25.32269 36.40227 30.86248
# Shear Modulus (GPa) = 12.46575 19.07644 15.77110
#
# Velocity S-wave (km/s) = 2.76691 3.42283 3.11220
# Velocity P-wave (km/s) = 5.07539 6.16258 5.64522
#
# Compressibility (1/GPa) = 0.03949027
#
# Stress axis : x y z
#
# Youngs Moduli (GPa) = 27.26632 24.61866 46.08730
#
# Poissons Ratio (x) = 0.60379 0.89781
# Poissons Ratio (y) = 0.66873 -0.65699
# Poissons Ratio (z) = 0.53117 -0.35094
#
# Static dielectric constant tensor:
#      x y z
#    x 1.541390 0.000000 0.000000 
#    y 0.000000 1.551710 0.000000 
#    z 0.000000 0.000000 1.517680 
# 
# From -- ./inp_files/60149.got.cif
#   From: 2010.05.17/outbox.cif.g08.bks.cpg/sg65_31_cif.got.tgz:60149.got - 2010.06.03 17:01:31.
