data_PCOD9485442
_publ_section_title
;
Structure prediction by ZEFSAII (Michael W. Deem and Ramdas Pophale) SiO2 
 PCOD9485442
Probable space group: C M M M
;
_chemical_formula_sum "Si O2"
_cell_formula_units_Z 72
_cell_length_a 19.068117
_cell_length_b 7.586139
_cell_length_c 24.746739
_cell_angle_alpha 90.000000
_cell_angle_beta 90.000000
_cell_angle_gamma 90.000000
_cell_volume 3579.699590
_symmetry_space_group_name_H-M "C M M M"
_symmetry_group_IT_number 65
_symmetry_cell_setting 'orthorhombic'
loop_
_space_group_symop_operation_xyz
x,y,z
-x,-y,z
x,-y,-z
-x,y,-z
-x,-y,-z
x,y,-z
-x,y,z
x,-y,z
1/2+x,1/2+y,z
1/2-x,1/2-y,z
1/2+x,1/2-y,-z
1/2-x,1/2+y,-z
1/2-x,1/2-y,-z
1/2+x,1/2+y,-z
1/2-x,1/2+y,z
1/2+x,1/2-y,z
loop_
_atom_site_type_symbol
_atom_site_label
_atom_site_fract_x
_atom_site_fract_y
_atom_site_fract_z
Si Si1 0.167795 0.288279 0.500000
Si Si2 0.167886 0.788163 0.940208
Si Si3 0.081020 0.711537 0.721781
Si Si4 0.920156 0.789582 0.839057
Si Si5 0.917943 0.284758 0.396297
O O1 0.159731 0.500000 0.500000
O O2 0.250000 0.250000 0.500000
O O3 0.128830 0.222226 0.553941
O O4 0.250000 0.750000 0.933083
O O5 0.123835 0.719395 0.889528
O O6 0.159897 0.000000 0.941148
O O7 0.146803 0.722201 0.000000
O O8 0.079875 0.500000 0.720104
O O9 0.112638 0.759795 0.779658
O O10 0.108497 0.771665 0.663328
O O11 0.000000 0.774618 0.723609
O O12 0.000000 0.718834 0.839337
O O13 0.924617 0.000000 0.845300
O O14 0.917081 0.500000 0.396881
O O15 0.000000 0.234608 0.402338
#
# Coordination Sequence:
#
# PCOD9485442 Si02
#       5
#     8  16  16  16  16
#     4  10  19  31  47  67  93 120 146 182 226 266
#     4   9  18  32  48  65  87 117 151 185 220 259
#     4   8  14  26  45  68  91 114 144 183 222 258
#     4   9  17  29  46  69  94 117 143 178 222 268
#     4   8  14  27  49  71  86 110 153 192 216 250
#
# _framework density 20.113420000000001
#
# number of rings (size 3 to 8) (size 9 to 14) (size 15 to 20)
#    0.000    3.333    0.000    1.667    0.000    2.667 
#    0.000    4.444    0.000    8.000    0.000    6.222 
#    0.000    0.000    0.000    0.000    0.000    0.000 
#
# Total GULP energy -200504.095817 kJ/mol
# GULP energy per Si atom -5569.558217 kJ/mol
# Density = 2.006764 g / cm^3
# Si number density = 20.113420 Si / 1000 Ang^3
#
#
#
# Elastic Constant Matrix: (Units=GPa)
#
#
# Indices 1 2 3 4 5 6 
#
# 1 64.1275 -0.0675 97.4160 0.0000 0.0000 0.0000
# 2 -0.0675 42.7971 9.8498 0.0000 0.0000 0.0000
# 3 97.4160 9.8498 269.3843 0.0000 0.0000 0.0000
# 4 0.0000 0.0000 0.0000 22.2184 0.0000 0.0000
# 5 0.0000 0.0000 0.0000 0.0000 -60.4506 0.0000
# 6 0.0000 0.0000 0.0000 0.0000 0.0000 14.8618
#
#
#
# Elastic Compliance Matrix: (Units=1/GPa)
#
#
# Indices 1 2 3 4 5 6 
#
# 1 0.034978 0.002992 -0.012758 0.000000 0.000000 0.000000
# 2 0.002992 0.023820 -0.001953 0.000000 0.000000 0.000000
# 3 -0.012758 -0.001953 0.008397 0.000000 0.000000 0.000000
# 4 0.000000 0.000000 0.000000 0.045008 0.000000 0.000000
# 5 0.000000 0.000000 0.000000 0.000000 -0.016542 0.000000
# 6 0.000000 0.000000 0.000000 0.000000 0.000000 0.067287
#
#
# Mechanical properties :
#
#
# Convention : Reuss Voigt Hill
#
# Bulk Modulus (GPa) = 22.85371 65.63394 44.24382
# Shear Modulus (GPa) = 24.87896 13.26662 19.07279
#
# Velocity S-wave (km/s) = 3.52082 2.57104 3.08273
# Velocity P-wave (km/s) = 5.28350 6.44332 5.89202
#
# Compressibility (1/GPa) = 0.04375658
#
# Stress axis : x y z
#
# Youngs Moduli (GPa) = 28.58906 41.98115 119.08538
#
# Poissons Ratio (x) = -0.12559 1.51934
# Poissons Ratio (y) = -0.08552 0.23255
# Poissons Ratio (z) = 0.36475 0.08198
#
# Static dielectric constant tensor:
#      x y z
#    x 1.666700 0.000000 0.000000 
#    y 0.000000 1.768220 0.000000 
#    z 0.000000 0.000000 1.767740 
# 
# From -- ./inp_files/54094.got.cif
#   From: 2010.05.17/outbox.cif.g08.bks.cpg/sg65_28_cif.got.tgz:54094.got - 2010.06.03 17:01:31.
