data_PCOD9485637
_publ_section_title
;
Structure prediction by ZEFSAII (Michael W. Deem and Ramdas Pophale) SiO2 
 PCOD9485637
Probable space group: C M M M
;
_chemical_formula_sum "Si O2"
_cell_formula_units_Z 104
_cell_length_a 29.754516
_cell_length_b 8.982073
_cell_length_c 24.859129
_cell_angle_alpha 90.000000
_cell_angle_beta 90.000000
_cell_angle_gamma 90.000000
_cell_volume 6643.782076
_symmetry_space_group_name_H-M "C M M M"
_symmetry_group_IT_number 65
_symmetry_cell_setting 'orthorhombic'
loop_
_space_group_symop_operation_xyz
x,y,z
-x,-y,z
x,-y,-z
-x,y,-z
-x,-y,-z
x,y,-z
-x,y,z
x,-y,z
1/2+x,1/2+y,z
1/2-x,1/2-y,z
1/2+x,1/2-y,-z
1/2-x,1/2+y,-z
1/2-x,1/2-y,-z
1/2+x,1/2+y,-z
1/2-x,1/2+y,z
1/2+x,1/2-y,z
loop_
_atom_site_type_symbol
_atom_site_label
_atom_site_fract_x
_atom_site_fract_y
_atom_site_fract_z
Si Si1 0.702244 0.819203 0.380310
Si Si2 0.554377 0.169949 0.890404
Si Si3 0.615952 0.826234 0.688406
Si Si4 0.445155 0.672221 0.000000
Si Si5 0.080594 0.165497 0.500000
Si Si6 0.327653 0.176453 0.500000
Si Si7 0.552608 0.678290 0.222768
Si Si8 0.550509 0.667702 0.382540
O O1 0.750000 0.750000 0.365614
O O2 0.663702 0.776054 0.336932
O O3 0.691060 0.768494 0.442074
O O4 0.703698 0.000000 0.380694
O O5 0.500000 0.165382 0.893773
O O6 0.570015 0.246121 0.945608
O O7 0.564198 0.262746 0.836804
O O8 0.570365 0.000000 0.885805
O O9 0.589925 0.741624 0.736331
O O10 0.581987 0.795269 0.639447
O O11 0.619215 0.000000 0.701947
O O12 0.431698 0.500000 0.000000
O O13 0.500000 0.675188 0.000000
O O14 0.119929 0.284500 0.500000
O O15 0.051791 0.174842 0.446536
O O16 0.102413 0.000000 0.500000
O O17 0.320417 0.000000 0.500000
O O18 0.500000 0.724917 0.234008
O O19 0.553160 0.500000 0.224338
O O20 0.500000 0.682276 0.362258
O O21 0.566584 0.500000 0.367112
#
# Coordination Sequence:
#
# PCOD9485637 Si02
#       8
#    16  16  16   8   8   8  16  16
#     4  10  22  37  55  74  93 115 143 183 232 287
#     4   9  16  26  41  62  89 123 164 206 243 277
#     4  11  22  35  50  69  92 118 150 189 231 277
#     4   9  15  23  37  59  89 125 164 205 244 279
#     4  10  19  31  49  69  89 117 148 180 220 267
#     4  10  19  36  54  72  96 115 138 180 230 283
#     4  10  20  33  48  67  93 127 165 201 235 274
#     4  10  20  33  48  67  91 119 151 185 221 265
#
# _framework density 15.653734
#
# number of rings (size 3 to 8) (size 9 to 14) (size 15 to 20)
#    0.000    2.077    1.538    2.538    0.000    8.615 
#    0.000    0.000    0.000    1.385    0.000    0.000 
#    0.000    0.000    0.000    0.692    0.000    9.462 
#
# Total GULP energy -289656.004893 kJ/mol
# GULP energy per Si atom -5570.307786 kJ/mol
# Density = 1.561811 g / cm^3
# Si number density = 15.653734 Si / 1000 Ang^3
#
#
#
# Elastic Constant Matrix: (Units=GPa)
#
#
# Indices 1 2 3 4 5 6 
#
# 1 78.8758 26.9001 41.1048 0.0000 0.0000 0.0000
# 2 26.9001 43.7591 41.0546 0.0000 0.0000 0.0000
# 3 41.1048 41.0546 124.7531 0.0000 0.0000 0.0000
# 4 0.0000 0.0000 0.0000 26.5907 0.0000 0.0000
# 5 0.0000 0.0000 0.0000 0.0000 8.5725 0.0000
# 6 0.0000 0.0000 0.0000 0.0000 0.0000 16.7548
#
#
#
# Elastic Compliance Matrix: (Units=1/GPa)
#
#
# Indices 1 2 3 4 5 6 
#
# 1 0.016829 -0.007440 -0.003097 0.000000 0.000000 0.000000
# 2 -0.007440 0.036349 -0.009510 0.000000 0.000000 0.000000
# 3 -0.003097 -0.009510 0.012166 0.000000 0.000000 0.000000
# 4 0.000000 0.000000 0.000000 0.037607 0.000000 0.000000
# 5 0.000000 0.000000 0.000000 0.000000 0.116653 0.000000
# 6 0.000000 0.000000 0.000000 0.000000 0.000000 0.059684
#
#
# Mechanical properties :
#
#
# Convention : Reuss Voigt Hill
#
# Bulk Modulus (GPa) = 39.60488 51.72298 45.66393
# Shear Modulus (GPa) = 15.25323 19.60549 17.42936
#
# Velocity S-wave (km/s) = 3.12495 3.54283 3.34043
# Velocity P-wave (km/s) = 6.19483 7.06040 6.64173
#
# Compressibility (1/GPa) = 0.02524941
#
# Stress axis : x y z
#
# Youngs Moduli (GPa) = 59.41994 27.51125 82.19724
#
# Poissons Ratio (x) = 0.20469 0.25453
# Poissons Ratio (y) = 0.44210 0.78173
# Poissons Ratio (z) = 0.18400 0.26164
#
# Static dielectric constant tensor:
#      x y z
#    x 1.498670 0.000000 0.000000 
#    y 0.000000 1.546290 0.000000 
#    z 0.000000 0.000000 1.546360 
# 
# From -- ./inp_files/71922.got.cif
#   From: 2010.05.17/outbox.cif.g08.bks.cpg/sg65_36_cif.got.tgz:71922.got - 2010.06.03 17:01:31.
