data_PCOD9485453
_publ_section_title
;
Structure prediction by ZEFSAII (Michael W. Deem and Ramdas Pophale) SiO2 
 PCOD9485453
Probable space group: C M M M
;
_chemical_formula_sum "Si O2"
_cell_formula_units_Z 88
_cell_length_a 29.360254
_cell_length_b 8.654167
_cell_length_c 21.776354
_cell_angle_alpha 90.000000
_cell_angle_beta 90.000000
_cell_angle_gamma 90.000000
_cell_volume 5533.122022
_symmetry_space_group_name_H-M "C M M M"
_symmetry_group_IT_number 65
_symmetry_cell_setting 'orthorhombic'
loop_
_space_group_symop_operation_xyz
x,y,z
-x,-y,z
x,-y,-z
-x,y,-z
-x,-y,-z
x,y,-z
-x,y,z
x,-y,z
1/2+x,1/2+y,z
1/2-x,1/2-y,z
1/2+x,1/2-y,-z
1/2-x,1/2+y,-z
1/2-x,1/2-y,-z
1/2+x,1/2+y,-z
1/2-x,1/2+y,z
1/2+x,1/2-y,z
loop_
_atom_site_type_symbol
_atom_site_label
_atom_site_fract_x
_atom_site_fract_y
_atom_site_fract_z
Si Si1 0.856558 0.814615 0.815261
Si Si2 0.801435 0.314406 0.299201
Si Si3 0.444726 0.174255 0.000000
Si Si4 0.698635 0.185519 0.930711
Si Si5 0.301514 0.186452 0.565956
Si Si6 0.448371 0.685798 0.869473
O O1 0.832080 0.747472 0.755709
O O2 0.830940 0.756579 0.876350
O O3 0.909400 0.766137 0.822066
O O4 0.854191 0.000000 0.813363
O O5 0.799320 0.500000 0.296258
O O6 0.750000 0.250000 0.292935
O O7 0.819927 0.267286 0.367075
O O8 0.433113 0.258693 0.936982
O O9 0.500000 0.167976 0.000000
O O10 0.426519 0.000000 0.000000
O O11 0.750000 0.250000 0.925475
O O12 0.699413 0.000000 0.924948
O O13 0.682155 0.224032 0.000000
O O14 0.322461 0.235251 0.500000
O O15 0.250000 0.250000 0.565612
O O16 0.300101 0.000000 0.565918
O O17 0.500000 0.742405 0.857741
O O18 0.449888 0.500000 0.870316
#
# Coordination Sequence:
#
# PCOD9485453 Si02
#       6
#    16  16   8  16  16  16
#     4  11  22  33  48  67  89 118 151 187 226 272
#     4  10  19  31  47  67  95 126 155 187 220 260
#     4   9  17  29  47  69  88 105 130 173 227 275
#     4  10  21  36  51  66  86 114 149 190 228 266
#     4   8  14  25  42  64  89 119 152 182 214 253
#     4   9  19  35  51  66  86 114 147 183 226 277
#
# _framework density 15.904222000000001
#
# number of rings (size 3 to 8) (size 9 to 14) (size 15 to 20)
#    0.000    2.455    0.000    2.455    1.273    4.364 
#    0.000    0.000    0.000    0.000    0.000    0.000 
#    0.000    0.727    0.000    9.091    0.000    0.000 
#
# Total GULP energy -245191.877752 kJ/mol
# GULP energy per Si atom -5572.542676 kJ/mol
# Density = 1.586802 g / cm^3
# Si number density = 15.904222 Si / 1000 Ang^3
#
#
#
# Elastic Constant Matrix: (Units=GPa)
#
#
# Indices 1 2 3 4 5 6 
#
# 1 73.7800 21.8629 71.1261 0.0000 0.0000 0.0000
# 2 21.8629 30.3027 34.4700 0.0000 0.0000 0.0000
# 3 71.1261 34.4700 157.4957 0.0000 0.0000 0.0000
# 4 0.0000 0.0000 0.0000 5.1429 0.0000 0.0000
# 5 0.0000 0.0000 0.0000 0.0000 9.9562 0.0000
# 6 0.0000 0.0000 0.0000 0.0000 0.0000 13.1870
#
#
#
# Elastic Compliance Matrix: (Units=1/GPa)
#
#
# Indices 1 2 3 4 5 6 
#
# 1 0.025052 -0.006930 -0.009797 0.000000 0.000000 0.000000
# 2 -0.006930 0.045857 -0.006907 0.000000 0.000000 0.000000
# 3 -0.009797 -0.006907 0.012285 0.000000 0.000000 0.000000
# 4 0.000000 0.000000 0.000000 0.194445 0.000000 0.000000
# 5 0.000000 0.000000 0.000000 0.000000 0.100440 0.000000
# 6 0.000000 0.000000 0.000000 0.000000 0.000000 0.075832
#
#
# Mechanical properties :
#
#
# Convention : Reuss Voigt Hill
#
# Bulk Modulus (GPa) = 27.83464 57.38847 42.61155
# Shear Modulus (GPa) = 9.74367 14.59852 12.17110
#
# Velocity S-wave (km/s) = 2.47786 3.03298 2.76936
# Velocity P-wave (km/s) = 5.07206 6.95898 6.08905
#
# Compressibility (1/GPa) = 0.03592646
#
# Stress axis : x y z
#
# Youngs Moduli (GPa) = 39.91723 21.80700 81.39849
#
# Poissons Ratio (x) = 0.15113 0.79744
# Poissons Ratio (y) = 0.27664 0.56218
# Poissons Ratio (z) = 0.39106 0.15061
#
# Static dielectric constant tensor:
#      x y z
#    x 1.549890 0.000000 0.000000 
#    y 0.000000 1.538490 0.000000 
#    z 0.000000 0.000000 1.557160 
# 
# From -- ./inp_files/60699.got.cif
#   From: 2010.05.17/outbox.cif.g08.bks.cpg/sg65_31_cif.got.tgz:60699.got - 2010.06.03 17:01:31.
