data_PCOD9485525
_publ_section_title
;
Structure prediction by ZEFSAII (Michael W. Deem and Ramdas Pophale) SiO2 
 PCOD9485525
Probable space group: C M M M
;
_chemical_formula_sum "Si O2"
_cell_formula_units_Z 88
_cell_length_a 7.526430
_cell_length_b 18.258592
_cell_length_c 30.522959
_cell_angle_alpha 90.000000
_cell_angle_beta 90.000000
_cell_angle_gamma 90.000000
_cell_volume 4194.526517
_symmetry_space_group_name_H-M "C M M M"
_symmetry_group_IT_number 65
_symmetry_cell_setting 'orthorhombic'
loop_
_space_group_symop_operation_xyz
x,y,z
-x,-y,z
x,-y,-z
-x,y,-z
-x,-y,-z
x,y,-z
-x,y,z
x,-y,z
1/2+x,1/2+y,z
1/2-x,1/2-y,z
1/2+x,1/2-y,-z
1/2-x,1/2+y,-z
1/2-x,1/2-y,-z
1/2+x,1/2+y,-z
1/2-x,1/2+y,z
1/2+x,1/2-y,z
loop_
_atom_site_type_symbol
_atom_site_label
_atom_site_fract_x
_atom_site_fract_y
_atom_site_fract_z
Si Si1 0.787102 0.164296 0.823853
Si Si2 0.717500 0.415325 0.088080
Si Si3 0.712083 0.584115 0.641347
Si Si4 0.716424 0.413944 0.263623
Si Si5 0.787306 0.835879 0.000000
Si Si6 0.787370 0.584849 0.547018
O O1 0.750000 0.250000 0.826245
O O2 0.721158 0.123592 0.867402
O O3 0.718205 0.129938 0.778493
O O4 0.000000 0.154228 0.823481
O O5 0.500000 0.413313 0.088143
O O6 0.769745 0.500000 0.087137
O O7 0.778983 0.373637 0.044474
O O8 0.500000 0.579857 0.644584
O O9 0.781217 0.500000 0.639075
O O10 0.775220 0.614239 0.688261
O O11 0.746814 0.619824 0.594126
O O12 0.500000 0.410752 0.262929
O O13 0.763033 0.500000 0.260203
O O14 0.750000 0.750000 0.000000
O O15 0.000000 0.845683 0.000000
O O16 0.725219 0.616172 0.500000
O O17 0.721695 0.500000 0.548438
O O18 0.000000 0.581943 0.545193
#
# Coordination Sequence:
#
# PCOD9485525 Si02
#       6
#    16  16  16  16   8  16
#     4  10  19  31  48  68  91 118 148 185 228 273
#     4   9  17  30  50  73  93 120 161 199 226 260
#     4   8  13  21  34  52  72  96 132 176 213 245
#     4   8  14  26  44  63  82 109 147 185 218 258
#     4  10  19  31  49  73 101 128 156 194 234 272
#     4   8  13  20  29  44  71 106 137 163 199 252
#
# _framework density 20.979721999999999
#
# number of rings (size 3 to 8) (size 9 to 14) (size 15 to 20)
#    0.000    3.273    0.000    3.000    0.000    3.636 
#    0.000    2.727    0.000    5.455    0.000    0.000 
#    0.000    0.727    0.000    1.636    0.000    4.364 
#
# Total GULP energy -245139.543158 kJ/mol
# GULP energy per Si atom -5571.353254 kJ/mol
# Density = 2.093197 g / cm^3
# Si number density = 20.979722 Si / 1000 Ang^3
#
#
#
# Elastic Constant Matrix: (Units=GPa)
#
#
# Indices 1 2 3 4 5 6 
#
# 1 50.9637 -4.0048 12.6170 0.0000 0.0000 0.0000
# 2 -4.0048 91.2251 101.1885 0.0000 0.0000 0.0000
# 3 12.6170 101.1885 299.8924 0.0000 0.0000 0.0000
# 4 0.0000 0.0000 0.0000 -7.7743 0.0000 0.0000
# 5 0.0000 0.0000 0.0000 0.0000 51.2182 0.0000
# 6 0.0000 0.0000 0.0000 0.0000 0.0000 14.2834
#
#
#
# Elastic Compliance Matrix: (Units=1/GPa)
#
#
# Indices 1 2 3 4 5 6 
#
# 1 0.020310 0.002940 -0.001846 0.000000 0.000000 0.000000
# 2 0.002940 0.017944 -0.006178 0.000000 0.000000 0.000000
# 3 -0.001846 -0.006178 0.005497 0.000000 0.000000 0.000000
# 4 0.000000 0.000000 0.000000 -0.128629 0.000000 0.000000
# 5 0.000000 0.000000 0.000000 0.000000 0.019524 0.000000
# 6 0.000000 0.000000 0.000000 0.000000 0.000000 0.070011
#
#
# Mechanical properties :
#
#
# Convention : Reuss Voigt Hill
#
# Bulk Modulus (GPa) = 29.77900 73.52030 51.64965
# Shear Modulus (GPa) = 192.14955 33.69750 112.92353
#
# Velocity S-wave (km/s) = 9.58056 4.01208 7.34452
# Velocity P-wave (km/s) = 11.68793 7.52210 9.82827
#
# Compressibility (1/GPa) = 0.03358071
#
# Stress axis : x y z
#
# Youngs Moduli (GPa) = 49.23710 55.72903 181.92232
#
# Poissons Ratio (x) = -0.16382 0.33589
# Poissons Ratio (y) = -0.14474 1.12396
# Poissons Ratio (z) = 0.09091 0.34431
#
# Static dielectric constant tensor:
#      x y z
#    x 1.786400 0.000000 0.000000 
#    y 0.000000 1.682580 0.000000 
#    z 0.000000 0.000000 1.820550 
# 
# From -- ./inp_files/69787.got.cif
#   From: 2010.05.17/outbox.cif.g08.bks.cpg/sg65_35_cif.got.tgz:69787.got - 2010.06.03 17:01:31.
