data_PCOD9485926
_publ_section_title
;
Structure prediction by ZEFSAII (Michael W. Deem and Ramdas Pophale) SiO2 
 PCOD9485926
Probable space group: C M M M
;
_chemical_formula_sum "Si O2"
_cell_formula_units_Z 64
_cell_length_a 8.295184
_cell_length_b 15.728465
_cell_length_c 24.753234
_cell_angle_alpha 90.000000
_cell_angle_beta 90.000000
_cell_angle_gamma 90.000000
_cell_volume 3229.567094
_symmetry_space_group_name_H-M "C M M M"
_symmetry_group_IT_number 65
_symmetry_cell_setting 'orthorhombic'
loop_
_space_group_symop_operation_xyz
x,y,z
-x,-y,z
x,-y,-z
-x,y,-z
-x,-y,-z
x,y,-z
-x,y,z
x,-y,z
1/2+x,1/2+y,z
1/2-x,1/2-y,z
1/2+x,1/2-y,-z
1/2-x,1/2+y,-z
1/2-x,1/2-y,-z
1/2+x,1/2+y,-z
1/2-x,1/2+y,z
1/2+x,1/2-y,z
loop_
_atom_site_type_symbol
_atom_site_label
_atom_site_fract_x
_atom_site_fract_y
_atom_site_fract_z
Si Si1 0.307575 0.649618 0.500000
Si Si2 0.694774 0.402650 0.117152
Si Si3 0.192584 0.500000 0.702892
Si Si4 0.304684 0.346510 0.000000
Si Si5 0.694221 0.000000 0.421343
Si Si6 0.192393 0.160821 0.770563
O O1 0.500000 0.653264 0.500000
O O2 0.250000 0.750000 0.500000
O O3 0.252089 0.587527 0.450443
O O4 0.500000 0.392013 0.114742
O O5 0.727486 0.500000 0.130982
O O6 0.756663 0.348739 0.167676
O O7 0.755136 0.384603 0.056747
O O8 0.248228 0.500000 0.640823
O O9 0.251283 0.417489 0.734862
O O10 0.000000 0.500000 0.702431
O O11 0.250000 0.250000 0.000000
O O12 0.500000 0.354452 0.000000
O O13 0.500000 0.000000 0.424454
O O14 0.250000 0.250000 0.747649
O O15 0.000000 0.159028 0.773168
#
# Coordination Sequence:
#
# PCOD9485926 Si02
#       6
#     8  16   8   8   8  16
#     4  11  22  39  66  98 132 169 206 243 292 348
#     4   9  17  32  54  79 104 141 189 237 294 359
#     4  11  24  42  63  89 121 160 206 253 302 351
#     4  10  19  31  51  75 105 138 180 234 290 360
#     4  10  22  41  64  92 127 163 205 255 300 348
#     4  11  22  38  60  85 117 155 199 249 303 364
#
# _framework density 19.816898999999999
#
# number of rings (size 3 to 8) (size 9 to 14) (size 15 to 20)
#    0.000    1.750    1.250    4.500    0.000    4.500 
#    0.000    1.250    0.000    0.750    0.000    0.000 
#    0.000    0.000    0.000    0.000    0.000    0.000 
#
# Total GULP energy -178513.186703 kJ/mol
# GULP energy per Si atom -5578.537084 kJ/mol
# Density = 1.977179 g / cm^3
# Si number density = 19.816899 Si / 1000 Ang^3
#
#
#
# Elastic Constant Matrix: (Units=GPa)
#
#
# Indices 1 2 3 4 5 6 
#
# 1 49.9311 23.2778 32.9916 0.0000 0.0000 0.0000
# 2 23.2778 166.0516 89.7799 0.0000 0.0000 0.0000
# 3 32.9916 89.7799 150.9327 0.0000 0.0000 0.0000
# 4 0.0000 0.0000 0.0000 -22.5164 0.0000 0.0000
# 5 0.0000 0.0000 0.0000 0.0000 15.3279 0.0000
# 6 0.0000 0.0000 0.0000 0.0000 0.0000 34.2531
#
#
#
# Elastic Compliance Matrix: (Units=1/GPa)
#
#
# Indices 1 2 3 4 5 6 
#
# 1 0.023474 -0.000761 -0.004678 0.000000 0.000000 0.000000
# 2 -0.000761 0.008902 -0.005129 0.000000 0.000000 0.000000
# 3 -0.004678 -0.005129 0.010699 0.000000 0.000000 0.000000
# 4 0.000000 0.000000 0.000000 -0.044412 0.000000 0.000000
# 5 0.000000 0.000000 0.000000 0.000000 0.065241 0.000000
# 6 0.000000 0.000000 0.000000 0.000000 0.000000 0.029194
#
#
# Mechanical properties :
#
#
# Convention : Reuss Voigt Hill
#
# Bulk Modulus (GPa) = 45.58312 73.22377 59.40345
# Shear Modulus (GPa) = 41.13659 20.13732 30.63695
#
# Velocity S-wave (km/s) = 4.56107 3.19120 3.93619
# Velocity P-wave (km/s) = 7.12671 7.11398 7.12035
#
# Compressibility (1/GPa) = 0.02193794
#
# Stress axis : x y z
#
# Youngs Moduli (GPa) = 42.60116 112.33496 93.46831
#
# Poissons Ratio (x) = 0.08552 0.43726
# Poissons Ratio (y) = 0.03243 0.47938
# Poissons Ratio (z) = 0.19929 0.57614
#
# Static dielectric constant tensor:
#      x y z
#    x 1.684620 0.000000 0.000000 
#    y 0.000000 1.675350 0.000000 
#    z 0.000000 0.000000 1.755930 
# 
# From -- ./inp_files/66870.got.cif
#   From: 2010.05.17/outbox.cif.g08.bks.cpg/sg65_34_cif.got.tgz:66870.got - 2010.06.03 17:01:31.
