data_PCOD9485985
_publ_section_title
;
Structure prediction by ZEFSAII (Michael W. Deem and Ramdas Pophale) SiO2 
 PCOD9485985
Probable space group: C M M M
;
_chemical_formula_sum "Si O2"
_cell_formula_units_Z 104
_cell_length_a 8.699728
_cell_length_b 21.179161
_cell_length_c 30.682376
_cell_angle_alpha 90.000000
_cell_angle_beta 90.000000
_cell_angle_gamma 90.000000
_cell_volume 5653.317983
_symmetry_space_group_name_H-M "C M M M"
_symmetry_group_IT_number 65
_symmetry_cell_setting 'orthorhombic'
loop_
_space_group_symop_operation_xyz
x,y,z
-x,-y,z
x,-y,-z
-x,y,-z
-x,-y,-z
x,y,-z
-x,y,z
x,-y,z
1/2+x,1/2+y,z
1/2-x,1/2-y,z
1/2+x,1/2-y,-z
1/2-x,1/2+y,-z
1/2-x,1/2-y,-z
1/2+x,1/2+y,-z
1/2-x,1/2+y,z
1/2+x,1/2-y,z
loop_
_atom_site_type_symbol
_atom_site_label
_atom_site_fract_x
_atom_site_fract_y
_atom_site_fract_z
Si Si1 0.314481 0.570609 0.695638
Si Si2 0.683396 0.865730 0.550164
Si Si3 0.685133 0.678479 0.856558
Si Si4 0.183297 0.185743 0.635228
Si Si5 0.684320 0.072040 0.207176
Si Si6 0.673219 0.500000 0.447408
Si Si7 0.185319 0.821029 0.046683
O O1 0.500000 0.573597 0.699484
O O2 0.274288 0.500000 0.679895
O O3 0.264539 0.625222 0.662882
O O4 0.242809 0.579403 0.743301
O O5 0.732288 0.853721 0.500000
O O6 0.500000 0.861497 0.551837
O O7 0.758409 0.821474 0.585935
O O8 0.737810 0.936204 0.562890
O O9 0.500000 0.682005 0.854084
O O10 0.750000 0.750000 0.850425
O O11 0.746219 0.627489 0.822283
O O12 0.730888 0.654892 0.905500
O O13 0.250000 0.250000 0.654458
O O14 0.000000 0.187671 0.635341
O O15 0.500000 0.076023 0.206157
O O16 0.728431 0.000000 0.193437
O O17 0.500000 0.500000 0.428781
O O18 0.660747 0.500000 0.500000
O O19 0.250000 0.750000 0.045916
O O20 0.000000 0.818985 0.046684
O O21 0.233186 0.850945 0.000000
#
# Coordination Sequence:
#
# PCOD9485985 Si02
#       7
#    16  16  16  16  16   8  16
#     4   9  20  40  63  84 106 138 181 226 271 325
#     4  10  21  37  57  83 115 149 186 227 269 315
#     4  10  19  31  51  79 110 144 182 227 277 327
#     4  11  24  40  60  85 115 148 182 223 272 326
#     4  10  21  37  57  81 109 142 181 225 273 328
#     4   9  17  31  53  81 111 143 181 223 265 309
#     4   8  14  25  42  67 100 137 178 223 270 320
#
# _framework density 18.396274999999999
#
# number of rings (size 3 to 8) (size 9 to 14) (size 15 to 20)
#    0.000    2.385    0.000    2.077    1.077    5.538 
#    0.000    1.538    0.000    0.462    0.000    3.231 
#    0.000    0.000    0.000    0.000    0.000    0.000 
#
# Total GULP energy -289917.350937 kJ/mol
# GULP energy per Si atom -5575.333672 kJ/mol
# Density = 1.835440 g / cm^3
# Si number density = 18.396275 Si / 1000 Ang^3
#
#
#
# Elastic Constant Matrix: (Units=GPa)
#
#
# Indices 1 2 3 4 5 6 
#
# 1 40.0461 38.3149 32.8350 0.0000 0.0000 0.0000
# 2 38.3149 128.9672 83.4070 0.0000 0.0000 0.0000
# 3 32.8350 83.4070 107.4370 0.0000 0.0000 0.0000
# 4 0.0000 0.0000 0.0000 20.0196 0.0000 0.0000
# 5 0.0000 0.0000 0.0000 0.0000 19.0160 0.0000
# 6 0.0000 0.0000 0.0000 0.0000 0.0000 28.1792
#
#
#
# Elastic Compliance Matrix: (Units=1/GPa)
#
#
# Indices 1 2 3 4 5 6 
#
# 1 0.036430 -0.007275 -0.005486 0.000000 0.000000 0.000000
# 2 -0.007275 0.017025 -0.010994 0.000000 0.000000 0.000000
# 3 -0.005486 -0.010994 0.019519 0.000000 0.000000 0.000000
# 4 0.000000 0.000000 0.000000 0.049951 0.000000 0.000000
# 5 0.000000 0.000000 0.000000 0.000000 0.052587 0.000000
# 6 0.000000 0.000000 0.000000 0.000000 0.000000 0.035487
#
#
# Mechanical properties :
#
#
# Convention : Reuss Voigt Hill
#
# Bulk Modulus (GPa) = 39.26989 65.06267 52.16628
# Shear Modulus (GPa) = 18.72671 21.56918 20.14795
#
# Velocity S-wave (km/s) = 3.19401 3.42786 3.31300
# Velocity P-wave (km/s) = 5.91568 7.14920 6.56149
#
# Compressibility (1/GPa) = 0.02546481
#
# Stress axis : x y z
#
# Youngs Moduli (GPa) = 27.45003 58.73578 51.23126
#
# Poissons Ratio (x) = 0.42731 0.28104
# Poissons Ratio (y) = 0.19970 0.56323
# Poissons Ratio (z) = 0.15059 0.64574
#
# Static dielectric constant tensor:
#      x y z
#    x 1.624080 0.000000 0.000000 
#    y 0.000000 1.608250 0.000000 
#    z 0.000000 0.000000 1.662330 
# 
# From -- ./inp_files/73362.got.cif
#   From: 2010.05.17/outbox.cif.g08.bks.cpg/sg65_37_cif.got.tgz:73362.got - 2010.06.03 17:01:31.
