data_PCOD9485701
_publ_section_title
;
Structure prediction by ZEFSAII (Michael W. Deem and Ramdas Pophale) SiO2 
 PCOD9485701
Probable space group: C M M M
;
_chemical_formula_sum "Si O2"
_cell_formula_units_Z 96
_cell_length_a 8.582752
_cell_length_b 20.479586
_cell_length_c 31.071961
_cell_angle_alpha 90.000000
_cell_angle_beta 90.000000
_cell_angle_gamma 90.000000
_cell_volume 5461.556111
_symmetry_space_group_name_H-M "C M M M"
_symmetry_group_IT_number 65
_symmetry_cell_setting 'orthorhombic'
loop_
_space_group_symop_operation_xyz
x,y,z
-x,-y,z
x,-y,-z
-x,y,-z
-x,-y,-z
x,y,-z
-x,y,z
x,-y,z
1/2+x,1/2+y,z
1/2-x,1/2-y,z
1/2+x,1/2-y,-z
1/2-x,1/2+y,-z
1/2-x,1/2-y,-z
1/2+x,1/2+y,-z
1/2-x,1/2+y,z
1/2+x,1/2-y,z
loop_
_atom_site_type_symbol
_atom_site_label
_atom_site_fract_x
_atom_site_fract_y
_atom_site_fract_z
Si Si1 0.312362 0.322406 0.620577
Si Si2 0.187501 0.677591 0.284702
Si Si3 0.188040 0.575098 0.788202
Si Si4 0.310226 0.574664 0.548849
Si Si5 0.186494 0.075217 0.882587
Si Si6 0.686540 0.178367 0.049543
O O1 0.500000 0.320796 0.621514
O O2 0.250000 0.250000 0.610712
O O3 0.251126 0.339966 0.668056
O O4 0.259175 0.374061 0.584692
O O5 0.250000 0.750000 0.274402
O O6 0.236656 0.625150 0.248912
O O7 0.000000 0.679695 0.286364
O O8 0.234819 0.500000 0.778860
O O9 0.254741 0.593038 0.834868
O O10 0.000000 0.576726 0.790644
O O11 0.261473 0.591293 0.500000
O O12 0.500000 0.575084 0.549056
O O13 0.261854 0.500000 0.557999
O O14 0.251981 0.123869 0.918160
O O15 0.000000 0.077442 0.883222
O O16 0.236270 0.000000 0.890585
O O17 0.500000 0.179765 0.050961
O O18 0.750000 0.250000 0.061261
O O19 0.735349 0.165225 0.000000
#
# Coordination Sequence:
#
# PCOD9485701 Si02
#       6
#    16  16  16  16  16  16
#     4  10  19  31  49  72  98 128 161 200 245 292
#     4  10  20  34  52  73  99 131 165 204 249 297
#     4   9  19  36  55  74  99 133 171 209 252 302
#     4   8  15  29  48  70  96 126 162 202 242 287
#     4  10  21  36  55  80 109 140 174 214 258 304
#     4  10  21  37  57  80 107 140 177 217 260 307
#
# _framework density 17.577407000000001
#
# number of rings (size 3 to 8) (size 9 to 14) (size 15 to 20)
#    0.000    2.500    0.000    3.500    0.000    5.333 
#    0.000    3.333    0.000    3.000    0.000    4.667 
#    0.000    0.000    0.000    0.000    0.000    0.000 
#
# Total GULP energy -267797.223175 kJ/mol
# GULP energy per Si atom -5579.108816 kJ/mol
# Density = 1.753740 g / cm^3
# Si number density = 17.577407 Si / 1000 Ang^3
#
#
#
# Elastic Constant Matrix: (Units=GPa)
#
#
# Indices 1 2 3 4 5 6 
#
# 1 34.6308 34.6457 37.6839 0.0000 0.0000 0.0000
# 2 34.6457 136.0235 138.4729 0.0000 0.0000 0.0000
# 3 37.6839 138.4729 163.6300 0.0000 0.0000 0.0000
# 4 0.0000 0.0000 0.0000 45.5395 0.0000 0.0000
# 5 0.0000 0.0000 0.0000 0.0000 17.5200 0.0000
# 6 0.0000 0.0000 0.0000 0.0000 0.0000 24.4442
#
#
#
# Elastic Compliance Matrix: (Units=1/GPa)
#
#
# Indices 1 2 3 4 5 6 
#
# 1 0.039140 -0.005725 -0.004170 0.000000 0.000000 0.000000
# 2 -0.005725 0.053916 -0.044308 0.000000 0.000000 0.000000
# 3 -0.004170 -0.044308 0.044568 0.000000 0.000000 0.000000
# 4 0.000000 0.000000 0.000000 0.021959 0.000000 0.000000
# 5 0.000000 0.000000 0.000000 0.000000 0.057078 0.000000
# 6 0.000000 0.000000 0.000000 0.000000 0.000000 0.040910
#
#
# Mechanical properties :
#
#
# Convention : Reuss Voigt Hill
#
# Bulk Modulus (GPa) = 34.22426 83.98771 59.10599
# Shear Modulus (GPa) = 13.30800 25.73287 19.52043
#
# Velocity S-wave (km/s) = 2.75454 3.83034 3.33609
# Velocity P-wave (km/s) = 5.44330 8.21264 6.96696
#
# Compressibility (1/GPa) = 0.02921904
#
# Stress axis : x y z
#
# Youngs Moduli (GPa) = 25.54925 18.54742 22.43776
#
# Poissons Ratio (x) = 0.10618 0.09355
# Poissons Ratio (y) = 0.14626 0.99418
# Poissons Ratio (z) = 0.10653 0.82180
#
# Static dielectric constant tensor:
#      x y z
#    x 1.594300 0.000000 0.000000 
#    y 0.000000 1.583190 0.000000 
#    z 0.000000 0.000000 1.578020 
# 
# From -- ./inp_files/73092.got.cif
#   From: 2010.05.17/outbox.cif.g08.bks.cpg/sg65_37_cif.got.tgz:73092.got - 2010.06.03 17:01:31.
