data_PCOD9485347
_publ_section_title
;
Structure prediction by ZEFSAII (Michael W. Deem and Ramdas Pophale) SiO2 
 PCOD9485347
Probable space group: C M M M
;
_chemical_formula_sum "Si O2"
_cell_formula_units_Z 72
_cell_length_a 24.106859
_cell_length_b 13.253689
_cell_length_c 12.369843
_cell_angle_alpha 90.000000
_cell_angle_beta 90.000000
_cell_angle_gamma 90.000000
_cell_volume 3952.224362
_symmetry_space_group_name_H-M "C M M M"
_symmetry_group_IT_number 65
_symmetry_cell_setting 'orthorhombic'
loop_
_space_group_symop_operation_xyz
x,y,z
-x,-y,z
x,-y,-z
-x,y,-z
-x,-y,-z
x,y,-z
-x,y,z
x,-y,z
1/2+x,1/2+y,z
1/2-x,1/2-y,z
1/2+x,1/2-y,-z
1/2-x,1/2+y,-z
1/2-x,1/2-y,-z
1/2+x,1/2+y,-z
1/2-x,1/2+y,z
1/2+x,1/2-y,z
loop_
_atom_site_type_symbol
_atom_site_label
_atom_site_fract_x
_atom_site_fract_y
_atom_site_fract_z
Si Si1 0.828266 0.826973 0.124332
Si Si2 0.123547 0.383561 0.626554
Si Si3 0.564708 0.252877 0.206830
Si Si4 0.565637 0.889056 0.000000
Si Si5 0.788444 0.387929 0.808391
O O1 0.888032 0.835661 0.181503
O O2 0.810691 0.708049 0.125600
O O3 0.777924 0.878679 0.188214
O O4 0.830057 0.861204 0.000000
O O5 0.129916 0.363068 0.500000
O O6 0.104325 0.500000 0.639479
O O7 0.081600 0.307355 0.685331
O O8 0.181509 0.376242 0.692352
O O9 0.500000 0.282890 0.206106
O O10 0.575024 0.174739 0.107897
O O11 0.500000 0.902164 0.000000
O O12 0.591391 0.000000 0.000000
O O13 0.803143 0.500000 0.848655
#
# Coordination Sequence:
#
# PCOD9485347 Si02
#       5
#    16  16  16   8  16
#     4  10  19  31  47  72  99 126 163 197 245 301
#     4   9  18  32  49  70  97 128 161 199 246 298
#     4  10  19  31  45  66  96 129 162 197 237 283
#     4   9  16  26  42  63  87 119 157 193 229 276
#     4   9  18  32  49  69  94 124 160 203 245 288
#
# _framework density 18.217589
#
# number of rings (size 3 to 8) (size 9 to 14) (size 15 to 20)
#    0.000    2.556    1.111    2.000    0.000    4.444 
#    0.000   10.000    0.000    0.667    0.000    1.556 
#    0.000    0.000    0.000   23.556    0.000    0.000 
#
# Total GULP energy -200434.231607 kJ/mol
# GULP energy per Si atom -5567.617545 kJ/mol
# Density = 1.817612 g / cm^3
# Si number density = 18.217589 Si / 1000 Ang^3
#
#
#
# Elastic Constant Matrix: (Units=GPa)
#
#
# Indices 1 2 3 4 5 6 
#
# 1 158.2874 4.8054 21.4721 0.0000 0.0000 0.0000
# 2 4.8054 24.8056 -1.0731 0.0000 0.0000 0.0000
# 3 21.4721 -1.0731 76.2566 0.0000 0.0000 0.0000
# 4 0.0000 0.0000 0.0000 26.2469 0.0000 0.0000
# 5 0.0000 0.0000 0.0000 0.0000 4.7763 0.0000
# 6 0.0000 0.0000 0.0000 0.0000 0.0000 16.6265
#
#
#
# Elastic Compliance Matrix: (Units=1/GPa)
#
#
# Indices 1 2 3 4 5 6 
#
# 1 0.006614 -0.001363 -0.001882 0.000000 0.000000 0.000000
# 2 -0.001363 0.040619 0.000955 0.000000 0.000000 0.000000
# 3 -0.001882 0.000955 0.013657 0.000000 0.000000 0.000000
# 4 0.000000 0.000000 0.000000 0.038100 0.000000 0.000000
# 5 0.000000 0.000000 0.000000 0.000000 0.209367 0.000000
# 6 0.000000 0.000000 0.000000 0.000000 0.000000 0.060145
#
#
# Mechanical properties :
#
#
# Convention : Reuss Voigt Hill
#
# Bulk Modulus (GPa) = 17.75827 34.41761 26.08794
# Shear Modulus (GPa) = 12.75998 25.13962 18.94980
#
# Velocity S-wave (km/s) = 2.64942 3.71882 3.22870
# Velocity P-wave (km/s) = 4.37359 6.11335 5.31513
#
# Compressibility (1/GPa) = 0.05631181
#
# Stress axis : x y z
#
# Youngs Moduli (GPa) = 151.18911 24.61918 73.22316
#
# Poissons Ratio (x) = 0.03355 0.13778
# Poissons Ratio (y) = 0.20603 -0.06995
# Poissons Ratio (z) = 0.28448 -0.02352
#
# Static dielectric constant tensor:
#      x y z
#    x 1.673770 0.000000 0.000000 
#    y 0.000000 1.679450 0.000000 
#    z 0.000000 0.000000 1.606490 
# 
# From -- ./inp_files/26942.got.cif
#   From: 2010.05.17/outbox.cif.g08.bks.cpg/sg65_14_cif.got.tgz:26942.got - 2010.06.03 17:01:31.
