data_PCOD9485837
_publ_section_title
;
Structure prediction by ZEFSAII (Michael W. Deem and Ramdas Pophale) SiO2 
 PCOD9485837
Probable space group: C M M M
;
_chemical_formula_sum "Si O2"
_cell_formula_units_Z 88
_cell_length_a 19.275301
_cell_length_b 8.333101
_cell_length_c 29.626478
_cell_angle_alpha 90.000000
_cell_angle_beta 90.000000
_cell_angle_gamma 90.000000
_cell_volume 4758.694666
_symmetry_space_group_name_H-M "C M M M"
_symmetry_group_IT_number 65
_symmetry_cell_setting 'orthorhombic'
loop_
_space_group_symop_operation_xyz
x,y,z
-x,-y,z
x,-y,-z
-x,y,-z
-x,-y,-z
x,y,-z
-x,y,z
x,-y,z
1/2+x,1/2+y,z
1/2-x,1/2-y,z
1/2+x,1/2-y,-z
1/2-x,1/2+y,-z
1/2-x,1/2-y,-z
1/2+x,1/2+y,-z
1/2-x,1/2+y,z
1/2+x,1/2-y,z
loop_
_atom_site_type_symbol
_atom_site_label
_atom_site_fract_x
_atom_site_fract_y
_atom_site_fract_z
Si Si1 0.920454 0.806163 0.317220
Si Si2 0.329826 0.192797 0.598851
Si Si3 0.328797 0.807563 0.134122
Si Si4 0.329128 0.692229 0.232681
Si Si5 0.170394 0.306652 0.500000
Si Si6 0.580451 0.804370 0.050067
O O1 0.877857 0.755581 0.361294
O O2 0.878782 0.750021 0.272831
O O3 0.000000 0.748954 0.318072
O O4 0.921707 0.000000 0.315692
O O5 0.250000 0.250000 0.604249
O O6 0.356762 0.246539 0.549023
O O7 0.329334 0.000000 0.599958
O O8 0.250000 0.750000 0.128676
O O9 0.352920 0.749081 0.183278
O O10 0.374362 0.747976 0.092146
O O11 0.329792 0.000000 0.134349
O O12 0.328178 0.500000 0.232871
O O13 0.250000 0.750000 0.239646
O O14 0.167980 0.500000 0.500000
O O15 0.250000 0.250000 0.500000
O O16 0.500000 0.757823 0.055048
O O17 0.582264 0.000000 0.050399
O O18 0.604574 0.753257 0.000000
#
# Coordination Sequence:
#
# PCOD9485837 Si02
#       6
#    16  16  16  16   8  16
#     4  10  22  38  53  73 103 136 170 209 254 303
#     4  10  19  33  55  80 105 135 170 209 252 298
#     4  10  19  31  50  75 100 126 159 201 246 292
#     4  10  20  35  54  73  97 130 165 204 250 298
#     4   8  16  30  49  76 105 131 165 207 249 294
#     4   8  15  29  48  70  97 129 164 200 238 282
#
# _framework density 18.492466
#
# number of rings (size 3 to 8) (size 9 to 14) (size 15 to 20)
#    0.000    2.545    0.000    3.818    0.000    5.091 
#    0.000    0.455    0.000    6.000    0.000    5.091 
#    0.000    0.000    0.000    0.000    0.000    0.000 
#
# Total GULP energy -245335.950622 kJ/mol
# GULP energy per Si atom -5575.817060 kJ/mol
# Density = 1.845038 g / cm^3
# Si number density = 18.492466 Si / 1000 Ang^3
#
#
#
# Elastic Constant Matrix: (Units=GPa)
#
#
# Indices 1 2 3 4 5 6 
#
# 1 90.2926 13.6823 110.7216 0.0000 0.0000 0.0000
# 2 13.6823 22.9933 21.5713 0.0000 0.0000 0.0000
# 3 110.7216 21.5713 233.6448 0.0000 0.0000 0.0000
# 4 0.0000 0.0000 0.0000 2.6240 0.0000 0.0000
# 5 0.0000 0.0000 0.0000 0.0000 5.7067 0.0000
# 6 0.0000 0.0000 0.0000 0.0000 0.0000 14.6181
#
#
#
# Elastic Compliance Matrix: (Units=1/GPa)
#
#
# Indices 1 2 3 4 5 6 
#
# 1 0.026844 -0.004422 -0.012313 0.000000 0.000000 0.000000
# 2 -0.004422 0.048344 -0.002368 0.000000 0.000000 0.000000
# 3 -0.012313 -0.002368 0.010333 0.000000 0.000000 0.000000
# 4 0.000000 0.000000 0.000000 0.381100 0.000000 0.000000
# 5 0.000000 0.000000 0.000000 0.000000 0.175232 0.000000
# 6 0.000000 0.000000 0.000000 0.000000 0.000000 0.068408
#
#
# Mechanical properties :
#
#
# Convention : Reuss Voigt Hill
#
# Bulk Modulus (GPa) = 21.13472 70.98677 46.06075
# Shear Modulus (GPa) = 6.54247 17.98679 12.26463
#
# Velocity S-wave (km/s) = 1.88297 3.12213 2.57811
# Velocity P-wave (km/s) = 4.02257 7.17406 5.81585
#
# Compressibility (1/GPa) = 0.04731551
#
# Stress axis : x y z
#
# Youngs Moduli (GPa) = 37.25289 20.68523 96.77384
#
# Poissons Ratio (x) = 0.09148 1.19153
# Poissons Ratio (y) = 0.16475 0.22912
# Poissons Ratio (z) = 0.45868 0.04898
#
# Static dielectric constant tensor:
#      x y z
#    x 1.603670 0.000000 0.000000 
#    y 0.000000 1.658810 0.000000 
#    z 0.000000 0.000000 1.665330 
# 
# From -- ./inp_files/75363.got.cif
#   From: 2010.05.17/outbox.cif.g08.bks.cpg/sg65_38_cif.got.tgz:75363.got - 2010.06.03 17:01:31.
