data_PCOD9485121
_publ_section_title
;
Structure prediction by ZEFSAII (Michael W. Deem and Ramdas Pophale) SiO2 
 PCOD9485121
Probable space group: C M M M
;
_chemical_formula_sum "Si O2"
_cell_formula_units_Z 104
_cell_length_a 19.350170
_cell_length_b 7.921647
_cell_length_c 34.697073
_cell_angle_alpha 90.000000
_cell_angle_beta 90.000000
_cell_angle_gamma 90.000000
_cell_volume 5318.548334
_symmetry_space_group_name_H-M "C M M M"
_symmetry_group_IT_number 65
_symmetry_cell_setting 'orthorhombic'
loop_
_space_group_symop_operation_xyz
x,y,z
-x,-y,z
x,-y,-z
-x,y,-z
-x,-y,-z
x,y,-z
-x,y,z
x,-y,z
1/2+x,1/2+y,z
1/2-x,1/2-y,z
1/2+x,1/2-y,-z
1/2-x,1/2+y,-z
1/2-x,1/2-y,-z
1/2+x,1/2+y,-z
1/2-x,1/2+y,z
1/2+x,1/2-y,z
loop_
_atom_site_type_symbol
_atom_site_label
_atom_site_fract_x
_atom_site_fract_y
_atom_site_fract_z
Si Si1 0.670105 0.703713 0.884811
Si Si2 0.421554 0.703305 0.726269
Si Si3 0.579652 0.706012 0.956558
Si Si4 0.579294 0.298777 0.500000
Si Si5 0.420588 0.797368 0.416621
Si Si6 0.579496 0.294014 0.813273
Si Si7 0.329759 0.799871 0.654135
O O1 0.664947 0.500000 0.884801
O O2 0.750000 0.750000 0.884993
O O3 0.630292 0.765207 0.923009
O O4 0.630914 0.765470 0.846422
O O5 0.500000 0.762271 0.717285
O O6 0.423591 0.500000 0.727348
O O7 0.403554 0.761184 0.769666
O O8 0.368029 0.753572 0.693669
O O9 0.500000 0.755056 0.949035
O O10 0.580761 0.500000 0.956488
O O11 0.598372 0.760122 0.000000
O O12 0.577408 0.500000 0.500000
O O13 0.500000 0.231620 0.500000
O O14 0.608951 0.242095 0.459064
O O15 0.500000 0.732296 0.414083
O O16 0.373405 0.729324 0.382098
O O17 0.424318 0.000000 0.413389
O O18 0.500000 0.246044 0.821561
O O19 0.581114 0.500000 0.813298
O O20 0.250000 0.750000 0.653805
O O21 0.332037 0.000000 0.650719
#
# Coordination Sequence:
#
# PCOD9485121 Si02
#       7
#    16  16  16   8  16  16  16
#     4  10  19  30  46  69  98 129 159 195 241 292
#     4   9  18  34  56  79 101 127 163 208 255 302
#     4   8  14  26  46  70  91 116 159 209 246 280
#     4   9  17  29  50  81 108 129 161 207 252 293
#     4   9  18  34  55  76 100 132 168 206 249 298
#     4   8  15  30  52  74  94 122 163 204 240 284
#     4  11  23  37  53  75 105 139 174 210 252 302
#
# _framework density 19.554209
#
# number of rings (size 3 to 8) (size 9 to 14) (size 15 to 20)
#    0.000    2.846    0.000    3.000    0.000    5.846 
#    0.000    4.231    0.000    2.769    0.000    1.077 
#    0.000    0.000    0.000    0.000    0.000    0.000 
#
# Total GULP energy -290015.590273 kJ/mol
# GULP energy per Si atom -5577.222890 kJ/mol
# Density = 1.950970 g / cm^3
# Si number density = 19.554209 Si / 1000 Ang^3
#
#
#
# Elastic Constant Matrix: (Units=GPa)
#
#
# Indices 1 2 3 4 5 6 
#
# 1 141.1826 8.2334 138.7057 0.0000 0.0000 0.0000
# 2 8.2334 19.2173 11.2252 0.0000 0.0000 0.0000
# 3 138.7057 11.2252 206.5191 0.0000 0.0000 0.0000
# 4 0.0000 0.0000 0.0000 101.7852 0.0000 0.0000
# 5 0.0000 0.0000 0.0000 0.0000 -3.0225 0.0000
# 6 0.0000 0.0000 0.0000 0.0000 0.0000 14.7734
#
#
#
# Elastic Compliance Matrix: (Units=1/GPa)
#
#
# Indices 1 2 3 4 5 6 
#
# 1 0.020835 -0.000777 -0.013951 0.000000 0.000000 0.000000
# 2 -0.000777 0.053772 -0.002401 0.000000 0.000000 0.000000
# 3 -0.013951 -0.002401 0.014343 0.000000 0.000000 0.000000
# 4 0.000000 0.000000 0.000000 0.009825 0.000000 0.000000
# 5 0.000000 0.000000 0.000000 0.000000 -0.330849 0.000000
# 6 0.000000 0.000000 0.000000 0.000000 0.000000 0.067689
#
#
# Mechanical properties :
#
#
# Convention : Reuss Voigt Hill
#
# Bulk Modulus (GPa) = 18.28450 75.91638 47.10044
# Shear Modulus (GPa) = -44.68371 36.62419 -4.02976
#
# Velocity S-wave (km/s) = -4.78548 4.33246 -1.43711
# Velocity P-wave (km/s) = 4.60037 7.99592 4.62447
#
# Compressibility (1/GPa) = 0.05469113
#
# Stress axis : x y z
#
# Youngs Moduli (GPa) = 47.99697 18.59712 69.72197
#
# Poissons Ratio (x) = 0.01445 0.97269
# Poissons Ratio (y) = 0.03731 0.16738
# Poissons Ratio (z) = 0.66961 0.04465
#
# Static dielectric constant tensor:
#      x y z
#    x 1.608790 0.000000 0.000000 
#    y 0.000000 1.706880 0.000000 
#    z 0.000000 0.000000 1.703390 
# 
# From -- ./inp_files/78270.got.cif
#   From: 2010.05.17/outbox.cif.g08.bks.cpg/sg65_40_cif.got.tgz:78270.got - 2010.06.03 17:01:31.
