data_PCOD9485213
_publ_section_title
;
Structure prediction by ZEFSAII (Michael W. Deem and Ramdas Pophale) SiO2 
 PCOD9485213
Probable space group: C M M M
;
_chemical_formula_sum "Si O2"
_cell_formula_units_Z 64
_cell_length_a 8.666476
_cell_length_b 23.935241
_cell_length_c 18.795571
_cell_angle_alpha 90.000000
_cell_angle_beta 90.000000
_cell_angle_gamma 90.000000
_cell_volume 3898.844078
_symmetry_space_group_name_H-M "C M M M"
_symmetry_group_IT_number 65
_symmetry_cell_setting 'orthorhombic'
loop_
_space_group_symop_operation_xyz
x,y,z
-x,-y,z
x,-y,-z
-x,y,-z
-x,-y,-z
x,y,-z
-x,y,z
x,-y,z
1/2+x,1/2+y,z
1/2-x,1/2-y,z
1/2+x,1/2-y,-z
1/2-x,1/2+y,-z
1/2-x,1/2-y,-z
1/2+x,1/2+y,-z
1/2-x,1/2+y,z
1/2+x,1/2-y,z
loop_
_atom_site_type_symbol
_atom_site_label
_atom_site_fract_x
_atom_site_fract_y
_atom_site_fract_z
Si Si1 0.814266 0.811926 0.000000
Si Si2 0.814957 0.313203 0.577585
Si Si3 0.186485 0.116047 0.136559
Si Si4 0.185137 0.813123 0.274357
Si Si5 0.184788 0.500000 0.083261
O O1 0.750000 0.750000 0.000000
O O2 0.765234 0.845355 0.070152
O O3 0.000000 0.809562 0.000000
O O4 0.775602 0.338584 0.500000
O O5 0.750000 0.250000 0.575836
O O6 0.744638 0.336815 0.650103
O O7 0.000000 0.311362 0.583467
O O8 0.232123 0.147114 0.209240
O O9 0.254604 0.055175 0.122499
O O10 0.000000 0.112001 0.136079
O O11 0.250000 0.750000 0.264923
O O12 0.000000 0.809201 0.276051
O O13 0.000000 0.500000 0.082983
O O14 0.237578 0.500000 0.000000
#
# Coordination Sequence:
#
# PCOD9485213 Si02
#       5
#     8  16  16  16   8
#     4  10  20  33  50  71  97 130 162 194 237 288
#     4   9  16  26  42  65  95 132 167 198 238 287
#     4  10  21  36  53  71  96 132 166 199 246 297
#     4  10  19  30  47  73 102 133 166 200 244 292
#     4  11  23  37  55  77  94 119 164 215 255 286
#
# _framework density 16.415120999999999
#
# number of rings (size 3 to 8) (size 9 to 14) (size 15 to 20)
#    0.000    2.125    1.250    4.125    0.000    5.000 
#    0.000    0.000    0.000    0.000    0.000    0.875 
#    0.000    7.000    0.000    0.000    0.000    0.000 
#
# Total GULP energy -178415.823552 kJ/mol
# GULP energy per Si atom -5575.494486 kJ/mol
# Density = 1.637776 g / cm^3
# Si number density = 16.415121 Si / 1000 Ang^3
#
#
#
# Elastic Constant Matrix: (Units=GPa)
#
#
# Indices 1 2 3 4 5 6 
#
# 1 38.0168 27.7931 45.9611 0.0000 0.0000 0.0000
# 2 27.7931 109.0697 76.3633 0.0000 0.0000 0.0000
# 3 45.9611 76.3633 196.2298 0.0000 0.0000 0.0000
# 4 0.0000 0.0000 0.0000 2.0619 0.0000 0.0000
# 5 0.0000 0.0000 0.0000 0.0000 24.6674 0.0000
# 6 0.0000 0.0000 0.0000 0.0000 0.0000 24.7457
#
#
#
# Elastic Compliance Matrix: (Units=1/GPa)
#
#
# Indices 1 2 3 4 5 6 
#
# 1 0.038440 -0.004799 -0.007136 0.000000 0.000000 0.000000
# 2 -0.004799 0.013201 -0.004013 0.000000 0.000000 0.000000
# 3 -0.007136 -0.004013 0.008329 0.000000 0.000000 0.000000
# 4 0.000000 0.000000 0.000000 0.484996 0.000000 0.000000
# 5 0.000000 0.000000 0.000000 0.000000 0.040539 0.000000
# 6 0.000000 0.000000 0.000000 0.000000 0.000000 0.040411
#
#
# Mechanical properties :
#
#
# Convention : Reuss Voigt Hill
#
# Bulk Modulus (GPa) = 35.62058 71.50570 53.56314
# Shear Modulus (GPa) = 7.49433 23.17491 15.33462
#
# Velocity S-wave (km/s) = 2.13902 3.76147 3.05975
# Velocity P-wave (km/s) = 5.27708 7.90698 6.72190
#
# Compressibility (1/GPa) = 0.02807366
#
# Stress axis : x y z
#
# Youngs Moduli (GPa) = 26.01480 75.75100 120.06041
#
# Poissons Ratio (x) = 0.36355 0.85672
# Poissons Ratio (y) = 0.12485 0.48182
# Poissons Ratio (z) = 0.18563 0.30400
#
# Static dielectric constant tensor:
#      x y z
#    x 1.557580 0.000000 0.000000 
#    y 0.000000 1.509120 0.000000 
#    z 0.000000 0.000000 1.598520 
# 
# From -- ./inp_files/49421.got.cif
#   From: 2010.05.17/outbox.cif.g08.bks.cpg/sg65_25_cif.got.tgz:49421.got - 2010.06.03 17:01:31.
