data_PCOD9485026
_publ_section_title
;
Structure prediction by ZEFSAII (Michael W. Deem and Ramdas Pophale) SiO2 
 PCOD9485026
Probable space group: C M M M
;
_chemical_formula_sum "Si O2"
_cell_formula_units_Z 104
_cell_length_a 8.839631
_cell_length_b 25.711302
_cell_length_c 29.007977
_cell_angle_alpha 90.000000
_cell_angle_beta 90.000000
_cell_angle_gamma 90.000000
_cell_volume 6592.887244
_symmetry_space_group_name_H-M "C M M M"
_symmetry_group_IT_number 65
_symmetry_cell_setting 'orthorhombic'
loop_
_space_group_symop_operation_xyz
x,y,z
-x,-y,z
x,-y,-z
-x,y,-z
-x,-y,-z
x,y,-z
-x,y,z
x,-y,z
1/2+x,1/2+y,z
1/2-x,1/2-y,z
1/2+x,1/2-y,-z
1/2-x,1/2+y,-z
1/2-x,1/2-y,-z
1/2+x,1/2+y,-z
1/2-x,1/2+y,z
1/2+x,1/2-y,z
loop_
_atom_site_type_symbol
_atom_site_label
_atom_site_fract_x
_atom_site_fract_y
_atom_site_fract_z
Si Si1 0.182192 0.808028 0.049480
Si Si2 0.181982 0.191905 0.601365
Si Si3 0.680840 0.109389 0.329146
Si Si4 0.826046 0.000000 0.781023
Si Si5 0.326063 0.500000 0.669166
Si Si6 0.181991 0.808055 0.848886
Si Si7 0.181447 0.807616 0.500000
Si Si8 0.180845 0.390610 0.779403
O O1 0.250000 0.750000 0.049148
O O2 0.224420 0.829525 0.099799
O O3 0.000000 0.804652 0.049439
O O4 0.227659 0.832636 0.000000
O O5 0.250000 0.250000 0.605491
O O6 0.246583 0.154462 0.640344
O O7 0.223990 0.170166 0.550087
O O8 0.000000 0.194829 0.604560
O O9 0.500000 0.110290 0.333224
O O10 0.719142 0.116182 0.274872
O O11 0.743327 0.053110 0.344524
O O12 0.743257 0.946911 0.794733
O O13 0.825236 0.000000 0.725095
O O14 0.000000 0.000000 0.796480
O O15 0.500000 0.500000 0.653699
O O16 0.250000 0.750000 0.844605
O O17 0.246409 0.845601 0.809949
O O18 0.000000 0.805167 0.845779
O O19 0.250000 0.750000 0.500000
O O20 0.000000 0.803944 0.500000
O O21 0.000000 0.389651 0.783488
#
# Coordination Sequence:
#
# PCOD9485026 Si02
#       8
#    16  16  16   8   8  16   8  16
#     4   8  14  25  41  61  85 114 149 188 227 268
#     4  10  19  32  50  72  97 124 155 191 231 275
#     4  10  20  33  49  70  95 124 156 190 228 272
#     4   9  17  31  51  71  89 113 153 197 231 268
#     4   9  17  31  51  72  92 118 152 191 232 271
#     4  10  19  30  45  66  94 126 157 189 229 277
#     4   8  16  30  48  69  92 119 152 190 230 270
#     4  10  20  33  48  67  94 125 156 190 228 271
#
# _framework density 15.774575
#
# number of rings (size 3 to 8) (size 9 to 14) (size 15 to 20)
#    0.000    2.615    0.000    2.308    0.000    5.538 
#    0.000    0.000    0.000    0.462    0.000    3.769 
#    0.000    4.308    0.000    0.000    0.000    0.000 
#
# Total GULP energy -289484.239576 kJ/mol
# GULP energy per Si atom -5567.004607 kJ/mol
# Density = 1.573867 g / cm^3
# Si number density = 15.774575 Si / 1000 Ang^3
#
#
#
# Elastic Constant Matrix: (Units=GPa)
#
#
# Indices 1 2 3 4 5 6 
#
# 1 57.6226 43.2141 52.4033 0.0000 0.0000 0.0000
# 2 43.2141 97.4903 69.8152 0.0000 0.0000 0.0000
# 3 52.4033 69.8152 111.5868 0.0000 0.0000 0.0000
# 4 0.0000 0.0000 0.0000 -2.7880 0.0000 0.0000
# 5 0.0000 0.0000 0.0000 0.0000 17.4488 0.0000
# 6 0.0000 0.0000 0.0000 0.0000 0.0000 29.3961
#
#
#
# Elastic Compliance Matrix: (Units=1/GPa)
#
#
# Indices 1 2 3 4 5 6 
#
# 1 0.032266 -0.006253 -0.011241 0.000000 0.000000 0.000000
# 2 -0.006253 0.019796 -0.009449 0.000000 0.000000 0.000000
# 3 -0.011241 -0.009449 0.020152 0.000000 0.000000 0.000000
# 4 0.000000 0.000000 0.000000 -0.358678 0.000000 0.000000
# 5 0.000000 0.000000 0.000000 0.000000 0.057310 0.000000
# 6 0.000000 0.000000 0.000000 0.000000 0.000000 0.034018
#
#
# Mechanical properties :
#
#
# Convention : Reuss Voigt Hill
#
# Bulk Modulus (GPa) = 54.55735 66.39610 60.47673
# Shear Modulus (GPa) = -36.99827 15.56252 -10.71788
#
# Velocity S-wave (km/s) = -4.84823 3.14436 -2.60943
# Velocity P-wave (km/s) = 1.82218 7.44074 5.41687
#
# Compressibility (1/GPa) = 0.01832933
#
# Stress axis : x y z
#
# Youngs Moduli (GPa) = 30.99238 50.51614 49.62212
#
# Poissons Ratio (x) = 0.31586 0.55779
# Poissons Ratio (y) = 0.19378 0.46888
# Poissons Ratio (z) = 0.34838 0.47732
#
# Static dielectric constant tensor:
#      x y z
#    x 1.528110 0.000000 0.000000 
#    y 0.000000 1.488370 0.000000 
#    z 0.000000 0.000000 1.565530 
# 
# From -- ./inp_files/73636.got.cif
#   From: 2010.05.17/outbox.cif.g08.bks.cpg/sg65_37_cif.got.tgz:73636.got - 2010.06.03 17:01:31.
