data_PCOD9485746
_publ_section_title
;
Structure prediction by ZEFSAII (Michael W. Deem and Ramdas Pophale) SiO2 
 PCOD9485746
Probable space group: C M M M
;
_chemical_formula_sum "Si O2"
_cell_formula_units_Z 96
_cell_length_a 8.654504
_cell_length_b 28.377399
_cell_length_c 24.281625
_cell_angle_alpha 90.000000
_cell_angle_beta 90.000000
_cell_angle_gamma 90.000000
_cell_volume 5963.380451
_symmetry_space_group_name_H-M "C M M M"
_symmetry_group_IT_number 65
_symmetry_cell_setting 'orthorhombic'
loop_
_space_group_symop_operation_xyz
x,y,z
-x,-y,z
x,-y,-z
-x,y,-z
-x,-y,-z
x,y,-z
-x,y,z
x,-y,z
1/2+x,1/2+y,z
1/2-x,1/2-y,z
1/2+x,1/2-y,-z
1/2-x,1/2+y,-z
1/2-x,1/2-y,-z
1/2+x,1/2+y,-z
1/2-x,1/2+y,z
1/2+x,1/2-y,z
loop_
_atom_site_type_symbol
_atom_site_label
_atom_site_fract_x
_atom_site_fract_y
_atom_site_fract_z
Si Si1 0.184998 0.197753 0.063273
Si Si2 0.185726 0.645441 0.833536
Si Si3 0.813768 0.054342 0.436281
Si Si4 0.815029 0.389178 0.335574
Si Si5 0.184326 0.198195 0.272929
Si Si6 0.312416 0.052924 0.772357
O O1 0.250000 0.250000 0.074727
O O2 0.253006 0.162340 0.107945
O O3 0.000000 0.198942 0.067608
O O4 0.226625 0.185933 0.000000
O O5 0.250437 0.679203 0.785428
O O6 0.234198 0.592425 0.816616
O O7 0.000000 0.647974 0.832237
O O8 0.772400 0.063777 0.500000
O O9 0.738729 0.089856 0.393351
O O10 0.000000 0.057022 0.432083
O O11 0.768930 0.000000 0.423831
O O12 0.739988 0.339735 0.318127
O O13 0.769336 0.426272 0.287398
O O14 0.000000 0.384216 0.333939
O O15 0.250000 0.250000 0.283704
O O16 0.000000 0.199440 0.270591
O O17 0.500000 0.051260 0.773427
O O18 0.254327 0.000000 0.780939
#
# Coordination Sequence:
#
# PCOD9485746 Si02
#       6
#    16  16  16  16  16  16
#     4  10  20  33  49  69  94 124 158 196 239 287
#     4  10  19  31  49  73  99 126 158 196 238 284
#     4   9  18  32  49  71 101 135 168 202 242 287
#     4  10  19  31  49  74 100 127 162 202 245 290
#     4  11  21  34  51  71  98 129 161 197 239 288
#     4   8  15  28  46  69  96 124 154 192 235 276
#
# _framework density 16.098251999999999
#
# number of rings (size 3 to 8) (size 9 to 14) (size 15 to 20)
#    0.000    2.333    0.000    5.500    0.000    2.333 
#    0.000    0.833    0.000   11.000    0.000    3.500 
#    0.000    0.000    0.000    0.000    0.000    0.000 
#
# Total GULP energy -267785.004833 kJ/mol
# GULP energy per Si atom -5578.854267 kJ/mol
# Density = 1.606161 g / cm^3
# Si number density = 16.098252 Si / 1000 Ang^3
#
#
#
# Elastic Constant Matrix: (Units=GPa)
#
#
# Indices 1 2 3 4 5 6 
#
# 1 65.4147 46.5039 39.4824 0.0000 0.0000 0.0000
# 2 46.5039 151.1761 83.3478 0.0000 0.0000 0.0000
# 3 39.4824 83.3478 103.8598 0.0000 0.0000 0.0000
# 4 0.0000 0.0000 0.0000 22.2886 0.0000 0.0000
# 5 0.0000 0.0000 0.0000 0.0000 27.3052 0.0000
# 6 0.0000 0.0000 0.0000 0.0000 0.0000 15.9849
#
#
#
# Elastic Compliance Matrix: (Units=1/GPa)
#
#
# Indices 1 2 3 4 5 6 
#
# 1 0.020921 -0.003678 -0.005001 0.000000 0.000000 0.000000
# 2 -0.003678 0.012511 -0.008642 0.000000 0.000000 0.000000
# 3 -0.005001 -0.008642 0.018464 0.000000 0.000000 0.000000
# 4 0.000000 0.000000 0.000000 0.044866 0.000000 0.000000
# 5 0.000000 0.000000 0.000000 0.000000 0.036623 0.000000
# 6 0.000000 0.000000 0.000000 0.000000 0.000000 0.062559
#
#
# Mechanical properties :
#
#
# Convention : Reuss Voigt Hill
#
# Bulk Modulus (GPa) = 57.95847 73.23543 65.59695
# Shear Modulus (GPa) = 21.15628 23.19018 22.17323
#
# Velocity S-wave (km/s) = 3.62912 3.79956 3.71532
# Velocity P-wave (km/s) = 7.32406 8.05236 7.69683
#
# Compressibility (1/GPa) = 0.01725373
#
# Stress axis : x y z
#
# Youngs Moduli (GPa) = 47.80000 79.93245 54.15817
#
# Poissons Ratio (x) = 0.29400 0.27086
# Poissons Ratio (y) = 0.17581 0.46801
# Poissons Ratio (z) = 0.23906 0.69074
#
# Static dielectric constant tensor:
#      x y z
#    x 1.542400 0.000000 0.000000 
#    y 0.000000 1.530410 0.000000 
#    z 0.000000 0.000000 1.523410 
# 
# From -- ./inp_files/60216.got.cif
#   From: 2010.05.17/outbox.cif.g08.bks.cpg/sg65_31_cif.got.tgz:60216.got - 2010.06.03 17:01:31.
