data_PCOD9485596
_publ_section_title
;
Structure prediction by ZEFSAII (Michael W. Deem and Ramdas Pophale) SiO2 
 PCOD9485596
Probable space group: C M M M
;
_chemical_formula_sum "Si O2"
_cell_formula_units_Z 80
_cell_length_a 8.673209
_cell_length_b 18.909884
_cell_length_c 27.228022
_cell_angle_alpha 90.000000
_cell_angle_beta 90.000000
_cell_angle_gamma 90.000000
_cell_volume 4465.650901
_symmetry_space_group_name_H-M "C M M M"
_symmetry_group_IT_number 65
_symmetry_cell_setting 'orthorhombic'
loop_
_space_group_symop_operation_xyz
x,y,z
-x,-y,z
x,-y,-z
-x,y,-z
-x,-y,-z
x,y,-z
-x,y,z
x,-y,z
1/2+x,1/2+y,z
1/2-x,1/2-y,z
1/2+x,1/2-y,-z
1/2-x,1/2+y,-z
1/2-x,1/2-y,-z
1/2+x,1/2+y,-z
1/2-x,1/2+y,z
1/2+x,1/2-y,z
loop_
_atom_site_type_symbol
_atom_site_label
_atom_site_fract_x
_atom_site_fract_y
_atom_site_fract_z
Si Si1 0.316487 0.916588 0.196098
Si Si2 0.313927 0.669999 0.394329
Si Si3 0.184473 0.917053 0.909508
Si Si4 0.313365 0.330428 0.500000
Si Si5 0.185438 0.829718 0.713082
Si Si6 0.183481 0.328857 0.000000
O O1 0.500000 0.907163 0.193020
O O2 0.241264 0.894471 0.144421
O O3 0.250791 0.874445 0.242142
O O4 0.283307 0.000000 0.202331
O O5 0.500000 0.672610 0.394404
O O6 0.250000 0.750000 0.394472
O O7 0.265497 0.637580 0.447093
O O8 0.268653 0.640083 0.341019
O O9 0.000000 0.911956 0.912176
O O10 0.227279 0.000000 0.915898
O O11 0.258209 0.870715 0.952150
O O12 0.500000 0.328034 0.500000
O O13 0.250000 0.250000 0.500000
O O14 0.250000 0.750000 0.716092
O O15 0.000000 0.827791 0.715737
O O16 0.250000 0.250000 0.000000
O O17 0.000000 0.326132 0.000000
#
# Coordination Sequence:
#
# PCOD9485596 Si02
#       6
#    16  16  16   8  16   8
#     4  10  21  37  56  78 103 133 172 215 257 302
#     4   8  14  23  37  59  88 122 158 198 244 296
#     4  10  21  39  62  85 109 138 173 212 254 302
#     4   8  12  20  34  54  83 118 155 195 241 291
#     4  10  19  31  48  72 102 134 168 207 255 308
#     4  12  25  40  59  85 117 147 177 212 251 296
#
# _framework density 17.914521000000001
#
# number of rings (size 3 to 8) (size 9 to 14) (size 15 to 20)
#    0.000    2.400    0.000    3.000    0.000    5.200 
#    0.000    4.000    0.000    0.000    0.000    0.700 
#    0.000    5.600    0.000    0.000    0.000    0.400 
#
# Total GULP energy -222903.854276 kJ/mol
# GULP energy per Si atom -5572.596357 kJ/mol
# Density = 1.787375 g / cm^3
# Si number density = 17.914521 Si / 1000 Ang^3
#
#
#
# Elastic Constant Matrix: (Units=GPa)
#
#
# Indices 1 2 3 4 5 6 
#
# 1 43.7842 31.1367 60.5102 0.0000 0.0000 0.0000
# 2 31.1367 44.4091 77.0400 0.0000 0.0000 0.0000
# 3 60.5102 77.0400 234.9075 0.0000 0.0000 0.0000
# 4 0.0000 0.0000 0.000010193.7922 0.0000 0.0000
# 5 0.0000 0.0000 0.0000 0.0000 23.1183 0.0000
# 6 0.0000 0.0000 0.0000 0.0000 0.0000 21.5254
#
#
#
# Elastic Compliance Matrix: (Units=1/GPa)
#
#
# Indices 1 2 3 4 5 6 
#
# 1 0.046432 -0.027389 -0.002978 0.000000 0.000000 0.000000
# 2 -0.027389 0.068394 -0.015375 0.000000 0.000000 0.000000
# 3 -0.002978 -0.015375 0.010067 0.000000 0.000000 0.000000
# 4 0.000000 0.000000 0.000000 0.000098 0.000000 0.000000
# 5 0.000000 0.000000 0.000000 0.000000 0.043256 0.000000
# 6 0.000000 0.000000 0.000000 0.000000 0.000000 0.046457
#
#
# Mechanical properties :
#
#
# Convention : Reuss Voigt Hill
#
# Bulk Modulus (GPa) = 29.93269 73.38607 51.65938
# Shear Modulus (GPa) = 15.75678 2057.98143 1036.86911
#
# Velocity S-wave (km/s) = 2.96894 33.93040 24.08409
# Velocity P-wave (km/s) = 5.33833 39.69991 28.32473
#
# Compressibility (1/GPa) = 0.03340829
#
# Stress axis : x y z
#
# Youngs Moduli (GPa) = 21.53667 14.62126 99.33862
#
# Poissons Ratio (x) = 0.40046 0.29585
# Poissons Ratio (y) = 0.58986 1.52735
# Poissons Ratio (z) = 0.06414 0.22480
#
# Static dielectric constant tensor:
#      x y z
#    x 1.605380 0.000000 0.000000 
#    y 0.000000 1.582130 0.000000 
#    z 0.000000 0.000000 1.659560 
# 
# From -- ./inp_files/72909.got.cif
#   From: 2010.05.17/outbox.cif.g08.bks.cpg/sg65_37_cif.got.tgz:72909.got - 2010.06.03 17:01:31.
