data_PCOD9485331
_publ_section_title
;
Structure prediction by ZEFSAII (Michael W. Deem and Ramdas Pophale) SiO2 
 PCOD9485331
Probable space group: C M M M
;
_chemical_formula_sum "Si O2"
_cell_formula_units_Z 128
_cell_length_a 22.345160
_cell_length_b 16.389952
_cell_length_c 19.405290
_cell_angle_alpha 90.000000
_cell_angle_beta 90.000000
_cell_angle_gamma 90.000000
_cell_volume 7106.917726
_symmetry_space_group_name_H-M "C M M M"
_symmetry_group_IT_number 65
_symmetry_cell_setting 'orthorhombic'
loop_
_space_group_symop_operation_xyz
x,y,z
-x,-y,z
x,-y,-z
-x,y,-z
-x,-y,-z
x,y,-z
-x,y,z
x,-y,z
1/2+x,1/2+y,z
1/2-x,1/2-y,z
1/2+x,1/2-y,-z
1/2-x,1/2+y,-z
1/2-x,1/2-y,-z
1/2+x,1/2+y,-z
1/2-x,1/2+y,z
1/2+x,1/2-y,z
loop_
_atom_site_type_symbol
_atom_site_label
_atom_site_fract_x
_atom_site_fract_y
_atom_site_fract_z
Si Si1 0.393813 0.403977 0.575239
Si Si2 0.662539 0.842861 0.316959
Si Si3 0.882054 0.835815 0.718558
Si Si4 0.749922 0.094575 0.421249
Si Si5 0.242767 0.151788 0.781477
Si Si6 0.191132 0.098200 0.923450
Si Si7 0.567428 0.902583 0.423785
Si Si8 0.433410 0.597617 0.855971
O O1 0.413855 0.371390 0.500000
O O2 0.408045 0.500000 0.576306
O O3 0.411896 0.365773 0.647723
O O4 0.321381 0.395987 0.577542
O O5 0.634813 0.757911 0.292887
O O6 0.717078 0.841748 0.372218
O O7 0.696669 0.883133 0.252097
O O8 0.611080 0.884405 0.361274
O O9 0.816936 0.875405 0.739184
O O10 0.922398 0.855890 0.784232
O O11 0.729149 0.103427 0.500000
O O12 0.736683 0.000000 0.400284
O O13 0.250000 0.250000 0.774999
O O14 0.230653 0.130916 0.860574
O O15 0.121906 0.118708 0.905585
O O16 0.195483 0.000000 0.922732
O O17 0.206992 0.127361 0.000000
O O18 0.586865 0.871958 0.500000
O O19 0.500000 0.871802 0.411540
O O20 0.564707 0.000000 0.428774
O O21 0.500000 0.614351 0.883121
O O22 0.429468 0.500000 0.842559
#
# Coordination Sequence:
#
# PCOD9485331 Si02
#       8
#    16  16  16  16  16  16  16  16
#     4   9  17  28  41  58  84 120 157 192 234 278
#     4  11  19  28  46  68  92 121 159 193 229 277
#     4  10  19  31  44  64  97 123 152 195 236 269
#     4   9  17  27  40  61  87 117 155 194 233 278
#     4   9  19  32  44  67  99 130 153 178 216 275
#     4   9  18  32  51  76 102 123 145 180 224 267
#     4   9  19  35  50  64  87 120 159 204 251 292
#     4   9  18  33  53  72  90 120 157 188 225 272
#
# _framework density 18.010621
#
# number of rings (size 3 to 8) (size 9 to 14) (size 15 to 20)
#    0.000    2.625    1.250    2.250    0.000    4.500 
#    0.000    2.500    0.000    0.375    0.000    1.750 
#    0.000    0.500    0.000    2.750    0.000    0.000 
#
# Total GULP energy -356404.973132 kJ/mol
# GULP energy per Si atom -5568.827705 kJ/mol
# Density = 1.796963 g / cm^3
# Si number density = 18.010621 Si / 1000 Ang^3
#
#
#
# Elastic Constant Matrix: (Units=GPa)
#
#
# Indices 1 2 3 4 5 6 
#
# 1 59.9189 5.2478 30.5304 0.0000 0.0000 0.0000
# 2 5.2478 11.7435 10.8470 0.0000 0.0000 0.0000
# 3 30.5304 10.8470 123.2539 0.0000 0.0000 0.0000
# 4 0.0000 0.0000 0.0000 46.3755 0.0000 0.0000
# 5 0.0000 0.0000 0.0000 0.0000 -54.4269 0.0000
# 6 0.0000 0.0000 0.0000 0.0000 0.0000 -24.5195
#
#
#
# Elastic Compliance Matrix: (Units=1/GPa)
#
#
# Indices 1 2 3 4 5 6 
#
# 1 0.019324 -0.004587 -0.004383 0.000000 0.000000 0.000000
# 2 -0.004587 0.093776 -0.007117 0.000000 0.000000 0.000000
# 3 -0.004383 -0.007117 0.009825 0.000000 0.000000 0.000000
# 4 0.000000 0.000000 0.000000 0.021563 0.000000 0.000000
# 5 0.000000 0.000000 0.000000 0.000000 -0.018373 0.000000
# 6 0.000000 0.000000 0.000000 0.000000 0.000000 -0.040784
#
#
# Mechanical properties :
#
#
# Convention : Reuss Voigt Hill
#
# Bulk Modulus (GPa) = 11.01897 32.01854 21.51875
# Shear Modulus (GPa) = 33.83963 3.37190 18.60577
#
# Velocity S-wave (km/s) = 4.33930 1.36976 3.21759
# Velocity P-wave (km/s) = 5.58904 4.50753 5.07716
#
# Compressibility (1/GPa) = 0.09075258
#
# Stress axis : x y z
#
# Youngs Moduli (GPa) = 51.74850 10.66368 101.77789
#
# Poissons Ratio (x) = 0.04891 0.44609
# Poissons Ratio (y) = 0.23737 0.72431
# Poissons Ratio (z) = 0.22681 0.07589
#
# Static dielectric constant tensor:
#      x y z
#    x 1.657310 0.000000 0.000000 
#    y 0.000000 1.626440 0.000000 
#    z 0.000000 0.000000 1.642380 
# 
# From -- ./inp_files/57007.got.cif
#   From: 2010.05.17/outbox.cif.g08.bks.cpg/sg65_29_cif.got.tgz:57007.got - 2010.06.03 17:01:31.
