data_PCOD9485039
_publ_section_title
;
Structure prediction by ZEFSAII (Michael W. Deem and Ramdas Pophale) SiO2 
 PCOD9485039
Probable space group: C M M M
;
_chemical_formula_sum "Si O2"
_cell_formula_units_Z 88
_cell_length_a 8.808143
_cell_length_b 29.035867
_cell_length_c 21.647361
_cell_angle_alpha 90.000000
_cell_angle_beta 90.000000
_cell_angle_gamma 90.000000
_cell_volume 5536.357357
_symmetry_space_group_name_H-M "C M M M"
_symmetry_group_IT_number 65
_symmetry_cell_setting 'orthorhombic'
loop_
_space_group_symop_operation_xyz
x,y,z
-x,-y,z
x,-y,-z
-x,y,-z
-x,-y,-z
x,y,-z
-x,y,z
x,-y,z
1/2+x,1/2+y,z
1/2-x,1/2-y,z
1/2+x,1/2-y,-z
1/2-x,1/2+y,-z
1/2-x,1/2-y,-z
1/2+x,1/2+y,-z
1/2-x,1/2+y,z
1/2+x,1/2-y,z
loop_
_atom_site_type_symbol
_atom_site_label
_atom_site_fract_x
_atom_site_fract_y
_atom_site_fract_z
Si Si1 0.182236 0.198565 0.305842
Si Si2 0.828410 0.944096 0.000000
Si Si3 0.317171 0.361184 0.186290
Si Si4 0.816913 0.801144 0.068758
Si Si5 0.181173 0.553252 0.130432
Si Si6 0.182006 0.698333 0.567621
O O1 0.250000 0.250000 0.297810
O O2 0.223799 0.166995 0.247610
O O3 0.245994 0.178240 0.370211
O O4 0.000000 0.202246 0.309307
O O5 0.745535 0.931965 0.063387
O O6 0.000000 0.925566 0.000000
O O7 0.834838 0.000000 0.000000
O O8 0.500000 0.364994 0.184343
O O9 0.267023 0.332464 0.125761
O O10 0.246160 0.411519 0.180262
O O11 0.750000 0.750000 0.075316
O O12 0.000000 0.798286 0.070943
O O13 0.774348 0.818527 0.000000
O O14 0.227147 0.500000 0.140891
O O15 0.000000 0.555100 0.128815
O O16 0.216881 0.677301 0.500000
O O17 0.500000 0.799239 0.573792
O O18 0.250000 0.750000 0.565865
#
# Coordination Sequence:
#
# PCOD9485039 Si02
#       6
#    16   8  16  16  16  16
#     4  10  19  30  45  67  96 127 161 196 228 270
#     4   9  17  31  51  69  86 111 140 177 231 287
#     4  10  21  33  47  68  91 121 158 191 230 281
#     4   9  18  32  47  63  85 114 151 192 227 265
#     4  10  21  35  50  70  93 115 147 193 239 284
#     4   9  16  26  42  64  90 122 158 191 226 270
#
# _framework density 15.894928
#
# number of rings (size 3 to 8) (size 9 to 14) (size 15 to 20)
#    0.000    2.455    0.000    3.545    1.273    5.455 
#    0.000    0.000    0.000    0.000    0.000    0.000 
#    0.000    0.727    0.000    8.000    0.000    5.818 
#
# Total GULP energy -245327.133853 kJ/mol
# GULP energy per Si atom -5575.616678 kJ/mol
# Density = 1.585875 g / cm^3
# Si number density = 15.894928 Si / 1000 Ang^3
#
#
#
# Elastic Constant Matrix: (Units=GPa)
#
#
# Indices 1 2 3 4 5 6 
#
# 1 39.5811 26.7749 45.4079 0.0000 0.0000 0.0000
# 2 26.7749 67.7635 63.4861 0.0000 0.0000 0.0000
# 3 45.4079 63.4861 146.6467 0.0000 0.0000 0.0000
# 4 0.0000 0.0000 0.0000 10.6908 0.0000 0.0000
# 5 0.0000 0.0000 0.0000 0.0000 22.8190 0.0000
# 6 0.0000 0.0000 0.0000 0.0000 0.0000 20.8827
#
#
#
# Elastic Compliance Matrix: (Units=1/GPa)
#
#
# Indices 1 2 3 4 5 6 
#
# 1 0.041214 -0.007282 -0.009609 0.000000 0.000000 0.000000
# 2 -0.007282 0.026113 -0.009050 0.000000 0.000000 0.000000
# 3 -0.009609 -0.009050 0.013712 0.000000 0.000000 0.000000
# 4 0.000000 0.000000 0.000000 0.093538 0.000000 0.000000
# 5 0.000000 0.000000 0.000000 0.000000 0.043823 0.000000
# 6 0.000000 0.000000 0.000000 0.000000 0.000000 0.047887
#
#
# Mechanical properties :
#
#
# Convention : Reuss Voigt Hill
#
# Bulk Modulus (GPa) = 34.29658 58.36988 46.33323
# Shear Modulus (GPa) = 15.24901 18.76665 17.00783
#
# Velocity S-wave (km/s) = 3.10072 3.43981 3.27466
# Velocity P-wave (km/s) = 5.86883 7.25110 6.59627
#
# Compressibility (1/GPa) = 0.02915742
#
# Stress axis : x y z
#
# Youngs Moduli (GPa) = 24.26341 38.29454 72.92658
#
# Poissons Ratio (x) = 0.27887 0.70076
# Poissons Ratio (y) = 0.17669 0.65999
# Poissons Ratio (z) = 0.23315 0.34657
#
# Static dielectric constant tensor:
#      x y z
#    x 1.534210 0.000000 0.000000 
#    y 0.000000 1.524440 0.000000 
#    z 0.000000 0.000000 1.562060 
# 
# From -- ./inp_files/60301.got.cif
#   From: 2010.05.17/outbox.cif.g08.bks.cpg/sg65_31_cif.got.tgz:60301.got - 2010.06.03 17:01:31.
