data_PCOD9485123
_publ_section_title
;
Structure prediction by ZEFSAII (Michael W. Deem and Ramdas Pophale) SiO2 
 PCOD9485123
Probable space group: C M M M
;
_chemical_formula_sum "Si O2"
_cell_formula_units_Z 88
_cell_length_a 25.762718
_cell_length_b 20.860851
_cell_length_c 9.311921
_cell_angle_alpha 90.000000
_cell_angle_beta 90.000000
_cell_angle_gamma 90.000000
_cell_volume 5004.526390
_symmetry_space_group_name_H-M "C M M M"
_symmetry_group_IT_number 65
_symmetry_cell_setting 'orthorhombic'
loop_
_space_group_symop_operation_xyz
x,y,z
-x,-y,z
x,-y,-z
-x,y,-z
-x,-y,-z
x,y,-z
-x,y,z
x,-y,z
1/2+x,1/2+y,z
1/2-x,1/2-y,z
1/2+x,1/2-y,-z
1/2-x,1/2+y,-z
1/2-x,1/2-y,-z
1/2+x,1/2+y,-z
1/2-x,1/2+y,z
1/2+x,1/2-y,z
loop_
_atom_site_type_symbol
_atom_site_label
_atom_site_fract_x
_atom_site_fract_y
_atom_site_fract_z
Si Si1 0.801338 0.291067 0.671713
Si Si2 0.663022 0.929496 0.328200
Si Si3 0.063506 0.000000 0.165372
Si Si4 0.904711 0.750673 0.169287
Si Si5 0.557851 0.108001 0.170259
Si Si6 0.561939 0.624460 0.337879
O O1 0.811618 0.285208 0.500000
O O2 0.750000 0.250000 0.702173
O O3 0.801507 0.367467 0.706048
O O4 0.848655 0.263320 0.763047
O O5 0.655519 0.928341 0.500000
O O6 0.606845 0.920512 0.254037
O O7 0.683862 0.000000 0.288580
O O8 0.081370 0.936718 0.249096
O O9 0.000000 0.000000 0.165005
O O10 0.079962 0.000000 0.000000
O O11 0.937080 0.685020 0.187662
O O12 0.927758 0.810442 0.253495
O O13 0.901866 0.764104 0.000000
O O14 0.500000 0.087406 0.216302
O O15 0.563066 0.094112 0.000000
O O16 0.583156 0.626630 0.500000
O O17 0.500000 0.616657 0.348252
#
# Coordination Sequence:
#
# PCOD9485123 Si02
#       6
#    16  16   8  16  16  16
#     4   9  18  34  55  74  94 124 162 207 255 307
#     4   9  18  32  50  73  99 127 162 203 247 297
#     4   9  17  29  45  65  91 127 167 203 243 291
#     4  10  19  31  49  72  97 127 163 206 251 297
#     4   9  18  31  46  68 100 135 169 201 235 283
#     4  10  19  30  46  69  98 131 167 205 245 295
#
# _framework density 17.584081999999999
#
# number of rings (size 3 to 8) (size 9 to 14) (size 15 to 20)
#    0.000    2.636    0.000    1.909    0.000    5.091 
#    0.000    1.818    2.000    0.000    0.000    0.000 
#    0.000    0.000    0.000    0.000    0.000    0.000 
#
# Total GULP energy -245197.573022 kJ/mol
# GULP energy per Si atom -5572.672114 kJ/mol
# Density = 1.754406 g / cm^3
# Si number density = 17.584082 Si / 1000 Ang^3
#
#
#
# Elastic Constant Matrix: (Units=GPa)
#
#
# Indices 1 2 3 4 5 6 
#
# 1 52.5076 21.4474 17.0643 0.0000 0.0000 0.0000
# 2 21.4474 112.7299 44.2930 0.0000 0.0000 0.0000
# 3 17.0643 44.2930 65.9561 0.0000 0.0000 0.0000
# 4 0.0000 0.0000 0.0000 22.5506 0.0000 0.0000
# 5 0.0000 0.0000 0.0000 0.0000 19.8527 0.0000
# 6 0.0000 0.0000 0.0000 0.0000 0.0000 11.2880
#
#
#
# Elastic Compliance Matrix: (Units=1/GPa)
#
#
# Indices 1 2 3 4 5 6 
#
# 1 0.021326 -0.002567 -0.003794 0.000000 0.000000 0.000000
# 2 -0.002567 0.012359 -0.007636 0.000000 0.000000 0.000000
# 3 -0.003794 -0.007636 0.021271 0.000000 0.000000 0.000000
# 4 0.000000 0.000000 0.000000 0.044345 0.000000 0.000000
# 5 0.000000 0.000000 0.000000 0.000000 0.050371 0.000000
# 6 0.000000 0.000000 0.000000 0.000000 0.000000 0.088589
#
#
# Mechanical properties :
#
#
# Convention : Reuss Voigt Hill
#
# Bulk Modulus (GPa) = 37.08695 44.08921 40.58808
# Shear Modulus (GPa) = 18.16579 20.63086 19.39833
#
# Velocity S-wave (km/s) = 3.21765 3.42902 3.32501
# Velocity P-wave (km/s) = 5.91112 6.38791 6.15413
#
# Compressibility (1/GPa) = 0.02696366
#
# Stress axis : x y z
#
# Youngs Moduli (GPa) = 46.89056 80.91061 47.01226
#
# Poissons Ratio (x) = 0.20768 0.17836
# Poissons Ratio (y) = 0.12036 0.35898
# Poissons Ratio (z) = 0.17790 0.61782
#
# Static dielectric constant tensor:
#      x y z
#    x 1.574150 0.000000 0.000000 
#    y 0.000000 1.623000 0.000000 
#    z 0.000000 0.000000 1.589600 
# 
# From -- ./inp_files/11788.got.cif
#   From: 2010.05.17/outbox.cif.g08.bks.cpg/sg65_6_cif.got.tgz:11788.got - 2010.06.03 17:01:31.
