data_PCOD9485656
_publ_section_title
;
Structure prediction by ZEFSAII (Michael W. Deem and Ramdas Pophale) SiO2 
 PCOD9485656
Probable space group: C M M M
;
_chemical_formula_sum "Si O2"
_cell_formula_units_Z 96
_cell_length_a 13.851504
_cell_length_b 16.495811
_cell_length_c 24.735310
_cell_angle_alpha 90.000000
_cell_angle_beta 90.000000
_cell_angle_gamma 90.000000
_cell_volume 5651.815309
_symmetry_space_group_name_H-M "C M M M"
_symmetry_group_IT_number 65
_symmetry_cell_setting 'orthorhombic'
loop_
_space_group_symop_operation_xyz
x,y,z
-x,-y,z
x,-y,-z
-x,y,-z
-x,-y,-z
x,y,-z
-x,y,z
x,-y,z
1/2+x,1/2+y,z
1/2-x,1/2-y,z
1/2+x,1/2-y,-z
1/2-x,1/2+y,-z
1/2-x,1/2-y,-z
1/2+x,1/2+y,-z
1/2-x,1/2+y,z
1/2+x,1/2-y,z
loop_
_atom_site_type_symbol
_atom_site_label
_atom_site_fract_x
_atom_site_fract_y
_atom_site_fract_z
Si Si1 0.882686 0.906845 0.500000
Si Si2 0.736683 0.908529 0.103109
Si Si3 0.888754 0.902141 0.381991
Si Si4 0.228557 0.154463 0.279513
Si Si5 0.112170 0.598785 0.000000
Si Si6 0.610853 0.871377 0.797408
Si Si7 0.388618 0.320415 0.174160
O O1 0.856886 0.870977 0.441516
O O2 0.000000 0.909601 0.500000
O O3 0.847653 0.000000 0.500000
O O4 0.674057 0.877353 0.052587
O O5 0.662759 0.914113 0.153040
O O6 0.822030 0.851097 0.125055
O O7 0.772604 0.000000 0.090924
O O8 0.818404 0.877382 0.333989
O O9 0.000000 0.875599 0.371489
O O10 0.891050 0.000000 0.385161
O O11 0.250000 0.250000 0.285567
O O12 0.327765 0.116636 0.257045
O O13 0.154415 0.142184 0.229479
O O14 0.108089 0.500000 0.000000
O O15 0.000000 0.626798 0.000000
O O16 0.500000 0.893177 0.791336
O O17 0.617668 0.776011 0.814755
O O18 0.500000 0.341926 0.166086
#
# Coordination Sequence:
#
# PCOD9485656 Si02
#       7
#     8  16  16  16   8  16  16
#     4   7  12  24  41  62  89 119 147 179 224 271
#     4  10  19  31  49  71  91 113 148 189 224 262
#     4   9  16  27  45  68  92 117 148 187 228 269
#     4   9  17  28  43  66  92 119 148 179 219 270
#     4   9  18  32  48  67  93 123 151 182 224 268
#     4   9  18  33  49  64  88 122 152 180 219 265
#     4   9  18  33  49  65  91 123 148 175 221 277
#
# _framework density 16.985693999999999
#
# number of rings (size 3 to 8) (size 9 to 14) (size 15 to 20)
#    0.000    3.000    0.000    3.500    0.000    4.667 
#    0.000    2.500    0.000    3.500    0.000    0.583 
#    0.000    2.000    0.000    0.000    0.000    0.000 
#
# Total GULP energy -267220.433144 kJ/mol
# GULP energy per Si atom -5567.092357 kJ/mol
# Density = 1.694703 g / cm^3
# Si number density = 16.985694 Si / 1000 Ang^3
#
#
#
# Elastic Constant Matrix: (Units=GPa)
#
#
# Indices 1 2 3 4 5 6 
#
# 1 126.8097 23.3518 65.1342 0.0000 0.0000 0.0000
# 2 23.3518 16.0588 16.2159 0.0000 0.0000 0.0000
# 3 65.1342 16.2159 133.0467 0.0000 0.0000 0.0000
# 4 0.0000 0.0000 0.0000 20.4194 0.0000 0.0000
# 5 0.0000 0.0000 0.0000 0.0000 24.6167 0.0000
# 6 0.0000 0.0000 0.0000 0.0000 0.0000 18.7258
#
#
#
# Elastic Compliance Matrix: (Units=1/GPa)
#
#
# Indices 1 2 3 4 5 6 
#
# 1 0.012812 -0.014023 -0.004563 0.000000 0.000000 0.000000
# 2 -0.014023 0.086358 -0.003661 0.000000 0.000000 0.000000
# 3 -0.004563 -0.003661 0.010196 0.000000 0.000000 0.000000
# 4 0.000000 0.000000 0.000000 0.048973 0.000000 0.000000
# 5 0.000000 0.000000 0.000000 0.000000 0.040623 0.000000
# 6 0.000000 0.000000 0.000000 0.000000 0.000000 0.053402
#
#
# Mechanical properties :
#
#
# Convention : Reuss Voigt Hill
#
# Bulk Modulus (GPa) = 15.41447 53.92432 34.66939
# Shear Modulus (GPa) = 15.69949 24.16660 19.93305
#
# Velocity S-wave (km/s) = 3.04349 3.77604 3.42938
# Velocity P-wave (km/s) = 4.63089 7.12932 6.01133
#
# Compressibility (1/GPa) = 0.06487412
#
# Stress axis : x y z
#
# Youngs Moduli (GPa) = 78.05300 11.57964 98.07569
#
# Poissons Ratio (x) = 0.16238 0.44753
# Poissons Ratio (y) = 1.09450 0.35902
# Poissons Ratio (z) = 0.35616 0.04239
#
# Static dielectric constant tensor:
#      x y z
#    x 1.574470 0.000000 0.000000 
#    y 0.000000 1.617950 0.000000 
#    z 0.000000 0.000000 1.584050 
# 
# From -- ./inp_files/69890.got.cif
#   From: 2010.05.17/outbox.cif.g08.bks.cpg/sg65_35_cif.got.tgz:69890.got - 2010.06.03 17:01:31.
