data_PCOD9485915
_publ_section_title
;
Structure prediction by ZEFSAII (Michael W. Deem and Ramdas Pophale) SiO2 
 PCOD9485915
Probable space group: C M M M
;
_chemical_formula_sum "Si O2"
_cell_formula_units_Z 88
_cell_length_a 17.220039
_cell_length_b 21.923298
_cell_length_c 13.026086
_cell_angle_alpha 90.000000
_cell_angle_beta 90.000000
_cell_angle_gamma 90.000000
_cell_volume 4917.608593
_symmetry_space_group_name_H-M "C M M M"
_symmetry_group_IT_number 65
_symmetry_cell_setting 'orthorhombic'
loop_
_space_group_symop_operation_xyz
x,y,z
-x,-y,z
x,-y,-z
-x,y,-z
-x,-y,-z
x,y,-z
-x,y,z
x,-y,z
1/2+x,1/2+y,z
1/2-x,1/2-y,z
1/2+x,1/2-y,-z
1/2-x,1/2+y,-z
1/2-x,1/2-y,-z
1/2+x,1/2+y,-z
1/2-x,1/2+y,z
1/2+x,1/2-y,z
loop_
_atom_site_type_symbol
_atom_site_label
_atom_site_fract_x
_atom_site_fract_y
_atom_site_fract_z
Si Si1 0.907167 0.500000 0.622950
Si Si2 0.409044 0.234591 0.385893
Si Si3 0.755657 0.822976 0.117357
Si Si4 0.412782 0.658915 0.778566
Si Si5 0.314148 0.881034 0.316580
Si Si6 0.352701 0.427436 0.384805
O O1 0.890585 0.500000 0.500000
O O2 0.868470 0.560012 0.671749
O O3 0.000000 0.500000 0.635825
O O4 0.395232 0.260311 0.500000
O O5 0.500000 0.216679 0.380142
O O6 0.395771 0.284428 0.298224
O O7 0.355732 0.176113 0.369547
O O8 0.750000 0.750000 0.135050
O O9 0.844987 0.841404 0.138259
O O10 0.705209 0.859567 0.200722
O O11 0.733073 0.835106 0.000000
O O12 0.500000 0.664840 0.818953
O O13 0.405248 0.600766 0.704078
O O14 0.232124 0.897658 0.368712
O O15 0.381457 0.414487 0.500000
O O16 0.344982 0.500000 0.374091
#
# Coordination Sequence:
#
# PCOD9485915 Si02
#       6
#     8  16  16  16  16  16
#     4  11  22  36  59  89 124 163 193 223 273 345
#     4  10  19  31  50  80 118 151 180 221 276 338
#     4  10  21  40  62  83 107 143 191 241 294 341
#     4  10  21  36  55  82 111 142 184 232 284 337
#     4  11  20  35  56  82 113 153 192 236 277 332
#     4  10  20  33  52  78 112 153 189 221 263 327
#
# _framework density 17.894877000000001
#
# number of rings (size 3 to 8) (size 9 to 14) (size 15 to 20)
#    0.000    1.727    2.727    2.727    0.000    3.273 
#    0.000    4.091    0.000    2.727    0.000    2.545 
#    0.000    0.000    0.000    0.000    0.000    0.000 
#
# Total GULP energy -245652.715295 kJ/mol
# GULP energy per Si atom -5583.016257 kJ/mol
# Density = 1.785415 g / cm^3
# Si number density = 17.894877 Si / 1000 Ang^3
#
#
#
# Elastic Constant Matrix: (Units=GPa)
#
#
# Indices 1 2 3 4 5 6 
#
# 1 56.8334 19.6779 22.4035 0.0000 0.0000 0.0000
# 2 19.6779 79.3597 27.2637 0.0000 0.0000 0.0000
# 3 22.4035 27.2637 89.9594 0.0000 0.0000 0.0000
# 4 0.0000 0.0000 0.0000 21.2401 0.0000 0.0000
# 5 0.0000 0.0000 0.0000 0.0000 15.5747 0.0000
# 6 0.0000 0.0000 0.0000 0.0000 0.0000 28.7691
#
#
#
# Elastic Compliance Matrix: (Units=1/GPa)
#
#
# Indices 1 2 3 4 5 6 
#
# 1 0.020442 -0.003706 -0.003968 0.000000 0.000000 0.000000
# 2 -0.003706 0.014737 -0.003543 0.000000 0.000000 0.000000
# 3 -0.003968 -0.003543 0.013178 0.000000 0.000000 0.000000
# 4 0.000000 0.000000 0.000000 0.047081 0.000000 0.000000
# 5 0.000000 0.000000 0.000000 0.000000 0.064207 0.000000
# 6 0.000000 0.000000 0.000000 0.000000 0.000000 0.034760
#
#
# Mechanical properties :
#
#
# Convention : Reuss Voigt Hill
#
# Bulk Modulus (GPa) = 38.57492 40.53807 39.55650
# Shear Modulus (GPa) = 22.17492 23.57061 22.87276
#
# Velocity S-wave (km/s) = 3.52401 3.63322 3.57903
# Velocity P-wave (km/s) = 6.17749 6.34847 6.26356
#
# Compressibility (1/GPa) = 0.02592358
#
# Stress axis : x y z
#
# Youngs Moduli (GPa) = 48.91774 67.85618 75.88297
#
# Poissons Ratio (x) = 0.25146 0.30110
# Poissons Ratio (y) = 0.18128 0.26889
# Poissons Ratio (z) = 0.19410 0.24044
#
# Static dielectric constant tensor:
#      x y z
#    x 1.615090 0.000000 0.000000 
#    y 0.000000 1.601230 0.000000 
#    z 0.000000 0.000000 1.587460 
# 
# From -- ./inp_files/26796.got.cif
#   From: 2010.05.17/outbox.cif.g08.bks.cpg/sg65_14_cif.got.tgz:26796.got - 2010.06.03 17:01:31.
