data_PCOD9485036
_publ_section_title
;
Structure prediction by ZEFSAII (Michael W. Deem and Ramdas Pophale) SiO2 
 PCOD9485036
Probable space group: C M M M
;
_chemical_formula_sum "Si O2"
_cell_formula_units_Z 80
_cell_length_a 27.324657
_cell_length_b 15.351982
_cell_length_c 11.892736
_cell_angle_alpha 90.000000
_cell_angle_beta 90.000000
_cell_angle_gamma 90.000000
_cell_volume 4988.855787
_symmetry_space_group_name_H-M "C M M M"
_symmetry_group_IT_number 65
_symmetry_cell_setting 'orthorhombic'
loop_
_space_group_symop_operation_xyz
x,y,z
-x,-y,z
x,-y,-z
-x,y,-z
-x,-y,-z
x,y,-z
-x,y,z
x,-y,z
1/2+x,1/2+y,z
1/2-x,1/2-y,z
1/2+x,1/2-y,-z
1/2-x,1/2+y,-z
1/2-x,1/2-y,-z
1/2+x,1/2+y,-z
1/2-x,1/2+y,z
1/2+x,1/2-y,z
loop_
_atom_site_type_symbol
_atom_site_label
_atom_site_fract_x
_atom_site_fract_y
_atom_site_fract_z
Si Si1 0.830375 0.900769 0.756336
Si Si2 0.212386 0.404395 0.251689
Si Si3 0.943778 0.598535 0.636589
Si Si4 0.202813 0.641103 0.000000
Si Si5 0.358576 0.228770 0.365350
Si Si6 0.320814 0.336515 0.000000
O O1 0.771144 0.893870 0.744671
O O2 0.855229 0.825758 0.683233
O O3 0.840394 0.879919 0.887122
O O4 0.844016 0.000000 0.728355
O O5 0.200386 0.500000 0.299340
O O6 0.186875 0.326668 0.317539
O O7 0.194749 0.401772 0.121447
O O8 0.943271 0.597998 0.500000
O O9 0.929670 0.500000 0.672403
O O10 0.906145 0.673142 0.671922
O O11 0.000000 0.614096 0.671266
O O12 0.261795 0.652947 0.000000
O O13 0.174074 0.732412 0.000000
O O14 0.357124 0.230980 0.500000
#
# Coordination Sequence:
#
# PCOD9485036 Si02
#       6
#    16  16  16   8  16   8
#     4  10  20  32  46  65  92 127 163 197 229 262
#     4  10  19  30  45  67  95 126 158 192 231 271
#     4   8  15  30  51  71  89 112 147 191 234 274
#     4   9  15  27  47  66  87 116 155 203 240 261
#     4  11  21  31  45  67  96 126 156 187 224 278
#     4   9  15  29  49  64  83 117 162 205 235 256
#
# _framework density 16.035741000000002
#
# number of rings (size 3 to 8) (size 9 to 14) (size 15 to 20)
#    0.000    2.400    2.000    2.400    0.000    5.600 
#    0.000    2.000    0.000    0.600    0.000    5.600 
#    0.000    9.600    0.000    0.000    0.000    0.000 
#
# Total GULP energy -222812.448918 kJ/mol
# GULP energy per Si atom -5570.311223 kJ/mol
# Density = 1.599924 g / cm^3
# Si number density = 16.035741 Si / 1000 Ang^3
#
#
#
# Elastic Constant Matrix: (Units=GPa)
#
#
# Indices 1 2 3 4 5 6 
#
# 1 44.7607 47.4202 19.4600 0.0000 0.0000 0.0000
# 2 47.4202 159.0142 44.4559 0.0000 0.0000 0.0000
# 3 19.4600 44.4559 60.8920 0.0000 0.0000 0.0000
# 4 0.0000 0.0000 0.0000 17.7616 0.0000 0.0000
# 5 0.0000 0.0000 0.0000 0.0000 -9.4208 0.0000
# 6 0.0000 0.0000 0.0000 0.0000 0.0000 19.7331
#
#
#
# Elastic Compliance Matrix: (Units=1/GPa)
#
#
# Indices 1 2 3 4 5 6 
#
# 1 0.033528 -0.008799 -0.004291 0.000000 0.000000 0.000000
# 2 -0.008799 0.010211 -0.004643 0.000000 0.000000 0.000000
# 3 -0.004291 -0.004643 0.021183 0.000000 0.000000 0.000000
# 4 0.000000 0.000000 0.000000 0.056301 0.000000 0.000000
# 5 0.000000 0.000000 0.000000 0.000000 -0.106148 0.000000
# 6 0.000000 0.000000 0.000000 0.000000 0.000000 0.050676
#
#
# Mechanical properties :
#
#
# Convention : Reuss Voigt Hill
#
# Bulk Modulus (GPa) = 33.94778 54.14879 44.04829
# Shear Modulus (GPa) = 45.03039 15.83683 30.43361
#
# Velocity S-wave (km/s) = 5.30492 3.14601 4.36117
# Velocity P-wave (km/s) = 7.66414 6.85838 7.27243
#
# Compressibility (1/GPa) = 0.02945700
#
# Stress axis : x y z
#
# Youngs Moduli (GPa) = 29.82547 97.93705 47.20693
#
# Poissons Ratio (x) = 0.86174 0.20257
# Poissons Ratio (y) = 0.26243 0.21916
# Poissons Ratio (z) = 0.12799 0.45468
#
# Static dielectric constant tensor:
#      x y z
#    x 1.524460 0.000000 0.000000 
#    y 0.000000 1.559340 0.000000 
#    z 0.000000 0.000000 1.542660 
# 
# From -- ./inp_files/32148.got.cif
#   From: 2010.05.17/outbox.cif.g08.bks.cpg/sg65_17_cif.got.tgz:32148.got - 2010.06.03 17:01:31.
