data_PCOD9485073
_publ_section_title
;
Structure prediction by ZEFSAII (Michael W. Deem and Ramdas Pophale) SiO2 
 PCOD9485073
Probable space group: C M M M
;
_chemical_formula_sum "Si O2"
_cell_formula_units_Z 88
_cell_length_a 18.527990
_cell_length_b 7.360845
_cell_length_c 30.408624
_cell_angle_alpha 90.000000
_cell_angle_beta 90.000000
_cell_angle_gamma 90.000000
_cell_volume 4147.178697
_symmetry_space_group_name_H-M "C M M M"
_symmetry_group_IT_number 65
_symmetry_cell_setting 'orthorhombic'
loop_
_space_group_symop_operation_xyz
x,y,z
-x,-y,z
x,-y,-z
-x,y,-z
-x,-y,-z
x,y,-z
-x,y,z
x,-y,z
1/2+x,1/2+y,z
1/2-x,1/2-y,z
1/2+x,1/2-y,-z
1/2-x,1/2+y,-z
1/2-x,1/2-y,-z
1/2+x,1/2+y,-z
1/2-x,1/2+y,z
1/2+x,1/2-y,z
loop_
_atom_site_type_symbol
_atom_site_label
_atom_site_fract_x
_atom_site_fract_y
_atom_site_fract_z
Si Si1 0.836599 0.782612 0.500000
Si Si2 0.665210 0.716705 0.864789
Si Si3 0.083934 0.778813 0.951115
Si Si4 0.916603 0.222204 0.777554
Si Si5 0.664300 0.282757 0.690374
Si Si6 0.663616 0.717037 0.405310
O O1 0.750000 0.750000 0.500000
O O2 0.863929 0.713110 0.452627
O O3 0.847291 0.000000 0.500000
O O4 0.653937 0.500000 0.865203
O O5 0.750000 0.750000 0.862413
O O6 0.631218 0.786136 0.910304
O O7 0.625145 0.784475 0.821133
O O8 0.000000 0.728320 0.945099
O O9 0.085996 0.000000 0.951305
O O10 0.107310 0.719959 0.000000
O O11 0.877841 0.284981 0.732938
O O12 0.000000 0.275217 0.778852
O O13 0.914372 0.000000 0.777348
O O14 0.654597 0.500000 0.689284
O O15 0.750000 0.250000 0.695004
O O16 0.638999 0.213158 0.642369
O O17 0.652073 0.500000 0.405519
O O18 0.750000 0.750000 0.405303
#
# Coordination Sequence:
#
# PCOD9485073 Si02
#       6
#     8  16  16  16  16  16
#     4   8  12  18  28  44  69  97 123 151 185 228
#     4  10  19  30  46  67  89 112 138 171 210 247
#     4   8  14  26  45  67  88 112 145 179 204 232
#     4   9  17  29  45  63  81 105 140 175 202 236
#     4   9  16  26  41  60  81 104 131 165 204 242
#     4   8  13  20  31  49  72  98 125 154 191 232
#
# _framework density 21.219245000000001
#
# number of rings (size 3 to 8) (size 9 to 14) (size 15 to 20)
#    0.000    3.273    0.000    1.636    0.000    2.545 
#    0.000    0.000    0.000    3.818    0.000    1.909 
#    0.000    5.091    0.000    0.000    0.000  172.909 
#
# Total GULP energy -245283.918805 kJ/mol
# GULP energy per Si atom -5574.634518 kJ/mol
# Density = 2.117095 g / cm^3
# Si number density = 21.219245 Si / 1000 Ang^3
#
#
#
# Elastic Constant Matrix: (Units=GPa)
#
#
# Indices 1 2 3 4 5 6 
#
# 1 93.3574 -2.7190 119.2879 0.0000 0.0000 0.0000
# 2 -2.7190 81.5103 13.4227 0.0000 0.0000 0.0000
# 3 119.2879 13.4227 305.7968 0.0000 0.0000 0.0000
# 4 0.0000 0.0000 0.0000 -3.1561 0.0000 0.0000
# 5 0.0000 0.0000 0.0000 0.0000 -21.5792 0.0000
# 6 0.0000 0.0000 0.0000 0.0000 0.0000 11.2843
#
#
#
# Elastic Compliance Matrix: (Units=1/GPa)
#
#
# Indices 1 2 3 4 5 6 
#
# 1 0.021719 0.002135 -0.008566 0.000000 0.000000 0.000000
# 2 0.002135 0.012568 -0.001385 0.000000 0.000000 0.000000
# 3 -0.008566 -0.001385 0.006672 0.000000 0.000000 0.000000
# 4 0.000000 0.000000 0.000000 -0.316849 0.000000 0.000000
# 5 0.000000 0.000000 0.000000 0.000000 -0.046341 0.000000
# 6 0.000000 0.000000 0.000000 0.000000 0.000000 0.088619
#
#
# Mechanical properties :
#
#
# Convention : Reuss Voigt Hill
#
# Bulk Modulus (GPa) = 39.48176 82.29419 60.88797
# Shear Modulus (GPa) = -23.86205 20.68799 -1.58703
#
# Velocity S-wave (km/s) = -3.35707 3.12583 -0.86576
# Velocity P-wave (km/s) = 1.90275 7.20380 5.26855
#
# Compressibility (1/GPa) = 0.02532815
#
# Stress axis : x y z
#
# Youngs Moduli (GPa) = 46.04244 79.56964 149.86979
#
# Poissons Ratio (x) = -0.16989 1.28380
# Poissons Ratio (y) = -0.09831 0.20750
# Poissons Ratio (z) = 0.39440 0.11017
#
# Static dielectric constant tensor:
#      x y z
#    x 1.707630 0.000000 0.000000 
#    y 0.000000 1.805760 0.000000 
#    z 0.000000 0.000000 1.817390 
# 
# From -- ./inp_files/74255.got.cif
#   From: 2010.05.17/outbox.cif.g08.bks.cpg/sg65_38_cif.got.tgz:74255.got - 2010.06.03 17:01:31.
