data_PCOD9485083
_publ_section_title
;
Structure prediction by ZEFSAII (Michael W. Deem and Ramdas Pophale) SiO2 
 PCOD9485083
Probable space group: C M M M
;
_chemical_formula_sum "Si O2"
_cell_formula_units_Z 72
_cell_length_a 36.138196
_cell_length_b 14.925242
_cell_length_c 9.001053
_cell_angle_alpha 90.000000
_cell_angle_beta 90.000000
_cell_angle_gamma 90.000000
_cell_volume 4854.909845
_symmetry_space_group_name_H-M "C M M M"
_symmetry_group_IT_number 65
_symmetry_cell_setting 'orthorhombic'
loop_
_space_group_symop_operation_xyz
x,y,z
-x,-y,z
x,-y,-z
-x,y,-z
-x,-y,-z
x,y,-z
-x,y,z
x,-y,z
1/2+x,1/2+y,z
1/2-x,1/2-y,z
1/2+x,1/2-y,-z
1/2-x,1/2+y,-z
1/2-x,1/2-y,-z
1/2+x,1/2+y,-z
1/2-x,1/2+y,z
1/2+x,1/2-y,z
loop_
_atom_site_type_symbol
_atom_site_label
_atom_site_fract_x
_atom_site_fract_y
_atom_site_fract_z
Si Si1 0.500000 0.891400 0.329296
Si Si2 0.788441 0.198854 0.180018
Si Si3 0.770976 0.000000 0.176653
Si Si4 0.922883 0.606173 0.822178
Si Si5 0.648837 0.182162 0.673487
Si Si6 0.304809 0.000000 0.333183
O O1 0.500000 0.860655 0.500000
O O2 0.462419 0.865891 0.245249
O O3 0.500000 0.000000 0.330834
O O4 0.750000 0.250000 0.221496
O O5 0.823791 0.247530 0.249301
O O6 0.786485 0.095263 0.230649
O O7 0.790604 0.202139 0.000000
O O8 0.727696 0.000000 0.215039
O O9 0.775825 0.000000 0.000000
O O10 0.916972 0.500000 0.784451
O O11 0.889984 0.664964 0.754328
O O12 0.923413 0.612685 0.000000
O O13 0.643277 0.203787 0.500000
O O14 0.670323 0.087509 0.682039
O O15 0.288356 0.000000 0.500000
#
# Coordination Sequence:
#
# PCOD9485083 Si02
#       6
#     8  16   8  16  16   8
#     4   9  17  29  45  65  93 126 157 190 231 277
#     4  10  20  33  49  68  90 119 157 198 240 285
#     4  10  20  34  50  66  89 120 155 198 244 286
#     4  10  19  30  46  67  93 125 160 195 231 276
#     4  11  21  32  46  67  94 124 159 198 238 279
#     4  10  20  30  44  65  91 120 155 197 239 280
#
# _framework density 14.830347
#
# number of rings (size 3 to 8) (size 9 to 14) (size 15 to 20)
#    0.000    1.889    3.333    1.667    0.000    4.444 
#    0.000    0.000    0.000    0.000    0.000    0.000 
#    0.000    0.889    0.000    9.556    0.000    4.222 
#
# Total GULP energy -200751.264635 kJ/mol
# GULP energy per Si atom -5576.424018 kJ/mol
# Density = 1.479659 g / cm^3
# Si number density = 14.830347 Si / 1000 Ang^3
#
#
#
# Elastic Constant Matrix: (Units=GPa)
#
#
# Indices 1 2 3 4 5 6 
#
# 1 135.7010 51.6210 55.2873 0.0000 0.0000 0.0000
# 2 51.6210 87.3524 34.8024 0.0000 0.0000 0.0000
# 3 55.2873 34.8024 50.0327 0.0000 0.0000 0.0000
# 4 0.0000 0.0000 0.0000 11.8997 0.0000 0.0000
# 5 0.0000 0.0000 0.0000 0.0000 -33.4579 0.0000
# 6 0.0000 0.0000 0.0000 0.0000 0.0000 10.1077
#
#
#
# Elastic Compliance Matrix: (Units=1/GPa)
#
#
# Indices 1 2 3 4 5 6 
#
# 1 0.013915 -0.002901 -0.013359 0.000000 0.000000 0.000000
# 2 -0.002901 0.016442 -0.008231 0.000000 0.000000 0.000000
# 3 -0.013359 -0.008231 0.040474 0.000000 0.000000 0.000000
# 4 0.000000 0.000000 0.000000 0.084035 0.000000 0.000000
# 5 0.000000 0.000000 0.000000 0.000000 -0.029888 0.000000
# 6 0.000000 0.000000 0.000000 0.000000 0.000000 0.098935
#
#
# Mechanical properties :
#
#
# Convention : Reuss Voigt Hill
#
# Bulk Modulus (GPa) = 45.76779 61.83416 53.80098
# Shear Modulus (GPa) = 17.84580 6.46825 12.15702
#
# Velocity S-wave (km/s) = 3.47267 2.09069 2.86622
# Velocity P-wave (km/s) = 6.85617 6.90020 6.87822
#
# Compressibility (1/GPa) = 0.02184943
#
# Stress axis : x y z
#
# Youngs Moduli (GPa) = 71.86313 60.82149 24.70706
#
# Poissons Ratio (x) = 0.17644 0.33006
# Poissons Ratio (y) = 0.20847 0.20336
# Poissons Ratio (z) = 0.96001 0.50062
#
# Static dielectric constant tensor:
#      x y z
#    x 1.468420 0.000000 0.000000 
#    y 0.000000 1.487530 0.000000 
#    z 0.000000 0.000000 1.501590 
# 
# From -- ./inp_files/7410.got.cif
#   From: 2010.05.17/outbox.cif.g08.bks.cpg/sg65_4_cif.got.tgz:7410.got - 2010.06.03 17:01:31.
