data_PCOD9485558
_publ_section_title
;
Structure prediction by ZEFSAII (Michael W. Deem and Ramdas Pophale) SiO2 
 PCOD9485558
Probable space group: C M M M
;
_chemical_formula_sum "Si O2"
_cell_formula_units_Z 80
_cell_length_a 18.670938
_cell_length_b 27.968605
_cell_length_c 7.665124
_cell_angle_alpha 90.000000
_cell_angle_beta 90.000000
_cell_angle_gamma 90.000000
_cell_volume 4002.728442
_symmetry_space_group_name_H-M "C M M M"
_symmetry_group_IT_number 65
_symmetry_cell_setting 'orthorhombic'
loop_
_space_group_symop_operation_xyz
x,y,z
-x,-y,z
x,-y,-z
-x,y,-z
-x,-y,-z
x,y,-z
-x,y,z
x,-y,z
1/2+x,1/2+y,z
1/2-x,1/2-y,z
1/2+x,1/2-y,-z
1/2-x,1/2+y,-z
1/2-x,1/2-y,-z
1/2+x,1/2+y,-z
1/2-x,1/2+y,z
1/2+x,1/2-y,z
loop_
_atom_site_type_symbol
_atom_site_label
_atom_site_fract_x
_atom_site_fract_y
_atom_site_fract_z
Si Si1 0.078372 0.795291 0.796648
Si Si2 0.578656 0.914288 0.288378
Si Si3 0.278173 0.655274 0.212656
Si Si4 0.267016 0.948542 0.794729
Si Si5 0.876515 0.690979 0.704668
O O1 0.147713 0.822236 0.722972
O O2 0.093711 0.738738 0.788972
O O3 0.000000 0.805146 0.718842
O O4 0.075411 0.809127 0.000000
O O5 0.581491 0.915133 0.500000
O O6 0.500000 0.931219 0.234406
O O7 0.647319 0.942750 0.223354
O O8 0.589925 0.859044 0.231913
O O9 0.266205 0.600737 0.275346
O O10 0.208729 0.685374 0.269239
O O11 0.277215 0.655621 0.000000
O O12 0.245443 0.000000 0.719120
O O13 0.249785 0.949242 0.000000
O O14 0.892462 0.694597 0.500000
#
# Coordination Sequence:
#
# PCOD9485558 Si02
#       5
#    16  16  16  16  16
#     4  10  20  32  47  68  94 124 155 186 224 271
#     4   9  18  31  45  64  93 125 152 180 218 264
#     4   9  18  33  50  67  91 122 154 188 226 271
#     4   9  18  32  49  67  86 113 151 192 231 269
#     4  10  19  31  48  70  96 125 156 187 220 262
#
# _framework density 19.986366
#
# number of rings (size 3 to 8) (size 9 to 14) (size 15 to 20)
#    0.000    2.600    0.000    1.800    0.000    6.400 
#    0.000    2.000    0.000    0.600    0.000    4.200 
#    0.000    0.000    0.000   11.800    0.000   12.400 
#
# Total GULP energy -223206.091130 kJ/mol
# GULP energy per Si atom -5580.152278 kJ/mol
# Density = 1.994088 g / cm^3
# Si number density = 19.986366 Si / 1000 Ang^3
#
#
#
# Elastic Constant Matrix: (Units=GPa)
#
#
# Indices 1 2 3 4 5 6 
#
# 1 82.3738 16.9645 -8.9367 0.0000 0.0000 0.0000
# 2 16.9645 62.2056 -7.7681 0.0000 0.0000 0.0000
# 3 -8.9367 -7.7681 35.3263 0.0000 0.0000 0.0000
# 4 0.0000 0.0000 0.0000 -1.4732 0.0000 0.0000
# 5 0.0000 0.0000 0.0000 0.0000 106.4595 0.0000
# 6 0.0000 0.0000 0.0000 0.0000 0.0000 -0.1251
#
#
#
# Elastic Compliance Matrix: (Units=1/GPa)
#
#
# Indices 1 2 3 4 5 6 
#
# 1 0.013090 -0.003245 0.002598 0.000000 0.000000 0.000000
# 2 -0.003245 0.017334 0.002991 0.000000 0.000000 0.000000
# 3 0.002598 0.002991 0.029622 0.000000 0.000000 0.000000
# 4 0.000000 0.000000 0.000000 -0.678808 0.000000 0.000000
# 5 0.000000 0.000000 0.000000 0.000000 0.009393 0.000000
# 6 0.000000 0.000000 0.000000 0.000000 0.000000 -7.996535
#
#
# Mechanical properties :
#
#
# Convention : Reuss Voigt Hill
#
# Bulk Modulus (GPa) = 15.44812 20.04722 17.74767
# Shear Modulus (GPa) = -0.58214 32.94867 16.18326
#
# Velocity S-wave (km/s) = -0.54028 4.06465 2.84864
# Velocity P-wave (km/s) = 2.71236 5.66398 4.44059
#
# Compressibility (1/GPa) = 0.06473280
#
# Stress axis : x y z
#
# Youngs Moduli (GPa) = 76.39424 57.68919 33.75827
#
# Poissons Ratio (x) = 0.18723 -0.08770
# Poissons Ratio (y) = 0.24793 -0.10096
# Poissons Ratio (z) = -0.19846 -0.17253
#
# Static dielectric constant tensor:
#      x y z
#    x 1.707600 0.000000 0.000000 
#    y 0.000000 1.716900 0.000000 
#    z 0.000000 0.000000 1.745740 
# 
# From -- ./inp_files/9576.got.cif
#   From: 2010.05.17/outbox.cif.g08.bks.cpg/sg65_5_cif.got.tgz:9576.got - 2010.06.03 17:01:31.
