data_PCOD9485810
_publ_section_title
;
Structure prediction by ZEFSAII (Michael W. Deem and Ramdas Pophale) SiO2 
 PCOD9485810
Probable space group: C M M M
;
_chemical_formula_sum "Si O2"
_cell_formula_units_Z 80
_cell_length_a 7.448693
_cell_length_b 18.283757
_cell_length_c 28.942913
_cell_angle_alpha 90.000000
_cell_angle_beta 90.000000
_cell_angle_gamma 90.000000
_cell_volume 3941.738007
_symmetry_space_group_name_H-M "C M M M"
_symmetry_group_IT_number 65
_symmetry_cell_setting 'orthorhombic'
loop_
_space_group_symop_operation_xyz
x,y,z
-x,-y,z
x,-y,-z
-x,y,-z
-x,-y,-z
x,y,-z
-x,y,z
x,-y,z
1/2+x,1/2+y,z
1/2-x,1/2-y,z
1/2+x,1/2-y,-z
1/2-x,1/2+y,-z
1/2-x,1/2-y,-z
1/2+x,1/2+y,-z
1/2-x,1/2+y,z
1/2+x,1/2-y,z
loop_
_atom_site_type_symbol
_atom_site_label
_atom_site_fract_x
_atom_site_fract_y
_atom_site_fract_z
Si Si1 0.500000 0.588839 0.052466
Si Si2 0.719719 0.084704 0.314004
Si Si3 0.280299 0.084730 0.500000
Si Si4 0.211689 0.587512 0.872665
Si Si5 0.714321 0.163995 0.778874
Si Si6 0.785423 0.336076 0.406986
O O1 0.500000 0.500000 0.050223
O O2 0.672965 0.609605 0.082855
O O3 0.500000 0.616237 0.000000
O O4 0.500000 0.086608 0.313940
O O5 0.781956 0.124465 0.267341
O O6 0.781520 0.126382 0.360031
O O7 0.772286 0.000000 0.314731
O O8 0.500000 0.086454 0.500000
O O9 0.218479 0.125568 0.546324
O O10 0.227512 0.000000 0.500000
O O11 0.232160 0.500000 0.865797
O O12 0.278319 0.628196 0.826615
O O13 0.000000 0.602173 0.879354
O O14 0.500000 0.152846 0.779166
O O15 0.750000 0.250000 0.777255
O O16 0.750000 0.250000 0.407279
O O17 0.000000 0.346229 0.406955
#
# Coordination Sequence:
#
# PCOD9485810 Si02
#       6
#     8  16   8  16  16  16
#     4   9  18  32  54  84 112 140 177 224 274 318
#     4   9  17  31  51  73  98 130 171 213 257 309
#     4   9  17  30  49  73  96 125 176 222 256 303
#     4   9  18  33  53  78 107 141 180 222 267 318
#     4  10  20  32  50  75 100 134 169 211 258 314
#     4  10  19  31  50  73  99 132 166 213 263 313
#
# _framework density 20.295618000000001
#
# number of rings (size 3 to 8) (size 9 to 14) (size 15 to 20)
#    0.000    2.600    0.000    2.100    1.400    5.200 
#    0.000    2.000    0.000    4.800    0.000    0.000 
#    0.000    0.000    0.000    0.000    0.000    0.000 
#
# Total GULP energy -223407.823837 kJ/mol
# GULP energy per Si atom -5585.195596 kJ/mol
# Density = 2.024942 g / cm^3
# Si number density = 20.295618 Si / 1000 Ang^3
#
#
#
# Elastic Constant Matrix: (Units=GPa)
#
#
# Indices 1 2 3 4 5 6 
#
# 1 70.8614 19.0610 47.0426 0.0000 0.0000 0.0000
# 2 19.0610 138.4649 118.5074 0.0000 0.0000 0.0000
# 3 47.0426 118.5074 261.5117 0.0000 0.0000 0.0000
# 4 0.0000 0.0000 0.0000 -9.3771 0.0000 0.0000
# 5 0.0000 0.0000 0.0000 0.0000 -41.3707 0.0000
# 6 0.0000 0.0000 0.0000 0.0000 0.0000 22.2818
#
#
#
# Elastic Compliance Matrix: (Units=1/GPa)
#
#
# Indices 1 2 3 4 5 6 
#
# 1 0.016041 0.000427 -0.003079 0.000000 0.000000 0.000000
# 2 0.000427 0.011809 -0.005428 0.000000 0.000000 0.000000
# 3 -0.003079 -0.005428 0.006838 0.000000 0.000000 0.000000
# 4 0.000000 0.000000 0.000000 -0.106643 0.000000 0.000000
# 5 0.000000 0.000000 0.000000 0.000000 -0.024172 0.000000
# 6 0.000000 0.000000 0.000000 0.000000 0.000000 0.044880
#
#
# Mechanical properties :
#
#
# Convention : Reuss Voigt Hill
#
# Bulk Modulus (GPa) = 53.97382 93.33998 73.65690
# Shear Modulus (GPa) = -172.94868 13.38860 -79.78004
#
# Velocity S-wave (km/s) = -9.24120 2.57121 -6.27649
# Velocity P-wave (km/s) = 9.33889 7.40978 4.01932
#
# Compressibility (1/GPa) = 0.01852750
#
# Stress axis : x y z
#
# Youngs Moduli (GPa) = 62.33892 84.68011 146.24734
#
# Poissons Ratio (x) = -0.03617 0.45032
# Poissons Ratio (y) = -0.02663 0.79387
# Poissons Ratio (z) = 0.19195 0.45967
#
# Static dielectric constant tensor:
#      x y z
#    x 1.785320 0.000000 0.000000 
#    y 0.000000 1.671050 0.000000 
#    z 0.000000 0.000000 1.697300 
# 
# From -- ./inp_files/72866.got.cif
#   From: 2010.05.17/outbox.cif.g08.bks.cpg/sg65_37_cif.got.tgz:72866.got - 2010.06.03 17:01:31.
