data_PCOD9485209
_publ_section_title
;
Structure prediction by ZEFSAII (Michael W. Deem and Ramdas Pophale) SiO2 
 PCOD9485209
Probable space group: C M M M
;
_chemical_formula_sum "Si O2"
_cell_formula_units_Z 80
_cell_length_a 27.183652
_cell_length_b 15.829614
_cell_length_c 11.611206
_cell_angle_alpha 90.000000
_cell_angle_beta 90.000000
_cell_angle_gamma 90.000000
_cell_volume 4996.379949
_symmetry_space_group_name_H-M "C M M M"
_symmetry_group_IT_number 65
_symmetry_cell_setting 'orthorhombic'
loop_
_space_group_symop_operation_xyz
x,y,z
-x,-y,z
x,-y,-z
-x,y,-z
-x,-y,-z
x,y,-z
-x,y,z
x,-y,z
1/2+x,1/2+y,z
1/2-x,1/2-y,z
1/2+x,1/2-y,-z
1/2-x,1/2+y,-z
1/2-x,1/2-y,-z
1/2+x,1/2+y,-z
1/2-x,1/2+y,z
1/2+x,1/2-y,z
loop_
_atom_site_type_symbol
_atom_site_label
_atom_site_fract_x
_atom_site_fract_y
_atom_site_fract_z
Si Si1 0.597054 0.500000 0.362396
Si Si2 0.558602 0.330891 0.246880
Si Si3 0.226412 0.662310 0.360067
Si Si4 0.940343 0.902031 0.000000
Si Si5 0.388124 0.828682 0.639589
Si Si6 0.443972 0.000000 0.360250
Si Si7 0.288587 0.500000 0.359481
O O1 0.596190 0.500000 0.500000
O O2 0.570743 0.416222 0.316511
O O3 0.654405 0.500000 0.324301
O O4 0.500000 0.314313 0.251328
O O5 0.587929 0.252636 0.300795
O O6 0.573537 0.352801 0.115777
O O7 0.228124 0.661298 0.500000
O O8 0.250000 0.750000 0.320918
O O9 0.169098 0.659831 0.329640
O O10 0.258770 0.582829 0.321394
O O11 0.000000 0.906402 0.000000
O O12 0.923014 0.000000 0.000000
O O13 0.391394 0.818396 0.500000
O O14 0.416530 0.914161 0.673091
O O15 0.500000 0.000000 0.319379
O O16 0.444449 0.000000 0.500000
O O17 0.288642 0.500000 0.500000
#
# Coordination Sequence:
#
# PCOD9485209 Si02
#       7
#     8  16  16   8  16   8   8
#     4  11  21  30  45  75 107 131 156 192 246 301
#     4  11  21  33  50  71  99 130 162 201 240 291
#     4   9  16  27  42  61  91 127 158 191 227 272
#     4   9  18  36  54  67  88 128 176 205 231 281
#     4  10  19  30  47  73 100 129 163 196 241 291
#     4   9  17  29  43  62  95 132 159 185 223 283
#     4   9  17  29  44  65  96 132 166 195 229 280
#
# _framework density 16.011593000000001
#
# number of rings (size 3 to 8) (size 9 to 14) (size 15 to 20)
#    0.000    2.200    1.000    3.300    0.000    8.400 
#    0.000    0.000    0.000    0.600    0.000   10.500 
#    0.000    0.000    0.000    0.000    0.000    0.000 
#
# Total GULP energy -223041.982727 kJ/mol
# GULP energy per Si atom -5576.049568 kJ/mol
# Density = 1.597515 g / cm^3
# Si number density = 16.011593 Si / 1000 Ang^3
#
#
#
# Elastic Constant Matrix: (Units=GPa)
#
#
# Indices 1 2 3 4 5 6 
#
# 1 57.5296 3.4095 5.0362 0.0000 0.0000 0.0000
# 2 3.4095 81.0119 11.1767 0.0000 0.0000 0.0000
# 3 5.0362 11.1767 47.9631 0.0000 0.0000 0.0000
# 4 0.0000 0.0000 0.0000 2.8821 0.0000 0.0000
# 5 0.0000 0.0000 0.0000 0.0000 4.5078 0.0000
# 6 0.0000 0.0000 0.0000 0.0000 0.0000 31.8512
#
#
#
# Elastic Compliance Matrix: (Units=1/GPa)
#
#
# Indices 1 2 3 4 5 6 
#
# 1 0.017563 -0.000501 -0.001727 0.000000 0.000000 0.000000
# 2 -0.000501 0.012768 -0.002923 0.000000 0.000000 0.000000
# 3 -0.001727 -0.002923 0.021712 0.000000 0.000000 0.000000
# 4 0.000000 0.000000 0.000000 0.346965 0.000000 0.000000
# 5 0.000000 0.000000 0.000000 0.000000 0.221837 0.000000
# 6 0.000000 0.000000 0.000000 0.000000 0.000000 0.031396
#
#
# Mechanical properties :
#
#
# Convention : Reuss Voigt Hill
#
# Bulk Modulus (GPa) = 23.95717 25.08327 24.52022
# Shear Modulus (GPa) = 7.39145 18.97371 13.18258
#
# Velocity S-wave (km/s) = 2.15089 3.44611 2.87246
# Velocity P-wave (km/s) = 4.60036 5.61551 5.13309
#
# Compressibility (1/GPa) = 0.04174116
#
# Stress axis : x y z
#
# Youngs Moduli (GPa) = 56.93707 78.31966 46.05780
#
# Poissons Ratio (x) = 0.03923 0.07956
# Poissons Ratio (y) = 0.02852 0.13462
# Poissons Ratio (z) = 0.09836 0.22891
#
# Static dielectric constant tensor:
#      x y z
#    x 1.549320 0.000000 0.000000 
#    y 0.000000 1.528480 0.000000 
#    z 0.000000 0.000000 1.516060 
# 
# From -- ./inp_files/32174.got.cif
#   From: 2010.05.17/outbox.cif.g08.bks.cpg/sg65_17_cif.got.tgz:32174.got - 2010.06.03 17:01:31.
