data_PCOD9485565
_publ_section_title
;
Structure prediction by ZEFSAII (Michael W. Deem and Ramdas Pophale) SiO2 
 PCOD9485565
Probable space group: C M M M
;
_chemical_formula_sum "Si O2"
_cell_formula_units_Z 72
_cell_length_a 18.497192
_cell_length_b 7.719502
_cell_length_c 24.993758
_cell_angle_alpha 90.000000
_cell_angle_beta 90.000000
_cell_angle_gamma 90.000000
_cell_volume 3568.836476
_symmetry_space_group_name_H-M "C M M M"
_symmetry_group_IT_number 65
_symmetry_cell_setting 'orthorhombic'
loop_
_space_group_symop_operation_xyz
x,y,z
-x,-y,z
x,-y,-z
-x,y,-z
-x,-y,-z
x,y,-z
-x,y,z
x,-y,z
1/2+x,1/2+y,z
1/2-x,1/2-y,z
1/2+x,1/2-y,-z
1/2-x,1/2+y,-z
1/2-x,1/2-y,-z
1/2+x,1/2+y,-z
1/2-x,1/2+y,z
1/2+x,1/2-y,z
loop_
_atom_site_type_symbol
_atom_site_label
_atom_site_fract_x
_atom_site_fract_y
_atom_site_fract_z
Si Si1 0.835892 0.708773 0.557590
Si Si2 0.665829 0.708780 0.000000
Si Si3 0.335681 0.791463 0.672658
Si Si4 0.665107 0.793567 0.211162
Si Si5 0.918690 0.793630 0.103943
O O1 0.864619 0.773062 0.500000
O O2 0.843378 0.500000 0.557553
O O3 0.750000 0.750000 0.557622
O O4 0.864719 0.773192 0.615155
O O5 0.750000 0.750000 0.000000
O O6 0.627063 0.775268 0.946260
O O7 0.659978 0.500000 0.000000
O O8 0.250000 0.750000 0.672633
O O9 0.361667 0.726287 0.730603
O O10 0.343950 0.000000 0.672421
O O11 0.750000 0.750000 0.205364
O O12 0.621138 0.732359 0.160086
O O13 0.659315 0.000000 0.212576
O O14 0.000000 0.722511 0.104897
O O15 0.923835 0.000000 0.096071
#
# Coordination Sequence:
#
# PCOD9485565 Si02
#       5
#    16   8  16  16  16
#     4   8  12  18  29  46  71 105 143 180 220 267
#     4  10  21  37  57  79 101 126 155 188 228 274
#     4   8  14  23  35  54  81 113 148 186 227 270
#     4  10  19  31  48  70  97 128 162 198 236 280
#     4  10  21  37  55  74  98 127 158 193 234 278
#
# _framework density 20.174644000000001
#
# number of rings (size 3 to 8) (size 9 to 14) (size 15 to 20)
#    0.000    2.889    0.000    1.667    0.000    5.333 
#    0.000    0.000    0.000    2.000    0.000    0.000 
#    0.000    0.889    0.000   11.111    0.000    5.778 
#
# Total GULP energy -200440.385760 kJ/mol
# GULP energy per Si atom -5567.788493 kJ/mol
# Density = 2.012873 g / cm^3
# Si number density = 20.174644 Si / 1000 Ang^3
#
#
#
# Elastic Constant Matrix: (Units=GPa)
#
#
# Indices 1 2 3 4 5 6 
#
# 1 72.9058 1.7278 85.0852 0.0000 0.0000 0.0000
# 2 1.7278 36.0995 6.3402 0.0000 0.0000 0.0000
# 3 85.0852 6.3402 274.2680 0.0000 0.0000 0.0000
# 4 0.0000 0.0000 0.0000 -12.1570 0.0000 0.0000
# 5 0.0000 0.0000 0.0000 0.0000 -6.2283 0.0000
# 6 0.0000 0.0000 0.0000 0.0000 0.0000 12.2208
#
#
#
# Elastic Compliance Matrix: (Units=1/GPa)
#
#
# Indices 1 2 3 4 5 6 
#
# 1 0.021501 0.000143 -0.006674 0.000000 0.000000 0.000000
# 2 0.000143 0.027815 -0.000687 0.000000 0.000000 0.000000
# 3 -0.006674 -0.000687 0.005732 0.000000 0.000000 0.000000
# 4 0.000000 0.000000 0.000000 -0.082257 0.000000 0.000000
# 5 0.000000 0.000000 0.000000 0.000000 -0.160558 0.000000
# 6 0.000000 0.000000 0.000000 0.000000 0.000000 0.081828
#
#
# Mechanical properties :
#
#
# Convention : Reuss Voigt Hill
#
# Bulk Modulus (GPa) = 24.62274 63.28662 43.95468
# Shear Modulus (GPa) = -64.13177 18.10843 -23.01167
#
# Velocity S-wave (km/s) = -5.64423 2.99922 -3.38098
# Velocity P-wave (km/s) = 5.49956 6.59024 2.56770
#
# Compressibility (1/GPa) = 0.04061286
#
# Stress axis : x y z
#
# Youngs Moduli (GPa) = 46.50847 35.95171 174.45015
#
# Poissons Ratio (x) = -0.00514 1.16422
# Poissons Ratio (y) = -0.00665 0.11991
# Poissons Ratio (z) = 0.31038 0.02471
#
# Static dielectric constant tensor:
#      x y z
#    x 1.655720 0.000000 0.000000 
#    y 0.000000 1.764120 0.000000 
#    z 0.000000 0.000000 1.810210 
# 
# From -- ./inp_files/67039.got.cif
#   From: 2010.05.17/outbox.cif.g08.bks.cpg/sg65_34_cif.got.tgz:67039.got - 2010.06.03 17:01:31.
