data_PCOD9485911
_publ_section_title
;
Structure prediction by ZEFSAII (Michael W. Deem and Ramdas Pophale) SiO2 
 PCOD9485911
Probable space group: C M M M
;
_chemical_formula_sum "Si O2"
_cell_formula_units_Z 104
_cell_length_a 22.933705
_cell_length_b 27.506462
_cell_length_c 8.668502
_cell_angle_alpha 90.000000
_cell_angle_beta 90.000000
_cell_angle_gamma 90.000000
_cell_volume 5468.308512
_symmetry_space_group_name_H-M "C M M M"
_symmetry_group_IT_number 65
_symmetry_cell_setting 'orthorhombic'
loop_
_space_group_symop_operation_xyz
x,y,z
-x,-y,z
x,-y,-z
-x,y,-z
-x,-y,-z
x,y,-z
-x,y,z
x,-y,z
1/2+x,1/2+y,z
1/2-x,1/2-y,z
1/2+x,1/2-y,-z
1/2-x,1/2+y,-z
1/2-x,1/2-y,-z
1/2+x,1/2+y,-z
1/2-x,1/2+y,z
1/2+x,1/2-y,z
loop_
_atom_site_type_symbol
_atom_site_label
_atom_site_fract_x
_atom_site_fract_y
_atom_site_fract_z
Si Si1 0.145259 0.587290 0.316533
Si Si2 0.232696 0.941754 0.175567
Si Si3 0.067837 0.500000 0.184829
Si Si4 0.323009 0.297998 0.686036
Si Si5 0.607812 0.443637 0.315898
Si Si6 0.193020 0.313903 0.312386
Si Si7 0.437004 0.650813 0.183590
O O1 0.136300 0.585759 0.500000
O O2 0.210638 0.571089 0.273300
O O3 0.101158 0.548547 0.242461
O O4 0.148373 0.643804 0.262797
O O5 0.172978 0.929530 0.261711
O O6 0.232687 0.000000 0.163260
O O7 0.234837 0.922147 0.000000
O O8 0.000000 0.500000 0.234006
O O9 0.070161 0.500000 0.000000
O O10 0.323033 0.300234 0.500000
O O11 0.260758 0.320838 0.737847
O O12 0.322903 0.241038 0.731658
O O13 0.380881 0.323093 0.746363
O O14 0.603473 0.439290 0.500000
O O15 0.597330 0.500000 0.274212
O O16 0.566653 0.405261 0.234348
O O17 0.193695 0.315566 0.500000
O O18 0.500000 0.670929 0.234815
O O19 0.433615 0.654030 0.000000
#
# Coordination Sequence:
#
# PCOD9485911 Si02
#       7
#    16  16   8  16  16  16  16
#     4  11  20  33  57  86 114 145 186 234 283 340
#     4  10  19  31  50  79 116 149 178 216 269 328
#     4  11  25  43  57  73 107 155 202 245 294 353
#     4   9  17  36  62  85 113 146 182 225 277 339
#     4  10  21  36  55  80 109 142 188 236 275 320
#     4   8  17  33  58  91 117 138 172 228 291 340
#     4  11  24  39  54  76 110 150 189 229 277 332
#
# _framework density 19.018678000000001
#
# number of rings (size 3 to 8) (size 9 to 14) (size 15 to 20)
#    0.000    2.077    0.769    3.923    0.000    4.923 
#    0.000    6.154    0.000    4.615    0.000    0.000 
#    0.000    0.000    0.000    0.000    0.000    0.000 
#
# Total GULP energy -290092.753641 kJ/mol
# GULP energy per Si atom -5578.706801 kJ/mol
# Density = 1.897539 g / cm^3
# Si number density = 19.018678 Si / 1000 Ang^3
#
#
#
# Elastic Constant Matrix: (Units=GPa)
#
#
# Indices 1 2 3 4 5 6 
#
# 1 117.2712 71.6378 17.9979 0.0000 0.0000 0.0000
# 2 71.6378 109.1989 22.1840 0.0000 0.0000 0.0000
# 3 17.9979 22.1840 26.8096 0.0000 0.0000 0.0000
# 4 0.0000 0.0000 0.0000 9.9422 0.0000 0.0000
# 5 0.0000 0.0000 0.0000 0.0000 22.0032 0.0000
# 6 0.0000 0.0000 0.0000 0.0000 0.0000 10.6934
#
#
#
# Elastic Compliance Matrix: (Units=1/GPa)
#
#
# Indices 1 2 3 4 5 6 
#
# 1 0.014338 -0.008957 -0.002214 0.000000 0.000000 0.000000
# 2 -0.008957 0.016603 -0.007726 0.000000 0.000000 0.000000
# 3 -0.002214 -0.007726 0.045179 0.000000 0.000000 0.000000
# 4 0.000000 0.000000 0.000000 0.100581 0.000000 0.000000
# 5 0.000000 0.000000 0.000000 0.000000 0.045448 0.000000
# 6 0.000000 0.000000 0.000000 0.000000 0.000000 0.093516
#
#
# Mechanical properties :
#
#
# Convention : Reuss Voigt Hill
#
# Bulk Modulus (GPa) = 26.09096 52.99099 39.54097
# Shear Modulus (GPa) = 13.65247 17.95843 15.80545
#
# Velocity S-wave (km/s) = 2.68217 3.07620 2.88592
# Velocity P-wave (km/s) = 4.83119 6.36714 5.65159
#
# Compressibility (1/GPa) = 0.03832745
#
# Stress axis : x y z
#
# Youngs Moduli (GPa) = 69.74261 60.23064 22.13405
#
# Poissons Ratio (x) = 0.53946 0.04902
# Poissons Ratio (y) = 0.62466 0.17100
# Poissons Ratio (z) = 0.15444 0.46531
#
# Static dielectric constant tensor:
#      x y z
#    x 1.689210 0.000000 0.000000 
#    y 0.000000 1.713920 0.000000 
#    z 0.000000 0.000000 1.649290 
# 
# From -- ./inp_files/12424.got.cif
#   From: 2010.05.17/outbox.cif.g08.bks.cpg/sg65_7_cif.got.tgz:12424.got - 2010.06.03 17:01:31.
