data_PCOD9485413
_publ_section_title
;
Structure prediction by ZEFSAII (Michael W. Deem and Ramdas Pophale) SiO2 
 PCOD9485413
Probable space group: C M M M
;
_chemical_formula_sum "Si O2"
_cell_formula_units_Z 100
_cell_length_a 28.661721
_cell_length_b 29.220758
_cell_length_c 8.636221
_cell_angle_alpha 90.000000
_cell_angle_beta 90.000000
_cell_angle_gamma 90.000000
_cell_volume 7232.983745
_symmetry_space_group_name_H-M "C M M M"
_symmetry_group_IT_number 65
_symmetry_cell_setting 'orthorhombic'
loop_
_space_group_symop_operation_xyz
x,y,z
-x,-y,z
x,-y,-z
-x,y,-z
-x,-y,-z
x,y,-z
-x,y,z
x,-y,z
1/2+x,1/2+y,z
1/2-x,1/2-y,z
1/2+x,1/2-y,-z
1/2-x,1/2+y,-z
1/2-x,1/2-y,-z
1/2+x,1/2+y,-z
1/2-x,1/2+y,z
1/2+x,1/2-y,z
loop_
_atom_site_type_symbol
_atom_site_label
_atom_site_fract_x
_atom_site_fract_y
_atom_site_fract_z
Si Si1 0.446497 0.671422 0.183424
Si Si2 0.816352 0.051720 0.314487
Si Si3 0.281827 0.644574 0.814526
Si Si4 0.358416 0.714995 0.317419
Si Si5 0.292768 0.213561 0.178497
Si Si6 0.500000 0.500000 0.787654
Si Si7 0.574788 0.427721 0.316582
O O1 0.500000 0.684875 0.215014
O O2 0.407752 0.707696 0.234704
O O3 0.435239 0.624612 0.274263
O O4 0.441953 0.662526 0.000000
O O5 0.809940 0.054931 0.500000
O O6 0.788324 0.092360 0.234030
O O7 0.871375 0.060535 0.285718
O O8 0.804669 0.000000 0.265393
O O9 0.323509 0.674751 0.740985
O O10 0.232518 0.667318 0.766181
O O11 0.285151 0.649670 0.000000
O O12 0.364055 0.710355 0.500000
O O13 0.333413 0.762708 0.275015
O O14 0.250000 0.250000 0.179535
O O15 0.307881 0.208511 0.000000
O O16 0.540528 0.539736 0.777643
O O17 0.565561 0.436138 0.500000
#
# Coordination Sequence:
#
# PCOD9485413 Si02
#       7
#    16  16  16  16  16   4  16
#     4  11  23  35  45  60  82 109 140 177 220 262
#     4  10  20  31  43  62  85 111 143 178 221 264
#     4  10  19  31  47  65  86 111 137 170 215 261
#     4  11  20  30  47  67  85 107 136 173 215 261
#     4   8  16  30  46  65  87 108 131 164 209 260
#     4  12  21  32  49  62  77 104 145 190 233 276
#     4  11  20  31  46  60  75 103 140 181 226 267
#
# _framework density 13.825552999999999
#
# number of rings (size 3 to 8) (size 9 to 14) (size 15 to 20)
#    0.000    1.760    3.200    4.080    0.000    4.800 
#    0.000    0.800    0.000    0.000    0.000    0.000 
#    0.000    0.000    0.000    0.000    0.000    0.800 
#
# Total GULP energy -278459.042968 kJ/mol
# GULP energy per Si atom -5569.180859 kJ/mol
# Density = 1.379409 g / cm^3
# Si number density = 13.825553 Si / 1000 Ang^3
#
#
#
# Elastic Constant Matrix: (Units=GPa)
#
#
# Indices 1 2 3 4 5 6 
#
# 1 52.3631 43.1342 14.2175 0.0000 0.0000 0.0000
# 2 43.1342 73.8897 16.8286 0.0000 0.0000 0.0000
# 3 14.2175 16.8286 27.3599 0.0000 0.0000 0.0000
# 4 0.0000 0.0000 0.0000 29.7432 0.0000 0.0000
# 5 0.0000 0.0000 0.0000 0.0000 208.3164 0.0000
# 6 0.0000 0.0000 0.0000 0.0000 0.0000 36.1958
#
#
#
# Elastic Compliance Matrix: (Units=1/GPa)
#
#
# Indices 1 2 3 4 5 6 
#
# 1 0.037933 -0.020531 -0.007084 0.000000 0.000000 0.000000
# 2 -0.020531 0.026850 -0.005847 0.000000 0.000000 0.000000
# 3 -0.007084 -0.005847 0.043827 0.000000 0.000000 0.000000
# 4 0.000000 0.000000 0.000000 0.033621 0.000000 0.000000
# 5 0.000000 0.000000 0.000000 0.000000 0.004800 0.000000
# 6 0.000000 0.000000 0.000000 0.000000 0.000000 0.027628
#
#
# Mechanical properties :
#
#
# Convention : Reuss Voigt Hill
#
# Bulk Modulus (GPa) = 23.98739 33.55260 28.77000
# Shear Modulus (GPa) = 19.57123 60.14655 39.85889
#
# Velocity S-wave (km/s) = 3.76651 6.60290 5.37517
# Velocity P-wave (km/s) = 6.02521 9.08033 7.70570
#
# Compressibility (1/GPa) = 0.04168857
#
# Stress axis : x y z
#
# Youngs Moduli (GPa) = 26.36235 37.24356 22.81699
#
# Poissons Ratio (x) = 0.76463 0.16163
# Poissons Ratio (y) = 0.54123 0.13340
# Poissons Ratio (z) = 0.18674 0.21775
#
# Static dielectric constant tensor:
#      x y z
#    x 1.445240 0.000000 0.000000 
#    y 0.000000 1.458950 0.000000 
#    z 0.000000 0.000000 1.483790 
# 
# From -- ./inp_files/17239.got.cif
#   From: 2010.05.17/outbox.cif.g08.bks.cpg/sg65_9_cif.got.tgz:17239.got - 2010.06.03 17:01:31.
