data_PCOD9485928
_publ_section_title
;
Structure prediction by ZEFSAII (Michael W. Deem and Ramdas Pophale) SiO2 
 PCOD9485928
Probable space group: C M M M
;
_chemical_formula_sum "Si O2"
_cell_formula_units_Z 80
_cell_length_a 7.780456
_cell_length_b 19.063937
_cell_length_c 27.111442
_cell_angle_alpha 90.000000
_cell_angle_beta 90.000000
_cell_angle_gamma 90.000000
_cell_volume 4021.335081
_symmetry_space_group_name_H-M "C M M M"
_symmetry_group_IT_number 65
_symmetry_cell_setting 'orthorhombic'
loop_
_space_group_symop_operation_xyz
x,y,z
-x,-y,z
x,-y,-z
-x,y,-z
-x,-y,-z
x,y,-z
-x,y,z
x,-y,z
1/2+x,1/2+y,z
1/2-x,1/2-y,z
1/2+x,1/2-y,-z
1/2-x,1/2+y,-z
1/2-x,1/2-y,-z
1/2+x,1/2+y,-z
1/2-x,1/2+y,z
1/2+x,1/2-y,z
loop_
_atom_site_type_symbol
_atom_site_label
_atom_site_fract_x
_atom_site_fract_y
_atom_site_fract_z
Si Si1 0.300195 0.914240 0.500000
Si Si2 0.210653 0.918875 0.095595
Si Si3 0.205858 0.579157 0.393944
Si Si4 0.206732 0.832121 0.000000
Si Si5 0.207152 0.168295 0.189878
Si Si6 0.704119 0.668938 0.700662
O O1 0.500000 0.891654 0.500000
O O2 0.225100 0.893085 0.446828
O O3 0.297684 0.000000 0.500000
O O4 0.268841 0.881409 0.145966
O O5 0.000000 0.918581 0.095583
O O6 0.263841 0.000000 0.092128
O O7 0.267831 0.872740 0.048864
O O8 0.271869 0.500000 0.386473
O O9 0.237051 0.624516 0.345825
O O10 0.000000 0.574715 0.400105
O O11 0.250000 0.750000 0.000000
O O12 0.000000 0.837060 0.000000
O O13 0.250000 0.250000 0.180664
O O14 0.272328 0.149070 0.244772
O O15 0.000000 0.163120 0.190589
O O16 0.500000 0.662365 0.702824
O O17 0.750000 0.750000 0.693152
#
# Coordination Sequence:
#
# PCOD9485928 Si02
#       6
#     8  16  16   8  16  16
#     4   7  12  26  48  71  94 123 157 191 234 289
#     4   9  17  30  49  73  98 124 158 198 237 278
#     4   9  17  31  52  75  98 125 158 197 241 290
#     4  10  19  31  51  75  97 126 162 198 234 278
#     4   9  18  32  50  69  92 125 160 196 237 283
#     4  10  20  33  49  70  97 129 164 201 242 288
#
# _framework density 19.893892000000001
#
# number of rings (size 3 to 8) (size 9 to 14) (size 15 to 20)
#    0.000    2.900    0.000    2.700    0.000    3.200 
#    0.000    3.000    0.000    4.800    0.000    0.000 
#    0.000    0.000    0.000    0.000    0.000    0.000 
#
# Total GULP energy -222985.742698 kJ/mol
# GULP energy per Si atom -5574.643567 kJ/mol
# Density = 1.984861 g / cm^3
# Si number density = 19.893892 Si / 1000 Ang^3
#
#
#
# Elastic Constant Matrix: (Units=GPa)
#
#
# Indices 1 2 3 4 5 6 
#
# 1 25.8400 1.0218 12.0057 0.0000 0.0000 0.0000
# 2 1.0218 119.0198 132.4626 0.0000 0.0000 0.0000
# 3 12.0057 132.4626 248.3242 0.0000 0.0000 0.0000
# 4 0.0000 0.0000 0.0000 40.5734 0.0000 0.0000
# 5 0.0000 0.0000 0.0000 0.0000 6.8528 0.0000
# 6 0.0000 0.0000 0.0000 0.0000 0.0000 12.0811
#
#
#
# Elastic Compliance Matrix: (Units=1/GPa)
#
#
# Indices 1 2 3 4 5 6 
#
# 1 0.040551 0.004513 -0.004368 0.000000 0.000000 0.000000
# 2 0.004513 0.021180 -0.011516 0.000000 0.000000 0.000000
# 3 -0.004368 -0.011516 0.010381 0.000000 0.000000 0.000000
# 4 0.000000 0.000000 0.000000 0.024647 0.000000 0.000000
# 5 0.000000 0.000000 0.000000 0.000000 0.145926 0.000000
# 6 0.000000 0.000000 0.000000 0.000000 0.000000 0.082774
#
#
# Mechanical properties :
#
#
# Convention : Reuss Voigt Hill
#
# Bulk Modulus (GPa) = 20.25523 76.01825 48.13674
# Shear Modulus (GPa) = 13.71151 28.41439 21.06295
#
# Velocity S-wave (km/s) = 2.62817 3.78338 3.25740
# Velocity P-wave (km/s) = 4.40607 7.57497 6.19651
#
# Compressibility (1/GPa) = 0.04936997
#
# Stress axis : x y z
#
# Youngs Moduli (GPa) = 24.66053 47.21390 96.32752
#
# Poissons Ratio (x) = -0.21308 0.42075
# Poissons Ratio (y) = -0.11130 1.10933
# Poissons Ratio (z) = 0.10772 0.54373
#
# Static dielectric constant tensor:
#      x y z
#    x 1.753780 0.000000 0.000000 
#    y 0.000000 1.646140 0.000000 
#    z 0.000000 0.000000 1.745780 
# 
# From -- ./inp_files/72857.got.cif
#   From: 2010.05.17/outbox.cif.g08.bks.cpg/sg65_37_cif.got.tgz:72857.got - 2010.06.03 17:01:31.
