data_PCOD9485949
_publ_section_title
;
Structure prediction by ZEFSAII (Michael W. Deem and Ramdas Pophale) SiO2 
 PCOD9485949
Probable space group: C M M M
;
_chemical_formula_sum "Si O2"
_cell_formula_units_Z 80
_cell_length_a 18.521554
_cell_length_b 7.728243
_cell_length_c 27.013983
_cell_angle_alpha 90.000000
_cell_angle_beta 90.000000
_cell_angle_gamma 90.000000
_cell_volume 3866.756405
_symmetry_space_group_name_H-M "C M M M"
_symmetry_group_IT_number 65
_symmetry_cell_setting 'orthorhombic'
loop_
_space_group_symop_operation_xyz
x,y,z
-x,-y,z
x,-y,-z
-x,y,-z
-x,-y,-z
x,y,-z
-x,y,z
x,-y,z
1/2+x,1/2+y,z
1/2-x,1/2-y,z
1/2+x,1/2-y,-z
1/2-x,1/2+y,-z
1/2-x,1/2-y,-z
1/2+x,1/2+y,-z
1/2-x,1/2+y,z
1/2+x,1/2-y,z
loop_
_atom_site_type_symbol
_atom_site_label
_atom_site_fract_x
_atom_site_fract_y
_atom_site_fract_z
Si Si1 0.665180 0.293699 0.392518
Si Si2 0.335328 0.291933 0.500000
Si Si3 0.581414 0.206219 0.293383
Si Si4 0.083594 0.288060 0.901382
Si Si5 0.834263 0.708268 0.197241
Si Si6 0.334440 0.792017 0.000000
O O1 0.659721 0.500000 0.393756
O O2 0.750000 0.250000 0.386928
O O3 0.638545 0.226513 0.446437
O O4 0.620512 0.232560 0.345577
O O5 0.344367 0.500000 0.500000
O O6 0.250000 0.250000 0.500000
O O7 0.500000 0.276787 0.293510
O O8 0.628553 0.274959 0.247534
O O9 0.576335 0.000000 0.286114
O O10 0.084351 0.500000 0.901391
O O11 0.123999 0.229681 0.851653
O O12 0.125941 0.229260 0.950329
O O13 0.000000 0.235271 0.902074
O O14 0.840227 0.500000 0.197303
O O15 0.750000 0.750000 0.195558
O O16 0.250000 0.750000 0.000000
O O17 0.341123 0.000000 0.000000
#
# Coordination Sequence:
#
# PCOD9485949 Si02
#       6
#    16   8  16  16  16   8
#     4  10  19  33  54  78 103 132 167 207 251 299
#     4   8  16  30  49  74 101 129 163 203 247 296
#     4  10  21  36  52  72 100 134 171 210 253 301
#     4   9  17  31  52  76 100 130 170 210 247 292
#     4  10  20  34  53  75 100 131 166 207 253 301
#     4  10  19  31  51  77 103 132 168 210 250 292
#
# _framework density 20.689176
#
# number of rings (size 3 to 8) (size 9 to 14) (size 15 to 20)
#    0.000    2.400    0.000    2.700    0.000    7.200 
#    0.000    0.500    0.000    7.200    0.000    0.000 
#    0.000    0.000    0.000    0.000    0.000    0.000 
#
# Total GULP energy -223286.003454 kJ/mol
# GULP energy per Si atom -5582.150086 kJ/mol
# Density = 2.064209 g / cm^3
# Si number density = 20.689176 Si / 1000 Ang^3
#
#
#
# Elastic Constant Matrix: (Units=GPa)
#
#
# Indices 1 2 3 4 5 6 
#
# 1 180.7688 0.5066 136.3155 0.0000 0.0000 0.0000
# 2 0.5066 32.8640 7.5014 0.0000 0.0000 0.0000
# 3 136.3155 7.5014 254.3202 0.0000 0.0000 0.0000
# 4 0.0000 0.0000 0.0000 19.7673 0.0000 0.0000
# 5 0.0000 0.0000 0.0000 0.0000 -9.2838 0.0000
# 6 0.0000 0.0000 0.0000 0.0000 0.0000 23.5582
#
#
#
# Elastic Compliance Matrix: (Units=1/GPa)
#
#
# Indices 1 2 3 4 5 6 
#
# 1 0.009317 0.001003 -0.005024 0.000000 0.000000 0.000000
# 2 0.001003 0.030743 -0.001444 0.000000 0.000000 0.000000
# 3 -0.005024 -0.001444 0.006667 0.000000 0.000000 0.000000
# 4 0.000000 0.000000 0.000000 0.050588 0.000000 0.000000
# 5 0.000000 0.000000 0.000000 0.000000 -0.107714 0.000000
# 6 0.000000 0.000000 0.000000 0.000000 0.000000 0.042448
#
#
# Mechanical properties :
#
#
# Convention : Reuss Voigt Hill
#
# Bulk Modulus (GPa) = 27.93508 84.06666 56.00087
# Shear Modulus (GPa) = 91.05381 28.38364 59.71873
#
# Velocity S-wave (km/s) = 6.64123 3.70795 5.37842
# Velocity P-wave (km/s) = 8.50526 7.68461 8.10533
#
# Compressibility (1/GPa) = 0.03579728
#
# Stress axis : x y z
#
# Youngs Moduli (GPa) = 107.32549 32.52813 149.98407
#
# Poissons Ratio (x) = -0.03263 0.75348
# Poissons Ratio (y) = -0.10766 0.21664
# Poissons Ratio (z) = 0.53917 0.04698
#
# Static dielectric constant tensor:
#      x y z
#    x 1.685580 0.000000 0.000000 
#    y 0.000000 1.785870 0.000000 
#    z 0.000000 0.000000 1.755070 
# 
# From -- ./inp_files/75108.got.cif
#   From: 2010.05.17/outbox.cif.g08.bks.cpg/sg65_38_cif.got.tgz:75108.got - 2010.06.03 17:01:31.
