data_PCOD9485454
_publ_section_title
;
Structure prediction by ZEFSAII (Michael W. Deem and Ramdas Pophale) SiO2 
 PCOD9485454
Probable space group: C M M M
;
_chemical_formula_sum "Si O2"
_cell_formula_units_Z 88
_cell_length_a 29.262760
_cell_length_b 8.102398
_cell_length_c 21.997059
_cell_angle_alpha 90.000000
_cell_angle_beta 90.000000
_cell_angle_gamma 90.000000
_cell_volume 5215.470311
_symmetry_space_group_name_H-M "C M M M"
_symmetry_group_IT_number 65
_symmetry_cell_setting 'orthorhombic'
loop_
_space_group_symop_operation_xyz
x,y,z
-x,-y,z
x,-y,-z
-x,y,-z
-x,-y,-z
x,y,-z
-x,y,z
x,-y,z
1/2+x,1/2+y,z
1/2-x,1/2-y,z
1/2+x,1/2-y,-z
1/2-x,1/2+y,-z
1/2-x,1/2-y,-z
1/2+x,1/2+y,-z
1/2-x,1/2+y,z
1/2+x,1/2-y,z
loop_
_atom_site_type_symbol
_atom_site_label
_atom_site_fract_x
_atom_site_fract_y
_atom_site_fract_z
Si Si1 0.802867 0.302619 0.697940
Si Si2 0.696705 0.800677 0.565316
Si Si3 0.697050 0.699481 0.932713
Si Si4 0.055727 0.310635 0.000000
Si Si5 0.448191 0.198924 0.131685
Si Si6 0.358250 0.303795 0.184309
O O1 0.803747 0.500000 0.697341
O O2 0.750000 0.250000 0.705277
O O3 0.820286 0.242391 0.631404
O O4 0.832503 0.243834 0.754396
O O5 0.677259 0.742136 0.500000
O O6 0.750000 0.750000 0.565066
O O7 0.693956 0.000000 0.565193
O O8 0.695092 0.500000 0.932421
O O9 0.750000 0.750000 0.926217
O O10 0.668485 0.763366 0.875298
O O11 0.681160 0.756081 0.000000
O O12 0.067418 0.233658 0.934908
O O13 0.072477 0.500000 0.000000
O O14 0.000000 0.317191 0.000000
O O15 0.500000 0.255499 0.144087
O O16 0.410262 0.244423 0.180183
O O17 0.449906 0.000000 0.126279
O O18 0.358077 0.500000 0.179818
#
# Coordination Sequence:
#
# PCOD9485454 Si02
#       6
#    16  16  16   8  16  16
#     4  10  19  31  47  67  95 126 157 191 225 266
#     4   8  14  25  42  64  89 119 152 184 219 259
#     4   9  19  34  47  60  81 111 149 190 227 262
#     4   7  12  26  47  67  84 103 132 175 227 279
#     4   9  18  33  51  69  89 113 145 187 234 284
#     4  11  22  32  46  66  91 121 154 191 229 276
#
# _framework density 16.872879000000001
#
# number of rings (size 3 to 8) (size 9 to 14) (size 15 to 20)
#    0.000    2.818    0.000    2.727    1.273    4.000 
#    0.000    0.000    0.000    1.636    0.000    0.000 
#    0.000    0.727    0.000    8.364    0.000    2.364 
#
# Total GULP energy -245080.588680 kJ/mol
# GULP energy per Si atom -5570.013379 kJ/mol
# Density = 1.683448 g / cm^3
# Si number density = 16.872879 Si / 1000 Ang^3
#
#
#
# Elastic Constant Matrix: (Units=GPa)
#
#
# Indices 1 2 3 4 5 6 
#
# 1 70.7771 7.7537 71.2301 0.0000 0.0000 0.0000
# 2 7.7537 18.3925 14.1901 0.0000 0.0000 0.0000
# 3 71.2301 14.1901 155.7500 0.0000 0.0000 0.0000
# 4 0.0000 0.0000 0.0000 15.8287 0.0000 0.0000
# 5 0.0000 0.0000 0.0000 0.0000 9.3858 0.0000
# 6 0.0000 0.0000 0.0000 0.0000 0.0000 15.4450
#
#
#
# Elastic Compliance Matrix: (Units=1/GPa)
#
#
# Indices 1 2 3 4 5 6 
#
# 1 0.026242 -0.001940 -0.011824 0.000000 0.000000 0.000000
# 2 -0.001940 0.058624 -0.004454 0.000000 0.000000 0.000000
# 3 -0.011824 -0.004454 0.012234 0.000000 0.000000 0.000000
# 4 0.000000 0.000000 0.000000 0.063176 0.000000 0.000000
# 5 0.000000 0.000000 0.000000 0.000000 0.106544 0.000000
# 6 0.000000 0.000000 0.000000 0.000000 0.000000 0.064746
#
#
# Mechanical properties :
#
#
# Convention : Reuss Voigt Hill
#
# Bulk Modulus (GPa) = 16.48449 47.91861 32.20155
# Shear Modulus (GPa) = 12.87917 18.24828 15.56372
#
# Velocity S-wave (km/s) = 2.76580 3.29221 3.04042
# Velocity P-wave (km/s) = 4.47108 6.55080 5.60819
#
# Compressibility (1/GPa) = 0.06066308
#
# Stress axis : x y z
#
# Youngs Moduli (GPa) = 38.10755 17.05784 81.73886
#
# Poissons Ratio (x) = 0.03309 0.96652
# Poissons Ratio (y) = 0.07393 0.36406
# Poissons Ratio (z) = 0.45060 0.07597
#
# Static dielectric constant tensor:
#      x y z
#    x 1.548030 0.000000 0.000000 
#    y 0.000000 1.605760 0.000000 
#    z 0.000000 0.000000 1.637410 
# 
# From -- ./inp_files/60636.got.cif
#   From: 2010.05.17/outbox.cif.g08.bks.cpg/sg65_31_cif.got.tgz:60636.got - 2010.06.03 17:01:31.
