data_PCOD9485674
_publ_section_title
;
Structure prediction by ZEFSAII (Michael W. Deem and Ramdas Pophale) SiO2 
 PCOD9485674
Probable space group: C M M M
;
_chemical_formula_sum "Si O2"
_cell_formula_units_Z 104
_cell_length_a 28.112115
_cell_length_b 8.056501
_cell_length_c 23.478714
_cell_angle_alpha 90.000000
_cell_angle_beta 90.000000
_cell_angle_gamma 90.000000
_cell_volume 5317.583176
_symmetry_space_group_name_H-M "C M M M"
_symmetry_group_IT_number 65
_symmetry_cell_setting 'orthorhombic'
loop_
_space_group_symop_operation_xyz
x,y,z
-x,-y,z
x,-y,-z
-x,y,-z
-x,-y,-z
x,y,-z
-x,y,z
x,-y,z
1/2+x,1/2+y,z
1/2-x,1/2-y,z
1/2+x,1/2-y,-z
1/2-x,1/2+y,-z
1/2-x,1/2-y,-z
1/2+x,1/2+y,-z
1/2-x,1/2+y,z
1/2+x,1/2-y,z
loop_
_atom_site_type_symbol
_atom_site_label
_atom_site_fract_x
_atom_site_fract_y
_atom_site_fract_z
Si Si1 0.116256 0.685782 0.068256
Si Si2 0.304678 0.300380 0.850373
Si Si3 0.402266 0.201379 0.563394
Si Si4 0.802700 0.697189 0.613732
Si Si5 0.848688 0.799989 0.730443
Si Si6 0.947446 0.801155 0.680333
Si Si7 0.445950 0.500000 0.069402
O O1 0.098761 0.500000 0.081489
O O2 0.166165 0.718026 0.098628
O O3 0.081513 0.833948 0.087476
O O4 0.121121 0.697910 0.000000
O O5 0.308703 0.500000 0.854731
O O6 0.250000 0.250000 0.850885
O O7 0.328514 0.244607 0.790880
O O8 0.416299 0.254022 0.500000
O O9 0.347934 0.257232 0.576916
O O10 0.434910 0.265193 0.614475
O O11 0.403160 0.000000 0.565242
O O12 0.803830 0.500000 0.611641
O O13 0.750000 0.750000 0.596053
O O14 0.814446 0.751284 0.678326
O O15 0.901852 0.737012 0.715709
O O16 0.850427 0.000000 0.731560
O O17 0.000000 0.735668 0.694638
O O18 0.948439 0.000000 0.687936
O O19 0.500000 0.500000 0.089595
O O20 0.446600 0.500000 0.000000
#
# Coordination Sequence:
#
# PCOD9485674 Si02
#       7
#    16  16  16  16  16  16   8
#     4  10  21  38  60  88 124 161 200 248 296 350
#     4  11  22  36  56  82 115 153 195 238 290 349
#     4   9  19  34  49  69  99 133 170 212 260 318
#     4  10  19  31  49  71  97 132 171 215 266 319
#     4   9  19  35  54  76 106 138 178 223 272 328
#     4   9  18  34  55  77 102 134 172 216 269 325
#     4   9  18  36  62  88 118 158 200 244 292 342
#
# _framework density 19.557756999999999
#
# number of rings (size 3 to 8) (size 9 to 14) (size 15 to 20)
#    0.000    2.385    0.769    1.385    0.000    4.923 
#    0.000    3.846    0.000    0.000    0.000    0.000 
#    0.000    0.000    0.000    0.000    0.000    0.000 
#
# Total GULP energy -290169.995244 kJ/mol
# GULP energy per Si atom -5580.192216 kJ/mol
# Density = 1.951324 g / cm^3
# Si number density = 19.557757 Si / 1000 Ang^3
#
#
#
# Elastic Constant Matrix: (Units=GPa)
#
#
# Indices 1 2 3 4 5 6 
#
# 1 125.6699 30.7656 22.6098 0.0000 0.0000 0.0000
# 2 30.7656 61.8097 28.6904 0.0000 0.0000 0.0000
# 3 22.6098 28.6904 26.0615 0.0000 0.0000 0.0000
# 4 0.0000 0.0000 0.0000 4.5928 0.0000 0.0000
# 5 0.0000 0.0000 0.0000 0.0000 8.6171 0.0000
# 6 0.0000 0.0000 0.0000 0.0000 0.0000 20.8318
#
#
#
# Elastic Compliance Matrix: (Units=1/GPa)
#
#
# Indices 1 2 3 4 5 6 
#
# 1 0.009532 -0.001853 -0.006230 0.000000 0.000000 0.000000
# 2 -0.001853 0.033445 -0.035211 0.000000 0.000000 0.000000
# 3 -0.006230 -0.035211 0.082538 0.000000 0.000000 0.000000
# 4 0.000000 0.000000 0.000000 0.217733 0.000000 0.000000
# 5 0.000000 0.000000 0.000000 0.000000 0.116049 0.000000
# 6 0.000000 0.000000 0.000000 0.000000 0.000000 0.048004
#
#
# Mechanical properties :
#
#
# Convention : Reuss Voigt Hill
#
# Bulk Modulus (GPa) = 25.68864 41.96362 33.82613
# Shear Modulus (GPa) = 8.23908 15.57334 11.90621
#
# Velocity S-wave (km/s) = 2.05471 2.82489 2.47001
# Velocity P-wave (km/s) = 4.33502 5.66947 5.04655
#
# Compressibility (1/GPa) = 0.03892771
#
# Stress axis : x y z
#
# Youngs Moduli (GPa) = 104.91259 29.89987 12.11560
#
# Poissons Ratio (x) = 0.05540 0.07548
# Poissons Ratio (y) = 0.19438 0.42660
# Poissons Ratio (z) = 0.65357 1.05281
#
# Static dielectric constant tensor:
#      x y z
#    x 1.663640 0.000000 0.000000 
#    y 0.000000 1.695580 0.000000 
#    z 0.000000 0.000000 1.670590 
# 
# From -- ./inp_files/71825.got.cif
#   From: 2010.05.17/outbox.cif.g08.bks.cpg/sg65_36_cif.got.tgz:71825.got - 2010.06.03 17:01:31.
