data_PCOD9485033
_publ_section_title
;
Structure prediction by ZEFSAII (Michael W. Deem and Ramdas Pophale) SiO2 
 PCOD9485033
Probable space group: C M M M
;
_chemical_formula_sum "Si O2"
_cell_formula_units_Z 104
_cell_length_a 27.796589
_cell_length_b 9.030483
_cell_length_c 27.128822
_cell_angle_alpha 90.000000
_cell_angle_beta 90.000000
_cell_angle_gamma 90.000000
_cell_volume 6809.785323
_symmetry_space_group_name_H-M "C M M M"
_symmetry_group_IT_number 65
_symmetry_cell_setting 'orthorhombic'
loop_
_space_group_symop_operation_xyz
x,y,z
-x,-y,z
x,-y,-z
-x,y,-z
-x,-y,-z
x,y,-z
-x,y,z
x,-y,z
1/2+x,1/2+y,z
1/2-x,1/2-y,z
1/2+x,1/2-y,-z
1/2-x,1/2+y,-z
1/2-x,1/2-y,-z
1/2+x,1/2+y,-z
1/2-x,1/2+y,z
1/2+x,1/2-y,z
loop_
_atom_site_type_symbol
_atom_site_label
_atom_site_fract_x
_atom_site_fract_y
_atom_site_fract_z
Si Si1 0.648699 0.174880 0.092865
Si Si2 0.698499 0.824276 0.198504
Si Si3 0.802579 0.824047 0.000000
Si Si4 0.944800 0.677152 0.151726
Si Si5 0.943963 0.177865 0.654556
Si Si6 0.893845 0.821939 0.243803
Si Si7 0.441824 0.825227 0.553995
O O1 0.680784 0.196950 0.141971
O O2 0.594377 0.213180 0.109745
O O3 0.650409 0.000000 0.080172
O O4 0.668950 0.269206 0.048184
O O5 0.750000 0.750000 0.205523
O O6 0.657729 0.749114 0.232011
O O7 0.700370 0.000000 0.207456
O O8 0.750000 0.750000 0.000000
O O9 0.797468 0.000000 0.000000
O O10 0.939932 0.500000 0.160865
O O11 0.929213 0.762094 0.201103
O O12 0.000000 0.708327 0.138683
O O13 0.914149 0.221639 0.702753
O O14 0.925069 0.243596 0.603142
O O15 0.000000 0.223494 0.660961
O O16 0.943283 0.000000 0.651302
O O17 0.891323 0.000000 0.241155
O O18 0.424680 0.771878 0.500000
O O19 0.500000 0.809322 0.553580
O O20 0.431547 0.000000 0.557530
#
# Coordination Sequence:
#
# PCOD9485033 Si02
#       7
#    16  16   8  16  16  16  16
#     4   9  19  35  53  73  96 120 149 184 221 266
#     4  10  20  34  52  72  93 119 150 184 226 274
#     4  12  24  36  53  74  95 119 148 185 229 274
#     4   9  18  33  52  72  94 123 158 191 224 265
#     4   9  17  27  39  59  88 121 155 188 223 263
#     4  10  19  30  45  67  95 124 154 189 227 269
#     4   8  14  24  37  54  78 111 151 191 229 267
#
# _framework density 15.272141
#
# number of rings (size 3 to 8) (size 9 to 14) (size 15 to 20)
#    0.000    2.615    0.000    3.923    0.000    6.769 
#    0.000    3.462    0.000    2.308    0.000    0.000 
#    0.000    0.615    0.000    2.000    0.000    2.923 
#
# Total GULP energy -289851.363775 kJ/mol
# GULP energy per Si atom -5574.064688 kJ/mol
# Density = 1.523738 g / cm^3
# Si number density = 15.272141 Si / 1000 Ang^3
#
#
#
# Elastic Constant Matrix: (Units=GPa)
#
#
# Indices 1 2 3 4 5 6 
#
# 1 109.9263 48.5386 66.6767 0.0000 0.0000 0.0000
# 2 48.5386 59.0314 67.1748 0.0000 0.0000 0.0000
# 3 66.6767 67.1748 134.2900 0.0000 0.0000 0.0000
# 4 0.0000 0.0000 0.0000 28.8227 0.0000 0.0000
# 5 0.0000 0.0000 0.0000 0.0000 13.8329 0.0000
# 6 0.0000 0.0000 0.0000 0.0000 0.0000 21.5030
#
#
#
# Elastic Compliance Matrix: (Units=1/GPa)
#
#
# Indices 1 2 3 4 5 6 
#
# 1 0.014760 -0.008814 -0.002919 0.000000 0.000000 0.000000
# 2 -0.008814 0.044588 -0.017928 0.000000 0.000000 0.000000
# 3 -0.002919 -0.017928 0.017864 0.000000 0.000000 0.000000
# 4 0.000000 0.000000 0.000000 0.034695 0.000000 0.000000
# 5 0.000000 0.000000 0.000000 0.000000 0.072291 0.000000
# 6 0.000000 0.000000 0.000000 0.000000 0.000000 0.046505
#
#
# Mechanical properties :
#
#
# Convention : Reuss Voigt Hill
#
# Bulk Modulus (GPa) = 55.89846 74.22533 65.06189
# Shear Modulus (GPa) = 16.89251 20.88888 18.89070
#
# Velocity S-wave (km/s) = 3.32942 3.70236 3.52083
# Velocity P-wave (km/s) = 7.17364 8.18437 7.69561
#
# Compressibility (1/GPa) = 0.01788958
#
# Stress axis : x y z
#
# Youngs Moduli (GPa) = 67.75213 22.42736 55.97857
#
# Poissons Ratio (x) = 0.19768 0.16342
# Poissons Ratio (y) = 0.59717 1.00357
# Poissons Ratio (z) = 0.19780 0.40207
#
# Static dielectric constant tensor:
#      x y z
#    x 1.495680 0.000000 0.000000 
#    y 0.000000 1.508830 0.000000 
#    z 0.000000 0.000000 1.502960 
# 
# From -- ./inp_files/76009.got.cif
#   From: 2010.05.17/outbox.cif.g08.bks.cpg/sg65_39_cif.got.tgz:76009.got - 2010.06.03 17:01:31.
