data_PCOD9485762
_publ_section_title
;
Structure prediction by ZEFSAII (Michael W. Deem and Ramdas Pophale) SiO2 
 PCOD9485762
Probable space group: C M M M
;
_chemical_formula_sum "Si O2"
_cell_formula_units_Z 48
_cell_length_a 39.242687
_cell_length_b 8.545198
_cell_length_c 7.765380
_cell_angle_alpha 90.000000
_cell_angle_beta 90.000000
_cell_angle_gamma 90.000000
_cell_volume 2604.015587
_symmetry_space_group_name_H-M "C M M M"
_symmetry_group_IT_number 65
_symmetry_cell_setting 'orthorhombic'
loop_
_space_group_symop_operation_xyz
x,y,z
-x,-y,z
x,-y,-z
-x,y,-z
-x,-y,-z
x,y,-z
-x,y,z
x,-y,z
1/2+x,1/2+y,z
1/2-x,1/2-y,z
1/2+x,1/2-y,-z
1/2-x,1/2+y,-z
1/2-x,1/2-y,-z
1/2+x,1/2+y,-z
1/2-x,1/2+y,z
1/2+x,1/2-y,z
loop_
_atom_site_type_symbol
_atom_site_label
_atom_site_fract_x
_atom_site_fract_y
_atom_site_fract_z
Si Si1 0.461333 0.809365 0.196641
Si Si2 0.664933 0.313979 0.500000
Si Si3 0.287725 0.187604 0.198958
Si Si4 0.088357 0.690016 0.500000
O O1 0.500000 0.761588 0.243423
O O2 0.433228 0.758616 0.332953
O O3 0.461297 0.000000 0.198082
O O4 0.454536 0.760267 0.000000
O O5 0.665319 0.500000 0.500000
O O6 0.685035 0.252855 0.667557
O O7 0.626414 0.252833 0.500000
O O8 0.250000 0.250000 0.242241
O O9 0.287434 0.000000 0.209092
O O10 0.294907 0.232747 0.000000
O O11 0.089615 0.500000 0.500000
#
# Coordination Sequence:
#
# PCOD9485762 Si02
#       4
#    16   8  16   8
#     4   8  14  26  47  75 102 128 165 217 272 320
#     4  12  25  38  53  77 114 154 187 222 267 321
#     4  10  21  39  63  87 110 139 179 226 273 322
#     4  10  19  31  49  74 103 136 176 220 267 317
#
# _framework density 18.433069
#
# number of rings (size 3 to 8) (size 9 to 14) (size 15 to 20)
#    0.000    2.333    0.000    4.500    0.000    5.333 
#    0.000    3.333    0.000    2.000    0.000    2.333 
#    0.000    0.000    0.000    0.000    0.000    0.000 
#
# Total GULP energy -133981.358530 kJ/mol
# GULP energy per Si atom -5582.556605 kJ/mol
# Density = 1.839111 g / cm^3
# Si number density = 18.433069 Si / 1000 Ang^3
#
#
#
# Elastic Constant Matrix: (Units=GPa)
#
#
# Indices 1 2 3 4 5 6 
#
# 1 203.7986 43.1745 141.9403 0.0000 0.0000 0.0000
# 2 43.1745 40.7163 39.1487 0.0000 0.0000 0.0000
# 3 141.9403 39.1487 144.2450 0.0000 0.0000 0.0000
# 4 0.0000 0.0000 0.0000 9.8507 0.0000 0.0000
# 5 0.0000 0.0000 0.0000 0.0000 -11.2189 0.0000
# 6 0.0000 0.0000 0.0000 0.0000 0.0000 24.2042
#
#
#
# Elastic Compliance Matrix: (Units=1/GPa)
#
#
# Indices 1 2 3 4 5 6 
#
# 1 0.015771 -0.002438 -0.014857 0.000000 0.000000 0.000000
# 2 -0.002438 0.033609 -0.006723 0.000000 0.000000 0.000000
# 3 -0.014857 -0.006723 0.023377 0.000000 0.000000 0.000000
# 4 0.000000 0.000000 0.000000 0.101516 0.000000 0.000000
# 5 0.000000 0.000000 0.000000 0.000000 -0.089135 0.000000
# 6 0.000000 0.000000 0.000000 0.000000 0.000000 0.041315
#
#
# Mechanical properties :
#
#
# Convention : Reuss Voigt Hill
#
# Bulk Modulus (GPa) = 40.45082 93.03189 66.74135
# Shear Modulus (GPa) = 27.36279 15.53362 21.44820
#
# Velocity S-wave (km/s) = 3.85702 2.90609 3.41482
# Velocity P-wave (km/s) = 6.46744 7.86385 7.19958
#
# Compressibility (1/GPa) = 0.02472138
#
# Stress axis : x y z
#
# Youngs Moduli (GPa) = 63.40722 29.75383 42.77650
#
# Poissons Ratio (x) = 0.07253 0.63555
# Poissons Ratio (y) = 0.15457 0.28758
# Poissons Ratio (z) = 0.94207 0.20003
#
# Static dielectric constant tensor:
#      x y z
#    x 1.594770 0.000000 0.000000 
#    y 0.000000 1.634140 0.000000 
#    z 0.000000 0.000000 1.640960 
# 
# From -- ./inp_files/17533.got.cif
#   From: 2010.05.17/outbox.cif.g08.bks.cpg/sg65_9_cif.got.tgz:17533.got - 2010.06.03 17:01:31.
