data_PCOD9485660
_publ_section_title
;
Structure prediction by ZEFSAII (Michael W. Deem and Ramdas Pophale) SiO2 
 PCOD9485660
Probable space group: C M M M
;
_chemical_formula_sum "Si O2"
_cell_formula_units_Z 104
_cell_length_a 8.673364
_cell_length_b 28.281585
_cell_length_c 27.273566
_cell_angle_alpha 90.000000
_cell_angle_beta 90.000000
_cell_angle_gamma 90.000000
_cell_volume 6690.109770
_symmetry_space_group_name_H-M "C M M M"
_symmetry_group_IT_number 65
_symmetry_cell_setting 'orthorhombic'
loop_
_space_group_symop_operation_xyz
x,y,z
-x,-y,z
x,-y,-z
-x,y,-z
-x,-y,-z
x,y,-z
-x,y,z
x,-y,z
1/2+x,1/2+y,z
1/2-x,1/2-y,z
1/2+x,1/2-y,-z
1/2-x,1/2+y,-z
1/2-x,1/2-y,-z
1/2+x,1/2+y,-z
1/2-x,1/2+y,z
1/2+x,1/2-y,z
loop_
_atom_site_type_symbol
_atom_site_label
_atom_site_fract_x
_atom_site_fract_y
_atom_site_fract_z
Si Si1 0.321674 0.442694 0.000000
Si Si2 0.187053 0.552906 0.701965
Si Si3 0.684583 0.302625 0.443884
Si Si4 0.813351 0.609407 0.200716
Si Si5 0.684061 0.698174 0.744643
Si Si6 0.685792 0.054831 0.896301
Si Si7 0.814564 0.353272 0.649215
O O1 0.243410 0.427841 0.050816
O O2 0.311201 0.500000 0.000000
O O3 0.500000 0.429219 0.000000
O O4 0.245484 0.500000 0.693465
O O5 0.227566 0.572607 0.755830
O O6 0.234051 0.593418 0.663707
O O7 0.000000 0.551138 0.700548
O O8 0.724179 0.315962 0.500000
O O9 0.500000 0.301361 0.439462
O O10 0.750000 0.250000 0.435436
O O11 0.754272 0.336712 0.403106
O O12 0.740805 0.659246 0.216111
O O13 0.764510 0.587604 0.148844
O O14 0.000000 0.614201 0.201040
O O15 0.500000 0.699431 0.742934
O O16 0.750000 0.750000 0.755077
O O17 0.748455 0.680262 0.692105
O O18 0.500000 0.054291 0.896625
O O19 0.736515 0.000000 0.889076
O O20 0.000000 0.350543 0.650880
#
# Coordination Sequence:
#
# PCOD9485660 Si02
#       7
#     8  16  16  16  16  16  16
#     4   9  17  27  39  59  90 125 158 193 231 269
#     4   8  14  26  45  68  92 118 149 184 220 258
#     4  10  20  33  49  69  93 119 148 184 227 274
#     4   9  17  29  46  69  93 118 151 189 228 268
#     4  11  21  33  48  66  92 122 152 185 223 269
#     4   9  16  27  45  67  92 123 157 191 226 268
#     4  10  19  31  49  71  94 120 151 186 223 265
#
# _framework density 15.545336000000001
#
# number of rings (size 3 to 8) (size 9 to 14) (size 15 to 20)
#    0.000    2.538    0.000    4.385    0.000    4.308 
#    0.000    0.000    0.000   15.692    0.000    3.769 
#    0.000    0.000    0.000    0.000    0.000    0.000 
#
# Total GULP energy -289897.267127 kJ/mol
# GULP energy per Si atom -5574.947445 kJ/mol
# Density = 1.550995 g / cm^3
# Si number density = 15.545336 Si / 1000 Ang^3
#
#
#
# Elastic Constant Matrix: (Units=GPa)
#
#
# Indices 1 2 3 4 5 6 
#
# 1 50.6665 36.6526 43.0603 0.0000 0.0000 0.0000
# 2 36.6526 123.0757 84.5286 0.0000 0.0000 0.0000
# 3 43.0603 84.5286 145.8003 0.0000 0.0000 0.0000
# 4 0.0000 0.0000 0.0000 22.6081 0.0000 0.0000
# 5 0.0000 0.0000 0.0000 0.0000 23.0532 0.0000
# 6 0.0000 0.0000 0.0000 0.0000 0.0000 18.8071
#
#
#
# Elastic Compliance Matrix: (Units=1/GPa)
#
#
# Indices 1 2 3 4 5 6 
#
# 1 0.027697 -0.004371 -0.005646 0.000000 0.000000 0.000000
# 2 -0.004371 0.014190 -0.006936 0.000000 0.000000 0.000000
# 3 -0.005646 -0.006936 0.012548 0.000000 0.000000 0.000000
# 4 0.000000 0.000000 0.000000 0.044232 0.000000 0.000000
# 5 0.000000 0.000000 0.000000 0.000000 0.043378 0.000000
# 6 0.000000 0.000000 0.000000 0.000000 0.000000 0.053171
#
#
# Mechanical properties :
#
#
# Convention : Reuss Voigt Hill
#
# Bulk Modulus (GPa) = 48.71090 72.00284 60.35687
# Shear Modulus (GPa) = 21.18955 23.24708 22.21831
#
# Velocity S-wave (km/s) = 3.69600 3.87128 3.78466
# Velocity P-wave (km/s) = 7.04391 8.14868 7.61635
#
# Compressibility (1/GPa) = 0.02052929
#
# Stress axis : x y z
#
# Youngs Moduli (GPa) = 36.10476 70.46982 79.69696
#
# Poissons Ratio (x) = 0.30799 0.44998
# Poissons Ratio (y) = 0.15780 0.55280
# Poissons Ratio (z) = 0.20385 0.48879
#
# Static dielectric constant tensor:
#      x y z
#    x 1.526760 0.000000 0.000000 
#    y 0.000000 1.507920 0.000000 
#    z 0.000000 0.000000 1.509420 
# 
# From -- ./inp_files/73791.got.cif
#   From: 2010.05.17/outbox.cif.g08.bks.cpg/sg65_37_cif.got.tgz:73791.got - 2010.06.03 17:01:31.
