data_PCOD9485920
_publ_section_title
;
Structure prediction by ZEFSAII (Michael W. Deem and Ramdas Pophale) SiO2 
 PCOD9485920
Probable space group: C M M M
;
_chemical_formula_sum "Si O2"
_cell_formula_units_Z 128
_cell_length_a 24.868696
_cell_length_b 17.249116
_cell_length_c 18.389628
_cell_angle_alpha 90.000000
_cell_angle_beta 90.000000
_cell_angle_gamma 90.000000
_cell_volume 7888.470402
_symmetry_space_group_name_H-M "C M M M"
_symmetry_group_IT_number 65
_symmetry_cell_setting 'orthorhombic'
loop_
_space_group_symop_operation_xyz
x,y,z
-x,-y,z
x,-y,-z
-x,y,-z
-x,-y,-z
x,y,-z
-x,y,z
x,-y,z
1/2+x,1/2+y,z
1/2-x,1/2-y,z
1/2+x,1/2-y,-z
1/2-x,1/2+y,-z
1/2-x,1/2-y,-z
1/2+x,1/2+y,-z
1/2-x,1/2+y,z
1/2+x,1/2-y,z
loop_
_atom_site_type_symbol
_atom_site_label
_atom_site_fract_x
_atom_site_fract_y
_atom_site_fract_z
Si Si1 0.150599 0.593754 0.416037
Si Si2 0.226925 0.594110 0.713660
Si Si3 0.404624 0.778559 0.918829
Si Si4 0.937403 0.649958 0.689275
Si Si5 0.559750 0.306660 0.221969
Si Si6 0.867737 0.410877 0.817609
Si Si7 0.293167 0.685231 0.918321
Si Si8 0.833029 0.907722 0.785533
O O1 0.159105 0.613701 0.500000
O O2 0.144559 0.500000 0.411042
O O3 0.199541 0.616201 0.362341
O O4 0.097889 0.632759 0.381489
O O5 0.226129 0.500000 0.716983
O O6 0.186796 0.620138 0.778690
O O7 0.288186 0.617950 0.726535
O O8 0.438809 0.735669 0.856823
O O9 0.387256 0.860656 0.885147
O O10 0.349792 0.729534 0.923049
O O11 0.427764 0.783586 0.000000
O O12 0.932173 0.737872 0.719332
O O13 0.911819 0.597978 0.753621
O O14 0.000000 0.633234 0.678729
O O15 0.500000 0.340899 0.232438
O O16 0.610140 0.364672 0.223672
O O17 0.860078 0.500000 0.837000
O O18 0.250000 0.750000 0.894613
O O19 0.304524 0.617496 0.861173
O O20 0.277728 0.658929 0.000000
O O21 0.840313 0.000000 0.782912
#
# Coordination Sequence:
#
# PCOD9485920 Si02
#       8
#    16  16  16  16  16  16  16  16
#     4   9  17  29  47  73 104 133 158 188 226 269
#     4   8  15  28  44  65  94 123 148 178 225 279
#     4   9  17  28  42  61  85 117 157 194 232 282
#     4   9  17  30  46  64  92 130 166 195 228 275
#     4   9  19  34  49  65  87 119 156 196 247 297
#     4   9  16  26  41  62  91 126 162 199 233 266
#     4   9  17  29  44  64  93 125 154 187 231 282
#     4  10  19  31  51  74  92 117 156 201 244 283
#
# _framework density 16.226213000000001
#
# number of rings (size 3 to 8) (size 9 to 14) (size 15 to 20)
#    0.000    3.000    0.000    1.875    0.000    3.250 
#    0.000    0.625    0.000    6.000    0.000    7.000 
#    0.000    0.000    0.000    7.625    0.000    0.000 
#
# Total GULP energy -356287.937111 kJ/mol
# GULP energy per Si atom -5566.999017 kJ/mol
# Density = 1.618928 g / cm^3
# Si number density = 16.226213 Si / 1000 Ang^3
#
#
#
# Elastic Constant Matrix: (Units=GPa)
#
#
# Indices 1 2 3 4 5 6 
#
# 1 119.5830 35.7406 45.2322 0.0000 0.0000 0.0000
# 2 35.7406 38.7728 29.8521 0.0000 0.0000 0.0000
# 3 45.2322 29.8521 84.1205 0.0000 0.0000 0.0000
# 4 0.0000 0.0000 0.0000 14.5508 0.0000 0.0000
# 5 0.0000 0.0000 0.0000 0.0000 10.6935 0.0000
# 6 0.0000 0.0000 0.0000 0.0000 0.0000 18.7208
#
#
#
# Elastic Compliance Matrix: (Units=1/GPa)
#
#
# Indices 1 2 3 4 5 6 
#
# 1 0.012269 -0.008573 -0.003555 0.000000 0.000000 0.000000
# 2 -0.008573 0.041477 -0.010110 0.000000 0.000000 0.000000
# 3 -0.003555 -0.010110 0.017387 0.000000 0.000000 0.000000
# 4 0.000000 0.000000 0.000000 0.068725 0.000000 0.000000
# 5 0.000000 0.000000 0.000000 0.000000 0.093515 0.000000
# 6 0.000000 0.000000 0.000000 0.000000 0.000000 0.053417
#
#
# Mechanical properties :
#
#
# Convention : Reuss Voigt Hill
#
# Bulk Modulus (GPa) = 37.51111 51.56956 44.54034
# Shear Modulus (GPa) = 14.69940 17.56978 16.13459
#
# Velocity S-wave (km/s) = 3.01309 3.29417 3.15676
# Velocity P-wave (km/s) = 5.93909 6.80583 6.38718
#
# Compressibility (1/GPa) = 0.02665877
#
# Stress axis : x y z
#
# Youngs Moduli (GPa) = 81.50455 24.10970 57.51458
#
# Poissons Ratio (x) = 0.20668 0.20447
# Poissons Ratio (y) = 0.69871 0.58145
# Poissons Ratio (z) = 0.28975 0.24374
#
# Static dielectric constant tensor:
#      x y z
#    x 1.562930 0.000000 0.000000 
#    y 0.000000 1.539470 0.000000 
#    z 0.000000 0.000000 1.555040 
# 
# From -- ./inp_files/55088.got.cif
#   From: 2010.05.17/outbox.cif.g08.bks.cpg/sg65_28_cif.got.tgz:55088.got - 2010.06.03 17:01:31.
