data_PCOD9485093
_publ_section_title
;
Structure prediction by ZEFSAII (Michael W. Deem and Ramdas Pophale) SiO2 
 PCOD9485093
Probable space group: C M M M
;
_chemical_formula_sum "Si O2"
_cell_formula_units_Z 96
_cell_length_a 7.376267
_cell_length_b 18.596108
_cell_length_c 32.320932
_cell_angle_alpha 90.000000
_cell_angle_beta 90.000000
_cell_angle_gamma 90.000000
_cell_volume 4433.457645
_symmetry_space_group_name_H-M "C M M M"
_symmetry_group_IT_number 65
_symmetry_cell_setting 'orthorhombic'
loop_
_space_group_symop_operation_xyz
x,y,z
-x,-y,z
x,-y,-z
-x,y,-z
-x,-y,-z
x,y,-z
-x,y,z
x,-y,z
1/2+x,1/2+y,z
1/2-x,1/2-y,z
1/2+x,1/2-y,-z
1/2-x,1/2+y,-z
1/2-x,1/2-y,-z
1/2+x,1/2+y,-z
1/2-x,1/2+y,z
1/2+x,1/2-y,z
loop_
_atom_site_type_symbol
_atom_site_label
_atom_site_fract_x
_atom_site_fract_y
_atom_site_fract_z
Si Si1 0.216592 0.665534 0.453919
Si Si2 0.220780 0.583495 0.953818
Si Si3 0.721796 0.916727 0.791029
Si Si4 0.721798 0.917010 0.627135
Si Si5 0.716411 0.165468 0.126995
Si Si6 0.783690 0.334821 0.708932
O O1 0.287085 0.648185 0.500000
O O2 0.250000 0.750000 0.446271
O O3 0.284376 0.618572 0.415745
O O4 0.000000 0.655516 0.455297
O O5 0.271479 0.500000 0.947350
O O6 0.285283 0.632279 0.916065
O O7 0.000000 0.585322 0.954034
O O8 0.279545 0.605515 0.000000
O O9 0.500000 0.915532 0.791075
O O10 0.783521 0.876877 0.832669
O O11 0.783561 0.874416 0.750189
O O12 0.775834 0.000000 0.790233
O O13 0.500000 0.915234 0.626838
O O14 0.783615 0.871367 0.666751
O O15 0.775153 0.000000 0.630601
O O16 0.500000 0.155009 0.126517
O O17 0.750000 0.250000 0.130215
O O18 0.750000 0.250000 0.709936
O O19 0.000000 0.344951 0.708815
#
# Coordination Sequence:
#
# PCOD9485093 Si02
#       6
#    16  16  16  16  16  16
#     4   9  17  29  46  67  90 117 148 183 223 265
#     4   8  14  26  45  67  88 113 150 191 223 254
#     4   9  17  30  49  70  89 114 152 190 219 254
#     4   9  17  29  46  68  91 116 150 188 221 256
#     4  10  19  30  46  68  93 119 147 182 223 265
#     4  10  19  31  49  70  92 118 147 182 223 265
#
# _framework density 21.653527
#
# number of rings (size 3 to 8) (size 9 to 14) (size 15 to 20)
#    0.000    2.833    0.000    2.500    0.000    4.667 
#    0.000    1.667    0.000    6.500    0.000    3.500 
#    0.000    0.000    0.000    0.000    0.000    0.000 
#
# Total GULP energy -268144.754245 kJ/mol
# GULP energy per Si atom -5586.349047 kJ/mol
# Density = 2.160424 g / cm^3
# Si number density = 21.653527 Si / 1000 Ang^3
#
#
#
# Elastic Constant Matrix: (Units=GPa)
#
#
# Indices 1 2 3 4 5 6 
#
# 1 77.5775 -3.4848 10.9703 0.0000 0.0000 0.0000
# 2 -3.4848 198.0315 166.2669 0.0000 0.0000 0.0000
# 3 10.9703 166.2669 255.3793 0.0000 0.0000 0.0000
# 4 0.0000 0.0000 0.0000 52.8351 0.0000 0.0000
# 5 0.0000 0.0000 0.0000 0.0000 -22.0874 0.0000
# 6 0.0000 0.0000 0.0000 0.0000 0.0000 19.9331
#
#
#
# Elastic Compliance Matrix: (Units=1/GPa)
#
#
# Indices 1 2 3 4 5 6 
#
# 1 0.013184 0.001561 -0.001582 0.000000 0.000000 0.000000
# 2 0.001561 0.011323 -0.007439 0.000000 0.000000 0.000000
# 3 -0.001582 -0.007439 0.008827 0.000000 0.000000 0.000000
# 4 0.000000 0.000000 0.000000 0.018927 0.000000 0.000000
# 5 0.000000 0.000000 0.000000 0.000000 -0.045275 0.000000
# 6 0.000000 0.000000 0.000000 0.000000 0.000000 0.050168
#
#
# Mechanical properties :
#
#
# Convention : Reuss Voigt Hill
#
# Bulk Modulus (GPa) = 54.31082 97.61034 75.96058
# Shear Modulus (GPa) = 63.92815 33.95187 48.94001
#
# Velocity S-wave (km/s) = 5.43942 3.96404 4.75925
# Velocity P-wave (km/s) = 8.03654 8.13189 8.08435
#
# Compressibility (1/GPa) = 0.01841254
#
# Stress axis : x y z
#
# Youngs Moduli (GPa) = 75.84839 88.31722 113.29068
#
# Poissons Ratio (x) = -0.13782 0.17927
# Poissons Ratio (y) = -0.11837 0.84275
# Poissons Ratio (z) = 0.12002 0.65698
#
# Static dielectric constant tensor:
#      x y z
#    x 1.845880 0.000000 0.000000 
#    y 0.000000 1.714440 0.000000 
#    z 0.000000 0.000000 1.772850 
# 
# From -- ./inp_files/73137.got.cif
#   From: 2010.05.17/outbox.cif.g08.bks.cpg/sg65_37_cif.got.tgz:73137.got - 2010.06.03 17:01:31.
