data_PCOD9485403
_publ_section_title
;
Structure prediction by ZEFSAII (Michael W. Deem and Ramdas Pophale) SiO2 
 PCOD9485403
Probable space group: C M M M
;
_chemical_formula_sum "Si O2"
_cell_formula_units_Z 80
_cell_length_a 13.871766
_cell_length_b 27.491662
_cell_length_c 13.279410
_cell_angle_alpha 90.000000
_cell_angle_beta 90.000000
_cell_angle_gamma 90.000000
_cell_volume 5064.207940
_symmetry_space_group_name_H-M "C M M M"
_symmetry_group_IT_number 65
_symmetry_cell_setting 'orthorhombic'
loop_
_space_group_symop_operation_xyz
x,y,z
-x,-y,z
x,-y,-z
-x,y,-z
-x,-y,-z
x,y,-z
-x,y,z
x,-y,z
1/2+x,1/2+y,z
1/2-x,1/2-y,z
1/2+x,1/2-y,-z
1/2-x,1/2+y,-z
1/2-x,1/2-y,-z
1/2+x,1/2+y,-z
1/2-x,1/2+y,z
1/2+x,1/2-y,z
loop_
_atom_site_type_symbol
_atom_site_label
_atom_site_fract_x
_atom_site_fract_y
_atom_site_fract_z
Si Si1 0.390227 0.558969 0.000000
Si Si2 0.280371 0.558040 0.203903
Si Si3 0.885567 0.110301 0.615298
Si Si4 0.616314 0.054837 0.500000
Si Si5 0.731406 0.805481 0.618263
Si Si6 0.613929 0.112740 0.704215
O O1 0.334850 0.572605 0.898281
O O2 0.393939 0.500000 0.000000
O O3 0.500000 0.577017 0.000000
O O4 0.266388 0.500000 0.205442
O O5 0.344181 0.574571 0.299755
O O6 0.178819 0.585882 0.213470
O O7 0.868055 0.093005 0.500000
O O8 0.826751 0.160840 0.626488
O O9 0.000000 0.116869 0.627271
O O10 0.500000 0.051469 0.500000
O O11 0.640407 0.084224 0.600352
O O12 0.655549 0.000000 0.500000
O O13 0.702319 0.805632 0.500000
O O14 0.750000 0.750000 0.647592
O O15 0.650926 0.832837 0.683873
O O16 0.500000 0.109784 0.720523
#
# Coordination Sequence:
#
# PCOD9485403 Si02
#       6
#     8  16  16   8  16  16
#     4   9  18  34  53  71  92 125 171 212 244 285
#     4  10  20  32  49  71  97 129 166 204 242 285
#     4   9  18  31  45  67  98 126 155 195 246 300
#     4   9  16  26  41  62  93 133 168 193 222 272
#     4   9  17  29  45  66  94 129 167 205 243 289
#     4  10  19  31  46  69  99 131 167 201 240 292
#
# _framework density 15.797139
#
# number of rings (size 3 to 8) (size 9 to 14) (size 15 to 20)
#    0.000    2.600    1.000    1.200    1.400    3.600 
#    0.000    3.500    0.000    1.800    0.000   11.200 
#    0.000   12.800    0.000    0.000    0.000    0.000 
#
# Total GULP energy -222946.294336 kJ/mol
# GULP energy per Si atom -5573.657358 kJ/mol
# Density = 1.576118 g / cm^3
# Si number density = 15.797139 Si / 1000 Ang^3
#
#
#
# Elastic Constant Matrix: (Units=GPa)
#
#
# Indices 1 2 3 4 5 6 
#
# 1 131.6960 36.5816 61.6429 0.0000 0.0000 0.0000
# 2 36.5816 92.0960 39.1973 0.0000 0.0000 0.0000
# 3 61.6429 39.1973 88.6826 0.0000 0.0000 0.0000
# 4 0.0000 0.0000 0.0000 -1.7125 0.0000 0.0000
# 5 0.0000 0.0000 0.0000 0.0000 23.5862 0.0000
# 6 0.0000 0.0000 0.0000 0.0000 0.0000 13.9912
#
#
#
# Elastic Compliance Matrix: (Units=1/GPa)
#
#
# Indices 1 2 3 4 5 6 
#
# 1 0.011405 -0.001424 -0.007298 0.000000 0.000000 0.000000
# 2 -0.001424 0.013552 -0.005000 0.000000 0.000000 0.000000
# 3 -0.007298 -0.005000 0.018559 0.000000 0.000000 0.000000
# 4 0.000000 0.000000 0.000000 -0.583943 0.000000 0.000000
# 5 0.000000 0.000000 0.000000 0.000000 0.042398 0.000000
# 6 0.000000 0.000000 0.000000 0.000000 0.000000 0.071473
#
#
# Mechanical properties :
#
#
# Convention : Reuss Voigt Hill
#
# Bulk Modulus (GPa) = 62.22175 65.25757 63.73966
# Shear Modulus (GPa) = -12.69826 18.84317 3.07246
#
# Velocity S-wave (km/s) = -2.83827 3.45747 1.39613
# Velocity P-wave (km/s) = 5.36027 7.57220 6.56013
#
# Compressibility (1/GPa) = 0.01607155
#
# Stress axis : x y z
#
# Youngs Moduli (GPa) = 87.68263 73.79003 53.88211
#
# Poissons Ratio (x) = 0.10507 0.39323
# Poissons Ratio (y) = 0.12486 0.26942
# Poissons Ratio (z) = 0.63991 0.36896
#
# Static dielectric constant tensor:
#      x y z
#    x 1.543830 0.000000 0.000000 
#    y 0.000000 1.522760 0.000000 
#    z 0.000000 0.000000 1.520540 
# 
# From -- ./inp_files/25020.got.cif
#   From: 2010.05.17/outbox.cif.g08.bks.cpg/sg65_13_cif.got.tgz:25020.got - 2010.06.03 17:01:31.
