data_PCOD9485820
_publ_section_title
;
Structure prediction by ZEFSAII (Michael W. Deem and Ramdas Pophale) SiO2 
 PCOD9485820
Probable space group: C M M M
;
_chemical_formula_sum "Si O2"
_cell_formula_units_Z 64
_cell_length_a 19.112575
_cell_length_b 8.730305
_cell_length_c 21.335934
_cell_angle_alpha 90.000000
_cell_angle_beta 90.000000
_cell_angle_gamma 90.000000
_cell_volume 3560.084271
_symmetry_space_group_name_H-M "C M M M"
_symmetry_group_IT_number 65
_symmetry_cell_setting 'orthorhombic'
loop_
_space_group_symop_operation_xyz
x,y,z
-x,-y,z
x,-y,-z
-x,y,-z
-x,-y,-z
x,y,-z
-x,y,z
x,-y,z
1/2+x,1/2+y,z
1/2-x,1/2-y,z
1/2+x,1/2-y,-z
1/2-x,1/2+y,-z
1/2-x,1/2-y,-z
1/2+x,1/2+y,-z
1/2-x,1/2+y,z
1/2+x,1/2-y,z
loop_
_atom_site_type_symbol
_atom_site_label
_atom_site_fract_x
_atom_site_fract_y
_atom_site_fract_z
Si Si1 0.826416 0.183281 0.927670
Si Si2 0.171021 0.183660 0.568458
Si Si3 0.419273 0.815154 0.818230
Si Si4 0.828503 0.683809 0.697446
O O1 0.750000 0.250000 0.911764
O O2 0.882637 0.247057 0.879400
O O3 0.823615 0.000000 0.923860
O O4 0.841726 0.226446 0.000000
O O5 0.139225 0.221005 0.500000
O O6 0.250000 0.250000 0.566956
O O7 0.140360 0.254418 0.631798
O O8 0.174047 0.000000 0.574088
O O9 0.500000 0.767936 0.813385
O O10 0.375374 0.770383 0.756631
O O11 0.416871 0.000000 0.822124
O O12 0.824109 0.500000 0.694543
O O13 0.750000 0.750000 0.704666
#
# Coordination Sequence:
#
# PCOD9485820 Si02
#       4
#    16  16  16  16
#     4  10  21  37  58  83 108 135 170 211 255 305
#     4   9  16  26  43  69  99 128 161 204 253 303
#     4  10  22  38  54  75 105 140 176 214 257 305
#     4  10  19  31  50  74 100 131 168 210 254 303
#
# _framework density 17.977103
#
# number of rings (size 3 to 8) (size 9 to 14) (size 15 to 20)
#    0.000    2.250    0.000    4.500    0.000    8.000 
#    0.000    2.500    0.000    0.750    0.000    5.250 
#    0.000    0.000    0.000    0.000    0.000    0.000 
#
# Total GULP energy -178496.121318 kJ/mol
# GULP energy per Si atom -5578.003791 kJ/mol
# Density = 1.793619 g / cm^3
# Si number density = 17.977103 Si / 1000 Ang^3
#
#
#
# Elastic Constant Matrix: (Units=GPa)
#
#
# Indices 1 2 3 4 5 6 
#
# 1 94.5191 32.2134 91.0621 0.0000 0.0000 0.0000
# 2 32.2134 42.4384 44.0194 0.0000 0.0000 0.0000
# 3 91.0621 44.0194 151.4429 0.0000 0.0000 0.0000
# 4 0.0000 0.0000 0.0000 35.1099 0.0000 0.0000
# 5 0.0000 0.0000 0.0000 0.0000 1.4367 0.0000
# 6 0.0000 0.0000 0.0000 0.0000 0.0000 19.3455
#
#
#
# Elastic Compliance Matrix: (Units=1/GPa)
#
#
# Indices 1 2 3 4 5 6 
#
# 1 0.025873 -0.005014 -0.014100 0.000000 0.000000 0.000000
# 2 -0.005014 0.034706 -0.007073 0.000000 0.000000 0.000000
# 3 -0.014100 -0.007073 0.017137 0.000000 0.000000 0.000000
# 4 0.000000 0.000000 0.000000 0.028482 0.000000 0.000000
# 5 0.000000 0.000000 0.000000 0.000000 0.696021 0.000000
# 6 0.000000 0.000000 0.000000 0.000000 0.000000 0.051692
#
#
# Mechanical properties :
#
#
# Convention : Reuss Voigt Hill
#
# Bulk Modulus (GPa) = 39.45955 69.22115 54.34035
# Shear Modulus (GPa) = 5.46608 19.25213 12.35911
#
# Velocity S-wave (km/s) = 1.74562 3.27605 2.62485
# Velocity P-wave (km/s) = 5.10494 7.27315 6.28328
#
# Compressibility (1/GPa) = 0.02534241
#
# Stress axis : x y z
#
# Youngs Moduli (GPa) = 38.65047 28.81348 58.35242
#
# Poissons Ratio (x) = 0.14447 0.82276
# Poissons Ratio (y) = 0.19379 0.41273
# Poissons Ratio (z) = 0.54497 0.20380
#
# Static dielectric constant tensor:
#      x y z
#    x 1.578400 0.000000 0.000000 
#    y 0.000000 1.604900 0.000000 
#    z 0.000000 0.000000 1.652250 
# 
# From -- ./inp_files/49027.got.cif
#   From: 2010.05.17/outbox.cif.g08.bks.cpg/sg65_25_cif.got.tgz:49027.got - 2010.06.03 17:01:31.
