data_PCOD9485960
_publ_section_title
;
Structure prediction by ZEFSAII (Michael W. Deem and Ramdas Pophale) SiO2 
 PCOD9485960
Probable space group: C M M M
;
_chemical_formula_sum "Si O2"
_cell_formula_units_Z 72
_cell_length_a 8.768644
_cell_length_b 18.208490
_cell_length_c 24.088079
_cell_angle_alpha 90.000000
_cell_angle_beta 90.000000
_cell_angle_gamma 90.000000
_cell_volume 3845.993423
_symmetry_space_group_name_H-M "C M M M"
_symmetry_group_IT_number 65
_symmetry_cell_setting 'orthorhombic'
loop_
_space_group_symop_operation_xyz
x,y,z
-x,-y,z
x,-y,-z
-x,y,-z
-x,-y,-z
x,y,-z
-x,y,z
x,-y,z
1/2+x,1/2+y,z
1/2-x,1/2-y,z
1/2+x,1/2-y,-z
1/2-x,1/2+y,-z
1/2-x,1/2-y,-z
1/2+x,1/2+y,-z
1/2-x,1/2+y,z
1/2+x,1/2-y,z
loop_
_atom_site_type_symbol
_atom_site_label
_atom_site_fract_x
_atom_site_fract_y
_atom_site_fract_z
Si Si1 0.318303 0.168459 0.106643
Si Si2 0.817839 0.086960 0.000000
Si Si3 0.682487 0.667904 0.326074
Si Si4 0.316969 0.413762 0.212123
Si Si5 0.682777 0.832777 0.560620
O O1 0.500000 0.171964 0.103167
O O2 0.250000 0.250000 0.105781
O O3 0.267111 0.128601 0.163056
O O4 0.252545 0.123792 0.054503
O O5 0.000000 0.098026 0.000000
O O6 0.787647 0.000000 0.000000
O O7 0.500000 0.673235 0.330671
O O8 0.750000 0.750000 0.319599
O O9 0.721213 0.620883 0.271837
O O10 0.748034 0.634344 0.383264
O O11 0.500000 0.405602 0.204207
O O12 0.281087 0.500000 0.210667
O O13 0.720131 0.866120 0.500000
O O14 0.500000 0.829128 0.565337
O O15 0.750000 0.750000 0.559510
#
# Coordination Sequence:
#
# PCOD9485960 Si02
#       5
#    16   8  16  16  16
#     4  12  25  41  63  90 119 151 191 235 278 327
#     4  11  24  43  66  91 123 159 190 227 278 329
#     4  10  19  31  51  77 105 139 178 223 273 327
#     4  10  22  40  59  81 112 148 186 230 282 336
#     4   9  16  26  43  69 101 135 172 218 271 325
#
# _framework density 18.720780999999999
#
# number of rings (size 3 to 8) (size 9 to 14) (size 15 to 20)
#    0.000    1.667    0.000    6.667    0.000    8.889 
#    0.000    0.000    0.000    0.667    0.000    4.667 
#    0.000    0.000    0.000    0.000    0.000    0.000 
#
# Total GULP energy -201090.211937 kJ/mol
# GULP energy per Si atom -5585.839220 kJ/mol
# Density = 1.867817 g / cm^3
# Si number density = 18.720781 Si / 1000 Ang^3
#
#
#
# Elastic Constant Matrix: (Units=GPa)
#
#
# Indices 1 2 3 4 5 6 
#
# 1 103.2018 73.3158 100.3553 0.0000 0.0000 0.0000
# 2 73.3158 108.8795 90.0381 0.0000 0.0000 0.0000
# 3 100.3553 90.0381 219.0071 0.0000 0.0000 0.0000
# 4 0.0000 0.0000 0.0000 -114.3016 0.0000 0.0000
# 5 0.0000 0.0000 0.0000 0.0000 36.8248 0.0000
# 6 0.0000 0.0000 0.0000 0.0000 0.0000 20.4450
#
#
#
# Elastic Compliance Matrix: (Units=1/GPa)
#
#
# Indices 1 2 3 4 5 6 
#
# 1 0.023302 -0.010395 -0.006404 0.000000 0.000000 0.000000
# 2 -0.010395 0.018552 -0.002864 0.000000 0.000000 0.000000
# 3 -0.006404 -0.002864 0.008678 0.000000 0.000000 0.000000
# 4 0.000000 0.000000 0.000000 -0.008749 0.000000 0.000000
# 5 0.000000 0.000000 0.000000 0.000000 0.027156 0.000000
# 6 0.000000 0.000000 0.000000 0.000000 0.000000 0.048912
#
#
# Mechanical properties :
#
#
# Convention : Reuss Voigt Hill
#
# Bulk Modulus (GPa) = 89.23448 106.50075 97.86761
# Shear Modulus (GPa) = 31.07288 -0.24774 15.41257
#
# Velocity S-wave (km/s) = 4.07849 -0.36418 2.87241
# Velocity P-wave (km/s) = 8.36351 7.53895 7.96191
#
# Compressibility (1/GPa) = 0.01120643
#
# Stress axis : x y z
#
# Youngs Moduli (GPa) = 42.91528 53.90134 115.23348
#
# Poissons Ratio (x) = 0.56029 0.73796
# Poissons Ratio (y) = 0.44610 0.33004
# Poissons Ratio (z) = 0.27483 0.15438
#
# Static dielectric constant tensor:
#      x y z
#    x 1.603340 0.000000 0.000000 
#    y 0.000000 1.610960 0.000000 
#    z 0.000000 0.000000 1.666290 
# 
# From -- ./inp_files/67065.got.cif
#   From: 2010.05.17/outbox.cif.g08.bks.cpg/sg65_34_cif.got.tgz:67065.got - 2010.06.03 17:01:31.
