data_PCOD9485786
_publ_section_title
;
Structure prediction by ZEFSAII (Michael W. Deem and Ramdas Pophale) SiO2 
 PCOD9485786
Probable space group: C M M M
;
_chemical_formula_sum "Si O2"
_cell_formula_units_Z 64
_cell_length_a 15.390913
_cell_length_b 9.023763
_cell_length_c 23.392892
_cell_angle_alpha 90.000000
_cell_angle_beta 90.000000
_cell_angle_gamma 90.000000
_cell_volume 3248.897272
_symmetry_space_group_name_H-M "C M M M"
_symmetry_group_IT_number 65
_symmetry_cell_setting 'orthorhombic'
loop_
_space_group_symop_operation_xyz
x,y,z
-x,-y,z
x,-y,-z
-x,y,-z
-x,-y,-z
x,y,-z
-x,y,z
x,-y,z
1/2+x,1/2+y,z
1/2-x,1/2-y,z
1/2+x,1/2-y,-z
1/2-x,1/2+y,-z
1/2-x,1/2-y,-z
1/2+x,1/2+y,-z
1/2-x,1/2+y,z
1/2+x,1/2-y,z
loop_
_atom_site_type_symbol
_atom_site_label
_atom_site_fract_x
_atom_site_fract_y
_atom_site_fract_z
Si Si1 0.339597 0.322780 0.355921
Si Si2 0.898549 0.819452 0.000000
Si Si3 0.500000 0.680340 0.434730
Si Si4 0.393549 0.672469 0.875920
Si Si5 0.394589 0.829930 0.239793
O O1 0.334138 0.500000 0.356189
O O2 0.250000 0.250000 0.374270
O O3 0.415988 0.274622 0.398610
O O4 0.361059 0.267367 0.292135
O O5 0.862269 0.772939 0.061646
O O6 0.000000 0.774571 0.000000
O O7 0.897217 0.000000 0.000000
O O8 0.500000 0.500000 0.436052
O O9 0.500000 0.732815 0.500000
O O10 0.500000 0.675845 0.877613
O O11 0.369427 0.500000 0.868360
O O12 0.365896 0.767246 0.821561
O O13 0.500000 0.824877 0.240803
O O14 0.367104 0.000000 0.247172
#
# Coordination Sequence:
#
# PCOD9485786 Si02
#       5
#    16   8   8  16  16
#     4  11  22  38  61  88 118 154 194 235 283 336
#     4   7  10  18  33  57  90 129 176 230 279 334
#     4   9  20  40  65  91 121 156 191 228 275 335
#     4   8  13  22  39  63  94 135 183 231 284 340
#     4  10  19  31  49  75 109 146 189 239 288 337
#
# _framework density 19.698992000000001
#
# number of rings (size 3 to 8) (size 9 to 14) (size 15 to 20)
#    0.000    2.750    1.250    3.000    0.000    1.500 
#    0.000    0.625    0.000    9.000    0.000    0.875 
#    0.000    0.000    0.000    0.000    0.000    0.000 
#
# Total GULP energy -178539.450151 kJ/mol
# GULP energy per Si atom -5579.357817 kJ/mol
# Density = 1.965416 g / cm^3
# Si number density = 19.698992 Si / 1000 Ang^3
#
#
#
# Elastic Constant Matrix: (Units=GPa)
#
#
# Indices 1 2 3 4 5 6 
#
# 1 82.9687 34.7446 64.6624 0.0000 0.0000 0.0000
# 2 34.7446 67.6385 49.1075 0.0000 0.0000 0.0000
# 3 64.6624 49.1075 180.3394 0.0000 0.0000 0.0000
# 4 0.0000 0.0000 0.0000 2.9958 0.0000 0.0000
# 5 0.0000 0.0000 0.0000 0.0000 -14.4987 0.0000
# 6 0.0000 0.0000 0.0000 0.0000 0.0000 18.6758
#
#
#
# Elastic Compliance Matrix: (Units=1/GPa)
#
#
# Indices 1 2 3 4 5 6 
#
# 1 0.018392 -0.005808 -0.005013 0.000000 0.000000 0.000000
# 2 -0.005808 0.020262 -0.003435 0.000000 0.000000 0.000000
# 3 -0.005013 -0.003435 0.008278 0.000000 0.000000 0.000000
# 4 0.000000 0.000000 0.000000 0.333797 0.000000 0.000000
# 5 0.000000 0.000000 0.000000 0.000000 -0.068972 0.000000
# 6 0.000000 0.000000 0.000000 0.000000 0.000000 0.053545
#
#
# Mechanical properties :
#
#
# Convention : Reuss Voigt Hill
#
# Bulk Modulus (GPa) = 54.28950 69.77507 62.03229
# Shear Modulus (GPa) = 12.50144 13.59672 13.04908
#
# Velocity S-wave (km/s) = 2.52191 2.63006 2.57655
# Velocity P-wave (km/s) = 6.00828 6.68734 6.35688
#
# Compressibility (1/GPa) = 0.01841977
#
# Stress axis : x y z
#
# Youngs Moduli (GPa) = 54.37178 49.35412 120.80321
#
# Poissons Ratio (x) = 0.28665 0.60559
# Poissons Ratio (y) = 0.31579 0.41495
# Poissons Ratio (z) = 0.27257 0.16953
#
# Static dielectric constant tensor:
#      x y z
#    x 1.732260 0.000000 0.000000 
#    y 0.000000 1.656050 0.000000 
#    z 0.000000 0.000000 1.690500 
# 
# From -- ./inp_files/69560.got.cif
#   From: 2010.05.17/outbox.cif.g08.bks.cpg/sg65_35_cif.got.tgz:69560.got - 2010.06.03 17:01:31.
