data_PCOD9485438
_publ_section_title
;
Structure prediction by ZEFSAII (Michael W. Deem and Ramdas Pophale) SiO2 
 PCOD9485438
Probable space group: C M M M
;
_chemical_formula_sum "Si O2"
_cell_formula_units_Z 72
_cell_length_a 24.631480
_cell_length_b 14.379308
_cell_length_c 11.818860
_cell_angle_alpha 90.000000
_cell_angle_beta 90.000000
_cell_angle_gamma 90.000000
_cell_volume 4186.046825
_symmetry_space_group_name_H-M "C M M M"
_symmetry_group_IT_number 65
_symmetry_cell_setting 'orthorhombic'
loop_
_space_group_symop_operation_xyz
x,y,z
-x,-y,z
x,-y,-z
-x,y,-z
-x,-y,-z
x,y,-z
-x,y,z
x,-y,z
1/2+x,1/2+y,z
1/2-x,1/2-y,z
1/2+x,1/2-y,-z
1/2-x,1/2+y,-z
1/2-x,1/2-y,-z
1/2+x,1/2+y,-z
1/2-x,1/2+y,z
1/2+x,1/2-y,z
loop_
_atom_site_type_symbol
_atom_site_label
_atom_site_fract_x
_atom_site_fract_y
_atom_site_fract_z
Si Si1 0.218530 0.613248 0.629622
Si Si2 0.161340 0.107111 0.362431
Si Si3 0.609215 0.111186 0.757984
Si Si4 0.940623 0.772429 0.635764
Si Si5 0.437089 0.887322 0.000000
O O1 0.206950 0.645343 0.500000
O O2 0.221786 0.500000 0.624288
O O3 0.278610 0.644527 0.666383
O O4 0.169502 0.635202 0.713391
O O5 0.160792 0.106391 0.500000
O O6 0.110132 0.166446 0.322890
O O7 0.156383 0.000000 0.325172
O O8 0.568817 0.168295 0.678540
O O9 0.602609 0.000000 0.747378
O O10 0.594677 0.139014 0.886069
O O11 0.939245 0.774180 0.500000
O O12 0.000000 0.806682 0.672330
O O13 0.500000 0.854773 0.000000
O O14 0.439251 0.000000 0.000000
#
# Coordination Sequence:
#
# PCOD9485438 Si02
#       5
#    16  16  16  16   8
#     4   8  14  26  46  70  92 117 148 180 224 274
#     4   8  15  29  47  67  93 122 152 187 222 262
#     4  10  19  31  47  67  92 119 149 187 224 266
#     4  10  20  30  43  68  96 123 155 184 221 271
#     4   9  18  32  48  63  83 121 164 189 215 259
#
# _framework density 17.199998000000001
#
# number of rings (size 3 to 8) (size 9 to 14) (size 15 to 20)
#    0.000    3.000    0.000    2.667    0.000    4.000 
#    0.000    6.667    0.000    2.667    0.000    2.333 
#    0.000    2.667    0.000    0.000    0.000    0.000 
#
# Total GULP energy -200540.134014 kJ/mol
# GULP energy per Si atom -5570.559278 kJ/mol
# Density = 1.716085 g / cm^3
# Si number density = 17.199998 Si / 1000 Ang^3
#
#
#
# Elastic Constant Matrix: (Units=GPa)
#
#
# Indices 1 2 3 4 5 6 
#
# 1 173.1884 39.8850 66.3689 0.0000 0.0000 0.0000
# 2 39.8850 44.0555 14.7030 0.0000 0.0000 0.0000
# 3 66.3689 14.7030 42.8932 0.0000 0.0000 0.0000
# 4 0.0000 0.0000 0.0000 8.6638 0.0000 0.0000
# 5 0.0000 0.0000 0.0000 0.0000 -3.3458 0.0000
# 6 0.0000 0.0000 0.0000 0.0000 0.0000 20.4171
#
#
#
# Elastic Compliance Matrix: (Units=1/GPa)
#
#
# Indices 1 2 3 4 5 6 
#
# 1 0.015881 -0.006974 -0.022181 0.000000 0.000000 0.000000
# 2 -0.006974 0.028694 0.000956 0.000000 0.000000 0.000000
# 3 -0.022181 0.000956 0.057308 0.000000 0.000000 0.000000
# 4 0.000000 0.000000 0.000000 0.115423 0.000000 0.000000
# 5 0.000000 0.000000 0.000000 0.000000 -0.298886 0.000000
# 6 0.000000 0.000000 0.000000 0.000000 0.000000 0.048979
#
#
# Mechanical properties :
#
#
# Convention : Reuss Voigt Hill
#
# Bulk Modulus (GPa) = 21.98668 55.78343 38.88505
# Shear Modulus (GPa) = 128.34303 14.42570 71.38436
#
# Velocity S-wave (km/s) = 8.64755 2.89918 6.44924
# Velocity P-wave (km/s) = 10.60742 6.61133 8.83819
#
# Compressibility (1/GPa) = 0.04548209
#
# Stress axis : x y z
#
# Youngs Moduli (GPa) = 62.96992 34.85068 17.44971
#
# Poissons Ratio (x) = 0.24307 0.38706
# Poissons Ratio (y) = 0.43918 -0.01668
# Poissons Ratio (z) = 1.39676 -0.03332
#
# Static dielectric constant tensor:
#      x y z
#    x 1.625300 0.000000 0.000000 
#    y 0.000000 1.620520 0.000000 
#    z 0.000000 0.000000 1.552110 
# 
# From -- ./inp_files/24488.got.cif
#   From: 2010.05.17/outbox.cif.g08.bks.cpg/sg65_13_cif.got.tgz:24488.got - 2010.06.03 17:01:31.
