data_PCOD9485519
_publ_section_title
;
Structure prediction by ZEFSAII (Michael W. Deem and Ramdas Pophale) SiO2 
 PCOD9485519
Probable space group: C M M M
;
_chemical_formula_sum "Si O2"
_cell_formula_units_Z 80
_cell_length_a 29.744067
_cell_length_b 15.476902
_cell_length_c 9.078622
_cell_angle_alpha 90.000000
_cell_angle_beta 90.000000
_cell_angle_gamma 90.000000
_cell_volume 4179.307414
_symmetry_space_group_name_H-M "C M M M"
_symmetry_group_IT_number 65
_symmetry_cell_setting 'orthorhombic'
loop_
_space_group_symop_operation_xyz
x,y,z
-x,-y,z
x,-y,-z
-x,y,-z
-x,-y,-z
x,y,-z
-x,y,z
x,-y,z
1/2+x,1/2+y,z
1/2-x,1/2-y,z
1/2+x,1/2-y,-z
1/2-x,1/2+y,-z
1/2-x,1/2-y,-z
1/2+x,1/2+y,-z
1/2-x,1/2+y,z
1/2+x,1/2-y,z
loop_
_atom_site_type_symbol
_atom_site_label
_atom_site_fract_x
_atom_site_fract_y
_atom_site_fract_z
Si Si1 0.182912 0.405068 0.176401
Si Si2 0.142504 0.217796 0.176133
Si Si3 0.446338 0.096795 0.835767
Si Si4 0.229307 0.846759 0.332621
Si Si5 0.448064 0.730650 0.673565
O O1 0.164827 0.500000 0.218138
O O2 0.154690 0.318749 0.216690
O O3 0.232277 0.397623 0.246323
O O4 0.186787 0.402412 0.000000
O O5 0.182219 0.161741 0.248503
O O6 0.093682 0.190731 0.237732
O O7 0.143829 0.210994 0.000000
O O8 0.500000 0.092038 0.851425
O O9 0.440731 0.168214 0.712079
O O10 0.430982 0.000000 0.803610
O O11 0.428501 0.122431 0.000000
O O12 0.223394 0.877440 0.500000
O O13 0.250000 0.750000 0.338557
O O14 0.444002 0.714959 0.500000
O O15 0.500000 0.709413 0.718001
#
# Coordination Sequence:
#
# PCOD9485519 Si02
#       5
#    16  16  16  16  16
#     4   9  18  32  49  70  95 121 152 191 232 276
#     4  10  19  31  48  67  90 124 161 194 232 278
#     4   8  14  25  39  52  68  96 136 179 221 264
#     4   9  17  30  48  69  93 120 150 186 231 282
#     4  10  20  31  42  59  85 116 152 196 239 274
#
# _framework density 19.141928
#
# number of rings (size 3 to 8) (size 9 to 14) (size 15 to 20)
#    0.000    2.800    0.000    2.400    0.000    6.000 
#    0.000    4.000    0.000    0.000    0.000    0.000 
#    0.000    0.800    0.000    8.400    0.000    3.600 
#
# Total GULP energy -222764.424639 kJ/mol
# GULP energy per Si atom -5569.110616 kJ/mol
# Density = 1.909836 g / cm^3
# Si number density = 19.141928 Si / 1000 Ang^3
#
#
#
# Elastic Constant Matrix: (Units=GPa)
#
#
# Indices 1 2 3 4 5 6 
#
# 1 186.6216 14.0089 63.0782 0.0000 0.0000 0.0000
# 2 14.0089 13.4207 2.5762 0.0000 0.0000 0.0000
# 3 63.0782 2.5762 46.2596 0.0000 0.0000 0.0000
# 4 0.0000 0.0000 0.0000 9.5324 0.0000 0.0000
# 5 0.0000 0.0000 0.0000 0.0000 29.9864 0.0000
# 6 0.0000 0.0000 0.0000 0.0000 0.0000 0.9891
#
#
#
# Elastic Compliance Matrix: (Units=1/GPa)
#
#
# Indices 1 2 3 4 5 6 
#
# 1 0.010833 -0.008564 -0.014294 0.000000 0.000000 0.000000
# 2 -0.008564 0.082087 0.007106 0.000000 0.000000 0.000000
# 3 -0.014294 0.007106 0.040713 0.000000 0.000000 0.000000
# 4 0.000000 0.000000 0.000000 0.104905 0.000000 0.000000
# 5 0.000000 0.000000 0.000000 0.000000 0.033348 0.000000
# 6 0.000000 0.000000 0.000000 0.000000 0.000000 1.011035
#
#
# Mechanical properties :
#
#
# Convention : Reuss Voigt Hill
#
# Bulk Modulus (GPa) = 9.79167 45.06986 27.43076
# Shear Modulus (GPa) = 3.70791 19.21080 11.45936
#
# Velocity S-wave (km/s) = 1.39329 3.17140 2.44939
# Velocity P-wave (km/s) = 2.77755 6.08330 4.72871
#
# Compressibility (1/GPa) = 0.10212760
#
# Stress axis : x y z
#
# Youngs Moduli (GPa) = 92.31255 12.18223 24.56233
#
# Poissons Ratio (x) = 0.10432 0.35110
# Poissons Ratio (y) = 0.79053 -0.17453
# Poissons Ratio (z) = 1.31955 -0.08656
#
# Static dielectric constant tensor:
#      x y z
#    x 1.723780 0.000000 0.000000 
#    y 0.000000 1.675430 0.000000 
#    z 0.000000 0.000000 1.657020 
# 
# From -- ./inp_files/9904.got.cif
#   From: 2010.05.17/outbox.cif.g08.bks.cpg/sg65_5_cif.got.tgz:9904.got - 2010.06.03 17:01:31.
