data_PCOD9485166
_publ_section_title
;
Structure prediction by ZEFSAII (Michael W. Deem and Ramdas Pophale) SiO2 
 PCOD9485166
Probable space group: C M M M
;
_chemical_formula_sum "Si O2"
_cell_formula_units_Z 72
_cell_length_a 14.438450
_cell_length_b 34.301279
_cell_length_c 9.371549
_cell_angle_alpha 90.000000
_cell_angle_beta 90.000000
_cell_angle_gamma 90.000000
_cell_volume 4641.328071
_symmetry_space_group_name_H-M "C M M M"
_symmetry_group_IT_number 65
_symmetry_cell_setting 'orthorhombic'
loop_
_space_group_symop_operation_xyz
x,y,z
-x,-y,z
x,-y,-z
-x,y,-z
-x,-y,-z
x,y,-z
-x,y,z
x,-y,z
1/2+x,1/2+y,z
1/2-x,1/2-y,z
1/2+x,1/2-y,-z
1/2-x,1/2+y,-z
1/2-x,1/2-y,-z
1/2+x,1/2+y,-z
1/2-x,1/2+y,z
1/2+x,1/2-y,z
loop_
_atom_site_type_symbol
_atom_site_label
_atom_site_fract_x
_atom_site_fract_y
_atom_site_fract_z
Si Si1 0.112468 0.500000 0.663869
Si Si2 0.228864 0.346077 0.170475
Si Si3 0.109655 0.730719 0.833984
Si Si4 0.891222 0.810229 0.330551
Si Si5 0.608980 0.077996 0.170549
O O1 0.143602 0.500000 0.500000
O O2 0.139551 0.460703 0.746299
O O3 0.000000 0.500000 0.664273
O O4 0.166989 0.307787 0.201633
O O5 0.323820 0.340864 0.255327
O O6 0.170686 0.384584 0.207221
O O7 0.245660 0.346505 0.000000
O O8 0.130896 0.767831 0.736633
O O9 0.000000 0.722300 0.821920
O O10 0.128420 0.741009 0.000000
O O11 0.877319 0.809624 0.500000
O O12 0.000000 0.817655 0.301652
O O13 0.500000 0.085546 0.202060
O O14 0.615422 0.071450 0.000000
#
# Coordination Sequence:
#
# PCOD9485166 Si02
#       5
#     8  16  16  16  16
#     4   9  17  29  45  67  96 127 154 177 207 256
#     4  10  19  30  47  70  91 115 151 191 228 266
#     4   9  17  30  47  66  90 119 150 186 227 270
#     4  10  21  34  45  60  86 121 158 193 230 270
#     4   9  17  30  48  70  96 123 149 179 218 265
#
# _framework density 15.512801
#
# number of rings (size 3 to 8) (size 9 to 14) (size 15 to 20)
#    0.000    2.556    0.000    2.333    0.000    9.778 
#    0.000    0.000    0.000    6.667    0.000    0.778 
#    0.000    6.222    0.000    0.000    0.000    0.000 
#
# Total GULP energy -200801.737165 kJ/mol
# GULP energy per Si atom -5577.826032 kJ/mol
# Density = 1.547749 g / cm^3
# Si number density = 15.512801 Si / 1000 Ang^3
#
#
#
# Elastic Constant Matrix: (Units=GPa)
#
#
# Indices 1 2 3 4 5 6 
#
# 1 77.0295 75.3643 55.5559 0.0000 0.0000 0.0000
# 2 75.3643 123.4669 69.5816 0.0000 0.0000 0.0000
# 3 55.5559 69.5816 58.0168 0.0000 0.0000 0.0000
# 4 0.0000 0.0000 0.0000 -19.8226 0.0000 0.0000
# 5 0.0000 0.0000 0.0000 0.0000 21.2855 0.0000
# 6 0.0000 0.0000 0.0000 0.0000 0.0000 21.8063
#
#
#
# Elastic Compliance Matrix: (Units=1/GPa)
#
#
# Indices 1 2 3 4 5 6 
#
# 1 0.045613 -0.009956 -0.031738 0.000000 0.000000 0.000000
# 2 -0.009956 0.027164 -0.023045 0.000000 0.000000 0.000000
# 3 -0.031738 -0.023045 0.075266 0.000000 0.000000 0.000000
# 4 0.000000 0.000000 0.000000 -0.050447 0.000000 0.000000
# 5 0.000000 0.000000 0.000000 0.000000 0.046980 0.000000
# 6 0.000000 0.000000 0.000000 0.000000 0.000000 0.045858
#
#
# Mechanical properties :
#
#
# Convention : Reuss Voigt Hill
#
# Bulk Modulus (GPa) = 53.86149 73.27965 63.57057
# Shear Modulus (GPa) = 15.33279 8.52126 11.92703
#
# Velocity S-wave (km/s) = 3.14729 2.34627 2.77582
# Velocity P-wave (km/s) = 6.92844 7.39464 7.16533
#
# Compressibility (1/GPa) = 0.01856614
#
# Stress axis : x y z
#
# Youngs Moduli (GPa) = 21.92365 36.81398 13.28623
#
# Poissons Ratio (x) = 0.36652 0.42167
# Poissons Ratio (y) = 0.21827 0.30618
# Poissons Ratio (z) = 0.69580 0.84836
#
# Static dielectric constant tensor:
#      x y z
#    x 1.518910 0.000000 0.000000 
#    y 0.000000 1.491840 0.000000 
#    z 0.000000 0.000000 1.515900 
# 
# From -- ./inp_files/7670.got.cif
#   From: 2010.05.17/outbox.cif.g08.bks.cpg/sg65_4_cif.got.tgz:7670.got - 2010.06.03 17:01:31.
