data_PCOD9485223
_publ_section_title
;
Structure prediction by ZEFSAII (Michael W. Deem and Ramdas Pophale) SiO2 
 PCOD9485223
Probable space group: C M M M
;
_chemical_formula_sum "Si O2"
_cell_formula_units_Z 128
_cell_length_a 23.115292
_cell_length_b 17.667899
_cell_length_c 18.823329
_cell_angle_alpha 90.000000
_cell_angle_beta 90.000000
_cell_angle_gamma 90.000000
_cell_volume 7687.422047
_symmetry_space_group_name_H-M "C M M M"
_symmetry_group_IT_number 65
_symmetry_cell_setting 'orthorhombic'
loop_
_space_group_symop_operation_xyz
x,y,z
-x,-y,z
x,-y,-z
-x,y,-z
-x,-y,-z
x,y,-z
-x,y,z
x,-y,z
1/2+x,1/2+y,z
1/2-x,1/2-y,z
1/2+x,1/2-y,-z
1/2-x,1/2+y,-z
1/2-x,1/2-y,-z
1/2+x,1/2+y,-z
1/2-x,1/2+y,z
1/2+x,1/2-y,z
loop_
_atom_site_type_symbol
_atom_site_label
_atom_site_fract_x
_atom_site_fract_y
_atom_site_fract_z
Si Si1 0.881896 0.413233 0.807976
Si Si2 0.165748 0.813122 0.191403
Si Si3 0.565152 0.771898 0.269229
Si Si4 0.240705 0.589116 0.275170
Si Si5 0.435398 0.838356 0.580640
Si Si6 0.817883 0.325071 0.082497
Si Si7 0.804070 0.086545 0.080165
Si Si8 0.312126 0.090098 0.421956
O O1 0.902013 0.500000 0.808336
O O2 0.922189 0.354271 0.766080
O O3 0.819864 0.410792 0.767469
O O4 0.866760 0.381303 0.886348
O O5 0.113723 0.783162 0.238748
O O6 0.215633 0.851828 0.238976
O O7 0.182773 0.743624 0.138901
O O8 0.151473 0.879166 0.135641
O O9 0.500000 0.748624 0.251177
O O10 0.569661 0.780565 0.354249
O O11 0.260450 0.500000 0.275448
O O12 0.224921 0.615965 0.354724
O O13 0.432356 0.807125 0.500000
O O14 0.500000 0.873592 0.587472
O O15 0.380115 0.892395 0.588406
O O16 0.756387 0.367969 0.084398
O O17 0.827253 0.301985 0.000000
O O18 0.790489 0.000000 0.096697
O O19 0.825374 0.092326 0.000000
O O20 0.295381 0.120179 0.500000
O O21 0.305708 0.000000 0.422816
#
# Coordination Sequence:
#
# PCOD9485223 Si02
#       8
#    16  16  16  16  16  16  16  16
#     4  10  19  32  51  75 104 134 161 197 246 302
#     4  11  21  33  52  72 102 136 167 207 251 300
#     4  10  22  36  51  73  99 132 176 215 248 288
#     4  10  19  32  50  76 104 133 165 200 251 308
#     4   9  17  30  47  68  98 135 172 209 246 285
#     4  10  20  31  47  75 107 135 163 200 247 301
#     4  10  19  30  47  74 104 129 158 200 253 307
#     4   9  17  29  45  68 102 138 169 204 243 292
#
# _framework density 16.650575
#
# number of rings (size 3 to 8) (size 9 to 14) (size 15 to 20)
#    0.000    2.125    2.500    1.500    1.750    2.250 
#    0.000    3.125    0.000   12.375    0.000    4.375 
#    0.000    0.000    0.000   15.625    0.000    0.500 
#
# Total GULP energy -356435.431255 kJ/mol
# GULP energy per Si atom -5569.303613 kJ/mol
# Density = 1.661268 g / cm^3
# Si number density = 16.650575 Si / 1000 Ang^3
#
#
#
# Elastic Constant Matrix: (Units=GPa)
#
#
# Indices 1 2 3 4 5 6 
#
# 1 48.6706 32.6301 40.3564 0.0000 0.0000 0.0000
# 2 32.6301 57.7619 41.9109 0.0000 0.0000 0.0000
# 3 40.3564 41.9109 119.0431 0.0000 0.0000 0.0000
# 4 0.0000 0.0000 0.0000 19.5482 0.0000 0.0000
# 5 0.0000 0.0000 0.0000 0.0000 13.8422 0.0000
# 6 0.0000 0.0000 0.0000 0.0000 0.0000 12.7091
#
#
#
# Elastic Compliance Matrix: (Units=1/GPa)
#
#
# Indices 1 2 3 4 5 6 
#
# 1 0.036903 -0.015807 -0.006945 0.000000 0.000000 0.000000
# 2 -0.015807 0.030023 -0.005211 0.000000 0.000000 0.000000
# 3 -0.006945 -0.005211 0.012589 0.000000 0.000000 0.000000
# 4 0.000000 0.000000 0.000000 0.051156 0.000000 0.000000
# 5 0.000000 0.000000 0.000000 0.000000 0.072243 0.000000
# 6 0.000000 0.000000 0.000000 0.000000 0.000000 0.078684
#
#
# Mechanical properties :
#
#
# Convention : Reuss Voigt Hill
#
# Bulk Modulus (GPa) = 42.39450 50.58559 46.49004
# Shear Modulus (GPa) = 14.47646 16.59177 15.53412
#
# Velocity S-wave (km/s) = 2.95180 3.16011 3.05773
# Velocity P-wave (km/s) = 6.09377 6.61526 6.35987
#
# Compressibility (1/GPa) = 0.02358797
#
# Stress axis : x y z
#
# Youngs Moduli (GPa) = 27.09831 33.30725 79.43139
#
# Poissons Ratio (x) = 0.52650 0.55165
# Poissons Ratio (y) = 0.42835 0.41395
# Poissons Ratio (z) = 0.18820 0.17358
#
# Static dielectric constant tensor:
#      x y z
#    x 1.541280 0.000000 0.000000 
#    y 0.000000 1.586040 0.000000 
#    z 0.000000 0.000000 1.632140 
# 
# From -- ./inp_files/57002.got.cif
#   From: 2010.05.17/outbox.cif.g08.bks.cpg/sg65_29_cif.got.tgz:57002.got - 2010.06.03 17:01:31.
