data_PCOD9485642
_publ_section_title
;
Structure prediction by ZEFSAII (Michael W. Deem and Ramdas Pophale) SiO2 
 PCOD9485642
Probable space group: C M M M
;
_chemical_formula_sum "Si O2"
_cell_formula_units_Z 72
_cell_length_a 7.374844
_cell_length_b 18.327121
_cell_length_c 24.775723
_cell_angle_alpha 90.000000
_cell_angle_beta 90.000000
_cell_angle_gamma 90.000000
_cell_volume 3348.678256
_symmetry_space_group_name_H-M "C M M M"
_symmetry_group_IT_number 65
_symmetry_cell_setting 'orthorhombic'
loop_
_space_group_symop_operation_xyz
x,y,z
-x,-y,z
x,-y,-z
-x,y,-z
-x,-y,-z
x,y,-z
-x,y,z
x,-y,z
1/2+x,1/2+y,z
1/2-x,1/2-y,z
1/2+x,1/2-y,-z
1/2-x,1/2+y,-z
1/2-x,1/2-y,-z
1/2+x,1/2+y,-z
1/2-x,1/2+y,z
1/2+x,1/2-y,z
loop_
_atom_site_type_symbol
_atom_site_label
_atom_site_fract_x
_atom_site_fract_y
_atom_site_fract_z
Si Si1 0.216288 0.164056 0.891627
Si Si2 0.783246 0.162661 0.558058
Si Si3 0.278231 0.415510 0.000000
Si Si4 0.716905 0.663363 0.675434
Si Si5 0.278252 0.584347 0.216522
O O1 0.250000 0.250000 0.892862
O O2 0.284132 0.125169 0.945866
O O3 0.284142 0.128046 0.836299
O O4 0.000000 0.153081 0.891455
O O5 0.713505 0.134720 0.500000
O O6 0.750000 0.250000 0.558051
O O7 0.713650 0.137615 0.616556
O O8 0.000000 0.151195 0.557848
O O9 0.225095 0.500000 0.000000
O O10 0.500000 0.413689 0.000000
O O11 0.500000 0.653526 0.674156
O O12 0.750000 0.750000 0.680899
O O13 0.784719 0.621364 0.727935
O O14 0.500000 0.586734 0.216930
O O15 0.225824 0.500000 0.213393
#
# Coordination Sequence:
#
# PCOD9485642 Si02
#       5
#    16  16   8  16  16
#     4  10  19  31  49  70  91 115 144 180 216 250
#     4   8  13  21  34  54  79 104 131 165 205 247
#     4   9  17  30  49  71  92 117 150 180 206 245
#     4   9  16  26  42  62  83 108 138 174 212 250
#     4   9  17  29  45  64  85 112 146 178 209 250
#
# _framework density 21.501018999999999
#
# number of rings (size 3 to 8) (size 9 to 14) (size 15 to 20)
#    0.000    3.000    0.000    1.667    0.000    2.667 
#    0.000    0.000    0.000    6.000    0.000    4.667 
#    0.000    0.000    0.000   36.000    0.000   16.889 
#
# Total GULP energy -200838.554424 kJ/mol
# GULP energy per Si atom -5578.848734 kJ/mol
# Density = 2.145208 g / cm^3
# Si number density = 21.501019 Si / 1000 Ang^3
#
#
#
# Elastic Constant Matrix: (Units=GPa)
#
#
# Indices 1 2 3 4 5 6 
#
# 1 80.3604 -4.3989 14.0511 0.0000 0.0000 0.0000
# 2 -4.3989 131.4844 128.7139 0.0000 0.0000 0.0000
# 3 14.0511 128.7139 306.2121 0.0000 0.0000 0.0000
# 4 0.0000 0.0000 0.0000 -14.2268 0.0000 0.0000
# 5 0.0000 0.0000 0.0000 0.0000 -6.0386 0.0000
# 6 0.0000 0.0000 0.0000 0.0000 0.0000 14.3092
#
#
#
# Elastic Compliance Matrix: (Units=1/GPa)
#
#
# Indices 1 2 3 4 5 6 
#
# 1 0.012764 0.001700 -0.001300 0.000000 0.000000 0.000000
# 2 0.001700 0.013150 -0.005605 0.000000 0.000000 0.000000
# 3 -0.001300 -0.005605 0.005682 0.000000 0.000000 0.000000
# 4 0.000000 0.000000 0.000000 -0.070290 0.000000 0.000000
# 5 0.000000 0.000000 0.000000 0.000000 -0.165602 0.000000
# 6 0.000000 0.000000 0.000000 0.000000 0.000000 0.069885
#
#
# Mechanical properties :
#
#
# Convention : Reuss Voigt Hill
#
# Bulk Modulus (GPa) = 47.20524 88.30990 67.75757
# Shear Modulus (GPa) = -42.75748 24.12147 -9.31800
#
# Velocity S-wave (km/s) = -4.46424 3.35307 -2.08402
# Velocity P-wave (km/s) = 2.13776 7.49349 5.07850
#
# Compressibility (1/GPa) = 0.02118409
#
# Stress axis : x y z
#
# Youngs Moduli (GPa) = 78.34320 76.04824 176.00904
#
# Poissons Ratio (x) = -0.12927 0.22886
# Poissons Ratio (y) = -0.13318 0.98659
# Poissons Ratio (z) = 0.10187 0.42627
#
# Static dielectric constant tensor:
#      x y z
#    x 1.812290 0.000000 0.000000 
#    y 0.000000 1.703190 0.000000 
#    z 0.000000 0.000000 1.813400 
# 
# From -- ./inp_files/64511.got.cif
#   From: 2010.05.17/outbox.cif.g08.bks.cpg/sg65_33_cif.got.tgz:64511.got - 2010.06.03 17:01:31.
