data_PCOD9485750
_publ_section_title
;
Structure prediction by ZEFSAII (Michael W. Deem and Ramdas Pophale) SiO2 
 PCOD9485750
Probable space group: C M M M
;
_chemical_formula_sum "Si O2"
_cell_formula_units_Z 72
_cell_length_a 14.427089
_cell_length_b 14.215750
_cell_length_c 13.364913
_cell_angle_alpha 90.000000
_cell_angle_beta 90.000000
_cell_angle_gamma 90.000000
_cell_volume 2741.035273
_symmetry_space_group_name_H-M "C M M M"
_symmetry_group_IT_number 65
_symmetry_cell_setting 'orthorhombic'
loop_
_space_group_symop_operation_xyz
x,y,z
-x,-y,z
x,-y,-z
-x,y,-z
-x,-y,-z
x,y,-z
-x,y,z
x,-y,z
1/2+x,1/2+y,z
1/2-x,1/2-y,z
1/2+x,1/2-y,-z
1/2-x,1/2+y,-z
1/2-x,1/2-y,-z
1/2+x,1/2+y,-z
1/2-x,1/2+y,z
1/2+x,1/2-y,z
loop_
_atom_site_type_symbol
_atom_site_label
_atom_site_fract_x
_atom_site_fract_y
_atom_site_fract_z
Si Si1 0.855955 0.889847 0.886457
Si Si2 0.608217 0.697400 0.317128
Si Si3 0.392577 0.500000 0.381820
Si Si4 0.365813 0.110458 0.106639
Si Si5 0.394561 0.105412 0.337969
O O1 0.890581 0.817773 0.803417
O O2 0.745056 0.877003 0.887741
O O3 0.875376 0.000000 0.859902
O O4 0.889059 0.876605 0.000000
O O5 0.500000 0.696945 0.348557
O O6 0.652264 0.598325 0.350023
O O7 0.648637 0.793155 0.364173
O O8 0.500000 0.500000 0.342893
O O9 0.397266 0.500000 0.500000
O O10 0.401690 0.124103 0.218303
O O11 0.383409 0.000000 0.095289
O O12 0.395703 0.155014 0.000000
O O13 0.500000 0.101753 0.377254
O O14 0.354834 0.000000 0.354858
#
# Coordination Sequence:
#
# PCOD9485750 Si02
#       5
#    16  16   8  16  16
#     4   9  17  29  45  68 101 134 165 203 242 286
#     4  10  19  31  49  73  99 127 162 199 240 292
#     4   9  18  34  55  77  99 121 151 198 250 298
#     4   8  15  28  44  64  94 132 174 209 236 275
#     4   9  18  31  46  66  95 129 166 205 240 276
#
# _framework density 26.267448000000002
#
# number of rings (size 3 to 8) (size 9 to 14) (size 15 to 20)
#    0.000    3.000    1.111    1.333    0.000    2.667 
#    0.000    7.778    0.000    0.667    0.000    7.778 
#    0.000    0.000    0.000    0.000    0.000    0.000 
#
# Total GULP energy -200659.845837 kJ/mol
# GULP energy per Si atom -5573.884607 kJ/mol
# Density = 2.620766 g / cm^3
# Si number density = 26.267448 Si / 1000 Ang^3
#
#
#
# Elastic Constant Matrix: (Units=GPa)
#
#
# Indices 1 2 3 4 5 6 
#
# 1 74.5264 23.2015 -3.1350 0.0000 0.0000 0.0000
# 2 23.2015 278.2495 9.2902 0.0000 0.0000 0.0000
# 3 -3.1350 9.2902 53.3590 0.0000 0.0000 0.0000
# 4 0.0000 0.0000 0.0000 -15.1749 0.0000 0.0000
# 5 0.0000 0.0000 0.0000 0.0000 -9.2991 0.0000
# 6 0.0000 0.0000 0.0000 0.0000 0.0000 14.6083
#
#
#
# Elastic Compliance Matrix: (Units=1/GPa)
#
#
# Indices 1 2 3 4 5 6 
#
# 1 0.013831 -0.001187 0.001019 0.000000 0.000000 0.000000
# 2 -0.001187 0.003717 -0.000717 0.000000 0.000000 0.000000
# 3 0.001019 -0.000717 0.018926 0.000000 0.000000 0.000000
# 4 0.000000 0.000000 0.000000 -0.065898 0.000000 0.000000
# 5 0.000000 0.000000 0.000000 0.000000 -0.107537 0.000000
# 6 0.000000 0.000000 0.000000 0.000000 0.000000 0.068454
#
#
# Mechanical properties :
#
#
# Convention : Reuss Voigt Hill
#
# Bulk Modulus (GPa) = 28.81564 51.64980 40.23272
# Shear Modulus (GPa) = -90.62768 23.14541 -33.74113
#
# Velocity S-wave (km/s) = -5.88020 2.97163 -3.58791
# Velocity P-wave (km/s) = 5.92524 5.61069 1.34697
#
# Compressibility (1/GPa) = 0.03470337
#
# Stress axis : x y z
#
# Youngs Moduli (GPa) = 72.30361 269.04630 52.83826
#
# Poissons Ratio (x) = 0.31943 -0.05386
# Poissons Ratio (y) = 0.08584 0.03788
# Poissons Ratio (z) = -0.07370 0.19288
#
# Static dielectric constant tensor:
#      x y z
#    x 1.987600 0.000000 0.000000 
#    y 0.000000 2.144780 0.000000 
#    z 0.000000 0.000000 2.135270 
# 
# From -- ./inp_files/39773.got.cif
#   From: 2010.05.17/outbox.cif.g08.bks.cpg/sg65_20_cif.got.tgz:39773.got - 2010.06.03 17:01:31.
