data_PCOD9485530
_publ_section_title
;
Structure prediction by ZEFSAII (Michael W. Deem and Ramdas Pophale) SiO2 
 PCOD9485530
Probable space group: C M M M
;
_chemical_formula_sum "Si O2"
_cell_formula_units_Z 80
_cell_length_a 28.175007
_cell_length_b 7.838247
_cell_length_c 19.468614
_cell_angle_alpha 90.000000
_cell_angle_beta 90.000000
_cell_angle_gamma 90.000000
_cell_volume 4299.500582
_symmetry_space_group_name_H-M "C M M M"
_symmetry_group_IT_number 65
_symmetry_cell_setting 'orthorhombic'
loop_
_space_group_symop_operation_xyz
x,y,z
-x,-y,z
x,-y,-z
-x,y,-z
-x,-y,-z
x,y,-z
-x,y,z
x,-y,z
1/2+x,1/2+y,z
1/2-x,1/2-y,z
1/2+x,1/2-y,-z
1/2-x,1/2+y,-z
1/2-x,1/2-y,-z
1/2+x,1/2+y,-z
1/2-x,1/2+y,z
1/2+x,1/2-y,z
loop_
_atom_site_type_symbol
_atom_site_label
_atom_site_fract_x
_atom_site_fract_y
_atom_site_fract_z
Si Si1 0.194749 0.205605 0.576054
Si Si2 0.852158 0.209017 0.284520
Si Si3 0.803745 0.796528 0.144312
Si Si4 0.552488 0.298689 0.216124
Si Si5 0.100008 0.299552 0.923817
O O1 0.180332 0.268172 0.500000
O O2 0.250000 0.250000 0.585528
O O3 0.165444 0.269027 0.641485
O O4 0.190855 0.000000 0.575421
O O5 0.817050 0.259243 0.222205
O O6 0.904509 0.269943 0.262626
O O7 0.852515 0.000000 0.285331
O O8 0.750000 0.750000 0.127038
O O9 0.844548 0.722548 0.095495
O O10 0.808813 0.000000 0.141602
O O11 0.500000 0.224437 0.225532
O O12 0.549811 0.500000 0.231064
O O13 0.569898 0.281039 0.137612
O O14 0.089135 0.500000 0.923705
O O15 0.090842 0.230239 0.000000
#
# Coordination Sequence:
#
# PCOD9485530 Si02
#       5
#    16  16  16  16  16
#     4   9  16  26  42  65  94 125 153 182 218 261
#     4   8  15  28  45  66  91 119 152 188 224 264
#     4  10  19  31  48  68  92 123 157 191 226 268
#     4   9  18  33  52  70  88 115 151 190 232 277
#     4  10  21  35  49  67  92 119 148 186 231 277
#
# _framework density 18.606812999999999
#
# number of rings (size 3 to 8) (size 9 to 14) (size 15 to 20)
#    0.000    2.800    0.000    3.000    0.000    2.800 
#    0.000    6.000    0.000    0.600    0.000    4.200 
#    0.000    0.000    0.000   12.200    0.000   13.200 
#
# Total GULP energy -223031.088273 kJ/mol
# GULP energy per Si atom -5575.777207 kJ/mol
# Density = 1.856446 g / cm^3
# Si number density = 18.606813 Si / 1000 Ang^3
#
#
#
# Elastic Constant Matrix: (Units=GPa)
#
#
# Indices 1 2 3 4 5 6 
#
# 1 70.4474 -10.9087 23.0058 0.0000 0.0000 0.0000
# 2 -10.9087 22.3896 -5.2200 0.0000 0.0000 0.0000
# 3 23.0058 -5.2200 115.9293 0.0000 0.0000 0.0000
# 4 0.0000 0.0000 0.0000 -6.4509 0.0000 0.0000
# 5 0.0000 0.0000 0.0000 0.0000 7.6289 0.0000
# 6 0.0000 0.0000 0.0000 0.0000 0.0000 14.1980
#
#
#
# Elastic Compliance Matrix: (Units=1/GPa)
#
#
# Indices 1 2 3 4 5 6 
#
# 1 0.016265 0.007248 -0.002901 0.000000 0.000000 0.000000
# 2 0.007248 0.048367 0.000739 0.000000 0.000000 0.000000
# 3 -0.002901 0.000739 0.009235 0.000000 0.000000 0.000000
# 4 0.000000 0.000000 0.000000 -0.155018 0.000000 0.000000
# 5 0.000000 0.000000 0.000000 0.000000 0.131080 0.000000
# 6 0.000000 0.000000 0.000000 0.000000 0.000000 0.070432
#
#
# Mechanical properties :
#
#
# Convention : Reuss Voigt Hill
#
# Bulk Modulus (GPa) = 11.89911 24.72449 18.31180
# Shear Modulus (GPa) = 36.17877 16.53449 26.35663
#
# Velocity S-wave (km/s) = 4.41430 2.98422 3.76773
# Velocity P-wave (km/s) = 5.69125 5.01904 5.36568
#
# Compressibility (1/GPa) = 0.08403992
#
# Stress axis : x y z
#
# Youngs Moduli (GPa) = 61.48235 20.67506 108.28361
#
# Poissons Ratio (x) = -0.14986 0.31417
# Poissons Ratio (y) = -0.44563 -0.08008
# Poissons Ratio (z) = 0.17838 -0.01529
#
# Static dielectric constant tensor:
#      x y z
#    x 1.641120 0.000000 0.000000 
#    y 0.000000 1.684580 0.000000 
#    z 0.000000 0.000000 1.651250 
# 
# From -- ./inp_files/49847.got.cif
#   From: 2010.05.17/outbox.cif.g08.bks.cpg/sg65_25_cif.got.tgz:49847.got - 2010.06.03 17:01:31.
