data_PCOD9485943
_publ_section_title
;
Structure prediction by ZEFSAII (Michael W. Deem and Ramdas Pophale) SiO2 
 PCOD9485943
Probable space group: C M M M
;
_chemical_formula_sum "Si O2"
_cell_formula_units_Z 88
_cell_length_a 15.165651
_cell_length_b 28.146749
_cell_length_c 9.861692
_cell_angle_alpha 90.000000
_cell_angle_beta 90.000000
_cell_angle_gamma 90.000000
_cell_volume 4209.599047
_symmetry_space_group_name_H-M "C M M M"
_symmetry_group_IT_number 65
_symmetry_cell_setting 'orthorhombic'
loop_
_space_group_symop_operation_xyz
x,y,z
-x,-y,z
x,-y,-z
-x,y,-z
-x,-y,-z
x,y,-z
-x,y,z
x,-y,z
1/2+x,1/2+y,z
1/2-x,1/2-y,z
1/2+x,1/2-y,-z
1/2-x,1/2+y,-z
1/2-x,1/2-y,-z
1/2+x,1/2+y,-z
1/2-x,1/2+y,z
1/2+x,1/2-y,z
loop_
_atom_site_type_symbol
_atom_site_label
_atom_site_fract_x
_atom_site_fract_y
_atom_site_fract_z
Si Si1 0.357634 0.255970 0.149643
Si Si2 0.606665 0.445168 0.342971
Si Si3 0.320300 0.639871 0.161486
Si Si4 0.608297 0.000000 0.148871
Si Si5 0.342720 0.176067 0.655863
Si Si6 0.100501 0.426629 0.357346
O O1 0.250000 0.250000 0.147361
O O2 0.378694 0.311557 0.167877
O O3 0.384748 0.221235 0.270087
O O4 0.388282 0.240599 0.000000
O O5 0.631733 0.433523 0.500000
O O6 0.500000 0.444253 0.337776
O O7 0.634016 0.500000 0.315462
O O8 0.641702 0.406325 0.236506
O O9 0.236785 0.656520 0.250935
O O10 0.301962 0.632573 0.000000
O O11 0.639083 0.953962 0.230972
O O12 0.500000 0.000000 0.137895
O O13 0.644651 0.000000 0.000000
O O14 0.316643 0.187115 0.500000
O O15 0.402397 0.129545 0.653170
O O16 0.145542 0.438788 0.500000
O O17 0.000000 0.443596 0.364570
#
# Coordination Sequence:
#
# PCOD9485943 Si02
#       6
#    16  16  16   8  16  16
#     4   8  16  31  49  70 100 135 168 207 254 303
#     4   9  19  37  59  81 106 136 170 212 261 310
#     4  10  20  34  53  77 105 136 170 208 253 308
#     4   9  17  29  47  69  89 117 160 201 238 287
#     4  10  19  31  51  77 101 132 173 216 260 303
#     4   9  18  33  50  68  95 131 168 206 251 300
#
# _framework density 20.904603999999999
#
# number of rings (size 3 to 8) (size 9 to 14) (size 15 to 20)
#    0.000    2.818    0.000    3.000    0.000    7.273 
#    1.636    1.818    0.000    3.273    0.000    0.000 
#    0.000    0.000    0.000    0.000    0.000    0.000 
#
# Total GULP energy -245010.466188 kJ/mol
# GULP energy per Si atom -5568.419686 kJ/mol
# Density = 2.085702 g / cm^3
# Si number density = 20.904604 Si / 1000 Ang^3
#
#
#
# Elastic Constant Matrix: (Units=GPa)
#
#
# Indices 1 2 3 4 5 6 
#
# 1 32.4696 12.7159 24.0183 0.0000 0.0000 0.0000
# 2 12.7159 147.6389 113.5989 0.0000 0.0000 0.0000
# 3 24.0183 113.5989 220.9417 0.0000 0.0000 0.0000
# 4 0.0000 0.0000 0.0000 40.8850 0.0000 0.0000
# 5 0.0000 0.0000 0.0000 0.0000 -6.2722 0.0000
# 6 0.0000 0.0000 0.0000 0.0000 0.0000 38.2236
#
#
#
# Elastic Compliance Matrix: (Units=1/GPa)
#
#
# Indices 1 2 3 4 5 6 
#
# 1 0.033493 -0.000138 -0.003570 0.000000 0.000000 0.000000
# 2 -0.000138 0.011207 -0.005747 0.000000 0.000000 0.000000
# 3 -0.003570 -0.005747 0.007869 0.000000 0.000000 0.000000
# 4 0.000000 0.000000 0.000000 0.024459 0.000000 0.000000
# 5 0.000000 0.000000 0.000000 0.000000 -0.159435 0.000000
# 6 0.000000 0.000000 0.000000 0.000000 0.000000 0.026162
#
#
# Mechanical properties :
#
#
# Convention : Reuss Voigt Hill
#
# Bulk Modulus (GPa) = 29.70970 77.96847 53.83909
# Shear Modulus (GPa) = -191.46470 31.28175 -80.09147
#
# Velocity S-wave (km/s) = -9.58063 3.87254 -6.19645
# Velocity P-wave (km/s) = 10.39913 7.57454 5.03827
#
# Compressibility (1/GPa) = 0.03365904
#
# Stress axis : x y z
#
# Youngs Moduli (GPa) = 29.85711 89.22663 127.07649
#
# Poissons Ratio (x) = 0.01228 0.45369
# Poissons Ratio (y) = 0.00411 0.73036
# Poissons Ratio (z) = 0.10660 0.51282
#
# Static dielectric constant tensor:
#      x y z
#    x 1.802730 0.000000 0.000000 
#    y 0.000000 1.771470 0.000000 
#    z 0.000000 0.000000 1.786820 
# 
# From -- ./inp_files/11802.got.cif
#   From: 2010.05.17/outbox.cif.g08.bks.cpg/sg65_6_cif.got.tgz:11802.got - 2010.06.03 17:01:31.
