data_PCOD9485105
_publ_section_title
;
Structure prediction by ZEFSAII (Michael W. Deem and Ramdas Pophale) SiO2 
 PCOD9485105
Probable space group: C M M M
;
_chemical_formula_sum "Si O2"
_cell_formula_units_Z 116
_cell_length_a 29.546265
_cell_length_b 7.570451
_cell_length_c 28.683036
_cell_angle_alpha 90.000000
_cell_angle_beta 90.000000
_cell_angle_gamma 90.000000
_cell_volume 6415.779943
_symmetry_space_group_name_H-M "C M M M"
_symmetry_group_IT_number 65
_symmetry_cell_setting 'orthorhombic'
loop_
_space_group_symop_operation_xyz
x,y,z
-x,-y,z
x,-y,-z
-x,y,-z
-x,-y,-z
x,y,-z
-x,y,z
x,-y,z
1/2+x,1/2+y,z
1/2-x,1/2-y,z
1/2+x,1/2-y,-z
1/2-x,1/2+y,-z
1/2-x,1/2-y,-z
1/2+x,1/2+y,-z
1/2-x,1/2+y,z
1/2+x,1/2-y,z
loop_
_atom_site_type_symbol
_atom_site_label
_atom_site_fract_x
_atom_site_fract_y
_atom_site_fract_z
Si Si1 0.199180 0.289977 0.709416
Si Si2 0.607084 0.783068 0.141962
Si Si3 0.300418 0.211295 0.816108
Si Si4 0.050654 0.292497 0.769101
Si Si5 0.552073 0.784619 0.947411
Si Si6 0.065500 0.500000 0.500000
Si Si7 0.102957 0.795906 0.676002
Si Si8 0.946356 0.209893 0.417484
O O1 0.194220 0.500000 0.711063
O O2 0.250000 0.250000 0.692547
O O3 0.195705 0.219996 0.762761
O O4 0.157036 0.221808 0.679826
O O5 0.658333 0.725472 0.152339
O O6 0.577076 0.721378 0.185950
O O7 0.585081 0.724809 0.093539
O O8 0.606880 0.000000 0.141499
O O9 0.250000 0.250000 0.833243
O O10 0.304602 0.000000 0.812817
O O11 0.045969 0.500000 0.778684
O O12 0.080389 0.280529 0.722510
O O13 0.000000 0.218900 0.762889
O O14 0.500000 0.732511 0.937945
O O15 0.552572 0.000000 0.947308
O O16 0.563957 0.728353 0.000000
O O17 0.063213 0.656561 0.459510
O O18 0.082030 0.729871 0.627778
O O19 0.090446 0.000000 0.677330
O O20 0.000000 0.219607 0.406960
O O21 0.936464 0.000000 0.427631
#
# Coordination Sequence:
#
# PCOD9485105 Si02
#       8
#    16  16  16  16  16   4  16  16
#     4  10  19  33  52  75 104 135 174 215 255 312
#     4   9  15  26  41  62  91 126 164 208 256 308
#     4   9  17  29  45  65  92 125 162 205 251 302
#     4  10  19  30  46  68  98 137 174 207 250 314
#     4   8  13  21  36  60  89 121 160 207 258 309
#     4  12  23  38  64  86 108 152 198 234 274 316
#     4  11  22  35  51  75 111 144 172 212 264 315
#     4  10  22  38  56  83 117 148 186 233 273 316
#
# _framework density 18.08042
#
# number of rings (size 3 to 8) (size 9 to 14) (size 15 to 20)
#    0.000    2.345    1.379    2.897    1.931    3.586 
#    0.000    0.000    0.000    0.414    0.000    0.483 
#    0.000    1.655    0.000    7.586    0.000    6.897 
#
# Total GULP energy -322926.664967 kJ/mol
# GULP energy per Si atom -5567.701120 kJ/mol
# Density = 1.803927 g / cm^3
# Si number density = 18.080420 Si / 1000 Ang^3
#
#
#
# Elastic Constant Matrix: (Units=GPa)
#
#
# Indices 1 2 3 4 5 6 
#
# 1 128.5672 10.6286 93.6848 0.0000 0.0000 0.0000
# 2 10.6286 53.8430 21.5445 0.0000 0.0000 0.0000
# 3 93.6848 21.5445 145.6980 0.0000 0.0000 0.0000
# 4 0.0000 0.0000 0.0000-1325.2846 0.0000 0.0000
# 5 0.0000 0.0000 0.0000 0.0000 8.2305 0.0000
# 6 0.0000 0.0000 0.0000 0.0000 0.0000 13.3253
#
#
#
# Elastic Compliance Matrix: (Units=1/GPa)
#
#
# Indices 1 2 3 4 5 6 
#
# 1 0.014680 0.000934 -0.009577 0.000000 0.000000 0.000000
# 2 0.000934 0.019800 -0.003529 0.000000 0.000000 0.000000
# 3 -0.009577 -0.003529 0.013544 0.000000 0.000000 0.000000
# 4 0.000000 0.000000 0.000000 -0.000755 0.000000 0.000000
# 5 0.000000 0.000000 0.000000 0.000000 0.121500 0.000000
# 6 0.000000 0.000000 0.000000 0.000000 0.000000 0.075045
#
#
# Mechanical properties :
#
#
# Convention : Reuss Voigt Hill
#
# Bulk Modulus (GPa) = 42.22952 64.42490 53.32721
# Shear Modulus (GPa) = 18.11267 -247.26240 -114.57487
#
# Velocity S-wave (km/s) = 3.16853 -11.70700 -7.96914
# Velocity P-wave (km/s) = 6.06575 12.12554 7.42413
#
# Compressibility (1/GPa) = 0.02368012
#
# Stress axis : x y z
#
# Youngs Moduli (GPa) = 68.12204 50.50502 73.83606
#
# Poissons Ratio (x) = -0.04719 0.70714
# Poissons Ratio (y) = -0.06366 0.26055
# Poissons Ratio (z) = 0.65242 0.17822
#
# Static dielectric constant tensor:
#      x y z
#    x 1.630500 0.000000 0.000000 
#    y 0.000000 1.689310 0.000000 
#    z 0.000000 0.000000 1.609840 
# 
# From -- ./inp_files/76301.got.cif
#   From: 2010.05.17/outbox.cif.g08.bks.cpg/sg65_39_cif.got.tgz:76301.got - 2010.06.03 17:01:31.
