data_PCOD9485034
_publ_section_title
;
Structure prediction by ZEFSAII (Michael W. Deem and Ramdas Pophale) SiO2 
 PCOD9485034
Probable space group: C M M M
;
_chemical_formula_sum "Si O2"
_cell_formula_units_Z 88
_cell_length_a 26.821106
_cell_length_b 8.610290
_cell_length_c 23.165896
_cell_angle_alpha 90.000000
_cell_angle_beta 90.000000
_cell_angle_gamma 90.000000
_cell_volume 5349.874126
_symmetry_space_group_name_H-M "C M M M"
_symmetry_group_IT_number 65
_symmetry_cell_setting 'orthorhombic'
loop_
_space_group_symop_operation_xyz
x,y,z
-x,-y,z
x,-y,-z
-x,y,-z
-x,-y,-z
x,y,-z
-x,y,z
x,-y,z
1/2+x,1/2+y,z
1/2-x,1/2-y,z
1/2+x,1/2-y,-z
1/2-x,1/2+y,-z
1/2-x,1/2-y,-z
1/2+x,1/2+y,-z
1/2-x,1/2+y,z
1/2+x,1/2-y,z
loop_
_atom_site_type_symbol
_atom_site_label
_atom_site_fract_x
_atom_site_fract_y
_atom_site_fract_z
Si Si1 0.554904 0.681175 0.238262
Si Si2 0.805983 0.685854 0.937303
Si Si3 0.304230 0.186625 0.304530
Si Si4 0.408603 0.183198 0.354821
Si Si5 0.341941 0.682720 0.816886
Si Si6 0.500000 0.809921 0.567074
O O1 0.500000 0.708712 0.214587
O O2 0.557880 0.500000 0.257410
O O3 0.564933 0.786975 0.293549
O O4 0.599407 0.704826 0.194196
O O5 0.805143 0.500000 0.934425
O O6 0.750000 0.750000 0.937624
O O7 0.829370 0.750125 0.878983
O O8 0.828670 0.730675 0.000000
O O9 0.250000 0.250000 0.322095
O O10 0.351730 0.242445 0.343609
O O11 0.315140 0.239541 0.238449
O O12 0.303549 0.000000 0.306010
O O13 0.448833 0.244518 0.401417
O O14 0.403449 0.000000 0.366067
O O15 0.329782 0.500000 0.815285
O O16 0.500000 0.767686 0.500000
O O17 0.500000 0.000000 0.571067
#
# Coordination Sequence:
#
# PCOD9485034 Si02
#       6
#    16  16  16  16  16   8
#     4   9  17  29  46  68  94 122 149 183 229 276
#     4  10  20  33  48  65  87 116 150 188 229 273
#     4  10  19  30  45  67  95 125 156 190 231 280
#     4   9  17  29  47  70  94 122 156 192 231 275
#     4  10  19  30  46  68  93 120 151 188 230 276
#     4   9  16  28  49  75  99 121 152 197 238 271
#
# _framework density 16.448986000000001
#
# number of rings (size 3 to 8) (size 9 to 14) (size 15 to 20)
#    0.000    2.455    0.909    2.182    0.000    2.545 
#    0.000    0.000    0.000    2.182    0.000    3.818 
#    0.000    0.000    0.000    0.000    0.000    0.545 
#
# Total GULP energy -244940.642809 kJ/mol
# GULP energy per Si atom -5566.832791 kJ/mol
# Density = 1.641155 g / cm^3
# Si number density = 16.448986 Si / 1000 Ang^3
#
#
#
# Elastic Constant Matrix: (Units=GPa)
#
#
# Indices 1 2 3 4 5 6 
#
# 1 129.3305 26.3792 56.0070 0.0000 0.0000 0.0000
# 2 26.3792 27.8248 23.0102 0.0000 0.0000 0.0000
# 3 56.0070 23.0102 104.7162 0.0000 0.0000 0.0000
# 4 0.0000 0.0000 0.0000 8.8344 0.0000 0.0000
# 5 0.0000 0.0000 0.0000 0.0000 20.2122 0.0000
# 6 0.0000 0.0000 0.0000 0.0000 0.0000 14.7357
#
#
#
# Elastic Compliance Matrix: (Units=1/GPa)
#
#
# Indices 1 2 3 4 5 6 
#
# 1 0.011028 -0.006816 -0.004401 0.000000 0.000000 0.000000
# 2 -0.006816 0.048133 -0.006931 0.000000 0.000000 0.000000
# 3 -0.004401 -0.006931 0.013426 0.000000 0.000000 0.000000
# 4 0.000000 0.000000 0.000000 0.113194 0.000000 0.000000
# 5 0.000000 0.000000 0.000000 0.000000 0.049475 0.000000
# 6 0.000000 0.000000 0.000000 0.000000 0.000000 0.067862
#
#
# Mechanical properties :
#
#
# Convention : Reuss Voigt Hill
#
# Bulk Modulus (GPa) = 27.55439 52.51825 40.03632
# Shear Modulus (GPa) = 14.22428 19.18813 16.70621
#
# Velocity S-wave (km/s) = 2.94386 3.41915 3.19036
# Velocity P-wave (km/s) = 5.32380 6.89816 6.16147
#
# Compressibility (1/GPa) = 0.03629185
#
# Stress axis : x y z
#
# Youngs Moduli (GPa) = 90.67791 20.77578 74.48075
#
# Poissons Ratio (x) = 0.14161 0.32776
# Poissons Ratio (y) = 0.61806 0.51624
# Poissons Ratio (z) = 0.39903 0.14400
#
# Static dielectric constant tensor:
#      x y z
#    x 1.581880 0.000000 0.000000 
#    y 0.000000 1.571800 0.000000 
#    z 0.000000 0.000000 1.534990 
# 
# From -- ./inp_files/60224.got.cif
#   From: 2010.05.17/outbox.cif.g08.bks.cpg/sg65_31_cif.got.tgz:60224.got - 2010.06.03 17:01:31.
