data_PCOD9485501
_publ_section_title
;
Structure prediction by ZEFSAII (Michael W. Deem and Ramdas Pophale) SiO2 
 PCOD9485501
Probable space group: C M M M
;
_chemical_formula_sum "Si O2"
_cell_formula_units_Z 104
_cell_length_a 24.504040
_cell_length_b 8.503092
_cell_length_c 29.504186
_cell_angle_alpha 90.000000
_cell_angle_beta 90.000000
_cell_angle_gamma 90.000000
_cell_volume 6147.495337
_symmetry_space_group_name_H-M "C M M M"
_symmetry_group_IT_number 65
_symmetry_cell_setting 'orthorhombic'
loop_
_space_group_symop_operation_xyz
x,y,z
-x,-y,z
x,-y,-z
-x,y,-z
-x,-y,-z
x,y,-z
-x,y,z
x,-y,z
1/2+x,1/2+y,z
1/2-x,1/2-y,z
1/2+x,1/2-y,-z
1/2-x,1/2+y,-z
1/2-x,1/2-y,-z
1/2+x,1/2+y,-z
1/2-x,1/2+y,z
1/2+x,1/2-y,z
loop_
_atom_site_type_symbol
_atom_site_label
_atom_site_fract_x
_atom_site_fract_y
_atom_site_fract_z
Si Si1 0.312005 0.810680 0.267847
Si Si2 0.812625 0.689667 0.167514
Si Si3 0.688080 0.811970 0.000000
Si Si4 0.688315 0.188675 0.634176
Si Si5 0.000000 0.310925 0.053338
Si Si6 0.882853 0.812215 0.915892
Si Si7 0.000000 0.178559 0.554776
Si Si8 0.118253 0.190657 0.551839
O O1 0.250000 0.750000 0.268516
O O2 0.332643 0.762171 0.218203
O O3 0.336412 0.761550 0.316574
O O4 0.311575 0.000000 0.267901
O O5 0.811206 0.500000 0.164702
O O6 0.750000 0.750000 0.161209
O O7 0.853474 0.755375 0.129955
O O8 0.750000 0.750000 0.000000
O O9 0.654988 0.751876 0.043520
O O10 0.688905 0.000000 0.000000
O O11 0.750000 0.250000 0.633635
O O12 0.659037 0.255720 0.590232
O O13 0.687881 0.000000 0.632049
O O14 0.944375 0.249992 0.076404
O O15 0.000000 0.500000 0.054709
O O16 0.000000 0.262741 0.000000
O O17 0.883698 0.000000 0.917418
O O18 0.941967 0.252733 0.565479
O O19 0.000000 0.166387 0.500000
O O20 0.000000 0.000000 0.573153
O O21 0.131080 0.240318 0.500000
O O22 0.115681 0.000000 0.550973
#
# Coordination Sequence:
#
# PCOD9485501 Si02
#       8
#    16  16   8  16   8  16   8  16
#     4   8  16  30  49  71  97 130 167 207 249 299
#     4  10  19  34  55  80 108 136 170 212 261 312
#     4  12  24  39  56  79 110 144 176 210 254 304
#     4  10  19  31  47  70  99 131 167 204 248 300
#     4  11  23  41  63  82 104 141 186 221 253 303
#     4  12  24  38  57  82 110 140 174 215 258 302
#     4   7  12  26  47  66  85 114 155 198 239 287
#     4   9  17  30  48  69  93 124 163 206 252 303
#
# _framework density 16.917459999999998
#
# number of rings (size 3 to 8) (size 9 to 14) (size 15 to 20)
#    0.000    2.154    0.769    4.615    0.000    2.154 
#    0.000    0.385    0.000    2.308    0.000    5.385 
#    0.000    0.000    0.000    0.000    0.000    0.000 
#
# Total GULP energy -289699.762441 kJ/mol
# GULP energy per Si atom -5571.149278 kJ/mol
# Density = 1.687896 g / cm^3
# Si number density = 16.917460 Si / 1000 Ang^3
#
#
#
# Elastic Constant Matrix: (Units=GPa)
#
#
# Indices 1 2 3 4 5 6 
#
# 1 111.8311 34.0497 82.0662 0.0000 0.0000 0.0000
# 2 34.0497 65.1768 41.5216 0.0000 0.0000 0.0000
# 3 82.0662 41.5216 175.7993 0.0000 0.0000 0.0000
# 4 0.0000 0.0000 0.0000 15.9896 0.0000 0.0000
# 5 0.0000 0.0000 0.0000 0.0000 -5.7349 0.0000
# 6 0.0000 0.0000 0.0000 0.0000 0.0000 21.0558
#
#
#
# Elastic Compliance Matrix: (Units=1/GPa)
#
#
# Indices 1 2 3 4 5 6 
#
# 1 0.014360 -0.003804 -0.005805 0.000000 0.000000 0.000000
# 2 -0.003804 0.019068 -0.002728 0.000000 0.000000 0.000000
# 3 -0.005805 -0.002728 0.009043 0.000000 0.000000 0.000000
# 4 0.000000 0.000000 0.000000 0.062541 0.000000 0.000000
# 5 0.000000 0.000000 0.000000 0.000000 -0.174372 0.000000
# 6 0.000000 0.000000 0.000000 0.000000 0.000000 0.047493
#
#
# Mechanical properties :
#
#
# Convention : Reuss Voigt Hill
#
# Bulk Modulus (GPa) = 56.18960 74.23135 65.21048
# Shear Modulus (GPa) = 572.17214 19.27341 295.72277
#
# Velocity S-wave (km/s) = 18.41055 3.37896 13.23566
# Velocity P-wave (km/s) = 22.02764 7.69395 16.49870
#
# Compressibility (1/GPa) = 0.01779689
#
# Stress axis : x y z
#
# Youngs Moduli (GPa) = 69.63610 52.44408 110.58768
#
# Poissons Ratio (x) = 0.19949 0.64199
# Poissons Ratio (y) = 0.26488 0.30167
# Poissons Ratio (z) = 0.40426 0.14306
#
# Static dielectric constant tensor:
#      x y z
#    x 1.561830 0.000000 0.000000 
#    y 0.000000 1.579710 0.000000 
#    z 0.000000 0.000000 1.599750 
# 
# From -- ./inp_files/75817.got.cif
#   From: 2010.05.17/outbox.cif.g08.bks.cpg/sg65_38_cif.got.tgz:75817.got - 2010.06.03 17:01:31.
