data_PCOD9485077
_publ_section_title
;
Structure prediction by ZEFSAII (Michael W. Deem and Ramdas Pophale) SiO2 
 PCOD9485077
Probable space group: C M M M
;
_chemical_formula_sum "Si O2"
_cell_formula_units_Z 72
_cell_length_a 9.823311
_cell_length_b 34.439591
_cell_length_c 13.522029
_cell_angle_alpha 90.000000
_cell_angle_beta 90.000000
_cell_angle_gamma 90.000000
_cell_volume 4574.648626
_symmetry_space_group_name_H-M "C M M M"
_symmetry_group_IT_number 65
_symmetry_cell_setting 'orthorhombic'
loop_
_space_group_symop_operation_xyz
x,y,z
-x,-y,z
x,-y,-z
-x,y,-z
-x,-y,-z
x,y,-z
-x,y,z
x,-y,z
1/2+x,1/2+y,z
1/2-x,1/2-y,z
1/2+x,1/2-y,-z
1/2-x,1/2+y,-z
1/2-x,1/2-y,-z
1/2+x,1/2+y,-z
1/2-x,1/2+y,z
1/2+x,1/2-y,z
loop_
_atom_site_type_symbol
_atom_site_label
_atom_site_fract_x
_atom_site_fract_y
_atom_site_fract_z
Si Si1 0.348344 0.783523 0.616686
Si Si2 0.340581 0.711595 0.113616
Si Si3 0.842313 0.927400 0.617200
Si Si4 0.657838 0.656385 0.702560
Si Si5 0.655873 0.000000 0.380157
O O1 0.361453 0.776857 0.500000
O O2 0.500000 0.783029 0.660086
O O3 0.250000 0.750000 0.656699
O O4 0.267681 0.822979 0.633425
O O5 0.500000 0.722268 0.123099
O O6 0.250000 0.750000 0.129704
O O7 0.316949 0.676505 0.190906
O O8 0.316960 0.698968 0.000000
O O9 0.819657 0.917508 0.500000
O O10 0.827349 0.889422 0.685457
O O11 0.000000 0.940540 0.623821
O O12 0.740024 0.961518 0.646962
O O13 0.500000 0.665869 0.675004
O O14 0.500000 0.000000 0.344775
O O15 0.652619 0.000000 0.500000
#
# Coordination Sequence:
#
# PCOD9485077 Si02
#       5
#    16  16  16  16   8
#     4  10  20  31  42  58  84 118 151 182 217 259
#     4   9  18  32  48  66  89 117 150 189 231 271
#     4   9  17  29  45  65  90 119 148 178 215 262
#     4  10  19  30  46  67  89 115 148 186 226 267
#     4   9  17  29  45  65  90 119 148 178 213 255
#
# _framework density 15.738915
#
# number of rings (size 3 to 8) (size 9 to 14) (size 15 to 20)
#    0.000    2.556    0.000    2.333    0.000    7.111 
#    0.000    2.222    0.000    0.000    0.000    0.778 
#    0.000    6.222    0.000    0.000    0.000    0.000 
#
# Total GULP energy -200475.935964 kJ/mol
# GULP energy per Si atom -5568.775999 kJ/mol
# Density = 1.570309 g / cm^3
# Si number density = 15.738915 Si / 1000 Ang^3
#
#
#
# Elastic Constant Matrix: (Units=GPa)
#
#
# Indices 1 2 3 4 5 6 
#
# 1 116.0948 77.3827 28.9530 0.0000 0.0000 0.0000
# 2 77.3827 100.9380 28.3026 0.0000 0.0000 0.0000
# 3 28.9530 28.3026 58.7653 0.0000 0.0000 0.0000
# 4 0.0000 0.0000 0.0000 17.6311 0.0000 0.0000
# 5 0.0000 0.0000 0.0000 0.0000 3.6449 0.0000
# 6 0.0000 0.0000 0.0000 0.0000 0.0000 22.8952
#
#
#
# Elastic Compliance Matrix: (Units=1/GPa)
#
#
# Indices 1 2 3 4 5 6 
#
# 1 0.017942 -0.013037 -0.002561 0.000000 0.000000 0.000000
# 2 -0.013037 0.020927 -0.003656 0.000000 0.000000 0.000000
# 3 -0.002561 -0.003656 0.020039 0.000000 0.000000 0.000000
# 4 0.000000 0.000000 0.000000 0.056718 0.000000 0.000000
# 5 0.000000 0.000000 0.000000 0.000000 0.274354 0.000000
# 6 0.000000 0.000000 0.000000 0.000000 0.000000 0.043677
#
#
# Mechanical properties :
#
#
# Convention : Reuss Voigt Hill
#
# Bulk Modulus (GPa) = 49.01730 60.56384 54.79057
# Shear Modulus (GPa) = 10.43918 18.24491 14.34204
#
# Velocity S-wave (km/s) = 2.57820 3.40843 3.02196
# Velocity P-wave (km/s) = 6.33044 7.35212 6.86033
#
# Compressibility (1/GPa) = 0.02040096
#
# Stress axis : x y z
#
# Youngs Moduli (GPa) = 55.73493 47.78591 49.90214
#
# Poissons Ratio (x) = 0.62298 0.12780
# Poissons Ratio (y) = 0.72661 0.18242
# Poissons Ratio (z) = 0.14274 0.17469
#
# Static dielectric constant tensor:
#      x y z
#    x 1.552150 0.000000 0.000000 
#    y 0.000000 1.524750 0.000000 
#    z 0.000000 0.000000 1.545640 
# 
# From -- ./inp_files/36966.got.cif
#   From: 2010.05.17/outbox.cif.g08.bks.cpg/sg65_19_cif.got.tgz:36966.got - 2010.06.03 17:01:31.
