data_PCOD9485798
_publ_section_title
;
Structure prediction by ZEFSAII (Michael W. Deem and Ramdas Pophale) SiO2 
 PCOD9485798
Probable space group: C M M M
;
_chemical_formula_sum "Si O2"
_cell_formula_units_Z 96
_cell_length_a 20.629866
_cell_length_b 28.000034
_cell_length_c 7.411281
_cell_angle_alpha 90.000000
_cell_angle_beta 90.000000
_cell_angle_gamma 90.000000
_cell_volume 4281.029748
_symmetry_space_group_name_H-M "C M M M"
_symmetry_group_IT_number 65
_symmetry_cell_setting 'orthorhombic'
loop_
_space_group_symop_operation_xyz
x,y,z
-x,-y,z
x,-y,-z
-x,y,-z
-x,-y,-z
x,y,-z
-x,y,z
x,-y,z
1/2+x,1/2+y,z
1/2-x,1/2-y,z
1/2+x,1/2-y,-z
1/2-x,1/2+y,-z
1/2-x,1/2-y,-z
1/2+x,1/2+y,-z
1/2-x,1/2+y,z
1/2+x,1/2-y,z
loop_
_atom_site_type_symbol
_atom_site_label
_atom_site_fract_x
_atom_site_fract_y
_atom_site_fract_z
Si Si1 0.294656 0.600965 0.717676
Si Si2 0.072481 0.251894 0.288680
Si Si3 0.797075 0.207572 0.720888
Si Si4 0.574646 0.139052 0.782144
Si Si5 0.837735 0.447430 0.787544
Si Si6 0.071657 0.055803 0.719640
O O1 0.296636 0.601399 0.500000
O O2 0.277783 0.654546 0.778507
O O3 0.237867 0.565040 0.770180
O O4 0.365685 0.584828 0.781219
O O5 0.067511 0.240180 0.500000
O O6 0.130190 0.219636 0.216486
O O7 0.092814 0.307492 0.276292
O O8 0.000000 0.247426 0.210615
O O9 0.796703 0.208099 0.500000
O O10 0.750000 0.250000 0.779781
O O11 0.500000 0.130923 0.726802
O O12 0.620929 0.097022 0.713991
O O13 0.576487 0.139519 0.000000
O O14 0.851521 0.500000 0.711526
O O15 0.853161 0.449397 0.000000
O O16 0.071762 0.057419 0.500000
O O17 0.000000 0.072549 0.777698
O O18 0.078306 0.000000 0.769516
#
# Coordination Sequence:
#
# PCOD9485798 Si02
#       6
#    16  16  16  16  16  16
#     4  10  19  31  50  72  94 125 163 198 232 278
#     4   9  17  30  49  72  98 127 157 192 237 284
#     4   9  17  28  43  66  95 123 151 186 227 270
#     4   9  18  33  52  72  94 123 160 198 237 287
#     4  10  21  35  50  70  97 126 156 197 248 294
#     4   8  14  25  42  66  93 116 143 185 231 269
#
# _framework density 22.424510999999999
#
# number of rings (size 3 to 8) (size 9 to 14) (size 15 to 20)
#    0.000    2.833    0.000    2.000    0.000    4.000 
#    0.000    5.833    0.000    3.500    0.000    5.833 
#    0.000    0.000    0.000    0.000    0.000    0.000 
#
# Total GULP energy -268053.348674 kJ/mol
# GULP energy per Si atom -5584.444764 kJ/mol
# Density = 2.237347 g / cm^3
# Si number density = 22.424511 Si / 1000 Ang^3
#
#
#
# Elastic Constant Matrix: (Units=GPa)
#
#
# Indices 1 2 3 4 5 6 
#
# 1 32.7781 -7.4425 -6.6464 0.0000 0.0000 0.0000
# 2 -7.4425 34.9658 -6.8946 0.0000 0.0000 0.0000
# 3 -6.6464 -6.8946 73.8288 0.0000 0.0000 0.0000
# 4 0.0000 0.0000 0.0000 4.2852 0.0000 0.0000
# 5 0.0000 0.0000 0.0000 0.0000 5.6497 0.0000
# 6 0.0000 0.0000 0.0000 0.0000 0.0000 41.7439
#
#
#
# Elastic Compliance Matrix: (Units=1/GPa)
#
#
# Indices 1 2 3 4 5 6 
#
# 1 0.033019 0.007757 0.003697 0.000000 0.000000 0.000000
# 2 0.007757 0.030958 0.003589 0.000000 0.000000 0.000000
# 3 0.003697 0.003589 0.014213 0.000000 0.000000 0.000000
# 4 0.000000 0.000000 0.000000 0.233359 0.000000 0.000000
# 5 0.000000 0.000000 0.000000 0.000000 0.177001 0.000000
# 6 0.000000 0.000000 0.000000 0.000000 0.000000 0.023956
#
#
# Mechanical properties :
#
#
# Convention : Reuss Voigt Hill
#
# Bulk Modulus (GPa) = 9.23554 11.06729 10.15141
# Shear Modulus (GPa) = 9.64298 21.17283 15.40790
#
# Velocity S-wave (km/s) = 2.07594 3.07609 2.62410
# Velocity P-wave (km/s) = 3.14221 4.19076 3.70378
#
# Compressibility (1/GPa) = 0.10827741
#
# Stress axis : x y z
#
# Youngs Moduli (GPa) = 30.28543 32.30151 70.35882
#
# Poissons Ratio (x) = -0.25057 -0.26011
# Poissons Ratio (y) = -0.23493 -0.25255
# Poissons Ratio (z) = -0.11196 -0.11594
#
# Static dielectric constant tensor:
#      x y z
#    x 1.815270 0.000000 0.000000 
#    y 0.000000 1.786170 0.000000 
#    z 0.000000 0.000000 2.118200 
# 
# From -- ./inp_files/12326.got.cif
#   From: 2010.05.17/outbox.cif.g08.bks.cpg/sg65_7_cif.got.tgz:12326.got - 2010.06.03 17:01:31.
