data_PCOD9485896
_publ_section_title
;
Structure prediction by ZEFSAII (Michael W. Deem and Ramdas Pophale) SiO2 
 PCOD9485896
Probable space group: C M M M
;
_chemical_formula_sum "Si O2"
_cell_formula_units_Z 84
_cell_length_a 24.458134
_cell_length_b 14.660613
_cell_length_c 12.337486
_cell_angle_alpha 90.000000
_cell_angle_beta 90.000000
_cell_angle_gamma 90.000000
_cell_volume 4423.867620
_symmetry_space_group_name_H-M "C M M M"
_symmetry_group_IT_number 65
_symmetry_cell_setting 'orthorhombic'
loop_
_space_group_symop_operation_xyz
x,y,z
-x,-y,z
x,-y,-z
-x,y,-z
-x,-y,-z
x,y,-z
-x,y,z
x,-y,z
1/2+x,1/2+y,z
1/2-x,1/2-y,z
1/2+x,1/2-y,-z
1/2-x,1/2+y,-z
1/2-x,1/2-y,-z
1/2+x,1/2+y,-z
1/2-x,1/2+y,z
1/2+x,1/2-y,z
loop_
_atom_site_type_symbol
_atom_site_label
_atom_site_fract_x
_atom_site_fract_y
_atom_site_fract_z
Si Si1 0.396293 0.896459 0.762898
Si Si2 0.000000 0.109385 0.236726
Si Si3 0.500000 0.889013 0.622225
Si Si4 0.314234 0.271754 0.761071
Si Si5 0.813385 0.772609 0.000000
Si Si6 0.893185 0.890288 0.626743
Si Si7 0.000000 0.804594 0.000000
Si Si8 0.910908 0.649054 0.000000
O O1 0.445349 0.864136 0.686041
O O2 0.347808 0.823282 0.756880
O O3 0.379726 0.000000 0.734047
O O4 0.419764 0.898532 0.885651
O O5 0.054457 0.138616 0.301183
O O6 0.000000 0.141336 0.112608
O O7 0.000000 0.000000 0.238376
O O8 0.500000 0.854418 0.500000
O O9 0.500000 0.000000 0.619792
O O10 0.250000 0.250000 0.748623
O O11 0.324846 0.314746 0.881885
O O12 0.340404 0.338463 0.673025
O O13 0.750000 0.750000 0.000000
O O14 0.847833 0.679480 0.000000
O O15 0.902310 0.869956 0.500000
O O16 0.887071 0.000000 0.636868
O O17 0.947116 0.739831 0.000000
#
# Coordination Sequence:
#
# PCOD9485896 Si02
#       8
#    16   8   8  16   8  16   4   8
#     4  10  20  35  56  81 110 146 185 226 273 328
#     4  10  20  36  59  86 115 147 186 235 289 345
#     4   9  19  35  52  74 105 138 177 223 268 318
#     4  10  21  37  58  84 114 147 187 233 284 339
#     4   8  16  33  53  75 106 141 177 223 270 318
#     4  10  22  40  60  82 111 149 192 237 284 337
#     4  12  21  32  53  86 122 150 182 228 290 346
#     4  10  19  31  50  77 110 144 179 215 263 327
#
# _framework density 18.987908999999998
#
# number of rings (size 3 to 8) (size 9 to 14) (size 15 to 20)
#    0.000    2.190    0.000    3.571    0.000    3.810 
#    0.000    3.333    0.000    5.714    0.000    0.000 
#    0.000    0.000    0.000    0.000    0.000    0.000 
#
# Total GULP energy -234227.967288 kJ/mol
# GULP energy per Si atom -5576.856364 kJ/mol
# Density = 1.894469 g / cm^3
# Si number density = 18.987909 Si / 1000 Ang^3
#
#
#
# Elastic Constant Matrix: (Units=GPa)
#
#
# Indices 1 2 3 4 5 6 
#
# 1 131.3504 39.3891 70.9565 0.0000 0.0000 0.0000
# 2 39.3891 61.9339 41.3512 0.0000 0.0000 0.0000
# 3 70.9565 41.3512 155.7431 0.0000 0.0000 0.0000
# 4 0.0000 0.0000 0.0000 27.5329 0.0000 0.0000
# 5 0.0000 0.0000 0.0000 0.0000 32.4544 0.0000
# 6 0.0000 0.0000 0.0000 0.0000 0.0000 15.9796
#
#
#
# Elastic Compliance Matrix: (Units=1/GPa)
#
#
# Indices 1 2 3 4 5 6 
#
# 1 0.011021 -0.004445 -0.003841 0.000000 0.000000 0.000000
# 2 -0.004445 0.021418 -0.003662 0.000000 0.000000 0.000000
# 3 -0.003841 -0.003662 0.009143 0.000000 0.000000 0.000000
# 4 0.000000 0.000000 0.000000 0.036320 0.000000 0.000000
# 5 0.000000 0.000000 0.000000 0.000000 0.030812 0.000000
# 6 0.000000 0.000000 0.000000 0.000000 0.000000 0.062580
#
#
# Mechanical properties :
#
#
# Convention : Reuss Voigt Hill
#
# Bulk Modulus (GPa) = 56.53848 72.49121 64.51484
# Shear Modulus (GPa) = 24.86513 28.34874 26.60693
#
# Velocity S-wave (km/s) = 3.62266 3.86811 3.74740
# Velocity P-wave (km/s) = 6.88033 7.62956 7.26461
#
# Compressibility (1/GPa) = 0.01768707
#
# Stress axis : x y z
#
# Youngs Moduli (GPa) = 90.73528 46.69032 109.37302
#
# Poissons Ratio (x) = 0.20752 0.42011
# Poissons Ratio (y) = 0.40329 0.40048
# Poissons Ratio (z) = 0.34852 0.17096
#
# Static dielectric constant tensor:
#      x y z
#    x 1.635430 0.000000 0.000000 
#    y 0.000000 1.675630 0.000000 
#    z 0.000000 0.000000 1.692440 
# 
# From -- ./inp_files/30621.got.cif
#   From: 2010.05.17/outbox.cif.g08.bks.cpg/sg65_16_cif.got.tgz:30621.got - 2010.06.03 17:01:31.
