data_PCOD9485387
_publ_section_title
;
Structure prediction by ZEFSAII (Michael W. Deem and Ramdas Pophale) SiO2 
 PCOD9485387
Probable space group: C M M M
;
_chemical_formula_sum "Si O2"
_cell_formula_units_Z 72
_cell_length_a 8.647934
_cell_length_b 29.081524
_cell_length_c 18.977198
_cell_angle_alpha 90.000000
_cell_angle_beta 90.000000
_cell_angle_gamma 90.000000
_cell_volume 4772.672312
_symmetry_space_group_name_H-M "C M M M"
_symmetry_group_IT_number 65
_symmetry_cell_setting 'orthorhombic'
loop_
_space_group_symop_operation_xyz
x,y,z
-x,-y,z
x,-y,-z
-x,y,-z
-x,-y,-z
x,y,-z
-x,y,z
x,-y,z
1/2+x,1/2+y,z
1/2-x,1/2-y,z
1/2+x,1/2-y,-z
1/2-x,1/2+y,-z
1/2-x,1/2-y,-z
1/2+x,1/2+y,-z
1/2-x,1/2+y,z
1/2+x,1/2-y,z
loop_
_atom_site_type_symbol
_atom_site_label
_atom_site_fract_x
_atom_site_fract_y
_atom_site_fract_z
Si Si1 0.183564 0.145078 0.864546
Si Si2 0.313734 0.802111 0.269298
Si Si3 0.684748 0.198457 0.000000
Si Si4 0.186482 0.698003 0.575668
Si Si5 0.314204 0.052453 0.083172
O O1 0.247347 0.167211 0.793090
O O2 0.231776 0.092019 0.873246
O O3 0.000000 0.150019 0.867472
O O4 0.256856 0.172003 0.930769
O O5 0.500000 0.800637 0.264646
O O6 0.250000 0.750000 0.262586
O O7 0.268109 0.820621 0.347439
O O8 0.750000 0.250000 0.000000
O O9 0.500000 0.199389 0.000000
O O10 0.235353 0.676828 0.500000
O O11 0.250000 0.750000 0.575260
O O12 0.000000 0.699511 0.575622
O O13 0.500000 0.057239 0.089943
O O14 0.273117 0.000000 0.102288
O O15 0.277753 0.058648 0.000000
#
# Coordination Sequence:
#
# PCOD9485387 Si02
#       5
#    16  16   8  16  16
#     4  12  23  34  48  69  94 121 155 191 229 272
#     4  10  19  31  46  65  93 127 159 193 231 270
#     4  12  24  38  51  64  87 120 160 197 231 269
#     4   8  14  25  42  63  86 115 152 190 227 267
#     4   9  18  34  55  74  91 114 146 187 235 281
#
# _framework density 15.085887
#
# number of rings (size 3 to 8) (size 9 to 14) (size 15 to 20)
#    0.000    2.000    1.111    5.000    0.000    1.333 
#    0.000    1.111    0.000    0.000    0.000    0.000 
#    0.000    0.889    0.000   10.222    0.000    2.889 
#
# Total GULP energy -200692.548938 kJ/mol
# GULP energy per Si atom -5574.793026 kJ/mol
# Density = 1.505155 g / cm^3
# Si number density = 15.085887 Si / 1000 Ang^3
#
#
#
# Elastic Constant Matrix: (Units=GPa)
#
#
# Indices 1 2 3 4 5 6 
#
# 1 76.1812 39.7143 51.2372 0.0000 0.0000 0.0000
# 2 39.7143 82.5646 62.2180 0.0000 0.0000 0.0000
# 3 51.2372 62.2180 160.2238 0.0000 0.0000 0.0000
# 4 0.0000 0.0000 0.0000 2.0873 0.0000 0.0000
# 5 0.0000 0.0000 0.0000 0.0000 11.2214 0.0000
# 6 0.0000 0.0000 0.0000 0.0000 0.0000 23.1863
#
#
#
# Elastic Compliance Matrix: (Units=1/GPa)
#
#
# Indices 1 2 3 4 5 6 
#
# 1 0.018842 -0.006394 -0.003543 0.000000 0.000000 0.000000
# 2 -0.006394 0.019292 -0.005447 0.000000 0.000000 0.000000
# 3 -0.003543 -0.005447 0.009489 0.000000 0.000000 0.000000
# 4 0.000000 0.000000 0.000000 0.479094 0.000000 0.000000
# 5 0.000000 0.000000 0.000000 0.000000 0.089116 0.000000
# 6 0.000000 0.000000 0.000000 0.000000 0.000000 0.043129
#
#
# Mechanical properties :
#
#
# Convention : Reuss Voigt Hill
#
# Bulk Modulus (GPa) = 59.32235 69.47872 64.40054
# Shear Modulus (GPa) = 7.19066 18.35233 12.77149
#
# Velocity S-wave (km/s) = 2.18560 3.49165 2.91277
# Velocity P-wave (km/s) = 6.76591 7.90006 7.35488
#
# Compressibility (1/GPa) = 0.01685705
#
# Stress axis : x y z
#
# Youngs Moduli (GPa) = 53.07160 51.83604 105.38244
#
# Poissons Ratio (x) = 0.33142 0.37334
# Poissons Ratio (y) = 0.33932 0.57399
# Poissons Ratio (z) = 0.18802 0.28233
#
# Static dielectric constant tensor:
#      x y z
#    x 1.503940 0.000000 0.000000 
#    y 0.000000 1.473030 0.000000 
#    z 0.000000 0.000000 1.533650 
# 
# From -- ./inp_files/49696.got.cif
#   From: 2010.05.17/outbox.cif.g08.bks.cpg/sg65_25_cif.got.tgz:49696.got - 2010.06.03 17:01:31.
