data_PCOD9485003
_publ_section_title
;
Structure prediction by ZEFSAII (Michael W. Deem and Ramdas Pophale) SiO2 
 PCOD9485003
Probable space group: C M M M
;
_chemical_formula_sum "Si O2"
_cell_formula_units_Z 80
_cell_length_a 18.365888
_cell_length_b 7.352146
_cell_length_c 27.225489
_cell_angle_alpha 90.000000
_cell_angle_beta 90.000000
_cell_angle_gamma 90.000000
_cell_volume 3676.222114
_symmetry_space_group_name_H-M "C M M M"
_symmetry_group_IT_number 65
_symmetry_cell_setting 'orthorhombic'
loop_
_space_group_symop_operation_xyz
x,y,z
-x,-y,z
x,-y,-z
-x,y,-z
-x,-y,-z
x,y,-z
-x,y,z
x,-y,z
1/2+x,1/2+y,z
1/2-x,1/2-y,z
1/2+x,1/2-y,-z
1/2-x,1/2+y,-z
1/2-x,1/2-y,-z
1/2+x,1/2+y,-z
1/2-x,1/2+y,z
1/2+x,1/2-y,z
loop_
_atom_site_type_symbol
_atom_site_label
_atom_site_fract_x
_atom_site_fract_y
_atom_site_fract_z
Si Si1 0.415095 0.777642 0.893074
Si Si2 0.915602 0.277592 0.500000
Si Si3 0.088414 0.713766 0.000000
Si Si4 0.664062 0.783128 0.598600
Si Si5 0.664401 0.216829 0.795420
Si Si6 0.915709 0.277604 0.697078
O O1 0.500000 0.727538 0.886875
O O2 0.368831 0.714650 0.846632
O O3 0.413486 0.000000 0.894365
O O4 0.388394 0.713545 0.946827
O O5 0.914054 0.500000 0.500000
O O6 0.874582 0.215302 0.450853
O O7 0.000000 0.224087 0.500000
O O8 0.107001 0.500000 0.000000
O O9 0.000000 0.726260 0.000000
O O10 0.750000 0.750000 0.597952
O O11 0.627090 0.715298 0.648634
O O12 0.653263 0.000000 0.598685
O O13 0.750000 0.250000 0.791944
O O14 0.623024 0.284777 0.747027
O O15 0.652949 0.000000 0.796080
O O16 0.913993 0.500000 0.697213
O O17 0.000000 0.224185 0.695502
#
# Coordination Sequence:
#
# PCOD9485003 Si02
#       6
#    16   8   8  16  16  16
#     4   8  13  23  41  63  84 109 144 183 218 252
#     4   9  17  30  49  71  92 119 158 194 218 249
#     4   7  10  18  35  60  85 105 134 181 224 250
#     4  10  19  31  49  71  95 121 148 183 225 267
#     4  10  19  30  45  65  90 117 144 178 219 263
#     4   9  17  30  49  70  88 112 151 191 220 252
#
# _framework density 21.761469999999999
#
# number of rings (size 3 to 8) (size 9 to 14) (size 15 to 20)
#    0.000    3.000    0.000    3.300    0.000    4.800 
#    0.000    0.500    0.000    6.600    0.000    0.000 
#    0.000    2.400    0.000    0.000    0.000    0.000 
#
# Total GULP energy -223360.889682 kJ/mol
# GULP energy per Si atom -5584.022242 kJ/mol
# Density = 2.171194 g / cm^3
# Si number density = 21.761470 Si / 1000 Ang^3
#
#
#
# Elastic Constant Matrix: (Units=GPa)
#
#
# Indices 1 2 3 4 5 6 
#
# 1 176.6087 -4.9387 149.2021 0.0000 0.0000 0.0000
# 2 -4.9387 81.1395 14.5661 0.0000 0.0000 0.0000
# 3 149.2021 14.5661 289.6473 0.0000 0.0000 0.0000
# 4 0.0000 0.0000 0.0000 -19.1185 0.0000 0.0000
# 5 0.0000 0.0000 0.0000 0.0000 -10.1317 0.0000
# 6 0.0000 0.0000 0.0000 0.0000 0.0000 15.4649
#
#
#
# Elastic Compliance Matrix: (Units=1/GPa)
#
#
# Indices 1 2 3 4 5 6 
#
# 1 0.010222 0.001582 -0.005345 0.000000 0.000000 0.000000
# 2 0.001582 0.012681 -0.001453 0.000000 0.000000 0.000000
# 3 -0.005345 -0.001453 0.006279 0.000000 0.000000 0.000000
# 4 0.000000 0.000000 0.000000 -0.052305 0.000000 0.000000
# 5 0.000000 0.000000 0.000000 0.000000 -0.098700 0.000000
# 6 0.000000 0.000000 0.000000 0.000000 0.000000 0.064663
#
#
# Mechanical properties :
#
#
# Convention : Reuss Voigt Hill
#
# Bulk Modulus (GPa) = 53.33139 96.11716 74.72427
# Shear Modulus (GPa) = -123.52492 23.14732 -50.18880
#
# Velocity S-wave (km/s) = -7.54230 3.26495 -4.80762
# Velocity P-wave (km/s) = 7.16157 7.64707 1.89600
#
# Compressibility (1/GPa) = 0.01875068
#
# Stress axis : x y z
#
# Youngs Moduli (GPa) = 97.82704 78.85509 159.26402
#
# Poissons Ratio (x) = -0.12473 0.85129
# Poissons Ratio (y) = -0.15474 0.23134
# Poissons Ratio (z) = 0.52290 0.11454
#
# Static dielectric constant tensor:
#      x y z
#    x 1.714490 0.000000 0.000000 
#    y 0.000000 1.848340 0.000000 
#    z 0.000000 0.000000 1.791880 
# 
# From -- ./inp_files/69740.got.cif
#   From: 2010.05.17/outbox.cif.g08.bks.cpg/sg65_35_cif.got.tgz:69740.got - 2010.06.03 17:01:31.
