data_PCOD9485056
_publ_section_title
;
Structure prediction by ZEFSAII (Michael W. Deem and Ramdas Pophale) SiO2 
 PCOD9485056
Probable space group: C M M M
;
_chemical_formula_sum "Si O2"
_cell_formula_units_Z 104
_cell_length_a 24.017311
_cell_length_b 8.222560
_cell_length_c 29.503007
_cell_angle_alpha 90.000000
_cell_angle_beta 90.000000
_cell_angle_gamma 90.000000
_cell_volume 5826.365365
_symmetry_space_group_name_H-M "C M M M"
_symmetry_group_IT_number 65
_symmetry_cell_setting 'orthorhombic'
loop_
_space_group_symop_operation_xyz
x,y,z
-x,-y,z
x,-y,-z
-x,y,-z
-x,-y,-z
x,y,-z
-x,y,z
x,-y,z
1/2+x,1/2+y,z
1/2-x,1/2-y,z
1/2+x,1/2-y,-z
1/2-x,1/2+y,-z
1/2-x,1/2-y,-z
1/2+x,1/2+y,-z
1/2-x,1/2+y,z
1/2+x,1/2-y,z
loop_
_atom_site_type_symbol
_atom_site_label
_atom_site_fract_x
_atom_site_fract_y
_atom_site_fract_z
Si Si1 0.379881 0.696585 0.589004
Si Si2 0.814184 0.307523 0.500000
Si Si3 0.500000 0.301257 0.620684
Si Si4 0.314270 0.194664 0.851896
Si Si5 0.881643 0.196366 0.764936
Si Si6 0.000000 0.198731 0.726978
Si Si7 0.314498 0.803552 0.951365
Si Si8 0.686763 0.303787 0.677707
O O1 0.380454 0.500000 0.589225
O O2 0.347707 0.749694 0.544242
O O3 0.443710 0.751320 0.595423
O O4 0.346466 0.752791 0.633483
O O5 0.812917 0.500000 0.500000
O O6 0.750000 0.250000 0.500000
O O7 0.500000 0.500000 0.621236
O O8 0.500000 0.251627 0.673854
O O9 0.250000 0.250000 0.844873
O O10 0.354552 0.251140 0.812006
O O11 0.334639 0.252714 0.901884
O O12 0.313367 0.000000 0.852183
O O13 0.842575 0.253672 0.723641
O O14 0.944136 0.251355 0.752858
O O15 0.882219 0.000000 0.764276
O O16 0.000000 0.000000 0.726181
O O17 0.250000 0.750000 0.951867
O O18 0.317124 0.000000 0.951402
O O19 0.338920 0.747171 0.000000
O O20 0.684450 0.500000 0.677803
O O21 0.750000 0.250000 0.675752
#
# Coordination Sequence:
#
# PCOD9485056 Si02
#       8
#    16   8   8  16  16   8  16  16
#     4  10  20  37  61  85 107 136 173 212 251 295
#     4  12  26  43  60  81 111 142 172 210 255 306
#     4   9  16  33  62  87 106 131 173 216 248 293
#     4  10  19  30  45  69 102 135 168 208 253 304
#     4  10  19  32  51  74 100 132 167 208 254 301
#     4   9  16  32  56  78 100 131 172 213 250 295
#     4   8  14  25  41  61  88 125 166 206 249 297
#     4  10  20  32  50  75 102 132 167 204 244 294
#
# _framework density 17.849893999999999
#
# number of rings (size 3 to 8) (size 9 to 14) (size 15 to 20)
#    0.000    2.308    1.538    2.077    0.000    4.615 
#    0.000    2.308    0.000    0.923    0.000    0.538 
#    0.000    4.308    0.000    0.000    0.000    0.000 
#
# Total GULP energy -289895.223688 kJ/mol
# GULP energy per Si atom -5574.908148 kJ/mol
# Density = 1.780927 g / cm^3
# Si number density = 17.849894 Si / 1000 Ang^3
#
#
#
# Elastic Constant Matrix: (Units=GPa)
#
#
# Indices 1 2 3 4 5 6 
#
# 1 158.2342 17.6915 100.8553 0.0000 0.0000 0.0000
# 2 17.6915 13.3866 18.3722 0.0000 0.0000 0.0000
# 3 100.8553 18.3722 201.7174 0.0000 0.0000 0.0000
# 4 0.0000 0.0000 0.0000 18.9031 0.0000 0.0000
# 5 0.0000 0.0000 0.0000 0.0000 4.8452 0.0000
# 6 0.0000 0.0000 0.0000 0.0000 0.0000 18.7289
#
#
#
# Elastic Compliance Matrix: (Units=1/GPa)
#
#
# Indices 1 2 3 4 5 6 
#
# 1 0.009839 -0.007145 -0.004269 0.000000 0.000000 0.000000
# 2 -0.007145 0.090561 -0.004676 0.000000 0.000000 0.000000
# 3 -0.004269 -0.004676 0.007518 0.000000 0.000000 0.000000
# 4 0.000000 0.000000 0.000000 0.052901 0.000000 0.000000
# 5 0.000000 0.000000 0.000000 0.000000 0.206390 0.000000
# 6 0.000000 0.000000 0.000000 0.000000 0.000000 0.053394
#
#
# Mechanical properties :
#
#
# Convention : Reuss Voigt Hill
#
# Bulk Modulus (GPa) = 13.20323 71.90849 42.55586
# Shear Modulus (GPa) = 10.45961 24.25672 17.35817
#
# Velocity S-wave (km/s) = 2.42332 3.69036 3.12180
# Velocity P-wave (km/s) = 3.90421 7.65055 6.07346
#
# Compressibility (1/GPa) = 0.07573904
#
# Stress axis : x y z
#
# Youngs Moduli (GPa) = 101.63182 11.04225 133.02059
#
# Poissons Ratio (x) = 0.07890 0.56784
# Poissons Ratio (y) = 0.72615 0.62199
# Poissons Ratio (z) = 0.43385 0.05163
#
# Static dielectric constant tensor:
#      x y z
#    x 1.672080 0.000000 0.000000 
#    y 0.000000 1.642630 0.000000 
#    z 0.000000 0.000000 1.644540 
# 
# From -- ./inp_files/78397.got.cif
#   From: 2010.05.17/outbox.cif.g08.bks.cpg/sg65_40_cif.got.tgz:78397.got - 2010.06.03 17:01:31.
