data_PCOD9485553
_publ_section_title
;
Structure prediction by ZEFSAII (Michael W. Deem and Ramdas Pophale) SiO2 
 PCOD9485553
Probable space group: C M M M
;
_chemical_formula_sum "Si O2"
_cell_formula_units_Z 80
_cell_length_a 26.575183
_cell_length_b 20.819507
_cell_length_c 7.444122
_cell_angle_alpha 90.000000
_cell_angle_beta 90.000000
_cell_angle_gamma 90.000000
_cell_volume 4118.700260
_symmetry_space_group_name_H-M "C M M M"
_symmetry_group_IT_number 65
_symmetry_cell_setting 'orthorhombic'
loop_
_space_group_symop_operation_xyz
x,y,z
-x,-y,z
x,-y,-z
-x,y,-z
-x,-y,-z
x,y,-z
-x,y,z
x,-y,z
1/2+x,1/2+y,z
1/2-x,1/2-y,z
1/2+x,1/2-y,-z
1/2-x,1/2+y,-z
1/2-x,1/2-y,-z
1/2+x,1/2+y,-z
1/2-x,1/2+y,z
1/2+x,1/2-y,z
loop_
_atom_site_type_symbol
_atom_site_label
_atom_site_fract_x
_atom_site_fract_y
_atom_site_fract_z
Si Si1 0.283636 0.070992 0.783423
Si Si2 0.392004 0.725752 0.709898
Si Si3 0.000000 0.607480 0.205821
Si Si4 0.500000 0.741039 0.279743
Si Si5 0.391384 0.122158 0.218412
Si Si6 0.715393 0.307397 0.287383
O O1 0.340306 0.087903 0.722575
O O2 0.244740 0.126286 0.732441
O O3 0.269224 0.000000 0.721293
O O4 0.285388 0.070569 0.000000
O O5 0.393980 0.708501 0.500000
O O6 0.447615 0.710115 0.781658
O O7 0.387421 0.803219 0.725554
O O8 0.341191 0.695595 0.787779
O O9 0.000000 0.685518 0.211196
O O10 0.055339 0.592335 0.282739
O O11 0.000000 0.584403 0.000000
O O12 0.500000 0.744801 0.500000
O O13 0.393211 0.121110 0.000000
O O14 0.710056 0.294276 0.500000
O O15 0.750000 0.250000 0.212307
#
# Coordination Sequence:
#
# PCOD9485553 Si02
#       6
#    16  16   8   8  16  16
#     4  10  21  34  46  64  92 124 157 191 227 269
#     4   9  16  27  44  67  92 116 145 182 223 267
#     4   8  14  24  39  60  84 113 149 187 220 254
#     4   8  14  24  40  63  90 116 140 174 222 267
#     4   9  16  27  43  62  87 118 152 187 223 260
#     4  10  19  31  48  70  94 118 150 190 229 271
#
# _framework density 19.423601999999999
#
# number of rings (size 3 to 8) (size 9 to 14) (size 15 to 20)
#    0.000    2.800    2.000    0.000    0.000    1.600 
#    0.000    0.500    0.000    3.000    0.000    0.700 
#    0.000   15.200    0.000    0.000    0.000    0.000 
#
# Total GULP energy -222913.272545 kJ/mol
# GULP energy per Si atom -5572.831814 kJ/mol
# Density = 1.937939 g / cm^3
# Si number density = 19.423602 Si / 1000 Ang^3
#
#
#
# Elastic Constant Matrix: (Units=GPa)
#
#
# Indices 1 2 3 4 5 6 
#
# 1 212.5218 70.8870 6.7901 0.0000 0.0000 0.0000
# 2 70.8870 68.2381 -14.2995 0.0000 0.0000 0.0000
# 3 6.7901 -14.2995 60.4976 0.0000 0.0000 0.0000
# 4 0.0000 0.0000 0.0000 9.5944 0.0000 0.0000
# 5 0.0000 0.0000 0.0000 0.0000 -21.2204 0.0000
# 6 0.0000 0.0000 0.0000 0.0000 0.0000 6.4373
#
#
#
# Elastic Compliance Matrix: (Units=1/GPa)
#
#
# Indices 1 2 3 4 5 6 
#
# 1 0.007649 -0.008549 -0.002879 0.000000 0.000000 0.000000
# 2 -0.008549 0.024974 0.006862 0.000000 0.000000 0.000000
# 3 -0.002879 0.006862 0.018475 0.000000 0.000000 0.000000
# 4 0.000000 0.000000 0.000000 0.104227 0.000000 0.000000
# 5 0.000000 0.000000 0.000000 0.000000 -0.047124 0.000000
# 6 0.000000 0.000000 0.000000 0.000000 0.000000 0.155345
#
#
# Mechanical properties :
#
#
# Convention : Reuss Voigt Hill
#
# Bulk Modulus (GPa) = 23.82912 52.00141 37.91527
# Shear Modulus (GPa) = 17.44189 17.48758 17.46474
#
# Velocity S-wave (km/s) = 2.99987 3.00380 3.00184
# Velocity P-wave (km/s) = 4.92887 6.23384 5.61937
#
# Compressibility (1/GPa) = 0.04196546
#
# Stress axis : x y z
#
# Youngs Moduli (GPa) = 130.73554 40.04196 54.12776
#
# Poissons Ratio (x) = 0.34233 0.15585
# Poissons Ratio (y) = 1.11770 -0.37145
# Poissons Ratio (z) = 0.37642 -0.27479
#
# Static dielectric constant tensor:
#      x y z
#    x 1.758820 0.000000 0.000000 
#    y 0.000000 1.621300 0.000000 
#    z 0.000000 0.000000 1.534960 
# 
# From -- ./inp_files/9705.got.cif
#   From: 2010.05.17/outbox.cif.g08.bks.cpg/sg65_5_cif.got.tgz:9705.got - 2010.06.03 17:01:31.
