data_PCOD9485775
_publ_section_title
;
Structure prediction by ZEFSAII (Michael W. Deem and Ramdas Pophale) SiO2 
 PCOD9485775
Probable space group: C M M M
;
_chemical_formula_sum "Si O2"
_cell_formula_units_Z 116
_cell_length_a 27.996372
_cell_length_b 7.564705
_cell_length_c 27.063091
_cell_angle_alpha 90.000000
_cell_angle_beta 90.000000
_cell_angle_gamma 90.000000
_cell_volume 5731.537655
_symmetry_space_group_name_H-M "C M M M"
_symmetry_group_IT_number 65
_symmetry_cell_setting 'orthorhombic'
loop_
_space_group_symop_operation_xyz
x,y,z
-x,-y,z
x,-y,-z
-x,y,-z
-x,-y,-z
x,y,-z
-x,y,z
x,-y,z
1/2+x,1/2+y,z
1/2-x,1/2-y,z
1/2+x,1/2-y,-z
1/2-x,1/2+y,-z
1/2-x,1/2-y,-z
1/2+x,1/2+y,-z
1/2-x,1/2+y,z
1/2+x,1/2-y,z
loop_
_atom_site_type_symbol
_atom_site_label
_atom_site_fract_x
_atom_site_fract_y
_atom_site_fract_z
Si Si1 0.694397 0.711525 0.808259
Si Si2 0.145060 0.208198 0.289293
Si Si3 0.657676 0.705736 0.915390
Si Si4 0.803828 0.709645 0.612162
Si Si5 0.603331 0.213293 0.555177
Si Si6 0.677382 0.000000 0.000000
Si Si7 0.946796 0.285934 0.941652
Si Si8 0.052442 0.788968 0.655013
O O1 0.688774 0.500000 0.808095
O O2 0.750000 0.750000 0.801235
O O3 0.664322 0.783977 0.761980
O O4 0.677052 0.767372 0.862327
O O5 0.184002 0.222737 0.332978
O O6 0.096028 0.283642 0.312057
O O7 0.136877 0.000000 0.281296
O O8 0.672306 0.500000 0.924744
O O9 0.599707 0.711299 0.915402
O O10 0.674358 0.843122 0.957016
O O11 0.808947 0.500000 0.614452
O O12 0.750000 0.750000 0.597178
O O13 0.844966 0.776581 0.575227
O O14 0.593151 0.278115 0.500000
O O15 0.566070 0.261256 0.597783
O O16 0.604707 0.000000 0.553175
O O17 0.944265 0.500000 0.939085
O O18 0.000000 0.232163 0.924814
O O19 0.942893 0.240850 0.000000
O O20 0.000000 0.717161 0.666100
O O21 0.051253 0.000000 0.662666
#
# Coordination Sequence:
#
# PCOD9485775 Si02
#       8
#    16  16  16  16  16   4  16  16
#     4  10  23  39  60  84 111 142 182 227 275 336
#     4   9  18  36  57  81 108 140 178 225 277 333
#     4  11  22  38  60  87 118 151 198 239 281 343
#     4  10  19  31  49  75 103 135 182 229 280 340
#     4   9  19  34  49  69 103 146 189 233 278 328
#     4  12  22  40  63  84 118 166 186 238 295 326
#     4   9  16  30  54  82 111 146 185 224 271 323
#     4   9  18  33  55  81 110 144 182 227 279 333
#
# _framework density 20.238896
#
# number of rings (size 3 to 8) (size 9 to 14) (size 15 to 20)
#    0.000    2.345    1.379    1.448    0.966    3.586 
#    0.000    3.103    0.000    2.483    0.000    0.000 
#    0.000    0.000    0.000    0.000    0.000    0.000 
#
# Total GULP energy -323083.158180 kJ/mol
# GULP energy per Si atom -5570.399279 kJ/mol
# Density = 2.019283 g / cm^3
# Si number density = 20.238896 Si / 1000 Ang^3
#
#
#
# Elastic Constant Matrix: (Units=GPa)
#
#
# Indices 1 2 3 4 5 6 
#
# 1 90.7098 1.2058 45.1384 0.0000 0.0000 0.0000
# 2 1.2058 72.7994 25.1596 0.0000 0.0000 0.0000
# 3 45.1384 25.1596 131.1453 0.0000 0.0000 0.0000
# 4 0.0000 0.0000 0.0000 20.1809 0.0000 0.0000
# 5 0.0000 0.0000 0.0000 0.0000 -3.0671 0.0000
# 6 0.0000 0.0000 0.0000 0.0000 0.0000 12.5962
#
#
#
# Elastic Compliance Matrix: (Units=1/GPa)
#
#
# Indices 1 2 3 4 5 6 
#
# 1 0.013449 0.001475 -0.004912 0.000000 0.000000 0.000000
# 2 0.001475 0.014874 -0.003361 0.000000 0.000000 0.000000
# 3 -0.004912 -0.003361 0.009961 0.000000 0.000000 0.000000
# 4 0.000000 0.000000 0.000000 0.049552 0.000000 0.000000
# 5 0.000000 0.000000 0.000000 0.000000 -0.326043 0.000000
# 6 0.000000 0.000000 0.000000 0.000000 0.000000 0.079389
#
#
# Mechanical properties :
#
#
# Convention : Reuss Voigt Hill
#
# Bulk Modulus (GPa) = 40.50769 48.62914 44.56842
# Shear Modulus (GPa) = -36.49785 20.81871 -7.83957
#
# Velocity S-wave (km/s) = -4.25120 3.21073 -1.97026
# Velocity P-wave (km/s) = 2.00964 6.15019 4.11012
#
# Compressibility (1/GPa) = 0.02468667
#
# Stress axis : x y z
#
# Youngs Moduli (GPa) = 74.35638 67.23355 100.39652
#
# Poissons Ratio (x) = -0.09915 0.49313
# Poissons Ratio (y) = -0.10966 0.33743
# Poissons Ratio (z) = 0.36522 0.22597
#
# Static dielectric constant tensor:
#      x y z
#    x 1.741280 0.000000 0.000000 
#    y 0.000000 1.772740 0.000000 
#    z 0.000000 0.000000 1.698750 
# 
# From -- ./inp_files/76297.got.cif
#   From: 2010.05.17/outbox.cif.g08.bks.cpg/sg65_39_cif.got.tgz:76297.got - 2010.06.03 17:01:31.
