data_PCOD9485214
_publ_section_title
;
Structure prediction by ZEFSAII (Michael W. Deem and Ramdas Pophale) SiO2 
 PCOD9485214
Probable space group: C M M M
;
_chemical_formula_sum "Si O2"
_cell_formula_units_Z 104
_cell_length_a 20.720255
_cell_length_b 7.611973
_cell_length_c 30.734732
_cell_angle_alpha 90.000000
_cell_angle_beta 90.000000
_cell_angle_gamma 90.000000
_cell_volume 4847.544065
_symmetry_space_group_name_H-M "C M M M"
_symmetry_group_IT_number 65
_symmetry_cell_setting 'orthorhombic'
loop_
_space_group_symop_operation_xyz
x,y,z
-x,-y,z
x,-y,-z
-x,y,-z
-x,-y,-z
x,y,-z
-x,y,z
x,-y,z
1/2+x,1/2+y,z
1/2-x,1/2-y,z
1/2+x,1/2-y,-z
1/2-x,1/2+y,-z
1/2-x,1/2-y,-z
1/2+x,1/2+y,-z
1/2-x,1/2+y,z
1/2+x,1/2-y,z
loop_
_atom_site_type_symbol
_atom_site_label
_atom_site_fract_x
_atom_site_fract_y
_atom_site_fract_z
Si Si1 0.927214 0.714261 0.949730
Si Si2 0.425983 0.214607 0.804228
Si Si3 0.826531 0.288899 0.122377
Si Si4 0.682678 0.294128 0.360625
Si Si5 0.500000 0.304415 0.447674
Si Si6 0.070835 0.709758 0.294524
Si Si7 0.641906 0.716250 0.549060
O O1 0.927162 0.500000 0.948935
O O2 0.868383 0.773583 0.919309
O O3 0.000000 0.767148 0.935320
O O4 0.919166 0.767645 0.000000
O O5 0.500000 0.265688 0.816320
O O6 0.369034 0.273687 0.836265
O O7 0.414363 0.272873 0.754435
O O8 0.425729 0.000000 0.805163
O O9 0.830449 0.500000 0.122363
O O10 0.750000 0.250000 0.122578
O O11 0.679638 0.500000 0.366637
O O12 0.750000 0.250000 0.338535
O O13 0.623470 0.245897 0.330551
O O14 0.681302 0.217883 0.409596
O O15 0.500000 0.500000 0.427840
O O16 0.500000 0.322386 0.500000
O O17 0.569068 0.223100 0.439082
O O18 0.066907 0.500000 0.290872
O O19 0.000000 0.776965 0.307319
O O20 0.659601 0.773527 0.500000
O O21 0.640710 0.500000 0.547214
#
# Coordination Sequence:
#
# PCOD9485214 Si02
#       7
#    16  16  16  16   8  16  16
#     4   8  14  26  46  71  96 126 170 219 256 288
#     4   8  15  31  55  77  95 124 168 210 247 293
#     4  10  19  30  47  73 103 133 166 205 250 301
#     4  11  23  36  53  77 107 139 173 209 249 301
#     4   7  10  20  40  66  93 117 147 191 237 277
#     4   9  19  37  59  80 103 131 165 210 262 310
#     4   8  15  28  47  72 100 130 164 203 246 292
#
# _framework density 21.454162
#
# number of rings (size 3 to 8) (size 9 to 14) (size 15 to 20)
#    0.000    3.154    0.000    3.231    1.077    3.385 
#    0.000    2.308    0.000    4.154    0.000    2.154 
#    0.000    0.000    0.000    0.000    0.000    0.000 
#
# Total GULP energy -289759.770584 kJ/mol
# GULP energy per Si atom -5572.303280 kJ/mol
# Density = 2.140533 g / cm^3
# Si number density = 21.454162 Si / 1000 Ang^3
#
#
#
# Elastic Constant Matrix: (Units=GPa)
#
#
# Indices 1 2 3 4 5 6 
#
# 1 197.0101 1.3730 119.3150 0.0000 0.0000 0.0000
# 2 1.3730 41.9181 9.5155 0.0000 0.0000 0.0000
# 3 119.3150 9.5155 138.8208 0.0000 0.0000 0.0000
# 4 0.0000 0.0000 0.0000 0.0458 0.0000 0.0000
# 5 0.0000 0.0000 0.0000 0.0000 -26.1881 0.0000
# 6 0.0000 0.0000 0.0000 0.0000 0.0000 14.2995
#
#
#
# Elastic Compliance Matrix: (Units=1/GPa)
#
#
# Indices 1 2 3 4 5 6 
#
# 1 0.010714 0.001767 -0.009329 0.000000 0.000000 0.000000
# 2 0.001767 0.024524 -0.003200 0.000000 0.000000 0.000000
# 3 -0.009329 -0.003200 0.015441 0.000000 0.000000 0.000000
# 4 0.000000 0.000000 0.000000 21.822963 0.000000 0.000000
# 5 0.000000 0.000000 0.000000 0.000000 -0.038185 0.000000
# 6 0.000000 0.000000 0.000000 0.000000 0.000000 0.069932
#
#
# Mechanical properties :
#
#
# Convention : Reuss Voigt Hill
#
# Bulk Modulus (GPa) = 34.29923 70.90625 52.60274
# Shear Modulus (GPa) = 0.22793 14.13448 7.18120
#
# Velocity S-wave (km/s) = 0.32630 2.56954 1.83153
# Velocity P-wave (km/s) = 4.02043 6.47497 5.38930
#
# Compressibility (1/GPa) = 0.02915518
#
# Stress axis : x y z
#
# Youngs Moduli (GPa) = 93.33777 40.77560 64.76076
#
# Poissons Ratio (x) = -0.07205 0.60418
# Poissons Ratio (y) = -0.16492 0.20721
# Poissons Ratio (z) = 0.87079 0.13047
#
# Static dielectric constant tensor:
#      x y z
#    x 1.791140 0.000000 0.000000 
#    y 0.000000 1.874220 0.000000 
#    z 0.000000 0.000000 1.789020 
# 
# From -- ./inp_files/78230.got.cif
#   From: 2010.05.17/outbox.cif.g08.bks.cpg/sg65_40_cif.got.tgz:78230.got - 2010.06.03 17:01:31.
