data_PCOD9485592
_publ_section_title
;
Structure prediction by ZEFSAII (Michael W. Deem and Ramdas Pophale) SiO2 
 PCOD9485592
Probable space group: C M M M
;
_chemical_formula_sum "Si O2"
_cell_formula_units_Z 88
_cell_length_a 8.680033
_cell_length_b 19.565337
_cell_length_c 29.777907
_cell_angle_alpha 90.000000
_cell_angle_beta 90.000000
_cell_angle_gamma 90.000000
_cell_volume 5057.115565
_symmetry_space_group_name_H-M "C M M M"
_symmetry_group_IT_number 65
_symmetry_cell_setting 'orthorhombic'
loop_
_space_group_symop_operation_xyz
x,y,z
-x,-y,z
x,-y,-z
-x,y,-z
-x,-y,-z
x,y,-z
-x,y,z
x,-y,z
1/2+x,1/2+y,z
1/2-x,1/2-y,z
1/2+x,1/2-y,-z
1/2-x,1/2+y,-z
1/2-x,1/2-y,-z
1/2+x,1/2+y,-z
1/2-x,1/2+y,z
1/2+x,1/2-y,z
loop_
_atom_site_type_symbol
_atom_site_label
_atom_site_fract_x
_atom_site_fract_y
_atom_site_fract_z
Si Si1 0.815821 0.420145 0.129120
Si Si2 0.685866 0.172814 0.403405
Si Si3 0.315564 0.420227 0.225793
Si Si4 0.686484 0.172306 0.500000
Si Si5 0.684518 0.673991 0.051101
Si Si6 0.814700 0.672873 0.304773
O O1 0.774324 0.500000 0.122980
O O2 0.747554 0.398119 0.177149
O O3 0.751070 0.376075 0.088395
O O4 0.000000 0.414599 0.130673
O O5 0.500000 0.175185 0.403490
O O6 0.750000 0.250000 0.403680
O O7 0.734271 0.141319 0.451625
O O8 0.731369 0.144739 0.354516
O O9 0.500000 0.416005 0.225621
O O10 0.270970 0.500000 0.232019
O O11 0.248920 0.374125 0.265351
O O12 0.500000 0.174752 0.500000
O O13 0.750000 0.250000 0.500000
O O14 0.500000 0.675843 0.054233
O O15 0.750000 0.750000 0.058050
O O16 0.726331 0.653027 0.000000
O O17 0.750000 0.750000 0.300768
O O18 0.000000 0.675504 0.302485
#
# Coordination Sequence:
#
# PCOD9485592 Si02
#       6
#    16  16  16   8  16  16
#     4  10  21  37  57  80 105 133 167 208 251 296
#     4   8  14  23  37  59  88 121 154 192 236 284
#     4  10  21  37  55  74  98 129 166 208 253 300
#     4   8  12  20  34  54  83 118 153 187 231 283
#     4  10  21  37  57  81 110 142 174 208 246 290
#     4  10  19  31  48  72 101 130 163 203 247 295
#
# _framework density 17.401223000000002
#
# number of rings (size 3 to 8) (size 9 to 14) (size 15 to 20)
#    0.000    2.545    0.000    2.182    0.000    5.091 
#    0.000    5.455    0.000    0.000    0.000    0.636 
#    0.000    5.091    0.000    0.000    0.000    0.364 
#
# Total GULP energy -245123.254192 kJ/mol
# GULP energy per Si atom -5570.983050 kJ/mol
# Density = 1.736162 g / cm^3
# Si number density = 17.401223 Si / 1000 Ang^3
#
#
#
# Elastic Constant Matrix: (Units=GPa)
#
#
# Indices 1 2 3 4 5 6 
#
# 1 36.6309 24.2252 52.6737 0.0000 0.0000 0.0000
# 2 24.2252 45.5932 83.5392 0.0000 0.0000 0.0000
# 3 52.6737 83.5392 227.7985 0.0000 0.0000 0.0000
# 4 0.0000 0.0000 0.0000 -31.6849 0.0000 0.0000
# 5 0.0000 0.0000 0.0000 0.0000 21.4941 0.0000
# 6 0.0000 0.0000 0.0000 0.0000 0.0000 21.6946
#
#
#
# Elastic Compliance Matrix: (Units=1/GPa)
#
#
# Indices 1 2 3 4 5 6 
#
# 1 0.043782 -0.014368 -0.004855 0.000000 0.000000 0.000000
# 2 -0.014368 0.071572 -0.022925 0.000000 0.000000 0.000000
# 3 -0.004855 -0.022925 0.013920 0.000000 0.000000 0.000000
# 4 0.000000 0.000000 0.000000 -0.031561 0.000000 0.000000
# 5 0.000000 0.000000 0.000000 0.000000 0.046524 0.000000
# 6 0.000000 0.000000 0.000000 0.000000 0.000000 0.046095
#
#
# Mechanical properties :
#
#
# Convention : Reuss Voigt Hill
#
# Bulk Modulus (GPa) = 22.23272 70.09986 46.16629
# Shear Modulus (GPa) = 17.26401 12.27305 14.76853
#
# Velocity S-wave (km/s) = 3.15320 2.65863 2.91642
# Velocity P-wave (km/s) = 5.10501 7.05665 6.15863
#
# Compressibility (1/GPa) = 0.04497876
#
# Stress axis : x y z
#
# Youngs Moduli (GPa) = 22.84038 13.97191 71.84153
#
# Poissons Ratio (x) = 0.20075 0.34876
# Poissons Ratio (y) = 0.32817 1.64697
# Poissons Ratio (z) = 0.11088 0.32031
#
# Static dielectric constant tensor:
#      x y z
#    x 1.593910 0.000000 0.000000 
#    y 0.000000 1.555210 0.000000 
#    z 0.000000 0.000000 1.633910 
# 
# From -- ./inp_files/67470.got.cif
#   From: 2010.05.17/outbox.cif.g08.bks.cpg/sg65_34_cif.got.tgz:67470.got - 2010.06.03 17:01:31.
