data_PCOD9485693
_publ_section_title
;
Structure prediction by ZEFSAII (Michael W. Deem and Ramdas Pophale) SiO2 
 PCOD9485693
Probable space group: C M M M
;
_chemical_formula_sum "Si O2"
_cell_formula_units_Z 72
_cell_length_a 14.779140
_cell_length_b 9.133938
_cell_length_c 24.662428
_cell_angle_alpha 90.000000
_cell_angle_beta 90.000000
_cell_angle_gamma 90.000000
_cell_volume 3329.224277
_symmetry_space_group_name_H-M "C M M M"
_symmetry_group_IT_number 65
_symmetry_cell_setting 'orthorhombic'
loop_
_space_group_symop_operation_xyz
x,y,z
-x,-y,z
x,-y,-z
-x,y,-z
-x,-y,-z
x,y,-z
-x,y,z
x,-y,z
1/2+x,1/2+y,z
1/2-x,1/2-y,z
1/2+x,1/2-y,-z
1/2-x,1/2+y,-z
1/2-x,1/2-y,-z
1/2+x,1/2+y,-z
1/2-x,1/2+y,z
1/2+x,1/2-y,z
loop_
_atom_site_type_symbol
_atom_site_label
_atom_site_fract_x
_atom_site_fract_y
_atom_site_fract_z
Si Si1 0.605995 0.837074 0.715037
Si Si2 0.150902 0.176247 0.941593
Si Si3 0.651601 0.324015 0.175916
Si Si4 0.610570 0.167275 0.500000
Si Si5 0.389004 0.332616 0.609291
O O1 0.500000 0.854436 0.703450
O O2 0.610955 0.745603 0.770265
O O3 0.642730 0.750830 0.663200
O O4 0.646300 0.000000 0.721732
O O5 0.250000 0.250000 0.941951
O O6 0.108239 0.212279 0.883055
O O7 0.161253 0.000000 0.941236
O O8 0.107948 0.215368 0.000000
O O9 0.655251 0.500000 0.180954
O O10 0.750000 0.250000 0.173526
O O11 0.500000 0.165330 0.500000
O O12 0.638241 0.250182 0.445449
O O13 0.641777 0.000000 0.500000
O O14 0.500000 0.335051 0.609721
O O15 0.358294 0.500000 0.609326
#
# Coordination Sequence:
#
# PCOD9485693 Si02
#       5
#    16  16  16   8  16
#     4  10  20  33  48  67  94 127 161 197 238 283
#     4   8  14  25  42  65  91 117 147 186 231 276
#     4  10  19  31  49  72  97 124 156 194 235 281
#     4   9  15  23  37  59  88 119 150 187 232 277
#     4   9  16  26  41  62  88 118 153 192 234 279
#
# _framework density 21.626657999999999
#
# number of rings (size 3 to 8) (size 9 to 14) (size 15 to 20)
#    0.000    2.778    0.000    2.333    0.000    6.222 
#    0.000    0.000    0.000    0.667    0.000    5.444 
#    0.000    0.000    0.000    0.000    0.000    0.000 
#
# Total GULP energy -200723.212303 kJ/mol
# GULP energy per Si atom -5575.644786 kJ/mol
# Density = 2.157743 g / cm^3
# Si number density = 21.626658 Si / 1000 Ang^3
#
#
#
# Elastic Constant Matrix: (Units=GPa)
#
#
# Indices 1 2 3 4 5 6 
#
# 1 45.0370 9.4216 9.4859 0.0000 0.0000 0.0000
# 2 9.4216 154.0553 118.7525 0.0000 0.0000 0.0000
# 3 9.4859 118.7525 264.2909 0.0000 0.0000 0.0000
# 4 0.0000 0.0000 0.0000 35.8952 0.0000 0.0000
# 5 0.0000 0.0000 0.0000 0.0000 -1.6803 0.0000
# 6 0.0000 0.0000 0.0000 0.0000 0.0000 9.0351
#
#
#
# Elastic Compliance Matrix: (Units=1/GPa)
#
#
# Indices 1 2 3 4 5 6 
#
# 1 0.022506 -0.001153 -0.000290 0.000000 0.000000 0.000000
# 2 -0.001153 0.009990 -0.004447 0.000000 0.000000 0.000000
# 3 -0.000290 -0.004447 0.005792 0.000000 0.000000 0.000000
# 4 0.000000 0.000000 0.000000 0.027859 0.000000 0.000000
# 5 0.000000 0.000000 0.000000 0.000000 -0.595141 0.000000
# 6 0.000000 0.000000 0.000000 0.000000 0.000000 0.110680
#
#
# Mechanical properties :
#
#
# Convention : Reuss Voigt Hill
#
# Bulk Modulus (GPa) = 37.72409 82.07813 59.90111
# Shear Modulus (GPa) = -12.57235 30.36488 8.89627
#
# Velocity S-wave (km/s) = -2.41371 3.75113 2.03039
# Velocity P-wave (km/s) = 3.11661 7.53631 5.76668
#
# Compressibility (1/GPa) = 0.02650826
#
# Stress axis : x y z
#
# Youngs Moduli (GPa) = 44.43218 100.10126 172.64011
#
# Poissons Ratio (x) = 0.11543 0.05001
# Poissons Ratio (y) = 0.05124 0.76779
# Poissons Ratio (z) = 0.01287 0.44518
#
# Static dielectric constant tensor:
#      x y z
#    x 1.855480 0.000000 0.000000 
#    y 0.000000 1.748950 0.000000 
#    z 0.000000 0.000000 1.816240 
# 
# From -- ./inp_files/64289.got.cif
#   From: 2010.05.17/outbox.cif.g08.bks.cpg/sg65_33_cif.got.tgz:64289.got - 2010.06.03 17:01:31.
