data_PCOD9485662
_publ_section_title
;
Structure prediction by ZEFSAII (Michael W. Deem and Ramdas Pophale) SiO2 
 PCOD9485662
Probable space group: C M M M
;
_chemical_formula_sum "Si O2"
_cell_formula_units_Z 128
_cell_length_a 23.516803
_cell_length_b 17.255180
_cell_length_c 17.119897
_cell_angle_alpha 90.000000
_cell_angle_beta 90.000000
_cell_angle_gamma 90.000000
_cell_volume 6947.025974
_symmetry_space_group_name_H-M "C M M M"
_symmetry_group_IT_number 65
_symmetry_cell_setting 'orthorhombic'
loop_
_space_group_symop_operation_xyz
x,y,z
-x,-y,z
x,-y,-z
-x,y,-z
-x,-y,-z
x,y,-z
-x,y,z
x,-y,z
1/2+x,1/2+y,z
1/2-x,1/2-y,z
1/2+x,1/2-y,-z
1/2-x,1/2+y,-z
1/2-x,1/2-y,-z
1/2+x,1/2+y,-z
1/2-x,1/2+y,z
1/2+x,1/2-y,z
loop_
_atom_site_type_symbol
_atom_site_label
_atom_site_fract_x
_atom_site_fract_y
_atom_site_fract_z
Si Si1 0.062434 0.368565 0.237124
Si Si2 0.327078 0.408149 0.253215
Si Si3 0.720786 0.826138 0.185194
Si Si4 0.875868 0.590470 0.088720
Si Si5 0.656988 0.159159 0.341872
Si Si6 0.935522 0.228023 0.412954
Si Si7 0.062459 0.819545 0.246722
Si Si8 0.229568 0.906649 0.586781
O O1 0.073429 0.397469 0.150061
O O2 0.112402 0.395596 0.295173
O O3 0.065962 0.273881 0.235865
O O4 0.000000 0.390447 0.264445
O O5 0.337215 0.500000 0.252944
O O6 0.269724 0.387339 0.206668
O O7 0.381458 0.363188 0.218987
O O8 0.311773 0.382563 0.342470
O O9 0.750000 0.750000 0.152454
O O10 0.675223 0.861146 0.126664
O O11 0.690064 0.802935 0.267529
O O12 0.860578 0.500000 0.088864
O O13 0.888725 0.613712 0.000000
O O14 0.615882 0.213465 0.393062
O O15 0.706776 0.121060 0.391916
O O16 0.928679 0.196308 0.500000
O O17 0.936520 0.169201 0.340779
O O18 0.000000 0.264244 0.410051
O O19 0.000000 0.844124 0.217197
O O20 0.213761 0.878652 0.500000
O O21 0.229539 0.000000 0.586591
#
# Coordination Sequence:
#
# PCOD9485662 Si02
#       8
#    16  16  16  16  16  16  16  16
#     4   9  18  33  52  71  95 128 162 195 233 280
#     4  10  19  31  49  71  94 124 161 200 242 288
#     4  10  19  33  52  72  97 128 160 195 235 281
#     4  10  21  35  51  75 106 133 157 190 231 276
#     4   9  16  27  46  67  88 117 158 202 242 279
#     4   9  16  26  42  63  87 117 155 200 244 283
#     4   9  18  33  50  69  94 124 159 200 244 287
#     4   9  18  30  42  60  90 126 160 197 243 292
#
# _framework density 18.425151
#
# number of rings (size 3 to 8) (size 9 to 14) (size 15 to 20)
#    0.000    2.625    0.000    4.125    0.000    4.500 
#    0.000    0.625    0.000    7.500    0.000    7.875 
#    0.000    0.000    0.000    9.125    0.000    0.125 
#
# Total GULP energy -356397.309687 kJ/mol
# GULP energy per Si atom -5568.707964 kJ/mol
# Density = 1.838321 g / cm^3
# Si number density = 18.425151 Si / 1000 Ang^3
#
#
#
# Elastic Constant Matrix: (Units=GPa)
#
#
# Indices 1 2 3 4 5 6 
#
# 1 98.1260 11.6870 -11.7753 0.0000 0.0000 0.0000
# 2 11.6870 30.0634 -1.4963 0.0000 0.0000 0.0000
# 3 -11.7753 -1.4963 36.3983 0.0000 0.0000 0.0000
# 4 0.0000 0.0000 0.0000 14.1395 0.0000 0.0000
# 5 0.0000 0.0000 0.0000 0.0000 11.4619 0.0000
# 6 0.0000 0.0000 0.0000 0.0000 0.0000 5.1133
#
#
#
# Elastic Compliance Matrix: (Units=1/GPa)
#
#
# Indices 1 2 3 4 5 6 
#
# 1 0.011095 -0.004143 0.003419 0.000000 0.000000 0.000000
# 2 -0.004143 0.034878 0.000094 0.000000 0.000000 0.000000
# 3 0.003419 0.000094 0.028584 0.000000 0.000000 0.000000
# 4 0.000000 0.000000 0.000000 0.070724 0.000000 0.000000
# 5 0.000000 0.000000 0.000000 0.000000 0.087245 0.000000
# 6 0.000000 0.000000 0.000000 0.000000 0.000000 0.195568
#
#
# Mechanical properties :
#
#
# Convention : Reuss Voigt Hill
#
# Bulk Modulus (GPa) = 13.64331 17.93538 15.78934
# Shear Modulus (GPa) = 11.01839 17.22109 14.11974
#
# Velocity S-wave (km/s) = 2.44807 3.06052 2.77127
# Velocity P-wave (km/s) = 3.92575 4.71640 4.33912
#
# Compressibility (1/GPa) = 0.07329602
#
# Stress axis : x y z
#
# Youngs Moduli (GPa) = 90.13325 28.67120 34.98497
#
# Poissons Ratio (x) = 0.11878 -0.11961
# Poissons Ratio (y) = 0.37341 -0.00327
# Poissons Ratio (z) = -0.30816 -0.00268
#
# Static dielectric constant tensor:
#      x y z
#    x 1.679510 0.000000 0.000000 
#    y 0.000000 1.648720 0.000000 
#    z 0.000000 0.000000 1.649430 
# 
# From -- ./inp_files/56974.got.cif
#   From: 2010.05.17/outbox.cif.g08.bks.cpg/sg65_29_cif.got.tgz:56974.got - 2010.06.03 17:01:31.
