data_PCOD9485192
_publ_section_title
;
Structure prediction by ZEFSAII (Michael W. Deem and Ramdas Pophale) SiO2 
 PCOD9485192
Probable space group: C M M M
;
_chemical_formula_sum "Si O2"
_cell_formula_units_Z 104
_cell_length_a 28.299220
_cell_length_b 8.178321
_cell_length_c 28.386642
_cell_angle_alpha 90.000000
_cell_angle_beta 90.000000
_cell_angle_gamma 90.000000
_cell_volume 6569.807411
_symmetry_space_group_name_H-M "C M M M"
_symmetry_group_IT_number 65
_symmetry_cell_setting 'orthorhombic'
loop_
_space_group_symop_operation_xyz
x,y,z
-x,-y,z
x,-y,-z
-x,y,-z
-x,-y,-z
x,y,-z
-x,y,z
x,-y,z
1/2+x,1/2+y,z
1/2-x,1/2-y,z
1/2+x,1/2-y,-z
1/2-x,1/2+y,-z
1/2-x,1/2-y,-z
1/2+x,1/2+y,-z
1/2-x,1/2+y,z
1/2+x,1/2-y,z
loop_
_atom_site_type_symbol
_atom_site_label
_atom_site_fract_x
_atom_site_fract_y
_atom_site_fract_z
Si Si1 0.803432 0.195662 0.053392
Si Si2 0.858915 0.304991 0.143528
Si Si3 0.946213 0.806140 0.198381
Si Si4 0.394256 0.807018 0.291152
Si Si5 0.556645 0.314655 0.616046
Si Si6 0.557307 0.000000 0.446130
Si Si7 0.803360 0.696691 0.235953
O O1 0.750000 0.250000 0.064860
O O2 0.838672 0.259312 0.092963
O O3 0.804802 0.000000 0.053556
O O4 0.813804 0.253552 0.000000
O O5 0.862217 0.500000 0.147312
O O6 0.909764 0.232620 0.156668
O O7 0.822980 0.246774 0.184922
O O8 0.926614 0.717625 0.244959
O O9 0.000000 0.757495 0.188320
O O10 0.945127 0.000000 0.207690
O O11 0.416245 0.712441 0.334958
O O12 0.342093 0.750521 0.274653
O O13 0.392857 0.000000 0.302582
O O14 0.500000 0.299660 0.624323
O O15 0.565108 0.500000 0.598320
O O16 0.570715 0.166426 0.581288
O O17 0.500000 0.000000 0.447285
O O18 0.574235 0.000000 0.500000
O O19 0.804564 0.500000 0.235568
O O20 0.750000 0.750000 0.244185
#
# Coordination Sequence:
#
# PCOD9485192 Si02
#       7
#    16  16  16  16  16   8  16
#     4  10  20  33  50  72  96 121 151 191 236 283
#     4  10  20  33  49  69  93 124 159 191 235 285
#     4  10  20  32  47  69  95 124 161 200 237 281
#     4  10  19  31  46  67  97 131 164 201 240 285
#     4  10  19  30  47  71  97 131 170 204 243 290
#     4   9  18  32  48  68  98 134 166 204 251 289
#     4   9  19  31  44  65  93 126 158 191 232 283
#
# _framework density 15.829993
#
# number of rings (size 3 to 8) (size 9 to 14) (size 15 to 20)
#    0.000    2.231    0.769    3.692    0.000    9.231 
#    0.000    1.538    0.000    0.462    0.000    3.231 
#    0.000    0.615    0.308    0.000    0.000    0.000 
#
# Total GULP energy -289995.697263 kJ/mol
# GULP energy per Si atom -5576.840332 kJ/mol
# Density = 1.579396 g / cm^3
# Si number density = 15.829993 Si / 1000 Ang^3
#
#
#
# Elastic Constant Matrix: (Units=GPa)
#
#
# Indices 1 2 3 4 5 6 
#
# 1 105.5280 28.7462 50.6619 0.0000 0.0000 0.0000
# 2 28.7462 60.7148 27.2348 0.0000 0.0000 0.0000
# 3 50.6619 27.2348 87.8674 0.0000 0.0000 0.0000
# 4 0.0000 0.0000 0.0000 17.4270 0.0000 0.0000
# 5 0.0000 0.0000 0.0000 0.0000 18.4586 0.0000
# 6 0.0000 0.0000 0.0000 0.0000 0.0000 22.4557
#
#
#
# Elastic Compliance Matrix: (Units=1/GPa)
#
#
# Indices 1 2 3 4 5 6 
#
# 1 0.013687 -0.003415 -0.006833 0.000000 0.000000 0.000000
# 2 -0.003415 0.019982 -0.004225 0.000000 0.000000 0.000000
# 3 -0.006833 -0.004225 0.016630 0.000000 0.000000 0.000000
# 4 0.000000 0.000000 0.000000 0.057382 0.000000 0.000000
# 5 0.000000 0.000000 0.000000 0.000000 0.054175 0.000000
# 6 0.000000 0.000000 0.000000 0.000000 0.000000 0.044532
#
#
# Mechanical properties :
#
#
# Convention : Reuss Voigt Hill
#
# Bulk Modulus (GPa) = 46.82989 51.93291 49.38140
# Shear Modulus (GPa) = 20.62267 21.49942 21.06105
#
# Velocity S-wave (km/s) = 3.61329 3.68930 3.65149
# Velocity P-wave (km/s) = 6.85967 7.14323 7.00289
#
# Compressibility (1/GPa) = 0.02135388
#
# Stress axis : x y z
#
# Youngs Moduli (GPa) = 73.06316 50.04406 60.13289
#
# Poissons Ratio (x) = 0.17091 0.41088
# Poissons Ratio (y) = 0.24952 0.25403
# Poissons Ratio (z) = 0.49923 0.21141
#
# Static dielectric constant tensor:
#      x y z
#    x 1.513430 0.000000 0.000000 
#    y 0.000000 1.558830 0.000000 
#    z 0.000000 0.000000 1.516640 
# 
# From -- ./inp_files/71794.got.cif
#   From: 2010.05.17/outbox.cif.g08.bks.cpg/sg65_36_cif.got.tgz:71794.got - 2010.06.03 17:01:31.
