data_PCOD9485873
_publ_section_title
;
Structure prediction by ZEFSAII (Michael W. Deem and Ramdas Pophale) SiO2 
 PCOD9485873
Probable space group: C M M M
;
_chemical_formula_sum "Si O2"
_cell_formula_units_Z 52
_cell_length_a 26.136720
_cell_length_b 5.349141
_cell_length_c 17.299673
_cell_angle_alpha 90.000000
_cell_angle_beta 90.000000
_cell_angle_gamma 90.000000
_cell_volume 2418.649992
_symmetry_space_group_name_H-M "C M M M"
_symmetry_group_IT_number 65
_symmetry_cell_setting 'orthorhombic'
loop_
_space_group_symop_operation_xyz
x,y,z
-x,-y,z
x,-y,-z
-x,y,-z
-x,-y,-z
x,y,-z
-x,y,z
x,-y,z
1/2+x,1/2+y,z
1/2-x,1/2-y,z
1/2+x,1/2-y,-z
1/2-x,1/2+y,-z
1/2-x,1/2-y,-z
1/2+x,1/2+y,-z
1/2-x,1/2+y,z
1/2+x,1/2-y,z
loop_
_atom_site_type_symbol
_atom_site_label
_atom_site_fract_x
_atom_site_fract_y
_atom_site_fract_z
Si Si1 0.341272 0.000000 0.831231
Si Si2 0.562864 0.000000 0.590542
Si Si3 0.090289 0.000000 0.165253
Si Si4 0.284994 0.000000 0.500000
Si Si5 0.784097 0.500000 0.331823
Si Si6 0.407890 0.500000 0.000000
Si Si7 0.662403 0.000000 0.000000
Si Si8 0.058246 0.000000 0.665102
O O1 0.375359 0.749462 0.831809
O O2 0.312536 0.000000 0.749996
O O3 0.311391 0.000000 0.914710
O O4 0.582395 0.751386 0.632327
O O5 0.500000 0.000000 0.598584
O O6 0.573675 0.000000 0.500000
O O7 0.058060 0.000000 0.242899
O O8 0.063382 0.000000 0.081673
O O9 0.250000 0.250000 0.500000
O O10 0.312199 0.000000 0.583949
O O11 0.750000 0.250000 0.331715
O O12 0.372520 0.250711 0.000000
O O13 0.000000 0.000000 0.636142
#
# Coordination Sequence:
#
# PCOD9485873 Si02
#       8
#     8   8   8   4   8   4   4   8
#     4  10  19  33  53  73 101 132 167 204 246 303
#     4   9  17  30  49  69  92 127 166 200 239 297
#     4  10  19  33  52  73  99 133 167 205 252 294
#     4   8  16  30  50  70  92 124 161 192 229 288
#     4  10  19  33  53  77  98 128 166 203 242 291
#     4   8  16  30  49  69  92 130 173 196 233 312
#     4   8  16  30  48  71  95 132 167 194 237 302
#     4  10  19  31  50  75  99 127 170 213 249 294
#
# _framework density 21.499597000000001
#
# number of rings (size 3 to 8) (size 9 to 14) (size 15 to 20)
#    0.000    2.615    0.000    2.308    0.000    1.846 
#    0.000    1.154   10.154    0.000    0.000    9.692 
#    0.000    0.000    0.000    0.000    0.000    0.000 
#
# Total GULP energy -144852.939695 kJ/mol
# GULP energy per Si atom -5571.266911 kJ/mol
# Density = 2.145066 g / cm^3
# Si number density = 21.499597 Si / 1000 Ang^3
#
#
#
# Elastic Constant Matrix: (Units=GPa)
#
#
# Indices 1 2 3 4 5 6 
#
# 1 25.7032 22.8495 34.0938 0.0000 0.0000 0.0000
# 2 22.8495 197.5990 63.4745 0.0000 0.0000 0.0000
# 3 34.0938 63.4745 215.0965 0.0000 0.0000 0.0000
# 4 0.0000 0.0000 0.0000 40.1156 0.0000 0.0000
# 5 0.0000 0.0000 0.0000 0.0000 14.6779 0.0000
# 6 0.0000 0.0000 0.0000 0.0000 0.0000 -60.5064
#
#
#
# Elastic Compliance Matrix: (Units=1/GPa)
#
#
# Indices 1 2 3 4 5 6 
#
# 1 0.051587 -0.003688 -0.007088 0.000000 0.000000 0.000000
# 2 -0.003688 0.005854 -0.001143 0.000000 0.000000 0.000000
# 3 -0.007088 -0.001143 0.006110 0.000000 0.000000 0.000000
# 4 0.000000 0.000000 0.000000 0.024928 0.000000 0.000000
# 5 0.000000 0.000000 0.000000 0.000000 0.068130 0.000000
# 6 0.000000 0.000000 0.000000 0.000000 0.000000 -0.016527
#
#
# Mechanical properties :
#
#
# Convention : Reuss Voigt Hill
#
# Bulk Modulus (GPa) = 25.18141 75.47048 50.32594
# Shear Modulus (GPa) = 28.22334 20.05613 24.13973
#
# Velocity S-wave (km/s) = 3.62710 3.05759 3.35445
# Velocity P-wave (km/s) = 5.41102 6.90250 6.20176
#
# Compressibility (1/GPa) = 0.03971184
#
# Stress axis : x y z
#
# Youngs Moduli (GPa) = 19.38478 170.81099 163.66836
#
# Poissons Ratio (x) = 0.63000 1.16014
# Poissons Ratio (y) = 0.07150 0.18708
# Poissons Ratio (z) = 0.13741 0.19524
#
# Static dielectric constant tensor:
#      x y z
#    x 1.815030 0.000000 0.000000 
#    y 0.000000 1.722720 0.000000 
#    z 0.000000 0.000000 1.824510 
# 
# From -- ./inp_files/47324.got.cif
#   From: 2010.05.17/outbox.cif.g08.bks.cpg/sg65_24_cif.got.tgz:47324.got - 2010.06.03 17:01:31.
