data_PCOD9485427
_publ_section_title
;
Structure prediction by ZEFSAII (Michael W. Deem and Ramdas Pophale) SiO2 
 PCOD9485427
Probable space group: C M M M
;
_chemical_formula_sum "Si O2"
_cell_formula_units_Z 120
_cell_length_a 23.467389
_cell_length_b 15.505944
_cell_length_c 20.928118
_cell_angle_alpha 90.000000
_cell_angle_beta 90.000000
_cell_angle_gamma 90.000000
_cell_volume 7615.407702
_symmetry_space_group_name_H-M "C M M M"
_symmetry_group_IT_number 65
_symmetry_cell_setting 'orthorhombic'
loop_
_space_group_symop_operation_xyz
x,y,z
-x,-y,z
x,-y,-z
-x,y,-z
-x,-y,-z
x,y,-z
-x,y,z
x,-y,z
1/2+x,1/2+y,z
1/2-x,1/2-y,z
1/2+x,1/2-y,-z
1/2-x,1/2+y,-z
1/2-x,1/2-y,-z
1/2+x,1/2+y,-z
1/2-x,1/2+y,z
1/2+x,1/2-y,z
loop_
_atom_site_type_symbol
_atom_site_label
_atom_site_fract_x
_atom_site_fract_y
_atom_site_fract_z
Si Si1 0.626752 0.842242 0.425244
Si Si2 0.567885 0.903894 0.301428
Si Si3 0.431082 0.220051 0.812946
Si Si4 0.562274 0.500000 0.425891
Si Si5 0.430663 0.098802 0.072981
Si Si6 0.870051 0.155012 0.631315
Si Si7 0.258033 0.396324 0.427614
Si Si8 0.568391 0.601530 0.761170
O O1 0.610393 0.854233 0.500000
O O2 0.595439 0.898222 0.371426
O O3 0.615311 0.746078 0.399942
O O4 0.694222 0.861455 0.421043
O O5 0.500000 0.893071 0.308752
O O6 0.588243 0.830638 0.251488
O O7 0.578148 0.000000 0.274409
O O8 0.500000 0.212664 0.812346
O O9 0.410483 0.167167 0.874567
O O10 0.418996 0.322429 0.812224
O O11 0.500000 0.500000 0.393123
O O12 0.554154 0.500000 0.500000
O O13 0.598741 0.582322 0.409168
O O14 0.500000 0.100231 0.073563
O O15 0.414146 0.000000 0.088509
O O16 0.413096 0.117768 0.000000
O O17 0.802567 0.140969 0.622879
O O18 0.895144 0.134571 0.700852
O O19 0.277863 0.373494 0.500000
O O20 0.256842 0.500000 0.422930
O O21 0.500000 0.606508 0.747885
O O22 0.580637 0.500000 0.774851
#
# Coordination Sequence:
#
# PCOD9485427 Si02
#       8
#    16  16  16   8  16  16  16  16
#     4  11  23  35  48  66  88 116 154 199 246 296
#     4  10  20  33  48  65  88 122 160 194 234 285
#     4   9  16  28  45  64  90 123 156 191 230 275
#     4  11  22  32  46  68  90 112 142 194 260 308
#     4   8  13  22  40  68  97 123 154 190 225 264
#     4  12  20  33  50  65  86 113 150 198 249 298
#     4  10  20  35  52  66  83 110 148 195 249 303
#     4  10  19  31  47  66  90 121 157 195 238 288
#
# _framework density 15.757528000000001
#
# number of rings (size 3 to 8) (size 9 to 14) (size 15 to 20)
#    0.000    1.933    2.667    3.200    0.000    4.267 
#    0.000    0.667    0.000    0.400    0.000    2.800 
#    0.000    0.000    0.000    2.400    0.000   10.400 
#
# Total GULP energy -334111.818692 kJ/mol
# GULP energy per Si atom -5568.530312 kJ/mol
# Density = 1.572166 g / cm^3
# Si number density = 15.757528 Si / 1000 Ang^3
#
#
#
# Elastic Constant Matrix: (Units=GPa)
#
#
# Indices 1 2 3 4 5 6 
#
# 1 21.3288 16.4145 13.2032 0.0000 0.0000 0.0000
# 2 16.4145 103.8284 53.8322 0.0000 0.0000 0.0000
# 3 13.2032 53.8322 89.4477 0.0000 0.0000 0.0000
# 4 0.0000 0.0000 0.0000 15.5724 0.0000 0.0000
# 5 0.0000 0.0000 0.0000 0.0000 10.1853 0.0000
# 6 0.0000 0.0000 0.0000 0.0000 0.0000 25.4889
#
#
#
# Elastic Compliance Matrix: (Units=1/GPa)
#
#
# Indices 1 2 3 4 5 6 
#
# 1 0.054419 -0.006452 -0.004150 0.000000 0.000000 0.000000
# 2 -0.006452 0.014764 -0.007933 0.000000 0.000000 0.000000
# 3 -0.004150 -0.007933 0.016567 0.000000 0.000000 0.000000
# 4 0.000000 0.000000 0.000000 0.064216 0.000000 0.000000
# 5 0.000000 0.000000 0.000000 0.000000 0.098181 0.000000
# 6 0.000000 0.000000 0.000000 0.000000 0.000000 0.039233
#
#
# Mechanical properties :
#
#
# Convention : Reuss Voigt Hill
#
# Bulk Modulus (GPa) = 20.54210 42.38941 31.46576
# Shear Modulus (GPa) = 14.67666 18.99298 16.83482
#
# Velocity S-wave (km/s) = 3.05521 3.47555 3.27213
# Velocity P-wave (km/s) = 5.05078 6.56242 5.85559
#
# Compressibility (1/GPa) = 0.04868051
#
# Stress axis : x y z
#
# Youngs Moduli (GPa) = 18.37593 67.73012 60.36168
#
# Poissons Ratio (x) = 0.43697 0.25049
# Poissons Ratio (y) = 0.11855 0.47887
# Poissons Ratio (z) = 0.07626 0.53733
#
# Static dielectric constant tensor:
#      x y z
#    x 1.521870 0.000000 0.000000 
#    y 0.000000 1.587590 0.000000 
#    z 0.000000 0.000000 1.536160 
# 
# From -- ./inp_files/66132.got.cif
#   From: 2010.05.17/outbox.cif.g08.bks.cpg/sg65_34_cif.got.tgz:66132.got - 2010.06.03 17:01:31.
