data_PCOD9485946
_publ_section_title
;
Structure prediction by ZEFSAII (Michael W. Deem and Ramdas Pophale) SiO2 
 PCOD9485946
Probable space group: C M M M
;
_chemical_formula_sum "Si O2"
_cell_formula_units_Z 104
_cell_length_a 18.722530
_cell_length_b 7.518355
_cell_length_c 35.008181
_cell_angle_alpha 90.000000
_cell_angle_beta 90.000000
_cell_angle_gamma 90.000000
_cell_volume 4927.843525
_symmetry_space_group_name_H-M "C M M M"
_symmetry_group_IT_number 65
_symmetry_cell_setting 'orthorhombic'
loop_
_space_group_symop_operation_xyz
x,y,z
-x,-y,z
x,-y,-z
-x,y,-z
-x,-y,-z
x,y,-z
-x,y,z
x,-y,z
1/2+x,1/2+y,z
1/2-x,1/2-y,z
1/2+x,1/2-y,-z
1/2-x,1/2+y,-z
1/2-x,1/2-y,-z
1/2+x,1/2+y,-z
1/2-x,1/2+y,z
1/2+x,1/2-y,z
loop_
_atom_site_type_symbol
_atom_site_label
_atom_site_fract_x
_atom_site_fract_y
_atom_site_fract_z
Si Si1 0.581518 0.213267 0.809826
Si Si2 0.834252 0.213017 0.500000
Si Si3 0.666135 0.286760 0.349039
Si Si4 0.581785 0.286993 0.724563
Si Si5 0.917015 0.283159 0.042465
Si Si6 0.917143 0.217806 0.575543
Si Si7 0.833458 0.713261 0.883342
O O1 0.500000 0.281333 0.812065
O O2 0.609256 0.250809 0.767259
O O3 0.628314 0.281344 0.844961
O O4 0.578264 0.000000 0.813221
O O5 0.750000 0.250000 0.500000
O O6 0.873770 0.277963 0.538193
O O7 0.842194 0.000000 0.500000
O O8 0.658290 0.500000 0.348899
O O9 0.750000 0.250000 0.351576
O O10 0.630856 0.218963 0.309765
O O11 0.622961 0.222125 0.386095
O O12 0.500000 0.218798 0.721858
O O13 0.578031 0.500000 0.720813
O O14 0.915071 0.500000 0.042410
O O15 0.870214 0.219229 0.077856
O O16 0.000000 0.233295 0.047645
O O17 0.893780 0.225535 0.000000
O O18 0.000000 0.271822 0.574627
O O19 0.916647 0.000000 0.575551
O O20 0.842968 0.500000 0.883575
O O21 0.750000 0.750000 0.882847
#
# Coordination Sequence:
#
# PCOD9485946 Si02
#       7
#    16   8  16  16  16  16  16
#     4   9  18  33  52  71  92 122 160 200 238 276
#     4  10  19  31  51  77 103 130 160 198 242 288
#     4  10  20  33  50  72  99 129 159 196 241 286
#     4   9  18  33  52  72  93 121 159 199 238 281
#     4   8  14  27  49  73  93 118 157 199 232 268
#     4   9  17  31  52  75  97 126 167 206 236 275
#     4  10  20  32  47  70  99 127 155 190 234 282
#
# _framework density 21.104565999999998
#
# number of rings (size 3 to 8) (size 9 to 14) (size 15 to 20)
#    0.000    2.769    0.000    2.077    0.000    6.769 
#    0.000    3.077    0.000    4.615    0.000    1.077 
#    0.000    0.000    0.000    0.000    0.000    0.000 
#
# Total GULP energy -290335.256082 kJ/mol
# GULP energy per Si atom -5583.370309 kJ/mol
# Density = 2.105653 g / cm^3
# Si number density = 21.104566 Si / 1000 Ang^3
#
#
#
# Elastic Constant Matrix: (Units=GPa)
#
#
# Indices 1 2 3 4 5 6 
#
# 1 159.5589 -1.3075 150.1758 0.0000 0.0000 0.0000
# 2 -1.3075 54.7941 8.2182 0.0000 0.0000 0.0000
# 3 150.1758 8.2182 267.9886 0.0000 0.0000 0.0000
# 4 0.0000 0.0000 0.0000 7.6234 0.0000 0.0000
# 5 0.0000 0.0000 0.0000 0.0000 -31.1159 0.0000
# 6 0.0000 0.0000 0.0000 0.0000 0.0000 22.2059
#
#
#
# Elastic Compliance Matrix: (Units=1/GPa)
#
#
# Indices 1 2 3 4 5 6 
#
# 1 0.013376 0.001450 -0.007540 0.000000 0.000000 0.000000
# 2 0.001450 0.018492 -0.001380 0.000000 0.000000 0.000000
# 3 -0.007540 -0.001380 0.007999 0.000000 0.000000 0.000000
# 4 0.000000 0.000000 0.000000 0.131174 0.000000 0.000000
# 5 0.000000 0.000000 0.000000 0.000000 -0.032138 0.000000
# 6 0.000000 0.000000 0.000000 0.000000 0.000000 0.045033
#
#
# Mechanical properties :
#
#
# Convention : Reuss Voigt Hill
#
# Bulk Modulus (GPa) = 40.11667 88.50162 64.30914
# Shear Modulus (GPa) = 24.13311 21.42636 22.77974
#
# Velocity S-wave (km/s) = 3.38524 3.18975 3.28895
# Velocity P-wave (km/s) = 5.85915 7.45600 6.70528
#
# Compressibility (1/GPa) = 0.02492729
#
# Stress axis : x y z
#
# Youngs Moduli (GPa) = 74.76222 54.07845 125.01443
#
# Poissons Ratio (x) = -0.07842 0.94261
# Poissons Ratio (y) = -0.10841 0.17247
# Poissons Ratio (z) = 0.56371 0.07461
#
# Static dielectric constant tensor:
#      x y z
#    x 1.704050 0.000000 0.000000 
#    y 0.000000 1.838960 0.000000 
#    z 0.000000 0.000000 1.753920 
# 
# From -- ./inp_files/77684.got.cif
#   From: 2010.05.17/outbox.cif.g08.bks.cpg/sg65_39_cif.got.tgz:77684.got - 2010.06.03 17:01:31.
