data_PCOD9485316
_publ_section_title
;
Structure prediction by ZEFSAII (Michael W. Deem and Ramdas Pophale) SiO2 
 PCOD9485316
Probable space group: C M M M
;
_chemical_formula_sum "Si O2"
_cell_formula_units_Z 72
_cell_length_a 17.059929
_cell_length_b 24.810380
_cell_length_c 7.318891
_cell_angle_alpha 90.000000
_cell_angle_beta 90.000000
_cell_angle_gamma 90.000000
_cell_volume 3097.818113
_symmetry_space_group_name_H-M "C M M M"
_symmetry_group_IT_number 65
_symmetry_cell_setting 'orthorhombic'
loop_
_space_group_symop_operation_xyz
x,y,z
-x,-y,z
x,-y,-z
-x,y,-z
-x,-y,-z
x,y,-z
-x,y,z
x,-y,z
1/2+x,1/2+y,z
1/2-x,1/2-y,z
1/2+x,1/2-y,-z
1/2-x,1/2+y,-z
1/2-x,1/2-y,-z
1/2+x,1/2+y,-z
1/2-x,1/2+y,z
1/2+x,1/2-y,z
loop_
_atom_site_type_symbol
_atom_site_label
_atom_site_fract_x
_atom_site_fract_y
_atom_site_fract_z
Si Si1 0.167077 0.059574 0.278057
Si Si2 0.677746 0.110454 0.721164
Si Si3 0.500000 0.401509 0.278406
Si Si4 0.336026 0.233598 0.790093
Si Si5 0.500000 0.276112 0.788808
Si Si6 0.908872 0.500000 0.277707
O O1 0.166124 0.060313 0.500000
O O2 0.232049 0.102000 0.221551
O O3 0.079721 0.070923 0.215742
O O4 0.192914 0.000000 0.223267
O O5 0.673580 0.111609 0.500000
O O6 0.652921 0.169113 0.786130
O O7 0.631224 0.056494 0.780007
O O8 0.500000 0.403417 0.500000
O O9 0.500000 0.340179 0.218704
O O10 0.250000 0.250000 0.711967
O O11 0.416439 0.257395 0.707995
O O12 0.333553 0.253218 0.000000
O O13 0.500000 0.256703 0.000000
O O14 0.903685 0.500000 0.500000
O O15 0.000000 0.500000 0.226645
#
# Coordination Sequence:
#
# PCOD9485316 Si02
#       6
#    16  16   8  16   8   8
#     4   9  16  29  49  77 109 137 164 201 254 307
#     4  10  19  33  56  80 105 136 172 214 256 305
#     4  10  19  30  52  80 103 131 172 215 247 293
#     4  10  22  39  56  75 104 141 176 214 263 312
#     4  10  22  39  55  72 101 140 173 209 264 315
#     4   9  18  32  51  78 108 136 165 205 263 315
#
# _framework density 23.242163999999999
#
# number of rings (size 3 to 8) (size 9 to 14) (size 15 to 20)
#    0.000    2.333    1.111    1.667    1.556    2.667 
#    0.000    0.556    0.000    3.333    0.000    0.000 
#    0.000    0.000    0.000    0.000    0.000    0.000 
#
# Total GULP energy -201065.879264 kJ/mol
# GULP energy per Si atom -5585.163313 kJ/mol
# Density = 2.318926 g / cm^3
# Si number density = 23.242164 Si / 1000 Ang^3
#
#
#
# Elastic Constant Matrix: (Units=GPa)
#
#
# Indices 1 2 3 4 5 6 
#
# 1 130.3795 11.5809 8.2525 0.0000 0.0000 0.0000
# 2 11.5809 83.8013 -12.3061 0.0000 0.0000 0.0000
# 3 8.2525 -12.3061 94.1840 0.0000 0.0000 0.0000
# 4 0.0000 0.0000 0.0000 24.2447 0.0000 0.0000
# 5 0.0000 0.0000 0.0000 0.0000 -25.4918 0.0000
# 6 0.0000 0.0000 0.0000 0.0000 0.0000 51.1731
#
#
#
# Elastic Compliance Matrix: (Units=1/GPa)
#
#
# Indices 1 2 3 4 5 6 
#
# 1 0.007830 -0.001206 -0.000844 0.000000 0.000000 0.000000
# 2 -0.001206 0.012352 0.001720 0.000000 0.000000 0.000000
# 3 -0.000844 0.001720 0.010916 0.000000 0.000000 0.000000
# 4 0.000000 0.000000 0.000000 0.041246 0.000000 0.000000
# 5 0.000000 0.000000 0.000000 0.000000 -0.039228 0.000000
# 6 0.000000 0.000000 0.000000 0.000000 0.000000 0.019542
#
#
# Mechanical properties :
#
#
# Convention : Reuss Voigt Hill
#
# Bulk Modulus (GPa) = 32.85311 35.93551 34.39431
# Shear Modulus (GPa) = 78.78433 30.04104 54.41268
#
# Velocity S-wave (km/s) = 5.82844 3.59907 4.84376
# Velocity P-wave (km/s) = 7.71104 5.72416 6.79066
#
# Compressibility (1/GPa) = 0.03043852
#
# Stress axis : x y z
#
# Youngs Moduli (GPa) = 127.70663 80.95743 91.60764
#
# Poissons Ratio (x) = 0.09764 0.07729
# Poissons Ratio (y) = 0.15402 -0.15753
# Poissons Ratio (z) = 0.10775 -0.13922
#
# Static dielectric constant tensor:
#      x y z
#    x 1.867820 0.000000 0.000000 
#    y 0.000000 1.784030 0.000000 
#    z 0.000000 0.000000 1.973360 
# 
# From -- ./inp_files/7364.got.cif
#   From: 2010.05.17/outbox.cif.g08.bks.cpg/sg65_4_cif.got.tgz:7364.got - 2010.06.03 17:01:31.
