data_PCOD9485425
_publ_section_title
;
Structure prediction by ZEFSAII (Michael W. Deem and Ramdas Pophale) SiO2 
 PCOD9485425
Probable space group: C M M M
;
_chemical_formula_sum "Si O2"
_cell_formula_units_Z 88
_cell_length_a 28.003399
_cell_length_b 7.748146
_cell_length_c 22.336123
_cell_angle_alpha 90.000000
_cell_angle_beta 90.000000
_cell_angle_gamma 90.000000
_cell_volume 4846.367421
_symmetry_space_group_name_H-M "C M M M"
_symmetry_group_IT_number 65
_symmetry_cell_setting 'orthorhombic'
loop_
_space_group_symop_operation_xyz
x,y,z
-x,-y,z
x,-y,-z
-x,y,-z
-x,-y,-z
x,y,-z
-x,y,z
x,-y,z
1/2+x,1/2+y,z
1/2-x,1/2-y,z
1/2+x,1/2-y,-z
1/2-x,1/2+y,-z
1/2-x,1/2-y,-z
1/2+x,1/2+y,-z
1/2-x,1/2+y,z
1/2+x,1/2-y,z
loop_
_atom_site_type_symbol
_atom_site_label
_atom_site_fract_x
_atom_site_fract_y
_atom_site_fract_z
Si Si1 0.598008 0.298076 0.433830
Si Si2 0.447368 0.797363 0.310333
Si Si3 0.193894 0.707973 0.870046
Si Si4 0.350326 0.211566 0.746405
Si Si5 0.193611 0.707524 0.000000
Si Si6 0.696019 0.205590 0.623139
O O1 0.588557 0.226767 0.500000
O O2 0.585985 0.500000 0.433749
O O3 0.568974 0.215960 0.379378
O O4 0.654173 0.280256 0.418171
O O5 0.500000 0.721176 0.301727
O O6 0.403223 0.726804 0.271709
O O7 0.450060 0.000000 0.295750
O O8 0.189619 0.500000 0.870447
O O9 0.250000 0.750000 0.864974
O O10 0.167292 0.772405 0.810905
O O11 0.175888 0.771792 0.935235
O O12 0.315725 0.262850 0.691438
O O13 0.350472 0.000000 0.747062
O O14 0.250000 0.750000 0.000000
O O15 0.188221 0.500000 0.000000
O O16 0.750000 0.250000 0.606576
O O17 0.690357 0.000000 0.621097
#
# Coordination Sequence:
#
# PCOD9485425 Si02
#       6
#    16  16  16  16   8  16
#     4  10  21  35  49  66  88 113 141 173 212 259
#     4   9  18  33  51  68  85 107 138 177 221 265
#     4   9  15  24  38  58  86 116 145 174 205 243
#     4   8  15  27  43  63  85 110 142 178 213 252
#     4   8  14  22  34  54  81 115 147 173 202 238
#     4  10  19  31  47  66  89 117 148 180 214 252
#
# _framework density 18.157928999999999
#
# number of rings (size 3 to 8) (size 9 to 14) (size 15 to 20)
#    0.000    2.909    0.000    2.727    0.000    2.545 
#    0.000    5.455    0.000    0.000    0.000    0.636 
#    0.000    5.091    0.000    0.000    0.000   40.364 
#
# Total GULP energy -245184.933737 kJ/mol
# GULP energy per Si atom -5572.384858 kJ/mol
# Density = 1.811660 g / cm^3
# Si number density = 18.157929 Si / 1000 Ang^3
#
#
#
# Elastic Constant Matrix: (Units=GPa)
#
#
# Indices 1 2 3 4 5 6 
#
# 1 68.9551 -8.9670 17.7408 0.0000 0.0000 0.0000
# 2 -8.9670 28.5677 -4.5283 0.0000 0.0000 0.0000
# 3 17.7408 -4.5283 118.8168 0.0000 0.0000 0.0000
# 4 0.0000 0.0000 0.0000 -8.4152 0.0000 0.0000
# 5 0.0000 0.0000 0.0000 0.0000 7.7691 0.0000
# 6 0.0000 0.0000 0.0000 0.0000 0.0000 11.0262
#
#
#
# Elastic Compliance Matrix: (Units=1/GPa)
#
#
# Indices 1 2 3 4 5 6 
#
# 1 0.015653 0.004570 -0.002163 0.000000 0.000000 0.000000
# 2 0.004570 0.036552 0.000711 0.000000 0.000000 0.000000
# 3 -0.002163 0.000711 0.008766 0.000000 0.000000 0.000000
# 4 0.000000 0.000000 0.000000 -0.118833 0.000000 0.000000
# 5 0.000000 0.000000 0.000000 0.000000 0.128715 0.000000
# 6 0.000000 0.000000 0.000000 0.000000 0.000000 0.090693
#
#
# Mechanical properties :
#
#
# Convention : Reuss Voigt Hill
#
# Bulk Modulus (GPa) = 14.87934 24.98117 19.93026
# Shear Modulus (GPa) = 28.13532 16.21563 22.17548
#
# Velocity S-wave (km/s) = 3.94061 2.99161 3.49844
# Velocity P-wave (km/s) = 5.37743 5.07154 5.22672
#
# Compressibility (1/GPa) = 0.06720728
#
# Stress axis : x y z
#
# Youngs Moduli (GPa) = 63.88534 27.35845 114.07239
#
# Poissons Ratio (x) = -0.12504 0.24674
# Poissons Ratio (y) = -0.29198 -0.08106
# Poissons Ratio (z) = 0.13818 -0.01944
#
# Static dielectric constant tensor:
#      x y z
#    x 1.616430 0.000000 0.000000 
#    y 0.000000 1.675000 0.000000 
#    z 0.000000 0.000000 1.655450 
# 
# From -- ./inp_files/66205.got.cif
#   From: 2010.05.17/outbox.cif.g08.bks.cpg/sg65_34_cif.got.tgz:66205.got - 2010.06.03 17:01:31.
