data_PCOD9485480
_publ_section_title
;
Structure prediction by ZEFSAII (Michael W. Deem and Ramdas Pophale) SiO2 
 PCOD9485480
Probable space group: C M M M
;
_chemical_formula_sum "Si O2"
_cell_formula_units_Z 104
_cell_length_a 9.394012
_cell_length_b 30.207812
_cell_length_c 23.422281
_cell_angle_alpha 90.000000
_cell_angle_beta 90.000000
_cell_angle_gamma 90.000000
_cell_volume 6646.600369
_symmetry_space_group_name_H-M "C M M M"
_symmetry_group_IT_number 65
_symmetry_cell_setting 'orthorhombic'
loop_
_space_group_symop_operation_xyz
x,y,z
-x,-y,z
x,-y,-z
-x,y,-z
-x,-y,-z
x,y,-z
-x,y,z
x,-y,z
1/2+x,1/2+y,z
1/2-x,1/2-y,z
1/2+x,1/2-y,-z
1/2-x,1/2+y,-z
1/2-x,1/2-y,-z
1/2+x,1/2+y,-z
1/2-x,1/2+y,z
1/2+x,1/2-y,z
loop_
_atom_site_type_symbol
_atom_site_label
_atom_site_fract_x
_atom_site_fract_y
_atom_site_fract_z
Si Si1 0.329333 0.797237 0.000000
Si Si2 0.670152 0.449396 0.931642
Si Si3 0.329750 0.795744 0.338855
Si Si4 0.662969 0.548747 0.569218
Si Si5 0.329252 0.134911 0.434340
Si Si6 0.828948 0.638295 0.893561
Si Si7 0.670293 0.796524 0.791971
O O1 0.250000 0.750000 0.000000
O O2 0.294510 0.827690 0.054819
O O3 0.500000 0.789304 0.000000
O O4 0.500000 0.445252 0.922596
O O5 0.711311 0.500000 0.914712
O O6 0.751502 0.408659 0.902261
O O7 0.695212 0.445885 0.000000
O O8 0.500000 0.789761 0.343339
O O9 0.250000 0.750000 0.347369
O O10 0.283880 0.829103 0.388244
O O11 0.300175 0.810115 0.273610
O O12 0.662652 0.547421 0.500000
O O13 0.500000 0.557041 0.586945
O O14 0.706343 0.500000 0.589404
O O15 0.766188 0.588109 0.584756
O O16 0.283328 0.144191 0.500000
O O17 0.500000 0.132935 0.434622
O O18 0.790298 0.664856 0.836025
O O19 0.000000 0.631246 0.894447
O O20 0.500000 0.789007 0.797619
O O21 0.750000 0.750000 0.803343
#
# Coordination Sequence:
#
# PCOD9485480 Si02
#       7
#     8  16  16  16  16  16  16
#     4  10  20  30  41  64  95 119 142 177 219 262
#     4   9  18  32  49  70  95 122 153 187 224 268
#     4   9  18  32  47  64  88 118 152 188 224 265
#     4   8  14  25  41  62  88 115 142 174 214 262
#     4   9  17  28  43  65  91 116 145 184 228 271
#     4  10  19  31  47  69  94 119 150 187 226 265
#     4   9  18  32  49  67  89 119 154 188 222 267
#
# _framework density 15.647098
#
# number of rings (size 3 to 8) (size 9 to 14) (size 15 to 20)
#    0.000    2.923    0.769    1.385    0.000    2.769 
#    0.000    2.308    0.000    0.923    0.000    6.462 
#    0.000    0.000    0.000    0.000    0.000    0.000 
#
# Total GULP energy -289492.557585 kJ/mol
# GULP energy per Si atom -5567.164569 kJ/mol
# Density = 1.561148 g / cm^3
# Si number density = 15.647098 Si / 1000 Ang^3
#
#
#
# Elastic Constant Matrix: (Units=GPa)
#
#
# Indices 1 2 3 4 5 6 
#
# 1 20.4757 50.4805 36.0474 0.0000 0.0000 0.0000
# 2 50.4805 149.6592 87.6882 0.0000 0.0000 0.0000
# 3 36.0474 87.6882 88.3983 0.0000 0.0000 0.0000
# 4 0.0000 0.0000 0.0000 9.4252 0.0000 0.0000
# 5 0.0000 0.0000 0.0000 0.0000 11.8203 0.0000
# 6 0.0000 0.0000 0.0000 0.0000 0.0000 35.0780
#
#
#
# Elastic Compliance Matrix: (Units=1/GPa)
#
#
# Indices 1 2 3 4 5 6 
#
# 1 0.431452 -0.101350 -0.075404 0.000000 0.000000 0.000000
# 2 -0.101350 0.039763 0.001886 0.000000 0.000000 0.000000
# 3 -0.075404 0.001886 0.040190 0.000000 0.000000 0.000000
# 4 0.000000 0.000000 0.000000 0.106099 0.000000 0.000000
# 5 0.000000 0.000000 0.000000 0.000000 0.084600 0.000000
# 6 0.000000 0.000000 0.000000 0.000000 0.000000 0.028508
#
#
# Mechanical properties :
#
#
# Convention : Reuss Voigt Hill
#
# Bulk Modulus (GPa) = 6.18546 67.44060 36.81303
# Shear Modulus (GPa) = 4.40825 16.88584 10.64705
#
# Velocity S-wave (km/s) = 1.68030 3.28863 2.61137
# Velocity P-wave (km/s) = 2.77961 7.59044 5.71581
#
# Compressibility (1/GPa) = 0.16166953
#
# Stress axis : x y z
#
# Youngs Moduli (GPa) = 2.31776 25.14927 24.88152
#
# Poissons Ratio (x) = 2.54887 1.87616
# Poissons Ratio (y) = 0.23490 -0.04692
# Poissons Ratio (z) = 0.17477 -0.04742
#
# Static dielectric constant tensor:
#      x y z
#    x 1.519390 0.000000 0.000000 
#    y 0.000000 1.505550 0.000000 
#    z 0.000000 0.000000 1.525750 
# 
# From -- ./inp_files/60912.got.cif
#   From: 2010.05.17/outbox.cif.g08.bks.cpg/sg65_31_cif.got.tgz:60912.got - 2010.06.03 17:01:31.
