data_PCOD9485909
_publ_section_title
;
Structure prediction by ZEFSAII (Michael W. Deem and Ramdas Pophale) SiO2 
 PCOD9485909
Probable space group: C M M M
;
_chemical_formula_sum "Si O2"
_cell_formula_units_Z 120
_cell_length_a 14.334788
_cell_length_b 20.180321
_cell_length_c 22.416782
_cell_angle_alpha 90.000000
_cell_angle_beta 90.000000
_cell_angle_gamma 90.000000
_cell_volume 6484.740669
_symmetry_space_group_name_H-M "C M M M"
_symmetry_group_IT_number 65
_symmetry_cell_setting 'orthorhombic'
loop_
_space_group_symop_operation_xyz
x,y,z
-x,-y,z
x,-y,-z
-x,y,-z
-x,-y,-z
x,y,-z
-x,y,z
x,-y,z
1/2+x,1/2+y,z
1/2-x,1/2-y,z
1/2+x,1/2-y,-z
1/2-x,1/2+y,-z
1/2-x,1/2-y,-z
1/2+x,1/2+y,-z
1/2-x,1/2+y,z
1/2+x,1/2-y,z
loop_
_atom_site_type_symbol
_atom_site_label
_atom_site_fract_x
_atom_site_fract_y
_atom_site_fract_z
Si Si1 0.241255 0.827661 0.353565
Si Si2 0.891391 0.922753 0.571736
Si Si3 0.899737 0.204863 0.747690
Si Si4 0.892055 0.638010 0.267358
Si Si5 0.890463 0.500000 0.065649
Si Si6 0.803276 0.611680 0.143437
Si Si7 0.390121 0.778146 0.067964
Si Si8 0.896703 0.139636 0.877464
O O1 0.250000 0.750000 0.373727
O O2 0.181654 0.873026 0.397936
O O3 0.182033 0.822348 0.292580
O O4 0.337472 0.861194 0.330682
O O5 0.883941 0.918363 0.500000
O O6 0.000000 0.907609 0.587107
O O7 0.874179 0.000000 0.588465
O O8 0.894344 0.283862 0.748668
O O9 0.897322 0.177191 0.813818
O O10 0.000000 0.186437 0.720532
O O11 0.835587 0.605854 0.212142
O O12 0.000000 0.614953 0.270327
O O13 0.862904 0.563421 0.103117
O O14 0.000000 0.500000 0.059217
O O15 0.846469 0.500000 0.000000
O O16 0.828202 0.684238 0.116808
O O17 0.695410 0.596128 0.129046
O O18 0.500000 0.794336 0.078353
O O19 0.383148 0.698918 0.075333
O O20 0.365922 0.797329 0.000000
O O21 0.000000 0.109580 0.886243
#
# Coordination Sequence:
#
# PCOD9485909 Si02
#       8
#    16  16  16  16   8  16  16  16
#     4  10  19  31  54  86 120 156 192 234 284 342
#     4   9  19  38  63  90 121 157 199 245 290 336
#     4   9  16  29  49  77 113 147 175 215 271 334
#     4  10  19  31  50  79 112 148 184 224 279 337
#     4  11  26  44  59  75  95 131 189 246 288 334
#     4  12  21  36  57  73 101 140 184 227 283 336
#     4  10  20  32  51  79 105 131 169 222 279 335
#     4  10  20  33  52  79 109 133 166 216 275 342
#
# _framework density 18.504981000000001
#
# number of rings (size 3 to 8) (size 9 to 14) (size 15 to 20)
#    0.000    1.933    2.667    2.800    0.000    3.467 
#    1.200    0.333    0.000    0.800    0.000    0.933 
#    0.000    0.000    0.000    0.000    0.000    0.000 
#
# Total GULP energy -334449.160315 kJ/mol
# GULP energy per Si atom -5574.152672 kJ/mol
# Density = 1.846286 g / cm^3
# Si number density = 18.504981 Si / 1000 Ang^3
#
#
#
# Elastic Constant Matrix: (Units=GPa)
#
#
# Indices 1 2 3 4 5 6 
#
# 1 123.6981 31.5789 30.0135 0.0000 0.0000 0.0000
# 2 31.5789 44.0808 30.6059 0.0000 0.0000 0.0000
# 3 30.0135 30.6059 59.6846 0.0000 0.0000 0.0000
# 4 0.0000 0.0000 0.0000 40.3547 0.0000 0.0000
# 5 0.0000 0.0000 0.0000 0.0000 21.7174 0.0000
# 6 0.0000 0.0000 0.0000 0.0000 0.0000 22.0515
#
#
#
# Elastic Compliance Matrix: (Units=1/GPa)
#
#
# Indices 1 2 3 4 5 6 
#
# 1 0.010063 -0.005739 -0.002118 0.000000 0.000000 0.000000
# 2 -0.005739 0.038501 -0.016857 0.000000 0.000000 0.000000
# 3 -0.002118 -0.016857 0.026464 0.000000 0.000000 0.000000
# 4 0.000000 0.000000 0.000000 0.024780 0.000000 0.000000
# 5 0.000000 0.000000 0.000000 0.000000 0.046046 0.000000
# 6 0.000000 0.000000 0.000000 0.000000 0.000000 0.045348
#
#
# Mechanical properties :
#
#
# Convention : Reuss Voigt Hill
#
# Bulk Modulus (GPa) = 39.06130 45.76222 42.41176
# Shear Modulus (GPa) = 20.06716 25.84241 22.95478
#
# Velocity S-wave (km/s) = 3.29662 3.74105 3.52584
# Velocity P-wave (km/s) = 5.97032 6.59120 6.28843
#
# Compressibility (1/GPa) = 0.02560079
#
# Stress axis : x y z
#
# Youngs Moduli (GPa) = 99.37343 25.97334 37.78731
#
# Poissons Ratio (x) = 0.14906 0.08002
# Poissons Ratio (y) = 0.57028 0.63699
# Poissons Ratio (z) = 0.21043 0.43784
#
# Static dielectric constant tensor:
#      x y z
#    x 1.722880 0.000000 0.000000 
#    y 0.000000 1.625420 0.000000 
#    z 0.000000 0.000000 1.609060 
# 
# From -- ./inp_files/63071.got.cif
#   From: 2010.05.17/outbox.cif.g08.bks.cpg/sg65_32_cif.got.tgz:63071.got - 2010.06.03 17:01:31.
