data_PCOD9485769
_publ_section_title
;
Structure prediction by ZEFSAII (Michael W. Deem and Ramdas Pophale) SiO2 
 PCOD9485769
Probable space group: C M M M
;
_chemical_formula_sum "Si O2"
_cell_formula_units_Z 96
_cell_length_a 18.347547
_cell_length_b 26.497942
_cell_length_c 11.956008
_cell_angle_alpha 90.000000
_cell_angle_beta 90.000000
_cell_angle_gamma 90.000000
_cell_volume 5812.679146
_symmetry_space_group_name_H-M "C M M M"
_symmetry_group_IT_number 65
_symmetry_cell_setting 'orthorhombic'
loop_
_space_group_symop_operation_xyz
x,y,z
-x,-y,z
x,-y,-z
-x,y,-z
-x,-y,-z
x,y,-z
-x,y,z
x,-y,z
1/2+x,1/2+y,z
1/2-x,1/2-y,z
1/2+x,1/2-y,-z
1/2-x,1/2+y,-z
1/2-x,1/2-y,-z
1/2+x,1/2+y,-z
1/2-x,1/2+y,z
1/2+x,1/2-y,z
loop_
_atom_site_type_symbol
_atom_site_label
_atom_site_fract_x
_atom_site_fract_y
_atom_site_fract_z
Si Si1 0.224604 0.807737 0.255157
Si Si2 0.734390 0.809831 0.500000
Si Si3 0.632483 0.445186 0.865334
Si Si4 0.084434 0.367361 0.500000
Si Si5 0.081549 0.836783 0.133873
Si Si6 0.415799 0.941435 0.711671
Si Si7 0.709555 0.099137 0.133182
O O1 0.250000 0.750000 0.251910
O O2 0.231124 0.827676 0.382740
O O3 0.143751 0.810161 0.204802
O O4 0.273769 0.844944 0.179961
O O5 0.750000 0.750000 0.500000
O O6 0.649006 0.825950 0.500000
O O7 0.611250 0.500000 0.820184
O O8 0.587067 0.395953 0.833462
O O9 0.716925 0.432578 0.840452
O O10 0.626494 0.447599 0.000000
O O11 0.093443 0.403565 0.392450
O O12 0.000000 0.348331 0.500000
O O13 0.000000 0.817897 0.152411
O O14 0.097479 0.833370 0.000000
O O15 0.500000 0.937195 0.749224
O O16 0.359157 0.925264 0.806308
O O17 0.403915 0.000000 0.678907
O O18 0.701009 0.100207 0.000000
#
# Coordination Sequence:
#
# PCOD9485769 Si02
#       7
#    16   8  16   8  16  16  16
#     4  10  20  36  56  77 101 132 174 221 269 318
#     4  10  20  37  59  84 100 127 173 229 273 315
#     4   8  14  25  43  68  97 130 166 200 237 286
#     4  10  19  36  58  79 107 141 180 226 270 316
#     4   9  18  32  50  75 106 137 169 206 250 303
#     4  10  20  33  51  76 106 142 182 223 266 312
#     4  10  19  31  49  74 107 141 172 211 261 317
#
# _framework density 16.515619000000001
#
# number of rings (size 3 to 8) (size 9 to 14) (size 15 to 20)
#    0.000    2.500    1.667    2.250    0.000    4.000 
#    0.000    7.083    0.000    0.000    0.000    0.000 
#    0.000    3.000    0.000    0.000    0.000    0.000 
#
# Total GULP energy -267306.714333 kJ/mol
# GULP energy per Si atom -5568.889882 kJ/mol
# Density = 1.647803 g / cm^3
# Si number density = 16.515619 Si / 1000 Ang^3
#
#
#
# Elastic Constant Matrix: (Units=GPa)
#
#
# Indices 1 2 3 4 5 6 
#
# 1 113.0951 35.1798 56.4850 0.0000 0.0000 0.0000
# 2 35.1798 69.7996 14.5935 0.0000 0.0000 0.0000
# 3 56.4850 14.5935 74.0033 0.0000 0.0000 0.0000
# 4 0.0000 0.0000 0.0000 16.9956 0.0000 0.0000
# 5 0.0000 0.0000 0.0000 0.0000 20.8609 0.0000
# 6 0.0000 0.0000 0.0000 0.0000 0.0000 12.2768
#
#
#
# Elastic Compliance Matrix: (Units=1/GPa)
#
#
# Indices 1 2 3 4 5 6 
#
# 1 0.016301 -0.005856 -0.011288 0.000000 0.000000 0.000000
# 2 -0.005856 0.017047 0.001108 0.000000 0.000000 0.000000
# 3 -0.011288 0.001108 0.021910 0.000000 0.000000 0.000000
# 4 0.000000 0.000000 0.000000 0.058839 0.000000 0.000000
# 5 0.000000 0.000000 0.000000 0.000000 0.047937 0.000000
# 6 0.000000 0.000000 0.000000 0.000000 0.000000 0.081454
#
#
# Mechanical properties :
#
#
# Convention : Reuss Voigt Hill
#
# Bulk Modulus (GPa) = 43.12786 52.15720 47.64253
# Shear Modulus (GPa) = 17.64994 20.06932 18.85963
#
# Velocity S-wave (km/s) = 3.27262 3.48971 3.38291
# Velocity P-wave (km/s) = 6.36004 6.92001 6.64593
#
# Compressibility (1/GPa) = 0.02318687
#
# Stress axis : x y z
#
# Youngs Moduli (GPa) = 61.34502 58.66293 45.64151
#
# Poissons Ratio (x) = 0.34353 0.51518
# Poissons Ratio (y) = 0.35924 -0.05058
# Poissons Ratio (z) = 0.69243 -0.06501
#
# Static dielectric constant tensor:
#      x y z
#    x 1.556650 0.000000 0.000000 
#    y 0.000000 1.572480 0.000000 
#    z 0.000000 0.000000 1.547960 
# 
# From -- ./inp_files/27419.got.cif
#   From: 2010.05.17/outbox.cif.g08.bks.cpg/sg65_14_cif.got.tgz:27419.got - 2010.06.03 17:01:31.
