data_PCOD9485564
_publ_section_title
;
Structure prediction by ZEFSAII (Michael W. Deem and Ramdas Pophale) SiO2 
 PCOD9485564
Probable space group: C M M M
;
_chemical_formula_sum "Si O2"
_cell_formula_units_Z 96
_cell_length_a 19.501360
_cell_length_b 8.607537
_cell_length_c 32.748811
_cell_angle_alpha 90.000000
_cell_angle_beta 90.000000
_cell_angle_gamma 90.000000
_cell_volume 5497.172112
_symmetry_space_group_name_H-M "C M M M"
_symmetry_group_IT_number 65
_symmetry_cell_setting 'orthorhombic'
loop_
_space_group_symop_operation_xyz
x,y,z
-x,-y,z
x,-y,-z
-x,y,-z
-x,-y,-z
x,y,-z
-x,y,z
x,-y,z
1/2+x,1/2+y,z
1/2-x,1/2-y,z
1/2+x,1/2-y,-z
1/2-x,1/2+y,-z
1/2-x,1/2-y,-z
1/2+x,1/2+y,-z
1/2-x,1/2+y,z
1/2+x,1/2-y,z
loop_
_atom_site_type_symbol
_atom_site_label
_atom_site_fract_x
_atom_site_fract_y
_atom_site_fract_z
Si Si1 0.672168 0.687531 0.368171
Si Si2 0.826635 0.313897 0.953753
Si Si3 0.420272 0.314167 0.881897
Si Si4 0.671733 0.688080 0.543995
Si Si5 0.172360 0.813259 0.721386
Si Si6 0.079735 0.685962 0.794011
O O1 0.673677 0.500000 0.368245
O O2 0.750000 0.750000 0.368399
O O3 0.640901 0.737137 0.412028
O O4 0.644203 0.734614 0.323748
O O5 0.825306 0.500000 0.951454
O O6 0.750000 0.250000 0.947633
O O7 0.876019 0.248322 0.919221
O O8 0.848130 0.269354 0.000000
O O9 0.500000 0.267824 0.887056
O O10 0.416537 0.500000 0.880666
O O11 0.396904 0.248039 0.838175
O O12 0.641092 0.737261 0.500000
O O13 0.673377 0.500000 0.543972
O O14 0.750000 0.750000 0.543996
O O15 0.250000 0.750000 0.725044
O O16 0.125751 0.750225 0.757595
O O17 0.174466 0.000000 0.723130
O O18 0.082589 0.500000 0.794219
O O19 0.000000 0.734222 0.788762
#
# Coordination Sequence:
#
# PCOD9485564 Si02
#       6
#    16  16  16  16  16  16
#     4   8  14  23  35  54  81 113 147 185 228 273
#     4  10  21  37  57  81 110 142 174 208 245 285
#     4  10  21  37  57  80 105 133 166 204 246 292
#     4   8  12  18  29  46  71 105 143 179 218 267
#     4  10  19  31  48  70  97 127 161 199 240 289
#     4  10  21  37  55  74  98 127 161 203 249 295
#
# _framework density 17.463525000000001
#
# number of rings (size 3 to 8) (size 9 to 14) (size 15 to 20)
#    0.000    2.667    0.000    2.000    0.000    4.667 
#    0.000    5.000    0.000    0.000    0.000    0.000 
#    0.000    0.667    0.000    8.333    0.000    4.333 
#
# Total GULP energy -267269.646539 kJ/mol
# GULP energy per Si atom -5568.117636 kJ/mol
# Density = 1.742378 g / cm^3
# Si number density = 17.463525 Si / 1000 Ang^3
#
#
#
# Elastic Constant Matrix: (Units=GPa)
#
#
# Indices 1 2 3 4 5 6 
#
# 1 36.9808 17.2238 74.8140 0.0000 0.0000 0.0000
# 2 17.2238 30.5831 43.8371 0.0000 0.0000 0.0000
# 3 74.8140 43.8371 234.7346 0.0000 0.0000 0.0000
# 4 0.0000 0.0000 0.0000 19.1798 0.0000 0.0000
# 5 0.0000 0.0000 0.0000 0.0000 -20.5119 0.0000
# 6 0.0000 0.0000 0.0000 0.0000 0.0000 19.0708
#
#
#
# Elastic Compliance Matrix: (Units=1/GPa)
#
#
# Indices 1 2 3 4 5 6 
#
# 1 0.078964 -0.011466 -0.023026 0.000000 0.000000 0.000000
# 2 -0.011466 0.046315 -0.004995 0.000000 0.000000 0.000000
# 3 -0.023026 -0.004995 0.012532 0.000000 0.000000 0.000000
# 4 0.000000 0.000000 0.000000 0.052138 0.000000 0.000000
# 5 0.000000 0.000000 0.000000 0.000000 -0.048752 0.000000
# 6 0.000000 0.000000 0.000000 0.000000 0.000000 0.052436
#
#
# Mechanical properties :
#
#
# Convention : Reuss Voigt Hill
#
# Bulk Modulus (GPa) = 16.99621 63.78315 40.38968
# Shear Modulus (GPa) = 17.11050 14.64265 15.87658
#
# Velocity S-wave (km/s) = 3.13355 2.89878 3.01845
# Velocity P-wave (km/s) = 4.77972 6.91425 5.94359
#
# Compressibility (1/GPa) = 0.05883664
#
# Stress axis : x y z
#
# Youngs Moduli (GPa) = 12.66404 21.59137 79.79776
#
# Poissons Ratio (x) = 0.24757 1.83741
# Poissons Ratio (y) = 0.14521 0.39859
# Poissons Ratio (z) = 0.29160 0.10785
#
# Static dielectric constant tensor:
#      x y z
#    x 1.550020 0.000000 0.000000 
#    y 0.000000 1.605250 0.000000 
#    z 0.000000 0.000000 1.651300 
# 
# From -- ./inp_files/73165.got.cif
#   From: 2010.05.17/outbox.cif.g08.bks.cpg/sg65_37_cif.got.tgz:73165.got - 2010.06.03 17:01:31.
