data_PCOD9485000
_publ_section_title
;
Structure prediction by ZEFSAII (Michael W. Deem and Ramdas Pophale) SiO2 
 PCOD9485000
Probable space group: C M M M
;
_chemical_formula_sum "Si O2"
_cell_formula_units_Z 88
_cell_length_a 7.419444
_cell_length_b 31.742101
_cell_length_c 18.204764
_cell_angle_alpha 90.000000
_cell_angle_beta 90.000000
_cell_angle_gamma 90.000000
_cell_volume 4287.381046
_symmetry_space_group_name_H-M "C M M M"
_symmetry_group_IT_number 65
_symmetry_cell_setting 'orthorhombic'
loop_
_space_group_symop_operation_xyz
x,y,z
-x,-y,z
x,-y,-z
-x,y,-z
-x,-y,-z
x,y,-z
-x,y,z
x,-y,z
1/2+x,1/2+y,z
1/2-x,1/2-y,z
1/2+x,1/2-y,-z
1/2-x,1/2+y,-z
1/2-x,1/2-y,-z
1/2+x,1/2+y,-z
1/2-x,1/2+y,z
1/2+x,1/2-y,z
loop_
_atom_site_type_symbol
_atom_site_label
_atom_site_fract_x
_atom_site_fract_y
_atom_site_fract_z
Si Si1 0.711730 0.676829 0.919701
Si Si2 0.716951 0.088712 0.148301
Si Si3 0.280118 0.000000 0.915745
Si Si4 0.206779 0.880180 0.309401
Si Si5 0.215789 0.202826 0.239423
Si Si6 0.719799 0.546997 0.585543
O O1 0.500000 0.687416 0.921868
O O2 0.729117 0.626670 0.905789
O O3 0.786700 0.696931 0.844352
O O4 0.788030 0.688025 0.000000
O O5 0.500000 0.088965 0.152193
O O6 0.790245 0.099143 0.228675
O O7 0.778336 0.043089 0.122115
O O8 0.500000 0.000000 0.914430
O O9 0.224021 0.000000 0.000000
O O10 0.286609 0.833954 0.292819
O O11 0.286479 0.914223 0.365369
O O12 0.000000 0.873708 0.333606
O O13 0.250000 0.250000 0.264568
O O14 0.000000 0.196222 0.235010
O O15 0.768212 0.551859 0.500000
O O16 0.500000 0.546890 0.589337
O O17 0.777581 0.500000 0.610088
#
# Coordination Sequence:
#
# PCOD9485000 Si02
#       6
#    16  16   8  16  16  16
#     4   9  18  33  49  65  89 117 149 199 254 291
#     4  10  19  30  45  65  89 123 163 196 228 278
#     4   9  18  30  41  57  86 121 156 196 233 263
#     4   9  18  32  49  71  98 124 151 193 240 277
#     4   9  18  31  46  66  92 122 157 195 238 283
#     4   8  14  26  48  78 104 125 153 189 229 275
#
# _framework density 20.525351000000001
#
# number of rings (size 3 to 8) (size 9 to 14) (size 15 to 20)
#    0.000    3.000    0.000    2.727    1.273    4.364 
#    0.000    1.364    0.000    4.364    0.000    1.273 
#    0.000    0.000    0.000    0.000    0.000    0.364 
#
# Total GULP energy -245380.472158 kJ/mol
# GULP energy per Si atom -5576.828913 kJ/mol
# Density = 2.047863 g / cm^3
# Si number density = 20.525351 Si / 1000 Ang^3
#
#
#
# Elastic Constant Matrix: (Units=GPa)
#
#
# Indices 1 2 3 4 5 6 
#
# 1 70.6914 -5.1645 1.3137 0.0000 0.0000 0.0000
# 2 -5.1645 181.3077 73.2174 0.0000 0.0000 0.0000
# 3 1.3137 73.2174 79.8616 0.0000 0.0000 0.0000
# 4 0.0000 0.0000 0.0000 -27.2613 0.0000 0.0000
# 5 0.0000 0.0000 0.0000 0.0000 -305.9068 0.0000
# 6 0.0000 0.0000 0.0000 0.0000 0.0000 13.9710
#
#
#
# Elastic Compliance Matrix: (Units=1/GPa)
#
#
# Indices 1 2 3 4 5 6 
#
# 1 0.014222 0.000793 -0.000961 0.000000 0.000000 0.000000
# 2 0.000793 0.008802 -0.008083 0.000000 0.000000 0.000000
# 3 -0.000961 -0.008083 0.019948 0.000000 0.000000 0.000000
# 4 0.000000 0.000000 0.000000 -0.036682 0.000000 0.000000
# 5 0.000000 0.000000 0.000000 0.000000 -0.003269 0.000000
# 6 0.000000 0.000000 0.000000 0.000000 0.000000 0.071577
#
#
# Mechanical properties :
#
#
# Convention : Reuss Voigt Hill
#
# Bulk Modulus (GPa) = 37.77838 52.28823 45.03331
# Shear Modulus (GPa) = 50.03850 -46.33982 1.84934
#
# Velocity S-wave (km/s) = 4.94285 -4.75667 0.95024
# Velocity P-wave (km/s) = 7.14293 2.15351 4.81580
#
# Compressibility (1/GPa) = 0.02647016
#
# Stress axis : x y z
#
# Youngs Moduli (GPa) = 70.31452 113.60774 50.13047
#
# Poissons Ratio (x) = -0.09012 0.04819
# Poissons Ratio (y) = -0.05578 0.40520
# Poissons Ratio (z) = 0.06759 0.91829
#
# Static dielectric constant tensor:
#      x y z
#    x 1.774340 0.000000 0.000000 
#    y 0.000000 1.743790 0.000000 
#    z 0.000000 0.000000 1.698980 
# 
# From -- ./inp_files/50294.got.cif
#   From: 2010.05.17/outbox.cif.g08.bks.cpg/sg65_26_cif.got.tgz:50294.got - 2010.06.03 17:01:31.
