data_PCOD9485597
_publ_section_title
;
Structure prediction by ZEFSAII (Michael W. Deem and Ramdas Pophale) SiO2 
 PCOD9485597
Probable space group: C M M M
;
_chemical_formula_sum "Si O2"
_cell_formula_units_Z 64
_cell_length_a 26.217960
_cell_length_b 7.958702
_cell_length_c 19.016566
_cell_angle_alpha 90.000000
_cell_angle_beta 90.000000
_cell_angle_gamma 90.000000
_cell_volume 3968.014360
_symmetry_space_group_name_H-M "C M M M"
_symmetry_group_IT_number 65
_symmetry_cell_setting 'orthorhombic'
loop_
_space_group_symop_operation_xyz
x,y,z
-x,-y,z
x,-y,-z
-x,y,-z
-x,-y,-z
x,y,-z
-x,y,z
x,-y,z
1/2+x,1/2+y,z
1/2-x,1/2-y,z
1/2+x,1/2-y,-z
1/2-x,1/2+y,-z
1/2-x,1/2-y,-z
1/2+x,1/2+y,-z
1/2-x,1/2+y,z
1/2+x,1/2-y,z
loop_
_atom_site_type_symbol
_atom_site_label
_atom_site_fract_x
_atom_site_fract_y
_atom_site_fract_z
Si Si1 0.807378 0.797594 0.080172
Si Si2 0.000000 0.297657 0.918433
Si Si3 0.937993 0.000000 0.419554
Si Si4 0.438812 0.810932 0.677796
Si Si5 0.098011 0.200166 0.827737
O O1 0.750000 0.750000 0.100952
O O2 0.851166 0.738102 0.132809
O O3 0.810685 0.000000 0.078224
O O4 0.815800 0.735629 0.000000
O O5 0.950022 0.233202 0.878392
O O6 0.000000 0.500000 0.915433
O O7 0.000000 0.245245 0.000000
O O8 0.922878 0.833744 0.376450
O O9 0.920020 0.000000 0.500000
O O10 0.000000 0.000000 0.421448
O O11 0.500000 0.792821 0.689342
O O12 0.412527 0.784656 0.752971
O O13 0.429669 0.000000 0.651610
O O14 0.101865 0.000000 0.815898
#
# Coordination Sequence:
#
# PCOD9485597 Si02
#       5
#    16   8   8  16  16
#     4   9  19  34  50  68  92 127 170 216 262 303
#     4  11  23  33  43  67  97 128 173 217 253 301
#     4   9  18  32  50  72 100 136 170 200 244 301
#     4  10  19  31  48  72 102 135 169 204 249 297
#     4  11  20  32  50  69  96 133 171 210 255 305
#
# _framework density 16.128972999999998
#
# number of rings (size 3 to 8) (size 9 to 14) (size 15 to 20)
#    0.000    2.000    2.500    1.875    0.000    4.500 
#    0.000    5.000    0.000    0.000    0.000    0.000 
#    0.000    1.000    0.500    0.000    0.000    0.000 
#
# Total GULP energy -178576.143339 kJ/mol
# GULP energy per Si atom -5580.504479 kJ/mol
# Density = 1.609226 g / cm^3
# Si number density = 16.128973 Si / 1000 Ang^3
#
#
#
# Elastic Constant Matrix: (Units=GPa)
#
#
# Indices 1 2 3 4 5 6 
#
# 1 78.1035 25.0458 52.4678 0.0000 0.0000 0.0000
# 2 25.0458 81.1199 49.7922 0.0000 0.0000 0.0000
# 3 52.4678 49.7922 124.5591 0.0000 0.0000 0.0000
# 4 0.0000 0.0000 0.0000 12.4570 0.0000 0.0000
# 5 0.0000 0.0000 0.0000 0.0000 12.3643 0.0000
# 6 0.0000 0.0000 0.0000 0.0000 0.0000 17.8251
#
#
#
# Elastic Compliance Matrix: (Units=1/GPa)
#
#
# Indices 1 2 3 4 5 6 
#
# 1 0.017943 -0.001194 -0.007081 0.000000 0.000000 0.000000
# 2 -0.001194 0.016415 -0.006059 0.000000 0.000000 0.000000
# 3 -0.007081 -0.006059 0.013433 0.000000 0.000000 0.000000
# 4 0.000000 0.000000 0.000000 0.080276 0.000000 0.000000
# 5 0.000000 0.000000 0.000000 0.000000 0.080878 0.000000
# 6 0.000000 0.000000 0.000000 0.000000 0.000000 0.056101
#
#
# Mechanical properties :
#
#
# Convention : Reuss Voigt Hill
#
# Bulk Modulus (GPa) = 52.29044 59.82157 56.05600
# Shear Modulus (GPa) = 16.66179 18.96107 17.81143
#
# Velocity S-wave (km/s) = 3.21757 3.43241 3.32673
# Velocity P-wave (km/s) = 6.80399 7.27177 7.04176
#
# Compressibility (1/GPa) = 0.01912396
#
# Stress axis : x y z
#
# Youngs Moduli (GPa) = 55.73173 60.91951 74.44257
#
# Poissons Ratio (x) = 0.07271 0.52713
# Poissons Ratio (y) = 0.06652 0.45106
# Poissons Ratio (z) = 0.39464 0.36912
#
# Static dielectric constant tensor:
#      x y z
#    x 1.514070 0.000000 0.000000 
#    y 0.000000 1.574910 0.000000 
#    z 0.000000 0.000000 1.522430 
# 
# From -- ./inp_files/36391.got.cif
#   From: 2010.05.17/outbox.cif.g08.bks.cpg/sg65_19_cif.got.tgz:36391.got - 2010.06.03 17:01:31.
