data_PCOD9485634
_publ_section_title
;
Structure prediction by ZEFSAII (Michael W. Deem and Ramdas Pophale) SiO2 
 PCOD9485634
Probable space group: C M M M
;
_chemical_formula_sum "Si O2"
_cell_formula_units_Z 72
_cell_length_a 18.915798
_cell_length_b 7.380588
_cell_length_c 24.403953
_cell_angle_alpha 90.000000
_cell_angle_beta 90.000000
_cell_angle_gamma 90.000000
_cell_volume 3407.028843
_symmetry_space_group_name_H-M "C M M M"
_symmetry_group_IT_number 65
_symmetry_cell_setting 'orthorhombic'
loop_
_space_group_symop_operation_xyz
x,y,z
-x,-y,z
x,-y,-z
-x,y,-z
-x,-y,-z
x,y,-z
-x,y,z
x,-y,z
1/2+x,1/2+y,z
1/2-x,1/2-y,z
1/2+x,1/2-y,-z
1/2-x,1/2+y,-z
1/2-x,1/2-y,-z
1/2+x,1/2+y,-z
1/2-x,1/2+y,z
1/2+x,1/2-y,z
loop_
_atom_site_type_symbol
_atom_site_label
_atom_site_fract_x
_atom_site_fract_y
_atom_site_fract_z
Si Si1 0.666366 0.283711 0.000000
Si Si2 0.166979 0.783564 0.334710
Si Si3 0.418182 0.721750 0.107057
Si Si4 0.917682 0.220683 0.439730
Si Si5 0.833340 0.216630 0.786953
O O1 0.750000 0.250000 0.000000
O O2 0.627396 0.217226 0.054775
O O3 0.657366 0.500000 0.000000
O O4 0.250000 0.750000 0.342201
O O5 0.124720 0.713160 0.387033
O O6 0.148117 0.713572 0.273920
O O7 0.155693 0.000000 0.333314
O O8 0.500000 0.776072 0.103292
O O9 0.417246 0.500000 0.107244
O O10 0.380860 0.783528 0.163096
O O11 0.891418 0.278648 0.500000
O O12 0.000000 0.270284 0.435355
O O13 0.914758 0.000000 0.439511
O O14 0.750000 0.250000 0.796749
O O15 0.842281 0.000000 0.785360
#
# Coordination Sequence:
#
# PCOD9485634 Si02
#       5
#     8  16  16  16  16
#     4  10  19  31  49  69  89 116 146 176 212 254
#     4   9  17  28  43  64  87 111 140 174 212 252
#     4   9  17  29  46  68  90 112 143 181 215 247
#     4   8  14  25  41  61  84 109 139 176 214 250
#     4   9  17  29  45  64  87 114 142 174 211 252
#
# _framework density 21.132781999999999
#
# number of rings (size 3 to 8) (size 9 to 14) (size 15 to 20)
#    0.000    3.111    0.000    1.667    0.000    2.667 
#    0.000    4.444    0.000    4.000    0.000    7.778 
#    0.000    0.000    0.000    0.000    0.000    0.000 
#
# Total GULP energy -200897.104628 kJ/mol
# GULP energy per Si atom -5580.475129 kJ/mol
# Density = 2.108468 g / cm^3
# Si number density = 21.132782 Si / 1000 Ang^3
#
#
#
# Elastic Constant Matrix: (Units=GPa)
#
#
# Indices 1 2 3 4 5 6 
#
# 1 134.7145 -1.1850 150.3436 0.0000 0.0000 0.0000
# 2 -1.1850 76.0483 12.4060 0.0000 0.0000 0.0000
# 3 150.3436 12.4060 273.4724 0.0000 0.0000 0.0000
# 4 0.0000 0.0000 0.0000 22.3648 0.0000 0.0000
# 5 0.0000 0.0000 0.0000 0.0000 63.2525 0.0000
# 6 0.0000 0.0000 0.0000 0.0000 0.0000 16.7324
#
#
#
# Elastic Compliance Matrix: (Units=1/GPa)
#
#
# Indices 1 2 3 4 5 6 
#
# 1 0.019526 0.002071 -0.010829 0.000000 0.000000 0.000000
# 2 0.002071 0.013467 -0.001749 0.000000 0.000000 0.000000
# 3 -0.010829 -0.001749 0.009689 0.000000 0.000000 0.000000
# 4 0.000000 0.000000 0.000000 0.044713 0.000000 0.000000
# 5 0.000000 0.000000 0.000000 0.000000 0.015810 0.000000
# 6 0.000000 0.000000 0.000000 0.000000 0.000000 0.059764
#
#
# Mechanical properties :
#
#
# Convention : Reuss Voigt Hill
#
# Bulk Modulus (GPa) = 46.15070 89.70716 67.92893
# Shear Modulus (GPa) = 26.14967 41.98132 34.06549
#
# Velocity S-wave (km/s) = 3.52148 4.46191 4.01930
# Velocity P-wave (km/s) = 6.19841 8.31182 7.33166
#
# Compressibility (1/GPa) = 0.02166814
#
# Stress axis : x y z
#
# Youngs Moduli (GPa) = 51.21298 74.25462 103.20786
#
# Poissons Ratio (x) = -0.15377 1.11760
# Poissons Ratio (y) = -0.10605 0.18055
# Poissons Ratio (z) = 0.55457 0.12990
#
# Static dielectric constant tensor:
#      x y z
#    x 1.689800 0.000000 0.000000 
#    y 0.000000 1.810600 0.000000 
#    z 0.000000 0.000000 1.772090 
# 
# From -- ./inp_files/59270.got.cif
#   From: 2010.05.17/outbox.cif.g08.bks.cpg/sg65_30_cif.got.tgz:59270.got - 2010.06.03 17:01:31.
