data_PCOD9485796
_publ_section_title
;
Structure prediction by ZEFSAII (Michael W. Deem and Ramdas Pophale) SiO2 
 PCOD9485796
Probable space group: C M M M
;
_chemical_formula_sum "Si O2"
_cell_formula_units_Z 72
_cell_length_a 27.896023
_cell_length_b 9.597529
_cell_length_c 15.636186
_cell_angle_alpha 90.000000
_cell_angle_beta 90.000000
_cell_angle_gamma 90.000000
_cell_volume 4186.321262
_symmetry_space_group_name_H-M "C M M M"
_symmetry_group_IT_number 65
_symmetry_cell_setting 'orthorhombic'
loop_
_space_group_symop_operation_xyz
x,y,z
-x,-y,z
x,-y,-z
-x,y,-z
-x,-y,-z
x,y,-z
-x,y,z
x,-y,z
1/2+x,1/2+y,z
1/2-x,1/2-y,z
1/2+x,1/2-y,-z
1/2-x,1/2+y,-z
1/2-x,1/2-y,-z
1/2+x,1/2+y,-z
1/2-x,1/2+y,z
1/2+x,1/2-y,z
loop_
_atom_site_type_symbol
_atom_site_label
_atom_site_fract_x
_atom_site_fract_y
_atom_site_fract_z
Si Si1 0.337440 0.839264 0.342660
Si Si2 0.500000 0.169842 0.100114
Si Si3 0.250000 0.750000 0.770075
Si Si4 0.100121 0.666530 0.181509
Si Si5 0.822552 0.151763 0.095681
Si Si6 0.698521 0.668970 0.500000
O O1 0.288128 0.830947 0.287977
O O2 0.380439 0.801387 0.277143
O O3 0.329758 0.728069 0.417641
O O4 0.343490 0.000000 0.372419
O O5 0.547688 0.213599 0.151335
O O6 0.500000 0.000000 0.098861
O O7 0.500000 0.213960 0.000000
O O8 0.218655 0.842659 0.833810
O O9 0.101680 0.500000 0.174994
O O10 0.138988 0.732009 0.118202
O O11 0.846278 0.000000 0.100468
O O12 0.803490 0.169859 0.000000
O O13 0.704157 0.500000 0.500000
O O14 0.750000 0.750000 0.500000
#
# Coordination Sequence:
#
# PCOD9485796 Si02
#       6
#    16   8   8  16  16   8
#     4  10  20  34  52  76 105 134 173 217 262 311
#     4   9  16  30  55  84 111 140 178 221 265 311
#     4  10  19  31  50  68  98 136 178 207 257 308
#     4   9  19  34  54  78 104 137 176 220 265 314
#     4  10  20  32  46  69 102 139 178 218 259 307
#     4  12  24  36  56  79 106 137 173 214 261 317
#
# _framework density 17.198872000000001
#
# number of rings (size 3 to 8) (size 9 to 14) (size 15 to 20)
#    0.000    2.111    1.111    2.667    0.000    5.778 
#    0.000    0.556    0.000    2.667    0.000    4.667 
#    0.000    0.000    0.000    0.000    0.000    0.000 
#
# Total GULP energy -200557.021338 kJ/mol
# GULP energy per Si atom -5571.028371 kJ/mol
# Density = 1.715973 g / cm^3
# Si number density = 17.198872 Si / 1000 Ang^3
#
#
#
# Elastic Constant Matrix: (Units=GPa)
#
#
# Indices 1 2 3 4 5 6 
#
# 1 103.2114 24.7910 52.8681 0.0000 0.0000 0.0000
# 2 24.7910 67.9621 51.3701 0.0000 0.0000 0.0000
# 3 52.8681 51.3701 111.8551 0.0000 0.0000 0.0000
# 4 0.0000 0.0000 0.0000 100.8185 0.0000 0.0000
# 5 0.0000 0.0000 0.0000 0.0000 15.6999 0.0000
# 6 0.0000 0.0000 0.0000 0.0000 0.0000 12.3796
#
#
#
# Elastic Compliance Matrix: (Units=1/GPa)
#
#
# Indices 1 2 3 4 5 6 
#
# 1 0.012785 -0.000147 -0.005975 0.000000 0.000000 0.000000
# 2 -0.000147 0.022539 -0.010282 0.000000 0.000000 0.000000
# 3 -0.005975 -0.010282 0.016486 0.000000 0.000000 0.000000
# 4 0.000000 0.000000 0.000000 0.009919 0.000000 0.000000
# 5 0.000000 0.000000 0.000000 0.000000 0.063695 0.000000
# 6 0.000000 0.000000 0.000000 0.000000 0.000000 0.080778
#
#
# Mechanical properties :
#
#
# Convention : Reuss Voigt Hill
#
# Bulk Modulus (GPa) = 52.62536 60.12078 56.37307
# Shear Modulus (GPa) = 20.37952 36.04622 28.21287
#
# Velocity S-wave (km/s) = 3.44602 4.58301 4.05457
# Velocity P-wave (km/s) = 6.81894 7.93961 7.40052
#
# Compressibility (1/GPa) = 0.01900225
#
# Stress axis : x y z
#
# Youngs Moduli (GPa) = 78.21751 44.36675 60.65673
#
# Poissons Ratio (x) = 0.00653 0.36243
# Poissons Ratio (y) = 0.01152 0.62366
# Poissons Ratio (z) = 0.46736 0.45617
#
# Static dielectric constant tensor:
#      x y z
#    x 1.575850 0.000000 0.000000 
#    y 0.000000 1.600170 0.000000 
#    z 0.000000 0.000000 1.605690 
# 
# From -- ./inp_files/46567.got.cif
#   From: 2010.05.17/outbox.cif.g08.bks.cpg/sg65_24_cif.got.tgz:46567.got - 2010.06.03 17:01:31.
