data_PCOD9485749
_publ_section_title
;
Structure prediction by ZEFSAII (Michael W. Deem and Ramdas Pophale) SiO2 
 PCOD9485749
Probable space group: C M M M
;
_chemical_formula_sum "Si O2"
_cell_formula_units_Z 88
_cell_length_a 27.988110
_cell_length_b 8.914906
_cell_length_c 21.641901
_cell_angle_alpha 90.000000
_cell_angle_beta 90.000000
_cell_angle_gamma 90.000000
_cell_volume 5399.900363
_symmetry_space_group_name_H-M "C M M M"
_symmetry_group_IT_number 65
_symmetry_cell_setting 'orthorhombic'
loop_
_space_group_symop_operation_xyz
x,y,z
-x,-y,z
x,-y,-z
-x,y,-z
-x,-y,-z
x,y,-z
-x,y,z
x,-y,z
1/2+x,1/2+y,z
1/2-x,1/2-y,z
1/2+x,1/2-y,-z
1/2-x,1/2+y,-z
1/2-x,1/2-y,-z
1/2+x,1/2+y,-z
1/2-x,1/2+y,z
1/2+x,1/2-y,z
loop_
_atom_site_type_symbol
_atom_site_label
_atom_site_fract_x
_atom_site_fract_y
_atom_site_fract_z
Si Si1 0.056288 0.679904 0.929361
Si Si2 0.801745 0.320463 0.751536
Si Si3 0.856084 0.680070 0.374623
Si Si4 0.554567 0.680528 0.687901
Si Si5 0.697175 0.181627 0.500000
Si Si6 0.391386 0.320670 0.185892
O O1 0.061701 0.500000 0.923127
O O2 0.086666 0.762207 0.877612
O O3 0.000000 0.714071 0.921036
O O4 0.069170 0.720177 0.000000
O O5 0.799710 0.500000 0.756376
O O6 0.750000 0.250000 0.760807
O O7 0.821576 0.281193 0.682997
O O8 0.840854 0.254737 0.798369
O O9 0.861325 0.500000 0.375367
O O10 0.907312 0.751642 0.359647
O O11 0.831824 0.727049 0.438632
O O12 0.500000 0.730983 0.679145
O O13 0.555680 0.500000 0.683169
O O14 0.573496 0.719754 0.756723
O O15 0.750000 0.250000 0.500000
O O16 0.701037 0.000000 0.500000
O O17 0.386540 0.500000 0.185185
#
# Coordination Sequence:
#
# PCOD9485749 Si02
#       6
#    16  16  16  16   8  16
#     4   9  18  32  49  71 101 134 164 195 234 281
#     4  10  19  32  50  72  97 125 159 198 242 289
#     4   9  19  33  49  71  97 125 158 196 238 287
#     4   9  18  32  49  70  97 127 160 199 239 280
#     4  10  20  34  51  72  97 123 156 197 241 288
#     4  10  19  31  49  73  99 127 161 201 242 283
#
# _framework density 16.296596999999998
#
# number of rings (size 3 to 8) (size 9 to 14) (size 15 to 20)
#    0.000    2.545    0.000    2.727    0.000    4.000 
#    0.000    1.364    0.000    3.273    0.000    0.000 
#    0.000    0.000    0.000    0.000    0.000    0.000 
#
# Total GULP energy -245442.435063 kJ/mol
# GULP energy per Si atom -5578.237161 kJ/mol
# Density = 1.625951 g / cm^3
# Si number density = 16.296597 Si / 1000 Ang^3
#
#
#
# Elastic Constant Matrix: (Units=GPa)
#
#
# Indices 1 2 3 4 5 6 
#
# 1 164.8352 52.5715 87.8002 0.0000 0.0000 0.0000
# 2 52.5715 34.3029 45.9104 0.0000 0.0000 0.0000
# 3 87.8002 45.9104 129.3768 0.0000 0.0000 0.0000
# 4 0.0000 0.0000 0.0000 23.0803 0.0000 0.0000
# 5 0.0000 0.0000 0.0000 0.0000 21.0320 0.0000
# 6 0.0000 0.0000 0.0000 0.0000 0.0000 32.1073
#
#
#
# Elastic Compliance Matrix: (Units=1/GPa)
#
#
# Indices 1 2 3 4 5 6 
#
# 1 0.012533 -0.014902 -0.003218 0.000000 0.000000 0.000000
# 2 -0.014902 0.073239 -0.015877 0.000000 0.000000 0.000000
# 3 -0.003218 -0.015877 0.015547 0.000000 0.000000 0.000000
# 4 0.000000 0.000000 0.000000 0.043327 0.000000 0.000000
# 5 0.000000 0.000000 0.000000 0.000000 0.047547 0.000000
# 6 0.000000 0.000000 0.000000 0.000000 0.000000 0.031146
#
#
# Mechanical properties :
#
#
# Convention : Reuss Voigt Hill
#
# Bulk Modulus (GPa) = 30.00543 77.89768 53.95155
# Shear Modulus (GPa) = 16.53231 24.72610 20.62920
#
# Velocity S-wave (km/s) = 3.18852 3.89942 3.56175
# Velocity P-wave (km/s) = 5.65753 8.25698 7.07762
#
# Compressibility (1/GPa) = 0.03332730
#
# Stress axis : x y z
#
# Youngs Moduli (GPa) = 79.78884 13.65400 64.32177
#
# Poissons Ratio (x) = 0.20347 0.20696
# Poissons Ratio (y) = 1.18898 1.02121
# Poissons Ratio (z) = 0.25672 0.21678
#
# Static dielectric constant tensor:
#      x y z
#    x 1.521700 0.000000 0.000000 
#    y 0.000000 1.542860 0.000000 
#    z 0.000000 0.000000 1.533910 
# 
# From -- ./inp_files/57967.got.cif
#   From: 2010.05.17/outbox.cif.g08.bks.cpg/sg65_29_cif.got.tgz:57967.got - 2010.06.03 17:01:31.
