data_PCOD9485050
_publ_section_title
;
Structure prediction by ZEFSAII (Michael W. Deem and Ramdas Pophale) SiO2 
 PCOD9485050
Probable space group: C M M M
;
_chemical_formula_sum "Si O2"
_cell_formula_units_Z 72
_cell_length_a 8.570951
_cell_length_b 23.958736
_cell_length_c 21.718050
_cell_angle_alpha 90.000000
_cell_angle_beta 90.000000
_cell_angle_gamma 90.000000
_cell_volume 4459.783157
_symmetry_space_group_name_H-M "C M M M"
_symmetry_group_IT_number 65
_symmetry_cell_setting 'orthorhombic'
loop_
_space_group_symop_operation_xyz
x,y,z
-x,-y,z
x,-y,-z
-x,y,-z
-x,-y,-z
x,y,-z
-x,y,z
x,-y,z
1/2+x,1/2+y,z
1/2-x,1/2-y,z
1/2+x,1/2-y,-z
1/2-x,1/2+y,-z
1/2-x,1/2-y,-z
1/2+x,1/2+y,-z
1/2-x,1/2+y,z
1/2+x,1/2-y,z
loop_
_atom_site_type_symbol
_atom_site_label
_atom_site_fract_x
_atom_site_fract_y
_atom_site_fract_z
Si Si1 0.811880 0.813542 0.000000
Si Si2 0.311286 0.883448 0.618440
Si Si3 0.186769 0.000000 0.428116
Si Si4 0.312060 0.187735 0.500000
Si Si5 0.812520 0.813622 0.866826
Si Si6 0.687031 0.186614 0.262489
O O1 0.750000 0.750000 0.000000
O O2 0.765567 0.838681 0.066425
O O3 0.000000 0.811270 0.000000
O O4 0.500000 0.886266 0.618419
O O5 0.246566 0.944811 0.606069
O O6 0.261195 0.845309 0.560789
O O7 0.262645 0.852882 0.681334
O O8 0.241552 0.000000 0.500000
O O9 0.000000 0.000000 0.428910
O O10 0.500000 0.189151 0.500000
O O11 0.250000 0.250000 0.500000
O O12 0.750000 0.750000 0.868082
O O13 0.744394 0.836745 0.803366
O O14 0.000000 0.813075 0.862773
O O15 0.500000 0.189928 0.261936
O O16 0.750000 0.250000 0.270343
#
# Coordination Sequence:
#
# PCOD9485050 Si02
#       6
#     8  16   8   8  16  16
#     4   8  14  22  34  54  80 115 158 191 222 264
#     4  10  21  36  53  69  92 125 157 188 231 284
#     4  11  23  37  55  77  93 112 149 198 243 277
#     4  10  20  33  50  71  93 122 154 186 225 270
#     4   9  15  24  38  57  85 121 156 192 228 268
#     4  10  19  30  45  68  95 126 159 191 231 278
#
# _framework density 16.144283999999999
#
# number of rings (size 3 to 8) (size 9 to 14) (size 15 to 20)
#    0.000    2.333    1.111    3.667    0.000    4.000 
#    0.000    0.000    0.000    0.000    0.000    0.000 
#    0.000    0.889    0.000   10.000    0.000    5.111 
#
# Total GULP energy -200546.975292 kJ/mol
# GULP energy per Si atom -5570.749314 kJ/mol
# Density = 1.610754 g / cm^3
# Si number density = 16.144284 Si / 1000 Ang^3
#
#
#
# Elastic Constant Matrix: (Units=GPa)
#
#
# Indices 1 2 3 4 5 6 
#
# 1 28.0528 18.4937 36.0022 0.0000 0.0000 0.0000
# 2 18.4937 91.2366 68.2022 0.0000 0.0000 0.0000
# 3 36.0022 68.2022 201.8475 0.0000 0.0000 0.0000
# 4 0.0000 0.0000 0.0000 2.1058 0.0000 0.0000
# 5 0.0000 0.0000 0.0000 0.0000 22.3277 0.0000
# 6 0.0000 0.0000 0.0000 0.0000 0.0000 21.0506
#
#
#
# Elastic Compliance Matrix: (Units=1/GPa)
#
#
# Indices 1 2 3 4 5 6 
#
# 1 0.047520 -0.004410 -0.006986 0.000000 0.000000 0.000000
# 2 -0.004410 0.015074 -0.004307 0.000000 0.000000 0.000000
# 3 -0.006986 -0.004307 0.007655 0.000000 0.000000 0.000000
# 4 0.000000 0.000000 0.000000 0.474874 0.000000 0.000000
# 5 0.000000 0.000000 0.000000 0.000000 0.044787 0.000000
# 6 0.000000 0.000000 0.000000 0.000000 0.000000 0.047505
#
#
# Mechanical properties :
#
#
# Convention : Reuss Voigt Hill
#
# Bulk Modulus (GPa) = 25.74414 62.94810 44.34612
# Shear Modulus (GPa) = 7.33387 22.32607 14.82997
#
# Velocity S-wave (km/s) = 2.13367 3.72278 3.03411
# Velocity P-wave (km/s) = 4.69585 7.58646 6.30894
#
# Compressibility (1/GPa) = 0.03884379
#
# Stress axis : x y z
#
# Youngs Moduli (GPa) = 21.04394 66.34013 130.62725
#
# Poissons Ratio (x) = 0.29258 0.91250
# Poissons Ratio (y) = 0.09281 0.56257
# Poissons Ratio (z) = 0.14700 0.28570
#
# Static dielectric constant tensor:
#      x y z
#    x 1.553030 0.000000 0.000000 
#    y 0.000000 1.494270 0.000000 
#    z 0.000000 0.000000 1.607650 
# 
# From -- ./inp_files/59569.got.cif
#   From: 2010.05.17/outbox.cif.g08.bks.cpg/sg65_30_cif.got.tgz:59569.got - 2010.06.03 17:01:31.
