data_PCOD9485054
_publ_section_title
;
Structure prediction by ZEFSAII (Michael W. Deem and Ramdas Pophale) SiO2 
 PCOD9485054
Probable space group: C M M M
;
_chemical_formula_sum "Si O2"
_cell_formula_units_Z 92
_cell_length_a 24.328041
_cell_length_b 29.411277
_cell_length_c 7.410854
_cell_angle_alpha 90.000000
_cell_angle_beta 90.000000
_cell_angle_gamma 90.000000
_cell_volume 5302.605011
_symmetry_space_group_name_H-M "C M M M"
_symmetry_group_IT_number 65
_symmetry_cell_setting 'orthorhombic'
loop_
_space_group_symop_operation_xyz
x,y,z
-x,-y,z
x,-y,-z
-x,y,-z
-x,-y,-z
x,y,-z
-x,y,z
x,-y,z
1/2+x,1/2+y,z
1/2-x,1/2-y,z
1/2+x,1/2-y,-z
1/2-x,1/2+y,-z
1/2-x,1/2-y,-z
1/2+x,1/2+y,-z
1/2-x,1/2+y,z
1/2+x,1/2-y,z
loop_
_atom_site_type_symbol
_atom_site_label
_atom_site_fract_x
_atom_site_fract_y
_atom_site_fract_z
Si Si1 0.252434 0.923431 0.291320
Si Si2 0.165300 0.764676 0.215853
Si Si3 0.937882 0.820503 0.285727
Si Si4 0.062826 0.000000 0.720005
Si Si5 0.626029 0.409594 0.719622
Si Si6 0.768870 0.322664 0.781449
Si Si7 0.281066 0.000000 0.000000
O O1 0.251078 0.938989 0.500000
O O2 0.189413 0.914304 0.228306
O O3 0.279156 0.873366 0.284392
O O4 0.278077 0.960051 0.158310
O O5 0.103542 0.778616 0.260215
O O6 0.187317 0.715634 0.276723
O O7 0.209295 0.802840 0.279247
O O8 0.169897 0.764427 0.000000
O O9 0.942708 0.827278 0.500000
O O10 0.905648 0.864872 0.214329
O O11 0.000000 0.815574 0.215019
O O12 0.094059 0.954721 0.777286
O O13 0.062906 0.000000 0.500000
O O14 0.000000 0.000000 0.778869
O O15 0.625642 0.408144 0.500000
O O16 0.768488 0.324193 0.000000
#
# Coordination Sequence:
#
# PCOD9485054 Si02
#       7
#    16  16  16   8  16  16   4
#     4  11  21  34  53  75  97 133 174 210 260 319
#     4   9  18  31  51  72  98 130 166 209 259 313
#     4  10  19  30  45  68  99 132 167 212 262 305
#     4   9  15  24  39  56  77 112 161 216 263 295
#     4   9  17  29  43  63  88 119 170 219 256 304
#     4   9  17  33  52  74  98 127 165 214 264 306
#     4  12  24  36  50  70 109 132 161 216 272 306
#
# _framework density 17.349962999999999
#
# number of rings (size 3 to 8) (size 9 to 14) (size 15 to 20)
#    0.000    2.348    2.609    2.348    0.000    4.522 
#    0.000    1.739    0.000    0.000    0.000    1.826 
#    0.000    0.000    0.000    1.565    0.000    6.609 
#
# Total GULP energy -256179.710670 kJ/mol
# GULP energy per Si atom -5569.124145 kJ/mol
# Density = 1.731047 g / cm^3
# Si number density = 17.349963 Si / 1000 Ang^3
#
#
#
# Elastic Constant Matrix: (Units=GPa)
#
#
# Indices 1 2 3 4 5 6 
#
# 1 38.3305 23.8989 -2.9617 0.0000 0.0000 0.0000
# 2 23.8989 118.1751 14.4889 0.0000 0.0000 0.0000
# 3 -2.9617 14.4889 81.5182 0.0000 0.0000 0.0000
# 4 0.0000 0.0000 0.0000 20.3344 0.0000 0.0000
# 5 0.0000 0.0000 0.0000 0.0000 2.7029 0.0000
# 6 0.0000 0.0000 0.0000 0.0000 0.0000 11.2678
#
#
#
# Elastic Compliance Matrix: (Units=1/GPa)
#
#
# Indices 1 2 3 4 5 6 
#
# 1 0.030246 -0.006391 0.002235 0.000000 0.000000 0.000000
# 2 -0.006391 0.010001 -0.002010 0.000000 0.000000 0.000000
# 3 0.002235 -0.002010 0.012706 0.000000 0.000000 0.000000
# 4 0.000000 0.000000 0.000000 0.049178 0.000000 0.000000
# 5 0.000000 0.000000 0.000000 0.000000 0.369979 0.000000
# 6 0.000000 0.000000 0.000000 0.000000 0.000000 0.088748
#
#
# Mechanical properties :
#
#
# Convention : Reuss Voigt Hill
#
# Bulk Modulus (GPa) = 24.61768 34.31954 29.46861
# Shear Modulus (GPa) = 8.52181 20.36753 14.44467
#
# Velocity S-wave (km/s) = 2.21864 3.42997 2.88852
# Velocity P-wave (km/s) = 4.55882 5.95903 5.30532
#
# Compressibility (1/GPa) = 0.04062122
#
# Stress axis : x y z
#
# Youngs Moduli (GPa) = 33.06199 99.99158 78.70549
#
# Poissons Ratio (x) = 0.63902 -0.17589
# Poissons Ratio (y) = 0.21129 0.15818
# Poissons Ratio (z) = -0.07389 0.20095
#
# Static dielectric constant tensor:
#      x y z
#    x 1.587000 0.000000 0.000000 
#    y 0.000000 1.598460 0.000000 
#    z 0.000000 0.000000 1.669290 
# 
# From -- ./inp_files/16943.got.cif
#   From: 2010.05.17/outbox.cif.g08.bks.cpg/sg65_9_cif.got.tgz:16943.got - 2010.06.03 17:01:31.
