data_PCOD9485365
_publ_section_title
;
Structure prediction by ZEFSAII (Michael W. Deem and Ramdas Pophale) SiO2 
 PCOD9485365
Probable space group: C M M M
;
_chemical_formula_sum "Si O2"
_cell_formula_units_Z 96
_cell_length_a 27.881844
_cell_length_b 7.650744
_cell_length_c 25.116036
_cell_angle_alpha 90.000000
_cell_angle_beta 90.000000
_cell_angle_gamma 90.000000
_cell_volume 5357.673701
_symmetry_space_group_name_H-M "C M M M"
_symmetry_group_IT_number 65
_symmetry_cell_setting 'orthorhombic'
loop_
_space_group_symop_operation_xyz
x,y,z
-x,-y,z
x,-y,-z
-x,y,-z
-x,-y,-z
x,y,-z
-x,y,z
x,-y,z
1/2+x,1/2+y,z
1/2-x,1/2-y,z
1/2+x,1/2-y,-z
1/2-x,1/2+y,-z
1/2-x,1/2-y,-z
1/2+x,1/2+y,-z
1/2-x,1/2+y,z
1/2+x,1/2-y,z
loop_
_atom_site_type_symbol
_atom_site_label
_atom_site_fract_x
_atom_site_fract_y
_atom_site_fract_z
Si Si1 0.554080 0.788595 0.834459
Si Si2 0.693637 0.710593 0.000000
Si Si3 0.650574 0.291895 0.110347
Si Si4 0.558266 0.794664 0.500000
Si Si5 0.899708 0.705319 0.275397
Si Si6 0.304839 0.707978 0.779766
Si Si7 0.443928 0.785995 0.615755
O O1 0.500000 0.729053 0.845512
O O2 0.594727 0.737891 0.876753
O O3 0.572140 0.723351 0.776404
O O4 0.553688 0.000000 0.832693
O O5 0.750000 0.750000 0.000000
O O6 0.669157 0.778498 0.054164
O O7 0.688097 0.500000 0.000000
O O8 0.658666 0.500000 0.109288
O O9 0.679714 0.222194 0.161719
O O10 0.500000 0.786771 0.500000
O O11 0.573237 0.722179 0.442440
O O12 0.571329 0.000000 0.500000
O O13 0.911782 0.500000 0.277037
O O14 0.843748 0.723448 0.262025
O O15 0.915396 0.776817 0.332496
O O16 0.310469 0.500000 0.780736
O O17 0.250000 0.750000 0.768248
O O18 0.500000 0.740934 0.622300
O O19 0.441784 0.000000 0.613808
#
# Coordination Sequence:
#
# PCOD9485365 Si02
#       7
#    16   8  16   8  16  16  16
#     4   9  17  29  45  65  89 117 148 179 208 242
#     4  10  20  34  51  70  89 109 138 175 215 258
#     4   9  19  33  48  67  89 112 139 171 209 256
#     4   7  10  16  28  52  86 117 142 171 206 241
#     4   9  16  26  42  64  88 114 144 176 211 249
#     4  10  19  31  46  64  86 110 137 171 213 257
#     4   8  12  19  34  58  88 118 145 173 205 243
#
# _framework density 17.918225
#
# number of rings (size 3 to 8) (size 9 to 14) (size 15 to 20)
#    0.000    3.083    0.000    2.500    0.000    3.667 
#    0.000    0.417    0.000    4.000    0.000    1.167 
#    0.000    2.000    0.000    0.000    0.000    0.000 
#
# Total GULP energy -267448.740218 kJ/mol
# GULP energy per Si atom -5571.848755 kJ/mol
# Density = 1.787744 g / cm^3
# Si number density = 17.918225 Si / 1000 Ang^3
#
#
#
# Elastic Constant Matrix: (Units=GPa)
#
#
# Indices 1 2 3 4 5 6 
#
# 1 105.1727 -16.4634 82.9606 0.0000 0.0000 0.0000
# 2 -16.4634 29.9139 5.0512 0.0000 0.0000 0.0000
# 3 82.9606 5.0512 181.1690 0.0000 0.0000 0.0000
# 4 0.0000 0.0000 0.0000 -3.2869 0.0000 0.0000
# 5 0.0000 0.0000 0.0000 0.0000 18.7900 0.0000
# 6 0.0000 0.0000 0.0000 0.0000 0.0000 14.8775
#
#
#
# Elastic Compliance Matrix: (Units=1/GPa)
#
#
# Indices 1 2 3 4 5 6 
#
# 1 0.018069 0.011395 -0.008592 0.000000 0.000000 0.000000
# 2 0.011395 0.040774 -0.006355 0.000000 0.000000 0.000000
# 3 -0.008592 -0.006355 0.009631 0.000000 0.000000 0.000000
# 4 0.000000 0.000000 0.000000 -0.304239 0.000000 0.000000
# 5 0.000000 0.000000 0.000000 0.000000 0.053220 0.000000
# 6 0.000000 0.000000 0.000000 0.000000 0.000000 0.067216
#
#
# Mechanical properties :
#
#
# Convention : Reuss Voigt Hill
#
# Bulk Modulus (GPa) = 16.29418 51.03916 33.66667
# Shear Modulus (GPa) = -56.96846 22.38992 -17.28927
#
# Velocity S-wave (km/s) = -5.64470 3.53875 -3.10965
# Velocity P-wave (km/s) = 5.77669 6.72632 2.43652
#
# Compressibility (1/GPa) = 0.06137161
#
# Stress axis : x y z
#
# Youngs Moduli (GPa) = 55.34214 24.52544 103.82768
#
# Poissons Ratio (x) = -0.27948 0.89209
# Poissons Ratio (y) = -0.63065 0.65983
# Poissons Ratio (z) = 0.47550 0.15586
#
# Static dielectric constant tensor:
#      x y z
#    x 1.600560 0.000000 0.000000 
#    y 0.000000 1.697520 0.000000 
#    z 0.000000 0.000000 1.649610 
# 
# From -- ./inp_files/71714.got.cif
#   From: 2010.05.17/outbox.cif.g08.bks.cpg/sg65_36_cif.got.tgz:71714.got - 2010.06.03 17:01:31.
