data_PCOD9485174
_publ_section_title
;
Structure prediction by ZEFSAII (Michael W. Deem and Ramdas Pophale) SiO2 
 PCOD9485174
Probable space group: C M M M
;
_chemical_formula_sum "Si O2"
_cell_formula_units_Z 80
_cell_length_a 7.348916
_cell_length_b 16.892952
_cell_length_c 28.330089
_cell_angle_alpha 90.000000
_cell_angle_beta 90.000000
_cell_angle_gamma 90.000000
_cell_volume 3517.035648
_symmetry_space_group_name_H-M "C M M M"
_symmetry_group_IT_number 65
_symmetry_cell_setting 'orthorhombic'
loop_
_space_group_symop_operation_xyz
x,y,z
-x,-y,z
x,-y,-z
-x,y,-z
-x,-y,-z
x,y,-z
-x,y,z
x,-y,z
1/2+x,1/2+y,z
1/2-x,1/2-y,z
1/2+x,1/2-y,-z
1/2-x,1/2+y,-z
1/2-x,1/2-y,-z
1/2+x,1/2+y,-z
1/2-x,1/2+y,z
1/2+x,1/2-y,z
loop_
_atom_site_type_symbol
_atom_site_label
_atom_site_fract_x
_atom_site_fract_y
_atom_site_fract_z
Si Si1 0.277803 0.000000 0.945270
Si Si2 0.221596 0.589840 0.796246
Si Si3 0.783501 0.341706 0.698460
Si Si4 0.721078 0.091778 0.599766
Si Si5 0.216624 0.657145 0.500000
Si Si6 0.282924 0.160029 0.891911
O O1 0.217541 0.917177 0.921056
O O2 0.500000 0.000000 0.942878
O O3 0.226066 0.000000 0.000000
O O4 0.270770 0.500000 0.808757
O O5 0.286558 0.611151 0.743877
O O6 0.282723 0.647938 0.837936
O O7 0.000000 0.593200 0.794902
O O8 0.750000 0.250000 0.707308
O O9 0.712490 0.364144 0.646665
O O10 0.000000 0.356687 0.696649
O O11 0.500000 0.099439 0.598785
O O12 0.787980 0.122712 0.549281
O O13 0.764751 0.000000 0.604664
O O14 0.250000 0.750000 0.500000
O O15 0.000000 0.641267 0.500000
O O16 0.500000 0.152153 0.891197
O O17 0.250000 0.250000 0.908841
#
# Coordination Sequence:
#
# PCOD9485174 Si02
#       6
#     8  16  16  16   8  16
#     4   9  18  34  55  77 103 139 179 212 248 304
#     4   9  16  29  50  73  96 128 169 206 240 289
#     4  10  19  30  47  70  96 123 155 197 241 286
#     4   9  17  30  48  69  89 116 157 197 229 270
#     4  10  19  31  49  69  91 118 148 188 234 280
#     4  10  19  33  54  78 104 135 173 214 256 303
#
# _framework density 22.746427000000001
#
# number of rings (size 3 to 8) (size 9 to 14) (size 15 to 20)
#    0.000    2.500    1.000    2.100    0.000    4.000 
#    0.000    0.500    0.000    6.600    0.000    0.000 
#    0.000    0.000    0.000    0.000    0.000    0.000 
#
# Total GULP energy -223376.638162 kJ/mol
# GULP energy per Si atom -5584.415954 kJ/mol
# Density = 2.269466 g / cm^3
# Si number density = 22.746427 Si / 1000 Ang^3
#
#
#
# Elastic Constant Matrix: (Units=GPa)
#
#
# Indices 1 2 3 4 5 6 
#
# 1 86.3089 -6.9587 10.5658 0.0000 0.0000 0.0000
# 2 -6.9587 136.9057 66.2950 0.0000 0.0000 0.0000
# 3 10.5658 66.2950 152.0819 0.0000 0.0000 0.0000
# 4 0.0000 0.0000 0.0000 31.8421 0.0000 0.0000
# 5 0.0000 0.0000 0.0000 0.0000 -15.4530 0.0000
# 6 0.0000 0.0000 0.0000 0.0000 0.0000 19.3763
#
#
#
# Elastic Compliance Matrix: (Units=1/GPa)
#
#
# Indices 1 2 3 4 5 6 
#
# 1 0.011857 0.001270 -0.001377 0.000000 0.000000 0.000000
# 2 0.001270 0.009395 -0.004183 0.000000 0.000000 0.000000
# 3 -0.001377 -0.004183 0.008495 0.000000 0.000000 0.000000
# 4 0.000000 0.000000 0.000000 0.031405 0.000000 0.000000
# 5 0.000000 0.000000 0.000000 0.000000 -0.064712 0.000000
# 6 0.000000 0.000000 0.000000 0.000000 0.000000 0.051609
#
#
# Mechanical properties :
#
#
# Convention : Reuss Voigt Hill
#
# Bulk Modulus (GPa) = 47.24914 57.23341 52.24128
# Shear Modulus (GPa) = 78.51063 27.51270 53.01166
#
# Velocity S-wave (km/s) = 5.88137 3.48162 4.83281
# Velocity P-wave (km/s) = 8.18156 6.43260 7.35922
#
# Compressibility (1/GPa) = 0.02116441
#
# Stress axis : x y z
#
# Youngs Moduli (GPa) = 84.33658 106.44378 117.72003
#
# Poissons Ratio (x) = -0.13514 0.16212
# Poissons Ratio (y) = -0.10707 0.49248
# Poissons Ratio (z) = 0.11615 0.44531
#
# Static dielectric constant tensor:
#      x y z
#    x 1.890910 0.000000 0.000000 
#    y 0.000000 1.789010 0.000000 
#    z 0.000000 0.000000 1.871530 
# 
# From -- ./inp_files/72900.got.cif
#   From: 2010.05.17/outbox.cif.g08.bks.cpg/sg65_37_cif.got.tgz:72900.got - 2010.06.03 17:01:31.
