data_PCOD9485330
_publ_section_title
;
Structure prediction by ZEFSAII (Michael W. Deem and Ramdas Pophale) SiO2 
 PCOD9485330
Probable space group: C M M M
;
_chemical_formula_sum "Si O2"
_cell_formula_units_Z 104
_cell_length_a 14.026946
_cell_length_b 24.150423
_cell_length_c 18.363362
_cell_angle_alpha 90.000000
_cell_angle_beta 90.000000
_cell_angle_gamma 90.000000
_cell_volume 6220.711532
_symmetry_space_group_name_H-M "C M M M"
_symmetry_group_IT_number 65
_symmetry_cell_setting 'orthorhombic'
loop_
_space_group_symop_operation_xyz
x,y,z
-x,-y,z
x,-y,-z
-x,y,-z
-x,-y,-z
x,y,-z
-x,y,z
x,-y,z
1/2+x,1/2+y,z
1/2-x,1/2-y,z
1/2+x,1/2-y,-z
1/2-x,1/2+y,-z
1/2-x,1/2-y,-z
1/2+x,1/2+y,-z
1/2-x,1/2+y,z
1/2+x,1/2-y,z
loop_
_atom_site_type_symbol
_atom_site_label
_atom_site_fract_x
_atom_site_fract_y
_atom_site_fract_z
Si Si1 0.195045 0.564807 0.837072
Si Si2 0.302971 0.164577 0.587744
Si Si3 0.113686 0.436101 0.676656
Si Si4 0.396363 0.765903 0.088051
Si Si5 0.500000 0.932903 0.081324
Si Si6 0.785463 0.160103 0.912215
Si Si7 0.106974 0.782378 0.411467
O O1 0.212914 0.500000 0.851889
O O2 0.170168 0.570810 0.752373
O O3 0.277732 0.603504 0.868283
O O4 0.097487 0.581436 0.878833
O O5 0.304970 0.160846 0.500000
O O6 0.347488 0.109909 0.621981
O O7 0.193636 0.177445 0.610869
O O8 0.362935 0.219629 0.608462
O O9 0.127100 0.500000 0.652039
O O10 0.000000 0.429023 0.689357
O O11 0.500000 0.782317 0.116144
O O12 0.309545 0.805217 0.109063
O O13 0.370482 0.702347 0.105839
O O14 0.397701 0.768163 0.000000
O O15 0.500000 0.000000 0.077910
O O16 0.500000 0.909464 0.000000
O O17 0.784415 0.150914 0.000000
O O18 0.106164 0.783653 0.500000
O O19 0.000000 0.795499 0.386043
#
# Coordination Sequence:
#
# PCOD9485330 Si02
#       7
#    16  16  16  16   8  16  16
#     4  10  19  31  44  63  93 122 147 184 235 280
#     4   9  17  29  49  75  96 121 160 193 221 272
#     4  10  20  33  46  62  93 131 156 183 233 284
#     4   8  15  28  44  64  92 120 144 179 227 271
#     4   9  16  26  42  64  87 113 147 183 219 267
#     4   9  17  28  46  70  88 112 152 186 219 269
#     4   8  14  27  48  74 102 124 146 189 242 276
#
# _framework density 16.718344999999999
#
# number of rings (size 3 to 8) (size 9 to 14) (size 15 to 20)
#    0.000    3.000    0.769    2.769    1.077    2.154 
#    0.000    3.846    0.000    3.692    0.000    6.462 
#    0.000    0.000    0.000    0.000    0.000    0.000 
#
# Total GULP energy -289606.472191 kJ/mol
# GULP energy per Si atom -5569.355234 kJ/mol
# Density = 1.668029 g / cm^3
# Si number density = 16.718345 Si / 1000 Ang^3
#
#
#
# Elastic Constant Matrix: (Units=GPa)
#
#
# Indices 1 2 3 4 5 6 
#
# 1 47.8295 11.7684 1.1964 0.0000 0.0000 0.0000
# 2 11.7684 82.2662 25.7053 0.0000 0.0000 0.0000
# 3 1.1964 25.7053 20.9016 0.0000 0.0000 0.0000
# 4 0.0000 0.0000 0.0000 14.5616 0.0000 0.0000
# 5 0.0000 0.0000 0.0000 0.0000 14.4132 0.0000
# 6 0.0000 0.0000 0.0000 0.0000 0.0000 23.3574
#
#
#
# Elastic Compliance Matrix: (Units=1/GPa)
#
#
# Indices 1 2 3 4 5 6 
#
# 1 0.021897 -0.004451 0.004221 0.000000 0.000000 0.000000
# 2 -0.004451 0.020647 -0.025138 0.000000 0.000000 0.000000
# 3 0.004221 -0.025138 0.078517 0.000000 0.000000 0.000000
# 4 0.000000 0.000000 0.000000 0.068674 0.000000 0.000000
# 5 0.000000 0.000000 0.000000 0.000000 0.069381 0.000000
# 6 0.000000 0.000000 0.000000 0.000000 0.000000 0.042813
#
#
# Mechanical properties :
#
#
# Convention : Reuss Voigt Hill
#
# Bulk Modulus (GPa) = 14.21964 25.37081 19.79522
# Shear Modulus (GPa) = 13.29413 17.95492 15.62452
#
# Velocity S-wave (km/s) = 2.82296 3.28070 3.06040
# Velocity P-wave (km/s) = 4.37599 5.43682 4.93499
#
# Compressibility (1/GPa) = 0.07032527
#
# Stress axis : x y z
#
# Youngs Moduli (GPa) = 45.66776 48.43305 12.73616
#
# Poissons Ratio (x) = 0.21560 -0.05376
# Poissons Ratio (y) = 0.20329 0.32016
# Poissons Ratio (z) = -0.19277 1.21749
#
# Static dielectric constant tensor:
#      x y z
#    x 1.580660 0.000000 0.000000 
#    y 0.000000 1.574330 0.000000 
#    z 0.000000 0.000000 1.558100 
# 
# From -- ./inp_files/53485.got.cif
#   From: 2010.05.17/outbox.cif.g08.bks.cpg/sg65_27_cif.got.tgz:53485.got - 2010.06.03 17:01:31.
