data_PCOD9485505
_publ_section_title
;
Structure prediction by ZEFSAII (Michael W. Deem and Ramdas Pophale) SiO2 
 PCOD9485505
Probable space group: C M M M
;
_chemical_formula_sum "Si O2"
_cell_formula_units_Z 96
_cell_length_a 19.715755
_cell_length_b 17.782180
_cell_length_c 17.199917
_cell_angle_alpha 90.000000
_cell_angle_beta 90.000000
_cell_angle_gamma 90.000000
_cell_volume 6030.103494
_symmetry_space_group_name_H-M "C M M M"
_symmetry_group_IT_number 65
_symmetry_cell_setting 'orthorhombic'
loop_
_space_group_symop_operation_xyz
x,y,z
-x,-y,z
x,-y,-z
-x,y,-z
-x,-y,-z
x,y,-z
-x,y,z
x,-y,z
1/2+x,1/2+y,z
1/2-x,1/2-y,z
1/2+x,1/2-y,-z
1/2-x,1/2+y,-z
1/2-x,1/2-y,-z
1/2+x,1/2+y,-z
1/2-x,1/2+y,z
1/2+x,1/2-y,z
loop_
_atom_site_type_symbol
_atom_site_label
_atom_site_fract_x
_atom_site_fract_y
_atom_site_fract_z
Si Si1 0.419254 0.823054 0.590204
Si Si2 0.576622 0.318435 0.313988
Si Si3 0.922817 0.297892 0.168316
Si Si4 0.310091 0.589109 0.233844
Si Si5 0.183194 0.800826 0.911521
Si Si6 0.845873 0.410819 0.273330
O O1 0.404629 0.836755 0.500000
O O2 0.500000 0.836105 0.603817
O O3 0.407052 0.735948 0.613652
O O4 0.376636 0.874773 0.648461
O O5 0.500000 0.348915 0.322121
O O6 0.575788 0.260073 0.241331
O O7 0.633338 0.378787 0.292651
O O8 0.880109 0.254561 0.103462
O O9 0.883807 0.370194 0.201644
O O10 0.000000 0.314649 0.146303
O O11 0.317626 0.500000 0.223145
O O12 0.318011 0.633684 0.152580
O O13 0.234324 0.604556 0.265366
O O14 0.250000 0.750000 0.898780
O O15 0.183574 0.828800 0.000000
O O16 0.856583 0.500000 0.272219
#
# Coordination Sequence:
#
# PCOD9485505 Si02
#       6
#    16  16  16  16  16  16
#     4   9  18  32  51  75 100 129 167 208 249 294
#     4   8  16  31  51  72  96 127 165 208 248 293
#     4   9  17  30  49  72  96 127 166 206 245 293
#     4  10  20  33  51  75 102 131 166 206 246 294
#     4  10  19  33  53  73  95 129 167 204 250 298
#     4  10  19  31  47  71 103 137 169 204 245 293
#
# _framework density 15.920125000000001
#
# number of rings (size 3 to 8) (size 9 to 14) (size 15 to 20)
#    0.000    2.667    1.667    1.500    0.000    2.667 
#    0.000    2.500    0.000    2.000    0.000    8.167 
#    0.000    0.000    0.000    0.000    0.000    0.000 
#
# Total GULP energy -267387.367270 kJ/mol
# GULP energy per Si atom -5570.570151 kJ/mol
# Density = 1.588389 g / cm^3
# Si number density = 15.920125 Si / 1000 Ang^3
#
#
#
# Elastic Constant Matrix: (Units=GPa)
#
#
# Indices 1 2 3 4 5 6 
#
# 1 121.5080 73.2247 32.8354 0.0000 0.0000 0.0000
# 2 73.2247 88.7502 47.1808 0.0000 0.0000 0.0000
# 3 32.8354 47.1808 62.4182 0.0000 0.0000 0.0000
# 4 0.0000 0.0000 0.0000 14.9613 0.0000 0.0000
# 5 0.0000 0.0000 0.0000 0.0000 17.8994 0.0000
# 6 0.0000 0.0000 0.0000 0.0000 0.0000 21.7151
#
#
#
# Elastic Compliance Matrix: (Units=1/GPa)
#
#
# Indices 1 2 3 4 5 6 
#
# 1 0.016639 -0.015172 0.002715 0.000000 0.000000 0.000000
# 2 -0.015172 0.032671 -0.016714 0.000000 0.000000 0.000000
# 3 0.002715 -0.016714 0.027227 0.000000 0.000000 0.000000
# 4 0.000000 0.000000 0.000000 0.066839 0.000000 0.000000
# 5 0.000000 0.000000 0.000000 0.000000 0.055868 0.000000
# 6 0.000000 0.000000 0.000000 0.000000 0.000000 0.046051
#
#
# Mechanical properties :
#
#
# Convention : Reuss Voigt Hill
#
# Bulk Modulus (GPa) = 54.96072 64.35091 59.65581
# Shear Modulus (GPa) = 16.14461 18.87752 17.51106
#
# Velocity S-wave (km/s) = 3.18795 3.44723 3.32012
# Velocity P-wave (km/s) = 6.93891 7.50689 7.22848
#
# Compressibility (1/GPa) = 0.01819481
#
# Stress axis : x y z
#
# Youngs Moduli (GPa) = 60.09896 30.60855 36.72875
#
# Poissons Ratio (x) = 0.46438 -0.09971
# Poissons Ratio (y) = 0.91180 0.61388
# Poissons Ratio (z) = -0.16316 0.51159
#
# Static dielectric constant tensor:
#      x y z
#    x 1.542720 0.000000 0.000000 
#    y 0.000000 1.515310 0.000000 
#    z 0.000000 0.000000 1.524280 
# 
# From -- ./inp_files/54457.got.cif
#   From: 2010.05.17/outbox.cif.g08.bks.cpg/sg65_28_cif.got.tgz:54457.got - 2010.06.03 17:01:31.
