data_PCOD9485354
_publ_section_title
;
Structure prediction by ZEFSAII (Michael W. Deem and Ramdas Pophale) SiO2 
 PCOD9485354
Probable space group: C M M M
;
_chemical_formula_sum "Si O2"
_cell_formula_units_Z 104
_cell_length_a 15.749600
_cell_length_b 23.102300
_cell_length_c 18.251128
_cell_angle_alpha 90.000000
_cell_angle_beta 90.000000
_cell_angle_gamma 90.000000
_cell_volume 6640.709134
_symmetry_space_group_name_H-M "C M M M"
_symmetry_group_IT_number 65
_symmetry_cell_setting 'orthorhombic'
loop_
_space_group_symop_operation_xyz
x,y,z
-x,-y,z
x,-y,-z
-x,y,-z
-x,-y,-z
x,y,-z
-x,y,z
x,-y,z
1/2+x,1/2+y,z
1/2-x,1/2-y,z
1/2+x,1/2-y,-z
1/2-x,1/2+y,-z
1/2-x,1/2-y,-z
1/2+x,1/2+y,-z
1/2-x,1/2+y,z
1/2+x,1/2-y,z
loop_
_atom_site_type_symbol
_atom_site_label
_atom_site_fract_x
_atom_site_fract_y
_atom_site_fract_z
Si Si1 0.596010 0.570204 0.915828
Si Si2 0.167309 0.129146 0.359000
Si Si3 0.350392 0.123312 0.582483
Si Si4 0.725645 0.429750 0.789433
Si Si5 0.398910 0.257723 0.415227
Si Si6 0.000000 0.934753 0.412844
Si Si7 0.592974 0.930563 0.734480
O O1 0.500000 0.588178 0.892858
O O2 0.595299 0.500000 0.916312
O O3 0.671464 0.586848 0.860972
O O4 0.609384 0.588938 0.000000
O O5 0.249620 0.115212 0.407870
O O6 0.185572 0.103294 0.279435
O O7 0.150172 0.197709 0.363727
O O8 0.083380 0.098825 0.388586
O O9 0.377370 0.106240 0.500000
O O10 0.370726 0.191418 0.591488
O O11 0.391962 0.090952 0.651259
O O12 0.718763 0.500000 0.780277
O O13 0.825897 0.414499 0.784449
O O14 0.382482 0.275510 0.500000
O O15 0.500000 0.261265 0.402974
O O16 0.000000 0.937478 0.500000
O O17 0.000000 0.000000 0.382535
O O18 0.500000 0.909923 0.759525
O O19 0.591993 0.000000 0.732888
#
# Coordination Sequence:
#
# PCOD9485354 Si02
#       7
#    16  16  16  16  16   8  16
#     4   8  14  25  43  67  93 120 148 178 214 263
#     4  11  20  31  44  61  86 117 152 192 230 277
#     4  10  20  32  47  64  83 113 156 201 243 282
#     4   9  18  30  45  66  91 121 152 182 224 278
#     4  10  19  31  46  62  83 112 150 196 244 282
#     4  11  22  32  42  58  85 123 158 188 227 275
#     4   9  18  32  47  64  88 116 148 190 238 281
#
# _framework density 15.660978
#
# number of rings (size 3 to 8) (size 9 to 14) (size 15 to 20)
#    0.000    2.385    0.769    3.231    1.077    3.077 
#    0.000    0.769    0.000    0.462    0.000    3.231 
#    0.000    9.846    0.000    3.077    0.000    0.923 
#
# Total GULP energy -289706.398371 kJ/mol
# GULP energy per Si atom -5571.276892 kJ/mol
# Density = 1.562533 g / cm^3
# Si number density = 15.660978 Si / 1000 Ang^3
#
#
#
# Elastic Constant Matrix: (Units=GPa)
#
#
# Indices 1 2 3 4 5 6 
#
# 1 127.1925 17.2412 56.2839 0.0000 0.0000 0.0000
# 2 17.2412 12.9155 10.7065 0.0000 0.0000 0.0000
# 3 56.2839 10.7065 75.2246 0.0000 0.0000 0.0000
# 4 0.0000 0.0000 0.0000 8.7320 0.0000 0.0000
# 5 0.0000 0.0000 0.0000 0.0000 14.5654 0.0000
# 6 0.0000 0.0000 0.0000 0.0000 0.0000 20.2496
#
#
#
# Elastic Compliance Matrix: (Units=1/GPa)
#
#
# Indices 1 2 3 4 5 6 
#
# 1 0.012886 -0.010442 -0.008156 0.000000 0.000000 0.000000
# 2 -0.010442 0.096244 -0.005885 0.000000 0.000000 0.000000
# 3 -0.008156 -0.005885 0.020233 0.000000 0.000000 0.000000
# 4 0.000000 0.000000 0.000000 0.114521 0.000000 0.000000
# 5 0.000000 0.000000 0.000000 0.000000 0.068656 0.000000
# 6 0.000000 0.000000 0.000000 0.000000 0.000000 0.049384
#
#
# Mechanical properties :
#
#
# Convention : Reuss Voigt Hill
#
# Bulk Modulus (GPa) = 12.43815 42.64395 27.54105
# Shear Modulus (GPa) = 11.42364 17.44947 14.43656
#
# Velocity S-wave (km/s) = 2.70373 3.34159 3.03944
# Velocity P-wave (km/s) = 4.20788 6.49437 5.47189
#
# Compressibility (1/GPa) = 0.08039782
#
# Stress axis : x y z
#
# Youngs Moduli (GPa) = 77.60098 10.39031 49.42337
#
# Poissons Ratio (x) = 0.10849 0.40308
# Poissons Ratio (y) = 0.81028 0.29088
# Poissons Ratio (z) = 0.63289 0.06115
#
# Static dielectric constant tensor:
#      x y z
#    x 1.564910 0.000000 0.000000 
#    y 0.000000 1.522010 0.000000 
#    z 0.000000 0.000000 1.501440 
# 
# From -- ./inp_files/53501.got.cif
#   From: 2010.05.17/outbox.cif.g08.bks.cpg/sg65_27_cif.got.tgz:53501.got - 2010.06.03 17:01:31.
