data_PCOD9485467
_publ_section_title
;
Structure prediction by ZEFSAII (Michael W. Deem and Ramdas Pophale) SiO2 
 PCOD9485467
Probable space group: C M M M
;
_chemical_formula_sum "Si O2"
_cell_formula_units_Z 96
_cell_length_a 15.482679
_cell_length_b 23.239753
_cell_length_c 15.614410
_cell_angle_alpha 90.000000
_cell_angle_beta 90.000000
_cell_angle_gamma 90.000000
_cell_volume 5618.277632
_symmetry_space_group_name_H-M "C M M M"
_symmetry_group_IT_number 65
_symmetry_cell_setting 'orthorhombic'
loop_
_space_group_symop_operation_xyz
x,y,z
-x,-y,z
x,-y,-z
-x,y,-z
-x,-y,-z
x,y,-z
-x,y,z
x,-y,z
1/2+x,1/2+y,z
1/2-x,1/2-y,z
1/2+x,1/2-y,-z
1/2-x,1/2+y,-z
1/2-x,1/2-y,-z
1/2+x,1/2+y,-z
1/2-x,1/2+y,z
1/2+x,1/2-y,z
loop_
_atom_site_type_symbol
_atom_site_label
_atom_site_fract_x
_atom_site_fract_y
_atom_site_fract_z
Si Si1 0.145378 0.877091 0.096539
Si Si2 0.331201 0.129782 0.162120
Si Si3 0.898943 0.569611 0.500000
Si Si4 0.897482 0.257449 0.901099
Si Si5 0.500000 0.935549 0.101358
Si Si6 0.094514 0.069003 0.277127
Si Si7 0.719320 0.930333 0.663128
O O1 0.248044 0.884941 0.105068
O O2 0.125896 0.809289 0.108016
O O3 0.107006 0.908988 0.179401
O O4 0.116244 0.893510 0.000000
O O5 0.346757 0.198163 0.158134
O O6 0.416056 0.099398 0.127417
O O7 0.314983 0.103830 0.255116
O O8 0.903693 0.500000 0.500000
O O9 0.840603 0.585278 0.582473
O O10 0.000000 0.589763 0.500000
O O11 0.000000 0.263655 0.887942
O O12 0.878119 0.273811 0.000000
O O13 0.500000 0.000000 0.139293
O O14 0.500000 0.940250 0.000000
O O15 0.177753 0.084114 0.335543
O O16 0.000000 0.088975 0.307980
O O17 0.093746 0.000000 0.273804
O O18 0.712716 0.000000 0.674725
#
# Coordination Sequence:
#
# PCOD9485467 Si02
#       7
#    16  16   8  16   8  16  16
#     4  10  20  32  48  70  98 135 178 219 258 296
#     4  11  20  32  48  67  96 132 171 210 256 304
#     4   9  18  32  53  77 102 129 160 202 254 312
#     4  10  19  31  47  68  96 129 172 221 260 295
#     4  11  22  32  44  65  97 137 174 207 247 301
#     4   9  18  33  51  72 101 133 166 209 258 305
#     4   9  19  34  51  75 102 129 163 206 256 317
#
# _framework density 17.087087
#
# number of rings (size 3 to 8) (size 9 to 14) (size 15 to 20)
#    0.000    2.167    0.833    3.000    1.167    3.333 
#    0.000    1.250    0.000    2.500    0.000    9.333 
#    0.000    0.000    0.000    0.000    0.000    0.000 
#
# Total GULP energy -267469.438679 kJ/mol
# GULP energy per Si atom -5572.279972 kJ/mol
# Density = 1.704820 g / cm^3
# Si number density = 17.087087 Si / 1000 Ang^3
#
#
#
# Elastic Constant Matrix: (Units=GPa)
#
#
# Indices 1 2 3 4 5 6 
#
# 1 135.8641 19.5038 49.7584 0.0000 0.0000 0.0000
# 2 19.5038 18.4082 12.9768 0.0000 0.0000 0.0000
# 3 49.7584 12.9768 81.5217 0.0000 0.0000 0.0000
# 4 0.0000 0.0000 0.0000 79.7875 0.0000 0.0000
# 5 0.0000 0.0000 0.0000 0.0000 11.5427 0.0000
# 6 0.0000 0.0000 0.0000 0.0000 0.0000 20.3970
#
#
#
# Elastic Compliance Matrix: (Units=1/GPa)
#
#
# Indices 1 2 3 4 5 6 
#
# 1 0.010279 -0.007286 -0.005114 0.000000 0.000000 0.000000
# 2 -0.007286 0.066354 -0.006115 0.000000 0.000000 0.000000
# 3 -0.005114 -0.006115 0.016362 0.000000 0.000000 0.000000
# 4 0.000000 0.000000 0.000000 0.012533 0.000000 0.000000
# 5 0.000000 0.000000 0.000000 0.000000 0.086635 0.000000
# 6 0.000000 0.000000 0.000000 0.000000 0.000000 0.049027
#
#
# Mechanical properties :
#
#
# Convention : Reuss Voigt Hill
#
# Bulk Modulus (GPa) = 17.86864 44.47466 31.17165
# Shear Modulus (GPa) = 16.84208 32.58244 24.71226
#
# Velocity S-wave (km/s) = 3.14293 4.37148 3.80709
# Velocity P-wave (km/s) = 4.86321 7.18085 6.13251
#
# Compressibility (1/GPa) = 0.05596396
#
# Stress axis : x y z
#
# Youngs Moduli (GPa) = 97.28327 15.07073 61.11793
#
# Poissons Ratio (x) = 0.10980 0.31258
# Poissons Ratio (y) = 0.70877 0.37376
# Poissons Ratio (z) = 0.49755 0.09216
#
# Static dielectric constant tensor:
#      x y z
#    x 1.621040 0.000000 0.000000 
#    y 0.000000 1.579420 0.000000 
#    z 0.000000 0.000000 1.560600 
# 
# From -- ./inp_files/40687.got.cif
#   From: 2010.05.17/outbox.cif.g08.bks.cpg/sg65_21_cif.got.tgz:40687.got - 2010.06.03 17:01:31.
