data_PCOD9485476
_publ_section_title
;
Structure prediction by ZEFSAII (Michael W. Deem and Ramdas Pophale) SiO2 
 PCOD9485476
Probable space group: C M M M
;
_chemical_formula_sum "Si O2"
_cell_formula_units_Z 104
_cell_length_a 25.351721
_cell_length_b 8.681552
_cell_length_c 27.092385
_cell_angle_alpha 90.000000
_cell_angle_beta 90.000000
_cell_angle_gamma 90.000000
_cell_volume 5962.824898
_symmetry_space_group_name_H-M "C M M M"
_symmetry_group_IT_number 65
_symmetry_cell_setting 'orthorhombic'
loop_
_space_group_symop_operation_xyz
x,y,z
-x,-y,z
x,-y,-z
-x,y,-z
-x,-y,-z
x,y,-z
-x,y,z
x,-y,z
1/2+x,1/2+y,z
1/2-x,1/2-y,z
1/2+x,1/2-y,-z
1/2-x,1/2+y,-z
1/2-x,1/2-y,-z
1/2+x,1/2+y,-z
1/2-x,1/2+y,z
1/2+x,1/2-y,z
loop_
_atom_site_type_symbol
_atom_site_label
_atom_site_fract_x
_atom_site_fract_y
_atom_site_fract_z
Si Si1 0.500000 0.685842 0.717561
Si Si2 0.085133 0.185776 0.636003
Si Si3 0.805830 0.685175 0.220809
Si Si4 0.386181 0.813822 0.136830
Si Si5 0.500000 0.312326 0.556169
Si Si6 0.500000 0.186343 0.171679
Si Si7 0.806916 0.184080 0.942363
Si Si8 0.694033 0.184144 0.334887
O O1 0.500000 0.500000 0.721074
O O2 0.550956 0.731063 0.684538
O O3 0.500000 0.755820 0.771898
O O4 0.142964 0.255654 0.637025
O O5 0.050823 0.233027 0.588455
O O6 0.088400 0.000000 0.636367
O O7 0.803305 0.500000 0.220322
O O8 0.750000 0.750000 0.202695
O O9 0.853291 0.733312 0.185572
O O10 0.812574 0.735495 0.277509
O O11 0.446544 0.764014 0.144102
O O12 0.354192 0.748001 0.090702
O O13 0.385244 0.000000 0.133852
O O14 0.500000 0.500000 0.555250
O O15 0.500000 0.257290 0.500000
O O16 0.500000 0.000000 0.173315
O O17 0.750000 0.250000 0.926210
O O18 0.805146 0.000000 0.938654
O O19 0.813875 0.226936 0.000000
O O20 0.750000 0.250000 0.352430
O O21 0.695851 0.000000 0.335936
#
# Coordination Sequence:
#
# PCOD9485476 Si02
#       8
#     8  16  16  16   8   8  16  16
#     4   9  18  31  48  72 102 135 168 203 242 285
#     4   9  17  30  49  74 101 129 166 207 245 290
#     4   9  18  30  45  68  96 126 160 197 237 282
#     4  10  20  34  51  72  99 130 164 200 239 284
#     4   8  15  30  53  77  99 126 161 204 254 300
#     4  10  21  35  50  71 102 138 172 203 234 278
#     4  10  21  37  57  79  99 120 151 195 246 296
#     4  10  19  31  47  69 100 136 169 201 242 291
#
# _framework density 17.441396999999998
#
# number of rings (size 3 to 8) (size 9 to 14) (size 15 to 20)
#    0.000    2.538    0.000    3.231    0.000    5.846 
#    0.000    1.538    0.000    3.692    0.000    0.000 
#    0.000    0.000    0.000    0.000    0.000    0.000 
#
# Total GULP energy -290102.073718 kJ/mol
# GULP energy per Si atom -5578.886033 kJ/mol
# Density = 1.740170 g / cm^3
# Si number density = 17.441397 Si / 1000 Ang^3
#
#
#
# Elastic Constant Matrix: (Units=GPa)
#
#
# Indices 1 2 3 4 5 6 
#
# 1 193.5797 36.6881 81.6515 0.0000 0.0000 0.0000
# 2 36.6881 14.7870 23.2776 0.0000 0.0000 0.0000
# 3 81.6515 23.2776 98.9862 0.0000 0.0000 0.0000
# 4 0.0000 0.0000 0.0000 14.9984 0.0000 0.0000
# 5 0.0000 0.0000 0.0000 0.0000 12.7762 0.0000
# 6 0.0000 0.0000 0.0000 0.0000 0.0000 27.8090
#
#
#
# Elastic Compliance Matrix: (Units=1/GPa)
#
#
# Indices 1 2 3 4 5 6 
#
# 1 0.010708 -0.020105 -0.004104 0.000000 0.000000 0.000000
# 2 -0.020105 0.145129 -0.017544 0.000000 0.000000 0.000000
# 3 -0.004104 -0.017544 0.017614 0.000000 0.000000 0.000000
# 4 0.000000 0.000000 0.000000 0.066674 0.000000 0.000000
# 5 0.000000 0.000000 0.000000 0.000000 0.078270 0.000000
# 6 0.000000 0.000000 0.000000 0.000000 0.000000 0.035960
#
#
# Mechanical properties :
#
#
# Convention : Reuss Voigt Hill
#
# Bulk Modulus (GPa) = 11.11824 65.62079 38.36951
# Shear Modulus (GPa) = 10.68738 22.16577 16.42657
#
# Velocity S-wave (km/s) = 2.47808 3.56880 3.07223
# Velocity P-wave (km/s) = 3.81790 7.39507 5.88487
#
# Compressibility (1/GPa) = 0.08994230
#
# Stress axis : x y z
#
# Youngs Moduli (GPa) = 93.39209 6.89044 56.77416
#
# Poissons Ratio (x) = 0.13854 0.23302
# Poissons Ratio (y) = 1.87769 0.99603
# Poissons Ratio (z) = 0.38332 0.12088
#
# Static dielectric constant tensor:
#      x y z
#    x 1.588510 0.000000 0.000000 
#    y 0.000000 1.588070 0.000000 
#    z 0.000000 0.000000 1.587170 
# 
# From -- ./inp_files/78414.got.cif
#   From: 2010.05.17/outbox.cif.g08.bks.cpg/sg65_40_cif.got.tgz:78414.got - 2010.06.03 17:01:31.
