data_PCOD9485351
_publ_section_title
;
Structure prediction by ZEFSAII (Michael W. Deem and Ramdas Pophale) SiO2 
 PCOD9485351
Probable space group: C M M M
;
_chemical_formula_sum "Si O2"
_cell_formula_units_Z 56
_cell_length_a 15.487673
_cell_length_b 30.474462
_cell_length_c 5.664867
_cell_angle_alpha 90.000000
_cell_angle_beta 90.000000
_cell_angle_gamma 90.000000
_cell_volume 2673.695442
_symmetry_space_group_name_H-M "C M M M"
_symmetry_group_IT_number 65
_symmetry_cell_setting 'orthorhombic'
loop_
_space_group_symop_operation_xyz
x,y,z
-x,-y,z
x,-y,-z
-x,y,-z
-x,-y,-z
x,y,-z
-x,y,z
x,-y,z
1/2+x,1/2+y,z
1/2-x,1/2-y,z
1/2+x,1/2-y,-z
1/2-x,1/2+y,-z
1/2-x,1/2-y,-z
1/2+x,1/2+y,-z
1/2-x,1/2+y,z
1/2+x,1/2-y,z
loop_
_atom_site_type_symbol
_atom_site_label
_atom_site_fract_x
_atom_site_fract_y
_atom_site_fract_z
Si Si1 0.500000 0.800978 0.500000
Si Si2 0.349150 0.317677 0.000000
Si Si3 0.311980 0.708025 0.500000
Si Si4 0.500000 0.799480 0.000000
Si Si5 0.898391 0.947581 0.500000
Si Si6 0.598273 0.584828 0.000000
Si Si7 0.166175 0.365571 0.500000
Si Si8 0.663806 0.135805 0.000000
O O1 0.500000 0.776143 0.748038
O O2 0.584667 0.832093 0.500000
O O3 0.361009 0.293252 0.249260
O O4 0.401448 0.362783 0.000000
O O5 0.248582 0.333396 0.000000
O O6 0.250000 0.750000 0.500000
O O7 0.252221 0.664300 0.500000
O O8 0.582866 0.831394 0.000000
O O9 0.861851 0.930240 0.749726
O O10 0.000000 0.933597 0.500000
O O11 0.894757 0.000000 0.500000
O O12 0.500000 0.566858 0.000000
O O13 0.162671 0.389492 0.751677
#
# Coordination Sequence:
#
# PCOD9485351 Si02
#       8
#     4   8   8   4   8   8   8   8
#     4   8  12  20  34  50  70  88 110 154 203 268
#     4  10  19  31  46  65  87 116 156 189 233 284
#     4  10  19  31  46  61  78 111 153 198 236 273
#     4   8  12  20  34  54  74  96 121 156 214 256
#     4   9  17  30  49  74  99 125 159 192 229 282
#     4  10  19  31  49  70  97 132 159 192 237 278
#     4   8  14  23  37  53  71  91 125 164 217 267
#     4   8  14  23  37  57  76 101 129 169 216 264
#
# _framework density 20.944792
#
# number of rings (size 3 to 8) (size 9 to 14) (size 15 to 20)
#    0.000    3.000    0.000    1.714    0.000    1.714 
#    0.000    0.000    3.143    0.000    3.714    0.000 
#    0.000    0.000    0.000    3.857    0.000    1.429 
#
# Total GULP energy -155884.528005 kJ/mol
# GULP energy per Si atom -5567.304572 kJ/mol
# Density = 2.089712 g / cm^3
# Si number density = 20.944792 Si / 1000 Ang^3
#
#
#
# Elastic Constant Matrix: (Units=GPa)
#
#
# Indices 1 2 3 4 5 6 
#
# 1 73.4199 -4.9456 -8.7112 0.0000 0.0000 0.0000
# 2 -4.9456 38.3180 40.5566 0.0000 0.0000 0.0000
# 3 -8.7112 40.5566 331.0001 0.0000 0.0000 0.0000
# 4 0.0000 0.0000 0.0000 17.7076 0.0000 0.0000
# 5 0.0000 0.0000 0.0000 0.0000 -31.6606 0.0000
# 6 0.0000 0.0000 0.0000 0.0000 0.0000 -14.9135
#
#
#
# Elastic Compliance Matrix: (Units=1/GPa)
#
#
# Indices 1 2 3 4 5 6 
#
# 1 0.013748 0.001599 0.000166 0.000000 0.000000 0.000000
# 2 0.001599 0.030172 -0.003655 0.000000 0.000000 0.000000
# 3 0.000166 -0.003655 0.003473 0.000000 0.000000 0.000000
# 4 0.000000 0.000000 0.000000 0.056473 0.000000 0.000000
# 5 0.000000 0.000000 0.000000 0.000000 -0.031585 0.000000
# 6 0.000000 0.000000 0.000000 0.000000 0.000000 -0.067053
#
#
# Mechanical properties :
#
#
# Convention : Reuss Voigt Hill
#
# Bulk Modulus (GPa) = 22.92906 55.17085 39.04996
# Shear Modulus (GPa) = 212.35382 21.94924 117.15153
#
# Velocity S-wave (km/s) = 10.08006 3.24073 7.48698
# Velocity P-wave (km/s) = 12.10156 6.35621 9.66564
#
# Compressibility (1/GPa) = 0.04361278
#
# Stress axis : x y z
#
# Youngs Moduli (GPa) = 72.73964 33.14320 287.90809
#
# Poissons Ratio (x) = -0.05299 -0.04777
# Poissons Ratio (y) = -0.11629 1.05226
# Poissons Ratio (z) = -0.01207 0.12113
#
# Static dielectric constant tensor:
#      x y z
#    x 1.765970 0.000000 0.000000 
#    y 0.000000 1.651930 0.000000 
#    z 0.000000 0.000000 1.909230 
# 
# From -- ./inp_files/1064.got.cif
#   From: 2010.05.17/outbox.cif.g08.bks.cpg/sg65_1_cif.got.tgz:1064.got - 2010.06.03 17:01:31.
