data_PCOD9485535
_publ_section_title
;
Structure prediction by ZEFSAII (Michael W. Deem and Ramdas Pophale) SiO2 
 PCOD9485535
Probable space group: C M M M
;
_chemical_formula_sum "Si O2"
_cell_formula_units_Z 88
_cell_length_a 17.806756
_cell_length_b 7.473695
_cell_length_c 30.278394
_cell_angle_alpha 90.000000
_cell_angle_beta 90.000000
_cell_angle_gamma 90.000000
_cell_volume 4029.517202
_symmetry_space_group_name_H-M "C M M M"
_symmetry_group_IT_number 65
_symmetry_cell_setting 'orthorhombic'
loop_
_space_group_symop_operation_xyz
x,y,z
-x,-y,z
x,-y,-z
-x,y,-z
-x,-y,-z
x,y,-z
-x,y,z
x,-y,z
1/2+x,1/2+y,z
1/2-x,1/2-y,z
1/2+x,1/2-y,-z
1/2-x,1/2+y,-z
1/2-x,1/2-y,-z
1/2+x,1/2+y,-z
1/2-x,1/2+y,z
1/2+x,1/2-y,z
loop_
_atom_site_type_symbol
_atom_site_label
_atom_site_fract_x
_atom_site_fract_y
_atom_site_fract_z
Si Si1 0.500000 0.290207 0.947328
Si Si2 0.161566 0.199190 0.083803
Si Si3 0.164729 0.287058 0.185211
Si Si4 0.837311 0.713783 0.362322
Si Si5 0.087990 0.717597 0.452034
Si Si6 0.414000 0.217959 0.726841
O O1 0.500000 0.500000 0.932123
O O2 0.582134 0.213689 0.932204
O O3 0.500000 0.284138 0.000000
O O4 0.250000 0.250000 0.074732
O O5 0.154858 0.203792 0.136993
O O6 0.157738 0.000000 0.065263
O O7 0.154053 0.500000 0.179369
O O8 0.250000 0.250000 0.199122
O O9 0.114076 0.220681 0.225334
O O10 0.851269 0.500000 0.362010
O O11 0.750000 0.750000 0.363933
O O12 0.873678 0.784156 0.407491
O O13 0.869077 0.782789 0.315870
O O14 0.118105 0.777735 0.500000
O O15 0.093190 0.500000 0.451953
O O16 0.000000 0.761988 0.450325
O O17 0.500000 0.264329 0.720438
O O18 0.407528 0.000000 0.728145
#
# Coordination Sequence:
#
# PCOD9485535 Si02
#       6
#     8  16  16  16  16  16
#     4   9  20  38  59  83 113 149 185 223 270 323
#     4  10  20  36  58  83 112 146 183 223 269 320
#     4  10  19  32  52  75 103 135 169 211 257 307
#     4  10  19  31  48  68  94 125 157 197 243 293
#     4   8  14  26  46  70  91 115 154 201 241 281
#     4   9  18  31  48  71  95 126 167 207 247 292
#
# _framework density 21.838844999999999
#
# number of rings (size 3 to 8) (size 9 to 14) (size 15 to 20)
#    0.000    2.636    0.000    3.818    1.273    2.909 
#    0.000    2.273    0.000    8.182    0.000    1.273 
#    0.000    0.000    0.000    0.000    0.000    0.000 
#
# Total GULP energy -245224.535406 kJ/mol
# GULP energy per Si atom -5573.284896 kJ/mol
# Density = 2.178914 g / cm^3
# Si number density = 21.838845 Si / 1000 Ang^3
#
#
#
# Elastic Constant Matrix: (Units=GPa)
#
#
# Indices 1 2 3 4 5 6 
#
# 1 151.5642 -0.6253 64.5547 0.0000 0.0000 0.0000
# 2 -0.6253 63.5479 -3.4115 0.0000 0.0000 0.0000
# 3 64.5547 -3.4115 72.0730 0.0000 0.0000 0.0000
# 4 0.0000 0.0000 0.0000 2.2954 0.0000 0.0000
# 5 0.0000 0.0000 0.0000 0.0000 30.9327 0.0000
# 6 0.0000 0.0000 0.0000 0.0000 0.0000 -242.2696
#
#
#
# Elastic Compliance Matrix: (Units=1/GPa)
#
#
# Indices 1 2 3 4 5 6 
#
# 1 0.010678 -0.000409 -0.009584 0.000000 0.000000 0.000000
# 2 -0.000409 0.015792 0.001114 0.000000 0.000000 0.000000
# 3 -0.009584 0.001114 0.022511 0.000000 0.000000 0.000000
# 4 0.000000 0.000000 0.000000 0.435650 0.000000 0.000000
# 5 0.000000 0.000000 0.000000 0.000000 0.032328 0.000000
# 6 0.000000 0.000000 0.000000 0.000000 0.000000 -0.004128
#
#
# Mechanical properties :
#
#
# Convention : Reuss Voigt Hill
#
# Bulk Modulus (GPa) = 32.02680 45.35790 38.69235
# Shear Modulus (GPa) = 9.24220 -26.69715 -8.72748
#
# Velocity S-wave (km/s) = 2.05941 -3.50017 -2.00125
# Velocity P-wave (km/s) = 4.51130 2.11650 3.52359
#
# Compressibility (1/GPa) = 0.03122385
#
# Stress axis : x y z
#
# Youngs Moduli (GPa) = 93.65035 63.32344 44.42199
#
# Poissons Ratio (x) = 0.02593 0.42572
# Poissons Ratio (y) = 0.03834 -0.04949
# Poissons Ratio (z) = 0.89750 -0.07055
#
# Static dielectric constant tensor:
#      x y z
#    x 1.780830 0.000000 0.000000 
#    y 0.000000 1.916380 0.000000 
#    z 0.000000 0.000000 1.769370 
# 
# From -- ./inp_files/77950.got.cif
#   From: 2010.05.17/outbox.cif.g08.bks.cpg/sg65_39_cif.got.tgz:77950.got - 2010.06.03 17:01:31.
