data_PCOD9485148
_publ_section_title
;
Structure prediction by ZEFSAII (Michael W. Deem and Ramdas Pophale) SiO2 
 PCOD9485148
Probable space group: C M M M
;
_chemical_formula_sum "Si O2"
_cell_formula_units_Z 104
_cell_length_a 8.356432
_cell_length_b 29.077196
_cell_length_c 22.222709
_cell_angle_alpha 90.000000
_cell_angle_beta 90.000000
_cell_angle_gamma 90.000000
_cell_volume 5399.709636
_symmetry_space_group_name_H-M "C M M M"
_symmetry_group_IT_number 65
_symmetry_cell_setting 'orthorhombic'
loop_
_space_group_symop_operation_xyz
x,y,z
-x,-y,z
x,-y,-z
-x,y,-z
-x,-y,-z
x,y,-z
-x,y,z
x,-y,z
1/2+x,1/2+y,z
1/2-x,1/2-y,z
1/2+x,1/2-y,-z
1/2-x,1/2+y,-z
1/2-x,1/2-y,-z
1/2+x,1/2+y,-z
1/2-x,1/2+y,z
1/2+x,1/2-y,z
loop_
_atom_site_type_symbol
_atom_site_label
_atom_site_fract_x
_atom_site_fract_y
_atom_site_fract_z
Si Si1 0.191091 0.802967 0.739307
Si Si2 0.681266 0.448155 0.244648
Si Si3 0.809447 0.146149 0.384463
Si Si4 0.682167 0.125819 0.833720
Si Si5 0.194629 0.552549 0.929652
Si Si6 0.691159 0.198766 0.500000
Si Si7 0.188575 0.549114 0.623282
O O1 0.250000 0.750000 0.737959
O O2 0.246985 0.832188 0.679923
O O3 0.239804 0.830481 0.800228
O O4 0.000000 0.801935 0.736358
O O5 0.500000 0.431842 0.232358
O O6 0.698941 0.500000 0.221624
O O7 0.807360 0.413955 0.216578
O O8 0.710531 0.450373 0.315322
O O9 0.762836 0.178423 0.438983
O O10 0.734072 0.097468 0.404037
O O11 0.000000 0.140631 0.379477
O O12 0.500000 0.138228 0.848512
O O13 0.753166 0.095955 0.889784
O O14 0.247660 0.500000 0.913686
O O15 0.000000 0.552320 0.923528
O O16 0.232148 0.559162 0.000000
O O17 0.500000 0.193844 0.500000
O O18 0.750000 0.250000 0.500000
O O19 0.221168 0.500000 0.591882
O O20 0.000000 0.549658 0.637542
#
# Coordination Sequence:
#
# PCOD9485148 Si02
#       7
#    16  16  16  16  16   8  16
#     4  11  24  40  59  83 113 148 187 238 294 349
#     4  10  19  30  46  73 111 150 186 226 272 325
#     4  11  23  41  64  89 119 154 191 235 292 351
#     4  11  20  31  53  82 112 147 190 237 286 342
#     4   8  15  29  50  80 118 156 193 233 279 335
#     4  12  26  44  67  92 119 150 194 247 293 347
#     4  10  20  34  55  84 117 152 190 231 276 334
#
# _framework density 19.260293999999998
#
# number of rings (size 3 to 8) (size 9 to 14) (size 15 to 20)
#    0.000    1.692    1.538    4.385    0.000    5.538 
#    0.000    0.385    0.000    4.615    0.000    5.385 
#    0.000    0.000    0.000    0.000    0.000    0.000 
#
# Total GULP energy -289732.543874 kJ/mol
# GULP energy per Si atom -5571.779690 kJ/mol
# Density = 1.921646 g / cm^3
# Si number density = 19.260294 Si / 1000 Ang^3
#
#
#
# Elastic Constant Matrix: (Units=GPa)
#
#
# Indices 1 2 3 4 5 6 
#
# 1 44.0177 27.8631 6.2959 0.0000 0.0000 0.0000
# 2 27.8631 155.3400 54.2579 0.0000 0.0000 0.0000
# 3 6.2959 54.2579 77.8270 0.0000 0.0000 0.0000
# 4 0.0000 0.0000 0.0000 26.6414 0.0000 0.0000
# 5 0.0000 0.0000 0.0000 0.0000 11.2156 0.0000
# 6 0.0000 0.0000 0.0000 0.0000 0.0000 24.9634
#
#
#
# Elastic Compliance Matrix: (Units=1/GPa)
#
#
# Indices 1 2 3 4 5 6 
#
# 1 0.025760 -0.005146 0.001503 0.000000 0.000000 0.000000
# 2 -0.005146 0.009538 -0.006233 0.000000 0.000000 0.000000
# 3 0.001503 -0.006233 0.017073 0.000000 0.000000 0.000000
# 4 0.000000 0.000000 0.000000 0.037536 0.000000 0.000000
# 5 0.000000 0.000000 0.000000 0.000000 0.089161 0.000000
# 6 0.000000 0.000000 0.000000 0.000000 0.000000 0.040059
#
#
# Mechanical properties :
#
#
# Convention : Reuss Voigt Hill
#
# Bulk Modulus (GPa) = 30.65580 50.44650 40.55115
# Shear Modulus (GPa) = 20.02002 25.14860 22.58431
#
# Velocity S-wave (km/s) = 3.22754 3.61740 3.42802
# Velocity P-wave (km/s) = 5.46264 6.61031 6.06369
#
# Compressibility (1/GPa) = 0.03262026
#
# Stress axis : x y z
#
# Youngs Moduli (GPa) = 38.81935 104.84891 58.57301
#
# Poissons Ratio (x) = 0.53952 -0.08806
# Poissons Ratio (y) = 0.19975 0.36508
# Poissons Ratio (z) = -0.05836 0.65351
#
# Static dielectric constant tensor:
#      x y z
#    x 1.677390 0.000000 0.000000 
#    y 0.000000 1.711180 0.000000 
#    z 0.000000 0.000000 1.665940 
# 
# From -- ./inp_files/60363.got.cif
#   From: 2010.05.17/outbox.cif.g08.bks.cpg/sg65_31_cif.got.tgz:60363.got - 2010.06.03 17:01:31.
