data_PCOD9485021
_publ_section_title
;
Structure prediction by ZEFSAII (Michael W. Deem and Ramdas Pophale) SiO2 
 PCOD9485021
Probable space group: C M M M
;
_chemical_formula_sum "Si O2"
_cell_formula_units_Z 88
_cell_length_a 7.718780
_cell_length_b 19.416669
_cell_length_c 29.765926
_cell_angle_alpha 90.000000
_cell_angle_beta 90.000000
_cell_angle_gamma 90.000000
_cell_volume 4461.108519
_symmetry_space_group_name_H-M "C M M M"
_symmetry_group_IT_number 65
_symmetry_cell_setting 'orthorhombic'
loop_
_space_group_symop_operation_xyz
x,y,z
-x,-y,z
x,-y,-z
-x,y,-z
-x,-y,-z
x,y,-z
-x,y,z
x,-y,z
1/2+x,1/2+y,z
1/2-x,1/2-y,z
1/2+x,1/2-y,-z
1/2-x,1/2+y,-z
1/2-x,1/2-y,-z
1/2+x,1/2+y,-z
1/2-x,1/2+y,z
1/2+x,1/2-y,z
loop_
_atom_site_type_symbol
_atom_site_label
_atom_site_fract_x
_atom_site_fract_y
_atom_site_fract_z
Si Si1 0.293157 0.577340 0.133713
Si Si2 0.200421 0.083691 0.500000
Si Si3 0.794536 0.330053 0.049202
Si Si4 0.791569 0.830468 0.317412
Si Si5 0.211475 0.080093 0.233577
Si Si6 0.212568 0.079974 0.598174
O O1 0.500000 0.572633 0.137955
O O2 0.225799 0.500000 0.125215
O O3 0.260231 0.626135 0.091891
O O4 0.230308 0.600077 0.183177
O O5 0.275095 0.102839 0.548570
O O6 0.000000 0.106857 0.500000
O O7 0.198983 0.000000 0.500000
O O8 0.750000 0.250000 0.055371
O O9 0.000000 0.335972 0.046893
O O10 0.722713 0.351586 0.000000
O O11 0.750000 0.750000 0.317663
O O12 0.726827 0.869700 0.272818
O O13 0.729497 0.870717 0.361796
O O14 0.000000 0.836808 0.317430
O O15 0.000000 0.081837 0.234313
O O16 0.259746 0.000000 0.241310
O O17 0.000000 0.080489 0.596838
O O18 0.261700 0.000000 0.605978
#
# Coordination Sequence:
#
# PCOD9485021 Si02
#       6
#    16   8  16  16  16  16
#     4   9  18  33  53  76 100 125 155 194 240 287
#     4   7  10  18  35  62  89 107 138 193 238 262
#     4  10  21  36  53  73  99 131 165 199 234 276
#     4  10  19  30  45  66  93 122 152 187 228 275
#     4   8  15  30  51  71  90 117 156 196 229 267
#     4   8  13  23  42  65  86 113 151 192 230 267
#
# _framework density 19.726039
#
# number of rings (size 3 to 8) (size 9 to 14) (size 15 to 20)
#    0.000    3.182    0.000    3.273    0.000    4.727 
#    0.000    5.000    0.000    3.273    0.000    0.000 
#    0.000    2.182    0.000    0.000    0.000    0.000 
#
# Total GULP energy -245192.439051 kJ/mol
# GULP energy per Si atom -5572.555433 kJ/mol
# Density = 1.968114 g / cm^3
# Si number density = 19.726039 Si / 1000 Ang^3
#
#
#
# Elastic Constant Matrix: (Units=GPa)
#
#
# Indices 1 2 3 4 5 6 
#
# 1 28.8749 0.7916 11.6494 0.0000 0.0000 0.0000
# 2 0.7916 109.9193 133.8593 0.0000 0.0000 0.0000
# 3 11.6494 133.8593 254.7317 0.0000 0.0000 0.0000
# 4 0.0000 0.0000 0.0000 -16.6448 0.0000 0.0000
# 5 0.0000 0.0000 0.0000 0.0000 -12.2180 0.0000
# 6 0.0000 0.0000 0.0000 0.0000 0.0000 19.2396
#
#
#
# Elastic Compliance Matrix: (Units=1/GPa)
#
#
# Indices 1 2 3 4 5 6 
#
# 1 0.036200 0.004875 -0.004217 0.000000 0.000000 0.000000
# 2 0.004875 0.025924 -0.013846 0.000000 0.000000 0.000000
# 3 -0.004217 -0.013846 0.011394 0.000000 0.000000 0.000000
# 4 0.000000 0.000000 0.000000 -0.060079 0.000000 0.000000
# 5 0.000000 0.000000 0.000000 0.000000 -0.081847 0.000000
# 6 0.000000 0.000000 0.000000 0.000000 0.000000 0.051976
#
#
# Mechanical properties :
#
#
# Convention : Reuss Voigt Hill
#
# Bulk Modulus (GPa) = 21.21233 76.23630 48.72432
# Shear Modulus (GPa) = 194.87022 14.55706 104.71364
#
# Velocity S-wave (km/s) = 9.95001 2.71949 7.29378
# Velocity P-wave (km/s) = 11.94908 6.97082 9.78194
#
# Compressibility (1/GPa) = 0.04714238
#
# Stress axis : x y z
#
# Youngs Moduli (GPa) = 27.62432 38.57501 87.76331
#
# Poissons Ratio (x) = -0.18806 0.37013
# Poissons Ratio (y) = -0.13468 1.21513
# Poissons Ratio (z) = 0.11650 0.53409
#
# Static dielectric constant tensor:
#      x y z
#    x 1.765760 0.000000 0.000000 
#    y 0.000000 1.637510 0.000000 
#    z 0.000000 0.000000 1.741110 
# 
# From -- ./inp_files/76709.got.cif
#   From: 2010.05.17/outbox.cif.g08.bks.cpg/sg65_39_cif.got.tgz:76709.got - 2010.06.03 17:01:31.
