data_PCOD9485307
_publ_section_title
;
Structure prediction by ZEFSAII (Michael W. Deem and Ramdas Pophale) SiO2 
 PCOD9485307
Probable space group: C M M M
;
_chemical_formula_sum "Si O2"
_cell_formula_units_Z 88
_cell_length_a 19.099094
_cell_length_b 11.379892
_cell_length_c 18.640426
_cell_angle_alpha 90.000000
_cell_angle_beta 90.000000
_cell_angle_gamma 90.000000
_cell_volume 4051.415077
_symmetry_space_group_name_H-M "C M M M"
_symmetry_group_IT_number 65
_symmetry_cell_setting 'orthorhombic'
loop_
_space_group_symop_operation_xyz
x,y,z
-x,-y,z
x,-y,-z
-x,y,-z
-x,-y,-z
x,y,-z
-x,y,z
x,-y,z
1/2+x,1/2+y,z
1/2-x,1/2-y,z
1/2+x,1/2-y,-z
1/2-x,1/2+y,-z
1/2-x,1/2-y,-z
1/2+x,1/2+y,-z
1/2-x,1/2+y,z
1/2+x,1/2-y,z
loop_
_atom_site_type_symbol
_atom_site_label
_atom_site_fract_x
_atom_site_fract_y
_atom_site_fract_z
Si Si1 0.584543 0.633867 0.578905
Si Si2 0.770035 0.623841 0.272480
Si Si3 0.079537 0.763205 0.874707
Si Si4 0.418130 0.000000 0.914346
Si Si5 0.920677 0.294489 0.284876
Si Si6 0.780716 0.872126 0.893661
O O1 0.609242 0.675096 0.500000
O O2 0.500000 0.629222 0.575483
O O3 0.608675 0.500000 0.589617
O O4 0.597589 0.716670 0.646125
O O5 0.745533 0.500000 0.305055
O O6 0.750000 0.750000 0.305205
O O7 0.854321 0.622935 0.272921
O O8 0.739308 0.626829 0.191348
O O9 0.106537 0.628388 0.887976
O O10 0.077047 0.779237 0.788839
O O11 0.136200 0.853817 0.903271
O O12 0.000000 0.771713 0.902957
O O13 0.500000 0.000000 0.891743
O O14 0.413570 0.000000 0.000000
O O15 0.000000 0.344233 0.293105
O O16 0.750000 0.750000 0.922199
O O17 0.757698 0.000000 0.920994
#
# Coordination Sequence:
#
# PCOD9485307 Si02
#       6
#    16  16  16   8  16  16
#     4   8  15  29  49  75 113 158 195 235 296 361
#     4  10  20  34  50  75 113 153 188 234 295 358
#     4  10  20  33  56  89 118 147 192 248 297 345
#     4   9  20  38  62  92 125 159 194 236 293 364
#     4  10  19  30  50  85 115 142 189 252 296 341
#     4  10  20  34  52  80 115 157 191 237 298 358
#
# _framework density 21.720806
#
# number of rings (size 3 to 8) (size 9 to 14) (size 15 to 20)
#    0.000    2.455    3.636    0.545    2.545    2.182 
#    0.000    1.818    0.000    2.182    0.000    5.091 
#    0.000    0.000    0.000    0.000    0.000    0.182 
#
# Total GULP energy -245070.450710 kJ/mol
# GULP energy per Si atom -5569.782971 kJ/mol
# Density = 2.167137 g / cm^3
# Si number density = 21.720806 Si / 1000 Ang^3
#
#
#
# Elastic Constant Matrix: (Units=GPa)
#
#
# Indices 1 2 3 4 5 6 
#
# 1 113.5679 42.5496 7.5652 0.0000 0.0000 0.0000
# 2 42.5496 149.6499 19.6160 0.0000 0.0000 0.0000
# 3 7.5652 19.6160 67.6430 0.0000 0.0000 0.0000
# 4 0.0000 0.0000 0.0000 -52.3161 0.0000 0.0000
# 5 0.0000 0.0000 0.0000 0.0000 -31.1948 0.0000
# 6 0.0000 0.0000 0.0000 0.0000 0.0000 5.4349
#
#
#
# Elastic Compliance Matrix: (Units=1/GPa)
#
#
# Indices 1 2 3 4 5 6 
#
# 1 0.009861 -0.002764 -0.000301 0.000000 0.000000 0.000000
# 2 -0.002764 0.007721 -0.001930 0.000000 0.000000 0.000000
# 3 -0.000301 -0.001930 0.015377 0.000000 0.000000 0.000000
# 4 0.000000 0.000000 0.000000 -0.019115 0.000000 0.000000
# 5 0.000000 0.000000 0.000000 0.000000 -0.032057 0.000000
# 6 0.000000 0.000000 0.000000 0.000000 0.000000 0.183997
#
#
# Mechanical properties :
#
#
# Convention : Reuss Voigt Hill
#
# Bulk Modulus (GPa) = 43.53849 52.25805 47.89827
# Shear Modulus (GPa) = 27.25810 1.79346 14.52578
#
# Velocity S-wave (km/s) = 3.54634 0.90966 2.58882
# Velocity P-wave (km/s) = 6.07098 5.02141 5.57097
#
# Compressibility (1/GPa) = 0.02296818
#
# Stress axis : x y z
#
# Youngs Moduli (GPa) = 101.40912 129.51351 65.03282
#
# Poissons Ratio (x) = 0.35801 0.01959
# Poissons Ratio (y) = 0.28032 0.12551
# Poissons Ratio (z) = 0.03055 0.24995
#
# Static dielectric constant tensor:
#      x y z
#    x 1.858930 0.000000 0.000000 
#    y 0.000000 1.816080 0.000000 
#    z 0.000000 0.000000 1.774400 
# 
# From -- ./inp_files/55675.got.cif
#   From: 2010.05.17/outbox.cif.g08.bks.cpg/sg65_28_cif.got.tgz:55675.got - 2010.06.03 17:01:31.
