data_PCOD9485373
_publ_section_title
;
Structure prediction by ZEFSAII (Michael W. Deem and Ramdas Pophale) SiO2 
 PCOD9485373
Probable space group: C M M M
;
_chemical_formula_sum "Si O2"
_cell_formula_units_Z 96
_cell_length_a 28.413235
_cell_length_b 8.546877
_cell_length_c 24.548259
_cell_angle_alpha 90.000000
_cell_angle_beta 90.000000
_cell_angle_gamma 90.000000
_cell_volume 5961.407835
_symmetry_space_group_name_H-M "C M M M"
_symmetry_group_IT_number 65
_symmetry_cell_setting 'orthorhombic'
loop_
_space_group_symop_operation_xyz
x,y,z
-x,-y,z
x,-y,-z
-x,y,-z
-x,-y,-z
x,y,-z
-x,y,z
x,-y,z
1/2+x,1/2+y,z
1/2-x,1/2-y,z
1/2+x,1/2-y,-z
1/2-x,1/2+y,-z
1/2-x,1/2-y,-z
1/2+x,1/2+y,-z
1/2-x,1/2+y,z
1/2+x,1/2-y,z
loop_
_atom_site_type_symbol
_atom_site_label
_atom_site_fract_x
_atom_site_fract_y
_atom_site_fract_z
Si Si1 0.392934 0.690266 0.168017
Si Si2 0.143500 0.685931 0.336055
Si Si3 0.945443 0.809154 0.061278
Si Si4 0.053759 0.189228 0.722126
Si Si5 0.197958 0.812321 0.768536
Si Si6 0.197809 0.187439 0.562713
O O1 0.392766 0.500000 0.166201
O O2 0.412281 0.746491 0.110134
O O3 0.427869 0.734025 0.217485
O O4 0.340800 0.739298 0.186700
O O5 0.145719 0.500000 0.334032
O O6 0.091384 0.743055 0.320069
O O7 0.178002 0.754297 0.289439
O O8 0.161128 0.745823 0.394190
O O9 0.000000 0.765471 0.071216
O O10 0.944321 0.000000 0.061516
O O11 0.932376 0.758929 0.000000
O O12 0.000000 0.238461 0.713625
O O13 0.055746 0.000000 0.719298
O O14 0.250000 0.750000 0.778499
O O15 0.198693 0.000000 0.767516
O O16 0.187718 0.232891 0.500000
O O17 0.250000 0.250000 0.576142
O O18 0.198295 0.000000 0.566028
#
# Coordination Sequence:
#
# PCOD9485373 Si02
#       6
#    16  16  16  16  16  16
#     4   8  14  24  39  60  86 117 150 184 225 271
#     4  11  21  32  48  70  97 124 151 186 227 272
#     4   8  12  18  32  57  87 115 143 179 224 271
#     4   9  17  30  48  68  92 123 157 191 227 270
#     4  10  19  31  46  64  88 118 153 190 229 274
#     4  10  20  34  52  73  97 124 154 187 224 268
#
# _framework density 16.103580000000001
#
# number of rings (size 3 to 8) (size 9 to 14) (size 15 to 20)
#    0.000    2.667    0.000    5.000    0.000    3.333 
#    0.000    0.000    0.000    1.000    0.000    3.500 
#    0.000   16.000    0.000   53.500    0.000   49.000 
#
# Total GULP energy -267594.104418 kJ/mol
# GULP energy per Si atom -5574.877175 kJ/mol
# Density = 1.606693 g / cm^3
# Si number density = 16.103580 Si / 1000 Ang^3
#
#
#
# Elastic Constant Matrix: (Units=GPa)
#
#
# Indices 1 2 3 4 5 6 
#
# 1 149.8620 35.0030 92.6215 0.0000 0.0000 0.0000
# 2 35.0030 38.3614 28.8022 0.0000 0.0000 0.0000
# 3 92.6215 28.8022 123.3119 0.0000 0.0000 0.0000
# 4 0.0000 0.0000 0.0000 5.6635 0.0000 0.0000
# 5 0.0000 0.0000 0.0000 0.0000 24.5348 0.0000
# 6 0.0000 0.0000 0.0000 0.0000 0.0000 22.1044
#
#
#
# Elastic Compliance Matrix: (Units=1/GPa)
#
#
# Indices 1 2 3 4 5 6 
#
# 1 0.013397 -0.005662 -0.008740 0.000000 0.000000 0.000000
# 2 -0.005662 0.034004 -0.003690 0.000000 0.000000 0.000000
# 3 -0.008740 -0.003690 0.015536 0.000000 0.000000 0.000000
# 4 0.000000 0.000000 0.000000 0.176568 0.000000 0.000000
# 5 0.000000 0.000000 0.000000 0.000000 0.040759 0.000000
# 6 0.000000 0.000000 0.000000 0.000000 0.000000 0.045240
#
#
# Mechanical properties :
#
#
# Convention : Reuss Voigt Hill
#
# Bulk Modulus (GPa) = 37.37766 69.37652 53.37709
# Shear Modulus (GPa) = 13.49139 20.80111 17.14625
#
# Velocity S-wave (km/s) = 2.89760 3.59793 3.26659
# Velocity P-wave (km/s) = 5.86992 7.77400 6.88807
#
# Compressibility (1/GPa) = 0.02675395
#
# Stress axis : x y z
#
# Youngs Moduli (GPa) = 74.64235 29.40793 64.36517
#
# Poissons Ratio (x) = 0.16651 0.56258
# Poissons Ratio (y) = 0.42262 0.23749
# Poissons Ratio (z) = 0.65240 0.10851
#
# Static dielectric constant tensor:
#      x y z
#    x 1.530720 0.000000 0.000000 
#    y 0.000000 1.548630 0.000000 
#    z 0.000000 0.000000 1.536980 
# 
# From -- ./inp_files/68015.got.cif
#   From: 2010.05.17/outbox.cif.g08.bks.cpg/sg65_35_cif.got.tgz:68015.got - 2010.06.03 17:01:31.
