data_PCOD9485478
_publ_section_title
;
Structure prediction by ZEFSAII (Michael W. Deem and Ramdas Pophale) SiO2 
 PCOD9485478
Probable space group: C M M M
;
_chemical_formula_sum "Si O2"
_cell_formula_units_Z 120
_cell_length_a 20.816958
_cell_length_b 24.090246
_cell_length_c 13.791419
_cell_angle_alpha 90.000000
_cell_angle_beta 90.000000
_cell_angle_gamma 90.000000
_cell_volume 6916.198573
_symmetry_space_group_name_H-M "C M M M"
_symmetry_group_IT_number 65
_symmetry_cell_setting 'orthorhombic'
loop_
_space_group_symop_operation_xyz
x,y,z
-x,-y,z
x,-y,-z
-x,y,-z
-x,-y,-z
x,y,-z
-x,y,z
x,-y,z
1/2+x,1/2+y,z
1/2-x,1/2-y,z
1/2+x,1/2-y,-z
1/2-x,1/2+y,-z
1/2-x,1/2-y,-z
1/2+x,1/2+y,-z
1/2-x,1/2+y,z
1/2+x,1/2-y,z
loop_
_atom_site_type_symbol
_atom_site_label
_atom_site_fract_x
_atom_site_fract_y
_atom_site_fract_z
Si Si1 0.633996 0.565714 0.218009
Si Si2 0.104800 0.780212 0.891225
Si Si3 0.922790 0.437256 0.112032
Si Si4 0.072324 0.839148 0.306770
Si Si5 0.771036 0.144211 0.111678
Si Si6 0.076458 0.721619 0.611129
Si Si7 0.500000 0.434155 0.894218
Si Si8 0.637281 0.832156 0.795318
O O1 0.640295 0.500000 0.238616
O O2 0.621659 0.609465 0.305160
O O3 0.691875 0.590306 0.153799
O O4 0.566932 0.575357 0.159933
O O5 0.071573 0.810515 0.800639
O O6 0.176126 0.806822 0.889168
O O7 0.108665 0.715430 0.866024
O O8 0.079368 0.789015 0.000000
O O9 0.902251 0.500000 0.136348
O O10 0.894205 0.390833 0.180395
O O11 0.000000 0.435572 0.116106
O O12 0.904173 0.426360 0.000000
O O13 0.089735 0.787319 0.374604
O O14 0.000000 0.858076 0.330195
O O15 0.711974 0.161411 0.178765
O O16 0.750546 0.135130 0.000000
O O17 0.087205 0.705516 0.500000
O O18 0.119011 0.688392 0.688215
O O19 0.000000 0.714256 0.633490
O O20 0.500000 0.500000 0.905665
O O21 0.500000 0.407310 0.000000
#
# Coordination Sequence:
#
# PCOD9485478 Si02
#       8
#    16  16  16  16  16  16   8  16
#     4  10  19  31  47  69 102 144 186 223 252 290
#     4   9  18  30  44  67 101 136 168 206 252 300
#     4   9  18  31  46  69 102 134 162 195 235 283
#     4   9  17  30  48  74 103 133 170 215 268 316
#     4  10  20  31  44  68 105 144 177 212 252 296
#     4   9  19  36  58  82 105 126 158 214 278 332
#     4   9  16  26  42  64  93 135 183 221 249 280
#     4  11  19  31  53  73  95 131 174 208 246 310
#
# _framework density 17.350570999999999
#
# number of rings (size 3 to 8) (size 9 to 14) (size 15 to 20)
#    0.000    2.467    0.667    2.800    0.000    3.733 
#    0.000    0.000    0.000   15.200    0.000    3.733 
#    0.000    0.000    0.000    0.000    0.000    0.000 
#
# Total GULP energy -334297.399962 kJ/mol
# GULP energy per Si atom -5571.623333 kJ/mol
# Density = 1.731108 g / cm^3
# Si number density = 17.350571 Si / 1000 Ang^3
#
#
#
# Elastic Constant Matrix: (Units=GPa)
#
#
# Indices 1 2 3 4 5 6 
#
# 1 60.1442 27.5885 36.5157 0.0000 0.0000 0.0000
# 2 27.5885 107.1059 36.4259 0.0000 0.0000 0.0000
# 3 36.5157 36.4259 71.5334 0.0000 0.0000 0.0000
# 4 0.0000 0.0000 0.0000 12.9903 0.0000 0.0000
# 5 0.0000 0.0000 0.0000 0.0000 -18.2551 0.0000
# 6 0.0000 0.0000 0.0000 0.0000 0.0000 3.2656
#
#
#
# Elastic Compliance Matrix: (Units=1/GPa)
#
#
# Indices 1 2 3 4 5 6 
#
# 1 0.024636 -0.002502 -0.011302 0.000000 0.000000 0.000000
# 2 -0.002502 0.011546 -0.004602 0.000000 0.000000 0.000000
# 3 -0.011302 -0.004602 0.022092 0.000000 0.000000 0.000000
# 4 0.000000 0.000000 0.000000 0.076980 0.000000 0.000000
# 5 0.000000 0.000000 0.000000 0.000000 -0.054779 0.000000
# 6 0.000000 0.000000 0.000000 0.000000 0.000000 0.306219
#
#
# Mechanical properties :
#
#
# Convention : Reuss Voigt Hill
#
# Bulk Modulus (GPa) = 46.59367 48.87153 47.73260
# Shear Modulus (GPa) = 11.61004 8.81706 10.21355
#
# Velocity S-wave (km/s) = 2.58959 2.25671 2.42886
# Velocity P-wave (km/s) = 5.98781 5.91765 5.95283
#
# Compressibility (1/GPa) = 0.02146214
#
# Stress axis : x y z
#
# Youngs Moduli (GPa) = 40.59056 86.60815 45.26454
#
# Poissons Ratio (x) = 0.21671 0.51158
# Poissons Ratio (y) = 0.10156 0.20832
# Poissons Ratio (z) = 0.45875 0.39859
#
# Static dielectric constant tensor:
#      x y z
#    x 1.613410 0.000000 0.000000 
#    y 0.000000 1.610660 0.000000 
#    z 0.000000 0.000000 1.613840 
# 
# From -- ./inp_files/44788.got.cif
#   From: 2010.05.17/outbox.cif.g08.bks.cpg/sg65_23_cif.got.tgz:44788.got - 2010.06.03 17:01:31.
