data_PCOD9485573
_publ_section_title
;
Structure prediction by ZEFSAII (Michael W. Deem and Ramdas Pophale) SiO2 
 PCOD9485573
Probable space group: C M M M
;
_chemical_formula_sum "Si O2"
_cell_formula_units_Z 104
_cell_length_a 29.490060
_cell_length_b 7.825999
_cell_length_c 23.898954
_cell_angle_alpha 90.000000
_cell_angle_beta 90.000000
_cell_angle_gamma 90.000000
_cell_volume 5515.619998
_symmetry_space_group_name_H-M "C M M M"
_symmetry_group_IT_number 65
_symmetry_cell_setting 'orthorhombic'
loop_
_space_group_symop_operation_xyz
x,y,z
-x,-y,z
x,-y,-z
-x,y,-z
-x,-y,-z
x,y,-z
-x,y,z
x,-y,z
1/2+x,1/2+y,z
1/2-x,1/2-y,z
1/2+x,1/2-y,-z
1/2-x,1/2+y,-z
1/2-x,1/2-y,-z
1/2+x,1/2+y,-z
1/2-x,1/2+y,z
1/2+x,1/2-y,z
loop_
_atom_site_type_symbol
_atom_site_label
_atom_site_fract_x
_atom_site_fract_y
_atom_site_fract_z
Si Si1 0.103436 0.798790 0.110932
Si Si2 0.947856 0.291499 0.563285
Si Si3 0.699684 0.794770 0.276967
Si Si4 0.052668 0.209559 0.000000
Si Si5 0.892685 0.290223 0.670270
Si Si6 0.449087 0.203350 0.777556
Si Si7 0.300495 0.796407 0.851448
O O1 0.081075 0.729396 0.167566
O O2 0.157208 0.767754 0.112841
O O3 0.095461 0.000000 0.111867
O O4 0.078603 0.730480 0.055675
O O5 0.936604 0.236736 0.500000
O O6 0.947305 0.500000 0.563392
O O7 0.914041 0.233404 0.611729
O O8 0.000000 0.241498 0.575447
O O9 0.750000 0.750000 0.296790
O O10 0.658357 0.734608 0.315300
O O11 0.694887 0.729996 0.212795
O O12 0.696603 0.000000 0.274015
O O13 0.000000 0.260494 0.000000
O O14 0.053612 0.000000 0.000000
O O15 0.892878 0.500000 0.669777
O O16 0.924008 0.232110 0.722053
O O17 0.500000 0.273023 0.784564
O O18 0.452748 0.000000 0.769833
O O19 0.250000 0.750000 0.871170
O O20 0.303859 0.000000 0.849460
#
# Coordination Sequence:
#
# PCOD9485573 Si02
#       7
#    16  16  16   8  16  16  16
#     4  11  21  35  55  76 100 132 168 207 250 297
#     4   8  13  21  36  61  92 126 164 201 237 285
#     4   9  17  29  46  67  95 126 158 194 239 293
#     4   9  20  38  56  73  98 135 174 207 244 295
#     4   9  15  26  42  64  94 128 160 197 248 298
#     4  10  19  31  48  71 100 131 162 203 255 304
#     4  10  19  34  54  78 105 131 164 203 249 303
#
# _framework density 18.855540999999999
#
# number of rings (size 3 to 8) (size 9 to 14) (size 15 to 20)
#    0.000    2.538    1.538    2.308    0.000    3.385 
#    0.000    1.923    0.000    3.231    0.000    0.000 
#    0.000    1.846    0.000    8.462    0.000    7.692 
#
# Total GULP energy -290089.287855 kJ/mol
# GULP energy per Si atom -5578.640151 kJ/mol
# Density = 1.881262 g / cm^3
# Si number density = 18.855541 Si / 1000 Ang^3
#
#
#
# Elastic Constant Matrix: (Units=GPa)
#
#
# Indices 1 2 3 4 5 6 
#
# 1 164.3725 -4.2169 87.2815 0.0000 0.0000 0.0000
# 2 -4.2169 18.8219 0.1528 0.0000 0.0000 0.0000
# 3 87.2815 0.1528 125.1831 0.0000 0.0000 0.0000
# 4 0.0000 0.0000 0.0000 16.7368 0.0000 0.0000
# 5 0.0000 0.0000 0.0000 0.0000 31.6054 0.0000
# 6 0.0000 0.0000 0.0000 0.0000 0.0000 18.8227
#
#
#
# Elastic Compliance Matrix: (Units=1/GPa)
#
#
# Indices 1 2 3 4 5 6 
#
# 1 0.009754 0.002240 -0.006803 0.000000 0.000000 0.000000
# 2 0.002240 0.053645 -0.001628 0.000000 0.000000 0.000000
# 3 -0.006803 -0.001628 0.012734 0.000000 0.000000 0.000000
# 4 0.000000 0.000000 0.000000 0.059749 0.000000 0.000000
# 5 0.000000 0.000000 0.000000 0.000000 0.031640 0.000000
# 6 0.000000 0.000000 0.000000 0.000000 0.000000 0.053127
#
#
# Mechanical properties :
#
#
# Convention : Reuss Voigt Hill
#
# Bulk Modulus (GPa) = 15.68594 52.75691 34.22142
# Shear Modulus (GPa) = 19.66337 28.44366 24.05352
#
# Velocity S-wave (km/s) = 3.23281 3.88816 3.57553
# Velocity P-wave (km/s) = 4.71930 6.94243 5.93587
#
# Compressibility (1/GPa) = 0.06375137
#
# Stress axis : x y z
#
# Youngs Moduli (GPa) = 102.52412 18.64115 78.53109
#
# Poissons Ratio (x) = -0.04176 0.53428
# Poissons Ratio (y) = -0.22970 0.12782
# Poissons Ratio (z) = 0.69751 0.03034
#
# Static dielectric constant tensor:
#      x y z
#    x 1.650820 0.000000 0.000000 
#    y 0.000000 1.687040 0.000000 
#    z 0.000000 0.000000 1.639900 
# 
# From -- ./inp_files/68462.got.cif
#   From: 2010.05.17/outbox.cif.g08.bks.cpg/sg65_35_cif.got.tgz:68462.got - 2010.06.03 17:01:31.
