data_PCOD9485312
_publ_section_title
;
Structure prediction by ZEFSAII (Michael W. Deem and Ramdas Pophale) SiO2 
 PCOD9485312
Probable space group: C M M M
;
_chemical_formula_sum "Si O2"
_cell_formula_units_Z 96
_cell_length_a 13.578731
_cell_length_b 28.393907
_cell_length_c 12.609171
_cell_angle_alpha 90.000000
_cell_angle_beta 90.000000
_cell_angle_gamma 90.000000
_cell_volume 4861.506546
_symmetry_space_group_name_H-M "C M M M"
_symmetry_group_IT_number 65
_symmetry_cell_setting 'orthorhombic'
loop_
_space_group_symop_operation_xyz
x,y,z
-x,-y,z
x,-y,-z
-x,y,-z
-x,-y,-z
x,y,-z
-x,y,z
x,-y,z
1/2+x,1/2+y,z
1/2-x,1/2-y,z
1/2+x,1/2-y,-z
1/2-x,1/2+y,-z
1/2-x,1/2-y,-z
1/2+x,1/2+y,-z
1/2-x,1/2+y,z
1/2+x,1/2-y,z
loop_
_atom_site_type_symbol
_atom_site_label
_atom_site_fract_x
_atom_site_fract_y
_atom_site_fract_z
Si Si1 0.661896 0.856750 0.500000
Si Si2 0.693315 0.446295 0.500000
Si Si3 0.110469 0.259386 0.500000
Si Si4 0.113865 0.198813 0.713556
Si Si5 0.680508 0.554907 0.737498
Si Si6 0.381840 0.780718 0.121135
Si Si7 0.500000 0.442516 0.879420
Si Si8 0.692357 0.861397 0.273152
O O1 0.734379 0.901607 0.500000
O O2 0.689273 0.801234 0.500000
O O3 0.624389 0.859854 0.378425
O O4 0.737022 0.500000 0.500000
O O5 0.642548 0.442482 0.385128
O O6 0.115340 0.229377 0.606264
O O7 0.000000 0.282023 0.500000
O O8 0.141708 0.234119 0.809702
O O9 0.198456 0.160049 0.701510
O O10 0.000000 0.182373 0.727942
O O11 0.698957 0.500000 0.758649
O O12 0.596913 0.572474 0.816863
O O13 0.779385 0.585084 0.752014
O O14 0.500000 0.781795 0.118980
O O15 0.348034 0.827568 0.182562
O O16 0.346304 0.779046 0.000000
O O17 0.500000 0.500000 0.878823
O O18 0.500000 0.426095 0.000000
#
# Coordination Sequence:
#
# PCOD9485312 Si02
#       8
#     8   8   8  16  16  16   8  16
#     4  10  19  30  51  82 102 138 180 217 258 317
#     4   8  16  32  49  74 107 136 173 220 266 315
#     4  10  19  33  52  77 110 145 175 213 266 319
#     4  10  21  34  51  78 111 142 175 217 261 313
#     4   9  19  34  53  78 107 140 176 218 269 320
#     4  10  22  39  55  75 105 140 180 223 266 316
#     4   9  18  33  51  71 101 140 181 225 265 307
#     4  11  21  33  57  80 107 142 178 220 266 318
#
# _framework density 19.746966
#
# number of rings (size 3 to 8) (size 9 to 14) (size 15 to 20)
#    0.000    2.250    1.667    1.000    1.167    3.000 
#    0.000    1.667    0.000    0.750    0.000    5.833 
#    0.000    0.000    0.000    0.000    0.000    0.000 
#
# Total GULP energy -267326.051989 kJ/mol
# GULP energy per Si atom -5569.292750 kJ/mol
# Density = 1.970202 g / cm^3
# Si number density = 19.746966 Si / 1000 Ang^3
#
#
#
# Elastic Constant Matrix: (Units=GPa)
#
#
# Indices 1 2 3 4 5 6 
#
# 1 53.5269 19.2412 15.7426 0.0000 0.0000 0.0000
# 2 19.2412 72.9981 32.6752 0.0000 0.0000 0.0000
# 3 15.7426 32.6752 132.5097 0.0000 0.0000 0.0000
# 4 0.0000 0.0000 0.0000 14.0139 0.0000 0.0000
# 5 0.0000 0.0000 0.0000 0.0000 26.4162 0.0000
# 6 0.0000 0.0000 0.0000 0.0000 0.0000 20.7486
#
#
#
# Elastic Compliance Matrix: (Units=1/GPa)
#
#
# Indices 1 2 3 4 5 6 
#
# 1 0.020823 -0.004925 -0.001259 0.000000 0.000000 0.000000
# 2 -0.004925 0.016563 -0.003499 0.000000 0.000000 0.000000
# 3 -0.001259 -0.003499 0.008559 0.000000 0.000000 0.000000
# 4 0.000000 0.000000 0.000000 0.071358 0.000000 0.000000
# 5 0.000000 0.000000 0.000000 0.000000 0.037856 0.000000
# 6 0.000000 0.000000 0.000000 0.000000 0.000000 0.048196
#
#
# Mechanical properties :
#
#
# Convention : Reuss Voigt Hill
#
# Bulk Modulus (GPa) = 37.62453 43.81696 40.72075
# Shear Modulus (GPa) = 21.59070 24.99412 23.29241
#
# Velocity S-wave (km/s) = 3.31020 3.56155 3.43817
# Velocity P-wave (km/s) = 5.80556 6.25702 6.03551
#
# Compressibility (1/GPa) = 0.02657841
#
# Stress axis : x y z
#
# Youngs Moduli (GPa) = 48.02402 60.37402 116.83454
#
# Poissons Ratio (x) = 0.29733 0.14714
# Poissons Ratio (y) = 0.23651 0.40883
# Poissons Ratio (z) = 0.06048 0.21126
#
# Static dielectric constant tensor:
#      x y z
#    x 1.745390 0.000000 0.000000 
#    y 0.000000 1.691670 0.000000 
#    z 0.000000 0.000000 1.713940 
# 
# From -- ./inp_files/25522.got.cif
#   From: 2010.05.17/outbox.cif.g08.bks.cpg/sg65_13_cif.got.tgz:25522.got - 2010.06.03 17:01:31.
