data_PCOD9485513
_publ_section_title
;
Structure prediction by ZEFSAII (Michael W. Deem and Ramdas Pophale) SiO2 
 PCOD9485513
Probable space group: C M M M
;
_chemical_formula_sum "Si O2"
_cell_formula_units_Z 104
_cell_length_a 23.839899
_cell_length_b 8.510910
_cell_length_c 29.368479
_cell_angle_alpha 90.000000
_cell_angle_beta 90.000000
_cell_angle_gamma 90.000000
_cell_volume 5958.841916
_symmetry_space_group_name_H-M "C M M M"
_symmetry_group_IT_number 65
_symmetry_cell_setting 'orthorhombic'
loop_
_space_group_symop_operation_xyz
x,y,z
-x,-y,z
x,-y,-z
-x,y,-z
-x,-y,-z
x,y,-z
-x,y,z
x,-y,z
1/2+x,1/2+y,z
1/2-x,1/2-y,z
1/2+x,1/2-y,-z
1/2-x,1/2+y,-z
1/2-x,1/2-y,-z
1/2+x,1/2+y,-z
1/2-x,1/2+y,z
1/2+x,1/2-y,z
loop_
_atom_site_type_symbol
_atom_site_label
_atom_site_fract_x
_atom_site_fract_y
_atom_site_fract_z
Si Si1 0.880762 0.311856 0.735111
Si Si2 0.500000 0.808458 0.225552
Si Si3 0.814013 0.811380 0.649162
Si Si4 0.186345 0.190208 0.000000
Si Si5 0.312734 0.311423 0.178925
Si Si6 0.118182 0.810427 0.089431
Si Si7 0.000000 0.312175 0.119402
Si Si8 0.686044 0.310281 0.548849
O O1 0.881186 0.500000 0.732930
O O2 0.854874 0.247538 0.688534
O O3 0.840875 0.257724 0.776108
O O4 0.943504 0.257736 0.748620
O O5 0.500000 0.756349 0.172527
O O6 0.500000 0.000000 0.224716
O O7 0.750000 0.750000 0.655540
O O8 0.835273 0.760616 0.598651
O O9 0.811518 0.000000 0.650563
O O10 0.250000 0.250000 0.000000
O O11 0.152316 0.241583 0.955107
O O12 0.188089 0.000000 0.000000
O O13 0.312758 0.500000 0.181676
O O14 0.250000 0.250000 0.174356
O O15 0.348382 0.262646 0.134819
O O16 0.055621 0.746529 0.094285
O O17 0.115714 0.000000 0.088414
O O18 0.000000 0.500000 0.120510
O O19 0.660447 0.258995 0.500000
O O20 0.686113 0.500000 0.548842
O O21 0.750000 0.250000 0.548331
#
# Coordination Sequence:
#
# PCOD9485513 Si02
#       8
#    16   8  16   8  16  16   8  16
#     4  11  21  36  54  73 100 133 170 213 263 311
#     4   9  20  37  56  76  98 131 172 217 262 304
#     4  10  19  31  47  73 106 138 173 211 256 307
#     4  10  22  41  62  85 115 146 178 216 263 316
#     4  11  22  35  53  78 105 136 173 209 253 307
#     4  10  22  39  59  83 111 143 176 215 263 310
#     4  11  21  38  62  85 108 137 179 222 262 308
#     4   8  14  25  42  64  94 132 170 208 250 299
#
# _framework density 17.453056
#
# number of rings (size 3 to 8) (size 9 to 14) (size 15 to 20)
#    0.000    2.000    1.538    2.538    0.000    2.154 
#    0.000    3.077    0.000    0.000    0.000    0.538 
#    0.000    4.308    0.000    0.000    0.000    0.000 
#
# Total GULP energy -290072.040023 kJ/mol
# GULP energy per Si atom -5578.308462 kJ/mol
# Density = 1.741333 g / cm^3
# Si number density = 17.453056 Si / 1000 Ang^3
#
#
#
# Elastic Constant Matrix: (Units=GPa)
#
#
# Indices 1 2 3 4 5 6 
#
# 1 140.2177 21.8351 81.1205 0.0000 0.0000 0.0000
# 2 21.8351 23.4129 28.8662 0.0000 0.0000 0.0000
# 3 81.1205 28.8662 183.9554 0.0000 0.0000 0.0000
# 4 0.0000 0.0000 0.0000 -1.4630 0.0000 0.0000
# 5 0.0000 0.0000 0.0000 0.0000 -1.0443 0.0000
# 6 0.0000 0.0000 0.0000 0.0000 0.0000 -1.5769
#
#
#
# Elastic Compliance Matrix: (Units=1/GPa)
#
#
# Indices 1 2 3 4 5 6 
#
# 1 0.009995 -0.004819 -0.003651 0.000000 0.000000 0.000000
# 2 -0.004819 0.055281 -0.006549 0.000000 0.000000 0.000000
# 3 -0.003651 -0.006549 0.008074 0.000000 0.000000 0.000000
# 4 0.000000 0.000000 0.000000 -0.683538 0.000000 0.000000
# 5 0.000000 0.000000 0.000000 0.000000 -0.957575 0.000000
# 6 0.000000 0.000000 0.000000 0.000000 0.000000 -0.634171
#
#
# Mechanical properties :
#
#
# Convention : Reuss Voigt Hill
#
# Bulk Modulus (GPa) = 23.08963 67.91439 45.50201
# Shear Modulus (GPa) = -2.31754 13.56745 5.62495
#
# Velocity S-wave (km/s) = -1.15358 2.79116 1.79719
# Velocity P-wave (km/s) = 3.38880 7.02741 5.51672
#
# Compressibility (1/GPa) = 0.04330949
#
# Stress axis : x y z
#
# Youngs Moduli (GPa) = 100.05443 18.08940 123.85588
#
# Poissons Ratio (x) = 0.08718 0.45221
# Poissons Ratio (y) = 0.48221 0.81118
# Poissons Ratio (z) = 0.36531 0.11847
#
# Static dielectric constant tensor:
#      x y z
#    x 1.561780 0.000000 0.000000 
#    y 0.000000 1.597080 0.000000 
#    z 0.000000 0.000000 1.623390 
# 
# From -- ./inp_files/73421.got.cif
#   From: 2010.05.17/outbox.cif.g08.bks.cpg/sg65_37_cif.got.tgz:73421.got - 2010.06.03 17:01:31.
