data_PCOD9485524
_publ_section_title
;
Structure prediction by ZEFSAII (Michael W. Deem and Ramdas Pophale) SiO2 
 PCOD9485524
Probable space group: C M M M
;
_chemical_formula_sum "Si O2"
_cell_formula_units_Z 96
_cell_length_a 19.639496
_cell_length_b 18.724262
_cell_length_c 13.149687
_cell_angle_alpha 90.000000
_cell_angle_beta 90.000000
_cell_angle_gamma 90.000000
_cell_volume 4835.601052
_symmetry_space_group_name_H-M "C M M M"
_symmetry_group_IT_number 65
_symmetry_cell_setting 'orthorhombic'
loop_
_space_group_symop_operation_xyz
x,y,z
-x,-y,z
x,-y,-z
-x,y,-z
-x,-y,-z
x,y,-z
-x,y,z
x,-y,z
1/2+x,1/2+y,z
1/2-x,1/2-y,z
1/2+x,1/2-y,-z
1/2-x,1/2+y,-z
1/2-x,1/2-y,-z
1/2+x,1/2+y,-z
1/2-x,1/2+y,z
1/2+x,1/2-y,z
loop_
_atom_site_type_symbol
_atom_site_label
_atom_site_fract_x
_atom_site_fract_y
_atom_site_fract_z
Si Si1 0.681296 0.296941 0.392128
Si Si2 0.721993 0.916938 0.334579
Si Si3 0.925415 0.415686 0.669149
Si Si4 0.830066 0.772310 0.830342
Si Si5 0.422931 0.143619 0.109206
Si Si6 0.720482 0.581407 0.886573
O O1 0.645044 0.289315 0.500000
O O2 0.750000 0.250000 0.394282
O O3 0.714079 0.375410 0.379371
O O4 0.645779 0.277223 0.286964
O O5 0.647966 0.887469 0.368736
O O6 0.730482 0.910541 0.211492
O O7 0.724531 0.000000 0.360146
O O8 0.925915 0.500000 0.645805
O O9 0.919932 0.405294 0.791012
O O10 0.000000 0.386788 0.636985
O O11 0.750000 0.750000 0.832969
O O12 0.872254 0.710204 0.882182
O O13 0.831161 0.852168 0.875576
O O14 0.500000 0.172645 0.110239
O O15 0.413014 0.106608 0.000000
O O16 0.692876 0.500000 0.878910
O O17 0.751310 0.587472 0.000000
#
# Coordination Sequence:
#
# PCOD9485524 Si02
#       6
#    16  16  16  16  16  16
#     4   9  17  29  46  66  85 107 140 185 234 277
#     4   9  17  28  42  63  90 118 149 186 229 272
#     4   9  17  28  41  58  86 127 167 195 220 258
#     4  10  19  31  48  68  90 119 153 191 233 279
#     4  10  20  31  44  66  96 128 160 194 232 272
#     4   9  17  28  43  64  89 115 144 182 226 273
#
# _framework density 19.852754999999998
#
# number of rings (size 3 to 8) (size 9 to 14) (size 15 to 20)
#    0.000    2.667    0.000    3.500    0.000    4.000 
#    0.000    3.333    0.000    1.500    0.000   11.667 
#    0.000    0.000    0.000    8.333    0.000    3.833 
#
# Total GULP energy -267256.633741 kJ/mol
# GULP energy per Si atom -5567.846536 kJ/mol
# Density = 1.980757 g / cm^3
# Si number density = 19.852755 Si / 1000 Ang^3
#
#
#
# Elastic Constant Matrix: (Units=GPa)
#
#
# Indices 1 2 3 4 5 6 
#
# 1 19.6605 -12.9425 -6.4650 0.0000 0.0000 0.0000
# 2 -12.9425 60.0371 -8.5447 0.0000 0.0000 0.0000
# 3 -6.4650 -8.5447 88.3301 0.0000 0.0000 0.0000
# 4 0.0000 0.0000 0.0000 -14.0561 0.0000 0.0000
# 5 0.0000 0.0000 0.0000 0.0000 2.2460 0.0000
# 6 0.0000 0.0000 0.0000 0.0000 0.0000 15.9089
#
#
#
# Elastic Compliance Matrix: (Units=1/GPa)
#
#
# Indices 1 2 3 4 5 6 
#
# 1 0.062196 0.014252 0.005931 0.000000 0.000000 0.000000
# 2 0.014252 0.020155 0.002993 0.000000 0.000000 0.000000
# 3 0.005931 0.002993 0.012045 0.000000 0.000000 0.000000
# 4 0.000000 0.000000 0.000000 -0.071144 0.000000 0.000000
# 5 0.000000 0.000000 0.000000 0.000000 0.445244 0.000000
# 6 0.000000 0.000000 0.000000 0.000000 0.000000 0.062858
#
#
# Mechanical properties :
#
#
# Convention : Reuss Voigt Hill
#
# Bulk Modulus (GPa) = 7.10498 12.45813 9.78156
# Shear Modulus (GPa) = 9.39996 13.88508 11.64252
#
# Velocity S-wave (km/s) = 2.17833 2.64749 2.42429
# Velocity P-wave (km/s) = 3.14856 3.95405 3.57407
#
# Compressibility (1/GPa) = 0.14074636
#
# Stress axis : x y z
#
# Youngs Moduli (GPa) = 16.07829 49.61630 83.02352
#
# Poissons Ratio (x) = -0.70713 -0.49240
# Poissons Ratio (y) = -0.22915 -0.24847
# Poissons Ratio (z) = -0.09536 -0.14849
#
# Static dielectric constant tensor:
#      x y z
#    x 1.709940 0.000000 0.000000 
#    y 0.000000 1.724900 0.000000 
#    z 0.000000 0.000000 1.805640 
# 
# From -- ./inp_files/44550.got.cif
#   From: 2010.05.17/outbox.cif.g08.bks.cpg/sg65_23_cif.got.tgz:44550.got - 2010.06.03 17:01:31.
