data_PCOD9485663
_publ_section_title
;
Structure prediction by ZEFSAII (Michael W. Deem and Ramdas Pophale) SiO2 
 PCOD9485663
Probable space group: C M M M
;
_chemical_formula_sum "Si O2"
_cell_formula_units_Z 104
_cell_length_a 14.489139
_cell_length_b 9.344777
_cell_length_c 35.403553
_cell_angle_alpha 90.000000
_cell_angle_beta 90.000000
_cell_angle_gamma 90.000000
_cell_volume 4793.562228
_symmetry_space_group_name_H-M "C M M M"
_symmetry_group_IT_number 65
_symmetry_cell_setting 'orthorhombic'
loop_
_space_group_symop_operation_xyz
x,y,z
-x,-y,z
x,-y,-z
-x,y,-z
-x,-y,-z
x,y,-z
-x,y,z
x,-y,z
1/2+x,1/2+y,z
1/2-x,1/2-y,z
1/2+x,1/2-y,-z
1/2-x,1/2+y,-z
1/2-x,1/2-y,-z
1/2+x,1/2+y,-z
1/2-x,1/2+y,z
1/2+x,1/2-y,z
loop_
_atom_site_type_symbol
_atom_site_label
_atom_site_fract_x
_atom_site_fract_y
_atom_site_fract_z
Si Si1 0.607885 0.841591 0.803022
Si Si2 0.887524 0.835045 0.647552
Si Si3 0.387182 0.335069 0.731984
Si Si4 0.112801 0.837039 0.500000
Si Si5 0.612904 0.837185 0.425843
Si Si6 0.151618 0.171901 0.122630
Si Si7 0.651108 0.328395 0.040742
O O1 0.500000 0.859607 0.795193
O O2 0.646151 0.764034 0.765965
O O3 0.611652 0.742005 0.839822
O O4 0.648651 0.000000 0.809971
O O5 0.860339 0.787876 0.689747
O O6 0.857723 0.735736 0.613241
O O7 0.000000 0.835689 0.647029
O O8 0.858565 0.000000 0.642022
O O9 0.500000 0.336096 0.732684
O O10 0.358384 0.500000 0.737454
O O11 0.140609 0.754338 0.537800
O O12 0.000000 0.840093 0.500000
O O13 0.145422 0.000000 0.500000
O O14 0.500000 0.839132 0.425774
O O15 0.644879 0.000000 0.428707
O O16 0.250000 0.250000 0.120189
O O17 0.106582 0.204011 0.081511
O O18 0.156847 0.000000 0.126616
O O19 0.665345 0.500000 0.041113
O O20 0.750000 0.250000 0.040373
O O21 0.606530 0.293391 0.000000
#
# Coordination Sequence:
#
# PCOD9485663 Si02
#       7
#    16  16  16   8  16  16  16
#     4  10  20  32  46  65  90 119 151 187 225 266
#     4   8  13  21  32  45  61  82 110 146 189 237
#     4   8  14  25  40  56  74  98 130 167 207 252
#     4   9  15  21  27  33  45  69 101 137 180 231
#     4   9  15  20  26  37  53  73 100 138 184 232
#     4  10  19  31  49  71  95 121 149 183 222 265
#     4   8  14  25  42  65  90 114 142 177 216 257
#
# _framework density 21.695765000000002
#
# number of rings (size 3 to 8) (size 9 to 14) (size 15 to 20)
#    0.000    3.154    0.000    2.538    0.000    4.923 
#    0.000    3.077    0.000    0.462    0.000    3.231 
#    0.000    0.000    0.000    0.000    0.000    0.000 
#
# Total GULP energy -289936.097992 kJ/mol
# GULP energy per Si atom -5575.694192 kJ/mol
# Density = 2.164638 g / cm^3
# Si number density = 21.695765 Si / 1000 Ang^3
#
#
#
# Elastic Constant Matrix: (Units=GPa)
#
#
# Indices 1 2 3 4 5 6 
#
# 1 57.1724 12.3782 9.1903 0.0000 0.0000 0.0000
# 2 12.3782 138.7184 132.3298 0.0000 0.0000 0.0000
# 3 9.1903 132.3298 251.2085 0.0000 0.0000 0.0000
# 4 0.0000 0.0000 0.0000 47.8945 0.0000 0.0000
# 5 0.0000 0.0000 0.0000 0.0000 -5.9338 0.0000
# 6 0.0000 0.0000 0.0000 0.0000 0.0000 4.0575
#
#
#
# Elastic Compliance Matrix: (Units=1/GPa)
#
#
# Indices 1 2 3 4 5 6 
#
# 1 0.017853 -0.001950 0.000374 0.000000 0.000000 0.000000
# 2 -0.001950 0.014703 -0.007674 0.000000 0.000000 0.000000
# 3 0.000374 -0.007674 0.008010 0.000000 0.000000 0.000000
# 4 0.000000 0.000000 0.000000 0.020879 0.000000 0.000000
# 5 0.000000 0.000000 0.000000 0.000000 -0.168526 0.000000
# 6 0.000000 0.000000 0.000000 0.000000 0.000000 0.246456
#
#
# Mechanical properties :
#
#
# Convention : Reuss Voigt Hill
#
# Bulk Modulus (GPa) = 45.31816 83.87733 64.59775
# Shear Modulus (GPa) = 30.26080 28.75038 29.50559
#
# Velocity S-wave (km/s) = 3.73873 3.64422 3.69178
# Velocity P-wave (km/s) = 6.29053 7.51344 6.92902
#
# Compressibility (1/GPa) = 0.02206621
#
# Stress axis : x y z
#
# Youngs Moduli (GPa) = 56.01301 68.01116 124.85080
#
# Poissons Ratio (x) = 0.13261 -0.04669
# Poissons Ratio (y) = 0.10922 0.95811
# Poissons Ratio (z) = -0.02095 0.52192
#
# Static dielectric constant tensor:
#      x y z
#    x 1.857310 0.000000 0.000000 
#    y 0.000000 1.751080 0.000000 
#    z 0.000000 0.000000 1.808470 
# 
# From -- ./inp_files/78168.got.cif
#   From: 2010.05.17/outbox.cif.g08.bks.cpg/sg65_40_cif.got.tgz:78168.got - 2010.06.03 17:01:31.
