data_PCOD9485616
_publ_section_title
;
Structure prediction by ZEFSAII (Michael W. Deem and Ramdas Pophale) SiO2 
 PCOD9485616
Probable space group: C M M M
;
_chemical_formula_sum "Si O2"
_cell_formula_units_Z 88
_cell_length_a 14.652962
_cell_length_b 17.432100
_cell_length_c 18.197631
_cell_angle_alpha 90.000000
_cell_angle_beta 90.000000
_cell_angle_gamma 90.000000
_cell_volume 4648.255441
_symmetry_space_group_name_H-M "C M M M"
_symmetry_group_IT_number 65
_symmetry_cell_setting 'orthorhombic'
loop_
_space_group_symop_operation_xyz
x,y,z
-x,-y,z
x,-y,-z
-x,y,-z
-x,-y,-z
x,y,-z
-x,y,z
x,-y,z
1/2+x,1/2+y,z
1/2-x,1/2-y,z
1/2+x,1/2-y,-z
1/2-x,1/2+y,-z
1/2-x,1/2-y,-z
1/2+x,1/2+y,-z
1/2-x,1/2+y,z
1/2+x,1/2-y,z
loop_
_atom_site_type_symbol
_atom_site_label
_atom_site_fract_x
_atom_site_fract_y
_atom_site_fract_z
Si Si1 0.226638 0.000000 0.415880
Si Si2 0.207652 0.091262 0.852601
Si Si3 0.890964 0.846443 0.417839
Si Si4 0.602402 0.866315 0.810166
Si Si5 0.607264 0.699377 0.259179
Si Si6 0.603912 0.593303 0.000000
Si Si7 0.601003 0.000000 0.310207
O O1 0.163695 0.925208 0.406307
O O2 0.259012 0.000000 0.500000
O O3 0.313371 0.000000 0.363473
O O4 0.314228 0.110083 0.861435
O O5 0.168200 0.137052 0.782836
O O6 0.196028 0.000000 0.841895
O O7 0.153788 0.116503 0.925309
O O8 0.868395 0.816179 0.500000
O O9 0.871180 0.795710 0.346016
O O10 0.000000 0.861299 0.417701
O O11 0.500000 0.870807 0.841744
O O12 0.618227 0.781252 0.779312
O O13 0.605913 0.926044 0.742565
O O14 0.500000 0.677456 0.252456
O O15 0.603687 0.500000 0.000000
O O16 0.500000 0.620264 0.000000
O O17 0.500000 0.000000 0.345886
#
# Coordination Sequence:
#
# PCOD9485616 Si02
#       7
#     8  16  16  16  16   8   8
#     4  10  19  31  48  73 106 142 183 232 283 336
#     4  11  21  36  61  87 114 153 188 227 280 340
#     4   9  18  32  51  79 115 150 182 225 285 346
#     4  10  21  38  57  81 111 146 192 240 279 326
#     4  10  21  35  56  86 116 147 189 237 285 342
#     4   9  20  38  58  87 125 154 183 224 276 340
#     4  10  20  36  57  73  97 144 194 239 281 322
#
# _framework density 18.931833000000001
#
# number of rings (size 3 to 8) (size 9 to 14) (size 15 to 20)
#    0.000    2.091    0.909    2.455    1.273    2.364 
#    0.000    3.182    0.000   11.455    0.000    0.000 
#    0.000    0.000    0.000    0.000    0.000    0.000 
#
# Total GULP energy -245520.168156 kJ/mol
# GULP energy per Si atom -5580.003822 kJ/mol
# Density = 1.888874 g / cm^3
# Si number density = 18.931833 Si / 1000 Ang^3
#
#
#
# Elastic Constant Matrix: (Units=GPa)
#
#
# Indices 1 2 3 4 5 6 
#
# 1 99.9091 26.3689 53.8422 0.0000 0.0000 0.0000
# 2 26.3689 55.7927 12.1435 0.0000 0.0000 0.0000
# 3 53.8422 12.1435 83.2938 0.0000 0.0000 0.0000
# 4 0.0000 0.0000 0.0000 8.5999 0.0000 0.0000
# 5 0.0000 0.0000 0.0000 0.0000 34.2059 0.0000
# 6 0.0000 0.0000 0.0000 0.0000 0.0000 24.3097
#
#
#
# Elastic Compliance Matrix: (Units=1/GPa)
#
#
# Indices 1 2 3 4 5 6 
#
# 1 0.017019 -0.005834 -0.010151 0.000000 0.000000 0.000000
# 2 -0.005834 0.020511 0.000781 0.000000 0.000000 0.000000
# 3 -0.010151 0.000781 0.018454 0.000000 0.000000 0.000000
# 4 0.000000 0.000000 0.000000 0.116280 0.000000 0.000000
# 5 0.000000 0.000000 0.000000 0.000000 0.029235 0.000000
# 6 0.000000 0.000000 0.000000 0.000000 0.000000 0.041136
#
#
# Mechanical properties :
#
#
# Convention : Reuss Voigt Hill
#
# Bulk Modulus (GPa) = 39.10005 47.07830 43.08917
# Shear Modulus (GPa) = 17.75769 23.19918 20.47844
#
# Velocity S-wave (km/s) = 3.06597 3.50438 3.29248
# Velocity P-wave (km/s) = 5.76467 6.42616 6.10438
#
# Compressibility (1/GPa) = 0.02557542
#
# Stress axis : x y z
#
# Youngs Moduli (GPa) = 58.75630 48.75446 54.19009
#
# Poissons Ratio (x) = 0.28445 0.55008
# Poissons Ratio (y) = 0.34281 -0.04233
# Poissons Ratio (z) = 0.59643 -0.03808
#
# Static dielectric constant tensor:
#      x y z
#    x 1.677550 0.000000 0.000000 
#    y 0.000000 1.629530 0.000000 
#    z 0.000000 0.000000 1.651950 
# 
# From -- ./inp_files/53073.got.cif
#   From: 2010.05.17/outbox.cif.g08.bks.cpg/sg65_27_cif.got.tgz:53073.got - 2010.06.03 17:01:31.
