data_PCOD9485653
_publ_section_title
;
Structure prediction by ZEFSAII (Michael W. Deem and Ramdas Pophale) SiO2 
 PCOD9485653
Probable space group: C M M M
;
_chemical_formula_sum "Si O2"
_cell_formula_units_Z 120
_cell_length_a 21.966688
_cell_length_b 15.258839
_cell_length_c 19.280144
_cell_angle_alpha 90.000000
_cell_angle_beta 90.000000
_cell_angle_gamma 90.000000
_cell_volume 6462.437346
_symmetry_space_group_name_H-M "C M M M"
_symmetry_group_IT_number 65
_symmetry_cell_setting 'orthorhombic'
loop_
_space_group_symop_operation_xyz
x,y,z
-x,-y,z
x,-y,-z
-x,y,-z
-x,-y,-z
x,y,-z
-x,y,z
x,-y,z
1/2+x,1/2+y,z
1/2-x,1/2-y,z
1/2+x,1/2-y,-z
1/2-x,1/2+y,-z
1/2-x,1/2-y,-z
1/2+x,1/2+y,-z
1/2-x,1/2+y,z
1/2+x,1/2-y,z
loop_
_atom_site_type_symbol
_atom_site_label
_atom_site_fract_x
_atom_site_fract_y
_atom_site_fract_z
Si Si1 0.357562 0.606864 0.077269
Si Si2 0.374015 0.100717 0.639584
Si Si3 0.000000 0.606716 0.418153
Si Si4 0.814693 0.843845 0.715831
Si Si5 0.216360 0.606256 0.077722
Si Si6 0.812006 0.646787 0.227293
Si Si7 0.932021 0.895636 0.208896
Si Si8 0.254449 0.393428 0.579595
O O1 0.356683 0.500000 0.079640
O O2 0.287180 0.634477 0.086378
O O3 0.401529 0.638945 0.137745
O O4 0.377406 0.632088 0.000000
O O5 0.438120 0.140861 0.617323
O O6 0.360523 0.102500 0.721682
O O7 0.313498 0.136209 0.602137
O O8 0.376301 0.000000 0.616275
O O9 0.000000 0.500000 0.410459
O O10 0.000000 0.625338 0.500000
O O11 0.814094 0.746495 0.746703
O O12 0.755913 0.889011 0.753060
O O13 0.880467 0.880998 0.733703
O O14 0.799630 0.851168 0.635071
O O15 0.215228 0.500000 0.078972
O O16 0.180570 0.638595 0.145208
O O17 0.196781 0.633899 0.000000
O O18 0.000000 0.860623 0.221883
O O19 0.937380 0.000000 0.200537
O O20 0.266215 0.371560 0.500000
O O21 0.257630 0.500000 0.587072
#
# Coordination Sequence:
#
# PCOD9485653 Si02
#       8
#    16  16   8  16  16  16  16  16
#     4   8  14  25  43  69  97 123 156 201 251 293
#     4   9  17  29  48  73  98 128 164 201 242 297
#     4   9  16  28  46  70 101 125 150 196 245 292
#     4  10  20  33  47  71 103 129 163 208 258 302
#     4   9  16  28  50  76 101 131 166 208 252 292
#     4  10  19  32  48  71 102 133 167 201 253 310
#     4  10  19  31  49  70  94 132 173 209 253 298
#     4   9  17  31  53  76  96 125 166 210 255 300
#
# _framework density 18.568846000000001
#
# number of rings (size 3 to 8) (size 9 to 14) (size 15 to 20)
#    0.000    2.733    1.333    2.000    0.000    2.933 
#    1.200    9.333    0.000    0.400    0.000    2.333 
#    0.000    2.667    0.000    0.000    0.000    0.000 
#
# Total GULP energy -334297.755563 kJ/mol
# GULP energy per Si atom -5571.629259 kJ/mol
# Density = 1.852658 g / cm^3
# Si number density = 18.568846 Si / 1000 Ang^3
#
#
#
# Elastic Constant Matrix: (Units=GPa)
#
#
# Indices 1 2 3 4 5 6 
#
# 1 108.3693 5.8461 76.5038 0.0000 0.0000 0.0000
# 2 5.8461 27.5878 16.0613 0.0000 0.0000 0.0000
# 3 76.5038 16.0613 179.6951 0.0000 0.0000 0.0000
# 4 0.0000 0.0000 0.0000 15.0418 0.0000 0.0000
# 5 0.0000 0.0000 0.0000 0.0000 19.1086 0.0000
# 6 0.0000 0.0000 0.0000 0.0000 0.0000 8.0720
#
#
#
# Elastic Compliance Matrix: (Units=1/GPa)
#
#
# Indices 1 2 3 4 5 6 
#
# 1 0.013199 0.000501 -0.005664 0.000000 0.000000 0.000000
# 2 0.000501 0.038257 -0.003633 0.000000 0.000000 0.000000
# 3 -0.005664 -0.003633 0.008301 0.000000 0.000000 0.000000
# 4 0.000000 0.000000 0.000000 0.066481 0.000000 0.000000
# 5 0.000000 0.000000 0.000000 0.000000 0.052332 0.000000
# 6 0.000000 0.000000 0.000000 0.000000 0.000000 0.123884
#
#
# Mechanical properties :
#
#
# Convention : Reuss Voigt Hill
#
# Bulk Modulus (GPa) = 23.71648 56.94162 40.32905
# Shear Modulus (GPa) = 14.96546 22.92724 18.94635
#
# Velocity S-wave (km/s) = 2.84200 3.51766 3.19773
# Velocity P-wave (km/s) = 4.85481 6.87243 5.94977
#
# Compressibility (1/GPa) = 0.04216477
#
# Stress axis : x y z
#
# Youngs Moduli (GPa) = 75.76070 26.13929 120.46448
#
# Poissons Ratio (x) = -0.01309 0.68235
# Poissons Ratio (y) = -0.03793 0.43759
# Poissons Ratio (z) = 0.42913 0.09495
#
# Static dielectric constant tensor:
#      x y z
#    x 1.669330 0.000000 0.000000 
#    y 0.000000 1.709650 0.000000 
#    z 0.000000 0.000000 1.664930 
# 
# From -- ./inp_files/56125.got.cif
#   From: 2010.05.17/outbox.cif.g08.bks.cpg/sg65_29_cif.got.tgz:56125.got - 2010.06.03 17:01:31.
