data_PCOD9485180
_publ_section_title
;
Structure prediction by ZEFSAII (Michael W. Deem and Ramdas Pophale) SiO2 
 PCOD9485180
Probable space group: C M M M
;
_chemical_formula_sum "Si O2"
_cell_formula_units_Z 72
_cell_length_a 26.002618
_cell_length_b 7.992848
_cell_length_c 17.379249
_cell_angle_alpha 90.000000
_cell_angle_beta 90.000000
_cell_angle_gamma 90.000000
_cell_volume 3612.015751
_symmetry_space_group_name_H-M "C M M M"
_symmetry_group_IT_number 65
_symmetry_cell_setting 'orthorhombic'
loop_
_space_group_symop_operation_xyz
x,y,z
-x,-y,z
x,-y,-z
-x,y,-z
-x,-y,-z
x,y,-z
-x,y,z
x,-y,z
1/2+x,1/2+y,z
1/2-x,1/2-y,z
1/2+x,1/2-y,-z
1/2-x,1/2+y,-z
1/2-x,1/2-y,-z
1/2+x,1/2+y,-z
1/2-x,1/2+y,z
1/2+x,1/2-y,z
loop_
_atom_site_type_symbol
_atom_site_label
_atom_site_fract_x
_atom_site_fract_y
_atom_site_fract_z
Si Si1 0.083451 0.800040 0.790798
Si Si2 0.000000 0.700259 0.912494
Si Si3 0.443578 0.196286 0.378458
Si Si4 0.304922 0.700825 0.749843
Si Si5 0.331465 0.303044 0.582099
O O1 0.060536 0.717185 0.713901
O O2 0.143317 0.747315 0.793986
O O3 0.049676 0.757365 0.864355
O O4 0.081353 0.000000 0.778424
O O5 0.000000 0.500000 0.913960
O O6 0.000000 0.763279 0.000000
O O7 0.500000 0.258181 0.402759
O O8 0.393281 0.285355 0.411265
O O9 0.440026 0.000000 0.397753
O O10 0.306541 0.500000 0.745506
O O11 0.250000 0.750000 0.782877
O O12 0.309757 0.769104 0.661913
O O13 0.314834 0.228752 0.500000
O O14 0.319040 0.500000 0.581315
#
# Coordination Sequence:
#
# PCOD9485180 Si02
#       5
#    16   8  16  16  16
#     4  10  20  35  56  80 109 143 180 216 254 312
#     4  11  23  37  57  89 122 145 168 205 257 309
#     4  10  19  30  47  71 100 134 175 222 270 318
#     4   9  19  34  53  78 103 136 182 227 270 315
#     4   9  19  34  48  66  97 136 180 227 275 326
#
# _framework density 19.933467
#
# number of rings (size 3 to 8) (size 9 to 14) (size 15 to 20)
#    0.000    2.333    1.111    3.000    0.000    8.000 
#    0.000    2.222    0.000    0.667    0.000    0.000 
#    0.000    0.000    0.000    0.000    0.000    0.000 
#
# Total GULP energy -200898.870757 kJ/mol
# GULP energy per Si atom -5580.524188 kJ/mol
# Density = 1.988810 g / cm^3
# Si number density = 19.933467 Si / 1000 Ang^3
#
#
#
# Elastic Constant Matrix: (Units=GPa)
#
#
# Indices 1 2 3 4 5 6 
#
# 1 149.2987 1.6509 40.4680 0.0000 0.0000 0.0000
# 2 1.6509 29.1615 2.5566 0.0000 0.0000 0.0000
# 3 40.4680 2.5566 102.9018 0.0000 0.0000 0.0000
# 4 0.0000 0.0000 0.0000 29.5103 0.0000 0.0000
# 5 0.0000 0.0000 0.0000 0.0000 50.2204 0.0000
# 6 0.0000 0.0000 0.0000 0.0000 0.0000 22.7904
#
#
#
# Elastic Compliance Matrix: (Units=1/GPa)
#
#
# Indices 1 2 3 4 5 6 
#
# 1 0.007498 -0.000166 -0.002945 0.000000 0.000000 0.000000
# 2 -0.000166 0.034370 -0.000789 0.000000 0.000000 0.000000
# 3 -0.002945 -0.000789 0.010896 0.000000 0.000000 0.000000
# 4 0.000000 0.000000 0.000000 0.033886 0.000000 0.000000
# 5 0.000000 0.000000 0.000000 0.000000 0.019912 0.000000
# 6 0.000000 0.000000 0.000000 0.000000 0.000000 0.043878
#
#
# Mechanical properties :
#
#
# Convention : Reuss Voigt Hill
#
# Bulk Modulus (GPa) = 22.23951 41.19034 31.71492
# Shear Modulus (GPa) = 28.86373 36.28334 32.57353
#
# Velocity S-wave (km/s) = 3.80939 4.27103 4.04680
# Velocity P-wave (km/s) = 5.52537 6.71052 6.14658
#
# Compressibility (1/GPa) = 0.04496502
#
# Stress axis : x y z
#
# Youngs Moduli (GPa) = 133.36963 29.09489 91.78016
#
# Poissons Ratio (x) = 0.00484 0.27025
# Poissons Ratio (y) = 0.02218 0.07237
# Poissons Ratio (z) = 0.39272 0.02294
#
# Static dielectric constant tensor:
#      x y z
#    x 1.741780 0.000000 0.000000 
#    y 0.000000 1.712990 0.000000 
#    z 0.000000 0.000000 1.704020 
# 
# From -- ./inp_files/46509.got.cif
#   From: 2010.05.17/outbox.cif.g08.bks.cpg/sg65_24_cif.got.tgz:46509.got - 2010.06.03 17:01:31.
