data_PCOD9485048
_publ_section_title
;
Structure prediction by ZEFSAII (Michael W. Deem and Ramdas Pophale) SiO2 
 PCOD9485048
Probable space group: C M M M
;
_chemical_formula_sum "Si O2"
_cell_formula_units_Z 104
_cell_length_a 22.597870
_cell_length_b 28.187677
_cell_length_c 7.395794
_cell_angle_alpha 90.000000
_cell_angle_beta 90.000000
_cell_angle_gamma 90.000000
_cell_volume 4710.983663
_symmetry_space_group_name_H-M "C M M M"
_symmetry_group_IT_number 65
_symmetry_cell_setting 'orthorhombic'
loop_
_space_group_symop_operation_xyz
x,y,z
-x,-y,z
x,-y,-z
-x,y,-z
-x,-y,-z
x,y,-z
-x,y,z
x,-y,z
1/2+x,1/2+y,z
1/2-x,1/2-y,z
1/2+x,1/2-y,-z
1/2-x,1/2+y,-z
1/2-x,1/2-y,-z
1/2+x,1/2+y,-z
1/2-x,1/2+y,z
1/2+x,1/2-y,z
loop_
_atom_site_type_symbol
_atom_site_label
_atom_site_fract_x
_atom_site_fract_y
_atom_site_fract_z
Si Si1 0.068370 0.782070 0.220193
Si Si2 0.433902 0.391640 0.219781
Si Si3 0.500000 0.054478 0.784189
Si Si4 0.775600 0.625150 0.200916
Si Si5 0.820317 0.946526 0.778460
Si Si6 0.313056 0.773570 0.779706
Si Si7 0.372233 0.054329 0.291164
O O1 0.079025 0.837112 0.272983
O O2 0.125308 0.751038 0.280680
O O3 0.000000 0.769428 0.275372
O O4 0.067819 0.780342 0.000000
O O5 0.500000 0.403372 0.279203
O O6 0.385480 0.429790 0.274836
O O7 0.433472 0.391302 0.000000
O O8 0.561783 0.075121 0.721880
O O9 0.500000 0.000000 0.715274
O O10 0.500000 0.053784 0.000000
O O11 0.722735 0.595332 0.287066
O O12 0.804268 0.672154 0.281626
O O13 0.827009 0.586628 0.188474
O O14 0.754012 0.639561 0.000000
O O15 0.805319 0.000000 0.719849
O O16 0.816408 0.946934 0.000000
O O17 0.250000 0.750000 0.729404
O O18 0.316462 0.772205 0.000000
O O19 0.354516 0.053281 0.500000
O O20 0.373371 0.000000 0.223248
#
# Coordination Sequence:
#
# PCOD9485048 Si02
#       7
#    16  16   8  16  16  16  16
#     4   8  13  22  35  51  75 107 141 181 229 279
#     4   8  13  21  34  53  79 114 151 184 229 290
#     4   9  17  31  53  77  97 121 157 199 239 281
#     4  10  19  30  45  68  94 124 161 201 245 287
#     4   9  16  24  35  54  83 117 151 190 233 279
#     4   9  16  26  41  61  86 118 156 198 244 291
#     4  10  20  34  51  70  96 130 164 197 238 291
#
# _framework density 22.076069
#
# number of rings (size 3 to 8) (size 9 to 14) (size 15 to 20)
#    0.000    3.000    0.000    3.000    0.000    6.462 
#    1.385    1.538    0.000    0.462    0.000    0.000 
#    0.000    0.615    0.000    3.231    0.000    3.692 
#
# Total GULP energy -289905.839359 kJ/mol
# GULP energy per Si atom -5575.112295 kJ/mol
# Density = 2.202582 g / cm^3
# Si number density = 22.076069 Si / 1000 Ang^3
#
#
#
# Elastic Constant Matrix: (Units=GPa)
#
#
# Indices 1 2 3 4 5 6 
#
# 1 100.3530 23.0833 -4.9706 0.0000 0.0000 0.0000
# 2 23.0833 54.5172 -1.8686 0.0000 0.0000 0.0000
# 3 -4.9706 -1.8686 77.0816 0.0000 0.0000 0.0000
# 4 0.0000 0.0000 0.0000 -9.6859 0.0000 0.0000
# 5 0.0000 0.0000 0.0000 0.0000 4.7061 0.0000
# 6 0.0000 0.0000 0.0000 0.0000 0.0000 41.2136
#
#
#
# Elastic Compliance Matrix: (Units=1/GPa)
#
#
# Indices 1 2 3 4 5 6 
#
# 1 0.011068 -0.004666 0.000601 0.000000 0.000000 0.000000
# 2 -0.004666 0.020325 0.000192 0.000000 0.000000 0.000000
# 3 0.000601 0.000192 0.013017 0.000000 0.000000 0.000000
# 4 0.000000 0.000000 0.000000 -0.103243 0.000000 0.000000
# 5 0.000000 0.000000 0.000000 0.000000 0.212489 0.000000
# 6 0.000000 0.000000 0.000000 0.000000 0.000000 0.024264
#
#
# Mechanical properties :
#
#
# Convention : Reuss Voigt Hill
#
# Bulk Modulus (GPa) = 27.27554 29.38224 28.32889
# Shear Modulus (GPa) = 25.26697 21.62728 23.44713
#
# Velocity S-wave (km/s) = 3.38678 3.13336 3.26253
# Velocity P-wave (km/s) = 5.26078 5.14092 5.20119
#
# Compressibility (1/GPa) = 0.03666289
#
# Stress axis : x y z
#
# Youngs Moduli (GPa) = 90.35246 49.20075 76.82475
#
# Poissons Ratio (x) = 0.22955 -0.04614
# Poissons Ratio (y) = 0.42155 -0.01474
# Poissons Ratio (z) = -0.05427 -0.00944
#
# Static dielectric constant tensor:
#      x y z
#    x 1.831450 0.000000 0.000000 
#    y 0.000000 1.792610 0.000000 
#    z 0.000000 0.000000 1.874480 
# 
# From -- ./inp_files/14780.got.cif
#   From: 2010.05.17/outbox.cif.g08.bks.cpg/sg65_8_cif.got.tgz:14780.got - 2010.06.03 17:01:31.
