data_PCOD9485067
_publ_section_title
;
Structure prediction by ZEFSAII (Michael W. Deem and Ramdas Pophale) SiO2 
 PCOD9485067
Probable space group: C M M M
;
_chemical_formula_sum "Si O2"
_cell_formula_units_Z 80
_cell_length_a 14.247948
_cell_length_b 19.740504
_cell_length_c 13.619319
_cell_angle_alpha 90.000000
_cell_angle_beta 90.000000
_cell_angle_gamma 90.000000
_cell_volume 3830.592467
_symmetry_space_group_name_H-M "C M M M"
_symmetry_group_IT_number 65
_symmetry_cell_setting 'orthorhombic'
loop_
_space_group_symop_operation_xyz
x,y,z
-x,-y,z
x,-y,-z
-x,y,-z
-x,-y,-z
x,y,-z
-x,y,z
x,-y,z
1/2+x,1/2+y,z
1/2-x,1/2-y,z
1/2+x,1/2-y,-z
1/2-x,1/2+y,-z
1/2-x,1/2-y,-z
1/2+x,1/2+y,-z
1/2-x,1/2+y,z
1/2+x,1/2-y,z
loop_
_atom_site_type_symbol
_atom_site_label
_atom_site_fract_x
_atom_site_fract_y
_atom_site_fract_z
Si Si1 0.351280 0.285263 0.609500
Si Si2 0.388576 0.920018 0.500000
Si Si3 0.386139 0.642977 0.799657
Si Si4 0.103745 0.646810 0.304348
Si Si5 0.615100 0.787858 0.111268
Si Si6 0.614424 0.500000 0.113517
O O1 0.380714 0.303457 0.500000
O O2 0.250000 0.250000 0.605203
O O3 0.356270 0.344645 0.687659
O O4 0.407906 0.223082 0.655513
O O5 0.500000 0.900515 0.500000
O O6 0.349780 0.891200 0.397035
O O7 0.381373 0.000000 0.500000
O O8 0.500000 0.642713 0.803845
O O9 0.356871 0.710733 0.859884
O O10 0.353443 0.570526 0.838824
O O11 0.147714 0.660396 0.197090
O O12 0.000000 0.615363 0.289463
O O13 0.500000 0.789646 0.114494
O O14 0.643774 0.803551 0.000000
O O15 0.500000 0.500000 0.118465
O O16 0.640965 0.500000 0.000000
#
# Coordination Sequence:
#
# PCOD9485067 Si02
#       6
#    16   8  16  16  16   8
#     4  10  19  30  46  65  95 121 154 195 238 277
#     4   9  16  26  43  66  88 105 139 192 232 270
#     4   9  17  28  46  71  96 126 160 195 237 284
#     4   9  16  27  46  67  88 114 145 183 232 277
#     4   8  13  22  39  65  91 113 142 180 221 266
#     4   9  16  28  49  75 101 127 161 202 238 280
#
# _framework density 20.884498000000001
#
# number of rings (size 3 to 8) (size 9 to 14) (size 15 to 20)
#    0.000    3.000    1.000    2.400    0.000    3.600 
#    0.000    0.500    2.200   17.400    0.000    4.200 
#    0.000    0.000    0.000    0.000    0.000    0.000 
#
# Total GULP energy -222911.672209 kJ/mol
# GULP energy per Si atom -5572.791805 kJ/mol
# Density = 2.083696 g / cm^3
# Si number density = 20.884498 Si / 1000 Ang^3
#
#
#
# Elastic Constant Matrix: (Units=GPa)
#
#
# Indices 1 2 3 4 5 6 
#
# 1 39.1250 -6.9697 -4.8575 0.0000 0.0000 0.0000
# 2 -6.9697 87.1039 73.3403 0.0000 0.0000 0.0000
# 3 -4.8575 73.3403 221.4757 0.0000 0.0000 0.0000
# 4 0.0000 0.0000 0.0000 34.6269 0.0000 0.0000
# 5 0.0000 0.0000 0.0000 0.0000 14.3145 0.0000
# 6 0.0000 0.0000 0.0000 0.0000 0.0000 8.2675
#
#
#
# Elastic Compliance Matrix: (Units=1/GPa)
#
#
# Indices 1 2 3 4 5 6 
#
# 1 0.025933 0.002213 -0.000164 0.000000 0.000000 0.000000
# 2 0.002213 0.016108 -0.005286 0.000000 0.000000 0.000000
# 3 -0.000164 -0.005286 0.006262 0.000000 0.000000 0.000000
# 4 0.000000 0.000000 0.000000 0.028879 0.000000 0.000000
# 5 0.000000 0.000000 0.000000 0.000000 0.069859 0.000000
# 6 0.000000 0.000000 0.000000 0.000000 0.000000 0.120956
#
#
# Mechanical properties :
#
#
# Convention : Reuss Voigt Hill
#
# Bulk Modulus (GPa) = 23.90628 52.30344 38.10486
# Shear Modulus (GPa) = 17.33622 30.52120 23.92871
#
# Velocity S-wave (km/s) = 2.88427 3.82701 3.38859
# Velocity P-wave (km/s) = 4.75013 6.68031 5.79613
#
# Compressibility (1/GPa) = 0.04183001
#
# Stress axis : x y z
#
# Youngs Moduli (GPa) = 38.56091 62.08105 159.69764
#
# Poissons Ratio (x) = -0.13740 0.02621
# Poissons Ratio (y) = -0.08535 0.84408
# Poissons Ratio (z) = 0.00633 0.32813
#
# Static dielectric constant tensor:
#      x y z
#    x 1.845210 0.000000 0.000000 
#    y 0.000000 1.700570 0.000000 
#    z 0.000000 0.000000 1.799270 
# 
# From -- ./inp_files/42661.got.cif
#   From: 2010.05.17/outbox.cif.g08.bks.cpg/sg65_22_cif.got.tgz:42661.got - 2010.06.03 17:01:31.
