data_PCOD9485336
_publ_section_title
;
Structure prediction by ZEFSAII (Michael W. Deem and Ramdas Pophale) SiO2 
 PCOD9485336
Probable space group: C M M M
;
_chemical_formula_sum "Si O2"
_cell_formula_units_Z 88
_cell_length_a 28.836039
_cell_length_b 8.157693
_cell_length_c 23.827741
_cell_angle_alpha 90.000000
_cell_angle_beta 90.000000
_cell_angle_gamma 90.000000
_cell_volume 5605.131843
_symmetry_space_group_name_H-M "C M M M"
_symmetry_group_IT_number 65
_symmetry_cell_setting 'orthorhombic'
loop_
_space_group_symop_operation_xyz
x,y,z
-x,-y,z
x,-y,-z
-x,y,-z
-x,-y,-z
x,y,-z
-x,y,z
x,-y,z
1/2+x,1/2+y,z
1/2-x,1/2-y,z
1/2+x,1/2-y,-z
1/2-x,1/2+y,-z
1/2-x,1/2-y,-z
1/2+x,1/2+y,-z
1/2-x,1/2+y,z
1/2+x,1/2-y,z
loop_
_atom_site_type_symbol
_atom_site_label
_atom_site_fract_x
_atom_site_fract_y
_atom_site_fract_z
Si Si1 0.196588 0.198393 0.562880
Si Si2 0.444079 0.681032 0.133256
Si Si3 0.946515 0.313319 0.433322
Si Si4 0.377952 0.684550 0.351870
Si Si5 0.053248 0.693898 0.742725
Si Si6 0.556603 0.000000 0.934767
O O1 0.180412 0.253148 0.500000
O O2 0.250000 0.250000 0.567778
O O3 0.166730 0.259106 0.616157
O O4 0.193428 0.000000 0.563440
O O5 0.500000 0.678596 0.126586
O O6 0.426598 0.500000 0.117372
O O7 0.436172 0.715068 0.199062
O O8 0.427276 0.835140 0.096813
O O9 0.943436 0.301315 0.500000
O O10 0.932895 0.500000 0.417076
O O11 0.914521 0.185849 0.402816
O O12 0.000000 0.292877 0.417378
O O13 0.367005 0.500000 0.333333
O O14 0.406958 0.770536 0.302646
O O15 0.052213 0.500000 0.754098
O O16 0.000000 0.739756 0.724898
O O17 0.500000 0.000000 0.932104
O O18 0.569561 0.000000 0.000000
#
# Coordination Sequence:
#
# PCOD9485336 Si02
#       6
#    16  16  16  16  16   8
#     4   9  19  35  51  65  82 104 133 176 227 277
#     4   9  16  27  42  59  83 117 154 193 234 268
#     4   9  18  31  43  56  78 107 136 167 207 255
#     4  11  21  30  43  65  86 104 135 177 218 270
#     4  10  19  31  45  61  86 119 153 188 222 262
#     4   9  16  26  40  60  86 116 155 199 233 263
#
# _framework density 15.699897999999999
#
# number of rings (size 3 to 8) (size 9 to 14) (size 15 to 20)
#    0.000    2.455    0.909    2.727    0.000    6.545 
#    0.000    4.545    0.000    0.000    0.000    0.000 
#    0.000    0.000    0.000    0.000    0.000    0.909 
#
# Total GULP energy -245037.942019 kJ/mol
# GULP energy per Si atom -5569.044137 kJ/mol
# Density = 1.566416 g / cm^3
# Si number density = 15.699898 Si / 1000 Ang^3
#
#
#
# Elastic Constant Matrix: (Units=GPa)
#
#
# Indices 1 2 3 4 5 6 
#
# 1 37.8674 17.7092 27.5332 0.0000 0.0000 0.0000
# 2 17.7092 67.0359 38.0669 0.0000 0.0000 0.0000
# 3 27.5332 38.0669 77.1344 0.0000 0.0000 0.0000
# 4 0.0000 0.0000 0.0000 11.3266 0.0000 0.0000
# 5 0.0000 0.0000 0.0000 0.0000 19.8843 0.0000
# 6 0.0000 0.0000 0.0000 0.0000 0.0000 13.5501
#
#
#
# Elastic Compliance Matrix: (Units=1/GPa)
#
#
# Indices 1 2 3 4 5 6 
#
# 1 0.036117 -0.003085 -0.011370 0.000000 0.000000 0.000000
# 2 -0.003085 0.020989 -0.009257 0.000000 0.000000 0.000000
# 3 -0.011370 -0.009257 0.021591 0.000000 0.000000 0.000000
# 4 0.000000 0.000000 0.000000 0.088288 0.000000 0.000000
# 5 0.000000 0.000000 0.000000 0.000000 0.050291 0.000000
# 6 0.000000 0.000000 0.000000 0.000000 0.000000 0.073800
#
#
# Mechanical properties :
#
#
# Convention : Reuss Voigt Hill
#
# Bulk Modulus (GPa) = 31.97523 38.73960 35.35741
# Shear Modulus (GPa) = 14.32970 15.53409 14.93189
#
# Velocity S-wave (km/s) = 3.02441 3.14895 3.08731
# Velocity P-wave (km/s) = 5.71024 6.16034 5.93955
#
# Compressibility (1/GPa) = 0.03127420
#
# Stress axis : x y z
#
# Youngs Moduli (GPa) = 27.68741 47.64363 46.31470
#
# Poissons Ratio (x) = 0.14698 0.52658
# Poissons Ratio (y) = 0.08541 0.42875
# Poissons Ratio (z) = 0.31480 0.44105
#
# Static dielectric constant tensor:
#      x y z
#    x 1.511880 0.000000 0.000000 
#    y 0.000000 1.588600 0.000000 
#    z 0.000000 0.000000 1.531140 
# 
# From -- ./inp_files/72066.got.cif
#   From: 2010.05.17/outbox.cif.g08.bks.cpg/sg65_37_cif.got.tgz:72066.got - 2010.06.03 17:01:31.
