data_PCOD9485514
_publ_section_title
;
Structure prediction by ZEFSAII (Michael W. Deem and Ramdas Pophale) SiO2 
 PCOD9485514
Probable space group: C M M M
;
_chemical_formula_sum "Si O2"
_cell_formula_units_Z 96
_cell_length_a 26.215225
_cell_length_b 23.455419
_cell_length_c 8.842705
_cell_angle_alpha 90.000000
_cell_angle_beta 90.000000
_cell_angle_gamma 90.000000
_cell_volume 5437.282800
_symmetry_space_group_name_H-M "C M M M"
_symmetry_group_IT_number 65
_symmetry_cell_setting 'orthorhombic'
loop_
_space_group_symop_operation_xyz
x,y,z
-x,-y,z
x,-y,-z
-x,y,-z
-x,-y,-z
x,y,-z
-x,y,z
x,-y,z
1/2+x,1/2+y,z
1/2-x,1/2-y,z
1/2+x,1/2-y,-z
1/2-x,1/2+y,-z
1/2-x,1/2-y,-z
1/2+x,1/2+y,-z
1/2-x,1/2+y,z
1/2+x,1/2-y,z
loop_
_atom_site_type_symbol
_atom_site_label
_atom_site_fract_x
_atom_site_fract_y
_atom_site_fract_z
Si Si1 0.559818 0.813790 0.821281
Si Si2 0.442130 0.312108 0.680994
Si Si3 0.845998 0.860974 0.824190
Si Si4 0.350548 0.126619 0.674200
Si Si5 0.310170 0.745133 0.665716
Si Si6 0.247596 0.432878 0.181204
O O1 0.500000 0.826695 0.797211
O O2 0.569270 0.752391 0.740381
O O3 0.595888 0.864360 0.759941
O O4 0.568900 0.806113 0.000000
O O5 0.441546 0.310752 0.500000
O O6 0.500000 0.325396 0.731807
O O7 0.400436 0.356986 0.741035
O O8 0.825978 0.796784 0.798015
O O9 0.799272 0.900381 0.765994
O O10 0.853874 0.874005 0.000000
O O11 0.358379 0.109383 0.500000
O O12 0.330308 0.191439 0.677417
O O13 0.304972 0.090016 0.746849
O O14 0.326341 0.721312 0.500000
O O15 0.250000 0.750000 0.665602
O O16 0.252685 0.500000 0.209907
O O17 0.244367 0.423468 0.000000
#
# Coordination Sequence:
#
# PCOD9485514 Si02
#       6
#    16  16  16  16  16  16
#     4  10  20  33  51  78 112 147 180 213 255 313
#     4  10  20  33  50  75 110 147 177 211 261 317
#     4  11  21  32  53  79 105 139 178 219 264 318
#     4  11  21  33  54  81 110 143 177 217 265 318
#     4  10  19  31  47  73 109 142 170 207 261 320
#     4  10  23  41  57  76 105 141 181 226 273 318
#
# _framework density 17.655878000000001
#
# number of rings (size 3 to 8) (size 9 to 14) (size 15 to 20)
#    0.000    1.667    3.333    2.000    0.000    4.000 
#    0.000    0.000    0.000    1.000    0.000    7.000 
#    0.000    0.000    0.000    0.000    0.000    0.000 
#
# Total GULP energy -267510.965288 kJ/mol
# GULP energy per Si atom -5573.145110 kJ/mol
# Density = 1.761569 g / cm^3
# Si number density = 17.655878 Si / 1000 Ang^3
#
#
#
# Elastic Constant Matrix: (Units=GPa)
#
#
# Indices 1 2 3 4 5 6 
#
# 1 133.3399 41.9823 42.3220 0.0000 0.0000 0.0000
# 2 41.9823 48.7811 28.1011 0.0000 0.0000 0.0000
# 3 42.3220 28.1011 62.2823 0.0000 0.0000 0.0000
# 4 0.0000 0.0000 0.0000 3.4158 0.0000 0.0000
# 5 0.0000 0.0000 0.0000 0.0000 28.5551 0.0000
# 6 0.0000 0.0000 0.0000 0.0000 0.0000 10.6152
#
#
#
# Elastic Compliance Matrix: (Units=1/GPa)
#
#
# Indices 1 2 3 4 5 6 
#
# 1 0.011102 -0.007038 -0.004369 0.000000 0.000000 0.000000
# 2 -0.007038 0.032161 -0.009728 0.000000 0.000000 0.000000
# 3 -0.004369 -0.009728 0.023414 0.000000 0.000000 0.000000
# 4 0.000000 0.000000 0.000000 0.292754 0.000000 0.000000
# 5 0.000000 0.000000 0.000000 0.000000 0.035020 0.000000
# 6 0.000000 0.000000 0.000000 0.000000 0.000000 0.094204
#
#
# Mechanical properties :
#
#
# Convention : Reuss Voigt Hill
#
# Bulk Modulus (GPa) = 40.97170 52.13489 46.55330
# Shear Modulus (GPa) = 9.27538 17.31709 13.29624
#
# Velocity S-wave (km/s) = 2.29452 3.13519 2.74720
# Velocity P-wave (km/s) = 5.50235 6.53440 6.04045
#
# Compressibility (1/GPa) = 0.02440709
#
# Stress axis : x y z
#
# Youngs Moduli (GPa) = 90.07200 31.09356 42.71014
#
# Poissons Ratio (x) = 0.21884 0.18658
# Poissons Ratio (y) = 0.63395 0.41549
# Poissons Ratio (z) = 0.39349 0.30248
#
# Static dielectric constant tensor:
#      x y z
#    x 1.673550 0.000000 0.000000 
#    y 0.000000 1.564210 0.000000 
#    z 0.000000 0.000000 1.714130 
# 
# From -- ./inp_files/16301.got.cif
#   From: 2010.05.17/outbox.cif.g08.bks.cpg/sg65_9_cif.got.tgz:16301.got - 2010.06.03 17:01:31.
