data_PCOD9485644
_publ_section_title
;
Structure prediction by ZEFSAII (Michael W. Deem and Ramdas Pophale) SiO2 
 PCOD9485644
Probable space group: C M M M
;
_chemical_formula_sum "Si O2"
_cell_formula_units_Z 64
_cell_length_a 18.382368
_cell_length_b 7.380270
_cell_length_c 21.862971
_cell_angle_alpha 90.000000
_cell_angle_beta 90.000000
_cell_angle_gamma 90.000000
_cell_volume 2966.080168
_symmetry_space_group_name_H-M "C M M M"
_symmetry_group_IT_number 65
_symmetry_cell_setting 'orthorhombic'
loop_
_space_group_symop_operation_xyz
x,y,z
-x,-y,z
x,-y,-z
-x,y,-z
-x,-y,-z
x,y,-z
-x,y,z
x,-y,z
1/2+x,1/2+y,z
1/2-x,1/2-y,z
1/2+x,1/2-y,-z
1/2-x,1/2+y,-z
1/2-x,1/2-y,-z
1/2+x,1/2+y,-z
1/2-x,1/2+y,z
1/2+x,1/2-y,z
loop_
_atom_site_type_symbol
_atom_site_label
_atom_site_fract_x
_atom_site_fract_y
_atom_site_fract_z
Si Si1 0.584113 0.221621 0.244885
Si Si2 0.835730 0.716183 0.122575
Si Si3 0.415731 0.221637 0.000000
Si Si4 0.663135 0.783716 0.500000
Si Si5 0.836394 0.716819 0.367038
O O1 0.500000 0.274275 0.241315
O O2 0.628019 0.283814 0.185165
O O3 0.621263 0.284423 0.307753
O O4 0.586302 0.000000 0.245320
O O5 0.846406 0.500000 0.122758
O O6 0.750000 0.750000 0.121180
O O7 0.874860 0.783797 0.061234
O O8 0.500000 0.274983 0.000000
O O9 0.414115 0.000000 0.000000
O O10 0.750000 0.750000 0.500000
O O11 0.637973 0.713741 0.433779
O O12 0.650909 0.000000 0.500000
O O13 0.845973 0.500000 0.368448
O O14 0.750000 0.750000 0.360698
#
# Coordination Sequence:
#
# PCOD9485644 Si02
#       5
#    16  16   8   8  16
#     4   9  17  29  45  65  88 115 147 181 217 257
#     4  10  19  31  49  70  91 116 147 183 218 255
#     4   9  17  30  49  71  92 117 150 182 212 253
#     4   8  14  24  39  61  85 109 139 174 214 256
#     4   9  16  27  44  64  86 112 143 179 216 257
#
# _framework density 21.577300999999999
#
# number of rings (size 3 to 8) (size 9 to 14) (size 15 to 20)
#    0.000    2.875    0.000    1.875    0.000    3.000 
#    0.000    0.625    0.000    9.750    0.000    0.000 
#    0.000   10.000    0.000    0.000    0.000    0.000 
#
# Total GULP energy -178631.978232 kJ/mol
# GULP energy per Si atom -5582.249320 kJ/mol
# Density = 2.152819 g / cm^3
# Si number density = 21.577301 Si / 1000 Ang^3
#
#
#
# Elastic Constant Matrix: (Units=GPa)
#
#
# Indices 1 2 3 4 5 6 
#
# 1 159.9331 -4.4383 143.3652 0.0000 0.0000 0.0000
# 2 -4.4383 78.8433 13.7954 0.0000 0.0000 0.0000
# 3 143.3652 13.7954 299.1534 0.0000 0.0000 0.0000
# 4 0.0000 0.0000 0.0000 -5.3026 0.0000 0.0000
# 5 0.0000 0.0000 0.0000 0.0000 -22.0041 0.0000
# 6 0.0000 0.0000 0.0000 0.0000 0.0000 17.2483
#
#
#
# Elastic Compliance Matrix: (Units=1/GPa)
#
#
# Indices 1 2 3 4 5 6 
#
# 1 0.011152 0.001576 -0.005417 0.000000 0.000000 0.000000
# 2 0.001576 0.013009 -0.001355 0.000000 0.000000 0.000000
# 3 -0.005417 -0.001355 0.006001 0.000000 0.000000 0.000000
# 4 0.000000 0.000000 0.000000 -0.188588 0.000000 0.000000
# 5 0.000000 0.000000 0.000000 0.000000 -0.045446 0.000000
# 6 0.000000 0.000000 0.000000 0.000000 0.000000 0.057977
#
#
# Mechanical properties :
#
#
# Convention : Reuss Voigt Hill
#
# Bulk Modulus (GPa) = 50.58245 93.70829 72.14537
# Shear Modulus (GPa) = -38.78642 23.66881 -7.55880
#
# Velocity S-wave (km/s) = -4.24436 3.31559 -1.87369
# Velocity P-wave (km/s) = 0.72535 7.62764 5.36911
#
# Compressibility (1/GPa) = 0.01976970
#
# Stress axis : x y z
#
# Youngs Moduli (GPa) = 89.66615 76.86883 166.62666
#
# Poissons Ratio (x) = -0.12112 0.90267
# Poissons Ratio (y) = -0.14129 0.22579
# Poissons Ratio (z) = 0.48575 0.10416
#
# Static dielectric constant tensor:
#      x y z
#    x 1.709200 0.000000 0.000000 
#    y 0.000000 1.821330 0.000000 
#    z 0.000000 0.000000 1.797310 
# 
# From -- ./inp_files/50952.got.cif
#   From: 2010.05.17/outbox.cif.g08.bks.cpg/sg65_26_cif.got.tgz:50952.got - 2010.06.03 17:01:31.
