data_PCOD9485018
_publ_section_title
;
Structure prediction by ZEFSAII (Michael W. Deem and Ramdas Pophale) SiO2 
 PCOD9485018
Probable space group: C M M M
;
_chemical_formula_sum "Si O2"
_cell_formula_units_Z 96
_cell_length_a 7.512736
_cell_length_b 19.158878
_cell_length_c 32.760908
_cell_angle_alpha 90.000000
_cell_angle_beta 90.000000
_cell_angle_gamma 90.000000
_cell_volume 4715.460703
_symmetry_space_group_name_H-M "C M M M"
_symmetry_group_IT_number 65
_symmetry_cell_setting 'orthorhombic'
loop_
_space_group_symop_operation_xyz
x,y,z
-x,-y,z
x,-y,-z
-x,y,-z
-x,-y,-z
x,y,-z
-x,y,z
x,-y,z
1/2+x,1/2+y,z
1/2-x,1/2-y,z
1/2+x,1/2-y,-z
1/2-x,1/2+y,-z
1/2-x,1/2-y,-z
1/2+x,1/2+y,-z
1/2-x,1/2+y,z
1/2+x,1/2-y,z
loop_
_atom_site_type_symbol
_atom_site_label
_atom_site_fract_x
_atom_site_fract_y
_atom_site_fract_z
Si Si1 0.213403 0.831869 0.123030
Si Si2 0.782936 0.919417 0.954069
Si Si3 0.217289 0.918360 0.200887
Si Si4 0.286379 0.168180 0.454764
Si Si5 0.287878 0.920561 0.621148
Si Si6 0.286549 0.580520 0.290057
O O1 0.250000 0.750000 0.123922
O O2 0.279993 0.868936 0.081765
O O3 0.280528 0.871760 0.163337
O O4 0.000000 0.840627 0.122958
O O5 0.000000 0.918095 0.954210
O O6 0.732017 0.000000 0.946226
O O7 0.725570 0.900324 0.000000
O O8 0.274173 0.892039 0.245938
O O9 0.000000 0.917460 0.200403
O O10 0.267891 0.000000 0.196384
O O11 0.219138 0.148064 0.500000
O O12 0.500000 0.159720 0.455635
O O13 0.250000 0.250000 0.448965
O O14 0.216761 0.123778 0.416722
O O15 0.500000 0.925280 0.616094
O O16 0.260072 0.887950 0.666118
O O17 0.216144 0.000000 0.621014
O O18 0.500000 0.579049 0.288557
O O19 0.222176 0.500000 0.291582
#
# Coordination Sequence:
#
# PCOD9485018 Si02
#       6
#    16  16  16  16  16  16
#     4  10  19  30  45  66  93 121 147 180 223 267
#     4   8  14  26  46  70  90 111 148 193 225 253
#     4   8  14  27  48  68  83 109 153 192 216 248
#     4   9  18  32  48  65  87 117 150 181 214 255
#     4   9  17  29  46  69  94 116 141 177 221 266
#     4   8  14  26  45  67  88 111 143 183 222 258
#
# _framework density 20.358561999999999
#
# number of rings (size 3 to 8) (size 9 to 14) (size 15 to 20)
#    0.000    3.333    0.000    2.000    0.000    3.333 
#    0.000    3.333    0.000    7.000    0.000    5.833 
#    0.000    0.000    0.000    0.000    0.000    0.000 
#
# Total GULP energy -267474.621696 kJ/mol
# GULP energy per Si atom -5572.387952 kJ/mol
# Density = 2.031222 g / cm^3
# Si number density = 20.358562 Si / 1000 Ang^3
#
#
#
# Elastic Constant Matrix: (Units=GPa)
#
#
# Indices 1 2 3 4 5 6 
#
# 1 52.3994 -0.1446 8.9254 0.0000 0.0000 0.0000
# 2 -0.1446 85.8832 118.0520 0.0000 0.0000 0.0000
# 3 8.9254 118.0520 261.0696 0.0000 0.0000 0.0000
# 4 0.0000 0.0000 0.0000 -92.5556 0.0000 0.0000
# 5 0.0000 0.0000 0.0000 0.0000 25.1578 0.0000
# 6 0.0000 0.0000 0.0000 0.0000 0.0000 15.8866
#
#
#
# Elastic Compliance Matrix: (Units=1/GPa)
#
#
# Indices 1 2 3 4 5 6 
#
# 1 0.019396 0.002495 -0.001791 0.000000 0.000000 0.000000
# 2 0.002495 0.031089 -0.014143 0.000000 0.000000 0.000000
# 3 -0.001791 -0.014143 0.010287 0.000000 0.000000 0.000000
# 4 0.000000 0.000000 0.000000 -0.010804 0.000000 0.000000
# 5 0.000000 0.000000 0.000000 0.000000 0.039749 0.000000
# 6 0.000000 0.000000 0.000000 0.000000 0.000000 0.062946
#
#
# Mechanical properties :
#
#
# Convention : Reuss Voigt Hill
#
# Bulk Modulus (GPa) = 29.50494 72.55756 51.03125
# Shear Modulus (GPa) = 26.20008 7.86571 17.03290
#
# Velocity S-wave (km/s) = 3.59128 1.96773 2.89562
# Velocity P-wave (km/s) = 5.63209 6.39373 6.02496
#
# Compressibility (1/GPa) = 0.03389264
#
# Stress axis : x y z
#
# Youngs Moduli (GPa) = 51.55655 32.16620 97.21058
#
# Poissons Ratio (x) = -0.08025 0.17413
# Poissons Ratio (y) = -0.12862 1.37486
# Poissons Ratio (z) = 0.09235 0.45493
#
# Static dielectric constant tensor:
#      x y z
#    x 1.874960 0.000000 0.000000 
#    y 0.000000 1.672810 0.000000 
#    z 0.000000 0.000000 1.764710 
# 
# From -- ./inp_files/74370.got.cif
#   From: 2010.05.17/outbox.cif.g08.bks.cpg/sg65_38_cif.got.tgz:74370.got - 2010.06.03 17:01:31.
