data_PCOD9485606
_publ_section_title
;
Structure prediction by ZEFSAII (Michael W. Deem and Ramdas Pophale) SiO2 
 PCOD9485606
Probable space group: C M M M
;
_chemical_formula_sum "Si O2"
_cell_formula_units_Z 104
_cell_length_a 7.543876
_cell_length_b 28.991929
_cell_length_c 24.781603
_cell_angle_alpha 90.000000
_cell_angle_beta 90.000000
_cell_angle_gamma 90.000000
_cell_volume 5420.021995
_symmetry_space_group_name_H-M "C M M M"
_symmetry_group_IT_number 65
_symmetry_cell_setting 'orthorhombic'
loop_
_space_group_symop_operation_xyz
x,y,z
-x,-y,z
x,-y,-z
-x,y,-z
-x,-y,-z
x,y,-z
-x,y,z
x,-y,z
1/2+x,1/2+y,z
1/2-x,1/2-y,z
1/2+x,1/2-y,-z
1/2-x,1/2+y,-z
1/2-x,1/2-y,-z
1/2+x,1/2+y,-z
1/2-x,1/2+y,z
1/2+x,1/2-y,z
loop_
_atom_site_type_symbol
_atom_site_label
_atom_site_fract_x
_atom_site_fract_y
_atom_site_fract_z
Si Si1 0.212913 0.304075 0.833254
Si Si2 0.786743 0.304575 0.382547
Si Si3 0.214360 0.948172 0.104738
Si Si4 0.286309 0.448449 0.229207
Si Si5 0.292068 0.148586 0.058613
Si Si6 0.712295 0.804734 0.500000
Si Si7 0.291024 0.147661 0.274992
O O1 0.250000 0.250000 0.831673
O O2 0.284216 0.326526 0.888484
O O3 0.283506 0.328473 0.779134
O O4 0.000000 0.311106 0.833533
O O5 0.750000 0.250000 0.376233
O O6 0.719412 0.320832 0.441530
O O7 0.717310 0.332083 0.330697
O O8 0.000000 0.309655 0.384102
O O9 0.271289 0.940059 0.167049
O O10 0.278209 0.906143 0.068780
O O11 0.000000 0.947587 0.103845
O O12 0.270472 0.000000 0.089154
O O13 0.500000 0.448596 0.228488
O O14 0.227202 0.500000 0.244551
O O15 0.228028 0.406903 0.266913
O O16 0.500000 0.160642 0.056809
O O17 0.214724 0.160387 0.000000
O O18 0.500000 0.811529 0.500000
O O19 0.750000 0.750000 0.500000
O O20 0.500000 0.158655 0.275758
#
# Coordination Sequence:
#
# PCOD9485606 Si02
#       7
#    16  16  16  16  16   8  16
#     4  10  21  35  49  67  91 119 152 191 231 269
#     4   9  17  28  44  68  98 130 163 194 228 271
#     4   9  18  33  52  73  95 118 147 185 230 281
#     4   9  18  32  50  72  96 121 150 186 231 281
#     4  10  21  36  51  68  92 121 154 190 229 276
#     4   8  14  26  42  62  93 130 161 193 228 265
#     4  10  19  31  48  72  97 122 154 191 231 275
#
# _framework density 19.188113999999999
#
# number of rings (size 3 to 8) (size 9 to 14) (size 15 to 20)
#    0.000    2.615    1.538    1.385    0.000    3.385 
#    0.000    3.077    0.000    0.000    0.000    0.538 
#    0.000    4.308    0.000    0.000    0.000    0.000 
#
# Total GULP energy -290026.790541 kJ/mol
# GULP energy per Si atom -5577.438280 kJ/mol
# Density = 1.914444 g / cm^3
# Si number density = 19.188114 Si / 1000 Ang^3
#
#
#
# Elastic Constant Matrix: (Units=GPa)
#
#
# Indices 1 2 3 4 5 6 
#
# 1 46.8997 -10.7383 13.1979 0.0000 0.0000 0.0000
# 2 -10.7383 89.2605 79.6391 0.0000 0.0000 0.0000
# 3 13.1979 79.6391 195.6295 0.0000 0.0000 0.0000
# 4 0.0000 0.0000 0.0000 18.5867 0.0000 0.0000
# 5 0.0000 0.0000 0.0000 0.0000 -2.9051 0.0000
# 6 0.0000 0.0000 0.0000 0.0000 0.0000 22.6334
#
#
#
# Elastic Compliance Matrix: (Units=1/GPa)
#
#
# Indices 1 2 3 4 5 6 
#
# 1 0.024130 0.006839 -0.004412 0.000000 0.000000 0.000000
# 2 0.006839 0.019532 -0.008413 0.000000 0.000000 0.000000
# 3 -0.004412 -0.008413 0.008834 0.000000 0.000000 0.000000
# 4 0.000000 0.000000 0.000000 0.053802 0.000000 0.000000
# 5 0.000000 0.000000 0.000000 0.000000 -0.344227 0.000000
# 6 0.000000 0.000000 0.000000 0.000000 0.000000 0.044182
#
#
# Mechanical properties :
#
#
# Convention : Reuss Voigt Hill
#
# Bulk Modulus (GPa) = 24.67620 55.10965 39.89293
# Shear Modulus (GPa) = -29.71445 24.30908 -2.70269
#
# Velocity S-wave (km/s) = -3.93948 3.56319 -1.18810
# Velocity P-wave (km/s) = 2.79367 6.76103 4.35356
#
# Compressibility (1/GPa) = 0.04052488
#
# Stress axis : x y z
#
# Youngs Moduli (GPa) = 41.44270 51.19850 113.19797
#
# Poissons Ratio (x) = -0.35017 0.49945
# Poissons Ratio (y) = -0.28344 0.95229
# Poissons Ratio (z) = 0.18285 0.43072
#
# Static dielectric constant tensor:
#      x y z
#    x 1.707760 0.000000 0.000000 
#    y 0.000000 1.636960 0.000000 
#    z 0.000000 0.000000 1.714490 
# 
# From -- ./inp_files/68162.got.cif
#   From: 2010.05.17/outbox.cif.g08.bks.cpg/sg65_35_cif.got.tgz:68162.got - 2010.06.03 17:01:31.
