data_PCOD9485500
_publ_section_title
;
Structure prediction by ZEFSAII (Michael W. Deem and Ramdas Pophale) SiO2 
 PCOD9485500
Probable space group: C M M M
;
_chemical_formula_sum "Si O2"
_cell_formula_units_Z 112
_cell_length_a 14.141496
_cell_length_b 34.131077
_cell_length_c 14.640632
_cell_angle_alpha 90.000000
_cell_angle_beta 90.000000
_cell_angle_gamma 90.000000
_cell_volume 7066.513161
_symmetry_space_group_name_H-M "C M M M"
_symmetry_group_IT_number 65
_symmetry_cell_setting 'orthorhombic'
loop_
_space_group_symop_operation_xyz
x,y,z
-x,-y,z
x,-y,-z
-x,y,-z
-x,-y,-z
x,y,-z
-x,y,z
x,-y,z
1/2+x,1/2+y,z
1/2-x,1/2-y,z
1/2+x,1/2-y,-z
1/2-x,1/2+y,-z
1/2-x,1/2-y,-z
1/2+x,1/2+y,-z
1/2-x,1/2+y,z
1/2+x,1/2-y,z
loop_
_atom_site_type_symbol
_atom_site_label
_atom_site_fract_x
_atom_site_fract_y
_atom_site_fract_z
Si Si1 0.232168 0.545608 0.604376
Si Si2 0.387985 0.648726 0.791670
Si Si3 0.273198 0.890683 0.890749
Si Si4 0.610802 0.388492 0.603793
Si Si5 0.891653 0.313944 0.889264
Si Si6 0.110607 0.453529 0.218528
Si Si7 0.384704 0.727605 0.104785
O O1 0.197894 0.550918 0.500000
O O2 0.260764 0.500000 0.613948
O O3 0.320487 0.574541 0.617755
O O4 0.153063 0.553512 0.680388
O O5 0.500000 0.644142 0.807474
O O6 0.328851 0.616172 0.846111
O O7 0.370009 0.642428 0.684212
O O8 0.360642 0.691179 0.831463
O O9 0.331888 0.851664 0.862968
O O10 0.327923 0.927789 0.850630
O O11 0.267601 0.892299 0.000000
O O12 0.625899 0.373933 0.500000
O O13 0.500000 0.399752 0.611095
O O14 0.853760 0.270849 0.863638
O O15 0.000000 0.318145 0.857422
O O16 0.893837 0.313081 0.000000
O O17 0.119302 0.500000 0.199773
O O18 0.000000 0.443122 0.213374
O O19 0.500000 0.729842 0.101483
O O20 0.352420 0.720161 0.000000
#
# Coordination Sequence:
#
# PCOD9485500 Si02
#       7
#    16  16  16  16  16  16  16
#     4   9  17  31  52  76  99 121 150 194 248 298
#     4  10  19  31  47  70  98 128 161 196 237 286
#     4  11  21  32  49  71  95 129 169 202 238 283
#     4   9  17  30  49  73  99 125 156 195 238 285
#     4   8  15  28  45  67  95 124 158 203 246 280
#     4  10  21  36  52  72  98 126 160 200 241 287
#     4   8  14  26  44  67  97 128 156 193 240 283
#
# _framework density 15.849399999999999
#
# number of rings (size 3 to 8) (size 9 to 14) (size 15 to 20)
#    0.000    2.714    1.429    1.714    0.000    3.143 
#    0.000    5.714    0.000    0.429    0.000    4.000 
#    0.000    4.571    0.000    0.000    0.000    0.000 
#
# Total GULP energy -311997.563939 kJ/mol
# GULP energy per Si atom -5571.385070 kJ/mol
# Density = 1.581333 g / cm^3
# Si number density = 15.849400 Si / 1000 Ang^3
#
#
#
# Elastic Constant Matrix: (Units=GPa)
#
#
# Indices 1 2 3 4 5 6 
#
# 1 59.4253 34.9550 36.9055 0.0000 0.0000 0.0000
# 2 34.9550 62.7373 45.5509 0.0000 0.0000 0.0000
# 3 36.9055 45.5509 86.4372 0.0000 0.0000 0.0000
# 4 0.0000 0.0000 0.0000 1.5985 0.0000 0.0000
# 5 0.0000 0.0000 0.0000 0.0000 16.2999 0.0000
# 6 0.0000 0.0000 0.0000 0.0000 0.0000 25.0586
#
#
#
# Elastic Compliance Matrix: (Units=1/GPa)
#
#
# Indices 1 2 3 4 5 6 
#
# 1 0.026695 -0.010687 -0.005766 0.000000 0.000000 0.000000
# 2 -0.010687 0.030097 -0.011297 0.000000 0.000000 0.000000
# 3 -0.005766 -0.011297 0.019984 0.000000 0.000000 0.000000
# 4 0.000000 0.000000 0.000000 0.625583 0.000000 0.000000
# 5 0.000000 0.000000 0.000000 0.000000 0.061350 0.000000
# 6 0.000000 0.000000 0.000000 0.000000 0.000000 0.039906
#
#
# Mechanical properties :
#
#
# Convention : Reuss Voigt Hill
#
# Bulk Modulus (GPa) = 47.00295 49.26919 48.13607
# Shear Modulus (GPa) = 5.77229 14.67062 10.22145
#
# Velocity S-wave (km/s) = 1.91046 3.04571 2.54227
# Velocity P-wave (km/s) = 5.88106 6.59711 6.24935
#
# Compressibility (1/GPa) = 0.02127526
#
# Stress axis : x y z
#
# Youngs Moduli (GPa) = 37.46013 33.22642 50.03912
#
# Poissons Ratio (x) = 0.35510 0.28852
# Poissons Ratio (y) = 0.40034 0.56531
# Poissons Ratio (z) = 0.21599 0.37537
#
# Static dielectric constant tensor:
#      x y z
#    x 1.558770 0.000000 0.000000 
#    y 0.000000 1.525820 0.000000 
#    z 0.000000 0.000000 1.520260 
# 
# From -- ./inp_files/41079.got.cif
#   From: 2010.05.17/outbox.cif.g08.bks.cpg/sg65_21_cif.got.tgz:41079.got - 2010.06.03 17:01:31.
