data_PCOD9485620
_publ_section_title
;
Structure prediction by ZEFSAII (Michael W. Deem and Ramdas Pophale) SiO2 
 PCOD9485620
Probable space group: C M M M
;
_chemical_formula_sum "Si O2"
_cell_formula_units_Z 66
_cell_length_a 7.994474
_cell_length_b 25.440465
_cell_length_c 18.415076
_cell_angle_alpha 90.000000
_cell_angle_beta 90.000000
_cell_angle_gamma 90.000000
_cell_volume 3745.315906
_symmetry_space_group_name_H-M "C M M M"
_symmetry_group_IT_number 65
_symmetry_cell_setting 'orthorhombic'
loop_
_space_group_symop_operation_xyz
x,y,z
-x,-y,z
x,-y,-z
-x,y,-z
-x,-y,-z
x,y,-z
-x,y,z
x,-y,z
1/2+x,1/2+y,z
1/2-x,1/2-y,z
1/2+x,1/2-y,-z
1/2-x,1/2+y,-z
1/2-x,1/2-y,-z
1/2+x,1/2+y,-z
1/2-x,1/2+y,z
1/2+x,1/2-y,z
loop_
_atom_site_type_symbol
_atom_site_label
_atom_site_fract_x
_atom_site_fract_y
_atom_site_fract_z
Si Si1 0.298800 0.189458 0.418643
Si Si2 0.813256 0.000000 0.612453
Si Si3 0.801496 0.398736 0.693410
Si Si4 0.299996 0.060577 0.000000
Si Si5 0.801295 0.938769 0.842009
Si Si6 0.500000 0.000000 0.500000
O O1 0.239277 0.172796 0.500000
O O2 0.500000 0.186920 0.420551
O O3 0.250000 0.250000 0.408142
O O4 0.243734 0.151750 0.353249
O O5 0.794435 0.948565 0.661484
O O6 0.650701 0.000000 0.561358
O O7 0.000000 0.000000 0.579933
O O8 0.772589 0.401977 0.779331
O O9 0.000000 0.404771 0.680082
O O10 0.239283 0.081753 0.922789
O O11 0.500000 0.060890 0.000000
O O12 0.238434 0.000000 0.000000
O O13 0.000000 0.940615 0.833115
O O14 0.737942 0.000000 0.835494
#
# Coordination Sequence:
#
# PCOD9485620 Si02
#       6
#    16   8  16   8  16   2
#     4   9  20  37  57  77 103 138 182 233 285 326
#     4  12  25  39  57  81 108 150 188 224 281 335
#     4  11  21  35  56  78 112 148 181 230 278 326
#     4   9  17  29  47  71 100 141 180 215 264 323
#     4  10  19  31  48  74 108 142 182 223 264 321
#     4  12  26  44  52  74 116 146 186 240 268 332
#
# _framework density 17.62201
#
# number of rings (size 3 to 8) (size 9 to 14) (size 15 to 20)
#    0.000    1.818    2.424    2.000    1.697    4.364 
#    0.000    0.000    0.000    0.000    0.000    0.848 
#    0.000    0.000    0.000    0.000    0.000    0.000 
#
# Total GULP energy -183719.259741 kJ/mol
# GULP energy per Si atom -5567.250295 kJ/mol
# Density = 1.758190 g / cm^3
# Si number density = 17.622010 Si / 1000 Ang^3
#
#
#
# Elastic Constant Matrix: (Units=GPa)
#
#
# Indices 1 2 3 4 5 6 
#
# 1 74.3414 11.1790 27.5526 0.0000 0.0000 0.0000
# 2 11.1790 69.7413 66.9661 0.0000 0.0000 0.0000
# 3 27.5526 66.9661 168.8256 0.0000 0.0000 0.0000
# 4 0.0000 0.0000 0.0000 -19.8070 0.0000 0.0000
# 5 0.0000 0.0000 0.0000 0.0000 -62.6996 0.0000
# 6 0.0000 0.0000 0.0000 0.0000 0.0000 12.8123
#
#
#
# Elastic Compliance Matrix: (Units=1/GPa)
#
#
# Indices 1 2 3 4 5 6 
#
# 1 0.014318 -0.000083 -0.002304 0.000000 0.000000 0.000000
# 2 -0.000083 0.023160 -0.009173 0.000000 0.000000 0.000000
# 3 -0.002304 -0.009173 0.009938 0.000000 0.000000 0.000000
# 4 0.000000 0.000000 0.000000 -0.050487 0.000000 0.000000
# 5 0.000000 0.000000 0.000000 0.000000 -0.015949 0.000000
# 6 0.000000 0.000000 0.000000 0.000000 0.000000 0.078050
#
#
# Mechanical properties :
#
#
# Convention : Reuss Voigt Hill
#
# Bulk Modulus (GPa) = 41.15893 58.25598 49.70745
# Shear Modulus (GPa) = 55.40314 -0.12482 27.63916
#
# Velocity S-wave (km/s) = 5.61320 -0.26643 3.96466
# Velocity P-wave (km/s) = 8.08813 5.74767 7.01618
#
# Compressibility (1/GPa) = 0.02429606
#
# Stress axis : x y z
#
# Youngs Moduli (GPa) = 69.84329 43.17769 100.62537
#
# Poissons Ratio (x) = 0.00358 0.23182
# Poissons Ratio (y) = 0.00579 0.92305
# Poissons Ratio (z) = 0.16090 0.39607
#
# Static dielectric constant tensor:
#      x y z
#    x 1.620650 0.000000 0.000000 
#    y 0.000000 1.582110 0.000000 
#    z 0.000000 0.000000 1.651860 
# 
# From -- ./inp_files/49232.got.cif
#   From: 2010.05.17/outbox.cif.g08.bks.cpg/sg65_25_cif.got.tgz:49232.got - 2010.06.03 17:01:31.
