data_PCOD9485511
_publ_section_title
;
Structure prediction by ZEFSAII (Michael W. Deem and Ramdas Pophale) SiO2 
 PCOD9485511
Probable space group: C M M M
;
_chemical_formula_sum "Si O2"
_cell_formula_units_Z 104
_cell_length_a 19.073826
_cell_length_b 15.783949
_cell_length_c 19.505918
_cell_angle_alpha 90.000000
_cell_angle_beta 90.000000
_cell_angle_gamma 90.000000
_cell_volume 5872.457463
_symmetry_space_group_name_H-M "C M M M"
_symmetry_group_IT_number 65
_symmetry_cell_setting 'orthorhombic'
loop_
_space_group_symop_operation_xyz
x,y,z
-x,-y,z
x,-y,-z
-x,y,-z
-x,-y,-z
x,y,-z
-x,y,z
x,-y,z
1/2+x,1/2+y,z
1/2-x,1/2-y,z
1/2+x,1/2-y,-z
1/2-x,1/2+y,-z
1/2-x,1/2-y,-z
1/2+x,1/2+y,-z
1/2-x,1/2+y,z
1/2+x,1/2-y,z
loop_
_atom_site_type_symbol
_atom_site_label
_atom_site_fract_x
_atom_site_fract_y
_atom_site_fract_z
Si Si1 0.421646 0.310819 0.699546
Si Si2 0.083381 0.226137 0.079271
Si Si3 0.214294 0.595112 0.736574
Si Si4 0.914190 0.603503 0.500000
Si Si5 0.321223 0.789645 0.392513
Si Si6 0.922192 0.648954 0.802938
Si Si7 0.848616 0.098465 0.816373
O O1 0.500000 0.324265 0.673448
O O2 0.368504 0.285537 0.639591
O O3 0.422861 0.229979 0.751372
O O4 0.397016 0.385513 0.749549
O O5 0.092626 0.312581 0.122214
O O6 0.124138 0.154130 0.120915
O O7 0.000000 0.206968 0.083164
O O8 0.103425 0.232310 0.000000
O O9 0.234917 0.500000 0.715922
O O10 0.206411 0.654497 0.671209
O O11 0.140353 0.593408 0.775170
O O12 0.272712 0.627929 0.789271
O O13 0.904741 0.500000 0.500000
O O14 0.873111 0.649903 0.563032
O O15 0.000000 0.617800 0.500000
O O16 0.250000 0.750000 0.424325
O O17 0.000000 0.611135 0.801202
O O18 0.846422 0.000000 0.834429
#
# Coordination Sequence:
#
# PCOD9485511 Si02
#       7
#    16  16  16   8  16  16  16
#     4   9  17  30  50  76 102 134 176 221 262 311
#     4   9  18  32  50  72  99 136 182 226 270 327
#     4  10  20  33  52  79 109 137 174 222 271 320
#     4  11  25  42  60  86 119 149 182 228 276 323
#     4  11  20  37  60  83 109 147 183 216 264 326
#     4   8  16  30  49  71  98 132 175 224 269 319
#     4  10  19  31  47  72 107 141 174 222 275 322
#
# _framework density 17.709792
#
# number of rings (size 3 to 8) (size 9 to 14) (size 15 to 20)
#    0.000    2.385    1.538    2.538    0.000    2.462 
#    0.000    2.308    0.000    1.385    0.000    2.154 
#    0.000    4.308    0.000    0.000    0.000    0.000 
#
# Total GULP energy -289597.599145 kJ/mol
# GULP energy per Si atom -5569.184599 kJ/mol
# Density = 1.766948 g / cm^3
# Si number density = 17.709792 Si / 1000 Ang^3
#
#
#
# Elastic Constant Matrix: (Units=GPa)
#
#
# Indices 1 2 3 4 5 6 
#
# 1 106.7573 27.5278 43.6658 0.0000 0.0000 0.0000
# 2 27.5278 37.4264 24.3663 0.0000 0.0000 0.0000
# 3 43.6658 24.3663 86.3239 0.0000 0.0000 0.0000
# 4 0.0000 0.0000 0.0000 13.0832 0.0000 0.0000
# 5 0.0000 0.0000 0.0000 0.0000 24.6243 0.0000
# 6 0.0000 0.0000 0.0000 0.0000 0.0000 40.6244
#
#
#
# Elastic Compliance Matrix: (Units=1/GPa)
#
#
# Indices 1 2 3 4 5 6 
#
# 1 0.012969 -0.006454 -0.004739 0.000000 0.000000 0.000000
# 2 -0.006454 0.035947 -0.006882 0.000000 0.000000 0.000000
# 3 -0.004739 -0.006882 0.015924 0.000000 0.000000 0.000000
# 4 0.000000 0.000000 0.000000 0.076434 0.000000 0.000000
# 5 0.000000 0.000000 0.000000 0.000000 0.040610 0.000000
# 6 0.000000 0.000000 0.000000 0.000000 0.000000 0.024616
#
#
# Mechanical properties :
#
#
# Convention : Reuss Voigt Hill
#
# Bulk Modulus (GPa) = 34.85456 46.84750 40.85103
# Shear Modulus (GPa) = 19.82454 24.66290 22.24372
#
# Velocity S-wave (km/s) = 3.34939 3.73582 3.54787
# Velocity P-wave (km/s) = 5.88911 6.71705 6.31666
#
# Compressibility (1/GPa) = 0.02869065
#
# Stress axis : x y z
#
# Youngs Moduli (GPa) = 77.10400 27.81905 62.79932
#
# Poissons Ratio (x) = 0.17955 0.29758
# Poissons Ratio (y) = 0.49765 0.43217
# Poissons Ratio (z) = 0.36537 0.19144
#
# Static dielectric constant tensor:
#      x y z
#    x 1.647450 0.000000 0.000000 
#    y 0.000000 1.601630 0.000000 
#    z 0.000000 0.000000 1.596740 
# 
# From -- ./inp_files/54616.got.cif
#   From: 2010.05.17/outbox.cif.g08.bks.cpg/sg65_28_cif.got.tgz:54616.got - 2010.06.03 17:01:31.
