data_PCOD9485172
_publ_section_title
;
Structure prediction by ZEFSAII (Michael W. Deem and Ramdas Pophale) SiO2 
 PCOD9485172
Probable space group: C M M M
;
_chemical_formula_sum "Si O2"
_cell_formula_units_Z 104
_cell_length_a 18.241272
_cell_length_b 25.503154
_cell_length_c 13.784487
_cell_angle_alpha 90.000000
_cell_angle_beta 90.000000
_cell_angle_gamma 90.000000
_cell_volume 6412.680770
_symmetry_space_group_name_H-M "C M M M"
_symmetry_group_IT_number 65
_symmetry_cell_setting 'orthorhombic'
loop_
_space_group_symop_operation_xyz
x,y,z
-x,-y,z
x,-y,-z
-x,y,-z
-x,-y,-z
x,y,-z
-x,y,z
x,-y,z
1/2+x,1/2+y,z
1/2-x,1/2-y,z
1/2+x,1/2-y,-z
1/2-x,1/2+y,-z
1/2-x,1/2-y,-z
1/2+x,1/2+y,-z
1/2-x,1/2+y,z
1/2+x,1/2-y,z
loop_
_atom_site_type_symbol
_atom_site_label
_atom_site_fract_x
_atom_site_fract_y
_atom_site_fract_z
Si Si1 0.420067 0.063664 0.887637
Si Si2 0.181437 0.214681 0.733654
Si Si3 0.414147 0.204565 0.385698
Si Si4 0.775162 0.632836 0.612880
Si Si5 0.270829 0.937602 0.210040
Si Si6 0.357280 0.627027 0.115164
Si Si7 0.500000 0.560092 0.117431
O O1 0.500000 0.081778 0.853213
O O2 0.351118 0.079958 0.825539
O O3 0.420833 0.000000 0.886627
O O4 0.411189 0.079270 0.000000
O O5 0.250000 0.250000 0.769408
O O6 0.120188 0.250461 0.682554
O O7 0.219406 0.176903 0.653549
O O8 0.150089 0.178992 0.819849
O O9 0.409193 0.219954 0.500000
O O10 0.500000 0.193975 0.364862
O O11 0.357669 0.155940 0.374830
O O12 0.763001 0.623011 0.500000
O O13 0.762695 0.582888 0.680832
O O14 0.212279 0.908903 0.142045
O O15 0.264001 0.000000 0.202034
O O16 0.428279 0.593034 0.144424
O O17 0.360114 0.637677 0.000000
O O18 0.500000 0.500000 0.153658
O O19 0.500000 0.557103 0.000000
#
# Coordination Sequence:
#
# PCOD9485172 Si02
#       7
#    16  16  16  16  16  16   8
#     4   8  14  25  41  61  85 114 150 194 237 272
#     4   9  18  32  50  72  97 126 157 198 248 297
#     4   9  17  30  51  74  93 119 157 199 243 292
#     4   9  18  32  47  67  97 126 156 199 248 291
#     4  10  19  30  47  70  94 128 170 203 236 283
#     4  10  20  32  49  73 100 130 165 202 247 296
#     4   9  18  32  48  68  97 131 165 203 243 284
#
# _framework density 16.217866999999998
#
# number of rings (size 3 to 8) (size 9 to 14) (size 15 to 20)
#    0.000    2.846    0.000    1.846    1.077    4.615 
#    0.000    0.000    0.000    0.000    0.000    4.308 
#    0.000    6.462    0.000    0.000    0.000    0.000 
#
# Total GULP energy -289604.768640 kJ/mol
# GULP energy per Si atom -5569.322474 kJ/mol
# Density = 1.618095 g / cm^3
# Si number density = 16.217867 Si / 1000 Ang^3
#
#
#
# Elastic Constant Matrix: (Units=GPa)
#
#
# Indices 1 2 3 4 5 6 
#
# 1 71.7670 5.4795 22.7957 0.0000 0.0000 0.0000
# 2 5.4795 36.2832 15.7983 0.0000 0.0000 0.0000
# 3 22.7957 15.7983 63.7813 0.0000 0.0000 0.0000
# 4 0.0000 0.0000 0.0000 13.2242 0.0000 0.0000
# 5 0.0000 0.0000 0.0000 0.0000 15.7479 0.0000
# 6 0.0000 0.0000 0.0000 0.0000 0.0000 15.7013
#
#
#
# Elastic Compliance Matrix: (Units=1/GPa)
#
#
# Indices 1 2 3 4 5 6 
#
# 1 0.015719 0.000081 -0.005638 0.000000 0.000000 0.000000
# 2 0.000081 0.030893 -0.007681 0.000000 0.000000 0.000000
# 3 -0.005638 -0.007681 0.019596 0.000000 0.000000 0.000000
# 4 0.000000 0.000000 0.000000 0.075619 0.000000 0.000000
# 5 0.000000 0.000000 0.000000 0.000000 0.063501 0.000000
# 6 0.000000 0.000000 0.000000 0.000000 0.000000 0.063689
#
#
# Mechanical properties :
#
#
# Convention : Reuss Voigt Hill
#
# Bulk Modulus (GPa) = 25.16863 28.88652 27.02758
# Shear Modulus (GPa) = 16.19503 17.45187 16.82345
#
# Velocity S-wave (km/s) = 3.16348 3.28394 3.22427
# Velocity P-wave (km/s) = 5.37552 5.67708 5.52836
#
# Compressibility (1/GPa) = 0.03973200
#
# Stress axis : x y z
#
# Youngs Moduli (GPa) = 63.61888 32.36954 51.03037
#
# Poissons Ratio (x) = -0.00262 0.28771
# Poissons Ratio (y) = -0.00516 0.39197
# Poissons Ratio (z) = 0.35868 0.24863
#
# Static dielectric constant tensor:
#      x y z
#    x 1.553660 0.000000 0.000000 
#    y 0.000000 1.532640 0.000000 
#    z 0.000000 0.000000 1.523790 
# 
# From -- ./inp_files/27479.got.cif
#   From: 2010.05.17/outbox.cif.g08.bks.cpg/sg65_14_cif.got.tgz:27479.got - 2010.06.03 17:01:31.
