data_PCOD9485935
_publ_section_title
;
Structure prediction by ZEFSAII (Michael W. Deem and Ramdas Pophale) SiO2 
 PCOD9485935
Probable space group: C M M M
;
_chemical_formula_sum "Si O2"
_cell_formula_units_Z 104
_cell_length_a 27.578330
_cell_length_b 24.369191
_cell_length_c 7.549563
_cell_angle_alpha 90.000000
_cell_angle_beta 90.000000
_cell_angle_gamma 90.000000
_cell_volume 5073.771323
_symmetry_space_group_name_H-M "C M M M"
_symmetry_group_IT_number 65
_symmetry_cell_setting 'orthorhombic'
loop_
_space_group_symop_operation_xyz
x,y,z
-x,-y,z
x,-y,-z
-x,y,-z
-x,-y,-z
x,y,-z
-x,y,z
x,-y,z
1/2+x,1/2+y,z
1/2-x,1/2-y,z
1/2+x,1/2-y,-z
1/2-x,1/2+y,-z
1/2-x,1/2-y,-z
1/2+x,1/2+y,-z
1/2-x,1/2+y,z
1/2+x,1/2-y,z
loop_
_atom_site_type_symbol
_atom_site_label
_atom_site_fract_x
_atom_site_fract_y
_atom_site_fract_z
Si Si1 0.445865 0.191030 0.212972
Si Si2 0.379302 0.713474 0.288925
Si Si3 0.708912 0.500000 0.714166
Si Si4 0.145019 0.618025 0.782069
Si Si5 0.209481 0.287702 0.201078
Si Si6 0.555053 0.500000 0.212084
Si Si7 0.366174 0.410028 0.709024
Si Si8 0.323184 0.000000 0.210958
O O1 0.500000 0.179956 0.279202
O O2 0.428502 0.252721 0.257202
O O3 0.404342 0.148468 0.275341
O O4 0.446611 0.186691 0.000000
O O5 0.370519 0.714265 0.500000
O O6 0.338183 0.750157 0.198438
O O7 0.375278 0.651203 0.222205
O O8 0.705361 0.500000 0.500000
O O9 0.678907 0.553617 0.779363
O O10 0.765287 0.500000 0.760157
O O11 0.190663 0.655213 0.721593
O O12 0.152816 0.556074 0.721858
O O13 0.145481 0.619403 0.000000
O O14 0.250000 0.250000 0.289799
O O15 0.226378 0.299626 0.000000
O O16 0.500000 0.500000 0.279042
O O17 0.586199 0.447314 0.268812
O O18 0.553675 0.500000 0.000000
O O19 0.357235 0.403784 0.500000
O O20 0.330784 0.000000 0.000000
#
# Coordination Sequence:
#
# PCOD9485935 Si02
#       8
#    16  16   8  16  16   8  16   8
#     4   9  18  35  56  74  99 136 170 206 259 317
#     4  10  20  33  51  77 104 131 168 214 256 302
#     4   9  19  35  50  67  96 135 172 206 244 295
#     4   8  16  31  48  73 103 130 165 209 254 303
#     4   9  18  32  50  71 102 141 171 203 252 308
#     4  10  21  35  52  75  99 126 169 222 261 295
#     4   9  20  37  52  69 101 139 172 208 255 310
#     4  10  19  31  51  76 102 130 168 216 257 299
#
# _framework density 20.497572000000002
#
# number of rings (size 3 to 8) (size 9 to 14) (size 15 to 20)
#    0.000    2.846    0.000    2.077    2.154    4.308 
#    0.000    6.538    0.000    2.308    0.000    0.000 
#    0.000    5.538    0.000    0.000    0.000    0.000 
#
# Total GULP energy -289924.616116 kJ/mol
# GULP energy per Si atom -5575.473387 kJ/mol
# Density = 2.045092 g / cm^3
# Si number density = 20.497572 Si / 1000 Ang^3
#
#
#
# Elastic Constant Matrix: (Units=GPa)
#
#
# Indices 1 2 3 4 5 6 
#
# 1 97.0576 58.1431 -1.5352 0.0000 0.0000 0.0000
# 2 58.1431 191.3218 2.1464 0.0000 0.0000 0.0000
# 3 -1.5352 2.1464 54.7593 0.0000 0.0000 0.0000
# 4 0.0000 0.0000 0.0000 -42.8531 0.0000 0.0000
# 5 0.0000 0.0000 0.0000 0.0000 26.7292 0.0000
# 6 0.0000 0.0000 0.0000 0.0000 0.0000 14.1411
#
#
#
# Elastic Compliance Matrix: (Units=1/GPa)
#
#
# Indices 1 2 3 4 5 6 
#
# 1 0.012610 -0.003838 0.000504 0.000000 0.000000 0.000000
# 2 -0.003838 0.006397 -0.000358 0.000000 0.000000 0.000000
# 3 0.000504 -0.000358 0.018290 0.000000 0.000000 0.000000
# 4 0.000000 0.000000 0.000000 -0.023336 0.000000 0.000000
# 5 0.000000 0.000000 0.000000 0.000000 0.037412 0.000000
# 6 0.000000 0.000000 0.000000 0.000000 0.000000 0.070716
#
#
# Mechanical properties :
#
#
# Convention : Reuss Voigt Hill
#
# Bulk Modulus (GPa) = 33.43061 51.18304 42.30683
# Shear Modulus (GPa) = 35.85626 18.56240 27.20933
#
# Velocity S-wave (km/s) = 4.18699 3.01257 3.64736
# Velocity P-wave (km/s) = 6.30234 6.09305 6.19858
#
# Compressibility (1/GPa) = 0.02991270
#
# Stress axis : x y z
#
# Youngs Moduli (GPa) = 79.30036 156.31904 54.67499
#
# Poissons Ratio (x) = 0.59994 -0.02755
# Poissons Ratio (y) = 0.30435 0.01959
# Poissons Ratio (z) = -0.03996 0.05602
#
# Static dielectric constant tensor:
#      x y z
#    x 1.724070 0.000000 0.000000 
#    y 0.000000 1.730570 0.000000 
#    z 0.000000 0.000000 1.797300 
# 
# From -- ./inp_files/16838.got.cif
#   From: 2010.05.17/outbox.cif.g08.bks.cpg/sg65_9_cif.got.tgz:16838.got - 2010.06.03 17:01:31.
