data_PCOD9485686
_publ_section_title
;
Structure prediction by ZEFSAII (Michael W. Deem and Ramdas Pophale) SiO2 
 PCOD9485686
Probable space group: C M M M
;
_chemical_formula_sum "Si O2"
_cell_formula_units_Z 104
_cell_length_a 9.304109
_cell_length_b 26.951106
_cell_length_c 22.743543
_cell_angle_alpha 90.000000
_cell_angle_beta 90.000000
_cell_angle_gamma 90.000000
_cell_volume 5703.080503
_symmetry_space_group_name_H-M "C M M M"
_symmetry_group_IT_number 65
_symmetry_cell_setting 'orthorhombic'
loop_
_space_group_symop_operation_xyz
x,y,z
-x,-y,z
x,-y,-z
-x,y,-z
-x,-y,-z
x,y,-z
-x,y,z
x,-y,z
1/2+x,1/2+y,z
1/2-x,1/2-y,z
1/2+x,1/2-y,-z
1/2-x,1/2+y,-z
1/2-x,1/2-y,-z
1/2+x,1/2+y,-z
1/2-x,1/2+y,z
1/2+x,1/2-y,z
loop_
_atom_site_type_symbol
_atom_site_label
_atom_site_fract_x
_atom_site_fract_y
_atom_site_fract_z
Si Si1 0.166867 0.600468 0.429072
Si Si2 0.832027 0.199352 0.244327
Si Si3 0.336615 0.705473 0.934159
Si Si4 0.332429 0.500000 0.571640
Si Si5 0.169051 0.198652 0.614285
Si Si6 0.164411 0.440641 0.934858
Si Si7 0.164741 0.883141 0.156788
O O1 0.164947 0.599203 0.500000
O O2 0.249762 0.550256 0.409547
O O3 0.250846 0.650193 0.410442
O O4 0.000000 0.601092 0.409053
O O5 0.750000 0.250000 0.228735
O O6 0.824545 0.194782 0.314718
O O7 0.779967 0.148900 0.212378
O O8 0.000000 0.204481 0.226985
O O9 0.500000 0.722028 0.938625
O O10 0.250000 0.750000 0.906465
O O11 0.334099 0.657499 0.895042
O O12 0.280277 0.696177 0.000000
O O13 0.500000 0.500000 0.590056
O O14 0.331783 0.500000 0.500000
O O15 0.250000 0.250000 0.597415
O O16 0.000000 0.200116 0.597218
O O17 0.161464 0.500000 0.936428
O O18 0.244641 0.425271 0.875243
O O19 0.000000 0.422065 0.932171
O O20 0.224470 0.425155 0.000000
O O21 0.000000 0.898909 0.168479
#
# Coordination Sequence:
#
# PCOD9485686 Si02
#       7
#    16  16  16   8  16  16  16
#     4  10  20  34  54  81 112 144 180 224 271 320
#     4   9  19  34  52  75 102 133 171 211 252 300
#     4   9  17  27  39  60  91 121 147 180 223 274
#     4   9  17  31  53  81 111 143 177 213 258 313
#     4  10  20  35  54  76 106 143 183 225 271 324
#     4   9  19  35  52  71  96 125 160 204 253 305
#     4  10  19  31  49  72  96 122 158 201 244 293
#
# _framework density 18.235759999999999
#
# number of rings (size 3 to 8) (size 9 to 14) (size 15 to 20)
#    0.000    2.538    0.000    2.538    0.000    5.231 
#    0.000    2.308    1.692    0.000    0.000    0.000 
#    0.000    0.000    0.000    0.000    0.000    0.000 
#
# Total GULP energy -289542.183672 kJ/mol
# GULP energy per Si atom -5568.118917 kJ/mol
# Density = 1.819425 g / cm^3
# Si number density = 18.235760 Si / 1000 Ang^3
#
#
#
# Elastic Constant Matrix: (Units=GPa)
#
#
# Indices 1 2 3 4 5 6 
#
# 1 97.6360 67.8469 19.5810 0.0000 0.0000 0.0000
# 2 67.8469 115.2275 16.9263 0.0000 0.0000 0.0000
# 3 19.5810 16.9263 18.6328 0.0000 0.0000 0.0000
# 4 0.0000 0.0000 0.0000 35.2702 0.0000 0.0000
# 5 0.0000 0.0000 0.0000 0.0000 16.2352 0.0000
# 6 0.0000 0.0000 0.0000 0.0000 0.0000 32.0904
#
#
#
# Elastic Compliance Matrix: (Units=1/GPa)
#
#
# Indices 1 2 3 4 5 6 
#
# 1 0.019245 -0.009648 -0.011460 0.000000 0.000000 0.000000
# 2 -0.009648 0.014852 -0.003353 0.000000 0.000000 0.000000
# 3 -0.011460 -0.003353 0.068757 0.000000 0.000000 0.000000
# 4 0.000000 0.000000 0.000000 0.028353 0.000000 0.000000
# 5 0.000000 0.000000 0.000000 0.000000 0.061595 0.000000
# 6 0.000000 0.000000 0.000000 0.000000 0.000000 0.031162
#
#
# Mechanical properties :
#
#
# Convention : Reuss Voigt Hill
#
# Bulk Modulus (GPa) = 18.54144 48.91161 33.72652
# Shear Modulus (GPa) = 17.19032 25.19529 21.19281
#
# Velocity S-wave (km/s) = 3.07363 3.72108 3.41274
# Velocity P-wave (km/s) = 4.77346 6.73364 5.83643
#
# Compressibility (1/GPa) = 0.05393325
#
# Stress axis : x y z
#
# Youngs Moduli (GPa) = 51.96200 67.33162 14.54393
#
# Poissons Ratio (x) = 0.64963 0.16667
# Poissons Ratio (y) = 0.50134 0.04876
# Poissons Ratio (z) = 0.59547 0.22573
#
# Static dielectric constant tensor:
#      x y z
#    x 1.624840 0.000000 0.000000 
#    y 0.000000 1.623050 0.000000 
#    z 0.000000 0.000000 1.654380 
# 
# From -- ./inp_files/68140.got.cif
#   From: 2010.05.17/outbox.cif.g08.bks.cpg/sg65_35_cif.got.tgz:68140.got - 2010.06.03 17:01:31.
