data_PCOD9485883
_publ_section_title
;
Structure prediction by ZEFSAII (Michael W. Deem and Ramdas Pophale) SiO2 
 PCOD9485883
Probable space group: C M M M
;
_chemical_formula_sum "Si O2"
_cell_formula_units_Z 80
_cell_length_a 20.076180
_cell_length_b 21.970018
_cell_length_c 7.456852
_cell_angle_alpha 90.000000
_cell_angle_beta 90.000000
_cell_angle_gamma 90.000000
_cell_volume 3289.023807
_symmetry_space_group_name_H-M "C M M M"
_symmetry_group_IT_number 65
_symmetry_cell_setting 'orthorhombic'
loop_
_space_group_symop_operation_xyz
x,y,z
-x,-y,z
x,-y,-z
-x,y,-z
-x,-y,-z
x,y,-z
-x,y,z
x,-y,z
1/2+x,1/2+y,z
1/2-x,1/2-y,z
1/2+x,1/2-y,-z
1/2-x,1/2+y,-z
1/2-x,1/2-y,-z
1/2+x,1/2+y,-z
1/2-x,1/2+y,z
1/2+x,1/2-y,z
loop_
_atom_site_type_symbol
_atom_site_label
_atom_site_fract_x
_atom_site_fract_y
_atom_site_fract_z
Si Si1 0.425837 0.431573 0.781434
Si Si2 0.925197 0.263900 0.782638
Si Si3 0.821235 0.165964 0.214358
Si Si4 0.072146 0.593346 0.290161
Si Si5 0.783303 0.433939 0.284912
O O1 0.500000 0.413861 0.728832
O O2 0.413571 0.500000 0.722209
O O3 0.371660 0.385464 0.717505
O O4 0.423991 0.431109 0.000000
O O5 0.858822 0.227319 0.720670
O O6 0.923044 0.333469 0.722127
O O7 0.000000 0.239790 0.730642
O O8 0.924801 0.262824 0.000000
O O9 0.751696 0.131118 0.246026
O O10 0.823403 0.171799 0.000000
O O11 0.070985 0.576354 0.500000
O O12 0.141071 0.568565 0.215271
O O13 0.000000 0.575832 0.213072
O O14 0.784208 0.436498 0.500000
O O15 0.753240 0.500000 0.223125
#
# Coordination Sequence:
#
# PCOD9485883 Si02
#       5
#    16  16  16  16  16
#     4   8  13  22  39  64  92 124 166 211 245 276
#     4   9  18  33  54  81 111 140 172 213 257 299
#     4  10  19  31  50  76 106 139 173 207 248 304
#     4   9  19  37  59  79  99 129 172 218 264 317
#     4  10  22  38  54  75 104 136 171 216 268 314
#
# _framework density 24.323326000000002
#
# number of rings (size 3 to 8) (size 9 to 14) (size 15 to 20)
#    0.000    2.800    0.000    1.800    0.000    6.400 
#    0.000    6.000    0.000    1.800    0.000   11.200 
#    0.000    0.000    0.000    0.000    0.000    0.000 
#
# Total GULP energy -222926.472564 kJ/mol
# GULP energy per Si atom -5573.161814 kJ/mol
# Density = 2.426797 g / cm^3
# Si number density = 24.323326 Si / 1000 Ang^3
#
#
#
# Elastic Constant Matrix: (Units=GPa)
#
#
# Indices 1 2 3 4 5 6 
#
# 1 123.2427 48.2887 0.9180 0.0000 0.0000 0.0000
# 2 48.2887 96.3020 0.5364 0.0000 0.0000 0.0000
# 3 0.9180 0.5364 77.7040 0.0000 0.0000 0.0000
# 4 0.0000 0.0000 0.0000 0.8285 0.0000 0.0000
# 5 0.0000 0.0000 0.0000 0.0000 10.9200 0.0000
# 6 0.0000 0.0000 0.0000 0.0000 0.0000 34.6357
#
#
#
# Elastic Compliance Matrix: (Units=1/GPa)
#
#
# Indices 1 2 3 4 5 6 
#
# 1 0.010099 -0.005063 -0.000084 0.000000 0.000000 0.000000
# 2 -0.005063 0.012923 -0.000029 0.000000 0.000000 0.000000
# 3 -0.000084 -0.000029 0.012871 0.000000 0.000000 0.000000
# 4 0.000000 0.000000 0.000000 1.207021 0.000000 0.000000
# 5 0.000000 0.000000 0.000000 0.000000 0.091575 0.000000
# 6 0.000000 0.000000 0.000000 0.000000 0.000000 0.028872
#
#
# Mechanical properties :
#
#
# Convention : Reuss Voigt Hill
#
# Bulk Modulus (GPa) = 39.15712 44.08167 41.61939
# Shear Modulus (GPa) = 3.61735 25.77720 14.69728
#
# Velocity S-wave (km/s) = 1.22083 3.25895 2.46081
# Velocity P-wave (km/s) = 4.25685 5.68538 5.02217
#
# Compressibility (1/GPa) = 0.02553814
#
# Stress axis : x y z
#
# Youngs Moduli (GPa) = 99.02396 77.38130 77.69675
#
# Poissons Ratio (x) = 0.39180 0.00655
# Poissons Ratio (y) = 0.50138 0.00228
# Poissons Ratio (z) = 0.00835 0.00227
#
# Static dielectric constant tensor:
#      x y z
#    x 2.001340 0.000000 0.000000 
#    y 0.000000 1.935250 0.000000 
#    z 0.000000 0.000000 1.952970 
# 
# From -- ./inp_files/9608.got.cif
#   From: 2010.05.17/outbox.cif.g08.bks.cpg/sg65_5_cif.got.tgz:9608.got - 2010.06.03 17:01:31.
