data_PCOD9485199
_publ_section_title
;
Structure prediction by ZEFSAII (Michael W. Deem and Ramdas Pophale) SiO2 
 PCOD9485199
Probable space group: C M M M
;
_chemical_formula_sum "Si O2"
_cell_formula_units_Z 96
_cell_length_a 14.813528
_cell_length_b 31.904985
_cell_length_c 9.654398
_cell_angle_alpha 90.000000
_cell_angle_beta 90.000000
_cell_angle_gamma 90.000000
_cell_volume 4562.913607
_symmetry_space_group_name_H-M "C M M M"
_symmetry_group_IT_number 65
_symmetry_cell_setting 'orthorhombic'
loop_
_space_group_symop_operation_xyz
x,y,z
-x,-y,z
x,-y,-z
-x,y,-z
-x,-y,-z
x,y,-z
-x,y,z
x,-y,z
1/2+x,1/2+y,z
1/2-x,1/2-y,z
1/2+x,1/2-y,-z
1/2-x,1/2+y,-z
1/2-x,1/2-y,-z
1/2+x,1/2+y,-z
1/2-x,1/2+y,z
1/2+x,1/2-y,z
loop_
_atom_site_type_symbol
_atom_site_label
_atom_site_fract_x
_atom_site_fract_y
_atom_site_fract_z
Si Si1 0.858248 0.623961 0.342779
Si Si2 0.359486 0.046602 0.159973
Si Si3 0.392258 0.217895 0.342286
Si Si4 0.358336 0.375538 0.342420
Si Si5 0.391988 0.705924 0.156494
Si Si6 0.860610 0.047511 0.158849
O O1 0.893333 0.621676 0.500000
O O2 0.891462 0.585486 0.250785
O O3 0.877728 0.670685 0.289217
O O4 0.750015 0.620466 0.349346
O O5 0.249399 0.047411 0.161082
O O6 0.386292 0.000000 0.208988
O O7 0.386912 0.051008 0.000000
O O8 0.355088 0.220709 0.500000
O O9 0.500000 0.223913 0.352676
O O10 0.357001 0.253830 0.241036
O O11 0.391542 0.370831 0.500000
O O12 0.377161 0.335305 0.248191
O O13 0.392125 0.417216 0.264955
O O14 0.500000 0.710968 0.144580
O O15 0.355227 0.702179 0.000000
O O16 0.889155 0.000000 0.191672
O O17 0.887027 0.057147 0.000000
#
# Coordination Sequence:
#
# PCOD9485199 Si02
#       6
#    16  16  16  16  16  16
#     4   9  18  30  46  72  99 122 153 193 234 274
#     4   8  14  25  42  65  93 125 158 190 227 272
#     4   9  18  34  53  69  90 123 159 193 232 278
#     4  10  19  30  47  72 100 125 151 189 234 277
#     4  10  21  36  52  69  90 119 157 195 230 276
#     4   8  14  26  44  66  94 126 157 189 226 270
#
# _framework density 21.039189
#
# number of rings (size 3 to 8) (size 9 to 14) (size 15 to 20)
#    0.000    3.000    0.000    2.000    0.000    3.667 
#    0.000    6.667    0.000    1.000    0.000    7.000 
#    0.000    0.000    0.000    0.000    0.000    0.000 
#
# Total GULP energy -267875.217987 kJ/mol
# GULP energy per Si atom -5580.733708 kJ/mol
# Density = 2.099130 g / cm^3
# Si number density = 21.039189 Si / 1000 Ang^3
#
#
#
# Elastic Constant Matrix: (Units=GPa)
#
#
# Indices 1 2 3 4 5 6 
#
# 1 57.7240 -1.2365 3.6559 0.0000 0.0000 0.0000
# 2 -1.2365 220.0707 141.2345 0.0000 0.0000 0.0000
# 3 3.6559 141.2345 154.9476 0.0000 0.0000 0.0000
# 4 0.0000 0.0000 0.0000 41.5892 0.0000 0.0000
# 5 0.0000 0.0000 0.0000 0.0000 2.0550 0.0000
# 6 0.0000 0.0000 0.0000 0.0000 0.0000 37.8119
#
#
#
# Elastic Compliance Matrix: (Units=1/GPa)
#
#
# Indices 1 2 3 4 5 6 
#
# 1 0.017419 0.000871 -0.001205 0.000000 0.000000 0.000000
# 2 0.000871 0.010992 -0.010040 0.000000 0.000000 0.000000
# 3 -0.001205 -0.010040 0.015634 0.000000 0.000000 0.000000
# 4 0.000000 0.000000 0.000000 0.024045 0.000000 0.000000
# 5 0.000000 0.000000 0.000000 0.000000 0.486612 0.000000
# 6 0.000000 0.000000 0.000000 0.000000 0.000000 0.026447
#
#
# Mechanical properties :
#
#
# Convention : Reuss Voigt Hill
#
# Bulk Modulus (GPa) = 42.92399 80.00560 61.46480
# Shear Modulus (GPa) = 8.20127 35.56379 21.88253
#
# Velocity S-wave (km/s) = 1.97650 4.11586 3.22853
# Velocity P-wave (km/s) = 5.06507 7.79080 6.57083
#
# Compressibility (1/GPa) = 0.02329699
#
# Stress axis : x y z
#
# Youngs Moduli (GPa) = 57.40924 90.97349 63.96468
#
# Poissons Ratio (x) = -0.07927 0.07709
# Poissons Ratio (y) = -0.05002 0.64220
# Poissons Ratio (z) = 0.06919 0.91337
#
# Static dielectric constant tensor:
#      x y z
#    x 1.811700 0.000000 0.000000 
#    y 0.000000 1.729780 0.000000 
#    z 0.000000 0.000000 1.746340 
# 
# From -- ./inp_files/14300.got.cif
#   From: 2010.05.17/outbox.cif.g08.bks.cpg/sg65_8_cif.got.tgz:14300.got - 2010.06.03 17:01:31.
