data_PCOD9485721
_publ_section_title
;
Structure prediction by ZEFSAII (Michael W. Deem and Ramdas Pophale) SiO2 
 PCOD9485721
Probable space group: C M M M
;
_chemical_formula_sum "Si O2"
_cell_formula_units_Z 80
_cell_length_a 18.873918
_cell_length_b 7.779550
_cell_length_c 26.668450
_cell_angle_alpha 90.000000
_cell_angle_beta 90.000000
_cell_angle_gamma 90.000000
_cell_volume 3915.744215
_symmetry_space_group_name_H-M "C M M M"
_symmetry_group_IT_number 65
_symmetry_cell_setting 'orthorhombic'
loop_
_space_group_symop_operation_xyz
x,y,z
-x,-y,z
x,-y,-z
-x,y,-z
-x,-y,-z
x,y,-z
-x,y,z
x,-y,z
1/2+x,1/2+y,z
1/2-x,1/2-y,z
1/2+x,1/2-y,-z
1/2-x,1/2+y,-z
1/2-x,1/2-y,-z
1/2+x,1/2+y,-z
1/2-x,1/2+y,z
1/2+x,1/2-y,z
loop_
_atom_site_type_symbol
_atom_site_label
_atom_site_fract_x
_atom_site_fract_y
_atom_site_fract_z
Si Si1 0.080249 0.293700 0.693788
Si Si2 0.918078 0.289407 0.000000
Si Si3 0.581864 0.288766 0.500000
Si Si4 0.167600 0.706907 0.097905
Si Si5 0.417875 0.790300 0.806020
Si Si6 0.332122 0.703229 0.403532
O O1 0.076639 0.500000 0.696649
O O2 0.101071 0.232600 0.749618
O O3 0.133255 0.251348 0.649374
O O4 0.000000 0.230864 0.682928
O O5 0.876611 0.231906 0.049714
O O6 0.917798 0.500000 0.000000
O O7 0.000000 0.235892 0.000000
O O8 0.582406 0.500000 0.500000
O O9 0.500000 0.236074 0.500000
O O10 0.622695 0.226664 0.450352
O O11 0.161523 0.500000 0.098315
O O12 0.250000 0.750000 0.093939
O O13 0.132713 0.771285 0.149633
O O14 0.500000 0.743314 0.815427
O O15 0.415516 0.000000 0.806142
O O16 0.336695 0.500000 0.407420
O O17 0.250000 0.750000 0.406647
#
# Coordination Sequence:
#
# PCOD9485721 Si02
#       6
#    16   8   8  16  16  16
#     4   9  18  34  55  78 104 134 171 213 255 302
#     4   9  17  30  51  75  94 121 168 214 244 285
#     4   9  19  36  57  79 102 131 168 209 254 304
#     4  10  19  31  49  73 101 130 162 203 250 298
#     4   8  15  30  52  74  97 130 170 208 245 289
#     4  11  22  36  55  78 107 139 171 209 253 302
#
# _framework density 20.430344000000002
#
# number of rings (size 3 to 8) (size 9 to 14) (size 15 to 20)
#    0.000    2.600    0.000    3.600    0.000    4.400 
#    0.000    4.500    0.000    7.800    0.000    0.000 
#    0.000    0.000    0.000    0.000    0.000    0.000 
#
# Total GULP energy -223305.568418 kJ/mol
# GULP energy per Si atom -5582.639210 kJ/mol
# Density = 2.038384 g / cm^3
# Si number density = 20.430344 Si / 1000 Ang^3
#
#
#
# Elastic Constant Matrix: (Units=GPa)
#
#
# Indices 1 2 3 4 5 6 
#
# 1 195.8220 3.3117 153.8614 0.0000 0.0000 0.0000
# 2 3.3117 26.0052 11.2526 0.0000 0.0000 0.0000
# 3 153.8614 11.2526 212.5697 0.0000 0.0000 0.0000
# 4 0.0000 0.0000 0.0000 7.7004 0.0000 0.0000
# 5 0.0000 0.0000 0.0000 0.0000 6.5369 0.0000
# 6 0.0000 0.0000 0.0000 0.0000 0.0000 1.0302
#
#
#
# Elastic Compliance Matrix: (Units=1/GPa)
#
#
# Indices 1 2 3 4 5 6 
#
# 1 0.011971 0.002277 -0.008785 0.000000 0.000000 0.000000
# 2 0.002277 0.039788 -0.003754 0.000000 0.000000 0.000000
# 3 -0.008785 -0.003754 0.011262 0.000000 0.000000 0.000000
# 4 0.000000 0.000000 0.000000 0.129864 0.000000 0.000000
# 5 0.000000 0.000000 0.000000 0.000000 0.152977 0.000000
# 6 0.000000 0.000000 0.000000 0.000000 0.000000 0.970658
#
#
# Mechanical properties :
#
#
# Convention : Reuss Voigt Hill
#
# Bulk Modulus (GPa) = 23.53161 85.69425 54.61293
# Shear Modulus (GPa) = 3.70038 20.78492 12.24265
#
# Velocity S-wave (km/s) = 1.34728 3.19306 2.45059
# Velocity P-wave (km/s) = 3.73673 7.45854 5.89886
#
# Compressibility (1/GPa) = 0.04249603
#
# Stress axis : x y z
#
# Youngs Moduli (GPa) = 83.53533 25.13295 88.79388
#
# Poissons Ratio (x) = -0.05723 0.78008
# Poissons Ratio (y) = -0.19021 0.33336
# Poissons Ratio (z) = 0.73388 0.09436
#
# Static dielectric constant tensor:
#      x y z
#    x 1.660810 0.000000 0.000000 
#    y 0.000000 1.758490 0.000000 
#    z 0.000000 0.000000 1.735980 
# 
# From -- ./inp_files/70781.got.cif
#   From: 2010.05.17/outbox.cif.g08.bks.cpg/sg65_36_cif.got.tgz:70781.got - 2010.06.03 17:01:31.
