data_PCOD9485308
_publ_section_title
;
Structure prediction by ZEFSAII (Michael W. Deem and Ramdas Pophale) SiO2 
 PCOD9485308
Probable space group: C M M M
;
_chemical_formula_sum "Si O2"
_cell_formula_units_Z 72
_cell_length_a 8.132861
_cell_length_b 32.145768
_cell_length_c 14.862799
_cell_angle_alpha 90.000000
_cell_angle_beta 90.000000
_cell_angle_gamma 90.000000
_cell_volume 3885.686517
_symmetry_space_group_name_H-M "C M M M"
_symmetry_group_IT_number 65
_symmetry_cell_setting 'orthorhombic'
loop_
_space_group_symop_operation_xyz
x,y,z
-x,-y,z
x,-y,-z
-x,y,-z
-x,-y,-z
x,y,-z
-x,y,z
x,-y,z
1/2+x,1/2+y,z
1/2-x,1/2-y,z
1/2+x,1/2-y,-z
1/2-x,1/2+y,-z
1/2-x,1/2-y,-z
1/2+x,1/2+y,-z
1/2-x,1/2+y,z
1/2+x,1/2-y,z
loop_
_atom_site_type_symbol
_atom_site_label
_atom_site_fract_x
_atom_site_fract_y
_atom_site_fract_z
Si Si1 0.700323 0.046085 0.105072
Si Si2 0.188524 0.000000 0.609285
Si Si3 0.196208 0.203668 0.897660
Si Si4 0.304057 0.090506 0.398731
Si Si5 0.198600 0.625580 0.218123
O O1 0.500000 0.046193 0.108198
O O2 0.758840 0.085352 0.162083
O O3 0.754058 0.000000 0.136333
O O4 0.746051 0.050609 0.000000
O O5 0.273512 0.043188 0.634346
O O6 0.191724 0.000000 0.500000
O O7 0.000000 0.000000 0.638858
O O8 0.250000 0.250000 0.870578
O O9 0.254682 0.167705 0.831603
O O10 0.000000 0.202696 0.900545
O O11 0.259485 0.196366 0.000000
O O12 0.234967 0.095453 0.500000
O O13 0.500000 0.095857 0.405330
O O14 0.241030 0.120720 0.320723
O O15 0.000000 0.623353 0.219870
#
# Coordination Sequence:
#
# PCOD9485308 Si02
#       5
#    16   8  16  16  16
#     4   8  14  24  39  63  95 128 164 204 240 283
#     4   9  17  29  45  65  92 131 178 223 263 300
#     4  10  21  37  57  80 106 132 161 203 255 309
#     4   9  18  31  47  70 101 136 174 218 262 302
#     4  10  19  30  51  76 100 134 174 213 253 303
#
# _framework density 18.529544000000001
#
# number of rings (size 3 to 8) (size 9 to 14) (size 15 to 20)
#    0.000    2.778    0.000    2.333    1.556    4.444 
#    0.000    0.000    0.000    0.667    0.000    3.111 
#    0.000    0.000    0.000    0.000    0.000    0.000 
#
# Total GULP energy -200749.363464 kJ/mol
# GULP energy per Si atom -5576.371207 kJ/mol
# Density = 1.848737 g / cm^3
# Si number density = 18.529544 Si / 1000 Ang^3
#
#
#
# Elastic Constant Matrix: (Units=GPa)
#
#
# Indices 1 2 3 4 5 6 
#
# 1 8.4539 6.1243 12.8197 0.0000 0.0000 0.0000
# 2 6.1243 144.5908 104.2973 0.0000 0.0000 0.0000
# 3 12.8197 104.2973 118.0002 0.0000 0.0000 0.0000
# 4 0.0000 0.0000 0.0000 23.6475 0.0000 0.0000
# 5 0.0000 0.0000 0.0000 0.0000 10.2366 0.0000
# 6 0.0000 0.0000 0.0000 0.0000 0.0000 21.3094
#
#
#
# Elastic Compliance Matrix: (Units=1/GPa)
#
#
# Indices 1 2 3 4 5 6 
#
# 1 0.152816 0.015183 -0.030022 0.000000 0.000000 0.000000
# 2 0.015183 0.020591 -0.019849 0.000000 0.000000 0.000000
# 3 -0.030022 -0.019849 0.029280 0.000000 0.000000 0.000000
# 4 0.000000 0.000000 0.000000 0.042288 0.000000 0.000000
# 5 0.000000 0.000000 0.000000 0.000000 0.097689 0.000000
# 6 0.000000 0.000000 0.000000 0.000000 0.000000 0.046928
#
#
# Mechanical properties :
#
#
# Convention : Reuss Voigt Hill
#
# Bulk Modulus (GPa) = 7.50125 57.50306 32.50215
# Shear Modulus (GPa) = 9.93236 20.89227 15.41231
#
# Velocity S-wave (km/s) = 2.31774 3.36149 2.88717
# Velocity P-wave (km/s) = 3.34957 6.79461 5.35660
#
# Compressibility (1/GPa) = 0.13331108
#
# Stress axis : x y z
#
# Youngs Moduli (GPa) = 6.54380 48.56580 34.15269
#
# Poissons Ratio (x) = -0.73738 1.02534
# Poissons Ratio (y) = -0.09936 0.67790
# Poissons Ratio (z) = 0.19646 0.96398
#
# Static dielectric constant tensor:
#      x y z
#    x 1.654750 0.000000 0.000000 
#    y 0.000000 1.612120 0.000000 
#    z 0.000000 0.000000 1.689880 
# 
# From -- ./inp_files/36979.got.cif
#   From: 2010.05.17/outbox.cif.g08.bks.cpg/sg65_19_cif.got.tgz:36979.got - 2010.06.03 17:01:31.
