data_PCOD9485781
_publ_section_title
;
Structure prediction by ZEFSAII (Michael W. Deem and Ramdas Pophale) SiO2 
 PCOD9485781
Probable space group: C M M M
;
_chemical_formula_sum "Si O2"
_cell_formula_units_Z 72
_cell_length_a 19.267448
_cell_length_b 8.675278
_cell_length_c 24.221130
_cell_angle_alpha 90.000000
_cell_angle_beta 90.000000
_cell_angle_gamma 90.000000
_cell_volume 4048.573209
_symmetry_space_group_name_H-M "C M M M"
_symmetry_group_IT_number 65
_symmetry_cell_setting 'orthorhombic'
loop_
_space_group_symop_operation_xyz
x,y,z
-x,-y,z
x,-y,-z
-x,y,-z
-x,-y,-z
x,y,-z
-x,y,z
x,-y,z
1/2+x,1/2+y,z
1/2-x,1/2-y,z
1/2+x,1/2-y,-z
1/2-x,1/2+y,-z
1/2-x,1/2-y,-z
1/2+x,1/2+y,-z
1/2-x,1/2+y,z
1/2+x,1/2-y,z
loop_
_atom_site_type_symbol
_atom_site_label
_atom_site_fract_x
_atom_site_fract_y
_atom_site_fract_z
Si Si1 0.828579 0.815253 0.560172
Si Si2 0.672654 0.686921 0.000000
Si Si3 0.327803 0.817306 0.673836
Si Si4 0.582349 0.684420 0.227696
Si Si5 0.920329 0.812249 0.102948
O O1 0.859911 0.775062 0.500000
O O2 0.750000 0.750000 0.559188
O O3 0.859341 0.747729 0.616402
O O4 0.826076 0.000000 0.564284
O O5 0.750000 0.750000 0.000000
O O6 0.630666 0.737803 0.945476
O O7 0.674172 0.500000 0.000000
O O8 0.250000 0.750000 0.679843
O O9 0.373393 0.767158 0.725767
O O10 0.322827 0.000000 0.669792
O O11 0.500000 0.711413 0.234783
O O12 0.593725 0.500000 0.231856
O O13 0.600341 0.734038 0.165034
O O14 0.000000 0.763555 0.092675
O O15 0.921028 0.000000 0.102854
#
# Coordination Sequence:
#
# PCOD9485781 Si02
#       5
#    16   8  16  16  16
#     4   9  16  27  45  69  97 128 163 203 247 295
#     4  10  19  31  49  75 105 130 158 198 244 292
#     4  11  21  32  49  73 102 133 167 207 250 296
#     4   9  18  34  54  74  98 129 166 207 252 301
#     4   8  15  30  53  75  93 123 167 206 238 283
#
# _framework density 17.784041999999999
#
# number of rings (size 3 to 8) (size 9 to 14) (size 15 to 20)
#    0.000    2.667    0.000    5.667    0.000    4.000 
#    0.000    3.333    0.000    3.333    0.000    4.667 
#    0.000    0.000    0.000    0.000    0.000    0.000 
#
# Total GULP energy -200645.048836 kJ/mol
# GULP energy per Si atom -5573.473579 kJ/mol
# Density = 1.774357 g / cm^3
# Si number density = 17.784042 Si / 1000 Ang^3
#
#
#
# Elastic Constant Matrix: (Units=GPa)
#
#
# Indices 1 2 3 4 5 6 
#
# 1 54.6216 32.1510 84.7988 0.0000 0.0000 0.0000
# 2 32.1510 64.2069 59.5422 0.0000 0.0000 0.0000
# 3 84.7988 59.5422 207.2011 0.0000 0.0000 0.0000
# 4 0.0000 0.0000 0.0000 18.8951 0.0000 0.0000
# 5 0.0000 0.0000 0.0000 0.0000 160.7460 0.0000
# 6 0.0000 0.0000 0.0000 0.0000 0.0000 22.7754
#
#
#
# Elastic Compliance Matrix: (Units=1/GPa)
#
#
# Indices 1 2 3 4 5 6 
#
# 1 0.053675 -0.008870 -0.019418 0.000000 0.000000 0.000000
# 2 -0.008870 0.022699 -0.002893 0.000000 0.000000 0.000000
# 3 -0.019418 -0.002893 0.013604 0.000000 0.000000 0.000000
# 4 0.000000 0.000000 0.000000 0.052924 0.000000 0.000000
# 5 0.000000 0.000000 0.000000 0.000000 0.006221 0.000000
# 6 0.000000 0.000000 0.000000 0.000000 0.000000 0.043907
#
#
# Mechanical properties :
#
#
# Convention : Reuss Voigt Hill
#
# Bulk Modulus (GPa) = 36.20996 75.44594 55.82795
# Shear Modulus (GPa) = 18.89674 50.45248 34.67461
#
# Velocity S-wave (km/s) = 3.26324 5.33208 4.42040
# Velocity P-wave (km/s) = 5.88247 8.96792 7.58377
#
# Compressibility (1/GPa) = 0.02761671
#
# Stress axis : x y z
#
# Youngs Moduli (GPa) = 18.63081 44.05525 73.50559
#
# Poissons Ratio (x) = 0.39077 1.42732
# Poissons Ratio (y) = 0.16525 0.21263
# Poissons Ratio (z) = 0.36177 0.12744
#
# Static dielectric constant tensor:
#      x y z
#    x 1.578100 0.000000 0.000000 
#    y 0.000000 1.603340 0.000000 
#    z 0.000000 0.000000 1.645780 
# 
# From -- ./inp_files/70309.got.cif
#   From: 2010.05.17/outbox.cif.g08.bks.cpg/sg65_36_cif.got.tgz:70309.got - 2010.06.03 17:01:31.
