data_PCOD9485152
_publ_section_title
;
Structure prediction by ZEFSAII (Michael W. Deem and Ramdas Pophale) SiO2 
 PCOD9485152
Probable space group: C M M M
;
_chemical_formula_sum "Si O2"
_cell_formula_units_Z 100
_cell_length_a 18.564933
_cell_length_b 24.400166
_cell_length_c 14.457448
_cell_angle_alpha 90.000000
_cell_angle_beta 90.000000
_cell_angle_gamma 90.000000
_cell_volume 6549.042459
_symmetry_space_group_name_H-M "C M M M"
_symmetry_group_IT_number 65
_symmetry_cell_setting 'orthorhombic'
loop_
_space_group_symop_operation_xyz
x,y,z
-x,-y,z
x,-y,-z
-x,y,-z
-x,-y,-z
x,y,-z
-x,y,z
x,-y,z
1/2+x,1/2+y,z
1/2-x,1/2-y,z
1/2+x,1/2-y,-z
1/2-x,1/2+y,-z
1/2-x,1/2-y,-z
1/2+x,1/2+y,-z
1/2-x,1/2+y,z
1/2+x,1/2-y,z
loop_
_atom_site_type_symbol
_atom_site_label
_atom_site_fract_x
_atom_site_fract_y
_atom_site_fract_z
Si Si1 0.358480 0.000000 0.110522
Si Si2 0.917269 0.708488 0.895276
Si Si3 0.295147 0.881354 0.892119
Si Si4 0.000000 0.500000 0.762733
Si Si5 0.000000 0.408787 0.606086
Si Si6 0.767453 0.814928 0.734718
Si Si7 0.869079 0.675449 0.607014
Si Si8 0.581413 0.280711 0.714701
O O1 0.314450 0.055849 0.129622
O O2 0.430144 0.000000 0.171846
O O3 0.375654 0.000000 0.000000
O O4 0.865880 0.656894 0.878695
O O5 0.908714 0.754780 0.817714
O O6 0.000000 0.689870 0.889940
O O7 0.903468 0.728612 0.000000
O O8 0.238766 0.852250 0.825208
O O9 0.274921 0.878103 0.000000
O O10 0.000000 0.550448 0.691665
O O11 0.927950 0.372275 0.614565
O O12 0.000000 0.431409 0.500000
O O13 0.750000 0.750000 0.753386
O O14 0.703823 0.833055 0.665380
O O15 0.848815 0.817931 0.697453
O O16 0.850393 0.683249 0.500000
O O17 0.908231 0.729282 0.646660
O O18 0.500000 0.302589 0.707054
#
# Coordination Sequence:
#
# PCOD9485152 Si02
#       8
#     8  16  16   4   8  16  16  16
#     4  10  23  33  43  68  96 131 166 196 236 280
#     4   9  17  27  42  62  91 123 149 187 226 268
#     4  10  19  32  46  64  93 124 161 194 228 278
#     4  12  22  28  52  66  96 126 164 220 230 246
#     4  10  21  35  49  68  91 129 172 198 232 272
#     4  10  19  31  46  71  91 119 159 196 238 288
#     4  10  19  32  47  62  92 130 161 190 227 280
#     4  10  19  30  47  67  94 117 153 193 238 291
#
# _framework density 15.269408
#
# number of rings (size 3 to 8) (size 9 to 14) (size 15 to 20)
#    0.000    2.080    4.000    1.200    1.120    3.840 
#    0.000    0.000    0.000    0.000    0.000    0.560 
#    0.000    1.920    0.000    0.000    0.000   25.920 
#
# Total GULP energy -278575.695647 kJ/mol
# GULP energy per Si atom -5571.513913 kJ/mol
# Density = 1.523465 g / cm^3
# Si number density = 15.269408 Si / 1000 Ang^3
#
#
#
# Elastic Constant Matrix: (Units=GPa)
#
#
# Indices 1 2 3 4 5 6 
#
# 1 99.6934 17.8775 26.8713 0.0000 0.0000 0.0000
# 2 17.8775 36.2509 31.1052 0.0000 0.0000 0.0000
# 3 26.8713 31.1052 68.6851 0.0000 0.0000 0.0000
# 4 0.0000 0.0000 0.0000 31.7666 0.0000 0.0000
# 5 0.0000 0.0000 0.0000 0.0000 35.5769 0.0000
# 6 0.0000 0.0000 0.0000 0.0000 0.0000 18.0552
#
#
#
# Elastic Compliance Matrix: (Units=1/GPa)
#
#
# Indices 1 2 3 4 5 6 
#
# 1 0.011401 -0.002936 -0.003131 0.000000 0.000000 0.000000
# 2 -0.002936 0.045874 -0.019626 0.000000 0.000000 0.000000
# 3 -0.003131 -0.019626 0.024672 0.000000 0.000000 0.000000
# 4 0.000000 0.000000 0.000000 0.031480 0.000000 0.000000
# 5 0.000000 0.000000 0.000000 0.000000 0.028108 0.000000
# 6 0.000000 0.000000 0.000000 0.000000 0.000000 0.055386
#
#
# Mechanical properties :
#
#
# Convention : Reuss Voigt Hill
#
# Bulk Modulus (GPa) = 32.72145 39.59303 36.15724
# Shear Modulus (GPa) = 19.34288 25.66476 22.50382
#
# Velocity S-wave (km/s) = 3.56304 4.10420 3.84316
# Velocity P-wave (km/s) = 6.19701 6.96026 6.58969
#
# Compressibility (1/GPa) = 0.03056100
#
# Stress axis : x y z
#
# Youngs Moduli (GPa) = 87.71048 21.79898 40.53192
#
# Poissons Ratio (x) = 0.06401 0.12689
# Poissons Ratio (y) = 0.25755 0.79548
# Poissons Ratio (z) = 0.27459 0.42782
#
# Static dielectric constant tensor:
#      x y z
#    x 1.526320 0.000000 0.000000 
#    y 0.000000 1.490470 0.000000 
#    z 0.000000 0.000000 1.535530 
# 
# From -- ./inp_files/42908.got.cif
#   From: 2010.05.17/outbox.cif.g08.bks.cpg/sg65_22_cif.got.tgz:42908.got - 2010.06.03 17:01:31.
