data_PCOD9485591
_publ_section_title
;
Structure prediction by ZEFSAII (Michael W. Deem and Ramdas Pophale) SiO2 
 PCOD9485591
Probable space group: C M M M
;
_chemical_formula_sum "Si O2"
_cell_formula_units_Z 104
_cell_length_a 29.150665
_cell_length_b 14.857992
_cell_length_c 14.298367
_cell_angle_alpha 90.000000
_cell_angle_beta 90.000000
_cell_angle_gamma 90.000000
_cell_volume 6192.913682
_symmetry_space_group_name_H-M "C M M M"
_symmetry_group_IT_number 65
_symmetry_cell_setting 'orthorhombic'
loop_
_space_group_symop_operation_xyz
x,y,z
-x,-y,z
x,-y,-z
-x,y,-z
-x,-y,-z
x,y,-z
-x,y,z
x,-y,z
1/2+x,1/2+y,z
1/2-x,1/2-y,z
1/2+x,1/2-y,-z
1/2-x,1/2+y,-z
1/2-x,1/2-y,-z
1/2+x,1/2+y,-z
1/2-x,1/2+y,z
1/2+x,1/2-y,z
loop_
_atom_site_type_symbol
_atom_site_label
_atom_site_fract_x
_atom_site_fract_y
_atom_site_fract_z
Si Si1 0.553048 0.106738 0.251794
Si Si2 0.000000 0.891014 0.893468
Si Si3 0.867911 0.391211 0.892699
Si Si4 0.945396 0.766349 0.608111
Si Si5 0.412151 0.390858 0.232407
Si Si6 0.767123 0.647982 0.106808
Si Si7 0.830305 0.103112 0.893685
O O1 0.500000 0.119778 0.221271
O O2 0.589394 0.133687 0.172253
O O3 0.560724 0.170033 0.341256
O O4 0.558772 0.000000 0.271677
O O5 0.954966 0.866716 0.834791
O O6 0.000000 0.000000 0.898926
O O7 0.000000 0.856693 0.000000
O O8 0.866671 0.500000 0.895379
O O9 0.818071 0.361067 0.853801
O O10 0.873264 0.358686 0.000000
O O11 0.931431 0.764840 0.500000
O O12 0.919696 0.840468 0.670282
O O13 0.000000 0.786632 0.611883
O O14 0.411509 0.500000 0.244930
O O15 0.366698 0.357690 0.178139
O O16 0.750000 0.750000 0.104834
O O17 0.721481 0.601541 0.145044
O O18 0.772008 0.613520 0.000000
O O19 0.845244 0.000000 0.904582
O O20 0.830276 0.142719 0.000000
#
# Coordination Sequence:
#
# PCOD9485591 Si02
#       7
#    16   8  16  16  16  16  16
#     4   9  19  35  54  76 101 129 165 208 254 306
#     4   9  16  28  45  67 100 135 165 195 229 279
#     4   9  17  30  49  72 102 138 168 199 243 297
#     4  10  21  36  53  72  97 128 165 213 259 299
#     4  10  19  31  48  72 100 133 168 201 244 297
#     4   9  17  27  41  67  99 133 170 205 237 277
#     4   9  17  29  45  66  97 135 169 202 239 284
#
# _framework density 16.793388
#
# number of rings (size 3 to 8) (size 9 to 14) (size 15 to 20)
#    0.000    2.692    0.769    0.923    2.154    4.615 
#    0.000    4.615    0.000    0.000    0.000    2.154 
#    0.000    4.923    0.000    0.000    0.000    0.000 
#
# Total GULP energy -289605.168471 kJ/mol
# GULP energy per Si atom -5569.330163 kJ/mol
# Density = 1.675517 g / cm^3
# Si number density = 16.793388 Si / 1000 Ang^3
#
#
#
# Elastic Constant Matrix: (Units=GPa)
#
#
# Indices 1 2 3 4 5 6 
#
# 1 127.1271 33.8868 77.3210 0.0000 0.0000 0.0000
# 2 33.8868 51.6365 34.5094 0.0000 0.0000 0.0000
# 3 77.3210 34.5094 116.1089 0.0000 0.0000 0.0000
# 4 0.0000 0.0000 0.0000 20.7866 0.0000 0.0000
# 5 0.0000 0.0000 0.0000 0.0000 6.2842 0.0000
# 6 0.0000 0.0000 0.0000 0.0000 0.0000 19.6627
#
#
#
# Elastic Compliance Matrix: (Units=1/GPa)
#
#
# Indices 1 2 3 4 5 6 
#
# 1 0.013743 -0.003622 -0.008076 0.000000 0.000000 0.000000
# 2 -0.003622 0.025121 -0.005054 0.000000 0.000000 0.000000
# 3 -0.008076 -0.005054 0.015493 0.000000 0.000000 0.000000
# 4 0.000000 0.000000 0.000000 0.048108 0.000000 0.000000
# 5 0.000000 0.000000 0.000000 0.000000 0.159130 0.000000
# 6 0.000000 0.000000 0.000000 0.000000 0.000000 0.050858
#
#
# Mechanical properties :
#
#
# Convention : Reuss Voigt Hill
#
# Bulk Modulus (GPa) = 47.95474 65.14522 56.54998
# Shear Modulus (GPa) = 14.16800 19.29038 16.72919
#
# Velocity S-wave (km/s) = 2.90774 3.39291 3.15965
# Velocity P-wave (km/s) = 6.31593 7.36380 6.85990
#
# Compressibility (1/GPa) = 0.02085300
#
# Stress axis : x y z
#
# Youngs Moduli (GPa) = 72.76209 39.80727 64.54661
#
# Poissons Ratio (x) = 0.14419 0.52126
# Poissons Ratio (y) = 0.26355 0.32624
# Poissons Ratio (z) = 0.58760 0.20120
#
# Static dielectric constant tensor:
#      x y z
#    x 1.595950 0.000000 0.000000 
#    y 0.000000 1.657790 0.000000 
#    z 0.000000 0.000000 1.538450 
# 
# From -- ./inp_files/34126.got.cif
#   From: 2010.05.17/outbox.cif.g08.bks.cpg/sg65_18_cif.got.tgz:34126.got - 2010.06.03 17:01:31.
