data_PCOD9485107
_publ_section_title
;
Structure prediction by ZEFSAII (Michael W. Deem and Ramdas Pophale) SiO2 
 PCOD9485107
Probable space group: C M M M
;
_chemical_formula_sum "Si O2"
_cell_formula_units_Z 104
_cell_length_a 24.013828
_cell_length_b 8.619508
_cell_length_c 29.107406
_cell_angle_alpha 90.000000
_cell_angle_beta 90.000000
_cell_angle_gamma 90.000000
_cell_volume 6024.865781
_symmetry_space_group_name_H-M "C M M M"
_symmetry_group_IT_number 65
_symmetry_cell_setting 'orthorhombic'
loop_
_space_group_symop_operation_xyz
x,y,z
-x,-y,z
x,-y,-z
-x,y,-z
-x,-y,-z
x,y,-z
-x,y,z
x,-y,z
1/2+x,1/2+y,z
1/2-x,1/2-y,z
1/2+x,1/2-y,-z
1/2-x,1/2+y,-z
1/2-x,1/2-y,-z
1/2+x,1/2+y,-z
1/2-x,1/2+y,z
1/2+x,1/2-y,z
loop_
_atom_site_type_symbol
_atom_site_label
_atom_site_fract_x
_atom_site_fract_y
_atom_site_fract_z
Si Si1 0.000000 0.319070 0.666889
Si Si2 0.812351 0.687698 0.641273
Si Si3 0.567832 0.819905 0.000000
Si Si4 0.000000 0.819368 0.568394
Si Si5 0.393500 0.315921 0.716321
Si Si6 0.567577 0.322602 0.903675
Si Si7 0.620608 0.186584 0.549785
Si Si8 0.065759 0.683849 0.806617
O O1 0.000000 0.210297 0.622751
O O2 0.945602 0.278562 0.695610
O O3 0.000000 0.500000 0.653152
O O4 0.813407 0.500000 0.643700
O O5 0.750000 0.750000 0.637211
O O6 0.841324 0.758232 0.686534
O O7 0.846918 0.737811 0.595585
O O8 0.587174 0.741271 0.047242
O O9 0.500000 0.810775 0.000000
O O10 0.582741 0.000000 0.000000
O O11 0.057023 0.742884 0.551591
O O12 0.000000 0.000000 0.557187
O O13 0.400871 0.500000 0.710292
O O14 0.396301 0.273130 0.769974
O O15 0.500000 0.320361 0.905679
O O16 0.585101 0.500000 0.897182
O O17 0.582144 0.223381 0.858847
O O18 0.644614 0.236028 0.500000
O O19 0.620741 0.000000 0.550977
O O20 0.069064 0.500000 0.798586
O O21 0.000000 0.729710 0.800890
#
# Coordination Sequence:
#
# PCOD9485107 Si02
#       8
#     8  16   8   8  16  16  16  16
#     4  12  22  35  55  80 108 140 171 208 259 316
#     4  11  24  42  62  81 106 138 177 217 259 310
#     4   9  15  23  35  51  77 119 170 215 258 305
#     4  12  23  35  56  87 116 142 173 213 255 302
#     4  12  23  36  56  81 107 135 172 216 263 315
#     4   9  16  25  37  56  85 122 168 216 259 302
#     4  10  22  40  61  83 111 146 176 208 257 311
#     4  10  19  30  46  69 100 134 169 210 262 315
#
# _framework density 17.261793999999998
#
# number of rings (size 3 to 8) (size 9 to 14) (size 15 to 20)
#    0.000    1.462    2.308    4.615    0.000    5.538 
#    0.000    0.000    0.000    0.000    0.000    0.000 
#    0.000    0.000    0.000    0.692    0.000    9.769 
#
# Total GULP energy -290224.322162 kJ/mol
# GULP energy per Si atom -5581.236965 kJ/mol
# Density = 1.722251 g / cm^3
# Si number density = 17.261794 Si / 1000 Ang^3
#
#
#
# Elastic Constant Matrix: (Units=GPa)
#
#
# Indices 1 2 3 4 5 6 
#
# 1 69.9269 15.4855 35.4625 0.0000 0.0000 0.0000
# 2 15.4855 56.8360 24.1950 0.0000 0.0000 0.0000
# 3 35.4625 24.1950 131.7982 0.0000 0.0000 0.0000
# 4 0.0000 0.0000 0.0000 17.1374 0.0000 0.0000
# 5 0.0000 0.0000 0.0000 0.0000 4.1390 0.0000
# 6 0.0000 0.0000 0.0000 0.0000 0.0000 13.4085
#
#
#
# Elastic Compliance Matrix: (Units=1/GPa)
#
#
# Indices 1 2 3 4 5 6 
#
# 1 0.016993 -0.002911 -0.004038 0.000000 0.000000 0.000000
# 2 -0.002911 0.019585 -0.002812 0.000000 0.000000 0.000000
# 3 -0.004038 -0.002812 0.009190 0.000000 0.000000 0.000000
# 4 0.000000 0.000000 0.000000 0.058352 0.000000 0.000000
# 5 0.000000 0.000000 0.000000 0.000000 0.241603 0.000000
# 6 0.000000 0.000000 0.000000 0.000000 0.000000 0.074580
#
#
# Mechanical properties :
#
#
# Convention : Reuss Voigt Hill
#
# Bulk Modulus (GPa) = 38.10108 45.42746 41.76427
# Shear Modulus (GPa) = 11.14646 19.16485 15.15566
#
# Velocity S-wave (km/s) = 2.54388 3.33565 2.96630
# Velocity P-wave (km/s) = 5.54516 6.41945 5.99826
#
# Compressibility (1/GPa) = 0.02624597
#
# Stress axis : x y z
#
# Youngs Moduli (GPa) = 58.84756 51.06030 108.81354
#
# Poissons Ratio (x) = 0.14864 0.43938
# Poissons Ratio (y) = 0.17131 0.30599
# Poissons Ratio (z) = 0.23762 0.14358
#
# Static dielectric constant tensor:
#      x y z
#    x 1.556490 0.000000 0.000000 
#    y 0.000000 1.582230 0.000000 
#    z 0.000000 0.000000 1.629750 
# 
# From -- ./inp_files/75847.got.cif
#   From: 2010.05.17/outbox.cif.g08.bks.cpg/sg65_38_cif.got.tgz:75847.got - 2010.06.03 17:01:31.
