data_PCOD9485464
_publ_section_title
;
Structure prediction by ZEFSAII (Michael W. Deem and Ramdas Pophale) SiO2 
 PCOD9485464
Probable space group: C M M M
;
_chemical_formula_sum "Si O2"
_cell_formula_units_Z 120
_cell_length_a 7.686042
_cell_length_b 28.651548
_cell_length_c 27.260503
_cell_angle_alpha 90.000000
_cell_angle_beta 90.000000
_cell_angle_gamma 90.000000
_cell_volume 6003.226224
_symmetry_space_group_name_H-M "C M M M"
_symmetry_group_IT_number 65
_symmetry_cell_setting 'orthorhombic'
loop_
_space_group_symop_operation_xyz
x,y,z
-x,-y,z
x,-y,-z
-x,y,-z
-x,-y,-z
x,y,-z
-x,y,z
x,-y,z
1/2+x,1/2+y,z
1/2-x,1/2-y,z
1/2+x,1/2-y,-z
1/2-x,1/2+y,-z
1/2-x,1/2-y,-z
1/2+x,1/2+y,-z
1/2-x,1/2+y,z
1/2+x,1/2-y,z
loop_
_atom_site_type_symbol
_atom_site_label
_atom_site_fract_x
_atom_site_fract_y
_atom_site_fract_z
Si Si1 0.290424 0.304389 0.500000
Si Si2 0.206368 0.550996 0.558615
Si Si3 0.803917 0.623713 0.868485
Si Si4 0.704544 0.303496 0.791678
Si Si5 0.196232 0.146439 0.597867
Si Si6 0.708658 0.053595 0.786416
Si Si7 0.209772 0.697657 0.056428
Si Si8 0.792747 0.129835 0.704828
O O1 0.500000 0.312521 0.500000
O O2 0.250000 0.250000 0.500000
O O3 0.222884 0.327008 0.550928
O O4 0.227093 0.551853 0.500000
O O5 0.259274 0.500000 0.576761
O O6 0.309631 0.593003 0.581062
O O7 0.000000 0.556906 0.568480
O O8 0.810758 0.666083 0.829873
O O9 0.724660 0.582068 0.834835
O O10 0.722634 0.652040 0.914306
O O11 0.000000 0.608835 0.882568
O O12 0.500000 0.310569 0.802320
O O13 0.750000 0.250000 0.793835
O O14 0.741040 0.325766 0.739022
O O15 0.282139 0.141939 0.651332
O O16 0.000000 0.165947 0.603976
O O17 0.500000 0.052055 0.791842
O O18 0.740284 0.084757 0.737495
O O19 0.771847 0.000000 0.783066
O O20 0.250000 0.750000 0.076583
O O21 0.000000 0.694194 0.057002
O O22 0.270790 0.697024 0.000000
O O23 0.000000 0.124353 0.698135
#
# Coordination Sequence:
#
# PCOD9485464 Si02
#       8
#     8  16  16  16  16  16  16  16
#     4  10  22  38  55  74  95 123 160 197 231 274
#     4   9  18  32  50  73  98 121 147 181 223 272
#     4   9  17  30  48  69  94 127 164 200 240 287
#     4  10  19  31  47  68  94 123 155 194 238 285
#     4  10  20  36  54  73  97 125 157 194 233 279
#     4   9  18  33  52  73  97 126 162 202 243 288
#     4   9  17  28  43  66  97 131 165 202 244 289
#     4   9  20  35  50  70  97 125 155 193 238 285
#
# _framework density 19.989253000000001
#
# number of rings (size 3 to 8) (size 9 to 14) (size 15 to 20)
#    0.000    2.667    0.667    1.200    0.000    4.800 
#    0.000    3.333    0.000    0.400    0.000    2.800 
#    0.000    0.000    0.000   10.000    0.000   10.400 
#
# Total GULP energy -334082.778138 kJ/mol
# GULP energy per Si atom -5568.046302 kJ/mol
# Density = 1.994376 g / cm^3
# Si number density = 19.989253 Si / 1000 Ang^3
#
#
#
# Elastic Constant Matrix: (Units=GPa)
#
#
# Indices 1 2 3 4 5 6 
#
# 1 28.6574 -7.0377 10.5093 0.0000 0.0000 0.0000
# 2 -7.0377 91.1210 40.5108 0.0000 0.0000 0.0000
# 3 10.5093 40.5108 104.7952 0.0000 0.0000 0.0000
# 4 0.0000 0.0000 0.0000 -5.7670 0.0000 0.0000
# 5 0.0000 0.0000 0.0000 0.0000 19.7241 0.0000
# 6 0.0000 0.0000 0.0000 0.0000 0.0000 18.0432
#
#
#
# Elastic Compliance Matrix: (Units=1/GPa)
#
#
# Indices 1 2 3 4 5 6 
#
# 1 0.038505 0.005664 -0.006051 0.000000 0.000000 0.000000
# 2 0.005664 0.014085 -0.006013 0.000000 0.000000 0.000000
# 3 -0.006051 -0.006013 0.012474 0.000000 0.000000 0.000000
# 4 0.000000 0.000000 0.000000 -0.173401 0.000000 0.000000
# 5 0.000000 0.000000 0.000000 0.000000 0.050699 0.000000
# 6 0.000000 0.000000 0.000000 0.000000 0.000000 0.055423
#
#
# Mechanical properties :
#
#
# Convention : Reuss Voigt Hill
#
# Bulk Modulus (GPa) = 19.13358 34.72650 26.93004
# Shear Modulus (GPa) = 178.53373 18.43946 98.48659
#
# Velocity S-wave (km/s) = 9.46091 3.04051 7.02686
# Velocity P-wave (km/s) = 11.35507 5.45313 8.90714
#
# Compressibility (1/GPa) = 0.05226413
#
# Stress axis : x y z
#
# Youngs Moduli (GPa) = 25.97062 70.99685 80.16884
#
# Poissons Ratio (x) = -0.40213 0.48510
# Poissons Ratio (y) = -0.14710 0.48205
# Poissons Ratio (z) = 0.15715 0.42690
#
# Static dielectric constant tensor:
#      x y z
#    x 1.795930 0.000000 0.000000 
#    y 0.000000 1.690260 0.000000 
#    z 0.000000 0.000000 1.772730 
# 
# From -- ./inp_files/73911.got.cif
#   From: 2010.05.17/outbox.cif.g08.bks.cpg/sg65_37_cif.got.tgz:73911.got - 2010.06.03 17:01:31.
