data_PCOD9485006
_publ_section_title
;
Structure prediction by ZEFSAII (Michael W. Deem and Ramdas Pophale) SiO2 
 PCOD9485006
Probable space group: C M M M
;
_chemical_formula_sum "Si O2"
_cell_formula_units_Z 80
_cell_length_a 28.018150
_cell_length_b 7.765012
_cell_length_c 19.618489
_cell_angle_alpha 90.000000
_cell_angle_beta 90.000000
_cell_angle_gamma 90.000000
_cell_volume 4268.223401
_symmetry_space_group_name_H-M "C M M M"
_symmetry_group_IT_number 65
_symmetry_cell_setting 'orthorhombic'
loop_
_space_group_symop_operation_xyz
x,y,z
-x,-y,z
x,-y,-z
-x,y,-z
-x,-y,-z
x,y,-z
-x,y,z
x,-y,z
1/2+x,1/2+y,z
1/2-x,1/2-y,z
1/2+x,1/2-y,-z
1/2-x,1/2+y,-z
1/2-x,1/2-y,-z
1/2+x,1/2+y,-z
1/2-x,1/2+y,z
1/2+x,1/2-y,z
loop_
_atom_site_type_symbol
_atom_site_label
_atom_site_fract_x
_atom_site_fract_y
_atom_site_fract_z
Si Si1 0.695515 0.794409 0.353361
Si Si2 0.399342 0.296373 0.425171
Si Si3 0.694250 0.792413 0.075383
Si Si4 0.851184 0.294373 0.213686
Si Si5 0.446408 0.291583 0.286240
O O1 0.750000 0.750000 0.368389
O O2 0.656271 0.724496 0.405759
O O3 0.680049 0.728493 0.277947
O O4 0.690552 0.000000 0.353532
O O5 0.409355 0.222717 0.500000
O O6 0.409713 0.500000 0.428003
O O7 0.428831 0.226889 0.360612
O O8 0.750000 0.750000 0.084742
O O9 0.665461 0.725426 0.140678
O O10 0.689622 0.000000 0.074078
O O11 0.679903 0.728032 0.000000
O O12 0.844036 0.500000 0.212006
O O13 0.905969 0.260433 0.232669
O O14 0.500000 0.233017 0.271334
O O15 0.446519 0.500000 0.288483
#
# Coordination Sequence:
#
# PCOD9485006 Si02
#       5
#    16  16  16  16  16
#     4  10  19  30  45  65  90 120 153 186 220 262
#     4   9  18  32  48  66  89 116 146 182 226 274
#     4   9  17  29  46  70  99 127 154 184 219 261
#     4   9  18  31  47  68  93 121 152 186 223 265
#     4   9  18  32  50  71  91 113 146 188 231 272
#
# _framework density 18.743162000000002
#
# number of rings (size 3 to 8) (size 9 to 14) (size 15 to 20)
#    0.000    2.800    0.000    1.200    0.000    3.200 
#    0.000    2.000    0.000    0.600    0.000    9.800 
#    0.000    0.000    0.000    0.000    0.000    0.000 
#
# Total GULP energy -223031.633204 kJ/mol
# GULP energy per Si atom -5575.790830 kJ/mol
# Density = 1.870050 g / cm^3
# Si number density = 18.743162 Si / 1000 Ang^3
#
#
#
# Elastic Constant Matrix: (Units=GPa)
#
#
# Indices 1 2 3 4 5 6 
#
# 1 51.3228 -19.1432 26.2683 0.0000 0.0000 0.0000
# 2 -19.1432 23.6167 1.9457 0.0000 0.0000 0.0000
# 3 26.2683 1.9457 131.0793 0.0000 0.0000 0.0000
# 4 0.0000 0.0000 0.0000 9.7045 0.0000 0.0000
# 5 0.0000 0.0000 0.0000 0.0000 143.3576 0.0000
# 6 0.0000 0.0000 0.0000 0.0000 0.0000 20.7722
#
#
#
# Elastic Compliance Matrix: (Units=1/GPa)
#
#
# Indices 1 2 3 4 5 6 
#
# 1 0.033464 0.027711 -0.007117 0.000000 0.000000 0.000000
# 2 0.027711 0.065342 -0.006523 0.000000 0.000000 0.000000
# 3 -0.007117 -0.006523 0.009152 0.000000 0.000000 0.000000
# 4 0.000000 0.000000 0.000000 0.103045 0.000000 0.000000
# 5 0.000000 0.000000 0.000000 0.000000 0.006976 0.000000
# 6 0.000000 0.000000 0.000000 0.000000 0.000000 0.048141
#
#
# Mechanical properties :
#
#
# Convention : Reuss Voigt Hill
#
# Bulk Modulus (GPa) = 7.34761 24.90672 16.12717
# Shear Modulus (GPa) = 17.64632 47.89672 32.77152
#
# Velocity S-wave (km/s) = 3.07168 5.06060 4.18599
# Velocity P-wave (km/s) = 4.06313 6.88938 5.65564
#
# Compressibility (1/GPa) = 0.13609867
#
# Stress axis : x y z
#
# Youngs Moduli (GPa) = 29.88330 15.30405 109.26415
#
# Poissons Ratio (x) = -0.42409 0.77768
# Poissons Ratio (y) = -0.82810 0.71276
# Poissons Ratio (z) = 0.21269 0.09983
#
# Static dielectric constant tensor:
#      x y z
#    x 1.616500 0.000000 0.000000 
#    y 0.000000 1.694600 0.000000 
#    z 0.000000 0.000000 1.680080 
# 
# From -- ./inp_files/45340.got.cif
#   From: 2010.05.17/outbox.cif.g08.bks.cpg/sg65_23_cif.got.tgz:45340.got - 2010.06.03 17:01:31.
