data_PCOD9485787
_publ_section_title
;
Structure prediction by ZEFSAII (Michael W. Deem and Ramdas Pophale) SiO2 
 PCOD9485787
Probable space group: C M M M
;
_chemical_formula_sum "Si O2"
_cell_formula_units_Z 72
_cell_length_a 31.946638
_cell_length_b 13.218725
_cell_length_c 8.898881
_cell_angle_alpha 90.000000
_cell_angle_beta 90.000000
_cell_angle_gamma 90.000000
_cell_volume 3757.942473
_symmetry_space_group_name_H-M "C M M M"
_symmetry_group_IT_number 65
_symmetry_cell_setting 'orthorhombic'
loop_
_space_group_symop_operation_xyz
x,y,z
-x,-y,z
x,-y,-z
-x,y,-z
-x,-y,-z
x,y,-z
-x,y,z
x,-y,z
1/2+x,1/2+y,z
1/2-x,1/2-y,z
1/2+x,1/2-y,-z
1/2-x,1/2+y,-z
1/2-x,1/2-y,-z
1/2+x,1/2+y,-z
1/2-x,1/2+y,z
1/2+x,1/2-y,z
loop_
_atom_site_type_symbol
_atom_site_label
_atom_site_fract_x
_atom_site_fract_y
_atom_site_fract_z
Si Si1 0.721554 0.122452 0.670568
Si Si2 0.548006 0.500000 0.316980
Si Si3 0.106064 0.186923 0.320018
Si Si4 0.867396 0.383183 0.820496
Si Si5 0.192331 0.121402 0.171081
O O1 0.716530 0.160025 0.500000
O O2 0.679863 0.143064 0.766163
O O3 0.765388 0.153048 0.744841
O O4 0.723473 0.000000 0.663161
O O5 0.500000 0.500000 0.266615
O O6 0.548292 0.500000 0.500000
O O7 0.572561 0.601924 0.270957
O O8 0.105560 0.193046 0.500000
O O9 0.102402 0.299187 0.251303
O O10 0.151003 0.148195 0.262758
O O11 0.875702 0.500000 0.774679
O O12 0.869249 0.378105 0.000000
O O13 0.193890 0.000000 0.161752
O O14 0.190607 0.160796 0.000000
#
# Coordination Sequence:
#
# PCOD9485787 Si02
#       5
#    16   8  16  16  16
#     4   9  17  30  49  74 107 148 196 244 284 324
#     4   9  20  40  65  93 121 145 175 227 295 355
#     4  11  21  35  59  86 112 144 186 233 284 342
#     4  10  21  37  55  78 113 154 195 235 280 332
#     4  10  19  31  49  75 112 152 191 235 285 339
#
# _framework density 19.159421999999999
#
# number of rings (size 3 to 8) (size 9 to 14) (size 15 to 20)
#    0.000    2.111    1.111    2.667    0.000    5.778 
#    0.000    4.444    0.000    6.000    0.000    4.667 
#    0.000    0.000    0.000    0.000    0.000    0.000 
#
# Total GULP energy -201094.460162 kJ/mol
# GULP energy per Si atom -5585.957227 kJ/mol
# Density = 1.911581 g / cm^3
# Si number density = 19.159422 Si / 1000 Ang^3
#
#
#
# Elastic Constant Matrix: (Units=GPa)
#
#
# Indices 1 2 3 4 5 6 
#
# 1 100.8752 80.7968 34.2241 0.0000 0.0000 0.0000
# 2 80.7968 143.0644 45.3848 0.0000 0.0000 0.0000
# 3 34.2241 45.3848 83.8845 0.0000 0.0000 0.0000
# 4 0.0000 0.0000 0.0000 32.2684 0.0000 0.0000
# 5 0.0000 0.0000 0.0000 0.0000 -38.8448 0.0000
# 6 0.0000 0.0000 0.0000 0.0000 0.0000 18.7983
#
#
#
# Elastic Compliance Matrix: (Units=1/GPa)
#
#
# Indices 1 2 3 4 5 6 
#
# 1 0.018456 -0.009699 -0.002282 0.000000 0.000000 0.000000
# 2 -0.009699 0.013535 -0.003366 0.000000 0.000000 0.000000
# 3 -0.002282 -0.003366 0.014673 0.000000 0.000000 0.000000
# 4 0.000000 0.000000 0.000000 0.030990 0.000000 0.000000
# 5 0.000000 0.000000 0.000000 0.000000 -0.025743 0.000000
# 6 0.000000 0.000000 0.000000 0.000000 0.000000 0.053196
#
#
# Mechanical properties :
#
#
# Convention : Reuss Voigt Hill
#
# Bulk Modulus (GPa) = 62.61736 72.07061 67.34398
# Shear Modulus (GPa) = 35.42921 13.60561 24.51741
#
# Velocity S-wave (km/s) = 4.30487 2.66771 3.58110
# Velocity P-wave (km/s) = 7.58040 6.86927 7.23358
#
# Compressibility (1/GPa) = 0.01597001
#
# Stress axis : x y z
#
# Youngs Moduli (GPa) = 54.18200 73.88009 68.15040
#
# Poissons Ratio (x) = 0.71659 0.15554
# Poissons Ratio (y) = 0.52553 0.22939
# Poissons Ratio (z) = 0.12366 0.24868
#
# Static dielectric constant tensor:
#      x y z
#    x 1.610530 0.000000 0.000000 
#    y 0.000000 1.772270 0.000000 
#    z 0.000000 0.000000 1.658260 
# 
# From -- ./inp_files/15780.got.cif
#   From: 2010.05.17/outbox.cif.g08.bks.cpg/sg65_8_cif.got.tgz:15780.got - 2010.06.03 17:01:31.
