data_PCOD9485502
_publ_section_title
;
Structure prediction by ZEFSAII (Michael W. Deem and Ramdas Pophale) SiO2 
 PCOD9485502
Probable space group: C M M M
;
_chemical_formula_sum "Si O2"
_cell_formula_units_Z 104
_cell_length_a 34.041793
_cell_length_b 22.803001
_cell_length_c 7.889681
_cell_angle_alpha 90.000000
_cell_angle_beta 90.000000
_cell_angle_gamma 90.000000
_cell_volume 6124.404639
_symmetry_space_group_name_H-M "C M M M"
_symmetry_group_IT_number 65
_symmetry_cell_setting 'orthorhombic'
loop_
_space_group_symop_operation_xyz
x,y,z
-x,-y,z
x,-y,-z
-x,y,-z
-x,-y,-z
x,y,-z
-x,y,z
x,-y,z
1/2+x,1/2+y,z
1/2-x,1/2-y,z
1/2+x,1/2-y,-z
1/2-x,1/2+y,-z
1/2-x,1/2-y,-z
1/2+x,1/2+y,-z
1/2-x,1/2+y,z
1/2+x,1/2-y,z
loop_
_atom_site_type_symbol
_atom_site_label
_atom_site_fract_x
_atom_site_fract_y
_atom_site_fract_z
Si Si1 0.955537 0.718774 0.293384
Si Si2 0.402717 0.887867 0.298306
Si Si3 0.881928 0.930183 0.808439
Si Si4 0.263535 0.071377 0.500000
Si Si5 0.955019 0.146356 0.294637
Si Si6 0.181417 0.570271 0.190081
Si Si7 0.326268 0.428723 0.500000
Si Si8 0.045433 0.500000 0.795989
O O1 0.955610 0.717491 0.500000
O O2 0.924381 0.670794 0.235752
O O3 0.947434 0.785936 0.244496
O O4 0.000000 0.703634 0.238948
O O5 0.396233 0.883260 0.500000
O O6 0.360830 0.900202 0.214890
O O7 0.431540 0.942639 0.266148
O O8 0.922548 0.896237 0.780306
O O9 0.850686 0.911070 0.666445
O O10 0.888468 0.000000 0.786810
O O11 0.867633 0.920463 0.000000
O O12 0.287962 0.089032 0.666205
O O13 0.218618 0.092108 0.500000
O O14 0.262401 0.000000 0.500000
O O15 0.952836 0.143233 0.500000
O O16 0.000000 0.132023 0.246539
O O17 0.175134 0.500000 0.209798
O O18 0.196197 0.580639 0.000000
O O19 0.325027 0.500000 0.500000
O O20 0.000000 0.500000 0.739786
O O21 0.046233 0.500000 0.000000
#
# Coordination Sequence:
#
# PCOD9485502 Si02
#       8
#    16  16  16   8  16  16   8   8
#     4   8  16  30  48  71  97 129 174 222 258 294
#     4  11  19  30  49  69  95 130 173 218 263 311
#     4  10  20  33  52  80 112 141 168 202 246 296
#     4   9  18  32  52  74  98 132 167 200 253 316
#     4   9  17  32  53  75 103 139 176 212 249 289
#     4  10  19  31  47  71 101 130 165 211 260 308
#     4   9  18  34  53  77 107 135 167 203 245 306
#     4  11  23  33  41  61  95 135 177 218 265 315
#
# _framework density 16.981242999999999
#
# number of rings (size 3 to 8) (size 9 to 14) (size 15 to 20)
#    0.000    2.385    2.308    2.077    0.000    2.462 
#    0.000    6.154    0.000    1.846    0.000    2.154 
#    0.000    2.462    0.000    0.000    0.000    0.000 
#
# Total GULP energy -290055.082781 kJ/mol
# GULP energy per Si atom -5577.982361 kJ/mol
# Density = 1.694259 g / cm^3
# Si number density = 16.981243 Si / 1000 Ang^3
#
#
#
# Elastic Constant Matrix: (Units=GPa)
#
#
# Indices 1 2 3 4 5 6 
#
# 1 139.6888 49.2089 65.2443 0.0000 0.0000 0.0000
# 2 49.2089 40.4401 33.0985 0.0000 0.0000 0.0000
# 3 65.2443 33.0985 95.0918 0.0000 0.0000 0.0000
# 4 0.0000 0.0000 0.0000 6.7857 0.0000 0.0000
# 5 0.0000 0.0000 0.0000 0.0000 4.5524 0.0000
# 6 0.0000 0.0000 0.0000 0.0000 0.0000 9.6344
#
#
#
# Elastic Compliance Matrix: (Units=1/GPa)
#
#
# Indices 1 2 3 4 5 6 
#
# 1 0.014156 -0.012971 -0.005198 0.000000 0.000000 0.000000
# 2 -0.012971 0.046464 -0.007273 0.000000 0.000000 0.000000
# 3 -0.005198 -0.007273 0.016614 0.000000 0.000000 0.000000
# 4 0.000000 0.000000 0.000000 0.147369 0.000000 0.000000
# 5 0.000000 0.000000 0.000000 0.000000 0.219666 0.000000
# 6 0.000000 0.000000 0.000000 0.000000 0.000000 0.103794
#
#
# Mechanical properties :
#
#
# Convention : Reuss Voigt Hill
#
# Bulk Modulus (GPa) = 37.95024 63.36933 50.65979
# Shear Modulus (GPa) = 8.22731 12.70577 10.46654
#
# Velocity S-wave (km/s) = 2.20351 2.73834 2.48535
# Velocity P-wave (km/s) = 5.37315 6.88449 6.17523
#
# Compressibility (1/GPa) = 0.02635029
#
# Stress axis : x y z
#
# Youngs Moduli (GPa) = 70.64170 21.52181 60.19050
#
# Poissons Ratio (x) = 0.27917 0.31286
# Poissons Ratio (y) = 0.91632 0.43776
# Poissons Ratio (z) = 0.36718 0.15653
#
# Static dielectric constant tensor:
#      x y z
#    x 1.547390 0.000000 0.000000 
#    y 0.000000 1.552150 0.000000 
#    z 0.000000 0.000000 1.611890 
# 
# From -- ./inp_files/18725.got.cif
#   From: 2010.05.17/outbox.cif.g08.bks.cpg/sg65_10_cif.got.tgz:18725.got - 2010.06.03 17:01:31.
