data_PCOD9485729
_publ_section_title
;
Structure prediction by ZEFSAII (Michael W. Deem and Ramdas Pophale) SiO2 
 PCOD9485729
Probable space group: C M M M
;
_chemical_formula_sum "Si O2"
_cell_formula_units_Z 96
_cell_length_a 28.830308
_cell_length_b 10.219860
_cell_length_c 18.433553
_cell_angle_alpha 90.000000
_cell_angle_beta 90.000000
_cell_angle_gamma 90.000000
_cell_volume 5431.293605
_symmetry_space_group_name_H-M "C M M M"
_symmetry_group_IT_number 65
_symmetry_cell_setting 'orthorhombic'
loop_
_space_group_symop_operation_xyz
x,y,z
-x,-y,z
x,-y,-z
-x,y,-z
-x,-y,-z
x,y,-z
-x,y,z
x,-y,z
1/2+x,1/2+y,z
1/2-x,1/2-y,z
1/2+x,1/2-y,-z
1/2-x,1/2+y,-z
1/2-x,1/2-y,-z
1/2+x,1/2+y,-z
1/2-x,1/2+y,z
1/2+x,1/2-y,z
loop_
_atom_site_type_symbol
_atom_site_label
_atom_site_fract_x
_atom_site_fract_y
_atom_site_fract_z
Si Si1 0.791580 0.652705 0.807986
Si Si2 0.946476 0.000000 0.586924
Si Si3 0.107889 0.340396 0.855672
Si Si4 0.105244 0.269005 0.415737
Si Si5 0.551289 0.849384 0.280932
Si Si6 0.053696 0.340533 0.000000
Si Si7 0.206813 0.345566 0.366766
O O1 0.781321 0.500000 0.824286
O O2 0.750000 0.750000 0.825385
O O3 0.838344 0.694926 0.848617
O O4 0.799796 0.659287 0.720712
O O5 0.915207 0.126056 0.603472
O O6 0.951246 0.000000 0.500000
O O7 0.000000 0.000000 0.615280
O O8 0.108103 0.500000 0.855070
O O9 0.081512 0.289993 0.783854
O O10 0.080986 0.298987 0.927785
O O11 0.094540 0.296853 0.500000
O O12 0.077799 0.352369 0.356799
O O13 0.159753 0.291874 0.402898
O O14 0.500000 0.790613 0.288171
O O15 0.545719 0.000000 0.258986
O O16 0.053248 0.500000 0.000000
O O17 0.000000 0.298488 0.000000
O O18 0.214128 0.500000 0.385776
O O19 0.250000 0.250000 0.384766
#
# Coordination Sequence:
#
# PCOD9485729 Si02
#       7
#    16   8  16  16  16   8  16
#     4   9  17  32  52  74 105 139 174 218 268 318
#     4   9  20  38  56  74 102 141 181 225 278 331
#     4   9  16  29  48  72 105 139 168 207 260 311
#     4  11  22  36  54  74 103 138 179 227 277 327
#     4  10  19  31  49  73 102 135 171 214 266 323
#     4   9  16  26  45  76 109 139 171 205 250 311
#     4  10  21  36  55  79 107 142 184 231 283 335
#
# _framework density 17.675346999999999
#
# number of rings (size 3 to 8) (size 9 to 14) (size 15 to 20)
#    0.000    2.333    1.667    1.500    1.167    4.667 
#    0.000    1.250    0.000    0.000    0.000    0.000 
#    0.000    0.667    0.000    0.000    0.000    0.000 
#
# Total GULP energy -267269.960418 kJ/mol
# GULP energy per Si atom -5568.124175 kJ/mol
# Density = 1.763512 g / cm^3
# Si number density = 17.675347 Si / 1000 Ang^3
#
#
#
# Elastic Constant Matrix: (Units=GPa)
#
#
# Indices 1 2 3 4 5 6 
#
# 1 168.6895 51.9238 76.3448 0.0000 0.0000 0.0000
# 2 51.9238 68.7177 19.5110 0.0000 0.0000 0.0000
# 3 76.3448 19.5110 94.0252 0.0000 0.0000 0.0000
# 4 0.0000 0.0000 0.0000 5.0981 0.0000 0.0000
# 5 0.0000 0.0000 0.0000 0.0000 20.0189 0.0000
# 6 0.0000 0.0000 0.0000 0.0000 0.0000 16.3710
#
#
#
# Elastic Compliance Matrix: (Units=1/GPa)
#
#
# Indices 1 2 3 4 5 6 
#
# 1 0.011551 -0.006445 -0.008042 0.000000 0.000000 0.000000
# 2 -0.006445 0.019059 0.001278 0.000000 0.000000 0.000000
# 3 -0.008042 0.001278 0.016900 0.000000 0.000000 0.000000
# 4 0.000000 0.000000 0.000000 0.196151 0.000000 0.000000
# 5 0.000000 0.000000 0.000000 0.000000 0.049953 0.000000
# 6 0.000000 0.000000 0.000000 0.000000 0.000000 0.061084
#
#
# Mechanical properties :
#
#
# Convention : Reuss Voigt Hill
#
# Bulk Modulus (GPa) = 47.40885 69.66573 58.53729
# Shear Modulus (GPa) = 12.88172 20.54113 16.71142
#
# Velocity S-wave (km/s) = 2.70255 3.41271 3.07818
# Velocity P-wave (km/s) = 6.05133 7.41811 6.76931
#
# Compressibility (1/GPa) = 0.02109311
#
# Stress axis : x y z
#
# Youngs Moduli (GPa) = 86.56901 52.46770 59.17175
#
# Poissons Ratio (x) = 0.33816 0.47586
# Poissons Ratio (y) = 0.55794 -0.07563
# Poissons Ratio (z) = 0.69618 -0.06706
#
# Static dielectric constant tensor:
#      x y z
#    x 1.620690 0.000000 0.000000 
#    y 0.000000 2.494320 0.000000 
#    z 0.000000 0.000000 1.598080 
# 
# From -- ./inp_files/57486.got.cif
#   From: 2010.05.17/outbox.cif.g08.bks.cpg/sg65_29_cif.got.tgz:57486.got - 2010.06.03 17:01:31.
