data_PCOD9485683
_publ_section_title
;
Structure prediction by ZEFSAII (Michael W. Deem and Ramdas Pophale) SiO2 
 PCOD9485683
Probable space group: C M M M
;
_chemical_formula_sum "Si O2"
_cell_formula_units_Z 88
_cell_length_a 13.860487
_cell_length_b 16.758728
_cell_length_c 21.791521
_cell_angle_alpha 90.000000
_cell_angle_beta 90.000000
_cell_angle_gamma 90.000000
_cell_volume 5061.824531
_symmetry_space_group_name_H-M "C M M M"
_symmetry_group_IT_number 65
_symmetry_cell_setting 'orthorhombic'
loop_
_space_group_symop_operation_xyz
x,y,z
-x,-y,z
x,-y,-z
-x,y,-z
-x,-y,-z
x,y,-z
-x,y,z
x,-y,z
1/2+x,1/2+y,z
1/2-x,1/2-y,z
1/2+x,1/2-y,-z
1/2-x,1/2+y,-z
1/2-x,1/2-y,-z
1/2+x,1/2+y,-z
1/2-x,1/2+y,z
1/2+x,1/2-y,z
loop_
_atom_site_type_symbol
_atom_site_label
_atom_site_fract_x
_atom_site_fract_y
_atom_site_fract_z
Si Si1 0.611918 0.819555 0.803000
Si Si2 0.762918 0.909700 0.117153
Si Si3 0.111240 0.869257 0.771277
Si Si4 0.610218 0.096010 0.569728
Si Si5 0.887754 0.902826 0.000000
Si Si6 0.229170 0.656112 0.683227
O O1 0.500000 0.839244 0.811682
O O2 0.677720 0.852660 0.858226
O O3 0.620064 0.724273 0.791942
O O4 0.654197 0.855637 0.739661
O O5 0.837303 0.914098 0.173616
O O6 0.727300 0.000000 0.103928
O O7 0.825502 0.879449 0.059589
O O8 0.171856 0.880781 0.709170
O O9 0.000000 0.889000 0.764412
O O10 0.633183 0.121998 0.500000
O O11 0.500000 0.122424 0.583865
O O12 0.683997 0.124547 0.620994
O O13 0.609709 0.000000 0.569868
O O14 0.000000 0.875221 0.000000
O O15 0.891971 0.000000 0.000000
O O16 0.250000 0.750000 0.676400
#
# Coordination Sequence:
#
# PCOD9485683 Si02
#       6
#    16  16  16  16   8  16
#     4   9  18  33  50  69  97 127 152 187 239 291
#     4  10  19  31  49  72  94 120 159 200 235 277
#     4   9  18  33  50  69  96 126 154 190 237 283
#     4   9  18  32  49  70  97 127 158 195 239 283
#     4   9  18  32  48  67  95 129 161 196 238 280
#     4   9  17  29  48  72  95 122 157 194 232 278
#
# _framework density 17.385037000000001
#
# number of rings (size 3 to 8) (size 9 to 14) (size 15 to 20)
#    0.000    2.818    0.000    3.273    0.000    5.455 
#    0.000    2.273    0.000    4.364    0.000    1.273 
#    0.000    0.000    0.000    0.000    0.000    0.000 
#
# Total GULP energy -245133.247721 kJ/mol
# GULP energy per Si atom -5571.210175 kJ/mol
# Density = 1.734547 g / cm^3
# Si number density = 17.385037 Si / 1000 Ang^3
#
#
#
# Elastic Constant Matrix: (Units=GPa)
#
#
# Indices 1 2 3 4 5 6 
#
# 1 145.1794 29.2847 71.2749 0.0000 0.0000 0.0000
# 2 29.2847 18.1825 19.7770 0.0000 0.0000 0.0000
# 3 71.2749 19.7770 117.5565 0.0000 0.0000 0.0000
# 4 0.0000 0.0000 0.0000 22.2021 0.0000 0.0000
# 5 0.0000 0.0000 0.0000 0.0000 26.2040 0.0000
# 6 0.0000 0.0000 0.0000 0.0000 0.0000 22.4418
#
#
#
# Elastic Compliance Matrix: (Units=1/GPa)
#
#
# Indices 1 2 3 4 5 6 
#
# 1 0.012220 -0.014226 -0.005016 0.000000 0.000000 0.000000
# 2 -0.014226 0.083877 -0.005486 0.000000 0.000000 0.000000
# 3 -0.005016 -0.005486 0.012471 0.000000 0.000000 0.000000
# 4 0.000000 0.000000 0.000000 0.045041 0.000000 0.000000
# 5 0.000000 0.000000 0.000000 0.000000 0.038162 0.000000
# 6 0.000000 0.000000 0.000000 0.000000 0.000000 0.044560
#
#
# Mechanical properties :
#
#
# Convention : Reuss Voigt Hill
#
# Bulk Modulus (GPa) = 16.91686 57.95464 37.43575
# Shear Modulus (GPa) = 16.36719 24.87504 20.62112
#
# Velocity S-wave (km/s) = 3.07164 3.78674 3.44778
# Velocity P-wave (km/s) = 4.72565 7.24758 6.11798
#
# Compressibility (1/GPa) = 0.05911262
#
# Stress axis : x y z
#
# Youngs Moduli (GPa) = 81.83250 11.92223 80.18919
#
# Poissons Ratio (x) = 0.16961 0.40221
# Poissons Ratio (y) = 1.16415 0.43989
# Poissons Ratio (z) = 0.41045 0.06540
#
# Static dielectric constant tensor:
#      x y z
#    x 1.594640 0.000000 0.000000 
#    y 0.000000 1.628950 0.000000 
#    z 0.000000 0.000000 1.578860 
# 
# From -- ./inp_files/52999.got.cif
#   From: 2010.05.17/outbox.cif.g08.bks.cpg/sg65_27_cif.got.tgz:52999.got - 2010.06.03 17:01:31.
