data_PCOD9485055
_publ_section_title
;
Structure prediction by ZEFSAII (Michael W. Deem and Ramdas Pophale) SiO2 
 PCOD9485055
Probable space group: C M M M
;
_chemical_formula_sum "Si O2"
_cell_formula_units_Z 72
_cell_length_a 10.194993
_cell_length_b 33.600519
_cell_length_c 14.032316
_cell_angle_alpha 90.000000
_cell_angle_beta 90.000000
_cell_angle_gamma 90.000000
_cell_volume 4806.868858
_symmetry_space_group_name_H-M "C M M M"
_symmetry_group_IT_number 65
_symmetry_cell_setting 'orthorhombic'
loop_
_space_group_symop_operation_xyz
x,y,z
-x,-y,z
x,-y,-z
-x,y,-z
-x,-y,-z
x,y,-z
-x,y,z
x,-y,z
1/2+x,1/2+y,z
1/2-x,1/2-y,z
1/2+x,1/2-y,-z
1/2-x,1/2+y,-z
1/2-x,1/2-y,-z
1/2+x,1/2+y,-z
1/2-x,1/2+y,z
1/2+x,1/2-y,z
loop_
_atom_site_type_symbol
_atom_site_label
_atom_site_fract_x
_atom_site_fract_y
_atom_site_fract_z
Si Si1 0.154659 0.076560 0.268229
Si Si2 0.500000 0.719037 0.614925
Si Si3 0.847098 0.547412 0.112831
Si Si4 0.841361 0.000000 0.392632
Si Si5 0.000000 0.309634 0.615416
Si Si6 0.720182 0.655494 0.384865
O O1 0.246804 0.072444 0.176264
O O2 0.175251 0.116822 0.327643
O O3 0.000000 0.072512 0.244491
O O4 0.194563 0.039607 0.335824
O O5 0.500000 0.721980 0.500000
O O6 0.500000 0.764105 0.651669
O O7 0.373197 0.692812 0.639462
O O8 0.823576 0.500000 0.128255
O O9 0.000000 0.555199 0.137116
O O10 0.830738 0.554730 0.000000
O O11 0.789357 0.000000 0.500000
O O12 0.000000 0.000000 0.397890
O O13 0.131876 0.332721 0.640955
O O14 0.000000 0.307348 0.500000
O O15 0.710375 0.648903 0.500000
#
# Coordination Sequence:
#
# PCOD9485055 Si02
#       6
#    16   8  16   8   8  16
#     4  11  20  31  48  72  98 129 168 201 238 278
#     4   9  16  30  48  65  92 131 168 203 244 289
#     4   9  19  36  55  72  93 123 158 201 255 299
#     4   9  18  30  44  63  94 136 171 195 220 271
#     4   9  18  30  46  67  92 129 172 205 244 287
#     4  10  19  30  45  69 101 134 166 204 240 280
#
# _framework density 14.978566000000001
#
# number of rings (size 3 to 8) (size 9 to 14) (size 15 to 20)
#    0.000    2.333    2.222    2.000    1.556    4.000 
#    0.000    1.111    0.000    0.667    0.000    0.000 
#    0.000    5.333    0.000    0.000    0.000    0.000 
#
# Total GULP energy -200613.939823 kJ/mol
# GULP energy per Si atom -5572.609440 kJ/mol
# Density = 1.494447 g / cm^3
# Si number density = 14.978566 Si / 1000 Ang^3
#
#
#
# Elastic Constant Matrix: (Units=GPa)
#
#
# Indices 1 2 3 4 5 6 
#
# 1 92.2475 22.5701 36.0233 0.0000 0.0000 0.0000
# 2 22.5701 64.9701 23.8747 0.0000 0.0000 0.0000
# 3 36.0233 23.8747 55.6310 0.0000 0.0000 0.0000
# 4 0.0000 0.0000 0.0000 5.4106 0.0000 0.0000
# 5 0.0000 0.0000 0.0000 0.0000 21.8500 0.0000
# 6 0.0000 0.0000 0.0000 0.0000 0.0000 16.5804
#
#
#
# Elastic Compliance Matrix: (Units=1/GPa)
#
#
# Indices 1 2 3 4 5 6 
#
# 1 0.014707 -0.001911 -0.008703 0.000000 0.000000 0.000000
# 2 -0.001911 0.018522 -0.006712 0.000000 0.000000 0.000000
# 3 -0.008703 -0.006712 0.026491 0.000000 0.000000 0.000000
# 4 0.000000 0.000000 0.000000 0.184823 0.000000 0.000000
# 5 0.000000 0.000000 0.000000 0.000000 0.045767 0.000000
# 6 0.000000 0.000000 0.000000 0.000000 0.000000 0.060312
#
#
# Mechanical properties :
#
#
# Convention : Reuss Voigt Hill
#
# Bulk Modulus (GPa) = 39.88976 41.97609 40.93293
# Shear Modulus (GPa) = 12.70232 17.46022 15.08127
#
# Velocity S-wave (km/s) = 2.91526 3.41791 3.17654
# Velocity P-wave (km/s) = 6.16609 6.60765 6.39069
#
# Compressibility (1/GPa) = 0.02506909
#
# Stress axis : x y z
#
# Youngs Moduli (GPa) = 67.99708 53.99043 37.74797
#
# Poissons Ratio (x) = 0.10317 0.32852
# Poissons Ratio (y) = 0.12993 0.25335
# Poissons Ratio (z) = 0.59178 0.36236
#
# Static dielectric constant tensor:
#      x y z
#    x 1.507050 0.000000 0.000000 
#    y 0.000000 1.488150 0.000000 
#    z 0.000000 0.000000 1.476000 
# 
# From -- ./inp_files/37082.got.cif
#   From: 2010.05.17/outbox.cif.g08.bks.cpg/sg65_19_cif.got.tgz:37082.got - 2010.06.03 17:01:31.
