data_PCOD9485619
_publ_section_title
;
Structure prediction by ZEFSAII (Michael W. Deem and Ramdas Pophale) SiO2 
 PCOD9485619
Probable space group: C M M M
;
_chemical_formula_sum "Si O2"
_cell_formula_units_Z 88
_cell_length_a 26.533267
_cell_length_b 8.461081
_cell_length_c 23.220143
_cell_angle_alpha 90.000000
_cell_angle_beta 90.000000
_cell_angle_gamma 90.000000
_cell_volume 5212.924920
_symmetry_space_group_name_H-M "C M M M"
_symmetry_group_IT_number 65
_symmetry_cell_setting 'orthorhombic'
loop_
_space_group_symop_operation_xyz
x,y,z
-x,-y,z
x,-y,-z
-x,y,-z
-x,-y,-z
x,y,-z
-x,y,z
x,-y,z
1/2+x,1/2+y,z
1/2-x,1/2-y,z
1/2+x,1/2-y,-z
1/2-x,1/2+y,-z
1/2-x,1/2-y,-z
1/2+x,1/2+y,-z
1/2-x,1/2+y,z
1/2+x,1/2-y,z
loop_
_atom_site_type_symbol
_atom_site_label
_atom_site_fract_x
_atom_site_fract_y
_atom_site_fract_z
Si Si1 0.000000 0.189188 0.433823
Si Si2 0.307142 0.691544 0.061998
Si Si3 0.342246 0.685995 0.185279
Si Si4 0.305237 0.310156 0.690158
Si Si5 0.409355 0.813188 0.643968
Si Si6 0.556571 0.187422 0.774375
O O1 0.051056 0.245634 0.401955
O O2 0.000000 0.244134 0.500000
O O3 0.000000 0.000000 0.432728
O O4 0.308861 0.500000 0.063242
O O5 0.250000 0.750000 0.060735
O O6 0.327997 0.752633 0.122906
O O7 0.330475 0.740620 0.000000
O O8 0.330453 0.500000 0.184589
O O9 0.316209 0.750275 0.243930
O O10 0.401206 0.713675 0.193978
O O11 0.305061 0.500000 0.691034
O O12 0.250000 0.250000 0.672270
O O13 0.352870 0.256565 0.651223
O O14 0.435122 0.787037 0.706331
O O15 0.404607 0.000000 0.634595
O O16 0.500000 0.229561 0.790455
O O17 0.564333 0.000000 0.784706
#
# Coordination Sequence:
#
# PCOD9485619 Si02
#       6
#     8  16  16  16  16  16
#     4  11  23  37  55  81 111 139 168 205 244 285
#     4   9  17  29  44  62  87 118 154 196 239 286
#     4   9  18  29  43  67  94 123 160 199 244 295
#     4  10  19  31  48  74 105 136 168 206 253 305
#     4  10  19  34  54  76 103 135 170 208 249 294
#     4   9  17  30  47  69  95 122 154 196 244 289
#
# _framework density 16.881117
#
# number of rings (size 3 to 8) (size 9 to 14) (size 15 to 20)
#    0.000    2.455    0.909    1.909    0.000    3.273 
#    0.000    0.000    0.000    1.091    0.000    3.818 
#    0.000    0.000    0.000    0.000    0.000    0.000 
#
# Total GULP energy -245003.172532 kJ/mol
# GULP energy per Si atom -5568.253921 kJ/mol
# Density = 1.684269 g / cm^3
# Si number density = 16.881117 Si / 1000 Ang^3
#
#
#
# Elastic Constant Matrix: (Units=GPa)
#
#
# Indices 1 2 3 4 5 6 
#
# 1 106.5774 25.0424 52.0446 0.0000 0.0000 0.0000
# 2 25.0424 19.7048 32.5815 0.0000 0.0000 0.0000
# 3 52.0446 32.5815 104.8814 0.0000 0.0000 0.0000
# 4 0.0000 0.0000 0.0000 10.3575 0.0000 0.0000
# 5 0.0000 0.0000 0.0000 0.0000 19.5394 0.0000
# 6 0.0000 0.0000 0.0000 0.0000 0.0000 30.7522
#
#
#
# Elastic Compliance Matrix: (Units=1/GPa)
#
#
# Indices 1 2 3 4 5 6 
#
# 1 0.013787 -0.012767 -0.002875 0.000000 0.000000 0.000000
# 2 -0.012767 0.116171 -0.029753 0.000000 0.000000 0.000000
# 3 -0.002875 -0.029753 0.020204 0.000000 0.000000 0.000000
# 4 0.000000 0.000000 0.000000 0.096549 0.000000 0.000000
# 5 0.000000 0.000000 0.000000 0.000000 0.051179 0.000000
# 6 0.000000 0.000000 0.000000 0.000000 0.000000 0.032518
#
#
# Mechanical properties :
#
#
# Convention : Reuss Voigt Hill
#
# Bulk Modulus (GPa) = 16.84336 50.05565 33.44951
# Shear Modulus (GPa) = 11.33815 20.22948 15.78382
#
# Velocity S-wave (km/s) = 2.59443 3.46547 3.06109
# Velocity P-wave (km/s) = 4.35592 6.76232 5.68784
#
# Compressibility (1/GPa) = 0.05937057
#
# Stress axis : x y z
#
# Youngs Moduli (GPa) = 72.53319 8.60800 49.49472
#
# Poissons Ratio (x) = 0.10990 0.14230
# Poissons Ratio (y) = 0.92606 1.47263
# Poissons Ratio (z) = 0.20854 0.25612
#
# Static dielectric constant tensor:
#      x y z
#    x 1.554550 0.000000 0.000000 
#    y 0.000000 1.588990 0.000000 
#    z 0.000000 0.000000 1.603860 
# 
# From -- ./inp_files/59803.got.cif
#   From: 2010.05.17/outbox.cif.g08.bks.cpg/sg65_30_cif.got.tgz:59803.got - 2010.06.03 17:01:31.
