data_PCOD9485789
_publ_section_title
;
Structure prediction by ZEFSAII (Michael W. Deem and Ramdas Pophale) SiO2 
 PCOD9485789
Probable space group: C M M M
;
_chemical_formula_sum "Si O2"
_cell_formula_units_Z 104
_cell_length_a 14.897168
_cell_length_b 20.772659
_cell_length_c 18.551694
_cell_angle_alpha 90.000000
_cell_angle_beta 90.000000
_cell_angle_gamma 90.000000
_cell_volume 5740.892036
_symmetry_space_group_name_H-M "C M M M"
_symmetry_group_IT_number 65
_symmetry_cell_setting 'orthorhombic'
loop_
_space_group_symop_operation_xyz
x,y,z
-x,-y,z
x,-y,-z
-x,y,-z
-x,-y,-z
x,y,-z
-x,y,z
x,-y,z
1/2+x,1/2+y,z
1/2-x,1/2-y,z
1/2+x,1/2-y,-z
1/2-x,1/2+y,-z
1/2-x,1/2-y,-z
1/2+x,1/2+y,-z
1/2-x,1/2+y,z
1/2+x,1/2-y,z
loop_
_atom_site_type_symbol
_atom_site_label
_atom_site_fract_x
_atom_site_fract_y
_atom_site_fract_z
Si Si1 0.105523 0.077800 0.713151
Si Si2 0.901418 0.371277 0.834391
Si Si3 0.601889 0.736189 0.915525
Si Si4 0.796839 0.117542 0.854509
Si Si5 0.898861 0.576340 0.675265
Si Si6 0.773186 0.077934 0.581491
Si Si7 0.903141 0.000000 0.915610
O O1 0.167183 0.112643 0.772533
O O2 0.145304 0.094947 0.634817
O O3 0.000000 0.093024 0.720370
O O4 0.116217 0.000000 0.722616
O O5 0.898082 0.298473 0.864216
O O6 0.807736 0.399318 0.861784
O O7 0.896030 0.382093 0.748372
O O8 0.000000 0.397605 0.856502
O O9 0.500000 0.707923 0.910788
O O10 0.674980 0.685368 0.888717
O O11 0.616079 0.753293 0.000000
O O12 0.852043 0.063302 0.894252
O O13 0.885546 0.500000 0.694327
O O14 0.820446 0.595286 0.620529
O O15 0.000000 0.581711 0.645027
O O16 0.780409 0.102677 0.500000
O O17 0.772991 0.000000 0.577599
O O18 0.000000 0.000000 0.878656
O O19 0.912851 0.000000 0.000000
#
# Coordination Sequence:
#
# PCOD9485789 Si02
#       7
#    16  16  16  16  16  16   8
#     4  10  19  31  49  76 109 143 180 221 266 323
#     4  10  22  37  56  79 107 144 184 226 271 326
#     4  10  22  40  60  83 111 141 180 231 280 326
#     4  12  21  35  59  81 109 147 185 225 275 326
#     4   9  17  31  52  77 106 142 182 224 269 317
#     4   9  17  29  47  74 108 142 175 216 269 326
#     4  11  24  38  55  83 112 140 180 229 279 329
#
# _framework density 18.115652000000001
#
# number of rings (size 3 to 8) (size 9 to 14) (size 15 to 20)
#    0.000    1.923    2.308    2.308    1.077    3.692 
#    0.000    3.077    0.000    0.462    0.000    2.154 
#    0.000    3.692    0.000    0.000    0.000    0.000 
#
# Total GULP energy -289819.632093 kJ/mol
# GULP energy per Si atom -5573.454463 kJ/mol
# Density = 1.807442 g / cm^3
# Si number density = 18.115652 Si / 1000 Ang^3
#
#
#
# Elastic Constant Matrix: (Units=GPa)
#
#
# Indices 1 2 3 4 5 6 
#
# 1 144.3063 22.5225 34.2995 0.0000 0.0000 0.0000
# 2 22.5225 31.7821 29.8427 0.0000 0.0000 0.0000
# 3 34.2995 29.8427 103.8182 0.0000 0.0000 0.0000
# 4 0.0000 0.0000 0.0000 19.6131 0.0000 0.0000
# 5 0.0000 0.0000 0.0000 0.0000 25.2069 0.0000
# 6 0.0000 0.0000 0.0000 0.0000 0.0000 24.4988
#
#
#
# Elastic Compliance Matrix: (Units=1/GPa)
#
#
# Indices 1 2 3 4 5 6 
#
# 1 0.007932 -0.004329 -0.001376 0.000000 0.000000 0.000000
# 2 -0.004329 0.045459 -0.011637 0.000000 0.000000 0.000000
# 3 -0.001376 -0.011637 0.013432 0.000000 0.000000 0.000000
# 4 0.000000 0.000000 0.000000 0.050986 0.000000 0.000000
# 5 0.000000 0.000000 0.000000 0.000000 0.039672 0.000000
# 6 0.000000 0.000000 0.000000 0.000000 0.000000 0.040818
#
#
# Mechanical properties :
#
#
# Convention : Reuss Voigt Hill
#
# Bulk Modulus (GPa) = 31.11514 50.35954 40.73734
# Shear Modulus (GPa) = 20.51723 26.74654 23.63189
#
# Velocity S-wave (km/s) = 3.36902 3.84661 3.61571
# Velocity P-wave (km/s) = 5.68743 6.89839 6.32197
#
# Compressibility (1/GPa) = 0.03213870
#
# Stress axis : x y z
#
# Youngs Moduli (GPa) = 126.06373 21.99785 74.44894
#
# Poissons Ratio (x) = 0.09523 0.10247
# Poissons Ratio (y) = 0.54573 0.86636
# Poissons Ratio (z) = 0.17351 0.25599
#
# Static dielectric constant tensor:
#      x y z
#    x 1.673330 0.000000 0.000000 
#    y 0.000000 1.600760 0.000000 
#    z 0.000000 0.000000 1.630490 
# 
# From -- ./inp_files/53506.got.cif
#   From: 2010.05.17/outbox.cif.g08.bks.cpg/sg65_27_cif.got.tgz:53506.got - 2010.06.03 17:01:31.
