data_PCOD9485529
_publ_section_title
;
Structure prediction by ZEFSAII (Michael W. Deem and Ramdas Pophale) SiO2 
 PCOD9485529
Probable space group: C M M M
;
_chemical_formula_sum "Si O2"
_cell_formula_units_Z 80
_cell_length_a 19.027998
_cell_length_b 8.531665
_cell_length_c 27.276362
_cell_angle_alpha 90.000000
_cell_angle_beta 90.000000
_cell_angle_gamma 90.000000
_cell_volume 4428.058370
_symmetry_space_group_name_H-M "C M M M"
_symmetry_group_IT_number 65
_symmetry_cell_setting 'orthorhombic'
loop_
_space_group_symop_operation_xyz
x,y,z
-x,-y,z
x,-y,-z
-x,y,-z
-x,-y,-z
x,y,-z
-x,y,z
x,-y,z
1/2+x,1/2+y,z
1/2-x,1/2-y,z
1/2+x,1/2-y,-z
1/2-x,1/2+y,-z
1/2-x,1/2-y,-z
1/2+x,1/2+y,-z
1/2-x,1/2+y,z
1/2+x,1/2-y,z
loop_
_atom_site_type_symbol
_atom_site_label
_atom_site_fract_x
_atom_site_fract_y
_atom_site_fract_z
Si Si1 0.328050 0.312264 0.943956
Si Si2 0.330434 0.311727 0.341214
Si Si3 0.669577 0.689437 0.447234
Si Si4 0.670294 0.812218 0.761383
Si Si5 0.080591 0.689433 0.855303
O O1 0.327046 0.500000 0.942150
O O2 0.250000 0.250000 0.932506
O O3 0.382086 0.248366 0.904344
O O4 0.344804 0.263688 0.000000
O O5 0.329845 0.500000 0.338307
O O6 0.250000 0.250000 0.341896
O O7 0.361676 0.263335 0.394314
O O8 0.360534 0.244909 0.290729
O O9 0.638194 0.739592 0.500000
O O10 0.671078 0.500000 0.447062
O O11 0.750000 0.750000 0.447333
O O12 0.750000 0.750000 0.766151
O O13 0.624482 0.758874 0.807618
O O14 0.673016 0.000000 0.760752
O O15 0.081525 0.500000 0.855599
O O16 0.000000 0.741797 0.852683
#
# Coordination Sequence:
#
# PCOD9485529 Si02
#       5
#    16  16  16  16  16
#     4  10  21  37  58  83 108 134 165 200 238 282
#     4   9  15  23  37  57  82 113 150 189 230 278
#     4   8  13  20  30  47  74 108 143 179 222 273
#     4  10  19  31  48  68  92 122 158 199 239 283
#     4  10  22  38  54  74 101 133 167 203 246 293
#
# _framework density 18.066609
#
# number of rings (size 3 to 8) (size 9 to 14) (size 15 to 20)
#    0.000    2.600    0.000    3.600    0.000    6.000 
#    0.000    2.000    0.000    0.000    0.000    0.000 
#    0.000    0.800    0.000   10.000    0.000    4.600 
#
# Total GULP energy -222795.505768 kJ/mol
# GULP energy per Si atom -5569.887644 kJ/mol
# Density = 1.802549 g / cm^3
# Si number density = 18.066609 Si / 1000 Ang^3
#
#
#
# Elastic Constant Matrix: (Units=GPa)
#
#
# Indices 1 2 3 4 5 6 
#
# 1 63.8260 16.6526 84.5301 0.0000 0.0000 0.0000
# 2 16.6526 25.6541 29.5567 0.0000 0.0000 0.0000
# 3 84.5301 29.5567 186.5998 0.0000 0.0000 0.0000
# 4 0.0000 0.0000 0.0000 20.6746 0.0000 0.0000
# 5 0.0000 0.0000 0.0000 0.0000 -6.2941 0.0000
# 6 0.0000 0.0000 0.0000 0.0000 0.0000 13.3324
#
#
#
# Elastic Compliance Matrix: (Units=1/GPa)
#
#
# Indices 1 2 3 4 5 6 
#
# 1 0.039959 -0.006218 -0.017116 0.000000 0.000000 0.000000
# 2 -0.006218 0.048649 -0.004889 0.000000 0.000000 0.000000
# 3 -0.017116 -0.004889 0.013887 0.000000 0.000000 0.000000
# 4 0.000000 0.000000 0.000000 0.048369 0.000000 0.000000
# 5 0.000000 0.000000 0.000000 0.000000 -0.158880 0.000000
# 6 0.000000 0.000000 0.000000 0.000000 0.000000 0.075005
#
#
# Mechanical properties :
#
#
# Convention : Reuss Voigt Hill
#
# Bulk Modulus (GPa) = 21.71629 59.72873 40.72251
# Shear Modulus (GPa) = 36.02691 15.23195 25.62943
#
# Velocity S-wave (km/s) = 4.47040 2.90677 3.77053
# Velocity P-wave (km/s) = 6.22030 6.66317 6.44554
#
# Compressibility (1/GPa) = 0.04604839
#
# Stress axis : x y z
#
# Youngs Moduli (GPa) = 25.02591 20.55534 72.00823
#
# Poissons Ratio (x) = 0.12780 1.23253
# Poissons Ratio (y) = 0.15560 0.35207
# Poissons Ratio (z) = 0.42836 0.10050
#
# Static dielectric constant tensor:
#      x y z
#    x 1.571210 0.000000 0.000000 
#    y 0.000000 1.615800 0.000000 
#    z 0.000000 0.000000 1.691940 
# 
# From -- ./inp_files/72745.got.cif
#   From: 2010.05.17/outbox.cif.g08.bks.cpg/sg65_37_cif.got.tgz:72745.got - 2010.06.03 17:01:31.
