data_PCOD9485726
_publ_section_title
;
Structure prediction by ZEFSAII (Michael W. Deem and Ramdas Pophale) SiO2 
 PCOD9485726
Probable space group: C M M M
;
_chemical_formula_sum "Si O2"
_cell_formula_units_Z 72
_cell_length_a 7.882462
_cell_length_b 18.597557
_cell_length_c 24.069565
_cell_angle_alpha 90.000000
_cell_angle_beta 90.000000
_cell_angle_gamma 90.000000
_cell_volume 3528.466721
_symmetry_space_group_name_H-M "C M M M"
_symmetry_group_IT_number 65
_symmetry_cell_setting 'orthorhombic'
loop_
_space_group_symop_operation_xyz
x,y,z
-x,-y,z
x,-y,-z
-x,y,-z
-x,-y,-z
x,y,-z
-x,y,z
x,-y,z
1/2+x,1/2+y,z
1/2-x,1/2-y,z
1/2+x,1/2-y,-z
1/2-x,1/2+y,-z
1/2-x,1/2-y,-z
1/2+x,1/2+y,-z
1/2-x,1/2+y,z
1/2+x,1/2-y,z
loop_
_atom_site_type_symbol
_atom_site_label
_atom_site_fract_x
_atom_site_fract_y
_atom_site_fract_z
Si Si1 0.704406 0.166817 0.329683
Si Si2 0.293021 0.916489 0.562034
Si Si3 0.798393 0.918768 0.000000
Si Si4 0.798776 0.333365 0.889239
Si Si5 0.791980 0.416845 0.780313
O O1 0.500000 0.161179 0.330315
O O2 0.750000 0.250000 0.324792
O O3 0.767575 0.132417 0.387370
O O4 0.764171 0.122083 0.276165
O O5 0.237562 0.894502 0.500000
O O6 0.500000 0.914643 0.562014
O O7 0.245514 0.000000 0.570695
O O8 0.749465 0.875355 0.055034
O O9 0.000000 0.924201 0.000000
O O10 0.726273 0.000000 0.000000
O O11 0.750000 0.250000 0.891594
O O12 0.730661 0.373373 0.834339
O O13 0.000000 0.336098 0.885038
O O14 0.739934 0.500000 0.782287
O O15 0.000000 0.416178 0.780422
#
# Coordination Sequence:
#
# PCOD9485726 Si02
#       5
#    16  16   8  16  16
#     4  10  19  31  49  73 102 133 166 208 256 305
#     4   8  14  26  46  71  96 126 169 215 252 291
#     4  11  24  41  60  83 111 141 176 217 260 307
#     4  11  22  37  58  82 110 141 175 215 260 311
#     4   9  18  33  54  78 101 131 174 218 257 301
#
# _framework density 20.405462
#
# number of rings (size 3 to 8) (size 9 to 14) (size 15 to 20)
#    0.000    2.333    0.000    4.000    0.000    4.889 
#    0.000    1.111    0.000    5.333    0.000    1.556 
#    0.000    0.000    0.000    0.000    0.000    0.000 
#
# Total GULP energy -201071.368088 kJ/mol
# GULP energy per Si atom -5585.315780 kJ/mol
# Density = 2.035902 g / cm^3
# Si number density = 20.405462 Si / 1000 Ang^3
#
#
#
# Elastic Constant Matrix: (Units=GPa)
#
#
# Indices 1 2 3 4 5 6 
#
# 1 25.0407 8.5425 14.1149 0.0000 0.0000 0.0000
# 2 8.5425 209.4531 149.0811 0.0000 0.0000 0.0000
# 3 14.1149 149.0811 232.7968 0.0000 0.0000 0.0000
# 4 0.0000 0.0000 0.0000 13.0224 0.0000 0.0000
# 5 0.0000 0.0000 0.0000 0.0000 -26.6792 0.0000
# 6 0.0000 0.0000 0.0000 0.0000 0.0000 13.9424
#
#
#
# Elastic Compliance Matrix: (Units=1/GPa)
#
#
# Indices 1 2 3 4 5 6 
#
# 1 0.041352 0.000180 -0.002623 0.000000 0.000000 0.000000
# 2 0.000180 0.008774 -0.005630 0.000000 0.000000 0.000000
# 3 -0.002623 -0.005630 0.008060 0.000000 0.000000 0.000000
# 4 0.000000 0.000000 0.000000 0.076791 0.000000 0.000000
# 5 0.000000 0.000000 0.000000 0.000000 -0.037482 0.000000
# 6 0.000000 0.000000 0.000000 0.000000 0.000000 0.071723
#
#
# Mechanical properties :
#
#
# Convention : Reuss Voigt Hill
#
# Bulk Modulus (GPa) = 23.78608 90.08526 56.93567
# Shear Modulus (GPa) = 25.07830 19.76061 22.41946
#
# Velocity S-wave (km/s) = 3.50951 3.11529 3.31826
# Velocity P-wave (km/s) = 5.30135 7.56198 6.53023
#
# Compressibility (1/GPa) = 0.04204139
#
# Stress axis : x y z
#
# Youngs Moduli (GPa) = 24.18269 113.97262 124.07190
#
# Poissons Ratio (x) = -0.02053 0.32539
# Poissons Ratio (y) = -0.00436 0.69849
# Poissons Ratio (z) = 0.06342 0.64164
#
# Static dielectric constant tensor:
#      x y z
#    x 1.745690 0.000000 0.000000 
#    y 0.000000 1.828690 0.000000 
#    z 0.000000 0.000000 1.750810 
# 
# From -- ./inp_files/67030.got.cif
#   From: 2010.05.17/outbox.cif.g08.bks.cpg/sg65_34_cif.got.tgz:67030.got - 2010.06.03 17:01:31.
