data_PCOD9485488
_publ_section_title
;
Structure prediction by ZEFSAII (Michael W. Deem and Ramdas Pophale) SiO2 
 PCOD9485488
Probable space group: C M M M
;
_chemical_formula_sum "Si O2"
_cell_formula_units_Z 88
_cell_length_a 8.556073
_cell_length_b 19.153079
_cell_length_c 29.454635
_cell_angle_alpha 90.000000
_cell_angle_beta 90.000000
_cell_angle_gamma 90.000000
_cell_volume 4826.882496
_symmetry_space_group_name_H-M "C M M M"
_symmetry_group_IT_number 65
_symmetry_cell_setting 'orthorhombic'
loop_
_space_group_symop_operation_xyz
x,y,z
-x,-y,z
x,-y,-z
-x,y,-z
-x,-y,-z
x,y,-z
-x,y,z
x,-y,z
1/2+x,1/2+y,z
1/2-x,1/2-y,z
1/2+x,1/2-y,-z
1/2-x,1/2+y,-z
1/2-x,1/2-y,-z
1/2+x,1/2+y,-z
1/2-x,1/2+y,z
1/2+x,1/2-y,z
loop_
_atom_site_type_symbol
_atom_site_label
_atom_site_fract_x
_atom_site_fract_y
_atom_site_fract_z
Si Si1 0.690956 0.080800 0.413732
Si Si2 0.814393 0.081021 0.217912
Si Si3 0.680501 0.084779 0.314053
Si Si4 0.690428 0.919624 0.948770
Si Si5 0.813217 0.328061 0.135818
Si Si6 0.310731 0.828471 0.500000
O O1 0.500000 0.080289 0.412545
O O2 0.741719 0.106339 0.363687
O O3 0.740524 0.129395 0.455103
O O4 0.739078 0.000000 0.420669
O O5 0.772254 0.104950 0.268927
O O6 0.736618 0.128370 0.179888
O O7 0.000000 0.082717 0.212149
O O8 0.761500 0.000000 0.213228
O O9 0.500000 0.106859 0.309164
O O10 0.681620 0.000000 0.315937
O O11 0.500000 0.918892 0.948510
O O12 0.745181 0.868575 0.909218
O O13 0.737440 0.000000 0.939988
O O14 0.739866 0.900525 0.000000
O O15 0.750000 0.250000 0.137652
O O16 0.000000 0.325878 0.133866
O O17 0.500000 0.827889 0.500000
O O18 0.250000 0.750000 0.500000
#
# Coordination Sequence:
#
# PCOD9485488 Si02
#       6
#    16  16  16  16  16   8
#     4   8  14  27  50  75  94 120 164 210 243 279
#     4  10  20  34  53  77 104 133 167 209 255 302
#     4   8  14  27  49  75  98 122 160 208 252 293
#     4   8  15  30  53  79 103 129 166 209 250 296
#     4  11  22  35  52  75 105 140 175 210 251 298
#     4  10  19  31  47  69  99 130 160 196 242 294
#
# _framework density 18.231228999999999
#
# number of rings (size 3 to 8) (size 9 to 14) (size 15 to 20)
#    0.000    2.909    0.000    3.545    0.000    3.273 
#    0.000    1.818    0.000    6.000    0.000    6.364 
#    0.000    0.000    0.000    0.000    0.000    0.000 
#
# Total GULP energy -245265.785966 kJ/mol
# GULP energy per Si atom -5574.222408 kJ/mol
# Density = 1.818973 g / cm^3
# Si number density = 18.231229 Si / 1000 Ang^3
#
#
#
# Elastic Constant Matrix: (Units=GPa)
#
#
# Indices 1 2 3 4 5 6 
#
# 1 20.3273 22.7992 30.4582 0.0000 0.0000 0.0000
# 2 22.7992 103.5065 101.9764 0.0000 0.0000 0.0000
# 3 30.4582 101.9764 189.3132 0.0000 0.0000 0.0000
# 4 0.0000 0.0000 0.0000 -4.5534 0.0000 0.0000
# 5 0.0000 0.0000 0.0000 0.0000 5.6264 0.0000
# 6 0.0000 0.0000 0.0000 0.0000 0.0000 16.6996
#
#
#
# Elastic Compliance Matrix: (Units=1/GPa)
#
#
# Indices 1 2 3 4 5 6 
#
# 1 0.068560 -0.009022 -0.006170 0.000000 0.000000 0.000000
# 2 -0.009022 0.021774 -0.010277 0.000000 0.000000 0.000000
# 3 -0.006170 -0.010277 0.011811 0.000000 0.000000 0.000000
# 4 0.000000 0.000000 0.000000 -0.219616 0.000000 0.000000
# 5 0.000000 0.000000 0.000000 0.000000 0.177732 0.000000
# 6 0.000000 0.000000 0.000000 0.000000 0.000000 0.059882
#
#
# Mechanical properties :
#
#
# Convention : Reuss Voigt Hill
#
# Bulk Modulus (GPa) = 19.52940 69.29051 44.40995
# Shear Modulus (GPa) = 26.57439 14.08208 20.32823
#
# Velocity S-wave (km/s) = 3.82203 2.78225 3.34282
# Velocity P-wave (km/s) = 5.49660 6.95775 6.26988
#
# Compressibility (1/GPa) = 0.05120485
#
# Stress axis : x y z
#
# Youngs Moduli (GPa) = 14.58575 45.92657 84.66689
#
# Poissons Ratio (x) = 0.41437 0.52243
# Poissons Ratio (y) = 0.13160 0.87014
# Poissons Ratio (z) = 0.09000 0.47200
#
# Static dielectric constant tensor:
#      x y z
#    x 1.623250 0.000000 0.000000 
#    y 0.000000 1.595580 0.000000 
#    z 0.000000 0.000000 1.643140 
# 
# From -- ./inp_files/75348.got.cif
#   From: 2010.05.17/outbox.cif.g08.bks.cpg/sg65_38_cif.got.tgz:75348.got - 2010.06.03 17:01:31.
