data_PCOD9485740
_publ_section_title
;
Structure prediction by ZEFSAII (Michael W. Deem and Ramdas Pophale) SiO2 
 PCOD9485740
Probable space group: C M M M
;
_chemical_formula_sum "Si O2"
_cell_formula_units_Z 72
_cell_length_a 22.150828
_cell_length_b 16.112240
_cell_length_c 9.492382
_cell_angle_alpha 90.000000
_cell_angle_beta 90.000000
_cell_angle_gamma 90.000000
_cell_volume 3387.825981
_symmetry_space_group_name_H-M "C M M M"
_symmetry_group_IT_number 65
_symmetry_cell_setting 'orthorhombic'
loop_
_space_group_symop_operation_xyz
x,y,z
-x,-y,z
x,-y,-z
-x,y,-z
-x,-y,-z
x,y,-z
-x,y,z
x,-y,z
1/2+x,1/2+y,z
1/2-x,1/2-y,z
1/2+x,1/2-y,-z
1/2-x,1/2+y,-z
1/2-x,1/2-y,-z
1/2+x,1/2+y,-z
1/2-x,1/2+y,z
1/2+x,1/2-y,z
loop_
_atom_site_type_symbol
_atom_site_label
_atom_site_fract_x
_atom_site_fract_y
_atom_site_fract_z
Si Si1 0.257291 0.000000 0.160346
Si Si2 0.741156 0.156812 0.659605
Si Si3 0.902668 0.657652 0.340944
Si Si4 0.569667 0.500000 0.171454
Si Si5 0.072894 0.819729 0.839123
Si Si6 0.905219 0.500000 0.161631
O O1 0.237386 0.917461 0.242121
O O2 0.331194 0.000000 0.157900
O O3 0.235624 0.000000 0.000000
O O4 0.766690 0.153239 0.500000
O O5 0.750000 0.250000 0.715841
O O6 0.669274 0.145241 0.648514
O O7 0.926968 0.656939 0.500000
O O8 0.912243 0.744756 0.263561
O O9 0.925318 0.581899 0.245255
O O10 0.500000 0.500000 0.220643
O O11 0.595580 0.589730 0.211087
O O12 0.568691 0.500000 0.000000
O O13 0.000000 0.825508 0.846059
O O14 0.094270 0.803793 0.000000
O O15 0.925334 0.500000 0.000000
#
# Coordination Sequence:
#
# PCOD9485740 Si02
#       6
#     8  16  16   8  16   8
#     4   9  17  29  48  73  96 120 155 200 242 277
#     4   9  18  33  51  69  93 129 165 192 228 284
#     4  10  19  31  49  73  98 123 156 199 240 277
#     4   7  12  26  48  69  88 118 160 193 218 265
#     4   9  17  31  51  72  95 126 161 194 233 284
#     4   9  17  31  50  69  92 125 161 193 232 287
#
# _framework density 21.252568
#
# number of rings (size 3 to 8) (size 9 to 14) (size 15 to 20)
#    0.000    3.000    0.000    2.667    0.000    4.444 
#    0.000    2.222    0.000    9.333    0.000    0.000 
#    0.000    0.000    0.000    0.000    0.000    0.000 
#
# Total GULP energy -200842.956139 kJ/mol
# GULP energy per Si atom -5578.971004 kJ/mol
# Density = 2.120420 g / cm^3
# Si number density = 21.252568 Si / 1000 Ang^3
#
#
#
# Elastic Constant Matrix: (Units=GPa)
#
#
# Indices 1 2 3 4 5 6 
#
# 1 48.6660 -3.3902 5.5023 0.0000 0.0000 0.0000
# 2 -3.3902 248.6772 137.7296 0.0000 0.0000 0.0000
# 3 5.5023 137.7296 158.6426 0.0000 0.0000 0.0000
# 4 0.0000 0.0000 0.0000 -28.1757 0.0000 0.0000
# 5 0.0000 0.0000 0.0000 0.0000 46.3687 0.0000
# 6 0.0000 0.0000 0.0000 0.0000 0.0000 22.6213
#
#
#
# Elastic Compliance Matrix: (Units=1/GPa)
#
#
# Indices 1 2 3 4 5 6 
#
# 1 0.020851 0.001319 -0.001868 0.000000 0.000000 0.000000
# 2 0.001319 0.007829 -0.006843 0.000000 0.000000 0.000000
# 3 -0.001868 -0.006843 0.012309 0.000000 0.000000 0.000000
# 4 0.000000 0.000000 0.000000 -0.035492 0.000000 0.000000
# 5 0.000000 0.000000 0.000000 0.000000 0.021566 0.000000
# 6 0.000000 0.000000 0.000000 0.000000 0.000000 0.044206
#
#
# Mechanical properties :
#
#
# Convention : Reuss Voigt Hill
#
# Bulk Modulus (GPa) = 38.16026 81.74102 59.95064
# Shear Modulus (GPa) = 52.74834 29.23914 40.99374
#
# Velocity S-wave (km/s) = 4.98735 3.71319 4.39667
# Velocity P-wave (km/s) = 7.15258 7.54513 7.35147
#
# Compressibility (1/GPa) = 0.02620527
#
# Stress axis : x y z
#
# Youngs Moduli (GPa) = 47.95852 127.72782 81.24109
#
# Poissons Ratio (x) = -0.16848 0.15179
# Poissons Ratio (y) = -0.06326 0.55592
# Poissons Ratio (z) = 0.08960 0.87402
#
# Static dielectric constant tensor:
#      x y z
#    x 1.825250 0.000000 0.000000 
#    y 0.000000 1.762760 0.000000 
#    z 0.000000 0.000000 1.741200 
# 
# From -- ./inp_files/7392.got.cif
#   From: 2010.05.17/outbox.cif.g08.bks.cpg/sg65_4_cif.got.tgz:7392.got - 2010.06.03 17:01:31.
