data_PCOD9485337
_publ_section_title
;
Structure prediction by ZEFSAII (Michael W. Deem and Ramdas Pophale) SiO2 
 PCOD9485337
Probable space group: C M M M
;
_chemical_formula_sum "Si O2"
_cell_formula_units_Z 88
_cell_length_a 26.118208
_cell_length_b 16.957773
_cell_length_c 13.586210
_cell_angle_alpha 90.000000
_cell_angle_beta 90.000000
_cell_angle_gamma 90.000000
_cell_volume 6017.422654
_symmetry_space_group_name_H-M "C M M M"
_symmetry_group_IT_number 65
_symmetry_cell_setting 'orthorhombic'
loop_
_space_group_symop_operation_xyz
x,y,z
-x,-y,z
x,-y,-z
-x,y,-z
-x,-y,-z
x,y,-z
-x,y,z
x,-y,z
1/2+x,1/2+y,z
1/2-x,1/2-y,z
1/2+x,1/2-y,-z
1/2-x,1/2+y,-z
1/2-x,1/2-y,-z
1/2+x,1/2+y,-z
1/2-x,1/2+y,z
1/2+x,1/2-y,z
loop_
_atom_site_type_symbol
_atom_site_label
_atom_site_fract_x
_atom_site_fract_y
_atom_site_fract_z
Si Si1 0.642430 0.405472 0.384479
Si Si2 0.938108 0.000000 0.110847
Si Si3 0.439113 0.347720 0.759410
Si Si4 0.191464 0.590001 0.884305
Si Si5 0.129569 0.255399 0.115907
Si Si6 0.719334 0.328115 0.232790
O O1 0.648689 0.389797 0.500000
O O2 0.638718 0.500000 0.370951
O O3 0.591565 0.364325 0.340608
O O4 0.688751 0.370728 0.319694
O O5 0.924305 0.078198 0.170385
O O6 0.000000 0.000000 0.105162
O O7 0.917492 0.000000 0.000000
O O8 0.500000 0.346219 0.746803
O O9 0.417486 0.271989 0.816738
O O10 0.176316 0.500000 0.864624
O O11 0.147114 0.654487 0.867894
O O12 0.239946 0.615169 0.819401
O O13 0.205404 0.596614 0.000000
O O14 0.177685 0.202968 0.153359
O O15 0.119938 0.242941 0.000000
O O16 0.750000 0.250000 0.266828
#
# Coordination Sequence:
#
# PCOD9485337 Si02
#       6
#    16   8  16  16  16  16
#     4  10  20  32  45  62  86 116 149 185 224 264
#     4   9  16  26  41  61  83 107 136 170 207 251
#     4  10  19  31  45  62  85 114 148 183 220 262
#     4   9  16  27  45  67  91 120 150 178 213 260
#     4   9  17  28  43  65  92 118 145 179 218 260
#     4   9  17  29  45  65  89 117 147 182 218 257
#
# _framework density 14.624202
#
# number of rings (size 3 to 8) (size 9 to 14) (size 15 to 20)
#    0.000    2.636    0.909    1.636    0.000    4.000 
#    0.000    0.909    0.000    0.545    0.000    2.545 
#    0.000    0.000    0.000   14.727    0.000    0.000 
#
# Total GULP energy -245145.500432 kJ/mol
# GULP energy per Si atom -5571.488646 kJ/mol
# Density = 1.459092 g / cm^3
# Si number density = 14.624202 Si / 1000 Ang^3
#
#
#
# Elastic Constant Matrix: (Units=GPa)
#
#
# Indices 1 2 3 4 5 6 
#
# 1 72.7512 41.0575 39.6985 0.0000 0.0000 0.0000
# 2 41.0575 92.8104 54.0154 0.0000 0.0000 0.0000
# 3 39.6985 54.0154 86.4473 0.0000 0.0000 0.0000
# 4 0.0000 0.0000 0.0000 20.2794 0.0000 0.0000
# 5 0.0000 0.0000 0.0000 0.0000 15.7040 0.0000
# 6 0.0000 0.0000 0.0000 0.0000 0.0000 14.3699
#
#
#
# Elastic Compliance Matrix: (Units=1/GPa)
#
#
# Indices 1 2 3 4 5 6 
#
# 1 0.019981 -0.005498 -0.005740 0.000000 0.000000 0.000000
# 2 -0.005498 0.018445 -0.009000 0.000000 0.000000 0.000000
# 3 -0.005740 -0.009000 0.019827 0.000000 0.000000 0.000000
# 4 0.000000 0.000000 0.000000 0.049311 0.000000 0.000000
# 5 0.000000 0.000000 0.000000 0.000000 0.063678 0.000000
# 6 0.000000 0.000000 0.000000 0.000000 0.000000 0.069590
#
#
# Mechanical properties :
#
#
# Convention : Reuss Voigt Hill
#
# Bulk Modulus (GPa) = 56.25571 57.95020 57.10296
# Shear Modulus (GPa) = 17.40739 17.88651 17.64695
#
# Velocity S-wave (km/s) = 3.45383 3.50104 3.47752
# Velocity P-wave (km/s) = 7.37945 7.48701 7.43343
#
# Compressibility (1/GPa) = 0.01777597
#
# Stress axis : x y z
#
# Youngs Moduli (GPa) = 50.04832 54.21485 50.43547
#
# Poissons Ratio (x) = 0.29810 0.28950
# Poissons Ratio (y) = 0.27519 0.45393
# Poissons Ratio (z) = 0.28728 0.48794
#
# Static dielectric constant tensor:
#      x y z
#    x 1.475880 0.000000 0.000000 
#    y 0.000000 1.488670 0.000000 
#    z 0.000000 0.000000 1.469850 
# 
# From -- ./inp_files/32236.got.cif
#   From: 2010.05.17/outbox.cif.g08.bks.cpg/sg65_17_cif.got.tgz:32236.got - 2010.06.03 17:01:31.
