data_PCOD9485922
_publ_section_title
;
Structure prediction by ZEFSAII (Michael W. Deem and Ramdas Pophale) SiO2 
 PCOD9485922
Probable space group: C M M M
;
_chemical_formula_sum "Si O2"
_cell_formula_units_Z 72
_cell_length_a 21.428116
_cell_length_b 20.343578
_cell_length_c 7.289207
_cell_angle_alpha 90.000000
_cell_angle_beta 90.000000
_cell_angle_gamma 90.000000
_cell_volume 3177.544276
_symmetry_space_group_name_H-M "C M M M"
_symmetry_group_IT_number 65
_symmetry_cell_setting 'orthorhombic'
loop_
_space_group_symop_operation_xyz
x,y,z
-x,-y,z
x,-y,-z
-x,y,-z
-x,-y,-z
x,y,-z
-x,y,z
x,-y,z
1/2+x,1/2+y,z
1/2-x,1/2-y,z
1/2+x,1/2-y,-z
1/2-x,1/2+y,-z
1/2-x,1/2-y,-z
1/2+x,1/2+y,-z
1/2-x,1/2+y,z
1/2+x,1/2-y,z
loop_
_atom_site_type_symbol
_atom_site_label
_atom_site_fract_x
_atom_site_fract_y
_atom_site_fract_z
Si Si1 0.500000 0.626826 0.222915
Si Si2 0.744228 0.326244 0.776645
Si Si3 0.571963 0.000000 0.720040
Si Si4 0.000000 0.279783 0.224435
Si Si5 0.864851 0.925094 0.776316
Si Si6 0.620467 0.858174 0.791287
O O1 0.500000 0.703554 0.275001
O O2 0.435326 0.593204 0.281469
O O3 0.500000 0.624678 0.000000
O O4 0.750000 0.250000 0.723807
O O5 0.685355 0.370117 0.715734
O O6 0.810444 0.354632 0.712918
O O7 0.740498 0.328009 0.000000
O O8 0.601581 0.066343 0.791189
O O9 0.500000 0.000000 0.773194
O O10 0.576128 0.000000 0.500000
O O11 0.062780 0.316727 0.288506
O O12 0.000000 0.283937 0.000000
O O13 0.849048 0.000000 0.721594
O O14 0.864677 0.924210 0.000000
O O15 0.626605 0.832938 0.000000
#
# Coordination Sequence:
#
# PCOD9485922 Si02
#       6
#     8  16   8   8  16  16
#     4   9  15  24  38  56  89 127 160 195 238 290
#     4   9  17  28  43  67  99 131 164 205 252 297
#     4  11  23  37  51  71 101 134 169 212 260 303
#     4   9  16  26  42  66  88 117 159 200 236 284
#     4   9  16  24  35  55  86 127 166 195 235 294
#     4  10  19  31  51  74  99 130 168 207 249 298
#
# _framework density 22.659008
#
# number of rings (size 3 to 8) (size 9 to 14) (size 15 to 20)
#    0.000    2.556    1.111    2.000    1.556    7.111 
#    0.000    0.000    0.000    0.667    0.000    0.000 
#    0.000    0.000    0.000    1.000    0.000    3.111 
#
# Total GULP energy -201051.388301 kJ/mol
# GULP energy per Si atom -5584.760786 kJ/mol
# Density = 2.260743 g / cm^3
# Si number density = 22.659008 Si / 1000 Ang^3
#
#
#
# Elastic Constant Matrix: (Units=GPa)
#
#
# Indices 1 2 3 4 5 6 
#
# 1 223.7329 110.4607 8.1075 0.0000 0.0000 0.0000
# 2 110.4607 175.0074 -4.3531 0.0000 0.0000 0.0000
# 3 8.1075 -4.3531 93.3608 0.0000 0.0000 0.0000
# 4 0.0000 0.0000 0.0000 -51.1844 0.0000 0.0000
# 5 0.0000 0.0000 0.0000 0.0000 -20.2602 0.0000
# 6 0.0000 0.0000 0.0000 0.0000 0.0000 -5.3835
#
#
#
# Elastic Compliance Matrix: (Units=1/GPa)
#
#
# Indices 1 2 3 4 5 6 
#
# 1 0.006547 -0.004151 -0.000762 0.000000 0.000000 0.000000
# 2 -0.004151 0.008353 0.000750 0.000000 0.000000 0.000000
# 3 -0.000762 0.000750 0.010812 0.000000 0.000000 0.000000
# 4 0.000000 0.000000 0.000000 -0.019537 0.000000 0.000000
# 5 0.000000 0.000000 0.000000 0.000000 -0.049358 0.000000
# 6 0.000000 0.000000 0.000000 0.000000 0.000000 -0.185751
#
#
# Mechanical properties :
#
#
# Convention : Reuss Voigt Hill
#
# Bulk Modulus (GPa) = 57.51975 80.05902 68.78939
# Shear Modulus (GPa) = -23.27605 9.82679 -6.72463
#
# Velocity S-wave (km/s) = -3.20852 2.08476 -1.72459
# Velocity P-wave (km/s) = 3.42256 6.41902 5.14381
#
# Compressibility (1/GPa) = 0.01738533
#
# Stress axis : x y z
#
# Youngs Moduli (GPa) = 152.74911 119.72093 92.48741
#
# Poissons Ratio (x) = 0.49697 0.07048
# Poissons Ratio (y) = 0.63407 -0.06936
# Poissons Ratio (z) = 0.11641 -0.08978
#
# Static dielectric constant tensor:
#      x y z
#    x 1.866110 0.000000 0.000000 
#    y 0.000000 1.765440 0.000000 
#    z 0.000000 0.000000 1.891830 
# 
# From -- ./inp_files/11334.got.cif
#   From: 2010.05.17/outbox.cif.g08.bks.cpg/sg65_6_cif.got.tgz:11334.got - 2010.06.03 17:01:31.
