data_PCOD9485367
_publ_section_title
;
Structure prediction by ZEFSAII (Michael W. Deem and Ramdas Pophale) SiO2 
 PCOD9485367
Probable space group: C M M M
;
_chemical_formula_sum "Si O2"
_cell_formula_units_Z 80
_cell_length_a 8.923729
_cell_length_b 37.002079
_cell_length_c 17.317914
_cell_angle_alpha 90.000000
_cell_angle_beta 90.000000
_cell_angle_gamma 90.000000
_cell_volume 5718.315031
_symmetry_space_group_name_H-M "C M M M"
_symmetry_group_IT_number 65
_symmetry_cell_setting 'orthorhombic'
loop_
_space_group_symop_operation_xyz
x,y,z
-x,-y,z
x,-y,-z
-x,y,-z
-x,-y,-z
x,y,-z
-x,y,z
x,-y,z
1/2+x,1/2+y,z
1/2-x,1/2-y,z
1/2+x,1/2-y,-z
1/2-x,1/2+y,-z
1/2-x,1/2-y,-z
1/2+x,1/2+y,-z
1/2-x,1/2+y,z
1/2+x,1/2-y,z
loop_
_atom_site_type_symbol
_atom_site_label
_atom_site_fract_x
_atom_site_fract_y
_atom_site_fract_z
Si Si1 0.672334 0.713012 0.406183
Si Si2 0.320857 0.862907 0.408857
Si Si3 0.680381 0.428952 0.683767
Si Si4 0.682019 0.500000 0.411895
Si Si5 0.179059 0.457030 0.161563
Si Si6 0.827290 0.043856 0.000000
O O1 0.671970 0.714333 0.500000
O O2 0.500000 0.711009 0.380814
O O3 0.750000 0.750000 0.379303
O O4 0.761346 0.676721 0.385823
O O5 0.283512 0.868396 0.500000
O O6 0.500000 0.864418 0.401402
O O7 0.244072 0.893627 0.357854
O O8 0.500000 0.427682 0.686220
O O9 0.727376 0.463995 0.633340
O O10 0.745534 0.435386 0.768841
O O11 0.500000 0.500000 0.413634
O O12 0.735918 0.500000 0.500000
O O13 0.213802 0.500000 0.171745
O O14 0.000000 0.453172 0.163002
O O15 0.243665 0.445458 0.078526
O O16 0.000000 0.055752 0.000000
O O17 0.826761 0.000000 0.000000
#
# Coordination Sequence:
#
# PCOD9485367 Si02
#       6
#    16  16  16   8  16   8
#     4   9  16  27  44  64  84 108 139 176 218 264
#     4  10  20  32  44  61  86 115 148 186 226 266
#     4  11  20  31  46  62  84 113 149 188 225 263
#     4   9  18  30  43  58  77 106 147 191 228 259
#     4  10  19  31  46  64  87 111 139 176 222 268
#     4   9  17  29  47  67  85 105 136 173 214 263
#
# _framework density 13.990135
#
# number of rings (size 3 to 8) (size 9 to 14) (size 15 to 20)
#    0.000    2.200    1.000    3.300    0.000    6.400 
#    0.000    0.000    0.000    2.400    0.000    0.000 
#    0.000    0.000    0.000    0.900    0.000   12.600 
#
# Total GULP energy -223091.783642 kJ/mol
# GULP energy per Si atom -5577.294591 kJ/mol
# Density = 1.395829 g / cm^3
# Si number density = 13.990135 Si / 1000 Ang^3
#
#
#
# Elastic Constant Matrix: (Units=GPa)
#
#
# Indices 1 2 3 4 5 6 
#
# 1 79.0283 49.7492 49.1722 0.0000 0.0000 0.0000
# 2 49.7492 107.3297 57.2674 0.0000 0.0000 0.0000
# 3 49.1722 57.2674 104.4822 0.0000 0.0000 0.0000
# 4 0.0000 0.0000 0.0000 2.4274 0.0000 0.0000
# 5 0.0000 0.0000 0.0000 0.0000 21.6912 0.0000
# 6 0.0000 0.0000 0.0000 0.0000 0.0000 23.8707
#
#
#
# Elastic Compliance Matrix: (Units=1/GPa)
#
#
# Indices 1 2 3 4 5 6 
#
# 1 0.020390 -0.006121 -0.006241 0.000000 0.000000 0.000000
# 2 -0.006121 0.015006 -0.005344 0.000000 0.000000 0.000000
# 3 -0.006241 -0.005344 0.015437 0.000000 0.000000 0.000000
# 4 0.000000 0.000000 0.000000 0.411959 0.000000 0.000000
# 5 0.000000 0.000000 0.000000 0.000000 0.046102 0.000000
# 6 0.000000 0.000000 0.000000 0.000000 0.000000 0.041892
#
#
# Mechanical properties :
#
#
# Convention : Reuss Voigt Hill
#
# Bulk Modulus (GPa) = 64.84764 67.02420 65.93592
# Shear Modulus (GPa) = 8.45539 18.57462 13.51500
#
# Velocity S-wave (km/s) = 2.46109 3.64771 3.11149
# Velocity P-wave (km/s) = 7.38437 8.10884 7.75507
#
# Compressibility (1/GPa) = 0.01542076
#
# Stress axis : x y z
#
# Youngs Moduli (GPa) = 49.04268 66.64134 64.77802
#
# Poissons Ratio (x) = 0.40793 0.40429
# Poissons Ratio (y) = 0.30020 0.34617
# Poissons Ratio (z) = 0.30609 0.35613
#
# Static dielectric constant tensor:
#      x y z
#    x 1.465600 0.000000 0.000000 
#    y 0.000000 1.440920 0.000000 
#    z 0.000000 0.000000 1.440820 
# 
# From -- ./inp_files/50189.got.cif
#   From: 2010.05.17/outbox.cif.g08.bks.cpg/sg65_26_cif.got.tgz:50189.got - 2010.06.03 17:01:31.
