data_PCOD9485366
_publ_section_title
;
Structure prediction by ZEFSAII (Michael W. Deem and Ramdas Pophale) SiO2 
 PCOD9485366
Probable space group: C M M M
;
_chemical_formula_sum "Si O2"
_cell_formula_units_Z 104
_cell_length_a 8.375737
_cell_length_b 28.028519
_cell_length_c 27.791902
_cell_angle_alpha 90.000000
_cell_angle_beta 90.000000
_cell_angle_gamma 90.000000
_cell_volume 6524.413119
_symmetry_space_group_name_H-M "C M M M"
_symmetry_group_IT_number 65
_symmetry_cell_setting 'orthorhombic'
loop_
_space_group_symop_operation_xyz
x,y,z
-x,-y,z
x,-y,-z
-x,y,-z
-x,-y,-z
x,y,-z
-x,y,z
x,-y,z
1/2+x,1/2+y,z
1/2-x,1/2-y,z
1/2+x,1/2-y,-z
1/2-x,1/2+y,-z
1/2-x,1/2-y,-z
1/2+x,1/2+y,-z
1/2-x,1/2+y,z
1/2+x,1/2-y,z
loop_
_atom_site_type_symbol
_atom_site_label
_atom_site_fract_x
_atom_site_fract_y
_atom_site_fract_z
Si Si1 0.804756 0.444317 0.156528
Si Si2 0.189073 0.695620 0.500000
Si Si3 0.690340 0.942310 0.948214
Si Si4 0.306840 0.101853 0.255385
Si Si5 0.690928 0.801991 0.305799
Si Si6 0.307196 0.553347 0.351609
Si Si7 0.808862 0.850479 0.598189
O O1 0.760155 0.500000 0.162249
O O2 0.747862 0.426360 0.104012
O O3 0.751562 0.414967 0.202989
O O4 0.000000 0.443207 0.155474
O O5 0.250000 0.750000 0.500000
O O6 0.246521 0.668359 0.452336
O O7 0.000000 0.697168 0.500000
O O8 0.500000 0.932317 0.948921
O O9 0.705193 0.000000 0.947516
O O10 0.756972 0.925660 0.000000
O O11 0.500000 0.100164 0.255740
O O12 0.256879 0.155220 0.270458
O O13 0.246671 0.067497 0.297906
O O14 0.500000 0.802029 0.307718
O O15 0.750000 0.750000 0.291474
O O16 0.755012 0.815939 0.358550
O O17 0.500000 0.553398 0.352605
O O18 0.251565 0.500000 0.364026
O O19 0.252446 0.596315 0.386464
O O20 0.000000 0.850911 0.596672
#
# Coordination Sequence:
#
# PCOD9485366 Si02
#       7
#    16   8  16  16  16  16  16
#     4   8  12  18  30  50  77 107 136 166 202 243
#     4  12  24  38  55  74  95 115 140 175 215 254
#     4   7   9  13  22  39  67 103 136 162 194 240
#     4   9  17  27  41  62  85 110 141 176 211 250
#     4  10  19  31  46  64  86 111 139 171 211 255
#     4   9  18  32  49  68  91 119 147 173 202 240
#     4  10  20  35  53  72  93 116 143 172 204 244
#
# _framework density 15.940130999999999
#
# number of rings (size 3 to 8) (size 9 to 14) (size 15 to 20)
#    0.000    2.923    0.000    3.923    0.000    2.154 
#    0.000    0.385    0.000    2.308    0.000    0.000 
#    0.000    1.231    0.000    6.154    0.000    5.538 
#
# Total GULP energy -289584.128959 kJ/mol
# GULP energy per Si atom -5568.925557 kJ/mol
# Density = 1.590385 g / cm^3
# Si number density = 15.940131 Si / 1000 Ang^3
#
#
#
# Elastic Constant Matrix: (Units=GPa)
#
#
# Indices 1 2 3 4 5 6 
#
# 1 20.2313 14.8370 17.8913 0.0000 0.0000 0.0000
# 2 14.8370 95.9730 64.5216 0.0000 0.0000 0.0000
# 3 17.8913 64.5216 165.4235 0.0000 0.0000 0.0000
# 4 0.0000 0.0000 0.0000 15.3505 0.0000 0.0000
# 5 0.0000 0.0000 0.0000 0.0000 1.2576 0.0000
# 6 0.0000 0.0000 0.0000 0.0000 0.0000 12.2187
#
#
#
# Elastic Compliance Matrix: (Units=1/GPa)
#
#
# Indices 1 2 3 4 5 6 
#
# 1 0.057392 -0.006370 -0.003723 0.000000 0.000000 0.000000
# 2 -0.006370 0.014830 -0.005095 0.000000 0.000000 0.000000
# 3 -0.003723 -0.005095 0.008435 0.000000 0.000000 0.000000
# 4 0.000000 0.000000 0.000000 0.065144 0.000000 0.000000
# 5 0.000000 0.000000 0.000000 0.000000 0.795193 0.000000
# 6 0.000000 0.000000 0.000000 0.000000 0.000000 0.081842
#
#
# Mechanical properties :
#
#
# Convention : Reuss Voigt Hill
#
# Bulk Modulus (GPa) = 19.88811 52.90306 36.39558
# Shear Modulus (GPa) = 4.67302 18.05721 11.36512
#
# Velocity S-wave (km/s) = 1.71405 3.36938 2.67308
# Velocity P-wave (km/s) = 4.05230 6.95684 5.69292
#
# Compressibility (1/GPa) = 0.05028130
#
# Stress axis : x y z
#
# Youngs Moduli (GPa) = 17.42402 67.43151 118.55247
#
# Poissons Ratio (x) = 0.42953 0.44134
# Poissons Ratio (y) = 0.11099 0.60406
# Poissons Ratio (z) = 0.06486 0.34358
#
# Static dielectric constant tensor:
#      x y z
#    x 1.543400 0.000000 0.000000 
#    y 0.000000 1.529620 0.000000 
#    z 0.000000 0.000000 1.556950 
# 
# From -- ./inp_files/73731.got.cif
#   From: 2010.05.17/outbox.cif.g08.bks.cpg/sg65_37_cif.got.tgz:73731.got - 2010.06.03 17:01:31.
