data_PCOD9485863
_publ_section_title
;
Structure prediction by ZEFSAII (Michael W. Deem and Ramdas Pophale) SiO2 
 PCOD9485863
Probable space group: C M M M
;
_chemical_formula_sum "Si O2"
_cell_formula_units_Z 96
_cell_length_a 26.207299
_cell_length_b 24.368972
_cell_length_c 7.649865
_cell_angle_alpha 90.000000
_cell_angle_beta 90.000000
_cell_angle_gamma 90.000000
_cell_volume 4885.547540
_symmetry_space_group_name_H-M "C M M M"
_symmetry_group_IT_number 65
_symmetry_cell_setting 'orthorhombic'
loop_
_space_group_symop_operation_xyz
x,y,z
-x,-y,z
x,-y,-z
-x,y,-z
-x,-y,-z
x,y,-z
-x,y,z
x,-y,z
1/2+x,1/2+y,z
1/2-x,1/2-y,z
1/2+x,1/2-y,-z
1/2-x,1/2+y,-z
1/2-x,1/2-y,-z
1/2+x,1/2+y,-z
1/2-x,1/2+y,z
1/2+x,1/2-y,z
loop_
_atom_site_type_symbol
_atom_site_label
_atom_site_fract_x
_atom_site_fract_y
_atom_site_fract_z
Si Si1 0.350334 0.881816 0.785491
Si Si2 0.156606 0.880475 0.706840
Si Si3 0.442262 0.193636 0.789153
Si Si4 0.803884 0.000000 0.791152
Si Si5 0.244942 0.310820 0.204929
Si Si6 0.057624 0.819360 0.708873
Si Si7 0.685772 0.000000 0.786196
O O1 0.401344 0.850774 0.727834
O O2 0.301589 0.846734 0.723853
O O3 0.342129 0.944429 0.730176
O O4 0.350422 0.882300 0.000000
O O5 0.157201 0.870355 0.500000
O O6 0.202987 0.844805 0.782277
O O7 0.102175 0.859009 0.776237
O O8 0.167926 0.944389 0.736550
O O9 0.500000 0.184305 0.725082
O O10 0.427636 0.255966 0.741574
O O11 0.443180 0.191134 0.000000
O O12 0.745000 0.000000 0.727807
O O13 0.801444 0.000000 0.000000
O O14 0.250000 0.250000 0.282220
O O15 0.232667 0.303593 0.000000
O O16 0.054638 0.827074 0.500000
O O17 0.000000 0.827596 0.779397
O O18 0.686847 0.000000 0.000000
#
# Coordination Sequence:
#
# PCOD9485863 Si02
#       7
#    16  16  16   8  16  16   8
#     4   9  16  28  46  71 101 133 171 209 250 303
#     4  11  22  35  53  78 106 132 169 220 265 302
#     4   9  17  30  51  78 104 130 167 217 260 293
#     4  11  21  37  58  75  99 140 181 210 253 315
#     4  10  19  31  50  75 103 138 175 210 256 316
#     4   9  19  36  55  74 101 138 171 200 250 318
#     4   9  16  29  50  70  93 133 176 205 238 299
#
# _framework density 19.649794
#
# number of rings (size 3 to 8) (size 9 to 14) (size 15 to 20)
#    0.000    2.333    1.667    1.750    0.000    3.000 
#    0.000    1.667    0.000    5.000    0.000    0.000 
#    0.000    2.667    0.000    0.000    0.000    0.000 
#
# Total GULP energy -267914.457287 kJ/mol
# GULP energy per Si atom -5581.551193 kJ/mol
# Density = 1.960507 g / cm^3
# Si number density = 19.649794 Si / 1000 Ang^3
#
#
#
# Elastic Constant Matrix: (Units=GPa)
#
#
# Indices 1 2 3 4 5 6 
#
# 1 134.8878 98.6093 -9.0697 0.0000 0.0000 0.0000
# 2 98.6093 175.4512 -14.9475 0.0000 0.0000 0.0000
# 3 -9.0697 -14.9475 30.6549 0.0000 0.0000 0.0000
# 4 0.0000 0.0000 0.0000 191.3178 0.0000 0.0000
# 5 0.0000 0.0000 0.0000 0.0000 8.9785 0.0000
# 6 0.0000 0.0000 0.0000 0.0000 0.0000 19.2413
#
#
#
# Elastic Compliance Matrix: (Units=1/GPa)
#
#
# Indices 1 2 3 4 5 6 
#
# 1 0.012586 -0.007050 0.000286 0.000000 0.000000 0.000000
# 2 -0.007050 0.009895 0.002739 0.000000 0.000000 0.000000
# 3 0.000286 0.002739 0.034042 0.000000 0.000000 0.000000
# 4 0.000000 0.000000 0.000000 0.005227 0.000000 0.000000
# 5 0.000000 0.000000 0.000000 0.000000 0.111377 0.000000
# 6 0.000000 0.000000 0.000000 0.000000 0.000000 0.051972
#
#
# Mechanical properties :
#
#
# Convention : Reuss Voigt Hill
#
# Bulk Modulus (GPa) = 20.62913 54.46424 37.54669
# Shear Modulus (GPa) = 20.05579 61.66765 40.86172
#
# Velocity S-wave (km/s) = 3.19825 5.60816 4.56510
# Velocity P-wave (km/s) = 4.91524 8.34943 6.85100
#
# Compressibility (1/GPa) = 0.04847513
#
# Stress axis : x y z
#
# Youngs Moduli (GPa) = 79.45093 101.06077 29.37584
#
# Poissons Ratio (x) = 0.71243 -0.00841
# Poissons Ratio (y) = 0.56009 -0.08047
# Poissons Ratio (z) = -0.02276 -0.27682
#
# Static dielectric constant tensor:
#      x y z
#    x 1.690830 0.000000 0.000000 
#    y 0.000000 1.650390 0.000000 
#    z 0.000000 0.000000 1.730800 
# 
# From -- ./inp_files/14397.got.cif
#   From: 2010.05.17/outbox.cif.g08.bks.cpg/sg65_8_cif.got.tgz:14397.got - 2010.06.03 17:01:31.
