data_PCOD9485040
_publ_section_title
;
Structure prediction by ZEFSAII (Michael W. Deem and Ramdas Pophale) SiO2 
 PCOD9485040
Probable space group: C M M M
;
_chemical_formula_sum "Si O2"
_cell_formula_units_Z 72
_cell_length_a 28.538316
_cell_length_b 7.995979
_cell_length_c 19.873361
_cell_angle_alpha 90.000000
_cell_angle_beta 90.000000
_cell_angle_gamma 90.000000
_cell_volume 4534.937530
_symmetry_space_group_name_H-M "C M M M"
_symmetry_group_IT_number 65
_symmetry_cell_setting 'orthorhombic'
loop_
_space_group_symop_operation_xyz
x,y,z
-x,-y,z
x,-y,-z
-x,y,-z
-x,-y,-z
x,y,-z
-x,y,z
x,-y,z
1/2+x,1/2+y,z
1/2-x,1/2-y,z
1/2+x,1/2-y,-z
1/2-x,1/2+y,-z
1/2-x,1/2-y,-z
1/2+x,1/2+y,-z
1/2-x,1/2+y,z
1/2+x,1/2-y,z
loop_
_atom_site_type_symbol
_atom_site_label
_atom_site_fract_x
_atom_site_fract_y
_atom_site_fract_z
Si Si1 0.944299 0.000000 0.923890
Si Si2 0.603617 0.194007 0.149538
Si Si3 0.445078 0.697039 0.279981
Si Si4 0.302494 0.800084 0.076463
Si Si5 0.443977 0.200061 0.427123
O O1 0.927622 0.830609 0.888392
O O2 0.000000 0.000000 0.923841
O O3 0.926324 0.000000 0.000000
O O4 0.588216 0.211278 0.227023
O O5 0.656628 0.243876 0.128790
O O6 0.596368 0.000000 0.128711
O O7 0.500000 0.753954 0.274561
O O8 0.444709 0.500000 0.264510
O O9 0.428394 0.722777 0.356730
O O10 0.250000 0.750000 0.096095
O O11 0.303020 0.000000 0.072196
O O12 0.311584 0.734601 0.000000
O O13 0.425281 0.259019 0.500000
O O14 0.500000 0.230317 0.428726
O O15 0.437238 0.000000 0.423733
#
# Coordination Sequence:
#
# PCOD9485040 Si02
#       5
#     8  16  16  16  16
#     4  11  24  38  52  72  97 131 173 209 247 295
#     4  11  22  36  53  73 100 131 166 209 253 301
#     4  10  19  30  45  67  96 131 170 205 242 289
#     4   9  19  34  53  76  96 120 156 201 260 316
#     4   8  14  25  41  62  89 123 163 203 242 285
#
# _framework density 15.876734000000001
#
# number of rings (size 3 to 8) (size 9 to 14) (size 15 to 20)
#    0.000    2.333    1.111    2.667    1.556    4.444 
#    0.000    3.333    0.000    0.000    0.000    0.000 
#    0.000    0.889    0.000    2.889    0.000    3.556 
#
# Total GULP energy -200490.168202 kJ/mol
# GULP energy per Si atom -5569.171339 kJ/mol
# Density = 1.584060 g / cm^3
# Si number density = 15.876734 Si / 1000 Ang^3
#
#
#
# Elastic Constant Matrix: (Units=GPa)
#
#
# Indices 1 2 3 4 5 6 
#
# 1 74.5014 19.2362 50.2798 0.0000 0.0000 0.0000
# 2 19.2362 51.8606 34.2585 0.0000 0.0000 0.0000
# 3 50.2798 34.2585 113.1437 0.0000 0.0000 0.0000
# 4 0.0000 0.0000 0.0000 25.9131 0.0000 0.0000
# 5 0.0000 0.0000 0.0000 0.0000 22.3737 0.0000
# 6 0.0000 0.0000 0.0000 0.0000 0.0000 19.2937
#
#
#
# Elastic Compliance Matrix: (Units=1/GPa)
#
#
# Indices 1 2 3 4 5 6 
#
# 1 0.019316 -0.001868 -0.008018 0.000000 0.000000 0.000000
# 2 -0.001868 0.024284 -0.006523 0.000000 0.000000 0.000000
# 3 -0.008018 -0.006523 0.014377 0.000000 0.000000 0.000000
# 4 0.000000 0.000000 0.000000 0.038591 0.000000 0.000000
# 5 0.000000 0.000000 0.000000 0.000000 0.044695 0.000000
# 6 0.000000 0.000000 0.000000 0.000000 0.000000 0.051830
#
#
# Mechanical properties :
#
#
# Convention : Reuss Voigt Hill
#
# Bulk Modulus (GPa) = 39.74755 49.67274 44.71015
# Shear Modulus (GPa) = 21.34032 22.56483 21.95258
#
# Velocity S-wave (km/s) = 3.67021 3.77404 3.72249
# Velocity P-wave (km/s) = 6.56125 7.09546 6.83358
#
# Compressibility (1/GPa) = 0.02515878
#
# Stress axis : x y z
#
# Youngs Moduli (GPa) = 51.76965 41.17896 69.55744
#
# Poissons Ratio (x) = 0.07692 0.55774
# Poissons Ratio (y) = 0.09671 0.45371
# Poissons Ratio (z) = 0.41511 0.26860
#
# Static dielectric constant tensor:
#      x y z
#    x 1.510540 0.000000 0.000000 
#    y 0.000000 -1.036490 0.000000 
#    z 0.000000 0.000000 1.574940 
# 
# From -- ./inp_files/64998.got.cif
#   From: 2010.05.17/outbox.cif.g08.bks.cpg/sg65_33_cif.got.tgz:64998.got - 2010.06.03 17:01:31.
