data_PCOD9485257
_publ_section_title
;
Structure prediction by ZEFSAII (Michael W. Deem and Ramdas Pophale) SiO2 
 PCOD9485257
Probable space group: C M M M
;
_chemical_formula_sum "Si O2"
_cell_formula_units_Z 104
_cell_length_a 22.164024
_cell_length_b 14.220205
_cell_length_c 19.747797
_cell_angle_alpha 90.000000
_cell_angle_beta 90.000000
_cell_angle_gamma 90.000000
_cell_volume 6224.050722
_symmetry_space_group_name_H-M "C M M M"
_symmetry_group_IT_number 65
_symmetry_cell_setting 'orthorhombic'
loop_
_space_group_symop_operation_xyz
x,y,z
-x,-y,z
x,-y,-z
-x,y,-z
-x,-y,-z
x,y,-z
-x,y,z
x,-y,z
1/2+x,1/2+y,z
1/2-x,1/2-y,z
1/2+x,1/2-y,-z
1/2-x,1/2+y,-z
1/2-x,1/2-y,-z
1/2+x,1/2+y,-z
1/2-x,1/2+y,z
1/2+x,1/2-y,z
loop_
_atom_site_type_symbol
_atom_site_label
_atom_site_fract_x
_atom_site_fract_y
_atom_site_fract_z
Si Si1 0.110085 0.292566 0.841625
Si Si2 0.711710 0.112456 0.075292
Si Si3 0.718877 0.607794 0.713660
Si Si4 0.847782 0.294959 0.308145
Si Si5 0.070621 0.387791 0.420815
Si Si6 0.835207 0.106470 0.134853
Si Si7 0.000000 0.612983 0.079960
O O1 0.172866 0.334895 0.869182
O O2 0.112462 0.300517 0.760535
O O3 0.112691 0.182988 0.861648
O O4 0.057647 0.346710 0.880305
O O5 0.782602 0.132632 0.082315
O O6 0.705094 0.000000 0.084920
O O7 0.689889 0.136106 0.000000
O O8 0.711733 0.500000 0.689878
O O9 0.787451 0.642645 0.703827
O O10 0.676058 0.688147 0.681926
O O11 0.699676 0.609063 0.792793
O O12 0.885840 0.332645 0.370773
O O13 0.082723 0.367828 0.500000
O O14 0.078460 0.500000 0.410837
O O15 0.000000 0.366447 0.407788
O O16 0.855456 0.000000 0.122615
O O17 0.000000 0.500000 0.083422
O O18 0.000000 0.638666 0.000000
#
# Coordination Sequence:
#
# PCOD9485257 Si02
#       7
#    16  16  16  16  16  16   8
#     4  11  21  34  52  74  98 133 174 208 249 301
#     4  10  19  30  48  74 101 130 165 207 256 304
#     4   9  17  31  50  77 112 138 161 206 257 298
#     4  10  19  31  54  82 102 133 176 207 245 303
#     4   9  19  35  54  78 108 139 169 208 256 294
#     4   9  18  33  51  73 101 129 165 213 258 298
#     4  11  26  42  51  67 100 136 167 208 263 313
#
# _framework density 16.709375000000001
#
# number of rings (size 3 to 8) (size 9 to 14) (size 15 to 20)
#    0.000    2.231    1.538    2.308    1.077    4.923 
#    0.000    1.923    0.000    2.308    0.000    1.077 
#    0.000    0.000    0.000    0.000    0.000    0.000 
#
# Total GULP energy -290002.994000 kJ/mol
# GULP energy per Si atom -5576.980654 kJ/mol
# Density = 1.667134 g / cm^3
# Si number density = 16.709375 Si / 1000 Ang^3
#
#
#
# Elastic Constant Matrix: (Units=GPa)
#
#
# Indices 1 2 3 4 5 6 
#
# 1 62.5837 53.4596 47.2049 0.0000 0.0000 0.0000
# 2 53.4596 101.7633 50.1440 0.0000 0.0000 0.0000
# 3 47.2049 50.1440 78.3287 0.0000 0.0000 0.0000
# 4 0.0000 0.0000 0.0000 20.4411 0.0000 0.0000
# 5 0.0000 0.0000 0.0000 0.0000 26.4565 0.0000
# 6 0.0000 0.0000 0.0000 0.0000 0.0000 25.8170
#
#
#
# Elastic Compliance Matrix: (Units=1/GPa)
#
#
# Indices 1 2 3 4 5 6 
#
# 1 0.037904 -0.012645 -0.014748 0.000000 0.000000 0.000000
# 2 -0.012645 0.018574 -0.004270 0.000000 0.000000 0.000000
# 3 -0.014748 -0.004270 0.024388 0.000000 0.000000 0.000000
# 4 0.000000 0.000000 0.000000 0.048921 0.000000 0.000000
# 5 0.000000 0.000000 0.000000 0.000000 0.037798 0.000000
# 6 0.000000 0.000000 0.000000 0.000000 0.000000 0.038734
#
#
# Mechanical properties :
#
#
# Convention : Reuss Voigt Hill
#
# Bulk Modulus (GPa) = 57.01225 60.47697 58.74461
# Shear Modulus (GPa) = 18.14944 20.66740 19.40842
#
# Velocity S-wave (km/s) = 3.29930 3.52074 3.41182
# Velocity P-wave (km/s) = 6.97910 7.26632 7.12416
#
# Compressibility (1/GPa) = 0.01754009
#
# Stress axis : x y z
#
# Youngs Moduli (GPa) = 26.38240 53.83985 41.00419
#
# Poissons Ratio (x) = 0.68082 0.60472
# Poissons Ratio (y) = 0.33361 0.17507
# Poissons Ratio (z) = 0.38908 0.22988
#
# Static dielectric constant tensor:
#      x y z
#    x 1.557280 0.000000 0.000000 
#    y 0.000000 1.595520 0.000000 
#    z 0.000000 0.000000 1.546980 
# 
# From -- ./inp_files/55873.got.cif
#   From: 2010.05.17/outbox.cif.g08.bks.cpg/sg65_28_cif.got.tgz:55873.got - 2010.06.03 17:01:31.
