data_PCOD9485696
_publ_section_title
;
Structure prediction by ZEFSAII (Michael W. Deem and Ramdas Pophale) SiO2 
 PCOD9485696
Probable space group: C M M M
;
_chemical_formula_sum "Si O2"
_cell_formula_units_Z 116
_cell_length_a 7.957169
_cell_length_b 28.456294
_cell_length_c 31.416584
_cell_angle_alpha 90.000000
_cell_angle_beta 90.000000
_cell_angle_gamma 90.000000
_cell_volume 7113.705511
_symmetry_space_group_name_H-M "C M M M"
_symmetry_group_IT_number 65
_symmetry_cell_setting 'orthorhombic'
loop_
_space_group_symop_operation_xyz
x,y,z
-x,-y,z
x,-y,-z
-x,y,-z
-x,-y,-z
x,y,-z
-x,y,z
x,-y,z
1/2+x,1/2+y,z
1/2-x,1/2-y,z
1/2+x,1/2-y,-z
1/2-x,1/2+y,-z
1/2-x,1/2-y,-z
1/2+x,1/2+y,-z
1/2-x,1/2+y,z
1/2+x,1/2-y,z
loop_
_atom_site_type_symbol
_atom_site_label
_atom_site_fract_x
_atom_site_fract_y
_atom_site_fract_z
Si Si1 0.801017 0.107400 0.369304
Si Si2 0.701803 0.946783 0.452283
Si Si3 0.199596 0.696410 0.320585
Si Si4 0.203700 0.946455 0.714677
Si Si5 0.694963 0.698126 0.154744
Si Si6 0.000000 0.834992 0.000000
Si Si7 0.299855 0.856454 0.763813
Si Si8 0.802782 0.304646 0.060573
O O1 0.746270 0.088593 0.414890
O O2 0.753980 0.160530 0.357390
O O3 0.734307 0.074706 0.330573
O O4 0.000000 0.103641 0.367774
O O5 0.761814 0.934327 0.500000
O O6 0.500000 0.948762 0.454027
O O7 0.762464 0.000000 0.442461
O O8 0.250000 0.750000 0.326890
O O9 0.266154 0.675267 0.275777
O O10 0.000000 0.694201 0.318083
O O11 0.260858 0.909819 0.750533
O O12 0.000000 0.946375 0.714156
O O13 0.260170 0.000000 0.720430
O O14 0.500000 0.700888 0.143365
O O15 0.750000 0.750000 0.170090
O O16 0.723212 0.661312 0.192298
O O17 0.792011 0.687143 0.111234
O O18 0.846426 0.832345 0.036579
O O19 0.500000 0.850373 0.766843
O O20 0.750000 0.250000 0.053122
O O21 0.000000 0.311103 0.047855
#
# Coordination Sequence:
#
# PCOD9485696 Si02
#       8
#    16  16  16  16  16   4  16  16
#     4  10  19  31  49  72  98 125 156 196 238 281
#     4   9  18  32  49  70  97 128 158 189 232 285
#     4  10  20  33  49  70  94 123 162 201 240 282
#     4   9  18  32  48  69  96 126 158 192 236 285
#     4  11  20  33  46  65  93 125 166 206 243 289
#     4  12  20  32  42  66  88 122 167 206 247 298
#     4  10  20  32  48  69  93 126 160 197 242 283
#     4  11  20  30  44  63  88 122 162 208 247 291
#
# _framework density 16.306550000000001
#
# number of rings (size 3 to 8) (size 9 to 14) (size 15 to 20)
#    0.000    1.931    1.379    4.966    0.000    4.690 
#    0.000    0.690    0.000    0.414    0.000    0.000 
#    0.000    0.000    0.000    1.241    0.000    5.379 
#
# Total GULP energy -322912.313945 kJ/mol
# GULP energy per Si atom -5567.453689 kJ/mol
# Density = 1.626944 g / cm^3
# Si number density = 16.306550 Si / 1000 Ang^3
#
#
#
# Elastic Constant Matrix: (Units=GPa)
#
#
# Indices 1 2 3 4 5 6 
#
# 1 78.4682 10.1724 20.1217 0.0000 0.0000 0.0000
# 2 10.1724 87.2276 56.7820 0.0000 0.0000 0.0000
# 3 20.1217 56.7820 104.9285 0.0000 0.0000 0.0000
# 4 0.0000 0.0000 0.0000 56.0654 0.0000 0.0000
# 5 0.0000 0.0000 0.0000 0.0000 25.2578 0.0000
# 6 0.0000 0.0000 0.0000 0.0000 0.0000 19.0938
#
#
#
# Elastic Compliance Matrix: (Units=1/GPa)
#
#
# Indices 1 2 3 4 5 6 
#
# 1 0.013405 0.000170 -0.002663 0.000000 0.000000 0.000000
# 2 0.000170 0.017701 -0.009612 0.000000 0.000000 0.000000
# 3 -0.002663 -0.009612 0.015242 0.000000 0.000000 0.000000
# 4 0.000000 0.000000 0.000000 0.017836 0.000000 0.000000
# 5 0.000000 0.000000 0.000000 0.000000 0.039592 0.000000
# 6 0.000000 0.000000 0.000000 0.000000 0.000000 0.052373
#
#
# Mechanical properties :
#
#
# Convention : Reuss Voigt Hill
#
# Bulk Modulus (GPa) = 45.16752 49.41963 47.29357
# Shear Modulus (GPa) = 26.63295 32.31997 29.47646
#
# Velocity S-wave (km/s) = 4.04575 4.45682 4.25625
# Velocity P-wave (km/s) = 7.04154 7.54034 7.29521
#
# Compressibility (1/GPa) = 0.02213980
#
# Stress axis : x y z
#
# Youngs Moduli (GPa) = 74.60047 56.49325 65.60732
#
# Poissons Ratio (x) = -0.00960 0.17468
# Poissons Ratio (y) = -0.01268 0.63059
# Poissons Ratio (z) = 0.19863 0.54299
#
# Static dielectric constant tensor:
#      x y z
#    x 1.583160 0.000000 0.000000 
#    y 0.000000 1.515080 0.000000 
#    z 0.000000 0.000000 1.567940 
# 
# From -- ./inp_files/77156.got.cif
#   From: 2010.05.17/outbox.cif.g08.bks.cpg/sg65_39_cif.got.tgz:77156.got - 2010.06.03 17:01:31.
