data_PCOD9485153
_publ_section_title
;
Structure prediction by ZEFSAII (Michael W. Deem and Ramdas Pophale) SiO2 
 PCOD9485153
Probable space group: C M M M
;
_chemical_formula_sum "Si O2"
_cell_formula_units_Z 104
_cell_length_a 23.668152
_cell_length_b 29.039272
_cell_length_c 7.345566
_cell_angle_alpha 90.000000
_cell_angle_beta 90.000000
_cell_angle_gamma 90.000000
_cell_volume 5048.650878
_symmetry_space_group_name_H-M "C M M M"
_symmetry_group_IT_number 65
_symmetry_cell_setting 'orthorhombic'
loop_
_space_group_symop_operation_xyz
x,y,z
-x,-y,z
x,-y,-z
-x,y,-z
-x,-y,-z
x,y,-z
-x,y,z
x,-y,z
1/2+x,1/2+y,z
1/2-x,1/2-y,z
1/2+x,1/2-y,-z
1/2-x,1/2+y,-z
1/2-x,1/2-y,-z
1/2+x,1/2+y,-z
1/2-x,1/2+y,z
1/2+x,1/2-y,z
loop_
_atom_site_type_symbol
_atom_site_label
_atom_site_fract_x
_atom_site_fract_y
_atom_site_fract_z
Si Si1 0.436038 0.730068 0.220047
Si Si2 0.735824 0.699807 0.290481
Si Si3 0.068621 0.500000 0.214062
Si Si4 0.639645 0.184427 0.779668
Si Si5 0.368157 0.359047 0.289224
Si Si6 0.934982 0.599058 0.222634
Si Si7 0.434697 0.447411 0.278015
O O1 0.500000 0.741207 0.278188
O O2 0.390018 0.767932 0.279931
O O3 0.416989 0.679560 0.280343
O O4 0.435709 0.730532 0.000000
O O5 0.718296 0.708756 0.500000
O O6 0.750000 0.750000 0.206576
O O7 0.797034 0.676962 0.286304
O O8 0.686841 0.667484 0.210176
O O9 0.087092 0.450658 0.286966
O O10 0.000000 0.500000 0.226695
O O11 0.082634 0.500000 0.000000
O O12 0.601045 0.142275 0.720119
O O13 0.641016 0.185345 0.000000
O O14 0.354050 0.368765 0.500000
O O15 0.392974 0.406861 0.213835
O O16 0.000000 0.604317 0.277565
O O17 0.934848 0.598208 0.000000
O O18 0.434344 0.446299 0.500000
O O19 0.500000 0.438618 0.223498
O O20 0.420054 0.500000 0.224716
#
# Coordination Sequence:
#
# PCOD9485153 Si02
#       7
#    16  16   8  16  16  16  16
#     4  10  20  31  44  68 100 125 146 182 231 278
#     4  10  20  34  48  64  90 123 158 194 226 260
#     4   7  10  18  36  62  89 115 143 179 222 265
#     4  10  19  30  47  68  91 122 156 189 227 273
#     4  10  19  32  51  70  90 123 160 191 226 273
#     4   8  13  23  41  66  93 118 147 186 231 274
#     4   8  14  26  47  75  98 112 140 193 243 276
#
# _framework density 20.599563
#
# number of rings (size 3 to 8) (size 9 to 14) (size 15 to 20)
#    0.000    2.846    1.538    2.308    0.000    3.692 
#    0.000    0.000    1.692    1.846    0.000    2.154 
#    0.000    1.846    0.000    0.000    0.000    0.000 
#
# Total GULP energy -289995.734843 kJ/mol
# GULP energy per Si atom -5576.841055 kJ/mol
# Density = 2.055268 g / cm^3
# Si number density = 20.599563 Si / 1000 Ang^3
#
#
#
# Elastic Constant Matrix: (Units=GPa)
#
#
# Indices 1 2 3 4 5 6 
#
# 1 118.4790 74.5171 2.4457 0.0000 0.0000 0.0000
# 2 74.5171 178.3626 7.8986 0.0000 0.0000 0.0000
# 3 2.4457 7.8986 77.7992 0.0000 0.0000 0.0000
# 4 0.0000 0.0000 0.0000 22.2597 0.0000 0.0000
# 5 0.0000 0.0000 0.0000 0.0000 9.4388 0.0000
# 6 0.0000 0.0000 0.0000 0.0000 0.0000 27.6890
#
#
#
# Elastic Compliance Matrix: (Units=1/GPa)
#
#
# Indices 1 2 3 4 5 6 
#
# 1 0.011450 -0.004789 0.000126 0.000000 0.000000 0.000000
# 2 -0.004789 0.007635 -0.000625 0.000000 0.000000 0.000000
# 3 0.000126 -0.000625 0.012913 0.000000 0.000000 0.000000
# 4 0.000000 0.000000 0.000000 0.044924 0.000000 0.000000
# 5 0.000000 0.000000 0.000000 0.000000 0.105946 0.000000
# 6 0.000000 0.000000 0.000000 0.000000 0.000000 0.036115
#
#
# Mechanical properties :
#
#
# Convention : Reuss Voigt Hill
#
# Bulk Modulus (GPa) = 46.67880 60.48483 53.58182
# Shear Modulus (GPa) = 21.12384 31.19611 26.15998
#
# Velocity S-wave (km/s) = 3.20574 3.89576 3.56747
# Velocity P-wave (km/s) = 6.03421 7.04712 6.56024
#
# Compressibility (1/GPa) = 0.02142300
#
# Stress axis : x y z
#
# Youngs Moduli (GPa) = 87.33743 130.97483 77.44104
#
# Poissons Ratio (x) = 0.62726 -0.00978
# Poissons Ratio (y) = 0.41827 0.04837
# Poissons Ratio (z) = -0.01103 0.08181
#
# Static dielectric constant tensor:
#      x y z
#    x 1.721960 0.000000 0.000000 
#    y 0.000000 1.751940 0.000000 
#    z 0.000000 0.000000 1.821300 
# 
# From -- ./inp_files/14726.got.cif
#   From: 2010.05.17/outbox.cif.g08.bks.cpg/sg65_8_cif.got.tgz:14726.got - 2010.06.03 17:01:31.
