data_PCOD9485801
_publ_section_title
;
Structure prediction by ZEFSAII (Michael W. Deem and Ramdas Pophale) SiO2 
 PCOD9485801
Probable space group: C M M M
;
_chemical_formula_sum "Si O2"
_cell_formula_units_Z 112
_cell_length_a 18.534870
_cell_length_b 7.524792
_cell_length_c 38.069506
_cell_angle_alpha 90.000000
_cell_angle_beta 90.000000
_cell_angle_gamma 90.000000
_cell_volume 5309.593651
_symmetry_space_group_name_H-M "C M M M"
_symmetry_group_IT_number 65
_symmetry_cell_setting 'orthorhombic'
loop_
_space_group_symop_operation_xyz
x,y,z
-x,-y,z
x,-y,-z
-x,y,-z
-x,-y,-z
x,y,-z
-x,y,z
x,-y,z
1/2+x,1/2+y,z
1/2-x,1/2-y,z
1/2+x,1/2-y,-z
1/2-x,1/2+y,-z
1/2-x,1/2-y,-z
1/2+x,1/2+y,-z
1/2-x,1/2+y,z
1/2+x,1/2-y,z
loop_
_atom_site_type_symbol
_atom_site_label
_atom_site_fract_x
_atom_site_fract_y
_atom_site_fract_z
Si Si1 0.165411 0.286884 0.817345
Si Si2 0.083513 0.717611 0.252514
Si Si3 0.583918 0.713365 0.037709
Si Si4 0.334718 0.212768 0.322359
Si Si5 0.916787 0.717659 0.608062
Si Si6 0.334526 0.213055 0.460939
Si Si7 0.082410 0.288545 0.885577
O O1 0.157148 0.500000 0.817420
O O2 0.250000 0.250000 0.815714
O O3 0.124039 0.221818 0.782684
O O4 0.129357 0.218281 0.853303
O O5 0.084640 0.500000 0.252513
O O6 0.125014 0.778410 0.287435
O O7 0.000000 0.771019 0.252743
O O8 0.500000 0.774450 0.038541
O O9 0.583081 0.500000 0.036788
O O10 0.615128 0.761877 0.075549
O O11 0.614816 0.774894 0.000000
O O12 0.250000 0.250000 0.321323
O O13 0.371267 0.278517 0.358240
O O14 0.343676 0.000000 0.322469
O O15 0.914946 0.500000 0.607825
O O16 0.881329 0.779319 0.571619
O O17 0.000000 0.770161 0.610998
O O18 0.353236 0.281374 0.500000
O O19 0.250000 0.250000 0.454857
O O20 0.343343 0.000000 0.461905
O O21 0.076900 0.500000 0.881028
O O22 0.000000 0.216868 0.884892
#
# Coordination Sequence:
#
# PCOD9485801 Si02
#       7
#    16  16  16  16  16  16  16
#     4  10  20  33  49  69  94 123 154 189 228 272
#     4   9  17  31  52  74  94 120 156 193 228 270
#     4   8  14  25  42  66  95 123 150 184 229 277
#     4  10  19  31  50  73  96 124 156 191 232 277
#     4   9  17  29  46  69  94 120 157 201 236 272
#     4   9  17  29  46  67  91 121 155 193 239 287
#     4   9  17  29  46  68  92 119 153 191 228 266
#
# _framework density 21.093893999999999
#
# number of rings (size 3 to 8) (size 9 to 14) (size 15 to 20)
#    0.000    2.857    0.000    2.143    0.000    4.571 
#    0.000    2.857    0.000    5.571    0.000    2.000 
#    0.000    0.000    0.000    0.000    0.000    0.000 
#
# Total GULP energy -312476.796963 kJ/mol
# GULP energy per Si atom -5579.942803 kJ/mol
# Density = 2.104588 g / cm^3
# Si number density = 21.093894 Si / 1000 Ang^3
#
#
#
# Elastic Constant Matrix: (Units=GPa)
#
#
# Indices 1 2 3 4 5 6 
#
# 1 148.7654 -2.3763 135.9177 0.0000 0.0000 0.0000
# 2 -2.3763 53.1037 9.6614 0.0000 0.0000 0.0000
# 3 135.9177 9.6614 261.3163 0.0000 0.0000 0.0000
# 4 0.0000 0.0000 0.0000 33.6336 0.0000 0.0000
# 5 0.0000 0.0000 0.0000 0.0000 19.0623 0.0000
# 6 0.0000 0.0000 0.0000 0.0000 0.0000 19.9487
#
#
#
# Elastic Compliance Matrix: (Units=1/GPa)
#
#
# Indices 1 2 3 4 5 6 
#
# 1 0.012982 0.001822 -0.006819 0.000000 0.000000 0.000000
# 2 0.001822 0.019214 -0.001658 0.000000 0.000000 0.000000
# 3 -0.006819 -0.001658 0.007435 0.000000 0.000000 0.000000
# 4 0.000000 0.000000 0.000000 0.029732 0.000000 0.000000
# 5 0.000000 0.000000 0.000000 0.000000 0.052460 0.000000
# 6 0.000000 0.000000 0.000000 0.000000 0.000000 0.050128
#
#
# Mechanical properties :
#
#
# Convention : Reuss Voigt Hill
#
# Bulk Modulus (GPa) = 37.99463 83.28789 60.64126
# Shear Modulus (GPa) = 25.76846 35.86108 30.81477
#
# Velocity S-wave (km/s) = 3.49894 4.12766 3.82624
# Velocity P-wave (km/s) = 5.86299 7.89220 6.95204
#
# Compressibility (1/GPa) = 0.02631951
#
# Stress axis : x y z
#
# Youngs Moduli (GPa) = 77.03227 52.04475 134.49828
#
# Poissons Ratio (x) = -0.09481 0.91720
# Poissons Ratio (y) = -0.14032 0.22298
# Poissons Ratio (z) = 0.52532 0.08628
#
# Static dielectric constant tensor:
#      x y z
#    x 1.700470 0.000000 0.000000 
#    y 0.000000 1.810770 0.000000 
#    z 0.000000 0.000000 1.778460 
# 
# From -- ./inp_files/77440.got.cif
#   From: 2010.05.17/outbox.cif.g08.bks.cpg/sg65_39_cif.got.tgz:77440.got - 2010.06.03 17:01:31.
