data_PCOD9485614
_publ_section_title
;
Structure prediction by ZEFSAII (Michael W. Deem and Ramdas Pophale) SiO2 
 PCOD9485614
Probable space group: C M M M
;
_chemical_formula_sum "Si O2"
_cell_formula_units_Z 104
_cell_length_a 8.668943
_cell_length_b 26.377893
_cell_length_c 26.903077
_cell_angle_alpha 90.000000
_cell_angle_beta 90.000000
_cell_angle_gamma 90.000000
_cell_volume 6151.884941
_symmetry_space_group_name_H-M "C M M M"
_symmetry_group_IT_number 65
_symmetry_cell_setting 'orthorhombic'
loop_
_space_group_symop_operation_xyz
x,y,z
-x,-y,z
x,-y,-z
-x,y,-z
-x,-y,-z
x,y,-z
-x,y,z
x,-y,z
1/2+x,1/2+y,z
1/2-x,1/2-y,z
1/2+x,1/2-y,-z
1/2-x,1/2+y,-z
1/2-x,1/2-y,-z
1/2+x,1/2+y,-z
1/2-x,1/2+y,z
1/2+x,1/2-y,z
loop_
_atom_site_type_symbol
_atom_site_label
_atom_site_fract_x
_atom_site_fract_y
_atom_site_fract_z
Si Si1 0.678551 0.938493 0.000000
Si Si2 0.685266 0.804740 0.731385
Si Si3 0.185526 0.000000 0.266252
Si Si4 0.315697 0.559624 0.105288
Si Si5 0.188180 0.098451 0.442957
Si Si6 0.315315 0.903757 0.206858
Si Si7 0.814469 0.804720 0.379079
Si Si8 0.311804 0.500000 0.381316
O O1 0.758948 0.922600 0.948791
O O2 0.500000 0.923583 0.000000
O O3 0.686210 0.000000 0.000000
O O4 0.500000 0.801946 0.728226
O O5 0.750000 0.750000 0.747187
O O6 0.728833 0.850532 0.767826
O O7 0.751855 0.815012 0.676352
O O8 0.246056 0.950155 0.238466
O O9 0.235917 0.000000 0.323855
O O10 0.000000 0.000000 0.264334
O O11 0.500000 0.561963 0.107592
O O12 0.270619 0.500000 0.111158
O O13 0.243574 0.590125 0.150759
O O14 0.239929 0.095525 0.500000
O O15 0.233582 0.150403 0.415940
O O16 0.238678 0.050157 0.410690
O O17 0.000000 0.097526 0.443497
O O18 0.500000 0.907728 0.207631
O O19 0.750000 0.750000 0.394553
O O20 0.000000 0.802686 0.377198
O O21 0.500000 0.500000 0.381354
#
# Coordination Sequence:
#
# PCOD9485614 Si02
#       8
#     8  16   8  16  16  16  16   8
#     4   9  17  29  47  69 100 143 180 215 258 301
#     4  10  21  36  54  75  99 132 170 210 255 306
#     4  11  21  32  49  75 103 134 170 205 250 303
#     4  10  19  31  48  73 104 139 179 217 253 297
#     4   9  17  29  46  69  95 123 157 198 244 293
#     4  11  22  34  50  74 105 137 170 210 258 306
#     4  10  19  32  51  73  97 125 157 199 247 301
#     4   9  17  29  46  67  93 125 160 199 242 291
#
# _framework density 16.905387999999999
#
# number of rings (size 3 to 8) (size 9 to 14) (size 15 to 20)
#    0.000    2.077    0.769    4.385    0.000    6.462 
#    0.000    0.000    0.000    1.385    0.000    0.538 
#    0.000    9.846    0.000    0.000    0.000    0.000 
#
# Total GULP energy -290257.476220 kJ/mol
# GULP energy per Si atom -5581.874543 kJ/mol
# Density = 1.686691 g / cm^3
# Si number density = 16.905388 Si / 1000 Ang^3
#
#
#
# Elastic Constant Matrix: (Units=GPa)
#
#
# Indices 1 2 3 4 5 6 
#
# 1 39.8143 32.2612 36.1167 0.0000 0.0000 0.0000
# 2 32.2612 114.2477 94.2974 0.0000 0.0000 0.0000
# 3 36.1167 94.2974 158.0486 0.0000 0.0000 0.0000
# 4 0.0000 0.0000 0.0000 1.5597 0.0000 0.0000
# 5 0.0000 0.0000 0.0000 0.0000 18.6750 0.0000
# 6 0.0000 0.0000 0.0000 0.0000 0.0000 18.3407
#
#
#
# Elastic Compliance Matrix: (Units=1/GPa)
#
#
# Indices 1 2 3 4 5 6 
#
# 1 0.033804 -0.006245 -0.003999 0.000000 0.000000 0.000000
# 2 -0.006245 0.018399 -0.009550 0.000000 0.000000 0.000000
# 3 -0.003999 -0.009550 0.012939 0.000000 0.000000 0.000000
# 4 0.000000 0.000000 0.000000 0.641157 0.000000 0.000000
# 5 0.000000 0.000000 0.000000 0.000000 0.053547 0.000000
# 6 0.000000 0.000000 0.000000 0.000000 0.000000 0.054524
#
#
# Mechanical properties :
#
#
# Convention : Reuss Voigt Hill
#
# Bulk Modulus (GPa) = 39.13306 70.82901 54.98104
# Shear Modulus (GPa) = 5.79725 17.67743 11.73734
#
# Velocity S-wave (km/s) = 1.85383 3.23719 2.63781
# Velocity P-wave (km/s) = 5.27075 7.48069 6.47076
#
# Compressibility (1/GPa) = 0.02555384
#
# Stress axis : x y z
#
# Youngs Moduli (GPa) = 29.58194 54.35035 77.28517
#
# Poissons Ratio (x) = 0.33943 0.30905
# Poissons Ratio (y) = 0.18474 0.73811
# Poissons Ratio (z) = 0.11829 0.51907
#
# Static dielectric constant tensor:
#      x y z
#    x 1.573890 0.000000 0.000000 
#    y 0.000000 1.553110 0.000000 
#    z 0.000000 0.000000 1.557780 
# 
# From -- ./inp_files/68329.got.cif
#   From: 2010.05.17/outbox.cif.g08.bks.cpg/sg65_35_cif.got.tgz:68329.got - 2010.06.03 17:01:31.
