data_PCOD9485958
_publ_section_title
;
Structure prediction by ZEFSAII (Michael W. Deem and Ramdas Pophale) SiO2 
 PCOD9485958
Probable space group: C M M M
;
_chemical_formula_sum "Si O2"
_cell_formula_units_Z 88
_cell_length_a 8.490919
_cell_length_b 18.776940
_cell_length_c 29.420576
_cell_angle_alpha 90.000000
_cell_angle_beta 90.000000
_cell_angle_gamma 90.000000
_cell_volume 4690.624715
_symmetry_space_group_name_H-M "C M M M"
_symmetry_group_IT_number 65
_symmetry_cell_setting 'orthorhombic'
loop_
_space_group_symop_operation_xyz
x,y,z
-x,-y,z
x,-y,-z
-x,y,-z
-x,-y,-z
x,y,-z
-x,y,z
x,-y,z
1/2+x,1/2+y,z
1/2-x,1/2-y,z
1/2+x,1/2-y,-z
1/2-x,1/2+y,-z
1/2-x,1/2-y,-z
1/2+x,1/2+y,-z
1/2-x,1/2+y,z
1/2+x,1/2-y,z
loop_
_atom_site_type_symbol
_atom_site_label
_atom_site_fract_x
_atom_site_fract_y
_atom_site_fract_z
Si Si1 0.309411 0.669206 0.000000
Si Si2 0.688581 0.669502 0.550399
Si Si3 0.811853 0.582200 0.635667
Si Si4 0.692255 0.417748 0.910651
Si Si5 0.189963 0.917408 0.266942
Si Si6 0.690654 0.669506 0.178529
O O1 0.250000 0.750000 0.000000
O O2 0.257985 0.626282 0.955080
O O3 0.500000 0.670636 0.000000
O O4 0.736690 0.642519 0.500000
O O5 0.500000 0.669822 0.552200
O O6 0.750000 0.750000 0.554123
O O7 0.753005 0.624675 0.592187
O O8 0.758912 0.500000 0.631831
O O9 0.748163 0.609168 0.684102
O O10 0.000000 0.584034 0.636910
O O11 0.500000 0.418858 0.910765
O O12 0.744107 0.500000 0.911629
O O13 0.741750 0.376772 0.865043
O O14 0.243294 0.869275 0.224878
O O15 0.000000 0.917586 0.267103
O O16 0.241908 0.000000 0.261270
O O17 0.500000 0.670340 0.178543
O O18 0.750000 0.750000 0.175672
#
# Coordination Sequence:
#
# PCOD9485958 Si02
#       6
#     8  16  16  16  16  16
#     4  10  19  31  51  77 105 136 168 210 260 306
#     4  10  21  37  57  80 107 140 177 217 261 310
#     4  10  21  36  55  80 109 140 174 215 262 311
#     4   9  17  31  52  76 100 131 175 217 251 297
#     4   9  18  34  54  73  96 131 174 215 255 302
#     4  10  20  33  51  75 102 132 167 211 260 308
#
# _framework density 18.760826999999999
#
# number of rings (size 3 to 8) (size 9 to 14) (size 15 to 20)
#    0.000    2.364    0.000    2.455    0.000    7.273 
#    0.000    3.636    0.000    3.818    0.000    0.000 
#    0.000    0.000    0.000    0.000    0.000    0.000 
#
# Total GULP energy -245596.021416 kJ/mol
# GULP energy per Si atom -5581.727759 kJ/mol
# Density = 1.871813 g / cm^3
# Si number density = 18.760827 Si / 1000 Ang^3
#
#
#
# Elastic Constant Matrix: (Units=GPa)
#
#
# Indices 1 2 3 4 5 6 
#
# 1 9.9794 16.9100 29.2168 0.0000 0.0000 0.0000
# 2 16.9100 137.1269 119.6436 0.0000 0.0000 0.0000
# 3 29.2168 119.6436 230.8679 0.0000 0.0000 0.0000
# 4 0.0000 0.0000 0.0000 90.3692 0.0000 0.0000
# 5 0.0000 0.0000 0.0000 0.0000 9.5025 0.0000
# 6 0.0000 0.0000 0.0000 0.0000 0.0000 29.4035
#
#
#
# Elastic Compliance Matrix: (Units=1/GPa)
#
#
# Indices 1 2 3 4 5 6 
#
# 1 0.160248 -0.003773 -0.018324 0.000000 0.000000 0.000000
# 2 -0.003773 0.013400 -0.006467 0.000000 0.000000 0.000000
# 3 -0.018324 -0.006467 0.010002 0.000000 0.000000 0.000000
# 4 0.000000 0.000000 0.000000 0.011066 0.000000 0.000000
# 5 0.000000 0.000000 0.000000 0.000000 0.105235 0.000000
# 6 0.000000 0.000000 0.000000 0.000000 0.000000 0.034010
#
#
# Mechanical properties :
#
#
# Convention : Reuss Voigt Hill
#
# Bulk Modulus (GPa) = 7.90383 78.83503 43.36943
# Shear Modulus (GPa) = 11.54033 40.00196 25.77115
#
# Velocity S-wave (km/s) = 2.48287 4.62259 3.71032
# Velocity P-wave (km/s) = 3.52727 8.40259 6.44380
#
# Compressibility (1/GPa) = 0.12652093
#
# Stress axis : x y z
#
# Youngs Moduli (GPa) = 6.24034 74.62539 99.98128
#
# Poissons Ratio (x) = 0.28157 1.83209
# Poissons Ratio (y) = 0.02355 0.64658
# Poissons Ratio (z) = 0.11435 0.48260
#
# Static dielectric constant tensor:
#      x y z
#    x 1.644930 0.000000 0.000000 
#    y 0.000000 1.619340 0.000000 
#    z 0.000000 0.000000 1.642390 
# 
# From -- ./inp_files/67472.got.cif
#   From: 2010.05.17/outbox.cif.g08.bks.cpg/sg65_34_cif.got.tgz:67472.got - 2010.06.03 17:01:31.
