data_PCOD9485766
_publ_section_title
;
Structure prediction by ZEFSAII (Michael W. Deem and Ramdas Pophale) SiO2 
 PCOD9485766
Probable space group: C M M M
;
_chemical_formula_sum "Si O2"
_cell_formula_units_Z 64
_cell_length_a 15.291790
_cell_length_b 15.763345
_cell_length_c 12.620548
_cell_angle_alpha 90.000000
_cell_angle_beta 90.000000
_cell_angle_gamma 90.000000
_cell_volume 3042.180085
_symmetry_space_group_name_H-M "C M M M"
_symmetry_group_IT_number 65
_symmetry_cell_setting 'orthorhombic'
loop_
_space_group_symop_operation_xyz
x,y,z
-x,-y,z
x,-y,-z
-x,y,-z
-x,-y,-z
x,y,-z
-x,y,z
x,-y,z
1/2+x,1/2+y,z
1/2-x,1/2-y,z
1/2+x,1/2-y,-z
1/2-x,1/2+y,-z
1/2-x,1/2-y,-z
1/2+x,1/2+y,-z
1/2-x,1/2+y,z
1/2+x,1/2-y,z
loop_
_atom_site_type_symbol
_atom_site_label
_atom_site_fract_x
_atom_site_fract_y
_atom_site_fract_z
Si Si1 0.256499 0.896060 0.378464
Si Si2 0.398440 0.102333 0.208936
Si Si3 0.903252 0.868623 0.000000
Si Si4 0.338007 0.193771 0.000000
Si Si5 0.099629 0.099985 0.233601
O O1 0.258640 0.868385 0.500000
O O2 0.341573 0.871600 0.310728
O O3 0.169999 0.865054 0.316135
O O4 0.254190 0.000000 0.378313
O O5 0.500000 0.128841 0.214021
O O6 0.352551 0.139276 0.104670
O O7 0.396976 0.000000 0.202729
O O8 0.908812 0.768047 0.000000
O O9 0.864074 0.892751 0.113375
O O10 0.000000 0.907327 0.000000
O O11 0.250000 0.250000 0.000000
O O12 0.000000 0.135386 0.237225
O O13 0.092294 0.000000 0.255705
#
# Coordination Sequence:
#
# PCOD9485766 Si02
#       5
#    16  16   8   8  16
#     4   9  18  32  51  78 108 138 182 238 287 331
#     4  10  21  38  60  84 113 150 190 233 280 333
#     4  10  19  31  49  74 105 138 176 225 275 328
#     4  12  23  35  55  83 112 142 177 224 282 338
#     4   9  17  30  50  77 111 151 190 229 279 339
#
# _framework density 21.037544
#
# number of rings (size 3 to 8) (size 9 to 14) (size 15 to 20)
#    0.000    2.250    0.000    3.375    0.000    3.500 
#    0.000   10.000    0.000    6.750    0.000    7.000 
#    0.000    0.000    0.000    0.000    0.000    0.000 
#
# Total GULP energy -178556.121482 kJ/mol
# GULP energy per Si atom -5579.878796 kJ/mol
# Density = 2.098966 g / cm^3
# Si number density = 21.037544 Si / 1000 Ang^3
#
#
#
# Elastic Constant Matrix: (Units=GPa)
#
#
# Indices 1 2 3 4 5 6 
#
# 1 182.4158 18.1934 114.3262 0.0000 0.0000 0.0000
# 2 18.1934 26.6827 11.9323 0.0000 0.0000 0.0000
# 3 114.3262 11.9323 225.3835 0.0000 0.0000 0.0000
# 4 0.0000 0.0000 0.0000 -43.6826 0.0000 0.0000
# 5 0.0000 0.0000 0.0000 0.0000 -281.5745 0.0000
# 6 0.0000 0.0000 0.0000 0.0000 0.0000 18.5960
#
#
#
# Elastic Compliance Matrix: (Units=1/GPa)
#
#
# Indices 1 2 3 4 5 6 
#
# 1 0.008420 -0.003924 -0.004063 0.000000 0.000000 0.000000
# 2 -0.003924 0.040215 -0.000139 0.000000 0.000000 0.000000
# 3 -0.004063 -0.000139 0.006505 0.000000 0.000000 0.000000
# 4 0.000000 0.000000 0.000000 -0.022892 0.000000 0.000000
# 5 0.000000 0.000000 0.000000 0.000000 -0.003551 0.000000
# 6 0.000000 0.000000 0.000000 0.000000 0.000000 0.053775
#
#
# Mechanical properties :
#
#
# Convention : Reuss Voigt Hill
#
# Bulk Modulus (GPa) = 25.71453 80.37620 53.04536
# Shear Modulus (GPa) = 44.76827 -41.99689 1.38569
#
# Velocity S-wave (km/s) = 4.61805 -4.47283 0.81247
# Velocity P-wave (km/s) = 6.37847 3.40795 5.11366
#
# Compressibility (1/GPa) = 0.03888852
#
# Stress axis : x y z
#
# Youngs Moduli (GPa) = 118.76563 24.86631 153.72004
#
# Poissons Ratio (x) = 0.09758 0.62461
# Poissons Ratio (y) = 0.46604 0.02131
# Poissons Ratio (z) = 0.48258 0.00345
#
# Static dielectric constant tensor:
#      x y z
#    x 1.835200 0.000000 0.000000 
#    y 0.000000 1.763340 0.000000 
#    z 0.000000 0.000000 1.732920 
# 
# From -- ./inp_files/23974.got.cif
#   From: 2010.05.17/outbox.cif.g08.bks.cpg/sg65_12_cif.got.tgz:23974.got - 2010.06.03 17:01:31.
