data_PCOD9485628
_publ_section_title
;
Structure prediction by ZEFSAII (Michael W. Deem and Ramdas Pophale) SiO2 
 PCOD9485628
Probable space group: C M M M
;
_chemical_formula_sum "Si O2"
_cell_formula_units_Z 72
_cell_length_a 18.134087
_cell_length_b 7.361286
_cell_length_c 25.238045
_cell_angle_alpha 90.000000
_cell_angle_beta 90.000000
_cell_angle_gamma 90.000000
_cell_volume 3369.031694
_symmetry_space_group_name_H-M "C M M M"
_symmetry_group_IT_number 65
_symmetry_cell_setting 'orthorhombic'
loop_
_space_group_symop_operation_xyz
x,y,z
-x,-y,z
x,-y,-z
-x,y,-z
-x,-y,-z
x,y,-z
-x,y,z
x,-y,z
1/2+x,1/2+y,z
1/2-x,1/2-y,z
1/2+x,1/2-y,-z
1/2-x,1/2+y,-z
1/2-x,1/2-y,-z
1/2+x,1/2+y,-z
1/2-x,1/2+y,z
1/2+x,1/2-y,z
loop_
_atom_site_type_symbol
_atom_site_label
_atom_site_fract_x
_atom_site_fract_y
_atom_site_fract_z
Si Si1 0.336621 0.216475 0.500000
Si Si2 0.162465 0.282846 0.286204
Si Si3 0.338483 0.782650 0.942916
Si Si4 0.338331 0.782907 0.828821
Si Si5 0.585188 0.777985 0.606889
O O1 0.250000 0.250000 0.500000
O O2 0.372840 0.285234 0.554240
O O3 0.348934 0.000000 0.500000
O O4 0.151828 0.500000 0.285048
O O5 0.250000 0.250000 0.290727
O O6 0.135909 0.213275 0.228534
O O7 0.122224 0.214250 0.338562
O O8 0.250000 0.750000 0.942874
O O9 0.366407 0.713156 0.885844
O O10 0.349503 0.000000 0.942962
O O11 0.366363 0.713255 0.000000
O O12 0.250000 0.750000 0.828707
O O13 0.349961 0.000000 0.829096
O O14 0.500000 0.726696 0.604522
O O15 0.588519 0.000000 0.607302
#
# Coordination Sequence:
#
# PCOD9485628 Si02
#       5
#     8  16  16  16  16
#     4  10  19  31  49  69  87 108 134 164 196 232
#     4   9  16  26  41  59  79 103 131 164 198 233
#     4   8  12  17  25  38  59  87 116 145 179 221
#     4   8  13  20  30  46  67  91 120 152 187 225
#     4   9  17  29  45  64  84 107 136 166 194 227
#
# _framework density 21.371126
#
# number of rings (size 3 to 8) (size 9 to 14) (size 15 to 20)
#    0.000    3.333    0.000    1.000    0.000    1.333 
#    0.000    0.000    0.000    3.333    0.000    0.000 
#    0.000    0.889    0.000   12.444    0.000    4.222 
#
# Total GULP energy -200524.855519 kJ/mol
# GULP energy per Si atom -5570.134876 kJ/mol
# Density = 2.132248 g / cm^3
# Si number density = 21.371126 Si / 1000 Ang^3
#
#
#
# Elastic Constant Matrix: (Units=GPa)
#
#
# Indices 1 2 3 4 5 6 
#
# 1 62.3725 -4.2189 89.6300 0.0000 0.0000 0.0000
# 2 -4.2189 84.4497 15.1230 0.0000 0.0000 0.0000
# 3 89.6300 15.1230 329.2696 0.0000 0.0000 0.0000
# 4 0.0000 0.0000 0.0000 -4.1578 0.0000 0.0000
# 5 0.0000 0.0000 0.0000 0.0000 -8.2506 0.0000
# 6 0.0000 0.0000 0.0000 0.0000 0.0000 7.8058
#
#
#
# Elastic Compliance Matrix: (Units=1/GPa)
#
#
# Indices 1 2 3 4 5 6 
#
# 1 0.026922 0.002679 -0.007451 0.000000 0.000000 0.000000
# 2 0.002679 0.012206 -0.001290 0.000000 0.000000 0.000000
# 3 -0.007451 -0.001290 0.005125 0.000000 0.000000 0.000000
# 4 0.000000 0.000000 0.000000 -0.240512 0.000000 0.000000
# 5 0.000000 0.000000 0.000000 0.000000 -0.121204 0.000000
# 6 0.000000 0.000000 0.000000 0.000000 0.000000 0.128110
#
#
# Mechanical properties :
#
#
# Convention : Reuss Voigt Hill
#
# Bulk Modulus (GPa) = 31.12512 75.24001 53.18257
# Shear Modulus (GPa) = -30.02642 24.11666 -2.95488
#
# Velocity S-wave (km/s) = -3.75240 3.36291 -1.17714
# Velocity P-wave (km/s) = 2.04408 7.09660 4.80539
#
# Compressibility (1/GPa) = 0.03212839
#
# Stress axis : x y z
#
# Youngs Moduli (GPa) = 37.14494 81.92543 195.13762
#
# Poissons Ratio (x) = -0.21950 1.45404
# Poissons Ratio (y) = -0.09952 0.25172
# Poissons Ratio (z) = 0.27678 0.10568
#
# Static dielectric constant tensor:
#      x y z
#    x 1.486540 0.000000 0.000000 
#    y 0.000000 1.790950 0.000000 
#    z 0.000000 0.000000 1.857240 
# 
# From -- ./inp_files/67060.got.cif
#   From: 2010.05.17/outbox.cif.g08.bks.cpg/sg65_34_cif.got.tgz:67060.got - 2010.06.03 17:01:31.
