data_PCOD9485783
_publ_section_title
;
Structure prediction by ZEFSAII (Michael W. Deem and Ramdas Pophale) SiO2 
 PCOD9485783
Probable space group: C M M M
;
_chemical_formula_sum "Si O2"
_cell_formula_units_Z 72
_cell_length_a 8.763328
_cell_length_b 19.438260
_cell_length_c 23.337968
_cell_angle_alpha 90.000000
_cell_angle_beta 90.000000
_cell_angle_gamma 90.000000
_cell_volume 3975.479277
_symmetry_space_group_name_H-M "C M M M"
_symmetry_group_IT_number 65
_symmetry_cell_setting 'orthorhombic'
loop_
_space_group_symop_operation_xyz
x,y,z
-x,-y,z
x,-y,-z
-x,y,-z
-x,-y,-z
x,y,-z
-x,y,z
x,-y,z
1/2+x,1/2+y,z
1/2-x,1/2-y,z
1/2+x,1/2-y,-z
1/2-x,1/2+y,-z
1/2-x,1/2-y,-z
1/2+x,1/2+y,-z
1/2-x,1/2+y,z
1/2+x,1/2-y,z
loop_
_atom_site_type_symbol
_atom_site_label
_atom_site_fract_x
_atom_site_fract_y
_atom_site_fract_z
Si Si1 0.314367 0.421668 0.604616
Si Si2 0.814862 0.173782 0.500000
Si Si3 0.816643 0.079303 0.067019
Si Si4 0.316148 0.580387 0.735681
Si Si5 0.818821 0.326191 0.164738
O O1 0.500000 0.422339 0.603997
O O2 0.265460 0.500000 0.591594
O O3 0.264797 0.368422 0.556364
O O4 0.270062 0.404763 0.669878
O O5 0.750000 0.250000 0.500000
O O6 0.000000 0.176131 0.500000
O O7 0.736517 0.132309 0.108831
O O8 0.000000 0.084984 0.073743
O O9 0.775390 0.000000 0.080923
O O10 0.781418 0.091022 0.000000
O O11 0.500000 0.587187 0.739792
O O12 0.280211 0.500000 0.747378
O O13 0.239429 0.630503 0.780762
O O14 0.750000 0.250000 0.165298
O O15 0.000000 0.321863 0.165462
#
# Coordination Sequence:
#
# PCOD9485783 Si02
#       5
#    16   8  16  16  16
#     4   8  15  30  54  79 100 131 176 219 257 305
#     4  10  19  31  49  75 107 138 172 214 260 312
#     4   9  19  38  63  87 111 141 176 215 262 316
#     4   9  18  35  58  81 106 137 175 220 270 322
#     4  12  25  38  54  78 110 146 182 221 266 315
#
# _framework density 18.111024
#
# number of rings (size 3 to 8) (size 9 to 14) (size 15 to 20)
#    0.000    2.444    0.000    5.000    0.000    6.667 
#    0.000    4.444    0.000    2.667    0.000    0.000 
#    0.000    0.000    0.000    0.000    0.000    0.000 
#
# Total GULP energy -200955.600214 kJ/mol
# GULP energy per Si atom -5582.100006 kJ/mol
# Density = 1.806980 g / cm^3
# Si number density = 18.111024 Si / 1000 Ang^3
#
#
#
# Elastic Constant Matrix: (Units=GPa)
#
#
# Indices 1 2 3 4 5 6 
#
# 1 51.1136 70.2470 63.7696 0.0000 0.0000 0.0000
# 2 70.2470 178.7153 138.1838 0.0000 0.0000 0.0000
# 3 63.7696 138.1838 147.8399 0.0000 0.0000 0.0000
# 4 0.0000 0.0000 0.0000 -15.7490 0.0000 0.0000
# 5 0.0000 0.0000 0.0000 0.0000 14.2466 0.0000
# 6 0.0000 0.0000 0.0000 0.0000 0.0000 32.8937
#
#
#
# Elastic Compliance Matrix: (Units=1/GPa)
#
#
# Indices 1 2 3 4 5 6 
#
# 1 0.046901 -0.010072 -0.010816 0.000000 0.000000 0.000000
# 2 -0.010072 0.022342 -0.016538 0.000000 0.000000 0.000000
# 3 -0.010816 -0.016538 0.026887 0.000000 0.000000 0.000000
# 4 0.000000 0.000000 0.000000 -0.063496 0.000000 0.000000
# 5 0.000000 0.000000 0.000000 0.000000 0.070192 0.000000
# 6 0.000000 0.000000 0.000000 0.000000 0.000000 0.030401
#
#
# Mechanical properties :
#
#
# Convention : Reuss Voigt Hill
#
# Bulk Modulus (GPa) = 46.99783 102.45219 74.72501
# Shear Modulus (GPa) = 23.23717 13.30947 18.27332
#
# Velocity S-wave (km/s) = 3.58584 2.71381 3.17986
# Velocity P-wave (km/s) = 6.56891 8.15546 7.40480
#
# Compressibility (1/GPa) = 0.02127758
#
# Stress axis : x y z
#
# Youngs Moduli (GPa) = 21.32159 44.75906 37.19203
#
# Poissons Ratio (x) = 0.45081 0.40227
# Poissons Ratio (y) = 0.21475 0.61509
# Poissons Ratio (z) = 0.23062 0.74023
#
# Static dielectric constant tensor:
#      x y z
#    x 1.612330 0.000000 0.000000 
#    y 0.000000 1.589190 0.000000 
#    z 0.000000 0.000000 1.620210 
# 
# From -- ./inp_files/67082.got.cif
#   From: 2010.05.17/outbox.cif.g08.bks.cpg/sg65_34_cif.got.tgz:67082.got - 2010.06.03 17:01:31.
