data_PCOD9485200
_publ_section_title
;
Structure prediction by ZEFSAII (Michael W. Deem and Ramdas Pophale) SiO2 
 PCOD9485200
Probable space group: C M M M
;
_chemical_formula_sum "Si O2"
_cell_formula_units_Z 88
_cell_length_a 18.922775
_cell_length_b 8.378482
_cell_length_c 29.891752
_cell_angle_alpha 90.000000
_cell_angle_beta 90.000000
_cell_angle_gamma 90.000000
_cell_volume 4739.161807
_symmetry_space_group_name_H-M "C M M M"
_symmetry_group_IT_number 65
_symmetry_cell_setting 'orthorhombic'
loop_
_space_group_symop_operation_xyz
x,y,z
-x,-y,z
x,-y,-z
-x,y,-z
-x,-y,-z
x,y,-z
-x,y,z
x,-y,z
1/2+x,1/2+y,z
1/2-x,1/2-y,z
1/2+x,1/2-y,-z
1/2-x,1/2+y,-z
1/2-x,1/2-y,-z
1/2+x,1/2+y,-z
1/2-x,1/2+y,z
1/2+x,1/2-y,z
loop_
_atom_site_type_symbol
_atom_site_label
_atom_site_fract_x
_atom_site_fract_y
_atom_site_fract_z
Si Si1 0.669736 0.691573 0.585261
Si Si2 0.330480 0.809149 0.854793
Si Si3 0.581987 0.694545 0.670929
Si Si4 0.418464 0.692245 0.770766
Si Si5 0.918356 0.691488 0.500000
Si Si6 0.331520 0.806971 0.951909
O O1 0.669960 0.500000 0.585397
O O2 0.750000 0.750000 0.581580
O O3 0.632641 0.748992 0.631185
O O4 0.623021 0.748988 0.543635
O O5 0.250000 0.750000 0.851718
O O6 0.373079 0.751431 0.812024
O O7 0.360455 0.754242 0.903497
O O8 0.330267 0.000000 0.854852
O O9 0.500000 0.742374 0.663662
O O10 0.582330 0.500000 0.670619
O O11 0.604354 0.745574 0.720911
O O12 0.500000 0.741939 0.776224
O O13 0.416520 0.500000 0.770723
O O14 0.918184 0.500000 0.500000
O O15 0.000000 0.746924 0.500000
O O16 0.250000 0.750000 0.951924
O O17 0.332663 0.000000 0.952057
O O18 0.362552 0.753324 0.000000
#
# Coordination Sequence:
#
# PCOD9485200 Si02
#       6
#    16  16  16  16   8  16
#     4  11  22  37  58  83 112 142 174 212 255 302
#     4  10  19  30  47  72 100 128 163 207 252 302
#     4   8  16  33  56  78  99 130 173 214 252 300
#     4   9  18  34  54  74 100 134 169 207 253 302
#     4  11  24  41  60  83 111 141 176 217 258 301
#     4   8  14  25  41  62  89 121 157 199 247 296
#
# _framework density 18.568684000000001
#
# number of rings (size 3 to 8) (size 9 to 14) (size 15 to 20)
#    0.000    2.636    0.000    3.273    0.000    3.273 
#    0.000    3.636    0.000    2.727    0.000    3.818 
#    0.000    0.000    0.000    0.000    0.000    0.000 
#
# Total GULP energy -245205.539137 kJ/mol
# GULP energy per Si atom -5572.853162 kJ/mol
# Density = 1.852642 g / cm^3
# Si number density = 18.568684 Si / 1000 Ang^3
#
#
#
# Elastic Constant Matrix: (Units=GPa)
#
#
# Indices 1 2 3 4 5 6 
#
# 1 96.8011 19.7685 107.2838 0.0000 0.0000 0.0000
# 2 19.7685 19.0415 29.9323 0.0000 0.0000 0.0000
# 3 107.2838 29.9323 237.1881 0.0000 0.0000 0.0000
# 4 0.0000 0.0000 0.0000 16.2784 0.0000 0.0000
# 5 0.0000 0.0000 0.0000 0.0000 230.6463 0.0000
# 6 0.0000 0.0000 0.0000 0.0000 0.0000 12.5454
#
#
#
# Elastic Compliance Matrix: (Units=1/GPa)
#
#
# Indices 1 2 3 4 5 6 
#
# 1 0.021866 -0.008924 -0.008764 0.000000 0.000000 0.000000
# 2 -0.008924 0.069155 -0.004691 0.000000 0.000000 0.000000
# 3 -0.008764 -0.004691 0.008772 0.000000 0.000000 0.000000
# 4 0.000000 0.000000 0.000000 0.061431 0.000000 0.000000
# 5 0.000000 0.000000 0.000000 0.000000 0.004336 0.000000
# 6 0.000000 0.000000 0.000000 0.000000 0.000000 0.079711
#
#
# Mechanical properties :
#
#
# Convention : Reuss Voigt Hill
#
# Bulk Modulus (GPa) = 18.17010 74.11109 46.14059
# Shear Modulus (GPa) = 16.21409 64.96376 40.58892
#
# Velocity S-wave (km/s) = 2.95819 5.92128 4.68041
# Velocity P-wave (km/s) = 4.63406 9.31382 7.35601
#
# Compressibility (1/GPa) = 0.05503548
#
# Stress axis : x y z
#
# Youngs Moduli (GPa) = 45.73250 14.46027 113.99641
#
# Poissons Ratio (x) = 0.12905 0.99909
# Poissons Ratio (y) = 0.40812 0.53471
# Poissons Ratio (z) = 0.40081 0.06783
#
# Static dielectric constant tensor:
#      x y z
#    x 1.580790 0.000000 0.000000 
#    y 0.000000 1.659140 0.000000 
#    z 0.000000 0.000000 1.686470 
# 
# From -- ./inp_files/77926.got.cif
#   From: 2010.05.17/outbox.cif.g08.bks.cpg/sg65_39_cif.got.tgz:77926.got - 2010.06.03 17:01:31.
