data_PCOD9485968
_publ_section_title
;
Structure prediction by ZEFSAII (Michael W. Deem and Ramdas Pophale) SiO2 
 PCOD9485968
Probable space group: C M M M
;
_chemical_formula_sum "Si O2"
_cell_formula_units_Z 88
_cell_length_a 18.497090
_cell_length_b 8.221517
_cell_length_c 29.764826
_cell_angle_alpha 90.000000
_cell_angle_beta 90.000000
_cell_angle_gamma 90.000000
_cell_volume 4526.460313
_symmetry_space_group_name_H-M "C M M M"
_symmetry_group_IT_number 65
_symmetry_cell_setting 'orthorhombic'
loop_
_space_group_symop_operation_xyz
x,y,z
-x,-y,z
x,-y,-z
-x,y,-z
-x,-y,-z
x,y,-z
-x,y,z
x,-y,z
1/2+x,1/2+y,z
1/2-x,1/2-y,z
1/2+x,1/2-y,-z
1/2-x,1/2+y,-z
1/2-x,1/2-y,-z
1/2+x,1/2+y,-z
1/2-x,1/2+y,z
1/2+x,1/2-y,z
loop_
_atom_site_type_symbol
_atom_site_label
_atom_site_fract_x
_atom_site_fract_y
_atom_site_fract_z
Si Si1 0.167083 0.303280 0.500000
Si Si2 0.417569 0.303984 0.765764
Si Si3 0.667315 0.305253 0.677650
Si Si4 0.833955 0.696529 0.951759
Si Si5 0.833465 0.695110 0.146319
Si Si6 0.417058 0.196502 0.589059
O O1 0.165257 0.500000 0.500000
O O2 0.250000 0.250000 0.500000
O O3 0.125807 0.246540 0.544828
O O4 0.500000 0.243970 0.763722
O O5 0.419317 0.500000 0.763163
O O6 0.371474 0.244198 0.723100
O O7 0.379765 0.257854 0.812257
O O8 0.666017 0.500000 0.678324
O O9 0.750000 0.250000 0.675874
O O10 0.624016 0.247693 0.633991
O O11 0.836939 0.500000 0.951820
O O12 0.750000 0.750000 0.951918
O O13 0.861879 0.751463 0.902970
O O14 0.865327 0.752777 0.000000
O O15 0.834576 0.500000 0.146931
O O16 0.750000 0.750000 0.150883
O O17 0.500000 0.254200 0.589051
O O18 0.418373 0.000000 0.587540
#
# Coordination Sequence:
#
# PCOD9485968 Si02
#       6
#     8  16  16  16  16  16
#     4  10  21  37  57  83 115 150 187 226 268 314
#     4  10  22  39  56  75 103 138 174 217 268 316
#     4  11  23  39  59  83 110 140 177 220 267 319
#     4   8  14  25  42  67  99 131 164 206 255 304
#     4  10  19  31  51  78 105 135 173 215 259 311
#     4  10  21  38  60  85 114 148 184 223 268 316
#
# _framework density 19.441241000000002
#
# number of rings (size 3 to 8) (size 9 to 14) (size 15 to 20)
#    0.000    2.182    0.000    3.000    0.000    8.364 
#    0.000    0.000    0.000    2.182    0.000    3.818 
#    0.000    0.000    0.000    0.000    0.000    0.000 
#
# Total GULP energy -245524.354005 kJ/mol
# GULP energy per Si atom -5580.098955 kJ/mol
# Density = 1.939699 g / cm^3
# Si number density = 19.441241 Si / 1000 Ang^3
#
#
#
# Elastic Constant Matrix: (Units=GPa)
#
#
# Indices 1 2 3 4 5 6 
#
# 1 154.4261 14.5700 115.3383 0.0000 0.0000 0.0000
# 2 14.5700 13.7991 17.0949 0.0000 0.0000 0.0000
# 3 115.3383 17.0949 241.6121 0.0000 0.0000 0.0000
# 4 0.0000 0.0000 0.0000 -5.2489 0.0000 0.0000
# 5 0.0000 0.0000 0.0000 0.0000 27.6924 0.0000
# 6 0.0000 0.0000 0.0000 0.0000 0.0000 18.7369
#
#
#
# Elastic Compliance Matrix: (Units=1/GPa)
#
#
# Indices 1 2 3 4 5 6 
#
# 1 0.010405 -0.005297 -0.004592 0.000000 0.000000 0.000000
# 2 -0.005297 0.082128 -0.003282 0.000000 0.000000 0.000000
# 3 -0.004592 -0.003282 0.006563 0.000000 0.000000 0.000000
# 4 0.000000 0.000000 0.000000 -0.190516 0.000000 0.000000
# 5 0.000000 0.000000 0.000000 0.000000 0.036111 0.000000
# 6 0.000000 0.000000 0.000000 0.000000 0.000000 0.053371
#
#
# Mechanical properties :
#
#
# Convention : Reuss Voigt Hill
#
# Bulk Modulus (GPa) = 13.74513 78.20484 45.97499
# Shear Modulus (GPa) = 102.76003 25.75835 64.25919
#
# Velocity S-wave (km/s) = 7.27815 3.64391 5.75541
# Velocity P-wave (km/s) = 8.81556 7.61694 8.23808
#
# Compressibility (1/GPa) = 0.07275302
#
# Stress axis : x y z
#
# Youngs Moduli (GPa) = 96.10407 12.17612 152.36105
#
# Poissons Ratio (x) = 0.06450 0.69970
# Poissons Ratio (y) = 0.50910 0.50005
# Poissons Ratio (z) = 0.44135 0.03996
#
# Static dielectric constant tensor:
#      x y z
#    x 1.645650 0.000000 0.000000 
#    y 0.000000 1.684160 0.000000 
#    z 0.000000 0.000000 1.703470 
# 
# From -- ./inp_files/77869.got.cif
#   From: 2010.05.17/outbox.cif.g08.bks.cpg/sg65_39_cif.got.tgz:77869.got - 2010.06.03 17:01:31.
