data_PCOD9485648
_publ_section_title
;
Structure prediction by ZEFSAII (Michael W. Deem and Ramdas Pophale) SiO2 
 PCOD9485648
Probable space group: C M M M
;
_chemical_formula_sum "Si O2"
_cell_formula_units_Z 72
_cell_length_a 18.468979
_cell_length_b 7.389764
_cell_length_c 24.253552
_cell_angle_alpha 90.000000
_cell_angle_beta 90.000000
_cell_angle_gamma 90.000000
_cell_volume 3310.158638
_symmetry_space_group_name_H-M "C M M M"
_symmetry_group_IT_number 65
_symmetry_cell_setting 'orthorhombic'
loop_
_space_group_symop_operation_xyz
x,y,z
-x,-y,z
x,-y,-z
-x,y,-z
-x,-y,-z
x,y,-z
-x,y,z
x,-y,z
1/2+x,1/2+y,z
1/2-x,1/2-y,z
1/2+x,1/2-y,-z
1/2-x,1/2+y,-z
1/2-x,1/2-y,-z
1/2+x,1/2+y,-z
1/2-x,1/2+y,z
1/2+x,1/2-y,z
loop_
_atom_site_type_symbol
_atom_site_label
_atom_site_fract_x
_atom_site_fract_y
_atom_site_fract_z
Si Si1 0.335493 0.216024 0.500000
Si Si2 0.164674 0.284020 0.279660
Si Si3 0.335182 0.783726 0.938752
Si Si4 0.416453 0.778617 0.829929
Si Si5 0.583939 0.778606 0.610219
O O1 0.250000 0.250000 0.500000
O O2 0.373836 0.283131 0.555625
O O3 0.345492 0.000000 0.500000
O O4 0.154410 0.500000 0.279391
O O5 0.250000 0.250000 0.281874
O O6 0.129234 0.216685 0.222962
O O7 0.124161 0.216743 0.334344
O O8 0.250000 0.750000 0.929463
O O9 0.381220 0.715851 0.887243
O O10 0.345314 0.000000 0.940431
O O11 0.353743 0.713527 0.000000
O O12 0.500000 0.725727 0.825145
O O13 0.414430 0.000000 0.830379
O O14 0.500000 0.724940 0.609360
O O15 0.585208 0.000000 0.610276
#
# Coordination Sequence:
#
# PCOD9485648 Si02
#       5
#     8  16  16  16  16
#     4  10  19  31  49  71  95 122 152 188 226 266
#     4  10  19  31  49  70  92 119 150 186 226 268
#     4   9  17  29  46  67  90 117 148 183 223 266
#     4   9  17  29  46  68  91 116 150 189 224 260
#     4   9  17  30  49  71  92 118 155 192 223 260
#
# _framework density 21.751224000000001
#
# number of rings (size 3 to 8) (size 9 to 14) (size 15 to 20)
#    0.000    2.667    0.000    2.333    0.000    4.444 
#    0.000    2.222    0.000    7.333    0.000    3.111 
#    0.000    0.000    0.000    0.000    0.000    0.000 
#
# Total GULP energy -201165.531081 kJ/mol
# GULP energy per Si atom -5587.931419 kJ/mol
# Density = 2.170172 g / cm^3
# Si number density = 21.751224 Si / 1000 Ang^3
#
#
#
# Elastic Constant Matrix: (Units=GPa)
#
#
# Indices 1 2 3 4 5 6 
#
# 1 210.5205 -4.5483 164.2352 0.0000 0.0000 0.0000
# 2 -4.5483 76.2551 11.7129 0.0000 0.0000 0.0000
# 3 164.2352 11.7129 259.0161 0.0000 0.0000 0.0000
# 4 0.0000 0.0000 0.0000 -19.5481 0.0000 0.0000
# 5 0.0000 0.0000 0.0000 0.0000 51.6789 0.0000
# 6 0.0000 0.0000 0.0000 0.0000 0.0000 22.5970
#
#
#
# Elastic Compliance Matrix: (Units=1/GPa)
#
#
# Indices 1 2 3 4 5 6 
#
# 1 0.009570 0.001513 -0.006137 0.000000 0.000000 0.000000
# 2 0.001513 0.013445 -0.001568 0.000000 0.000000 0.000000
# 3 -0.006137 -0.001568 0.007823 0.000000 0.000000 0.000000
# 4 0.000000 0.000000 0.000000 -0.051156 0.000000 0.000000
# 5 0.000000 0.000000 0.000000 0.000000 0.019350 0.000000
# 6 0.000000 0.000000 0.000000 0.000000 0.000000 0.044254
#
#
# Mechanical properties :
#
#
# Convention : Reuss Voigt Hill
#
# Bulk Modulus (GPa) = 54.18226 98.73238 76.45732
# Shear Modulus (GPa) = 80.88000 35.90501 58.39250
#
# Velocity S-wave (km/s) = 6.10449 4.06730 5.18690
# Velocity P-wave (km/s) = 8.64005 8.21873 8.43202
#
# Compressibility (1/GPa) = 0.01845622
#
# Stress axis : x y z
#
# Youngs Moduli (GPa) = 104.48969 74.37746 127.83172
#
# Poissons Ratio (x) = -0.11257 0.78447
# Poissons Ratio (y) = -0.15814 0.20039
# Poissons Ratio (z) = 0.64122 0.11660
#
# Static dielectric constant tensor:
#      x y z
#    x 1.716740 0.000000 0.000000 
#    y 0.000000 1.838840 0.000000 
#    z 0.000000 0.000000 1.773170 
# 
# From -- ./inp_files/61291.got.cif
#   From: 2010.05.17/outbox.cif.g08.bks.cpg/sg65_31_cif.got.tgz:61291.got - 2010.06.03 17:01:31.
