data_PCOD9485776
_publ_section_title
;
Structure prediction by ZEFSAII (Michael W. Deem and Ramdas Pophale) SiO2 
 PCOD9485776
Probable space group: C M M M
;
_chemical_formula_sum "Si O2"
_cell_formula_units_Z 72
_cell_length_a 14.155162
_cell_length_b 21.108973
_cell_length_c 14.669087
_cell_angle_alpha 90.000000
_cell_angle_beta 90.000000
_cell_angle_gamma 90.000000
_cell_volume 4383.136874
_symmetry_space_group_name_H-M "C M M M"
_symmetry_group_IT_number 65
_symmetry_cell_setting 'orthorhombic'
loop_
_space_group_symop_operation_xyz
x,y,z
-x,-y,z
x,-y,-z
-x,y,-z
-x,-y,-z
x,y,-z
-x,y,z
x,-y,z
1/2+x,1/2+y,z
1/2-x,1/2-y,z
1/2+x,1/2-y,-z
1/2-x,1/2+y,-z
1/2-x,1/2-y,-z
1/2+x,1/2+y,-z
1/2-x,1/2+y,z
1/2+x,1/2-y,z
loop_
_atom_site_type_symbol
_atom_site_label
_atom_site_fract_x
_atom_site_fract_y
_atom_site_fract_z
Si Si1 0.111094 0.140946 0.500000
Si Si2 0.771439 0.374549 0.357569
Si Si3 0.390557 0.000000 0.389953
Si Si4 0.105833 0.672971 0.000000
Si Si5 0.110909 0.293857 0.500000
Si Si6 0.750082 0.826450 0.154427
Si Si7 0.394156 0.327106 0.000000
O O1 0.173277 0.118620 0.586631
O O2 0.114577 0.217887 0.500000
O O3 0.000000 0.122721 0.500000
O O4 0.833216 0.438098 0.360208
O O5 0.833924 0.322622 0.413105
O O6 0.752369 0.354164 0.254677
O O7 0.500000 0.000000 0.359334
O O8 0.391456 0.000000 0.500000
O O9 0.161342 0.654577 0.908707
O O10 0.105653 0.750030 0.000000
O O11 0.000000 0.649469 0.000000
O O12 0.000000 0.313211 0.500000
O O13 0.750000 0.750000 0.161997
O O14 0.838649 0.845444 0.091390
O O15 0.500000 0.350547 0.000000
#
# Coordination Sequence:
#
# PCOD9485776 Si02
#       7
#     8  16   8   8   8  16   8
#     4  10  21  33  48  75 105 130 160 204 262 314
#     4  11  20  34  52  72 101 137 172 214 249 290
#     4  11  22  38  56  73  94 131 181 216 245 291
#     4   8  15  27  44  71 104 132 160 197 248 306
#     4  10  19  31  49  75 104 132 163 204 258 312
#     4   9  17  29  48  75 103 132 165 201 250 304
#     4   8  15  29  48  71 101 132 161 199 245 302
#
# _framework density 16.426591999999999
#
# number of rings (size 3 to 8) (size 9 to 14) (size 15 to 20)
#    0.000    2.333    2.222    4.667    0.000    2.667 
#    0.000    5.556    0.000    2.667    0.000    4.667 
#    0.000    0.000    0.000    0.000    0.000    0.000 
#
# Total GULP energy -200632.346086 kJ/mol
# GULP energy per Si atom -5573.120725 kJ/mol
# Density = 1.638920 g / cm^3
# Si number density = 16.426592 Si / 1000 Ang^3
#
#
#
# Elastic Constant Matrix: (Units=GPa)
#
#
# Indices 1 2 3 4 5 6 
#
# 1 181.8867 36.2175 89.8236 0.0000 0.0000 0.0000
# 2 36.2175 46.8617 29.5413 0.0000 0.0000 0.0000
# 3 89.8236 29.5413 177.3946 0.0000 0.0000 0.0000
# 4 0.0000 0.0000 0.0000 -7.1948 0.0000 0.0000
# 5 0.0000 0.0000 0.0000 0.0000 0.7619 0.0000
# 6 0.0000 0.0000 0.0000 0.0000 0.0000 17.4002
#
#
#
# Elastic Compliance Matrix: (Units=1/GPa)
#
#
# Indices 1 2 3 4 5 6 
#
# 1 0.007960 -0.004035 -0.003359 0.000000 0.000000 0.000000
# 2 -0.004035 0.025887 -0.002268 0.000000 0.000000 0.000000
# 3 -0.003359 -0.002268 0.007715 0.000000 0.000000 0.000000
# 4 0.000000 0.000000 0.000000 -0.138989 0.000000 0.000000
# 5 0.000000 0.000000 0.000000 0.000000 1.312575 0.000000
# 6 0.000000 0.000000 0.000000 0.000000 0.000000 0.057471
#
#
# Mechanical properties :
#
#
# Convention : Reuss Voigt Hill
#
# Bulk Modulus (GPa) = 44.96372 79.70087 62.33229
# Shear Modulus (GPa) = 3.84806 18.89749 11.37277
#
# Velocity S-wave (km/s) = 1.53221 3.39546 2.63409
# Velocity P-wave (km/s) = 5.52831 7.99981 6.87601
#
# Compressibility (1/GPa) = 0.02224015
#
# Stress axis : x y z
#
# Youngs Moduli (GPa) = 125.62889 38.62882 129.60957
#
# Poissons Ratio (x) = 0.15585 0.43531
# Poissons Ratio (y) = 0.50687 0.29396
# Poissons Ratio (z) = 0.42194 0.08761
#
# Static dielectric constant tensor:
#      x y z
#    x 1.573680 0.000000 0.000000 
#    y 0.000000 1.821820 0.000000 
#    z 0.000000 0.000000 1.524020 
# 
# From -- ./inp_files/39912.got.cif
#   From: 2010.05.17/outbox.cif.g08.bks.cpg/sg65_20_cif.got.tgz:39912.got - 2010.06.03 17:01:31.
