data_PCOD9485948
_publ_section_title
;
Structure prediction by ZEFSAII (Michael W. Deem and Ramdas Pophale) SiO2 
 PCOD9485948
Probable space group: C M M M
;
_chemical_formula_sum "Si O2"
_cell_formula_units_Z 72
_cell_length_a 7.617336
_cell_length_b 18.418481
_cell_length_c 24.614114
_cell_angle_alpha 90.000000
_cell_angle_beta 90.000000
_cell_angle_gamma 90.000000
_cell_volume 3453.354247
_symmetry_space_group_name_H-M "C M M M"
_symmetry_group_IT_number 65
_symmetry_cell_setting 'orthorhombic'
loop_
_space_group_symop_operation_xyz
x,y,z
-x,-y,z
x,-y,-z
-x,y,-z
-x,-y,-z
x,y,-z
-x,y,z
x,-y,z
1/2+x,1/2+y,z
1/2-x,1/2-y,z
1/2+x,1/2-y,-z
1/2-x,1/2+y,-z
1/2-x,1/2-y,-z
1/2+x,1/2+y,-z
1/2-x,1/2+y,z
1/2+x,1/2-y,z
loop_
_atom_site_type_symbol
_atom_site_label
_atom_site_fract_x
_atom_site_fract_y
_atom_site_fract_z
Si Si1 0.209378 0.417036 0.176625
Si Si2 0.289084 0.584563 0.058357
Si Si3 0.289130 0.834826 0.282856
Si Si4 0.215009 0.583994 0.608593
Si Si5 0.789417 0.664931 0.500000
O O1 0.279684 0.500000 0.177801
O O2 0.238962 0.384012 0.116703
O O3 0.278369 0.370687 0.227069
O O4 0.000000 0.422136 0.182976
O O5 0.500000 0.584026 0.057165
O O6 0.229378 0.500000 0.059519
O O7 0.228341 0.615580 0.000000
O O8 0.500000 0.842667 0.282656
O O9 0.250000 0.750000 0.285594
O O10 0.225015 0.876464 0.336489
O O11 0.267715 0.500000 0.607517
O O12 0.275199 0.626196 0.554798
O O13 0.000000 0.585283 0.608636
O O14 0.750000 0.750000 0.500000
O O15 0.000000 0.656690 0.500000
#
# Coordination Sequence:
#
# PCOD9485948 Si02
#       5
#    16  16  16  16   8
#     4   9  17  29  46  68  92 120 156 195 234 277
#     4   8  14  25  42  66  95 123 150 185 233 284
#     4  10  20  33  49  69  95 126 158 196 241 286
#     4   9  17  31  52  75  97 125 165 206 238 275
#     4  10  19  31  51  77 103 132 164 198 238 284
#
# _framework density 20.849294
#
# number of rings (size 3 to 8) (size 9 to 14) (size 15 to 20)
#    0.000    2.889    0.000    2.333    0.000    5.333 
#    0.000    2.222    0.000    5.333    0.000    0.000 
#    0.000    0.000    0.000    0.000    0.000    0.000 
#
# Total GULP energy -200778.596159 kJ/mol
# GULP energy per Si atom -5577.183227 kJ/mol
# Density = 2.080184 g / cm^3
# Si number density = 20.849294 Si / 1000 Ang^3
#
#
#
# Elastic Constant Matrix: (Units=GPa)
#
#
# Indices 1 2 3 4 5 6 
#
# 1 40.5702 -1.6872 10.2694 0.0000 0.0000 0.0000
# 2 -1.6872 130.2864 118.9022 0.0000 0.0000 0.0000
# 3 10.2694 118.9022 274.7225 0.0000 0.0000 0.0000
# 4 0.0000 0.0000 0.0000 -8.0802 0.0000 0.0000
# 5 0.0000 0.0000 0.0000 0.0000 61.5722 0.0000
# 6 0.0000 0.0000 0.0000 0.0000 0.0000 19.6550
#
#
#
# Elastic Compliance Matrix: (Units=1/GPa)
#
#
# Indices 1 2 3 4 5 6 
#
# 1 0.025183 0.001959 -0.001789 0.000000 0.000000 0.000000
# 2 0.001959 0.012839 -0.005630 0.000000 0.000000 0.000000
# 3 -0.001789 -0.005630 0.006144 0.000000 0.000000 0.000000
# 4 0.000000 0.000000 0.000000 -0.123759 0.000000 0.000000
# 5 0.000000 0.000000 0.000000 0.000000 0.016241 0.000000
# 6 0.000000 0.000000 0.000000 0.000000 0.000000 0.050878
#
#
# Mechanical properties :
#
#
# Convention : Reuss Voigt Hill
#
# Bulk Modulus (GPa) = 30.07967 77.83865 53.95916
# Shear Modulus (GPa) = 524.82942 35.83571 280.33256
#
# Velocity S-wave (km/s) = 15.88306 4.15034 11.60812
# Velocity P-wave (km/s) = 18.73021 7.77059 14.33881
#
# Compressibility (1/GPa) = 0.03324505
#
# Stress axis : x y z
#
# Youngs Moduli (GPa) = 39.70928 77.88894 162.77063
#
# Poissons Ratio (x) = -0.15259 0.29124
# Poissons Ratio (y) = -0.07779 0.91639
# Poissons Ratio (z) = 0.07105 0.43851
#
# Static dielectric constant tensor:
#      x y z
#    x 1.791930 0.000000 0.000000 
#    y 0.000000 1.692020 0.000000 
#    z 0.000000 0.000000 1.779510 
# 
# From -- ./inp_files/55537.got.cif
#   From: 2010.05.17/outbox.cif.g08.bks.cpg/sg65_28_cif.got.tgz:55537.got - 2010.06.03 17:01:31.
