data_PCOD9485889
_publ_section_title
;
Structure prediction by ZEFSAII (Michael W. Deem and Ramdas Pophale) SiO2 
 PCOD9485889
Probable space group: C M M M
;
_chemical_formula_sum "Si O2"
_cell_formula_units_Z 104
_cell_length_a 27.933668
_cell_length_b 23.940106
_cell_length_c 9.213816
_cell_angle_alpha 90.000000
_cell_angle_beta 90.000000
_cell_angle_gamma 90.000000
_cell_volume 6161.600993
_symmetry_space_group_name_H-M "C M M M"
_symmetry_group_IT_number 65
_symmetry_cell_setting 'orthorhombic'
loop_
_space_group_symop_operation_xyz
x,y,z
-x,-y,z
x,-y,-z
-x,y,-z
-x,-y,-z
x,y,-z
-x,y,z
x,-y,z
1/2+x,1/2+y,z
1/2-x,1/2-y,z
1/2+x,1/2-y,-z
1/2-x,1/2+y,-z
1/2-x,1/2-y,-z
1/2+x,1/2+y,-z
1/2-x,1/2+y,z
1/2+x,1/2-y,z
loop_
_atom_site_type_symbol
_atom_site_label
_atom_site_fract_x
_atom_site_fract_y
_atom_site_fract_z
Si Si1 0.372914 0.835968 0.167170
Si Si2 0.555954 0.763791 0.665096
Si Si3 0.500000 0.067099 0.163487
Si Si4 0.901513 0.435540 0.672401
Si Si5 0.877824 0.845000 0.669470
Si Si6 0.802487 0.231194 0.828358
Si Si7 0.055289 0.066355 0.174219
O O1 0.420970 0.805743 0.221595
O O2 0.364961 0.890487 0.264142
O O3 0.333937 0.787424 0.184387
O O4 0.376006 0.852506 0.000000
O O5 0.563784 0.785099 0.500000
O O6 0.500000 0.756356 0.687795
O O7 0.583500 0.705319 0.676454
O O8 0.452237 0.079250 0.253248
O O9 0.500000 0.000000 0.150055
O O10 0.500000 0.090694 0.000000
O O11 0.905700 0.431303 0.500000
O O12 0.890094 0.500000 0.708846
O O13 0.868428 0.857213 0.500000
O O14 0.830590 0.818484 0.745664
O O15 0.904290 0.896667 0.747731
O O16 0.750000 0.250000 0.776231
O O17 0.799413 0.216653 0.000000
O O18 0.000000 0.081283 0.216708
O O19 0.061167 0.000000 0.202861
O O20 0.058650 0.074458 0.000000
#
# Coordination Sequence:
#
# PCOD9485889 Si02
#       7
#    16  16   8  16  16  16  16
#     4  10  20  32  49  73  96 121 159 206 249 290
#     4   9  18  31  45  64  96 134 164 194 238 294
#     4   9  17  29  45  65  89 121 163 203 230 259
#     4  10  20  33  48  66  93 130 164 194 236 289
#     4  10  19  31  50  77 105 133 168 211 259 307
#     4   9  19  37  58  77  98 127 165 209 259 314
#     4   9  18  32  50  74 107 148 187 217 249 297
#
# _framework density 16.878730000000001
#
# number of rings (size 3 to 8) (size 9 to 14) (size 15 to 20)
#    0.000    2.538    0.000    2.538    1.077    4.923 
#    0.000    0.769    0.000    0.923    0.000    2.154 
#    0.000    0.000    0.000    0.000    0.000    0.000 
#
# Total GULP energy -289788.878666 kJ/mol
# GULP energy per Si atom -5572.863051 kJ/mol
# Density = 1.684031 g / cm^3
# Si number density = 16.878730 Si / 1000 Ang^3
#
#
#
# Elastic Constant Matrix: (Units=GPa)
#
#
# Indices 1 2 3 4 5 6 
#
# 1 86.3499 30.3442 41.0299 0.0000 0.0000 0.0000
# 2 30.3442 71.8063 45.1649 0.0000 0.0000 0.0000
# 3 41.0299 45.1649 82.0569 0.0000 0.0000 0.0000
# 4 0.0000 0.0000 0.0000 30.5015 0.0000 0.0000
# 5 0.0000 0.0000 0.0000 0.0000 14.1502 0.0000
# 6 0.0000 0.0000 0.0000 0.0000 0.0000 18.5509
#
#
#
# Elastic Compliance Matrix: (Units=1/GPa)
#
#
# Indices 1 2 3 4 5 6 
#
# 1 0.015492 -0.002561 -0.006336 0.000000 0.000000 0.000000
# 2 -0.002561 0.021724 -0.010677 0.000000 0.000000 0.000000
# 3 -0.006336 -0.010677 0.021231 0.000000 0.000000 0.000000
# 4 0.000000 0.000000 0.000000 0.032785 0.000000 0.000000
# 5 0.000000 0.000000 0.000000 0.000000 0.070670 0.000000
# 6 0.000000 0.000000 0.000000 0.000000 0.000000 0.053906
#
#
# Mechanical properties :
#
#
# Convention : Reuss Voigt Hill
#
# Bulk Modulus (GPa) = 51.81607 52.58790 52.20198
# Shear Modulus (GPa) = 19.12857 20.88547 20.00702
#
# Velocity S-wave (km/s) = 3.37010 3.52146 3.44661
# Velocity P-wave (km/s) = 6.77562 6.91073 6.84351
#
# Compressibility (1/GPa) = 0.01929903
#
# Stress axis : x y z
#
# Youngs Moduli (GPa) = 64.55125 46.03216 47.09983
#
# Poissons Ratio (x) = 0.11789 0.29845
# Poissons Ratio (y) = 0.16531 0.50286
# Poissons Ratio (z) = 0.40903 0.49146
#
# Static dielectric constant tensor:
#      x y z
#    x 1.565910 0.000000 0.000000 
#    y 0.000000 1.582660 0.000000 
#    z 0.000000 0.000000 1.581190 
# 
# From -- ./inp_files/16796.got.cif
#   From: 2010.05.17/outbox.cif.g08.bks.cpg/sg65_9_cif.got.tgz:16796.got - 2010.06.03 17:01:31.
