data_PCOD9485632
_publ_section_title
;
Structure prediction by ZEFSAII (Michael W. Deem and Ramdas Pophale) SiO2 
 PCOD9485632
Probable space group: C M M M
;
_chemical_formula_sum "Si O2"
_cell_formula_units_Z 88
_cell_length_a 18.714025
_cell_length_b 7.342520
_cell_length_c 30.305101
_cell_angle_alpha 90.000000
_cell_angle_beta 90.000000
_cell_angle_gamma 90.000000
_cell_volume 4164.166435
_symmetry_space_group_name_H-M "C M M M"
_symmetry_group_IT_number 65
_symmetry_cell_setting 'orthorhombic'
loop_
_space_group_symop_operation_xyz
x,y,z
-x,-y,z
x,-y,-z
-x,y,-z
-x,-y,-z
x,y,-z
-x,y,z
x,-y,z
1/2+x,1/2+y,z
1/2-x,1/2-y,z
1/2+x,1/2-y,-z
1/2-x,1/2+y,-z
1/2-x,1/2-y,-z
1/2+x,1/2+y,-z
1/2-x,1/2+y,z
1/2+x,1/2-y,z
loop_
_atom_site_type_symbol
_atom_site_label
_atom_site_fract_x
_atom_site_fract_y
_atom_site_fract_z
Si Si1 0.416607 0.722168 0.643218
Si Si2 0.334422 0.717129 0.000000
Si Si3 0.082625 0.777225 0.913054
Si Si4 0.414667 0.280167 0.452558
Si Si5 0.665824 0.717287 0.270928
Si Si6 0.834458 0.217515 0.826681
O O1 0.500000 0.771556 0.646251
O O2 0.413778 0.500000 0.642929
O O3 0.387456 0.782843 0.595215
O O4 0.375328 0.787675 0.686327
O O5 0.250000 0.750000 0.000000
O O6 0.372575 0.784571 0.955582
O O7 0.344553 0.500000 0.000000
O O8 0.119764 0.714717 0.867814
O O9 0.000000 0.723352 0.915916
O O10 0.084099 0.000000 0.912826
O O11 0.386096 0.213950 0.500000
O O12 0.500000 0.242321 0.452284
O O13 0.407795 0.500000 0.452935
O O14 0.653941 0.500000 0.269994
O O15 0.750000 0.750000 0.276064
O O16 0.645608 0.787673 0.222158
O O17 0.750000 0.250000 0.833602
O O18 0.844194 0.000000 0.825439
#
# Coordination Sequence:
#
# PCOD9485632 Si02
#       6
#    16   8  16  16  16  16
#     4   8  13  21  35  56  78  99 129 169 205 236
#     4  10  19  31  49  69  89 116 146 174 204 242
#     4   9  17  29  46  68  90 111 139 175 211 244
#     4   7   9  14  26  46  72  98 122 154 199 242
#     4   9  17  28  42  60  82 109 137 165 201 243
#     4   9  17  29  45  63  83 109 140 171 202 241
#
# _framework density 21.132681000000002
#
# number of rings (size 3 to 8) (size 9 to 14) (size 15 to 20)
#    0.000    3.455    0.000    2.455    0.000    1.818 
#    0.000    3.636    0.000    3.818    0.000    5.091 
#    0.000    0.000    0.000    4.545    0.000    3.636 
#
# Total GULP energy -245287.761020 kJ/mol
# GULP energy per Si atom -5574.721841 kJ/mol
# Density = 2.108458 g / cm^3
# Si number density = 21.132681 Si / 1000 Ang^3
#
#
#
# Elastic Constant Matrix: (Units=GPa)
#
#
# Indices 1 2 3 4 5 6 
#
# 1 89.6818 -2.0040 122.5869 0.0000 0.0000 0.0000
# 2 -2.0040 80.9658 13.2638 0.0000 0.0000 0.0000
# 3 122.5869 13.2638 298.2115 0.0000 0.0000 0.0000
# 4 0.0000 0.0000 0.0000 -5.2620 0.0000 0.0000
# 5 0.0000 0.0000 0.0000 0.0000 -7.5068 0.0000
# 6 0.0000 0.0000 0.0000 0.0000 0.0000 5.1475
#
#
#
# Elastic Compliance Matrix: (Units=1/GPa)
#
#
# Indices 1 2 3 4 5 6 
#
# 1 0.025908 0.002403 -0.010757 0.000000 0.000000 0.000000
# 2 0.002403 0.012665 -0.001551 0.000000 0.000000 0.000000
# 3 -0.010757 -0.001551 0.007844 0.000000 0.000000 0.000000
# 4 0.000000 0.000000 0.000000 -0.190043 0.000000 0.000000
# 5 0.000000 0.000000 0.000000 0.000000 -0.133213 0.000000
# 6 0.000000 0.000000 0.000000 0.000000 0.000000 0.194269
#
#
# Mechanical properties :
#
#
# Convention : Reuss Voigt Hill
#
# Bulk Modulus (GPa) = 37.58386 81.83919 59.71153
# Shear Modulus (GPa) = -92.78049 20.80991 -35.98529
#
# Velocity S-wave (km/s) = -6.63318 3.14144 -4.13101
# Velocity P-wave (km/s) = 6.39079 7.20893 2.35865
#
# Compressibility (1/GPa) = 0.02660717
#
# Stress axis : x y z
#
# Youngs Moduli (GPa) = 38.59785 78.96083 127.48156
#
# Poissons Ratio (x) = -0.18978 1.37133
# Poissons Ratio (y) = -0.09277 0.19776
# Poissons Ratio (z) = 0.41520 0.12249
#
# Static dielectric constant tensor:
#      x y z
#    x 1.687140 0.000000 0.000000 
#    y 0.000000 1.809330 0.000000 
#    z 0.000000 0.000000 1.803980 
# 
# From -- ./inp_files/74238.got.cif
#   From: 2010.05.17/outbox.cif.g08.bks.cpg/sg65_38_cif.got.tgz:74238.got - 2010.06.03 17:01:31.
