data_PCOD9485143
_publ_section_title
;
Structure prediction by ZEFSAII (Michael W. Deem and Ramdas Pophale) SiO2 
 PCOD9485143
Probable space group: C M M M
;
_chemical_formula_sum "Si O2"
_cell_formula_units_Z 128
_cell_length_a 14.643257
_cell_length_b 20.516726
_cell_length_c 20.905018
_cell_angle_alpha 90.000000
_cell_angle_beta 90.000000
_cell_angle_gamma 90.000000
_cell_volume 6280.529921
_symmetry_space_group_name_H-M "C M M M"
_symmetry_group_IT_number 65
_symmetry_cell_setting 'orthorhombic'
loop_
_space_group_symop_operation_xyz
x,y,z
-x,-y,z
x,-y,-z
-x,y,-z
-x,-y,-z
x,y,-z
-x,y,z
x,-y,z
1/2+x,1/2+y,z
1/2-x,1/2-y,z
1/2+x,1/2-y,-z
1/2-x,1/2+y,-z
1/2-x,1/2-y,-z
1/2+x,1/2+y,-z
1/2-x,1/2+y,z
1/2+x,1/2-y,z
loop_
_atom_site_type_symbol
_atom_site_label
_atom_site_fract_x
_atom_site_fract_y
_atom_site_fract_z
Si Si1 0.172313 0.422301 0.306273
Si Si2 0.890080 0.191155 0.157661
Si Si3 0.391909 0.071970 0.164647
Si Si4 0.111944 0.313505 0.073111
Si Si5 0.181663 0.188108 0.298882
Si Si6 0.845454 0.654508 0.568979
Si Si7 0.388545 0.425529 0.071797
Si Si8 0.129949 0.805438 0.430016
O O1 0.184942 0.500000 0.315451
O O2 0.119415 0.412219 0.239695
O O3 0.263132 0.379506 0.296242
O O4 0.130190 0.389179 0.370058
O O5 0.860749 0.248210 0.109860
O O6 0.857275 0.202175 0.229315
O O7 0.859011 0.123091 0.127112
O O8 0.000000 0.191312 0.158719
O O9 0.500000 0.068518 0.152649
O O10 0.356401 0.126128 0.116327
O O11 0.352012 0.000000 0.153926
O O12 0.000000 0.313916 0.071915
O O13 0.142906 0.316325 0.000000
O O14 0.250000 0.250000 0.313759
O O15 0.108473 0.178853 0.356177
O O16 0.867715 0.624101 0.500000
O O17 0.884447 0.727545 0.569572
O O18 0.736218 0.670527 0.569406
O O19 0.500000 0.425148 0.071841
O O20 0.359754 0.500000 0.081405
O O21 0.361140 0.404299 0.000000
O O22 0.095879 0.828979 0.500000
#
# Coordination Sequence:
#
# PCOD9485143 Si02
#       8
#    16  16  16  16  16  16  16  16
#     4  10  19  30  46  71  98 121 152 193 230 268
#     4  10  20  31  47  72  98 120 149 192 234 274
#     4   9  18  32  49  68  92 124 156 187 229 277
#     4   9  17  29  47  71  93 113 148 199 238 261
#     4  11  19  31  50  69  92 127 159 182 227 282
#     4   8  13  24  43  66  91 118 151 192 229 261
#     4   8  14  27  48  70  91 119 155 192 230 272
#     4   8  13  25  46  68  87 116 157 191 220 263
#
# _framework density 20.380445999999999
#
# number of rings (size 3 to 8) (size 9 to 14) (size 15 to 20)
#    0.000    2.875    2.500    2.250    0.000    2.500 
#    0.000    1.250    0.000    7.500    0.000    3.500 
#    0.000    0.000    0.000    9.375    0.000    0.000 
#
# Total GULP energy -356380.820473 kJ/mol
# GULP energy per Si atom -5568.450320 kJ/mol
# Density = 2.033406 g / cm^3
# Si number density = 20.380446 Si / 1000 Ang^3
#
#
#
# Elastic Constant Matrix: (Units=GPa)
#
#
# Indices 1 2 3 4 5 6 
#
# 1 39.8822 -2.7996 5.5654 0.0000 0.0000 0.0000
# 2 -2.7996 73.7535 63.9565 0.0000 0.0000 0.0000
# 3 5.5654 63.9565 190.6678 0.0000 0.0000 0.0000
# 4 0.0000 0.0000 0.0000 117.6033 0.0000 0.0000
# 5 0.0000 0.0000 0.0000 0.0000 21.1078 0.0000
# 6 0.0000 0.0000 0.0000 0.0000 0.0000 -5.9394
#
#
#
# Elastic Compliance Matrix: (Units=1/GPa)
#
#
# Indices 1 2 3 4 5 6 
#
# 1 0.025443 0.002270 -0.001504 0.000000 0.000000 0.000000
# 2 0.002270 0.019323 -0.006548 0.000000 0.000000 0.000000
# 3 -0.001504 -0.006548 0.007485 0.000000 0.000000 0.000000
# 4 0.000000 0.000000 0.000000 0.008503 0.000000 0.000000
# 5 0.000000 0.000000 0.000000 0.000000 0.047376 0.000000
# 6 0.000000 0.000000 0.000000 0.000000 0.000000 -0.168368
#
#
# Mechanical properties :
#
#
# Convention : Reuss Voigt Hill
#
# Bulk Modulus (GPa) = 24.57767 48.63866 36.60817
# Shear Modulus (GPa) = -142.40348 42.39309 -50.00519
#
# Velocity S-wave (km/s) = -8.36805 4.56574 -4.95874
# Velocity P-wave (km/s) = 9.01555 7.19110 3.84501
#
# Compressibility (1/GPa) = 0.04068733
#
# Stress axis : x y z
#
# Youngs Moduli (GPa) = 39.30338 51.75204 133.60068
#
# Poissons Ratio (x) = -0.11748 0.20095
# Poissons Ratio (y) = -0.08922 0.87479
# Poissons Ratio (z) = 0.05912 0.33886
#
# Static dielectric constant tensor:
#      x y z
#    x 1.807330 0.000000 0.000000 
#    y 0.000000 1.703410 0.000000 
#    z 0.000000 0.000000 1.763900 
# 
# From -- ./inp_files/56265.got.cif
#   From: 2010.05.17/outbox.cif.g08.bks.cpg/sg65_29_cif.got.tgz:56265.got - 2010.06.03 17:01:31.
