data_PCOD9485772
_publ_section_title
;
Structure prediction by ZEFSAII (Michael W. Deem and Ramdas Pophale) SiO2 
 PCOD9485772
Probable space group: C M M M
;
_chemical_formula_sum "Si O2"
_cell_formula_units_Z 116
_cell_length_a 29.680452
_cell_length_b 23.932613
_cell_length_c 7.364057
_cell_angle_alpha 90.000000
_cell_angle_beta 90.000000
_cell_angle_gamma 90.000000
_cell_volume 5230.916289
_symmetry_space_group_name_H-M "C M M M"
_symmetry_group_IT_number 65
_symmetry_cell_setting 'orthorhombic'
loop_
_space_group_symop_operation_xyz
x,y,z
-x,-y,z
x,-y,-z
-x,y,-z
-x,-y,-z
x,y,-z
-x,y,z
x,-y,z
1/2+x,1/2+y,z
1/2-x,1/2-y,z
1/2+x,1/2-y,-z
1/2-x,1/2+y,-z
1/2-x,1/2-y,-z
1/2+x,1/2+y,-z
1/2-x,1/2+y,z
1/2+x,1/2-y,z
loop_
_atom_site_type_symbol
_atom_site_label
_atom_site_fract_x
_atom_site_fract_y
_atom_site_fract_z
Si Si1 0.126812 0.561552 0.289912
Si Si2 0.563755 0.500000 0.000000
Si Si3 0.817601 0.868209 0.781416
Si Si4 0.731673 0.936695 0.781229
Si Si5 0.615379 0.818771 0.276524
Si Si6 0.700695 0.243595 0.709041
Si Si7 0.585162 0.595226 0.709871
Si Si8 0.948475 0.217991 0.279393
O O1 0.113029 0.558544 0.500000
O O2 0.118552 0.500000 0.208697
O O3 0.180930 0.570974 0.286380
O O4 0.105672 0.618322 0.214490
O O5 0.565752 0.451198 0.158240
O O6 0.769863 0.893747 0.719933
O O7 0.821539 0.804830 0.714131
O O8 0.860274 0.904379 0.720664
O O9 0.817811 0.867514 0.000000
O O10 0.745659 0.000000 0.732864
O O11 0.729555 0.933576 0.000000
O O12 0.615929 0.818896 0.500000
O O13 0.665085 0.799754 0.213530
O O14 0.581141 0.770565 0.219062
O O15 0.707729 0.226544 0.500000
O O16 0.750000 0.250000 0.794256
O O17 0.571368 0.587585 0.500000
O O18 0.570824 0.657493 0.771725
O O19 0.947418 0.218815 0.500000
O O20 0.000000 0.223052 0.221390
#
# Coordination Sequence:
#
# PCOD9485772 Si02
#       8
#    16   4  16  16  16  16  16  16
#     4   9  17  30  49  76 109 146 194 243 289 348
#     4  12  26  44  65  92 126 152 194 250 302 364
#     4  11  21  33  52  75 114 152 196 253 307 354
#     4   9  19  32  47  67 102 151 194 237 285 340
#     4   9  16  29  51  78 110 147 188 240 297 347
#     4  10  19  31  49  74 107 149 198 248 299 362
#     4  11  23  41  64  89 118 157 200 247 306 367
#     4   9  18  36  63  90 114 147 194 242 292 361
#
# _framework density 22.175846
#
# number of rings (size 3 to 8) (size 9 to 14) (size 15 to 20)
#    0.000    2.207    2.069    1.448    0.966    2.483 
#    0.000    1.724    1.517    2.069    0.000    2.897 
#    0.000    0.000    0.000    3.448    0.000    3.586 
#
# Total GULP energy -323545.100018 kJ/mol
# GULP energy per Si atom -5578.363793 kJ/mol
# Density = 2.212537 g / cm^3
# Si number density = 22.175846 Si / 1000 Ang^3
#
#
#
# Elastic Constant Matrix: (Units=GPa)
#
#
# Indices 1 2 3 4 5 6 
#
# 1 64.0056 40.9723 9.3068 0.0000 0.0000 0.0000
# 2 40.9723 198.3330 30.2704 0.0000 0.0000 0.0000
# 3 9.3068 30.2704 105.6639 0.0000 0.0000 0.0000
# 4 0.0000 0.0000 0.0000 266.0033 0.0000 0.0000
# 5 0.0000 0.0000 0.0000 0.0000 3.7788 0.0000
# 6 0.0000 0.0000 0.0000 0.0000 0.0000 -7.8098
#
#
#
# Elastic Compliance Matrix: (Units=1/GPa)
#
#
# Indices 1 2 3 4 5 6 
#
# 1 0.018035 -0.003642 -0.000545 0.000000 0.000000 0.000000
# 2 -0.003642 0.006008 -0.001400 0.000000 0.000000 0.000000
# 3 -0.000545 -0.001400 0.009913 0.000000 0.000000 0.000000
# 4 0.000000 0.000000 0.000000 0.003759 0.000000 0.000000
# 5 0.000000 0.000000 0.000000 0.000000 0.264631 0.000000
# 6 0.000000 0.000000 0.000000 0.000000 0.000000 -0.128044
#
#
# Mechanical properties :
#
#
# Convention : Reuss Voigt Hill
#
# Bulk Modulus (GPa) = 43.89771 58.78905 51.34338
# Shear Modulus (GPa) = 25.89715 71.55800 48.72758
#
# Velocity S-wave (km/s) = 3.42103 5.68669 4.69265
# Velocity P-wave (km/s) = 5.95339 8.34781 7.25013
#
# Compressibility (1/GPa) = 0.02278023
#
# Stress axis : x y z
#
# Youngs Moduli (GPa) = 55.44918 166.43837 100.87601
#
# Poissons Ratio (x) = 0.60624 0.05498
# Poissons Ratio (y) = 0.20197 0.14127
# Poissons Ratio (z) = 0.03022 0.23308
#
# Static dielectric constant tensor:
#      x y z
#    x 1.797690 0.000000 0.000000 
#    y 0.000000 1.817420 0.000000 
#    z 0.000000 0.000000 1.838900 
# 
# From -- ./inp_files/18935.got.cif
#   From: 2010.05.17/outbox.cif.g08.bks.cpg/sg65_10_cif.got.tgz:18935.got - 2010.06.03 17:01:31.
