data_PCOD9485266
_publ_section_title
;
Structure prediction by ZEFSAII (Michael W. Deem and Ramdas Pophale) SiO2 
 PCOD9485266
Probable space group: C M M M
;
_chemical_formula_sum "Si O2"
_cell_formula_units_Z 104
_cell_length_a 7.798886
_cell_length_b 29.593995
_cell_length_c 21.861136
_cell_angle_alpha 90.000000
_cell_angle_beta 90.000000
_cell_angle_gamma 90.000000
_cell_volume 5045.554414
_symmetry_space_group_name_H-M "C M M M"
_symmetry_group_IT_number 65
_symmetry_cell_setting 'orthorhombic'
loop_
_space_group_symop_operation_xyz
x,y,z
-x,-y,z
x,-y,-z
-x,y,-z
-x,-y,-z
x,y,-z
-x,y,z
x,-y,z
1/2+x,1/2+y,z
1/2-x,1/2-y,z
1/2+x,1/2-y,-z
1/2-x,1/2+y,-z
1/2-x,1/2-y,-z
1/2+x,1/2+y,-z
1/2-x,1/2+y,z
1/2+x,1/2-y,z
loop_
_atom_site_type_symbol
_atom_site_label
_atom_site_fract_x
_atom_site_fract_y
_atom_site_fract_z
Si Si1 0.305116 0.874813 0.665981
Si Si2 0.300372 0.548842 0.251380
Si Si3 0.199810 0.951542 0.895637
Si Si4 0.291027 0.948808 0.428615
Si Si5 0.202631 0.302862 0.243058
Si Si6 0.800535 0.854751 0.881556
Si Si7 0.203524 0.301748 0.000000
O O1 0.500000 0.863795 0.646627
O O2 0.305821 0.910447 0.721906
O O3 0.227975 0.906771 0.612576
O O4 0.223851 0.830430 0.697908
O O5 0.500000 0.554220 0.269414
O O6 0.236670 0.500000 0.273021
O O7 0.298979 0.547662 0.178321
O O8 0.279295 0.902291 0.905402
O O9 0.000000 0.951403 0.916652
O O10 0.274077 0.000000 0.916474
O O11 0.250195 0.942022 0.500000
O O12 0.500000 0.949328 0.422982
O O13 0.232173 0.000000 0.412094
O O14 0.250000 0.250000 0.238778
O O15 0.239762 0.330183 0.180280
O O16 0.000000 0.304463 0.250983
O O17 0.780633 0.822211 0.938566
O O18 0.000000 0.864804 0.869395
O O19 0.250000 0.250000 0.000000
O O20 0.000000 0.308714 0.000000
#
# Coordination Sequence:
#
# PCOD9485266 Si02
#       7
#    16  16  16  16  16  16   8
#     4  10  19  30  48  75 104 134 176 224 269 313
#     4   9  16  27  45  72 105 139 171 202 245 304
#     4   8  15  29  51  79 109 140 173 205 242 303
#     4   8  14  26  46  74 108 143 176 212 259 316
#     4  11  23  37  53  76 106 138 175 223 280 331
#     4  11  21  38  63  86 110 142 180 220 266 317
#     4  12  26  44  63  84 111 139 180 229 275 326
#
# _framework density 20.612204999999999
#
# number of rings (size 3 to 8) (size 9 to 14) (size 15 to 20)
#    0.000    2.308    1.538    3.923    0.000    1.538 
#    0.000    0.385    0.000    5.077    0.000    2.154 
#    0.000    0.000    0.000    0.000    0.000    0.154 
#
# Total GULP energy -289622.056692 kJ/mol
# GULP energy per Si atom -5569.654936 kJ/mol
# Density = 2.056529 g / cm^3
# Si number density = 20.612205 Si / 1000 Ang^3
#
#
#
# Elastic Constant Matrix: (Units=GPa)
#
#
# Indices 1 2 3 4 5 6 
#
# 1 34.8935 5.0539 -5.0135 0.0000 0.0000 0.0000
# 2 5.0539 193.5829 59.2647 0.0000 0.0000 0.0000
# 3 -5.0135 59.2647 92.9134 0.0000 0.0000 0.0000
# 4 0.0000 0.0000 0.0000 -31.8827 0.0000 0.0000
# 5 0.0000 0.0000 0.0000 0.0000 -4.4194 0.0000
# 6 0.0000 0.0000 0.0000 0.0000 0.0000 -0.7037
#
#
#
# Elastic Compliance Matrix: (Units=1/GPa)
#
#
# Indices 1 2 3 4 5 6 
#
# 1 0.029252 -0.001549 0.002567 0.000000 0.000000 0.000000
# 2 -0.001549 0.006501 -0.004230 0.000000 0.000000 0.000000
# 3 0.002567 -0.004230 0.013600 0.000000 0.000000 0.000000
# 4 0.000000 0.000000 0.000000 -0.031365 0.000000 0.000000
# 5 0.000000 0.000000 0.000000 0.000000 -0.226276 0.000000
# 6 0.000000 0.000000 0.000000 0.000000 0.000000 -1.421048
#
#
# Mechanical properties :
#
#
# Convention : Reuss Voigt Hill
#
# Bulk Modulus (GPa) = 23.29570 48.88889 36.09230
# Shear Modulus (GPa) = -3.10829 10.07115 3.48143
#
# Velocity S-wave (km/s) = -1.22933 2.21283 1.30103
# Velocity P-wave (km/s) = 3.05146 5.50443 4.45029
#
# Compressibility (1/GPa) = 0.04292638
#
# Stress axis : x y z
#
# Youngs Moduli (GPa) = 34.18583 153.81431 73.53143
#
# Poissons Ratio (x) = 0.23833 -0.18874
# Poissons Ratio (y) = 0.05297 0.31107
# Poissons Ratio (z) = -0.08775 0.65071
#
# Static dielectric constant tensor:
#      x y z
#    x 1.773270 0.000000 0.000000 
#    y 0.000000 1.828040 0.000000 
#    z 0.000000 0.000000 1.738230 
# 
# From -- ./inp_files/60855.got.cif
#   From: 2010.05.17/outbox.cif.g08.bks.cpg/sg65_31_cif.got.tgz:60855.got - 2010.06.03 17:01:31.
