data_PCOD9485014
_publ_section_title
;
Structure prediction by ZEFSAII (Michael W. Deem and Ramdas Pophale) SiO2 
 PCOD9485014
Probable space group: C M M M
;
_chemical_formula_sum "Si O2"
_cell_formula_units_Z 120
_cell_length_a 27.808520
_cell_length_b 7.958061
_cell_length_c 29.297133
_cell_angle_alpha 90.000000
_cell_angle_beta 90.000000
_cell_angle_gamma 90.000000
_cell_volume 6483.511153
_symmetry_space_group_name_H-M "C M M M"
_symmetry_group_IT_number 65
_symmetry_cell_setting 'orthorhombic'
loop_
_space_group_symop_operation_xyz
x,y,z
-x,-y,z
x,-y,-z
-x,y,-z
-x,-y,-z
x,y,-z
-x,y,z
x,-y,z
1/2+x,1/2+y,z
1/2-x,1/2-y,z
1/2+x,1/2-y,-z
1/2-x,1/2+y,-z
1/2-x,1/2-y,-z
1/2+x,1/2+y,-z
1/2-x,1/2+y,z
1/2+x,1/2-y,z
loop_
_atom_site_type_symbol
_atom_site_label
_atom_site_fract_x
_atom_site_fract_y
_atom_site_fract_z
Si Si1 0.354783 0.799003 0.694520
Si Si2 0.804637 0.297012 0.887651
Si Si3 0.804318 0.297262 0.783671
Si Si4 0.000000 0.799587 0.947628
Si Si5 0.895088 0.297736 0.947569
Si Si6 0.052611 0.702120 0.358178
Si Si7 0.103115 0.203189 0.551329
Si Si8 0.196905 0.799817 0.604912
O O1 0.339002 0.732821 0.743773
O O2 0.404383 0.730721 0.673433
O O3 0.315193 0.767051 0.655443
O O4 0.359718 0.000000 0.698896
O O5 0.806269 0.500000 0.887428
O O6 0.750000 0.250000 0.901652
O O7 0.812312 0.236506 0.835450
O O8 0.848669 0.237171 0.919268
O O9 0.807816 0.500000 0.784827
O O10 0.750000 0.250000 0.771006
O O11 0.948160 0.745430 0.928049
O O12 0.000000 0.000000 0.948955
O O13 0.000000 0.731874 0.000000
O O14 0.892348 0.500000 0.948910
O O15 0.892990 0.234578 0.000000
O O16 0.052464 0.500000 0.353736
O O17 0.065307 0.742010 0.410520
O O18 0.000000 0.766783 0.346131
O O19 0.094357 0.263603 0.500000
O O20 0.154968 0.260550 0.570859
O O21 0.103366 0.000000 0.550349
O O22 0.250000 0.750000 0.590344
O O23 0.193860 0.000000 0.606927
#
# Coordination Sequence:
#
# PCOD9485014 Si02
#       8
#    16  16  16   8  16  16  16  16
#     4   9  17  30  48  67  89 116 147 183 223 266
#     4   9  18  31  46  67  97 128 162 197 236 285
#     4   9  17  29  46  67  92 120 151 186 223 267
#     4   9  17  29  47  71  93 117 157 205 245 281
#     4   9  17  30  48  68  94 129 164 200 243 289
#     4   9  18  32  49  68  89 113 143 181 224 265
#     4   9  19  34  48  64  88 117 148 179 212 256
#     4  10  19  30  45  66  91 116 145 179 217 260
#
# _framework density 18.508489999999998
#
# number of rings (size 3 to 8) (size 9 to 14) (size 15 to 20)
#    0.000    2.867    0.000    1.000    0.000    4.800 
#    0.000    1.333    1.467    0.000    0.000    0.000 
#    0.000    0.000    0.000    0.000    0.000    0.000 
#
# Total GULP energy -334328.373525 kJ/mol
# GULP energy per Si atom -5572.139559 kJ/mol
# Density = 1.846636 g / cm^3
# Si number density = 18.508490 Si / 1000 Ang^3
#
#
#
# Elastic Constant Matrix: (Units=GPa)
#
#
# Indices 1 2 3 4 5 6 
#
# 1 126.4171 7.6969 66.1761 0.0000 0.0000 0.0000
# 2 7.6969 13.9883 7.7246 0.0000 0.0000 0.0000
# 3 66.1761 7.7246 89.9429 0.0000 0.0000 0.0000
# 4 0.0000 0.0000 0.0000 10.3078 0.0000 0.0000
# 5 0.0000 0.0000 0.0000 0.0000 10.0235 0.0000
# 6 0.0000 0.0000 0.0000 0.0000 0.0000 20.5665
#
#
#
# Elastic Compliance Matrix: (Units=1/GPa)
#
#
# Indices 1 2 3 4 5 6 
#
# 1 0.012916 -0.001952 -0.009335 0.000000 0.000000 0.000000
# 2 -0.001952 0.075343 -0.005035 0.000000 0.000000 0.000000
# 3 -0.009335 -0.005035 0.018419 0.000000 0.000000 0.000000
# 4 0.000000 0.000000 0.000000 0.097014 0.000000 0.000000
# 5 0.000000 0.000000 0.000000 0.000000 0.099765 0.000000
# 6 0.000000 0.000000 0.000000 0.000000 0.000000 0.048623
#
#
# Mechanical properties :
#
#
# Convention : Reuss Voigt Hill
#
# Bulk Modulus (GPa) = 13.50729 43.72707 28.61718
# Shear Modulus (GPa) = 12.21296 18.09628 15.15462
#
# Velocity S-wave (km/s) = 2.57156 3.13026 2.86456
# Velocity P-wave (km/s) = 4.01633 6.06147 5.14161
#
# Compressibility (1/GPa) = 0.07403407
#
# Stress axis : x y z
#
# Youngs Moduli (GPa) = 77.42334 13.27272 54.29126
#
# Poissons Ratio (x) = 0.02590 0.50683
# Poissons Ratio (y) = 0.15110 0.27334
# Poissons Ratio (z) = 0.72278 0.06682
#
# Static dielectric constant tensor:
#      x y z
#    x 1.637630 0.000000 0.000000 
#    y 0.000000 1.660310 0.000000 
#    z 0.000000 0.000000 1.640760 
# 
# From -- ./inp_files/76111.got.cif
#   From: 2010.05.17/outbox.cif.g08.bks.cpg/sg65_39_cif.got.tgz:76111.got - 2010.06.03 17:01:31.
