data_PCOD9485706
_publ_section_title
;
Structure prediction by ZEFSAII (Michael W. Deem and Ramdas Pophale) SiO2 
 PCOD9485706
Probable space group: C M M M
;
_chemical_formula_sum "Si O2"
_cell_formula_units_Z 88
_cell_length_a 18.448291
_cell_length_b 8.207121
_cell_length_c 30.230030
_cell_angle_alpha 90.000000
_cell_angle_beta 90.000000
_cell_angle_gamma 90.000000
_cell_volume 4577.048929
_symmetry_space_group_name_H-M "C M M M"
_symmetry_group_IT_number 65
_symmetry_cell_setting 'orthorhombic'
loop_
_space_group_symop_operation_xyz
x,y,z
-x,-y,z
x,-y,-z
-x,y,-z
-x,-y,-z
x,y,-z
-x,y,z
x,-y,z
1/2+x,1/2+y,z
1/2-x,1/2-y,z
1/2+x,1/2-y,-z
1/2-x,1/2+y,-z
1/2-x,1/2-y,-z
1/2+x,1/2+y,-z
1/2-x,1/2+y,z
1/2+x,1/2-y,z
loop_
_atom_site_type_symbol
_atom_site_label
_atom_site_fract_x
_atom_site_fract_y
_atom_site_fract_z
Si Si1 0.165465 0.302784 0.047627
Si Si2 0.665774 0.803152 0.142753
Si Si3 0.417450 0.696353 0.326098
Si Si4 0.417414 0.805168 0.500000
Si Si5 0.333719 0.804579 0.760748
Si Si6 0.832818 0.805200 0.412801
O O1 0.162832 0.500000 0.047616
O O2 0.250000 0.250000 0.047635
O O3 0.134524 0.246714 0.095232
O O4 0.134655 0.246782 0.000000
O O5 0.750000 0.750000 0.142628
O O6 0.637681 0.747948 0.190764
O O7 0.662608 0.000000 0.142676
O O8 0.500000 0.756730 0.327888
O O9 0.419235 0.500000 0.328831
O O10 0.379554 0.741665 0.280264
O O11 0.371730 0.757204 0.368204
O O12 0.500000 0.742315 0.500000
O O13 0.375731 0.749673 0.543806
O O14 0.419355 0.000000 0.500000
O O15 0.250000 0.750000 0.756418
O O16 0.335084 0.000000 0.760177
O O17 0.750000 0.750000 0.414602
O O18 0.833944 0.000000 0.411589
#
# Coordination Sequence:
#
# PCOD9485706 Si02
#       6
#    16  16  16   8  16  16
#     4   8  12  18  29  46  72 108 147 186 230 281
#     4   8  14  23  35  55  83 115 153 194 237 288
#     4  10  22  39  57  78 104 134 170 213 260 308
#     4  11  24  41  62  89 119 149 182 219 256 295
#     4  10  19  31  49  72  99 132 168 207 252 302
#     4  11  23  40  62  86 113 144 178 215 256 302
#
# _framework density 19.226362000000002
#
# number of rings (size 3 to 8) (size 9 to 14) (size 15 to 20)
#    0.000    2.455    0.000    2.727    0.000    5.455 
#    0.000    0.000    0.000    0.000    0.000    0.000 
#    0.000    0.727    0.000    9.091    0.000    4.727 
#
# Total GULP energy -245187.166543 kJ/mol
# GULP energy per Si atom -5572.435603 kJ/mol
# Density = 1.918260 g / cm^3
# Si number density = 19.226362 Si / 1000 Ang^3
#
#
#
# Elastic Constant Matrix: (Units=GPa)
#
#
# Indices 1 2 3 4 5 6 
#
# 1 101.0144 13.2079 91.6905 0.0000 0.0000 0.0000
# 2 13.2079 20.5914 18.3942 0.0000 0.0000 0.0000
# 3 91.6905 18.3942 253.7120 0.0000 0.0000 0.0000
# 4 0.0000 0.0000 0.0000 188.4158 0.0000 0.0000
# 5 0.0000 0.0000 0.0000 0.0000 -9.7316 0.0000
# 6 0.0000 0.0000 0.0000 0.0000 0.0000 6.5812
#
#
#
# Elastic Compliance Matrix: (Units=1/GPa)
#
#
# Indices 1 2 3 4 5 6 
#
# 1 0.015234 -0.005190 -0.005129 0.000000 0.000000 0.000000
# 2 -0.005190 0.053695 -0.002017 0.000000 0.000000 0.000000
# 3 -0.005129 -0.002017 0.005941 0.000000 0.000000 0.000000
# 4 0.000000 0.000000 0.000000 0.005307 0.000000 0.000000
# 5 0.000000 0.000000 0.000000 0.000000 -0.102758 0.000000
# 6 0.000000 0.000000 0.000000 0.000000 0.000000 0.151949
#
#
# Mechanical properties :
#
#
# Convention : Reuss Voigt Hill
#
# Bulk Modulus (GPa) = 19.92115 69.10032 44.51074
# Shear Modulus (GPa) = 29.27859 53.85476 41.56668
#
# Velocity S-wave (km/s) = 3.90659 5.29827 4.65474
# Velocity P-wave (km/s) = 5.54368 8.57014 7.21733
#
# Compressibility (1/GPa) = 0.05019790
#
# Stress axis : x y z
#
# Youngs Moduli (GPa) = 65.64307 18.62373 168.30986
#
# Poissons Ratio (x) = 0.09665 0.86330
# Poissons Ratio (y) = 0.34066 0.33955
# Poissons Ratio (z) = 0.33670 0.03757
#
# Static dielectric constant tensor:
#      x y z
#    x 1.631020 0.000000 0.000000 
#    y 0.000000 1.965640 0.000000 
#    z 0.000000 0.000000 1.736200 
# 
# From -- ./inp_files/77857.got.cif
#   From: 2010.05.17/outbox.cif.g08.bks.cpg/sg65_39_cif.got.tgz:77857.got - 2010.06.03 17:01:31.
