data_PCOD9485094
_publ_section_title
;
Structure prediction by ZEFSAII (Michael W. Deem and Ramdas Pophale) SiO2 
 PCOD9485094
Probable space group: C M M M
;
_chemical_formula_sum "Si O2"
_cell_formula_units_Z 72
_cell_length_a 18.443390
_cell_length_b 7.363782
_cell_length_c 24.277761
_cell_angle_alpha 90.000000
_cell_angle_beta 90.000000
_cell_angle_gamma 90.000000
_cell_volume 3297.238063
_symmetry_space_group_name_H-M "C M M M"
_symmetry_group_IT_number 65
_symmetry_cell_setting 'orthorhombic'
loop_
_space_group_symop_operation_xyz
x,y,z
-x,-y,z
x,-y,-z
-x,y,-z
-x,-y,-z
x,y,-z
-x,y,z
x,-y,z
1/2+x,1/2+y,z
1/2-x,1/2-y,z
1/2+x,1/2-y,-z
1/2-x,1/2+y,-z
1/2-x,1/2-y,-z
1/2+x,1/2+y,-z
1/2-x,1/2+y,z
1/2+x,1/2-y,z
loop_
_atom_site_type_symbol
_atom_site_label
_atom_site_fract_x
_atom_site_fract_y
_atom_site_fract_z
Si Si1 0.335186 0.283324 0.669799
Si Si2 0.415674 0.278908 0.438718
Si Si3 0.915917 0.777893 0.000000
Si Si4 0.083943 0.222093 0.220336
Si Si5 0.835617 0.216624 0.110254
O O1 0.346160 0.500000 0.669095
O O2 0.250000 0.250000 0.674283
O O3 0.367813 0.214086 0.612243
O O4 0.377459 0.215782 0.723633
O O5 0.392541 0.219909 0.500000
O O6 0.500000 0.228502 0.430896
O O7 0.413628 0.500000 0.439000
O O8 0.874675 0.715890 0.945015
O O9 0.000000 0.724167 0.000000
O O10 0.914614 0.000000 0.000000
O O11 0.127221 0.284117 0.166274
O O12 0.000000 0.275775 0.218320
O O13 0.085412 0.000000 0.220481
O O14 0.750000 0.250000 0.109433
O O15 0.846000 0.000000 0.110353
#
# Coordination Sequence:
#
# PCOD9485094 Si02
#       5
#    16  16   8  16  16
#     4  10  19  30  46  68  93 119 147 183 226 269
#     4   8  14  26  45  67  88 113 150 191 223 255
#     4   9  17  30  49  71  92 119 158 194 220 255
#     4   9  17  30  49  70  89 115 155 194 222 256
#     4  10  19  31  49  71  95 121 149 186 229 270
#
# _framework density 21.836455999999998
#
# number of rings (size 3 to 8) (size 9 to 14) (size 15 to 20)
#    0.000    2.778    0.000    3.000    0.000    5.778 
#    0.000    0.000    0.000    7.333    0.000    1.556 
#    0.000    0.000    0.000    0.000    0.000    0.000 
#
# Total GULP energy -201162.821578 kJ/mol
# GULP energy per Si atom -5587.856155 kJ/mol
# Density = 2.178676 g / cm^3
# Si number density = 21.836456 Si / 1000 Ang^3
#
#
#
# Elastic Constant Matrix: (Units=GPa)
#
#
# Indices 1 2 3 4 5 6 
#
# 1 208.9463 -4.5461 164.6239 0.0000 0.0000 0.0000
# 2 -4.5461 79.7630 11.7714 0.0000 0.0000 0.0000
# 3 164.6239 11.7714 272.2003 0.0000 0.0000 0.0000
# 4 0.0000 0.0000 0.0000 -15.4811 0.0000 0.0000
# 5 0.0000 0.0000 0.0000 0.0000 20.8389 0.0000
# 6 0.0000 0.0000 0.0000 0.0000 0.0000 20.4676
#
#
#
# Elastic Compliance Matrix: (Units=1/GPa)
#
#
# Indices 1 2 3 4 5 6 
#
# 1 0.009288 0.001367 -0.005676 0.000000 0.000000 0.000000
# 2 0.001367 0.012819 -0.001381 0.000000 0.000000 0.000000
# 3 -0.005676 -0.001381 0.007167 0.000000 0.000000 0.000000
# 4 0.000000 0.000000 0.000000 -0.064595 0.000000 0.000000
# 5 0.000000 0.000000 0.000000 0.000000 0.047987 0.000000
# 6 0.000000 0.000000 0.000000 0.000000 0.000000 0.048858
#
#
# Mechanical properties :
#
#
# Convention : Reuss Voigt Hill
#
# Bulk Modulus (GPa) = 55.88948 100.51199 78.20074
# Shear Modulus (GPa) = 63.39682 31.10245 47.24963
#
# Velocity S-wave (km/s) = 5.39403 3.77813 4.65671
# Velocity P-wave (km/s) = 8.02772 8.07228 8.05003
#
# Compressibility (1/GPa) = 0.01789245
#
# Stress axis : x y z
#
# Youngs Moduli (GPa) = 107.66650 78.00987 139.53809
#
# Poissons Ratio (x) = -0.10665 0.79207
# Poissons Ratio (y) = -0.14719 0.19272
# Poissons Ratio (z) = 0.61115 0.10774
#
# Static dielectric constant tensor:
#      x y z
#    x 1.720480 0.000000 0.000000 
#    y 0.000000 1.859130 0.000000 
#    z 0.000000 0.000000 1.775350 
# 
# From -- ./inp_files/63465.got.cif
#   From: 2010.05.17/outbox.cif.g08.bks.cpg/sg65_32_cif.got.tgz:63465.got - 2010.06.03 17:01:31.
