data_PCOD9485842
_publ_section_title
;
Structure prediction by ZEFSAII (Michael W. Deem and Ramdas Pophale) SiO2 
 PCOD9485842
Probable space group: C M M M
;
_chemical_formula_sum "Si O2"
_cell_formula_units_Z 88
_cell_length_a 18.716797
_cell_length_b 7.629111
_cell_length_c 30.181650
_cell_angle_alpha 90.000000
_cell_angle_beta 90.000000
_cell_angle_gamma 90.000000
_cell_volume 4309.713918
_symmetry_space_group_name_H-M "C M M M"
_symmetry_group_IT_number 65
_symmetry_cell_setting 'orthorhombic'
loop_
_space_group_symop_operation_xyz
x,y,z
-x,-y,z
x,-y,-z
-x,y,-z
-x,-y,-z
x,y,-z
-x,y,z
x,-y,z
1/2+x,1/2+y,z
1/2-x,1/2-y,z
1/2+x,1/2-y,-z
1/2-x,1/2+y,-z
1/2-x,1/2-y,-z
1/2+x,1/2+y,-z
1/2-x,1/2+y,z
1/2+x,1/2-y,z
loop_
_atom_site_type_symbol
_atom_site_label
_atom_site_fract_x
_atom_site_fract_y
_atom_site_fract_z
Si Si1 0.416868 0.285173 0.403493
Si Si2 0.080362 0.791730 0.767992
Si Si3 0.913080 0.795559 0.500000
Si Si4 0.334119 0.208567 0.856115
Si Si5 0.833395 0.789311 0.683042
Si Si6 0.165100 0.710723 0.047600
O O1 0.500000 0.236357 0.397070
O O2 0.415585 0.500000 0.404772
O O3 0.391727 0.221945 0.452117
O O4 0.369638 0.225170 0.362344
O O5 0.121302 0.769138 0.814136
O O6 0.125712 0.720989 0.726565
O O7 0.000000 0.719539 0.769627
O O8 0.074704 0.000000 0.760852
O O9 0.000000 0.791499 0.500000
O O10 0.891638 0.000000 0.500000
O O11 0.250000 0.250000 0.850775
O O12 0.359856 0.277679 0.904374
O O13 0.340290 0.000000 0.857637
O O14 0.750000 0.750000 0.685141
O O15 0.840830 0.000000 0.682617
O O16 0.156043 0.500000 0.047426
O O17 0.250000 0.750000 0.047507
O O18 0.136630 0.776960 0.000000
#
# Coordination Sequence:
#
# PCOD9485842 Si02
#       6
#    16  16   8  16  16  16
#     4   8  13  24  44  68  92 119 154 193 229 267
#     4  10  21  36  52  69  91 122 160 201 244 288
#     4   7  10  18  37  66  93 115 146 191 232 262
#     4  10  19  31  50  75 101 128 158 194 236 280
#     4  10  20  33  49  69  94 123 154 190 234 283
#     4   8  14  25  42  66  95 124 154 188 226 270
#
# _framework density 20.418987999999999
#
# number of rings (size 3 to 8) (size 9 to 14) (size 15 to 20)
#    0.000    3.000    0.000    2.727    0.000    5.455 
#    0.000    0.455    0.000    2.182    0.000    3.818 
#    0.000    2.182    0.000    0.000    0.000    0.000 
#
# Total GULP energy -245185.299154 kJ/mol
# GULP energy per Si atom -5572.393163 kJ/mol
# Density = 2.037251 g / cm^3
# Si number density = 20.418988 Si / 1000 Ang^3
#
#
#
# Elastic Constant Matrix: (Units=GPa)
#
#
# Indices 1 2 3 4 5 6 
#
# 1 102.2948 0.8648 108.8111 0.0000 0.0000 0.0000
# 2 0.8648 42.6176 7.4146 0.0000 0.0000 0.0000
# 3 108.8111 7.4146 265.9018 0.0000 0.0000 0.0000
# 4 0.0000 0.0000 0.0000 7.4617 0.0000 0.0000
# 5 0.0000 0.0000 0.0000 0.0000 44.5660 0.0000
# 6 0.0000 0.0000 0.0000 0.0000 0.0000 15.0487
#
#
#
# Elastic Compliance Matrix: (Units=1/GPa)
#
#
# Indices 1 2 3 4 5 6 
#
# 1 0.017344 0.000887 -0.007122 0.000000 0.000000 0.000000
# 2 0.000887 0.023624 -0.001022 0.000000 0.000000 0.000000
# 3 -0.007122 -0.001022 0.006704 0.000000 0.000000 0.000000
# 4 0.000000 0.000000 0.000000 0.134018 0.000000 0.000000
# 5 0.000000 0.000000 0.000000 0.000000 0.022439 0.000000
# 6 0.000000 0.000000 0.000000 0.000000 0.000000 0.066451
#
#
# Mechanical properties :
#
#
# Convention : Reuss Voigt Hill
#
# Bulk Modulus (GPa) = 30.15821 71.66612 50.91217
# Shear Modulus (GPa) = 16.88355 32.99686 24.94021
#
# Velocity S-wave (km/s) = 2.87863 4.02430 3.49868
# Velocity P-wave (km/s) = 5.08433 7.53441 6.42720
#
# Compressibility (1/GPa) = 0.03315846
#
# Stress axis : x y z
#
# Youngs Moduli (GPa) = 57.65669 42.32934 149.16950
#
# Poissons Ratio (x) = -0.03755 1.06241
# Poissons Ratio (y) = -0.05115 0.15242
# Poissons Ratio (z) = 0.41064 0.04325
#
# Static dielectric constant tensor:
#      x y z
#    x 1.675200 0.000000 0.000000 
#    y 0.000000 1.783690 0.000000 
#    z 0.000000 0.000000 1.788560 
# 
# From -- ./inp_files/77820.got.cif
#   From: 2010.05.17/outbox.cif.g08.bks.cpg/sg65_39_cif.got.tgz:77820.got - 2010.06.03 17:01:31.
