data_PCOD9485874
_publ_section_title
;
Structure prediction by ZEFSAII (Michael W. Deem and Ramdas Pophale) SiO2 
 PCOD9485874
Probable space group: C M M M
;
_chemical_formula_sum "Si O2"
_cell_formula_units_Z 120
_cell_length_a 8.773195
_cell_length_b 27.503668
_cell_length_c 28.657770
_cell_angle_alpha 90.000000
_cell_angle_beta 90.000000
_cell_angle_gamma 90.000000
_cell_volume 6914.977832
_symmetry_space_group_name_H-M "C M M M"
_symmetry_group_IT_number 65
_symmetry_cell_setting 'orthorhombic'
loop_
_space_group_symop_operation_xyz
x,y,z
-x,-y,z
x,-y,-z
-x,y,-z
-x,-y,-z
x,y,-z
-x,y,z
x,-y,z
1/2+x,1/2+y,z
1/2-x,1/2-y,z
1/2+x,1/2-y,-z
1/2-x,1/2+y,-z
1/2-x,1/2-y,-z
1/2+x,1/2+y,-z
1/2-x,1/2+y,z
1/2+x,1/2-y,z
loop_
_atom_site_type_symbol
_atom_site_label
_atom_site_fract_x
_atom_site_fract_y
_atom_site_fract_z
Si Si1 0.682571 0.352889 0.147045
Si Si2 0.313943 0.500000 0.553848
Si Si3 0.183731 0.802207 0.554907
Si Si4 0.683716 0.598473 0.605891
Si Si5 0.817899 0.602700 0.292254
Si Si6 0.683591 0.054926 0.803860
Si Si7 0.683945 0.696075 0.052135
Si Si8 0.181388 0.699241 0.764617
O O1 0.500000 0.351556 0.149260
O O2 0.741487 0.405416 0.162876
O O3 0.732240 0.337393 0.095260
O O4 0.748412 0.315936 0.185621
O O5 0.500000 0.500000 0.554996
O O6 0.267219 0.500000 0.500000
O O7 0.263840 0.450034 0.578679
O O8 0.223371 0.808245 0.500000
O O9 0.250000 0.750000 0.570643
O O10 0.235709 0.850253 0.582991
O O11 0.000000 0.799678 0.558134
O O12 0.500000 0.599012 0.603537
O O13 0.735587 0.594750 0.659210
O O14 0.773888 0.566969 0.249806
O O15 0.784344 0.656173 0.271617
O O16 0.000000 0.598568 0.299126
O O17 0.500000 0.060617 0.806380
O O18 0.724356 0.000000 0.815733
O O19 0.500000 0.699022 0.053154
O O20 0.750000 0.750000 0.058777
O O21 0.729082 0.679319 0.000000
O O22 0.250000 0.750000 0.748999
O O23 0.000000 0.702401 0.769563
#
# Coordination Sequence:
#
# PCOD9485874 Si02
#       8
#    16   8  16  16  16  16  16  16
#     4  10  19  31  50  76 102 131 170 213 255 299
#     4   9  18  34  55  77 101 129 161 201 250 299
#     4   9  18  33  52  73  97 127 162 199 240 288
#     4  10  20  33  52  77 101 127 162 203 246 295
#     4   9  20  35  50  71  99 131 161 195 246 300
#     4   9  19  36  55  72  95 130 169 209 256 306
#     4   9  18  31  47  71 104 138 169 203 247 299
#     4  10  20  34  51  71 100 137 173 207 249 299
#
# _framework density 17.353635000000001
#
# number of rings (size 3 to 8) (size 9 to 14) (size 15 to 20)
#    0.000    2.600    0.000    2.400    0.933    7.733 
#    0.000    2.667    0.000    2.000    0.000    2.800 
#    0.000    0.000    0.000    0.000    0.000    0.000 
#
# Total GULP energy -334605.117000 kJ/mol
# GULP energy per Si atom -5576.751950 kJ/mol
# Density = 1.731414 g / cm^3
# Si number density = 17.353635 Si / 1000 Ang^3
#
#
#
# Elastic Constant Matrix: (Units=GPa)
#
#
# Indices 1 2 3 4 5 6 
#
# 1 10.5048 27.8930 26.6928 0.0000 0.0000 0.0000
# 2 27.8930 108.6592 64.5342 0.0000 0.0000 0.0000
# 3 26.6928 64.5342 131.2512 0.0000 0.0000 0.0000
# 4 0.0000 0.0000 0.0000 2.5797 0.0000 0.0000
# 5 0.0000 0.0000 0.0000 0.0000 17.6021 0.0000
# 6 0.0000 0.0000 0.0000 0.0000 0.0000 19.3544
#
#
#
# Elastic Compliance Matrix: (Units=1/GPa)
#
#
# Indices 1 2 3 4 5 6 
#
# 1 0.446240 -0.085668 -0.048631 0.000000 0.000000 0.000000
# 2 -0.085668 0.029445 0.002945 0.000000 0.000000 0.000000
# 3 -0.048631 0.002945 0.016061 0.000000 0.000000 0.000000
# 4 0.000000 0.000000 0.000000 0.387645 0.000000 0.000000
# 5 0.000000 0.000000 0.000000 0.000000 0.056811 0.000000
# 6 0.000000 0.000000 0.000000 0.000000 0.000000 0.051668
#
#
# Mechanical properties :
#
#
# Convention : Reuss Voigt Hill
#
# Bulk Modulus (GPa) = 4.36609 54.29504 29.33056
# Shear Modulus (GPa) = 3.76811 16.66025 10.21418
#
# Velocity S-wave (km/s) = 1.47515 3.10182 2.42872
# Velocity P-wave (km/s) = 2.32870 6.64708 4.98029
#
# Compressibility (1/GPa) = 0.22903794
#
# Stress axis : x y z
#
# Youngs Moduli (GPa) = 2.24095 33.96122 62.26128
#
# Poissons Ratio (x) = 2.90939 3.02784
# Poissons Ratio (y) = 0.19198 -0.18334
# Poissons Ratio (z) = 0.10898 -0.10000
#
# Static dielectric constant tensor:
#      x y z
#    x 1.589080 0.000000 0.000000 
#    y 0.000000 1.585630 0.000000 
#    z 0.000000 0.000000 1.576760 
# 
# From -- ./inp_files/73979.got.cif
#   From: 2010.05.17/outbox.cif.g08.bks.cpg/sg65_37_cif.got.tgz:73979.got - 2010.06.03 17:01:31.
