data_PCOD9485589
_publ_section_title
;
Structure prediction by ZEFSAII (Michael W. Deem and Ramdas Pophale) SiO2 
 PCOD9485589
Probable space group: C M M M
;
_chemical_formula_sum "Si O2"
_cell_formula_units_Z 72
_cell_length_a 8.453036
_cell_length_b 27.841784
_cell_length_c 16.562987
_cell_angle_alpha 90.000000
_cell_angle_beta 90.000000
_cell_angle_gamma 90.000000
_cell_volume 3898.059280
_symmetry_space_group_name_H-M "C M M M"
_symmetry_group_IT_number 65
_symmetry_cell_setting 'orthorhombic'
loop_
_space_group_symop_operation_xyz
x,y,z
-x,-y,z
x,-y,-z
-x,y,-z
-x,-y,-z
x,y,-z
-x,y,z
x,-y,z
1/2+x,1/2+y,z
1/2-x,1/2-y,z
1/2+x,1/2-y,-z
1/2-x,1/2+y,-z
1/2-x,1/2-y,-z
1/2+x,1/2+y,-z
1/2-x,1/2+y,z
1/2+x,1/2-y,z
loop_
_atom_site_type_symbol
_atom_site_label
_atom_site_fract_x
_atom_site_fract_y
_atom_site_fract_z
Si Si1 0.808620 0.195572 0.000000
Si Si2 0.310561 0.650475 0.168832
Si Si3 0.188920 0.697763 0.668925
Si Si4 0.691537 0.946233 0.243199
Si Si5 0.192688 0.400890 0.410787
O O1 0.750000 0.250000 0.000000
O O2 0.755612 0.169166 0.081811
O O3 0.000000 0.195591 0.000000
O O4 0.500000 0.652612 0.171464
O O5 0.245332 0.683549 0.241222
O O6 0.256126 0.596374 0.187878
O O7 0.250000 0.750000 0.645443
O O8 0.240406 0.653660 0.611669
O O9 0.000000 0.698455 0.668747
O O10 0.500000 0.944172 0.240977
O O11 0.741035 0.933743 0.335356
O O12 0.741445 0.000000 0.221149
O O13 0.248188 0.414695 0.500000
O O14 0.000000 0.401952 0.411943
#
# Coordination Sequence:
#
# PCOD9485589 Si02
#       5
#     8  16  16  16  16
#     4  10  22  36  53  78 103 129 162 199 241 290
#     4  10  20  35  53  74 100 129 164 204 246 293
#     4  10  19  31  48  71  99 132 168 203 243 294
#     4   9  18  33  53  76 101 130 165 204 247 294
#     4   8  15  28  46  70  99 129 163 204 246 289
#
# _framework density 18.470728999999999
#
# number of rings (size 3 to 8) (size 9 to 14) (size 15 to 20)
#    0.000    2.667    0.000    3.333    0.000    4.889 
#    0.000    2.778    0.000   19.333    0.000    6.222 
#    0.000    0.000    0.000    0.000    0.000    0.000 
#
# Total GULP energy -200794.846921 kJ/mol
# GULP energy per Si atom -5577.634637 kJ/mol
# Density = 1.842869 g / cm^3
# Si number density = 18.470729 Si / 1000 Ang^3
#
#
#
# Elastic Constant Matrix: (Units=GPa)
#
#
# Indices 1 2 3 4 5 6 
#
# 1 18.8395 9.8436 5.0855 0.0000 0.0000 0.0000
# 2 9.8436 96.7709 22.6116 0.0000 0.0000 0.0000
# 3 5.0855 22.6116 97.8876 0.0000 0.0000 0.0000
# 4 0.0000 0.0000 0.0000 5.0410 0.0000 0.0000
# 5 0.0000 0.0000 0.0000 0.0000 14.9646 0.0000
# 6 0.0000 0.0000 0.0000 0.0000 0.0000 27.7867
#
#
#
# Elastic Compliance Matrix: (Units=1/GPa)
#
#
# Indices 1 2 3 4 5 6 
#
# 1 0.056324 -0.005333 -0.001694 0.000000 0.000000 0.000000
# 2 -0.005333 0.011428 -0.002363 0.000000 0.000000 0.000000
# 3 -0.001694 -0.002363 0.010850 0.000000 0.000000 0.000000
# 4 0.000000 0.000000 0.000000 0.198372 0.000000 0.000000
# 5 0.000000 0.000000 0.000000 0.000000 0.066825 0.000000
# 6 0.000000 0.000000 0.000000 0.000000 0.000000 0.035989
#
#
# Mechanical properties :
#
#
# Convention : Reuss Voigt Hill
#
# Bulk Modulus (GPa) = 16.71655 32.06438 24.39046
# Shear Modulus (GPa) = 11.94722 21.28895 16.61808
#
# Velocity S-wave (km/s) = 2.54602 3.39865 3.00275
# Velocity P-wave (km/s) = 4.20867 5.72698 5.02550
#
# Compressibility (1/GPa) = 0.05982096
#
# Stress axis : x y z
#
# Youngs Moduli (GPa) = 17.75447 87.50210 92.16925
#
# Poissons Ratio (x) = 0.46669 0.15615
# Poissons Ratio (y) = 0.09469 0.21778
# Poissons Ratio (z) = 0.03008 0.20675
#
# Static dielectric constant tensor:
#      x y z
#    x 1.641440 0.000000 0.000000 
#    y 0.000000 1.623210 0.000000 
#    z 0.000000 0.000000 1.634390 
# 
# From -- ./inp_files/36525.got.cif
#   From: 2010.05.17/outbox.cif.g08.bks.cpg/sg65_19_cif.got.tgz:36525.got - 2010.06.03 17:01:31.
