data_PCOD9485335
_publ_section_title
;
Structure prediction by ZEFSAII (Michael W. Deem and Ramdas Pophale) SiO2 
 PCOD9485335
Probable space group: C M M M
;
_chemical_formula_sum "Si O2"
_cell_formula_units_Z 72
_cell_length_a 8.319380
_cell_length_b 31.277769
_cell_length_c 19.527161
_cell_angle_alpha 90.000000
_cell_angle_beta 90.000000
_cell_angle_gamma 90.000000
_cell_volume 5081.194703
_symmetry_space_group_name_H-M "C M M M"
_symmetry_group_IT_number 65
_symmetry_cell_setting 'orthorhombic'
loop_
_space_group_symop_operation_xyz
x,y,z
-x,-y,z
x,-y,-z
-x,y,-z
-x,-y,-z
x,y,-z
-x,y,z
x,-y,z
1/2+x,1/2+y,z
1/2-x,1/2-y,z
1/2+x,1/2-y,-z
1/2-x,1/2+y,-z
1/2-x,1/2-y,-z
1/2+x,1/2+y,-z
1/2-x,1/2+y,z
1/2+x,1/2-y,z
loop_
_atom_site_type_symbol
_atom_site_label
_atom_site_fract_x
_atom_site_fract_y
_atom_site_fract_z
Si Si1 0.320402 0.551917 0.839946
Si Si2 0.684537 0.795582 0.583077
Si Si3 0.810419 0.112625 0.420808
Si Si4 0.188886 0.450510 0.693034
Si Si5 0.000000 0.552071 0.079708
O O1 0.500000 0.566226 0.861064
O O2 0.320118 0.500000 0.843910
O O3 0.287784 0.562498 0.760436
O O4 0.165473 0.566452 0.883610
O O5 0.690325 0.793646 0.500000
O O6 0.500000 0.800784 0.603634
O O7 0.750000 0.750000 0.608125
O O8 0.779800 0.838364 0.601627
O O9 0.754624 0.108540 0.500000
O O10 0.723950 0.080009 0.370432
O O11 0.000000 0.104061 0.419299
O O12 0.228589 0.500000 0.676610
O O13 0.000000 0.449065 0.710924
O O14 0.000000 0.500000 0.083576
O O15 0.000000 0.563912 0.000000
#
# Coordination Sequence:
#
# PCOD9485335 Si02
#       5
#    16  16  16  16   8
#     4   9  16  27  42  58  78 106 138 170 206 250
#     4   9  16  27  43  60  78 100 126 162 210 259
#     4  10  20  31  42  59  81 104 138 183 221 257
#     4  10  19  31  45  58  77 108 145 183 219 257
#     4   9  16  26  40  60  83 103 131 171 208 244
#
# _framework density 14.169896
#
# number of rings (size 3 to 8) (size 9 to 14) (size 15 to 20)
#    0.000    2.556    1.111    2.000    0.000    6.222 
#    0.000    4.444    0.000    0.000    0.000    0.000 
#    0.000    0.000    0.000    0.000    0.000    1.111 
#
# Total GULP energy -200465.852783 kJ/mol
# GULP energy per Si atom -5568.495911 kJ/mol
# Density = 1.413764 g / cm^3
# Si number density = 14.169896 Si / 1000 Ang^3
#
#
#
# Elastic Constant Matrix: (Units=GPa)
#
#
# Indices 1 2 3 4 5 6 
#
# 1 82.8133 15.8318 34.1552 0.0000 0.0000 0.0000
# 2 15.8318 39.8398 25.4320 0.0000 0.0000 0.0000
# 3 34.1552 25.4320 57.9963 0.0000 0.0000 0.0000
# 4 0.0000 0.0000 0.0000 -0.7863 0.0000 0.0000
# 5 0.0000 0.0000 0.0000 0.0000 14.1870 0.0000
# 6 0.0000 0.0000 0.0000 0.0000 0.0000 19.8116
#
#
#
# Elastic Compliance Matrix: (Units=1/GPa)
#
#
# Indices 1 2 3 4 5 6 
#
# 1 0.015956 -0.000475 -0.009188 0.000000 0.000000 0.000000
# 2 -0.000475 0.034872 -0.015012 0.000000 0.000000 0.000000
# 3 -0.009188 -0.015012 0.029237 0.000000 0.000000 0.000000
# 4 0.000000 0.000000 0.000000 -1.271859 0.000000 0.000000
# 5 0.000000 0.000000 0.000000 0.000000 0.070487 0.000000
# 6 0.000000 0.000000 0.000000 0.000000 0.000000 0.050476
#
#
# Mechanical properties :
#
#
# Convention : Reuss Voigt Hill
#
# Bulk Modulus (GPa) = 32.55880 36.83194 34.69537
# Shear Modulus (GPa) = -4.94441 13.65783 4.35671
#
# Velocity S-wave (km/s) = -1.87001 3.10798 1.75536
# Velocity P-wave (km/s) = 4.28541 6.23930 5.35227
#
# Compressibility (1/GPa) = 0.03071366
#
# Stress axis : x y z
#
# Youngs Moduli (GPa) = 62.67312 28.67597 34.20369
#
# Poissons Ratio (x) = 0.01363 0.31427
# Poissons Ratio (y) = 0.02978 0.51347
# Poissons Ratio (z) = 0.57586 0.43048
#
# Static dielectric constant tensor:
#      x y z
#    x 1.504480 0.000000 0.000000 
#    y 0.000000 1.443620 0.000000 
#    z 0.000000 0.000000 1.454360 
# 
# From -- ./inp_files/56444.got.cif
#   From: 2010.05.17/outbox.cif.g08.bks.cpg/sg65_29_cif.got.tgz:56444.got - 2010.06.03 17:01:31.
