data_PCOD9485417
_publ_section_title
;
Structure prediction by ZEFSAII (Michael W. Deem and Ramdas Pophale) SiO2 
 PCOD9485417
Probable space group: C M M M
;
_chemical_formula_sum "Si O2"
_cell_formula_units_Z 64
_cell_length_a 16.495219
_cell_length_b 7.346758
_cell_length_c 23.789126
_cell_angle_alpha 90.000000
_cell_angle_beta 90.000000
_cell_angle_gamma 90.000000
_cell_volume 2882.918114
_symmetry_space_group_name_H-M "C M M M"
_symmetry_group_IT_number 65
_symmetry_cell_setting 'orthorhombic'
loop_
_space_group_symop_operation_xyz
x,y,z
-x,-y,z
x,-y,-z
-x,y,-z
-x,-y,-z
x,y,-z
-x,y,z
x,-y,z
1/2+x,1/2+y,z
1/2-x,1/2-y,z
1/2+x,1/2-y,-z
1/2-x,1/2+y,-z
1/2-x,1/2-y,-z
1/2+x,1/2+y,-z
1/2-x,1/2+y,z
1/2+x,1/2-y,z
loop_
_atom_site_type_symbol
_atom_site_label
_atom_site_fract_x
_atom_site_fract_y
_atom_site_fract_z
Si Si1 0.654623 0.716440 0.736472
Si Si2 0.653612 0.282052 0.861651
Si Si3 0.844701 0.216789 0.500000
Si Si4 0.904142 0.207895 0.381636
Si Si5 0.500000 0.277572 0.064845
O O1 0.636039 0.500000 0.737472
O O2 0.750000 0.750000 0.732175
O O3 0.632942 0.786653 0.798579
O O4 0.618303 0.790723 0.678594
O O5 0.647163 0.500000 0.860078
O O6 0.750000 0.250000 0.873941
O O7 0.583409 0.218807 0.904169
O O8 0.750000 0.250000 0.500000
O O9 0.876306 0.290974 0.440570
O O10 0.865484 0.000000 0.500000
O O11 0.000000 0.197717 0.383974
O O12 0.869787 0.000000 0.380761
O O13 0.500000 0.500000 0.065832
O O14 0.500000 0.221317 0.000000
#
# Coordination Sequence:
#
# PCOD9485417 Si02
#       5
#    16  16   8  16   8
#     4   9  17  29  47  69  92 119 152 190 231 276
#     4   9  18  32  51  74 100 130 164 203 245 289
#     4  10  19  31  47  65  87 118 150 186 228 272
#     4   9  17  28  45  68  90 114 150 192 228 266
#     4   9  18  32  51  75 101 130 166 204 241 287
#
# _framework density 22.199731
#
# number of rings (size 3 to 8) (size 9 to 14) (size 15 to 20)
#    0.000    2.875    0.000    1.125    1.750    2.000 
#    0.000    0.625    0.000    4.500    0.000    0.000 
#    0.000    0.000    0.000    0.000    0.000    0.000 
#
# Total GULP energy -178341.905767 kJ/mol
# GULP energy per Si atom -5573.184555 kJ/mol
# Density = 2.214920 g / cm^3
# Si number density = 22.199731 Si / 1000 Ang^3
#
#
#
# Elastic Constant Matrix: (Units=GPa)
#
#
# Indices 1 2 3 4 5 6 
#
# 1 104.7623 -2.7170 133.4457 0.0000 0.0000 0.0000
# 2 -2.7170 88.5785 13.9242 0.0000 0.0000 0.0000
# 3 133.4457 13.9242 267.8011 0.0000 0.0000 0.0000
# 4 0.0000 0.0000 0.0000 45.0688 0.0000 0.0000
# 5 0.0000 0.0000 0.0000 0.0000 55.6297 0.0000
# 6 0.0000 0.0000 0.0000 0.0000 0.0000 18.7427
#
#
#
# Elastic Compliance Matrix: (Units=1/GPa)
#
#
# Indices 1 2 3 4 5 6 
#
# 1 0.026878 0.002954 -0.013547 0.000000 0.000000 0.000000
# 2 0.002954 0.011707 -0.002081 0.000000 0.000000 0.000000
# 3 -0.013547 -0.002081 0.010593 0.000000 0.000000 0.000000
# 4 0.000000 0.000000 0.000000 0.022188 0.000000 0.000000
# 5 0.000000 0.000000 0.000000 0.000000 0.017976 0.000000
# 6 0.000000 0.000000 0.000000 0.000000 0.000000 0.053354
#
#
# Mechanical properties :
#
#
# Convention : Reuss Voigt Hill
#
# Bulk Modulus (GPa) = 41.96284 83.38308 62.67296
# Shear Modulus (GPa) = 28.41113 44.98751 36.69932
#
# Velocity S-wave (km/s) = 3.58130 4.50654 4.07030
# Velocity P-wave (km/s) = 6.00370 8.04490 7.09806
#
# Compressibility (1/GPa) = 0.02383061
#
# Stress axis : x y z
#
# Youngs Moduli (GPa) = 37.20499 85.41826 94.40387
#
# Poissons Ratio (x) = -0.25232 1.27889
# Poissons Ratio (y) = -0.10990 0.19642
# Poissons Ratio (z) = 0.50402 0.17773
#
# Static dielectric constant tensor:
#      x y z
#    x 1.746090 0.000000 0.000000 
#    y 0.000000 1.877830 0.000000 
#    z 0.000000 0.000000 1.870920 
# 
# From -- ./inp_files/50943.got.cif
#   From: 2010.05.17/outbox.cif.g08.bks.cpg/sg65_26_cif.got.tgz:50943.got - 2010.06.03 17:01:31.
