data_PCOD9485739
_publ_section_title
;
Structure prediction by ZEFSAII (Michael W. Deem and Ramdas Pophale) SiO2 
 PCOD9485739
Probable space group: C M M M
;
_chemical_formula_sum "Si O2"
_cell_formula_units_Z 72
_cell_length_a 16.813090
_cell_length_b 17.975886
_cell_length_c 12.912333
_cell_angle_alpha 90.000000
_cell_angle_beta 90.000000
_cell_angle_gamma 90.000000
_cell_volume 3902.496845
_symmetry_space_group_name_H-M "C M M M"
_symmetry_group_IT_number 65
_symmetry_cell_setting 'orthorhombic'
loop_
_space_group_symop_operation_xyz
x,y,z
-x,-y,z
x,-y,-z
-x,y,-z
-x,-y,-z
x,y,-z
-x,y,z
x,-y,z
1/2+x,1/2+y,z
1/2-x,1/2-y,z
1/2+x,1/2-y,-z
1/2-x,1/2+y,-z
1/2-x,1/2-y,-z
1/2+x,1/2+y,-z
1/2-x,1/2+y,z
1/2+x,1/2-y,z
loop_
_atom_site_type_symbol
_atom_site_label
_atom_site_fract_x
_atom_site_fract_y
_atom_site_fract_z
Si Si1 0.912769 0.410144 0.000000
Si Si2 0.315702 0.912942 0.204693
Si Si3 0.838511 0.837758 0.119353
Si Si4 0.338477 0.769641 0.687264
Si Si5 0.000000 0.809072 0.616926
Si Si6 0.500000 0.588879 0.816883
O O1 0.868255 0.391996 0.894989
O O2 0.917789 0.500000 0.000000
O O3 0.000000 0.376430 0.000000
O O4 0.226920 0.893008 0.167912
O O5 0.339904 0.858064 0.296802
O O6 0.324071 0.000000 0.227342
O O7 0.839305 0.767959 0.197596
O O8 0.922473 0.878980 0.127019
O O9 0.820581 0.819114 0.000000
O O10 0.250000 0.750000 0.643337
O O11 0.418087 0.737920 0.634113
O O12 0.000000 0.837580 0.500000
O O13 0.000000 0.874236 0.702329
O O14 0.500000 0.500000 0.813940
#
# Coordination Sequence:
#
# PCOD9485739 Si02
#       6
#     8  16  16  16   8   8
#     4   9  18  28  39  65  99 139 182 214 244 282
#     4  10  19  31  49  73 107 146 183 217 252 296
#     4  10  19  32  49  76 115 154 180 205 246 304
#     4   9  21  36  54  80 107 140 179 219 266 314
#     4  10  22  42  62  80 100 130 175 224 281 334
#     4  10  21  35  54  82 109 135 175 218 258 310
#
# _framework density 18.449726999999999
#
# number of rings (size 3 to 8) (size 9 to 14) (size 15 to 20)
#    0.000    2.333    1.111    1.000    3.111    3.778 
#    0.000    0.000    0.000    1.333    0.000    0.000 
#    0.000    0.000    0.000    0.000    0.000    0.000 
#
# Total GULP energy -200733.309690 kJ/mol
# GULP energy per Si atom -5575.925269 kJ/mol
# Density = 1.840773 g / cm^3
# Si number density = 18.449727 Si / 1000 Ang^3
#
#
#
# Elastic Constant Matrix: (Units=GPa)
#
#
# Indices 1 2 3 4 5 6 
#
# 1 102.3112 24.8951 -8.7621 0.0000 0.0000 0.0000
# 2 24.8951 90.5507 8.6500 0.0000 0.0000 0.0000
# 3 -8.7621 8.6500 50.2913 0.0000 0.0000 0.0000
# 4 0.0000 0.0000 0.0000 4.5246 0.0000 0.0000
# 5 0.0000 0.0000 0.0000 0.0000 12.6742 0.0000
# 6 0.0000 0.0000 0.0000 0.0000 0.0000 20.3839
#
#
#
# Elastic Compliance Matrix: (Units=1/GPa)
#
#
# Indices 1 2 3 4 5 6 
#
# 1 0.010758 -0.003189 0.002423 0.000000 0.000000 0.000000
# 2 -0.003189 0.012173 -0.002649 0.000000 0.000000 0.000000
# 3 0.002423 -0.002649 0.020762 0.000000 0.000000 0.000000
# 4 0.000000 0.000000 0.000000 0.221013 0.000000 0.000000
# 5 0.000000 0.000000 0.000000 0.000000 0.078901 0.000000
# 6 0.000000 0.000000 0.000000 0.000000 0.000000 0.049058
#
#
# Mechanical properties :
#
#
# Convention : Reuss Voigt Hill
#
# Bulk Modulus (GPa) = 27.12854 32.52436 29.82645
# Shear Modulus (GPa) = 12.14230 22.07455 17.10843
#
# Velocity S-wave (km/s) = 2.56819 3.46276 3.04846
# Velocity P-wave (km/s) = 4.85078 5.80125 5.34717
#
# Compressibility (1/GPa) = 0.03686155
#
# Stress axis : x y z
#
# Youngs Moduli (GPa) = 92.95793 82.14648 48.16507
#
# Poissons Ratio (x) = 0.26197 -0.11669
# Poissons Ratio (y) = 0.29644 0.12761
# Poissons Ratio (z) = -0.22521 0.21764
#
# Static dielectric constant tensor:
#      x y z
#    x 1.680260 0.000000 0.000000 
#    y 0.000000 1.631810 0.000000 
#    z 0.000000 0.000000 1.607440 
# 
# From -- ./inp_files/39888.got.cif
#   From: 2010.05.17/outbox.cif.g08.bks.cpg/sg65_20_cif.got.tgz:39888.got - 2010.06.03 17:01:31.
