data_PCOD9485377
_publ_section_title
;
Structure prediction by ZEFSAII (Michael W. Deem and Ramdas Pophale) SiO2 
 PCOD9485377
Probable space group: C M M M
;
_chemical_formula_sum "Si O2"
_cell_formula_units_Z 116
_cell_length_a 30.672831
_cell_length_b 7.485388
_cell_length_c 25.557364
_cell_angle_alpha 90.000000
_cell_angle_beta 90.000000
_cell_angle_gamma 90.000000
_cell_volume 5867.920710
_symmetry_space_group_name_H-M "C M M M"
_symmetry_group_IT_number 65
_symmetry_cell_setting 'orthorhombic'
loop_
_space_group_symop_operation_xyz
x,y,z
-x,-y,z
x,-y,-z
-x,y,-z
-x,-y,-z
x,y,-z
-x,y,z
x,-y,z
1/2+x,1/2+y,z
1/2-x,1/2-y,z
1/2+x,1/2-y,-z
1/2-x,1/2+y,-z
1/2-x,1/2-y,-z
1/2+x,1/2+y,-z
1/2-x,1/2+y,z
1/2+x,1/2-y,z
loop_
_atom_site_type_symbol
_atom_site_label
_atom_site_fract_x
_atom_site_fract_y
_atom_site_fract_z
Si Si1 0.700298 0.299100 0.907772
Si Si2 0.697626 0.500000 0.500000
Si Si3 0.549927 0.282735 0.152148
Si Si4 0.699866 0.786956 0.786842
Si Si5 0.609616 0.719660 0.057342
Si Si6 0.641978 0.788806 0.691433
Si Si7 0.798391 0.285174 0.404118
Si Si8 0.549205 0.285294 0.270316
O O1 0.697572 0.500000 0.925990
O O2 0.750000 0.250000 0.918104
O O3 0.693454 0.289370 0.844999
O O4 0.658841 0.211089 0.934661
O O5 0.698274 0.341649 0.454387
O O6 0.500000 0.234074 0.141109
O O7 0.552033 0.500000 0.153233
O O8 0.581358 0.219528 0.106607
O O9 0.559972 0.222035 0.211236
O O10 0.750000 0.750000 0.771006
O O11 0.666231 0.716774 0.743400
O O12 0.695018 0.000000 0.792355
O O13 0.608877 0.500000 0.059159
O O14 0.593081 0.770389 0.000000
O O15 0.665656 0.729536 0.638605
O O16 0.590235 0.760738 0.693860
O O17 0.649989 0.000000 0.693042
O O18 0.802082 0.500000 0.415867
O O19 0.750000 0.250000 0.381473
O O20 0.500000 0.222882 0.284088
O O21 0.547074 0.500000 0.268859
#
# Coordination Sequence:
#
# PCOD9485377 Si02
#       8
#    16   4  16  16  16  16  16  16
#     4  10  19  31  46  65  87 123 166 206 254 310
#     4  12  24  40  62  86 117 172 199 240 284 314
#     4   8  14  26  44  68  95 124 161 203 253 319
#     4  10  19  32  49  71 102 135 168 206 260 322
#     4   9  17  27  40  61  89 121 160 207 258 308
#     4  10  22  35  50  80 114 141 177 224 270 322
#     4  11  23  38  58  87 120 157 204 241 277 328
#     4   9  18  32  53  78 105 139 177 217 267 330
#
# _framework density 19.768501000000001
#
# number of rings (size 3 to 8) (size 9 to 14) (size 15 to 20)
#    0.000    2.345    0.690    4.138    0.966    3.034 
#    0.000    1.379    0.000    1.241    0.000    0.966 
#    0.000    2.207    0.000   15.724    0.000   14.069 
#
# Total GULP energy -323026.969458 kJ/mol
# GULP energy per Si atom -5569.430508 kJ/mol
# Density = 1.972351 g / cm^3
# Si number density = 19.768501 Si / 1000 Ang^3
#
#
#
# Elastic Constant Matrix: (Units=GPa)
#
#
# Indices 1 2 3 4 5 6 
#
# 1 118.4398 1.5921 75.9109 0.0000 0.0000 0.0000
# 2 1.5921 71.1149 5.0279 0.0000 0.0000 0.0000
# 3 75.9109 5.0279 76.5873 0.0000 0.0000 0.0000
# 4 0.0000 0.0000 0.0000 -31.7185 0.0000 0.0000
# 5 0.0000 0.0000 0.0000 0.0000 -9.1451 0.0000
# 6 0.0000 0.0000 0.0000 0.0000 0.0000 -67.9998
#
#
#
# Elastic Compliance Matrix: (Units=1/GPa)
#
#
# Indices 1 2 3 4 5 6 
#
# 1 0.023236 0.001113 -0.023104 0.000000 0.000000 0.000000
# 2 0.001113 0.014181 -0.002034 0.000000 0.000000 0.000000
# 3 -0.023104 -0.002034 0.036090 0.000000 0.000000 0.000000
# 4 0.000000 0.000000 0.000000 -0.031527 0.000000 0.000000
# 5 0.000000 0.000000 0.000000 0.000000 -0.109349 0.000000
# 6 0.000000 0.000000 0.000000 0.000000 0.000000 -0.014706
#
#
# Mechanical properties :
#
#
# Convention : Reuss Voigt Hill
#
# Bulk Modulus (GPa) = 39.28183 47.91151 43.59667
# Shear Modulus (GPa) = -195.77229 -9.53192 -102.65210
#
# Velocity S-wave (km/s) = -9.96230 -2.19824 -7.21386
# Velocity P-wave (km/s) = 10.60263 4.22444 6.87641
#
# Compressibility (1/GPa) = 0.02545706
#
# Stress axis : x y z
#
# Youngs Moduli (GPa) = 43.03695 70.51861 27.70838
#
# Poissons Ratio (x) = -0.07851 0.64017
# Poissons Ratio (y) = -0.04791 0.05637
# Poissons Ratio (z) = 0.99431 0.14346
#
# Static dielectric constant tensor:
#      x y z
#    x 1.744310 0.000000 0.000000 
#    y 0.000000 1.767120 0.000000 
#    z 0.000000 0.000000 1.677130 
# 
# From -- ./inp_files/72250.got.cif
#   From: 2010.05.17/outbox.cif.g08.bks.cpg/sg65_37_cif.got.tgz:72250.got - 2010.06.03 17:01:31.
