data_PCOD9485877
_publ_section_title
;
Structure prediction by ZEFSAII (Michael W. Deem and Ramdas Pophale) SiO2 
 PCOD9485877
Probable space group: C M M M
;
_chemical_formula_sum "Si O2"
_cell_formula_units_Z 80
_cell_length_a 19.607710
_cell_length_b 8.750648
_cell_length_c 26.812195
_cell_angle_alpha 90.000000
_cell_angle_beta 90.000000
_cell_angle_gamma 90.000000
_cell_volume 4600.440930
_symmetry_space_group_name_H-M "C M M M"
_symmetry_group_IT_number 65
_symmetry_cell_setting 'orthorhombic'
loop_
_space_group_symop_operation_xyz
x,y,z
-x,-y,z
x,-y,-z
-x,y,-z
-x,-y,-z
x,y,-z
-x,y,z
x,-y,z
1/2+x,1/2+y,z
1/2-x,1/2-y,z
1/2+x,1/2-y,-z
1/2-x,1/2+y,-z
1/2-x,1/2-y,-z
1/2+x,1/2+y,-z
1/2-x,1/2+y,z
1/2+x,1/2-y,z
loop_
_atom_site_type_symbol
_atom_site_label
_atom_site_fract_x
_atom_site_fract_y
_atom_site_fract_z
Si Si1 0.825464 0.317043 0.057013
Si Si2 0.080074 0.182439 0.142632
Si Si3 0.420110 0.817101 0.249948
Si Si4 0.673346 0.684260 0.553533
Si Si5 0.826699 0.816084 0.663211
O O1 0.823117 0.500000 0.061189
O O2 0.750000 0.250000 0.064936
O O3 0.876207 0.249538 0.097687
O O4 0.845929 0.277982 0.000000
O O5 0.100799 0.252918 0.195869
O O6 0.000000 0.218715 0.135378
O O7 0.087631 0.000000 0.144605
O O8 0.500000 0.776268 0.257324
O O9 0.374036 0.748095 0.293400
O O10 0.414441 0.000000 0.249793
O O11 0.641423 0.731221 0.500000
O O12 0.676628 0.500000 0.553479
O O13 0.750000 0.750000 0.553208
O O14 0.645142 0.728290 0.607862
O O15 0.750000 0.750000 0.667614
O O16 0.823591 0.000000 0.666142
#
# Coordination Sequence:
#
# PCOD9485877 Si02
#       5
#    16  16  16  16  16
#     4  10  21  37  57  81 110 142 174 209 251 299
#     4  10  21  37  57  80 105 134 171 213 255 302
#     4  10  21  37  55  74 100 134 171 212 258 306
#     4   8  14  25  42  66  96 128 161 200 247 296
#     4  10  19  31  50  76 104 132 167 210 253 302
#
# _framework density 17.389637
#
# number of rings (size 3 to 8) (size 9 to 14) (size 15 to 20)
#    0.000    2.400    0.000    2.400    0.000    5.600 
#    0.000    6.000    0.000    0.600    0.000    4.200 
#    0.000    0.000    0.000    0.000    0.000    0.000 
#
# Total GULP energy -222980.108709 kJ/mol
# GULP energy per Si atom -5574.502718 kJ/mol
# Density = 1.735006 g / cm^3
# Si number density = 17.389637 Si / 1000 Ang^3
#
#
#
# Elastic Constant Matrix: (Units=GPa)
#
#
# Indices 1 2 3 4 5 6 
#
# 1 56.3169 34.7863 93.1529 0.0000 0.0000 0.0000
# 2 34.7863 47.3333 65.0038 0.0000 0.0000 0.0000
# 3 93.1529 65.0038 219.9922 0.0000 0.0000 0.0000
# 4 0.0000 0.0000 0.0000 24.7889 0.0000 0.0000
# 5 0.0000 0.0000 0.0000 0.0000 -541.3089 0.0000
# 6 0.0000 0.0000 0.0000 0.0000 0.0000 24.8548
#
#
#
# Elastic Compliance Matrix: (Units=1/GPa)
#
#
# Indices 1 2 3 4 5 6 
#
# 1 0.066676 -0.017214 -0.023147 0.000000 0.000000 0.000000
# 2 -0.017214 0.039999 -0.004530 0.000000 0.000000 0.000000
# 3 -0.023147 -0.004530 0.015685 0.000000 0.000000 0.000000
# 4 0.000000 0.000000 0.000000 0.040341 0.000000 0.000000
# 5 0.000000 0.000000 0.000000 0.000000 -0.001847 0.000000
# 6 0.000000 0.000000 0.000000 0.000000 0.000000 0.040234
#
#
# Mechanical properties :
#
#
# Convention : Reuss Voigt Hill
#
# Bulk Modulus (GPa) = 30.69452 78.83649 54.76550
# Shear Modulus (GPa) = 16.57125 -89.61974 -36.52425
#
# Velocity S-wave (km/s) = 3.09032 -7.18667 -4.58792
# Velocity P-wave (km/s) = 5.51569 4.84050 1.86980
#
# Compressibility (1/GPa) = 0.03257911
#
# Stress axis : x y z
#
# Youngs Moduli (GPa) = 14.99791 25.00084 63.75386
#
# Poissons Ratio (x) = 0.43036 1.47569
# Poissons Ratio (y) = 0.25817 0.28880
# Poissons Ratio (z) = 0.34715 0.11325
#
# Static dielectric constant tensor:
#      x y z
#    x 1.560940 0.000000 0.000000 
#    y 0.000000 1.586690 0.000000 
#    z 0.000000 0.000000 1.616010 
# 
# From -- ./inp_files/72777.got.cif
#   From: 2010.05.17/outbox.cif.g08.bks.cpg/sg65_37_cif.got.tgz:72777.got - 2010.06.03 17:01:31.
