data_PCOD9485743
_publ_section_title
;
Structure prediction by ZEFSAII (Michael W. Deem and Ramdas Pophale) SiO2 
 PCOD9485743
Probable space group: C M M M
;
_chemical_formula_sum "Si O2"
_cell_formula_units_Z 80
_cell_length_a 7.892424
_cell_length_b 19.803939
_cell_length_c 26.478159
_cell_angle_alpha 90.000000
_cell_angle_beta 90.000000
_cell_angle_gamma 90.000000
_cell_volume 4138.564940
_symmetry_space_group_name_H-M "C M M M"
_symmetry_group_IT_number 65
_symmetry_cell_setting 'orthorhombic'
loop_
_space_group_symop_operation_xyz
x,y,z
-x,-y,z
x,-y,-z
-x,y,-z
-x,-y,-z
x,y,-z
-x,y,z
x,-y,z
1/2+x,1/2+y,z
1/2-x,1/2-y,z
1/2+x,1/2-y,-z
1/2-x,1/2+y,-z
1/2-x,1/2-y,-z
1/2+x,1/2+y,-z
1/2-x,1/2+y,z
1/2+x,1/2-y,z
loop_
_atom_site_type_symbol
_atom_site_label
_atom_site_fract_x
_atom_site_fract_y
_atom_site_fract_z
Si Si1 0.296794 0.075960 0.204957
Si Si2 0.292270 0.577941 0.500000
Si Si3 0.293107 0.078190 0.908236
Si Si4 0.795518 0.328638 0.000000
Si Si5 0.298937 0.673277 0.295475
Si Si6 0.795565 0.172485 0.408750
O O1 0.500000 0.072885 0.201713
O O2 0.237430 0.096387 0.148736
O O3 0.255158 0.124667 0.250709
O O4 0.233263 0.000000 0.214766
O O5 0.238203 0.500000 0.500000
O O6 0.500000 0.577885 0.500000
O O7 0.235959 0.619685 0.450691
O O8 0.500000 0.078906 0.909041
O O9 0.234439 0.130459 0.950602
O O10 0.244078 0.000000 0.918408
O O11 0.750000 0.250000 0.000000
O O12 0.000000 0.332499 0.000000
O O13 0.500000 0.669397 0.298905
O O14 0.250000 0.750000 0.283667
O O15 0.230929 0.657778 0.351916
O O16 0.750000 0.250000 0.421300
O O17 0.000000 0.168749 0.408090
#
# Coordination Sequence:
#
# PCOD9485743 Si02
#       6
#    16   8  16   8  16  16
#     4   9  18  33  52  74 100 129 162 201 245 291
#     4   9  17  30  49  73  98 123 154 194 240 285
#     4   8  15  30  52  73  92 122 164 200 231 278
#     4  10  19  31  49  73  99 124 154 196 242 284
#     4  10  20  33  50  73 100 130 166 204 242 287
#     4   9  18  32  51  72  94 125 161 197 236 282
#
# _framework density 19.330372000000001
#
# number of rings (size 3 to 8) (size 9 to 14) (size 15 to 20)
#    0.000    2.900    0.000    2.400    0.000    4.000 
#    0.000    5.000    0.000    3.600    0.000    0.000 
#    0.000    0.000    0.000    0.000    0.000    0.000 
#
# Total GULP energy -223049.713914 kJ/mol
# GULP energy per Si atom -5576.242848 kJ/mol
# Density = 1.928638 g / cm^3
# Si number density = 19.330372 Si / 1000 Ang^3
#
#
#
# Elastic Constant Matrix: (Units=GPa)
#
#
# Indices 1 2 3 4 5 6 
#
# 1 16.8176 5.6880 12.7375 0.0000 0.0000 0.0000
# 2 5.6880 164.1656 160.4099 0.0000 0.0000 0.0000
# 3 12.7375 160.4099 206.3474 0.0000 0.0000 0.0000
# 4 0.0000 0.0000 0.0000 41.7338 0.0000 0.0000
# 5 0.0000 0.0000 0.0000 0.0000 -37.7118 0.0000
# 6 0.0000 0.0000 0.0000 0.0000 0.0000 22.8559
#
#
#
# Elastic Compliance Matrix: (Units=1/GPa)
#
#
# Indices 1 2 3 4 5 6 
#
# 1 0.064179 0.006852 -0.009289 0.000000 0.000000 0.000000
# 2 0.006852 0.026070 -0.020689 0.000000 0.000000 0.000000
# 3 -0.009289 -0.020689 0.021503 0.000000 0.000000 0.000000
# 4 0.000000 0.000000 0.000000 0.023961 0.000000 0.000000
# 5 0.000000 0.000000 0.000000 0.000000 -0.026517 0.000000
# 6 0.000000 0.000000 0.000000 0.000000 0.000000 0.043752
#
#
# Mechanical properties :
#
#
# Convention : Reuss Voigt Hill
#
# Bulk Modulus (GPa) = 15.26693 82.77795 49.02244
# Shear Modulus (GPa) = 22.62116 19.27526 20.94821
#
# Velocity S-wave (km/s) = 3.42459 3.16119 3.29552
# Velocity P-wave (km/s) = 4.85305 7.49933 6.31633
#
# Compressibility (1/GPa) = 0.06550104
#
# Stress axis : x y z
#
# Youngs Moduli (GPa) = 15.58143 38.35887 46.50584
#
# Poissons Ratio (x) = -0.26285 0.43197
# Poissons Ratio (y) = -0.10677 0.96216
# Poissons Ratio (z) = 0.14473 0.79360
#
# Static dielectric constant tensor:
#      x y z
#    x 1.707650 0.000000 0.000000 
#    y 0.000000 1.628170 0.000000 
#    z 0.000000 0.000000 1.698110 
# 
# From -- ./inp_files/67359.got.cif
#   From: 2010.05.17/outbox.cif.g08.bks.cpg/sg65_34_cif.got.tgz:67359.got - 2010.06.03 17:01:31.
