data_PCOD9485822
_publ_section_title
;
Structure prediction by ZEFSAII (Michael W. Deem and Ramdas Pophale) SiO2 
 PCOD9485822
Probable space group: C M M M
;
_chemical_formula_sum "Si O2"
_cell_formula_units_Z 104
_cell_length_a 8.061009
_cell_length_b 29.772435
_cell_length_c 25.404834
_cell_angle_alpha 90.000000
_cell_angle_beta 90.000000
_cell_angle_gamma 90.000000
_cell_volume 6097.055149
_symmetry_space_group_name_H-M "C M M M"
_symmetry_group_IT_number 65
_symmetry_cell_setting 'orthorhombic'
loop_
_space_group_symop_operation_xyz
x,y,z
-x,-y,z
x,-y,-z
-x,y,-z
-x,-y,-z
x,y,-z
-x,y,z
x,-y,z
1/2+x,1/2+y,z
1/2-x,1/2-y,z
1/2+x,1/2-y,-z
1/2-x,1/2+y,-z
1/2-x,1/2-y,-z
1/2+x,1/2+y,-z
1/2-x,1/2+y,z
1/2+x,1/2-y,z
loop_
_atom_site_type_symbol
_atom_site_label
_atom_site_fract_x
_atom_site_fract_y
_atom_site_fract_z
Si Si1 0.500000 0.445579 0.439975
Si Si2 0.797885 0.894307 0.263377
Si Si3 0.302105 0.299032 0.223622
Si Si4 0.696410 0.799210 0.898318
Si Si5 0.810051 0.553651 0.633116
Si Si6 0.299293 0.893127 0.058250
Si Si7 0.199680 0.949015 0.159649
O O1 0.500000 0.500000 0.441878
O O2 0.500000 0.429045 0.500000
O O3 0.666860 0.433018 0.408317
O O4 0.747296 0.842273 0.256759
O O5 0.722462 0.919136 0.313453
O O6 0.746277 0.919791 0.209840
O O7 0.000000 0.896514 0.267360
O O8 0.500000 0.300245 0.221173
O O9 0.250000 0.250000 0.243621
O O10 0.240569 0.303323 0.163448
O O11 0.500000 0.800457 0.902811
O O12 0.750000 0.750000 0.917043
O O13 0.763186 0.842775 0.928419
O O14 0.790757 0.500000 0.643321
O O15 0.000000 0.560739 0.614927
O O16 0.500000 0.892001 0.057798
O O17 0.247894 0.925589 0.105279
O O18 0.242916 0.906917 0.000000
O O19 0.000000 0.950256 0.161913
O O20 0.262369 0.000000 0.162824
#
# Coordination Sequence:
#
# PCOD9485822 Si02
#       7
#     8  16  16  16  16  16  16
#     4   9  18  34  54  76 114 160 193 231 273 305
#     4  10  19  33  53  74 105 142 171 213 268 319
#     4  10  19  31  50  74 101 133 165 200 256 320
#     4  10  19  32  51  71  94 121 156 199 251 313
#     4  10  20  32  51  81 113 150 193 230 269 315
#     4  10  22  38  52  68  93 124 160 206 260 314
#     4  10  21  36  54  74  95 125 165 207 256 312
#
# _framework density 17.057414000000001
#
# number of rings (size 3 to 8) (size 9 to 14) (size 15 to 20)
#    0.000    2.077    2.308    2.308    0.000    4.615 
#    0.000    3.077    0.000    0.000    0.000    0.000 
#    0.000    0.615    0.308    0.000    0.000    0.000 
#
# Total GULP energy -290113.974268 kJ/mol
# GULP energy per Si atom -5579.114890 kJ/mol
# Density = 1.701859 g / cm^3
# Si number density = 17.057414 Si / 1000 Ang^3
#
#
#
# Elastic Constant Matrix: (Units=GPa)
#
#
# Indices 1 2 3 4 5 6 
#
# 1 52.7093 29.7216 35.6445 0.0000 0.0000 0.0000
# 2 29.7216 106.4376 53.3786 0.0000 0.0000 0.0000
# 3 35.6445 53.3786 113.9187 0.0000 0.0000 0.0000
# 4 0.0000 0.0000 0.0000 13.0992 0.0000 0.0000
# 5 0.0000 0.0000 0.0000 0.0000 9.2821 0.0000
# 6 0.0000 0.0000 0.0000 0.0000 0.0000 43.0705
#
#
#
# Elastic Compliance Matrix: (Units=1/GPa)
#
#
# Indices 1 2 3 4 5 6 
#
# 1 0.025333 -0.004051 -0.006028 0.000000 0.000000 0.000000
# 2 -0.004051 0.012929 -0.004791 0.000000 0.000000 0.000000
# 3 -0.006028 -0.004791 0.012909 0.000000 0.000000 0.000000
# 4 0.000000 0.000000 0.000000 0.076340 0.000000 0.000000
# 5 0.000000 0.000000 0.000000 0.000000 0.107734 0.000000
# 6 0.000000 0.000000 0.000000 0.000000 0.000000 0.023218
#
#
# Mechanical properties :
#
#
# Convention : Reuss Voigt Hill
#
# Bulk Modulus (GPa) = 46.66066 56.72836 51.69451
# Shear Modulus (GPa) = 16.92929 23.37843 20.15386
#
# Velocity S-wave (km/s) = 3.15380 3.70614 3.44107
# Velocity P-wave (km/s) = 6.37780 7.18634 6.79411
#
# Compressibility (1/GPa) = 0.02143133
#
# Stress axis : x y z
#
# Youngs Moduli (GPa) = 39.47450 77.34694 77.46425
#
# Poissons Ratio (x) = 0.31330 0.46699
# Poissons Ratio (y) = 0.15990 0.37110
# Poissons Ratio (z) = 0.23797 0.37054
#
# Static dielectric constant tensor:
#      x y z
#    x 1.608800 0.000000 0.000000 
#    y 0.000000 1.595360 0.000000 
#    z 0.000000 0.000000 1.546910 
# 
# From -- ./inp_files/68517.got.cif
#   From: 2010.05.17/outbox.cif.g08.bks.cpg/sg65_35_cif.got.tgz:68517.got - 2010.06.03 17:01:31.
