data_PCOD9485433
_publ_section_title
;
Structure prediction by ZEFSAII (Michael W. Deem and Ramdas Pophale) SiO2 
 PCOD9485433
Probable space group: C M M M
;
_chemical_formula_sum "Si O2"
_cell_formula_units_Z 88
_cell_length_a 27.973858
_cell_length_b 7.727906
_cell_length_c 22.196612
_cell_angle_alpha 90.000000
_cell_angle_beta 90.000000
_cell_angle_gamma 90.000000
_cell_volume 4798.449045
_symmetry_space_group_name_H-M "C M M M"
_symmetry_group_IT_number 65
_symmetry_cell_setting 'orthorhombic'
loop_
_space_group_symop_operation_xyz
x,y,z
-x,-y,z
x,-y,-z
-x,y,-z
-x,-y,-z
x,y,-z
-x,y,z
x,-y,z
1/2+x,1/2+y,z
1/2-x,1/2-y,z
1/2+x,1/2-y,-z
1/2-x,1/2+y,-z
1/2-x,1/2-y,-z
1/2+x,1/2+y,-z
1/2-x,1/2+y,z
1/2+x,1/2-y,z
loop_
_atom_site_type_symbol
_atom_site_label
_atom_site_fract_x
_atom_site_fract_y
_atom_site_fract_z
Si Si1 0.053950 0.709233 0.687154
Si Si2 0.444038 0.210974 0.933409
Si Si3 0.601169 0.204476 0.188998
Si Si4 0.306065 0.708758 0.500000
Si Si5 0.804580 0.206013 0.748304
Si Si6 0.350304 0.706760 0.624444
O O1 0.053369 0.500000 0.689220
O O2 0.072473 0.773744 0.752632
O O3 0.094215 0.759469 0.638941
O O4 0.000000 0.768770 0.675105
O O5 0.500000 0.254578 0.926131
O O6 0.415231 0.275241 0.875387
O O7 0.441328 0.000000 0.934224
O O8 0.428323 0.270274 0.000000
O O9 0.656816 0.227162 0.203980
O O10 0.590606 0.000000 0.187523
O O11 0.310866 0.500000 0.500000
O O12 0.250000 0.750000 0.500000
O O13 0.330959 0.775214 0.561080
O O14 0.750000 0.250000 0.760865
O O15 0.820758 0.274766 0.682344
O O16 0.809522 0.000000 0.747078
O O17 0.343484 0.500000 0.623387
#
# Coordination Sequence:
#
# PCOD9485433 Si02
#       6
#    16  16  16   8  16  16
#     4   9  17  29  46  68  93 121 153 186 218 256
#     4   8  13  22  40  68  97 121 147 180 217 259
#     4   9  16  27  45  68  93 120 149 183 222 261
#     4  10  20  34  51  70  91 115 146 183 225 272
#     4  10  19  31  47  67  90 115 146 184 225 267
#     4   9  19  33  48  68  92 117 146 181 222 269
#
# _framework density 18.339258000000001
#
# number of rings (size 3 to 8) (size 9 to 14) (size 15 to 20)
#    0.000    2.909    0.000    2.182    0.000    4.000 
#    0.000    0.455    0.000    5.455    0.000    1.273 
#    0.000    0.000    0.000    0.000    0.000    0.000 
#
# Total GULP energy -245295.840695 kJ/mol
# GULP energy per Si atom -5574.905470 kJ/mol
# Density = 1.829752 g / cm^3
# Si number density = 18.339258 Si / 1000 Ang^3
#
#
#
# Elastic Constant Matrix: (Units=GPa)
#
#
# Indices 1 2 3 4 5 6 
#
# 1 127.0903 -16.1884 93.3939 0.0000 0.0000 0.0000
# 2 -16.1884 23.3938 5.7673 0.0000 0.0000 0.0000
# 3 93.3939 5.7673 173.7331 0.0000 0.0000 0.0000
# 4 0.0000 0.0000 0.0000 6.4136 0.0000 0.0000
# 5 0.0000 0.0000 0.0000 0.0000 28.8933 0.0000
# 6 0.0000 0.0000 0.0000 0.0000 0.0000 18.8207
#
#
#
# Elastic Compliance Matrix: (Units=1/GPa)
#
#
# Indices 1 2 3 4 5 6 
#
# 1 0.016434 0.013662 -0.009288 0.000000 0.000000 0.000000
# 2 0.013662 0.054457 -0.009152 0.000000 0.000000 0.000000
# 3 -0.009288 -0.009152 0.011053 0.000000 0.000000 0.000000
# 4 0.000000 0.000000 0.000000 0.155918 0.000000 0.000000
# 5 0.000000 0.000000 0.000000 0.000000 0.034610 0.000000
# 6 0.000000 0.000000 0.000000 0.000000 0.000000 0.053133
#
#
# Mechanical properties :
#
#
# Convention : Reuss Voigt Hill
#
# Bulk Modulus (GPa) = 13.81453 54.46253 34.13853
# Shear Modulus (GPa) = 13.91632 26.90847 20.41240
#
# Velocity S-wave (km/s) = 2.75767 3.83464 3.33985
# Velocity P-wave (km/s) = 4.20580 7.02621 5.79036
#
# Compressibility (1/GPa) = 0.07238756
#
# Stress axis : x y z
#
# Youngs Moduli (GPa) = 60.84916 18.36318 90.47524
#
# Poissons Ratio (x) = -0.25088 0.84034
# Poissons Ratio (y) = -0.83133 0.82804
# Poissons Ratio (z) = 0.56517 0.16806
#
# Static dielectric constant tensor:
#      x y z
#    x 1.562440 0.000000 0.000000 
#    y 0.000000 1.694460 0.000000 
#    z 0.000000 0.000000 1.650120 
# 
# From -- ./inp_files/60278.got.cif
#   From: 2010.05.17/outbox.cif.g08.bks.cpg/sg65_31_cif.got.tgz:60278.got - 2010.06.03 17:01:31.
