data_PCOD9485186
_publ_section_title
;
Structure prediction by ZEFSAII (Michael W. Deem and Ramdas Pophale) SiO2 
 PCOD9485186
Probable space group: C M M M
;
_chemical_formula_sum "Si O2"
_cell_formula_units_Z 72
_cell_length_a 13.915344
_cell_length_b 32.181580
_cell_length_c 7.343604
_cell_angle_alpha 90.000000
_cell_angle_beta 90.000000
_cell_angle_gamma 90.000000
_cell_volume 3288.596265
_symmetry_space_group_name_H-M "C M M M"
_symmetry_group_IT_number 65
_symmetry_cell_setting 'orthorhombic'
loop_
_space_group_symop_operation_xyz
x,y,z
-x,-y,z
x,-y,-z
-x,y,-z
-x,-y,-z
x,y,-z
-x,y,z
x,-y,z
1/2+x,1/2+y,z
1/2-x,1/2-y,z
1/2+x,1/2-y,-z
1/2-x,1/2+y,-z
1/2-x,1/2-y,-z
1/2+x,1/2+y,-z
1/2-x,1/2+y,z
1/2+x,1/2-y,z
loop_
_atom_site_type_symbol
_atom_site_label
_atom_site_fract_x
_atom_site_fract_y
_atom_site_fract_z
Si Si1 0.894393 0.767818 0.778334
Si Si2 0.706067 0.184434 0.219878
Si Si3 0.000000 0.548410 0.721951
Si Si4 0.606960 0.451183 0.721149
Si Si5 0.303736 0.088681 0.710259
O O1 0.810311 0.798729 0.720771
O O2 0.867218 0.720789 0.723991
O O3 0.000000 0.779565 0.716868
O O4 0.893234 0.768051 0.000000
O O5 0.687475 0.138259 0.284253
O O6 0.704792 0.183214 0.000000
O O7 0.098860 0.569159 0.788624
O O8 0.000000 0.500000 0.766027
O O9 0.000000 0.552498 0.500000
O O10 0.604799 0.448511 0.500000
O O11 0.500000 0.437544 0.783072
O O12 0.618137 0.500000 0.766864
O O13 0.700570 0.426103 0.786678
O O14 0.301246 0.074762 0.500000
#
# Coordination Sequence:
#
# PCOD9485186 Si02
#       5
#    16  16   8  16  16
#     4   8  15  30  50  67  88 122 160 192 221 271
#     4   9  18  31  48  71  92 117 156 193 230 274
#     4   9  18  32  49  69  95 131 167 193 225 277
#     4   8  14  26  45  67  89 117 154 191 225 266
#     4  10  19  30  47  71  97 121 151 194 235 275
#
# _framework density 21.893840000000001
#
# number of rings (size 3 to 8) (size 9 to 14) (size 15 to 20)
#    0.000    3.222    0.000    2.667    1.556    3.556 
#    0.000    2.222    0.000    4.667    0.000    1.556 
#    0.000    0.000    0.000    0.000    0.000    0.000 
#
# Total GULP energy -200884.759714 kJ/mol
# GULP energy per Si atom -5580.132214 kJ/mol
# Density = 2.184401 g / cm^3
# Si number density = 21.893840 Si / 1000 Ang^3
#
#
#
# Elastic Constant Matrix: (Units=GPa)
#
#
# Indices 1 2 3 4 5 6 
#
# 1 159.9798 70.4131 9.0042 0.0000 0.0000 0.0000
# 2 70.4131 106.5310 -8.0944 0.0000 0.0000 0.0000
# 3 9.0042 -8.0944 80.5288 0.0000 0.0000 0.0000
# 4 0.0000 0.0000 0.0000 20.8725 0.0000 0.0000
# 5 0.0000 0.0000 0.0000 0.0000 0.4286 0.0000
# 6 0.0000 0.0000 0.0000 0.0000 0.0000 6.5451
#
#
#
# Elastic Compliance Matrix: (Units=1/GPa)
#
#
# Indices 1 2 3 4 5 6 
#
# 1 0.009020 -0.006085 -0.001620 0.000000 0.000000 0.000000
# 2 -0.006085 0.013564 0.002044 0.000000 0.000000 0.000000
# 3 -0.001620 0.002044 0.012805 0.000000 0.000000 0.000000
# 4 0.000000 0.000000 0.000000 0.047910 0.000000 0.000000
# 5 0.000000 0.000000 0.000000 0.000000 2.333125 0.000000
# 6 0.000000 0.000000 0.000000 0.000000 0.000000 0.152786
#
#
# Mechanical properties :
#
#
# Convention : Reuss Voigt Hill
#
# Bulk Modulus (GPa) = 41.55251 54.40948 47.98099
# Shear Modulus (GPa) = 1.93158 23.95037 12.94097
#
# Velocity S-wave (km/s) = 0.94030 3.31105 2.43385
# Velocity P-wave (km/s) = 4.49435 6.28672 5.46452
#
# Compressibility (1/GPa) = 0.02406593
#
# Stress axis : x y z
#
# Youngs Moduli (GPa) = 110.86102 73.72276 78.09739
#
# Poissons Ratio (x) = 0.44862 0.12654
# Poissons Ratio (y) = 0.67461 -0.15962
# Poissons Ratio (z) = 0.17962 -0.15068
#
# Static dielectric constant tensor:
#      x y z
#    x 1.804980 0.000000 0.000000 
#    y 0.000000 1.720470 0.000000 
#    z 0.000000 0.000000 1.863200 
# 
# From -- ./inp_files/7322.got.cif
#   From: 2010.05.17/outbox.cif.g08.bks.cpg/sg65_4_cif.got.tgz:7322.got - 2010.06.03 17:01:31.
