data_PCOD9485168
_publ_section_title
;
Structure prediction by ZEFSAII (Michael W. Deem and Ramdas Pophale) SiO2 
 PCOD9485168
Probable space group: C M M M
;
_chemical_formula_sum "Si O2"
_cell_formula_units_Z 88
_cell_length_a 9.330191
_cell_length_b 14.750583
_cell_length_c 30.265827
_cell_angle_alpha 90.000000
_cell_angle_beta 90.000000
_cell_angle_gamma 90.000000
_cell_volume 4165.357345
_symmetry_space_group_name_H-M "C M M M"
_symmetry_group_IT_number 65
_symmetry_cell_setting 'orthorhombic'
loop_
_space_group_symop_operation_xyz
x,y,z
-x,-y,z
x,-y,-z
-x,y,-z
-x,-y,-z
x,y,-z
-x,y,z
x,-y,z
1/2+x,1/2+y,z
1/2-x,1/2-y,z
1/2+x,1/2-y,-z
1/2-x,1/2+y,-z
1/2-x,1/2-y,-z
1/2+x,1/2+y,-z
1/2-x,1/2+y,z
1/2+x,1/2-y,z
loop_
_atom_site_type_symbol
_atom_site_label
_atom_site_fract_x
_atom_site_fract_y
_atom_site_fract_z
Si Si1 0.663563 0.889110 0.500000
Si Si2 0.166943 0.610466 0.673038
Si Si3 0.828627 0.846025 0.857090
Si Si4 0.660595 0.107080 0.770453
Si Si5 0.663568 0.388950 0.413056
Si Si6 0.827830 0.847623 0.047623
O O1 0.500000 0.857798 0.500000
O O2 0.745812 0.861236 0.544259
O O3 0.661542 0.000000 0.500000
O O4 0.172877 0.500000 0.671940
O O5 0.211195 0.641042 0.722399
O O6 0.263956 0.641389 0.632586
O O7 0.000000 0.635069 0.666873
O O8 0.750000 0.750000 0.860574
O O9 0.764488 0.883016 0.811788
O O10 0.794481 0.892003 0.904764
O O11 0.000000 0.839621 0.853594
O O12 0.500000 0.144731 0.779875
O O13 0.644381 0.000000 0.764497
O O14 0.500000 0.358539 0.416293
O O15 0.662849 0.500000 0.412930
O O16 0.750000 0.750000 0.047096
O O17 0.000000 0.834037 0.048040
O O18 0.792511 0.891619 0.000000
#
# Coordination Sequence:
#
# PCOD9485168 Si02
#       6
#     8  16  16  16  16  16
#     4   9  15  21  29  41  61  93 130 165 204 253
#     4   8  14  25  39  53  71 100 137 172 209 256
#     4  10  19  30  47  70  94 119 148 184 225 269
#     4   9  18  32  48  65  88 119 153 189 227 267
#     4   9  15  21  30  46  68  93 125 168 212 251
#     4   8  14  25  41  62  87 113 142 177 217 261
#
# _framework density 21.126639000000001
#
# number of rings (size 3 to 8) (size 9 to 14) (size 15 to 20)
#    0.000    3.182    0.000    2.455    0.000    5.091 
#    0.000    1.818    0.000    0.545    0.000    3.818 
#    0.000    0.000    0.000    0.818    0.000   11.818 
#
# Total GULP energy -245090.982021 kJ/mol
# GULP energy per Si atom -5570.249591 kJ/mol
# Density = 2.107855 g / cm^3
# Si number density = 21.126639 Si / 1000 Ang^3
#
#
#
# Elastic Constant Matrix: (Units=GPa)
#
#
# Indices 1 2 3 4 5 6 
#
# 1 113.2666 10.0787 125.8037 0.0000 0.0000 0.0000
# 2 10.0787 40.6895 12.3492 0.0000 0.0000 0.0000
# 3 125.8037 12.3492 269.3102 0.0000 0.0000 0.0000
# 4 0.0000 0.0000 0.0000 -9.6025 0.0000 0.0000
# 5 0.0000 0.0000 0.0000 0.0000 39.6743 0.0000
# 6 0.0000 0.0000 0.0000 0.0000 0.0000 7.4560
#
#
#
# Elastic Compliance Matrix: (Units=1/GPa)
#
#
# Indices 1 2 3 4 5 6 
#
# 1 0.018506 -0.001988 -0.008554 0.000000 0.000000 0.000000
# 2 -0.001988 0.025137 -0.000224 0.000000 0.000000 0.000000
# 3 -0.008554 -0.000224 0.007719 0.000000 0.000000 0.000000
# 4 0.000000 0.000000 0.000000 -0.104139 0.000000 0.000000
# 5 0.000000 0.000000 0.000000 0.000000 0.025205 0.000000
# 6 0.000000 0.000000 0.000000 0.000000 0.000000 0.134120
#
#
# Mechanical properties :
#
#
# Convention : Reuss Voigt Hill
#
# Bulk Modulus (GPa) = 33.52238 79.96995 56.74617
# Shear Modulus (GPa) = 36.22581 25.84118 31.03349
#
# Velocity S-wave (km/s) = 4.14538 3.50116 3.83682
# Velocity P-wave (km/s) = 6.23009 7.36743 6.82250
#
# Compressibility (1/GPa) = 0.02983082
#
# Stress axis : x y z
#
# Youngs Moduli (GPa) = 54.03647 39.78235 129.54805
#
# Poissons Ratio (x) = 0.07908 1.10810
# Poissons Ratio (y) = 0.10742 0.02902
# Poissons Ratio (z) = 0.46221 0.00891
#
# Static dielectric constant tensor:
#      x y z
#    x 1.722480 0.000000 0.000000 
#    y 0.000000 1.921110 0.000000 
#    z 0.000000 0.000000 1.823720 
# 
# From -- ./inp_files/76445.got.cif
#   From: 2010.05.17/outbox.cif.g08.bks.cpg/sg65_39_cif.got.tgz:76445.got - 2010.06.03 17:01:31.
