data_PCOD9485872
_publ_section_title
;
Structure prediction by ZEFSAII (Michael W. Deem and Ramdas Pophale) SiO2 
 PCOD9485872
Probable space group: C M M M
;
_chemical_formula_sum "Si O2"
_cell_formula_units_Z 80
_cell_length_a 8.522542
_cell_length_b 26.997262
_cell_length_c 19.742916
_cell_angle_alpha 90.000000
_cell_angle_beta 90.000000
_cell_angle_gamma 90.000000
_cell_volume 4542.554737
_symmetry_space_group_name_H-M "C M M M"
_symmetry_group_IT_number 65
_symmetry_cell_setting 'orthorhombic'
loop_
_space_group_symop_operation_xyz
x,y,z
-x,-y,z
x,-y,-z
-x,y,-z
-x,-y,-z
x,y,-z
-x,y,z
x,-y,z
1/2+x,1/2+y,z
1/2-x,1/2-y,z
1/2+x,1/2-y,-z
1/2-x,1/2+y,-z
1/2-x,1/2-y,-z
1/2+x,1/2+y,-z
1/2-x,1/2+y,z
1/2+x,1/2-y,z
loop_
_atom_site_type_symbol
_atom_site_label
_atom_site_fract_x
_atom_site_fract_y
_atom_site_fract_z
Si Si1 0.689371 0.696194 0.921980
Si Si2 0.312117 0.105996 0.327255
Si Si3 0.689430 0.803549 0.578268
Si Si4 0.818514 0.000000 0.167429
Si Si5 0.690920 0.392704 0.174554
Si Si6 0.680525 0.500000 0.667772
O O1 0.500000 0.696899 0.921131
O O2 0.750000 0.750000 0.900273
O O3 0.742139 0.652213 0.872953
O O4 0.739779 0.688166 0.000000
O O5 0.500000 0.106739 0.323945
O O6 0.258160 0.150567 0.375720
O O7 0.245745 0.113536 0.251694
O O8 0.259872 0.051618 0.352585
O O9 0.740200 0.809904 0.500000
O O10 0.500000 0.802633 0.579235
O O11 0.750000 0.750000 0.602054
O O12 0.750579 0.946558 0.148391
O O13 0.816737 0.000000 0.249690
O O14 0.000000 0.000000 0.144729
O O15 0.500000 0.394434 0.174969
O O16 0.500000 0.500000 0.646490
#
# Coordination Sequence:
#
# PCOD9485872 Si02
#       6
#    16  16  16   8  16   8
#     4   9  18  32  48  66  91 125 162 197 235 281
#     4  10  19  31  50  75  99 124 159 200 240 284
#     4   9  19  35  52  70  95 128 163 199 241 287
#     4   7  12  25  44  64  86 114 144 177 222 270
#     4   9  17  30  48  69  94 123 156 194 236 283
#     4   9  17  31  50  71  98 130 160 192 236 286
#
# _framework density 17.611235000000001
#
# number of rings (size 3 to 8) (size 9 to 14) (size 15 to 20)
#    0.000    3.000    0.000    2.100    0.000    3.200 
#    0.000    5.000    0.000    6.000    0.000    0.000 
#    0.000    8.000    0.000    0.000    0.000    0.000 
#
# Total GULP energy -222794.343665 kJ/mol
# GULP energy per Si atom -5569.858592 kJ/mol
# Density = 1.757115 g / cm^3
# Si number density = 17.611235 Si / 1000 Ang^3
#
#
#
# Elastic Constant Matrix: (Units=GPa)
#
#
# Indices 1 2 3 4 5 6 
#
# 1 15.2136 26.7726 12.7530 0.0000 0.0000 0.0000
# 2 26.7726 222.0874 91.1942 0.0000 0.0000 0.0000
# 3 12.7530 91.1942 57.8847 0.0000 0.0000 0.0000
# 4 0.0000 0.0000 0.0000 -18.7431 0.0000 0.0000
# 5 0.0000 0.0000 0.0000 0.0000 17.9687 0.0000
# 6 0.0000 0.0000 0.0000 0.0000 0.0000 29.7234
#
#
#
# Elastic Compliance Matrix: (Units=1/GPa)
#
#
# Indices 1 2 3 4 5 6 
#
# 1 0.084498 -0.007199 -0.007275 0.000000 0.000000 0.000000
# 2 -0.007199 0.013366 -0.019471 0.000000 0.000000 0.000000
# 3 -0.007275 -0.019471 0.049554 0.000000 0.000000 0.000000
# 4 0.000000 0.000000 0.000000 -0.053353 0.000000 0.000000
# 5 0.000000 0.000000 0.000000 0.000000 0.055652 0.000000
# 6 0.000000 0.000000 0.000000 0.000000 0.000000 0.033643
#
#
# Mechanical properties :
#
#
# Convention : Reuss Voigt Hill
#
# Bulk Modulus (GPa) = 12.57418 61.84726 37.21072
# Shear Modulus (GPa) = 18.00118 16.75419 17.37769
#
# Velocity S-wave (km/s) = 3.20056 3.08772 3.14465
# Velocity P-wave (km/s) = 4.56218 6.92144 5.86173
#
# Compressibility (1/GPa) = 0.07952806
#
# Stress axis : x y z
#
# Youngs Moduli (GPa) = 11.83466 74.81727 20.17989
#
# Poissons Ratio (x) = 0.53861 0.14680
# Poissons Ratio (y) = 0.08520 0.39293
# Poissons Ratio (z) = 0.08609 1.45678
#
# Static dielectric constant tensor:
#      x y z
#    x 1.612010 0.000000 0.000000 
#    y 0.000000 1.621560 0.000000 
#    z 0.000000 0.000000 1.579330 
# 
# From -- ./inp_files/49947.got.cif
#   From: 2010.05.17/outbox.cif.g08.bks.cpg/sg65_25_cif.got.tgz:49947.got - 2010.06.03 17:01:31.
