data_PCOD9485252
_publ_section_title
;
Structure prediction by ZEFSAII (Michael W. Deem and Ramdas Pophale) SiO2 
 PCOD9485252
Probable space group: C M M M
;
_chemical_formula_sum "Si O2"
_cell_formula_units_Z 104
_cell_length_a 25.442105
_cell_length_b 14.493164
_cell_length_c 17.594965
_cell_angle_alpha 90.000000
_cell_angle_beta 90.000000
_cell_angle_gamma 90.000000
_cell_volume 6487.907576
_symmetry_space_group_name_H-M "C M M M"
_symmetry_group_IT_number 65
_symmetry_cell_setting 'orthorhombic'
loop_
_space_group_symop_operation_xyz
x,y,z
-x,-y,z
x,-y,-z
-x,y,-z
-x,-y,-z
x,y,-z
-x,y,z
x,-y,z
1/2+x,1/2+y,z
1/2-x,1/2-y,z
1/2+x,1/2-y,-z
1/2-x,1/2+y,-z
1/2-x,1/2-y,-z
1/2+x,1/2+y,-z
1/2-x,1/2+y,z
1/2+x,1/2-y,z
loop_
_atom_site_type_symbol
_atom_site_label
_atom_site_fract_x
_atom_site_fract_y
_atom_site_fract_z
Si Si1 0.633331 0.399978 0.143366
Si Si2 0.821182 0.656661 0.000000
Si Si3 0.795112 0.127401 0.000000
Si Si4 0.675886 0.889463 0.284529
Si Si5 0.000000 0.610582 0.089604
Si Si6 0.890808 0.688142 0.855809
Si Si7 0.797579 0.895783 0.705654
Si Si8 0.186383 0.253980 0.585774
O O1 0.604182 0.500000 0.142297
O O2 0.674813 0.403805 0.074833
O O3 0.605795 0.299984 0.136565
O O4 0.666096 0.395152 0.220919
O O5 0.803618 0.762967 0.000000
O O6 0.766189 0.603668 0.000000
O O7 0.855699 0.646044 0.924554
O O8 0.638911 0.841446 0.221675
O O9 0.738081 0.868032 0.270089
O O10 0.668065 0.844154 0.367736
O O11 0.668696 0.000000 0.282913
O O12 0.948366 0.647242 0.131997
O O13 0.000000 0.500000 0.090331
O O14 0.000000 0.639897 0.000000
O O15 0.823112 0.831484 0.641932
O O16 0.792722 0.000000 0.675857
O O17 0.165636 0.248375 0.500000
O O18 0.250000 0.250000 0.580137
#
# Coordination Sequence:
#
# PCOD9485252 Si02
#       8
#    16   8   8  16   8  16  16  16
#     4  10  19  31  49  74 105 135 163 200 248 300
#     4   9  18  29  49  71  97 135 171 200 242 291
#     4   9  17  28  44  73 104 136 168 199 233 288
#     4  10  19  30  48  73  99 136 178 210 247 300
#     4  11  24  42  57  73  96 126 172 227 271 301
#     4  11  20  36  55  71  97 132 171 217 263 300
#     4   9  17  29  46  72 106 139 170 205 243 293
#     4   9  17  29  45  68 103 141 170 204 246 294
#
# _framework density 16.029820999999998
#
# number of rings (size 3 to 8) (size 9 to 14) (size 15 to 20)
#    0.000    2.231    2.308    1.615    0.000    1.846 
#    0.000    5.769    0.000    0.462    0.000    0.538 
#    0.000    1.846    0.000    3.385    0.000    0.154 
#
# Total GULP energy -289494.739834 kJ/mol
# GULP energy per Si atom -5567.206535 kJ/mol
# Density = 1.599334 g / cm^3
# Si number density = 16.029821 Si / 1000 Ang^3
#
#
#
# Elastic Constant Matrix: (Units=GPa)
#
#
# Indices 1 2 3 4 5 6 
#
# 1 60.6784 29.1741 21.6287 0.0000 0.0000 0.0000
# 2 29.1741 105.8007 31.8233 0.0000 0.0000 0.0000
# 3 21.6287 31.8233 107.9664 0.0000 0.0000 0.0000
# 4 0.0000 0.0000 0.0000 3.1276 0.0000 0.0000
# 5 0.0000 0.0000 0.0000 0.0000 -53.7691 0.0000
# 6 0.0000 0.0000 0.0000 0.0000 0.0000 14.6205
#
#
#
# Elastic Compliance Matrix: (Units=1/GPa)
#
#
# Indices 1 2 3 4 5 6 
#
# 1 0.019625 -0.004640 -0.002564 0.000000 0.000000 0.000000
# 2 -0.004640 0.011468 -0.002451 0.000000 0.000000 0.000000
# 3 -0.002564 -0.002451 0.010498 0.000000 0.000000 0.000000
# 4 0.000000 0.000000 0.000000 0.319731 0.000000 0.000000
# 5 0.000000 0.000000 0.000000 0.000000 -0.018598 0.000000
# 6 0.000000 0.000000 0.000000 0.000000 0.000000 0.068397
#
#
# Mechanical properties :
#
#
# Convention : Reuss Voigt Hill
#
# Bulk Modulus (GPa) = 44.87926 48.85531 46.86729
# Shear Modulus (GPa) = 11.41920 5.58377 8.50149
#
# Velocity S-wave (km/s) = 2.67193 1.86840 2.30544
# Velocity P-wave (km/s) = 6.13001 5.93283 6.03223
#
# Compressibility (1/GPa) = 0.02228201
#
# Stress axis : x y z
#
# Youngs Moduli (GPa) = 50.95467 87.19554 95.25551
#
# Poissons Ratio (x) = 0.40463 0.24421
# Poissons Ratio (y) = 0.23645 0.23345
# Poissons Ratio (z) = 0.13063 0.21369
#
# Static dielectric constant tensor:
#      x y z
#    x 1.510850 0.000000 0.000000 
#    y 0.000000 1.603690 0.000000 
#    z 0.000000 0.000000 1.529820 
# 
# From -- ./inp_files/55914.got.cif
#   From: 2010.05.17/outbox.cif.g08.bks.cpg/sg65_28_cif.got.tgz:55914.got - 2010.06.03 17:01:31.
