data_PCOD9485432
_publ_section_title
;
Structure prediction by ZEFSAII (Michael W. Deem and Ramdas Pophale) SiO2 
 PCOD9485432
Probable space group: C M M M
;
_chemical_formula_sum "Si O2"
_cell_formula_units_Z 96
_cell_length_a 27.806112
_cell_length_b 9.015738
_cell_length_c 24.632388
_cell_angle_alpha 90.000000
_cell_angle_beta 90.000000
_cell_angle_gamma 90.000000
_cell_volume 6175.157899
_symmetry_space_group_name_H-M "C M M M"
_symmetry_group_IT_number 65
_symmetry_cell_setting 'orthorhombic'
loop_
_space_group_symop_operation_xyz
x,y,z
-x,-y,z
x,-y,-z
-x,y,-z
-x,-y,-z
x,y,-z
-x,y,z
x,-y,z
1/2+x,1/2+y,z
1/2-x,1/2-y,z
1/2+x,1/2-y,-z
1/2-x,1/2+y,-z
1/2-x,1/2-y,-z
1/2+x,1/2+y,-z
1/2-x,1/2+y,z
1/2+x,1/2-y,z
loop_
_atom_site_type_symbol
_atom_site_label
_atom_site_fract_x
_atom_site_fract_y
_atom_site_fract_z
Si Si1 0.553863 0.821530 0.829819
Si Si2 0.697406 0.821241 0.000000
Si Si3 0.651976 0.178849 0.114698
Si Si4 0.558431 0.828443 0.500000
Si Si5 0.899527 0.821939 0.274437
Si Si6 0.299915 0.677056 0.781437
Si Si7 0.443359 0.677956 0.611613
O O1 0.500000 0.775469 0.845809
O O2 0.596771 0.780885 0.871131
O O3 0.567994 0.753000 0.771793
O O4 0.554411 0.000000 0.825173
O O5 0.750000 0.750000 0.000000
O O6 0.669001 0.779261 0.945310
O O7 0.702161 0.000000 0.000000
O O8 0.684561 0.256195 0.160344
O O9 0.656605 0.000000 0.120181
O O10 0.500000 0.818925 0.500000
O O11 0.574031 0.750490 0.444334
O O12 0.572059 0.000000 0.500000
O O13 0.844359 0.789090 0.258758
O O14 0.914911 0.774838 0.334583
O O15 0.906053 0.000000 0.270923
O O16 0.294980 0.500000 0.785577
O O17 0.250000 0.750000 0.764262
O O18 0.500000 0.714201 0.619144
O O19 0.439897 0.500000 0.606528
#
# Coordination Sequence:
#
# PCOD9485432 Si02
#       7
#    16   8  16   8  16  16  16
#     4   9  17  29  45  65  90 118 145 176 216 260
#     4  10  20  32  47  65  85 111 144 184 225 264
#     4   9  18  32  47  65  89 115 145 179 217 262
#     4   9  17  27  39  59  88 119 148 177 210 249
#     4   9  18  30  45  66  89 115 149 183 215 257
#     4  10  19  31  47  67  90 115 143 178 222 266
#     4   9  16  27  43  62  86 116 147 177 209 248
#
# _framework density 15.546161
#
# number of rings (size 3 to 8) (size 9 to 14) (size 15 to 20)
#    0.000    2.750    0.000    1.750    0.000    5.333 
#    0.000    2.083    0.000    2.500    0.000    0.583 
#    0.000    6.000    0.000    0.000    0.000    0.000 
#
# Total GULP energy -267505.647339 kJ/mol
# GULP energy per Si atom -5573.034320 kJ/mol
# Density = 1.551078 g / cm^3
# Si number density = 15.546161 Si / 1000 Ang^3
#
#
#
# Elastic Constant Matrix: (Units=GPa)
#
#
# Indices 1 2 3 4 5 6 
#
# 1 99.6809 31.5870 64.3211 0.0000 0.0000 0.0000
# 2 31.5870 19.0609 37.5250 0.0000 0.0000 0.0000
# 3 64.3211 37.5250 150.9485 0.0000 0.0000 0.0000
# 4 0.0000 0.0000 0.0000 22.2681 0.0000 0.0000
# 5 0.0000 0.0000 0.0000 0.0000 16.2484 0.0000
# 6 0.0000 0.0000 0.0000 0.0000 0.0000 19.1372
#
#
#
# Elastic Compliance Matrix: (Units=1/GPa)
#
#
# Indices 1 2 3 4 5 6 
#
# 1 0.021152 -0.033898 -0.000586 0.000000 0.000000 0.000000
# 2 -0.033898 0.157074 -0.024603 0.000000 0.000000 0.000000
# 3 -0.000586 -0.024603 0.012991 0.000000 0.000000 0.000000
# 4 0.000000 0.000000 0.000000 0.044907 0.000000 0.000000
# 5 0.000000 0.000000 0.000000 0.000000 0.061545 0.000000
# 6 0.000000 0.000000 0.000000 0.000000 0.000000 0.052254
#
#
# Mechanical properties :
#
#
# Convention : Reuss Voigt Hill
#
# Bulk Modulus (GPa) = 13.69084 59.61739 36.65412
# Shear Modulus (GPa) = 10.15340 20.61455 15.38397
#
# Velocity S-wave (km/s) = 2.55838 3.64541 3.14915
# Velocity P-wave (km/s) = 4.18960 7.49337 6.07056
#
# Compressibility (1/GPa) = 0.07304154
#
# Stress axis : x y z
#
# Youngs Moduli (GPa) = 47.27686 6.36642 76.97727
#
# Poissons Ratio (x) = 0.21581 0.04513
# Poissons Ratio (y) = 1.60260 1.89390
# Poissons Ratio (z) = 0.02772 0.15664
#
# Static dielectric constant tensor:
#      x y z
#    x 1.519390 0.000000 0.000000 
#    y 0.000000 1.519580 0.000000 
#    z 0.000000 0.000000 1.499590 
# 
# From -- ./inp_files/71751.got.cif
#   From: 2010.05.17/outbox.cif.g08.bks.cpg/sg65_36_cif.got.tgz:71751.got - 2010.06.03 17:01:31.
