data_PCOD9485916
_publ_section_title
;
Structure prediction by ZEFSAII (Michael W. Deem and Ramdas Pophale) SiO2 
 PCOD9485916
Probable space group: C M M M
;
_chemical_formula_sum "Si O2"
_cell_formula_units_Z 76
_cell_length_a 14.232259
_cell_length_b 23.877285
_cell_length_c 10.849881
_cell_angle_alpha 90.000000
_cell_angle_beta 90.000000
_cell_angle_gamma 90.000000
_cell_volume 3687.090153
_symmetry_space_group_name_H-M "C M M M"
_symmetry_group_IT_number 65
_symmetry_cell_setting 'orthorhombic'
loop_
_space_group_symop_operation_xyz
x,y,z
-x,-y,z
x,-y,-z
-x,y,-z
-x,-y,-z
x,y,-z
-x,y,z
x,-y,z
1/2+x,1/2+y,z
1/2-x,1/2-y,z
1/2+x,1/2-y,-z
1/2-x,1/2+y,-z
1/2-x,1/2-y,-z
1/2+x,1/2+y,-z
1/2-x,1/2+y,z
1/2+x,1/2-y,z
loop_
_atom_site_type_symbol
_atom_site_label
_atom_site_fract_x
_atom_site_fract_y
_atom_site_fract_z
Si Si1 0.387707 0.500000 0.745243
Si Si2 0.751038 0.120067 0.000000
Si Si3 0.228488 0.000000 0.000000
Si Si4 0.894454 0.647522 0.644599
Si Si5 0.612629 0.224541 0.000000
Si Si6 0.699847 0.385130 0.729474
Si Si7 0.610397 0.272502 0.733039
O O1 0.500000 0.500000 0.752788
O O2 0.338130 0.500000 0.879845
O O3 0.351077 0.558379 0.686668
O O4 0.672479 0.167678 0.000000
O O5 0.812793 0.122324 0.123407
O O6 0.712019 0.056672 0.000000
O O7 0.893698 0.635359 0.500000
O O8 0.811313 0.613223 0.707355
O O9 0.875267 0.713681 0.664210
O O10 0.000000 0.637277 0.693852
O O11 0.636056 0.257937 0.124867
O O12 0.500000 0.214104 0.000000
O O13 0.662692 0.326122 0.678082
O O14 0.500000 0.285470 0.730888
#
# Coordination Sequence:
#
# PCOD9485916 Si02
#       7
#     8   8   4  16   8  16  16
#     4  10  21  38  58  84 116 151 189 229 269 323
#     4  10  19  31  51  80 115 150 190 224 267 327
#     4   8  19  34  51  80 116 160 191 216 260 328
#     4  10  22  39  58  82 111 143 184 232 284 342
#     4  10  19  31  50  81 121 152 180 228 283 328
#     4  11  21  35  58  82 114 151 189 228 275 327
#     4  10  20  33  53  84 117 150 184 225 277 335
#
# _framework density 20.612461
#
# number of rings (size 3 to 8) (size 9 to 14) (size 15 to 20)
#    0.000    1.895    2.105    2.053    0.000    2.526 
#    0.000    4.474    0.000    7.579    0.000    0.000 
#    0.000    0.000    0.000    0.000    0.000    0.000 
#
# Total GULP energy -212040.388426 kJ/mol
# GULP energy per Si atom -5580.010222 kJ/mol
# Density = 2.056555 g / cm^3
# Si number density = 20.612461 Si / 1000 Ang^3
#
#
#
# Elastic Constant Matrix: (Units=GPa)
#
#
# Indices 1 2 3 4 5 6 
#
# 1 115.4950 70.7172 3.8956 0.0000 0.0000 0.0000
# 2 70.7172 130.6315 -11.7395 0.0000 0.0000 0.0000
# 3 3.8956 -11.7395 22.0499 0.0000 0.0000 0.0000
# 4 0.0000 0.0000 0.0000 -294.6514 0.0000 0.0000
# 5 0.0000 0.0000 0.0000 0.0000 1.2161 0.0000
# 6 0.0000 0.0000 0.0000 0.0000 0.0000 30.6846
#
#
#
# Elastic Compliance Matrix: (Units=1/GPa)
#
#
# Indices 1 2 3 4 5 6 
#
# 1 0.013849 -0.008105 -0.006762 0.000000 0.000000 0.000000
# 2 -0.008105 0.012783 0.008238 0.000000 0.000000 0.000000
# 3 -0.006762 0.008238 0.050932 0.000000 0.000000 0.000000
# 4 0.000000 0.000000 0.000000 -0.003394 0.000000 0.000000
# 5 0.000000 0.000000 0.000000 0.000000 0.822286 0.000000
# 6 0.000000 0.000000 0.000000 0.000000 0.000000 0.032590
#
#
# Mechanical properties :
#
#
# Convention : Reuss Voigt Hill
#
# Bulk Modulus (GPa) = 15.55066 43.76921 29.65994
# Shear Modulus (GPa) = 5.18812 -38.86325 -16.83756
#
# Velocity S-wave (km/s) = 1.58822 -4.34686 -2.86118
# Velocity P-wave (km/s) = 3.30514 1.97816 1.87227
#
# Compressibility (1/GPa) = 0.06430597
#
# Stress axis : x y z
#
# Youngs Moduli (GPa) = 72.20740 78.22930 19.63403
#
# Poissons Ratio (x) = 0.63403 0.13276
# Poissons Ratio (y) = 0.58523 -0.16174
# Poissons Ratio (z) = 0.48825 -0.64442
#
# Static dielectric constant tensor:
#      x y z
#    x 1.732070 0.000000 0.000000 
#    y 0.000000 1.771460 0.000000 
#    z 0.000000 0.000000 1.774270 
# 
# From -- ./inp_files/24752.got.cif
#   From: 2010.05.17/outbox.cif.g08.bks.cpg/sg65_13_cif.got.tgz:24752.got - 2010.06.03 17:01:31.
