data_PCOD9485043
_publ_section_title
;
Structure prediction by ZEFSAII (Michael W. Deem and Ramdas Pophale) SiO2 
 PCOD9485043
Probable space group: C M M M
;
_chemical_formula_sum "Si O2"
_cell_formula_units_Z 96
_cell_length_a 8.966073
_cell_length_b 26.130744
_cell_length_c 25.402253
_cell_angle_alpha 90.000000
_cell_angle_beta 90.000000
_cell_angle_gamma 90.000000
_cell_volume 5951.497875
_symmetry_space_group_name_H-M "C M M M"
_symmetry_group_IT_number 65
_symmetry_cell_setting 'orthorhombic'
loop_
_space_group_symop_operation_xyz
x,y,z
-x,-y,z
x,-y,-z
-x,y,-z
-x,-y,-z
x,y,-z
-x,y,z
x,-y,z
1/2+x,1/2+y,z
1/2-x,1/2-y,z
1/2+x,1/2-y,-z
1/2-x,1/2+y,-z
1/2-x,1/2-y,-z
1/2+x,1/2+y,-z
1/2-x,1/2+y,z
1/2+x,1/2-y,z
loop_
_atom_site_type_symbol
_atom_site_label
_atom_site_fract_x
_atom_site_fract_y
_atom_site_fract_z
Si Si1 0.820227 0.806897 0.673237
Si Si2 0.328575 0.500000 0.871961
Si Si3 0.822434 0.195534 0.061896
Si Si4 0.177599 0.607067 0.745574
Si Si5 0.672070 0.500000 0.744067
Si Si6 0.179245 0.193560 0.443561
Si Si7 0.323046 0.105915 0.871100
O O1 0.750000 0.750000 0.678907
O O2 0.754623 0.846354 0.715182
O O3 0.781283 0.827383 0.614110
O O4 0.000000 0.803383 0.677791
O O5 0.500000 0.500000 0.889422
O O6 0.327453 0.500000 0.808009
O O7 0.245290 0.448424 0.888214
O O8 0.750000 0.250000 0.075614
O O9 0.753441 0.151256 0.097155
O O10 0.000000 0.198005 0.068875
O O11 0.791420 0.185934 0.000000
O O12 0.245667 0.552342 0.728274
O O13 0.204010 0.611967 0.808404
O O14 0.000000 0.607508 0.736943
O O15 0.500000 0.500000 0.726651
O O16 0.222414 0.168744 0.500000
O O17 0.250000 0.250000 0.444153
O O18 0.000000 0.198054 0.443636
O O19 0.500000 0.106127 0.879436
#
# Coordination Sequence:
#
# PCOD9485043 Si02
#       7
#    16   8  16  16   8  16  16
#     4  10  19  30  45  67  97 130 161 196 239 285
#     4   9  17  31  52  76 101 126 154 194 239 282
#     4  10  21  37  56  76  98 126 161 200 239 281
#     4  10  20  33  49  71  99 129 160 195 236 282
#     4   9  17  31  51  72  93 122 161 199 235 279
#     4   8  14  25  41  61  86 118 156 195 234 278
#     4  10  20  34  53  75  99 128 160 195 237 284
#
# _framework density 16.130392000000001
#
# number of rings (size 3 to 8) (size 9 to 14) (size 15 to 20)
#    0.000    2.500    0.000    2.500    0.000    6.333 
#    0.000    0.417    0.000    2.500    0.000    0.583 
#    0.000    4.667    0.000    0.000    0.000    0.000 
#
# Total GULP energy -267431.630928 kJ/mol
# GULP energy per Si atom -5571.492311 kJ/mol
# Density = 1.609368 g / cm^3
# Si number density = 16.130392 Si / 1000 Ang^3
#
#
#
# Elastic Constant Matrix: (Units=GPa)
#
#
# Indices 1 2 3 4 5 6 
#
# 1 84.5123 72.7374 59.5931 0.0000 0.0000 0.0000
# 2 72.7374 137.3706 72.4410 0.0000 0.0000 0.0000
# 3 59.5931 72.4410 60.2336 0.0000 0.0000 0.0000
# 4 0.0000 0.0000 0.0000 -9.3329 0.0000 0.0000
# 5 0.0000 0.0000 0.0000 0.0000 19.1748 0.0000
# 6 0.0000 0.0000 0.0000 0.0000 0.0000 32.9074
#
#
#
# Elastic Compliance Matrix: (Units=1/GPa)
#
#
# Indices 1 2 3 4 5 6 
#
# 1 0.039169 -0.000832 -0.037753 0.000000 0.000000 0.000000
# 2 -0.000832 0.019919 -0.023133 0.000000 0.000000 0.000000
# 3 -0.037753 -0.023133 0.081775 0.000000 0.000000 0.000000
# 4 0.000000 0.000000 0.000000 -0.107148 0.000000 0.000000
# 5 0.000000 0.000000 0.000000 0.000000 0.052152 0.000000
# 6 0.000000 0.000000 0.000000 0.000000 0.000000 0.030388
#
#
# Mechanical properties :
#
#
# Convention : Reuss Voigt Hill
#
# Bulk Modulus (GPa) = 57.37826 76.85102 67.11464
# Shear Modulus (GPa) = 20.36669 13.70621 17.03645
#
# Velocity S-wave (km/s) = 3.55720 2.91815 3.25340
# Velocity P-wave (km/s) = 7.24709 7.68773 7.47066
#
# Compressibility (1/GPa) = 0.01742820
#
# Stress axis : x y z
#
# Youngs Moduli (GPa) = 25.53024 50.20364 12.22871
#
# Poissons Ratio (x) = 0.04174 0.46167
# Poissons Ratio (y) = 0.02123 0.28289
# Poissons Ratio (z) = 0.96384 1.16137
#
# Static dielectric constant tensor:
#      x y z
#    x 1.537210 0.000000 0.000000 
#    y 0.000000 1.510580 0.000000 
#    z 0.000000 0.000000 1.565610 
# 
# From -- ./inp_files/67912.got.cif
#   From: 2010.05.17/outbox.cif.g08.bks.cpg/sg65_34_cif.got.tgz:67912.got - 2010.06.03 17:01:31.
