data_PCOD9485704
_publ_section_title
;
Structure prediction by ZEFSAII (Michael W. Deem and Ramdas Pophale) SiO2 
 PCOD9485704
Probable space group: C M M M
;
_chemical_formula_sum "Si O2"
_cell_formula_units_Z 96
_cell_length_a 19.147908
_cell_length_b 8.493246
_cell_length_c 31.861630
_cell_angle_alpha 90.000000
_cell_angle_beta 90.000000
_cell_angle_gamma 90.000000
_cell_volume 5181.589755
_symmetry_space_group_name_H-M "C M M M"
_symmetry_group_IT_number 65
_symmetry_cell_setting 'orthorhombic'
loop_
_space_group_symop_operation_xyz
x,y,z
-x,-y,z
x,-y,-z
-x,y,-z
-x,-y,-z
x,y,-z
-x,y,z
x,-y,z
1/2+x,1/2+y,z
1/2-x,1/2-y,z
1/2+x,1/2-y,-z
1/2-x,1/2+y,-z
1/2-x,1/2-y,-z
1/2+x,1/2+y,-z
1/2-x,1/2+y,z
1/2+x,1/2-y,z
loop_
_atom_site_type_symbol
_atom_site_label
_atom_site_fract_x
_atom_site_fract_y
_atom_site_fract_z
Si Si1 0.828798 0.309364 0.126162
Si Si2 0.582246 0.189426 0.546964
Si Si3 0.328153 0.686295 0.376401
Si Si4 0.919618 0.692273 0.206623
Si Si5 0.171061 0.311473 0.713906
Si Si6 0.419647 0.191848 0.047494
O O1 0.827817 0.500000 0.125993
O O2 0.750000 0.250000 0.129273
O O3 0.875307 0.258823 0.165967
O O4 0.866789 0.255201 0.083409
O O5 0.605201 0.238442 0.500000
O O6 0.500000 0.225649 0.550722
O O7 0.624760 0.265398 0.584468
O O8 0.589478 0.000000 0.549385
O O9 0.325193 0.500000 0.372196
O O10 0.250000 0.750000 0.383165
O O11 0.353305 0.756715 0.332032
O O12 0.920545 0.500000 0.206614
O O13 0.879542 0.742645 0.248776
O O14 0.000000 0.744677 0.205052
O O15 0.173453 0.500000 0.714376
O O16 0.250000 0.250000 0.720237
O O17 0.500000 0.238236 0.056482
O O18 0.418953 0.000000 0.047679
O O19 0.401968 0.242230 0.000000
#
# Coordination Sequence:
#
# PCOD9485704 Si02
#       6
#    16  16  16  16  16  16
#     4  10  19  31  49  72  99 129 162 203 249 297
#     4   9  19  37  59  81 107 140 176 214 258 307
#     4  11  22  36  55  79 108 140 175 214 256 304
#     4   9  18  32  51  74  96 124 166 209 247 292
#     4  10  19  33  53  74  99 130 164 205 253 304
#     4   8  14  26  46  71  96 125 165 209 247 286
#
# _framework density 18.527132999999999
#
# number of rings (size 3 to 8) (size 9 to 14) (size 15 to 20)
#    0.000    2.500    0.000    5.000    0.000    4.000 
#    0.000    3.333    0.000    5.500    0.000    1.167 
#    0.000    0.000    0.000    0.000    0.000    0.000 
#
# Total GULP energy -267850.372550 kJ/mol
# GULP energy per Si atom -5580.216095 kJ/mol
# Density = 1.848496 g / cm^3
# Si number density = 18.527133 Si / 1000 Ang^3
#
#
#
# Elastic Constant Matrix: (Units=GPa)
#
#
# Indices 1 2 3 4 5 6 
#
# 1 123.2407 26.0424 116.8678 0.0000 0.0000 0.0000
# 2 26.0424 33.3571 36.0806 0.0000 0.0000 0.0000
# 3 116.8678 36.0806 188.9995 0.0000 0.0000 0.0000
# 4 0.0000 0.0000 0.0000 8.0201 0.0000 0.0000
# 5 0.0000 0.0000 0.0000 0.0000 41.5374 0.0000
# 6 0.0000 0.0000 0.0000 0.0000 0.0000 26.0565
#
#
#
# Elastic Compliance Matrix: (Units=1/GPa)
#
#
# Indices 1 2 3 4 5 6 
#
# 1 0.019822 -0.002795 -0.011723 0.000000 0.000000 0.000000
# 2 -0.002795 0.038174 -0.005559 0.000000 0.000000 0.000000
# 3 -0.011723 -0.005559 0.013601 0.000000 0.000000 0.000000
# 4 0.000000 0.000000 0.000000 0.124687 0.000000 0.000000
# 5 0.000000 0.000000 0.000000 0.000000 0.024075 0.000000
# 6 0.000000 0.000000 0.000000 0.000000 0.000000 0.038378
#
#
# Mechanical properties :
#
#
# Convention : Reuss Voigt Hill
#
# Bulk Modulus (GPa) = 31.80438 78.17544 54.98991
# Shear Modulus (GPa) = 16.16177 26.22991 21.19584
#
# Velocity S-wave (km/s) = 2.95673 3.76674 3.38604
# Velocity P-wave (km/s) = 5.37215 7.82333 6.71060
#
# Compressibility (1/GPa) = 0.03144221
#
# Stress axis : x y z
#
# Youngs Moduli (GPa) = 50.44933 26.19602 73.52161
#
# Poissons Ratio (x) = 0.07321 0.86192
# Poissons Ratio (y) = 0.14099 0.40873
# Poissons Ratio (z) = 0.59143 0.14563
#
# Static dielectric constant tensor:
#      x y z
#    x 1.607250 0.000000 0.000000 
#    y 0.000000 1.640080 0.000000 
#    z 0.000000 0.000000 1.642560 
# 
# From -- ./inp_files/75321.got.cif
#   From: 2010.05.17/outbox.cif.g08.bks.cpg/sg65_38_cif.got.tgz:75321.got - 2010.06.03 17:01:31.
