data_PCOD9485988
_publ_section_title
;
Structure prediction by ZEFSAII (Michael W. Deem and Ramdas Pophale) SiO2 
 PCOD9485988
Probable space group: C M M M
;
_chemical_formula_sum "Si O2"
_cell_formula_units_Z 72
_cell_length_a 16.273016
_cell_length_b 8.250635
_cell_length_c 26.843490
_cell_angle_alpha 90.000000
_cell_angle_beta 90.000000
_cell_angle_gamma 90.000000
_cell_volume 3604.079857
_symmetry_space_group_name_H-M "C M M M"
_symmetry_group_IT_number 65
_symmetry_cell_setting 'orthorhombic'
loop_
_space_group_symop_operation_xyz
x,y,z
-x,-y,z
x,-y,-z
-x,y,-z
-x,-y,-z
x,y,-z
-x,y,z
x,-y,z
1/2+x,1/2+y,z
1/2-x,1/2-y,z
1/2+x,1/2-y,-z
1/2-x,1/2+y,-z
1/2-x,1/2-y,-z
1/2+x,1/2+y,-z
1/2-x,1/2+y,z
1/2+x,1/2-y,z
loop_
_atom_site_type_symbol
_atom_site_label
_atom_site_fract_x
_atom_site_fract_y
_atom_site_fract_z
Si Si1 0.000000 0.307749 0.267752
Si Si2 0.156415 0.196060 0.000000
Si Si3 0.338086 0.693435 0.790448
Si Si4 0.159991 0.804408 0.557571
Si Si5 0.406408 0.302554 0.893079
Si Si6 0.000000 0.803678 0.381553
O O1 0.082532 0.246435 0.240644
O O2 0.000000 0.250128 0.324675
O O3 0.000000 0.500000 0.265806
O O4 0.250000 0.250000 0.000000
O O5 0.116798 0.254382 0.948302
O O6 0.150517 0.000000 0.000000
O O7 0.337983 0.500000 0.791622
O O8 0.250000 0.750000 0.770696
O O9 0.350415 0.754674 0.847445
O O10 0.151034 0.749616 0.500000
O O11 0.250000 0.750000 0.575579
O O12 0.082713 0.748027 0.590139
O O13 0.158851 0.000000 0.557464
O O14 0.500000 0.257610 0.881604
O O15 0.402472 0.500000 0.894076
O O16 0.000000 0.000000 0.383106
#
# Coordination Sequence:
#
# PCOD9485988 Si02
#       6
#     8   8  16  16  16   8
#     4  12  26  43  61  86 117 154 203 255 304 355
#     4  10  19  31  51  79 113 146 184 226 278 346
#     4  11  22  40  64  88 116 152 196 245 300 359
#     4   9  18  34  58  88 121 157 196 236 283 342
#     4   9  17  32  56  83 110 146 188 232 283 348
#     4  10  21  38  60  84 117 159 198 241 295 349
#
# _framework density 19.977360999999998
#
# number of rings (size 3 to 8) (size 9 to 14) (size 15 to 20)
#    0.000    2.000    1.111    3.000    0.000    4.444 
#    0.000    3.333    0.000    4.000    0.000    0.000 
#    0.000    0.000    0.000    0.000    0.000    0.000 
#
# Total GULP energy -201010.721237 kJ/mol
# GULP energy per Si atom -5583.631145 kJ/mol
# Density = 1.993189 g / cm^3
# Si number density = 19.977361 Si / 1000 Ang^3
#
#
#
# Elastic Constant Matrix: (Units=GPa)
#
#
# Indices 1 2 3 4 5 6 
#
# 1 190.9360 23.8999 91.6372 0.0000 0.0000 0.0000
# 2 23.8999 26.7723 20.3917 0.0000 0.0000 0.0000
# 3 91.6372 20.3917 125.7130 0.0000 0.0000 0.0000
# 4 0.0000 0.0000 0.0000 10.0300 0.0000 0.0000
# 5 0.0000 0.0000 0.0000 0.0000 9.8360 0.0000
# 6 0.0000 0.0000 0.0000 0.0000 0.0000 31.6031
#
#
#
# Elastic Compliance Matrix: (Units=1/GPa)
#
#
# Indices 1 2 3 4 5 6 
#
# 1 0.008288 -0.003191 -0.005524 0.000000 0.000000 0.000000
# 2 -0.003191 0.043846 -0.004786 0.000000 0.000000 0.000000
# 3 -0.005524 -0.004786 0.012757 0.000000 0.000000 0.000000
# 4 0.000000 0.000000 0.000000 0.099701 0.000000 0.000000
# 5 0.000000 0.000000 0.000000 0.000000 0.101667 0.000000
# 6 0.000000 0.000000 0.000000 0.000000 0.000000 0.031642
#
#
# Mechanical properties :
#
#
# Convention : Reuss Voigt Hill
#
# Bulk Modulus (GPa) = 26.39244 68.36433 47.37838
# Shear Modulus (GPa) = 14.81333 24.12667 19.47000
#
# Velocity S-wave (km/s) = 2.72601 3.47897 3.12525
# Velocity P-wave (km/s) = 4.81124 7.10161 6.06551
#
# Compressibility (1/GPa) = 0.03788964
#
# Stress axis : x y z
#
# Youngs Moduli (GPa) = 120.65865 22.80688 78.38619
#
# Poissons Ratio (x) = 0.07279 0.43298
# Poissons Ratio (y) = 0.38508 0.37515
# Poissons Ratio (z) = 0.66648 0.10915
#
# Static dielectric constant tensor:
#      x y z
#    x 1.682980 0.000000 0.000000 
#    y 0.000000 1.691880 0.000000 
#    z 0.000000 0.000000 1.715070 
# 
# From -- ./inp_files/74659.got.cif
#   From: 2010.05.17/outbox.cif.g08.bks.cpg/sg65_38_cif.got.tgz:74659.got - 2010.06.03 17:01:31.
