data_PCOD9485727
_publ_section_title
;
Structure prediction by ZEFSAII (Michael W. Deem and Ramdas Pophale) SiO2 
 PCOD9485727
Probable space group: C M M M
;
_chemical_formula_sum "Si O2"
_cell_formula_units_Z 88
_cell_length_a 8.308792
_cell_length_b 18.529118
_cell_length_c 29.273393
_cell_angle_alpha 90.000000
_cell_angle_beta 90.000000
_cell_angle_gamma 90.000000
_cell_volume 4506.773141
_symmetry_space_group_name_H-M "C M M M"
_symmetry_group_IT_number 65
_symmetry_cell_setting 'orthorhombic'
loop_
_space_group_symop_operation_xyz
x,y,z
-x,-y,z
x,-y,-z
-x,y,-z
-x,-y,-z
x,y,-z
-x,y,z
x,-y,z
1/2+x,1/2+y,z
1/2-x,1/2-y,z
1/2+x,1/2-y,-z
1/2-x,1/2+y,-z
1/2-x,1/2-y,-z
1/2+x,1/2+y,-z
1/2-x,1/2+y,z
1/2+x,1/2-y,z
loop_
_atom_site_type_symbol
_atom_site_label
_atom_site_fract_x
_atom_site_fract_y
_atom_site_fract_z
Si Si1 0.692798 0.082910 0.089471
Si Si2 0.805293 0.831904 0.359767
Si Si3 0.803833 0.083799 0.449012
Si Si4 0.808834 0.832449 0.000000
Si Si5 0.807217 0.167658 0.821122
Si Si6 0.696651 0.583130 0.269331
O O1 0.500000 0.081681 0.089328
O O2 0.749896 0.123731 0.134780
O O3 0.751689 0.000000 0.088742
O O4 0.749103 0.125911 0.044890
O O5 0.750000 0.750000 0.355396
O O6 0.747725 0.867230 0.407249
O O7 0.751612 0.878637 0.316160
O O8 0.000000 0.833527 0.360161
O O9 0.751435 0.106228 0.500000
O O10 0.000000 0.085386 0.448890
O O11 0.758161 0.000000 0.442093
O O12 0.750000 0.750000 0.000000
O O13 0.000000 0.832092 0.000000
O O14 0.750000 0.250000 0.822832
O O15 0.749970 0.128160 0.774869
O O16 0.000000 0.167354 0.820776
O O17 0.500000 0.583002 0.269225
O O18 0.748790 0.500000 0.267007
#
# Coordination Sequence:
#
# PCOD9485727 Si02
#       6
#    16  16  16   8  16  16
#     4  11  24  42  63  88 119 152 188 231 278 327
#     4  10  19  31  49  73 102 134 169 213 265 319
#     4   8  14  26  46  71  96 126 170 219 260 304
#     4  12  25  42  65  91 121 155 193 234 277 326
#     4  11  22  37  58  83 113 146 183 226 273 327
#     4   9  18  33  54  78 102 134 179 226 268 315
#
# _framework density 19.526166
#
# number of rings (size 3 to 8) (size 9 to 14) (size 15 to 20)
#    0.000    2.000    0.000    4.909    0.000    5.818 
#    0.000    0.909    0.000    4.364    0.000    1.273 
#    0.000    0.000    0.000    0.000    0.000    0.000 
#
# Total GULP energy -245839.737557 kJ/mol
# GULP energy per Si atom -5587.266763 kJ/mol
# Density = 1.948172 g / cm^3
# Si number density = 19.526166 Si / 1000 Ang^3
#
#
#
# Elastic Constant Matrix: (Units=GPa)
#
#
# Indices 1 2 3 4 5 6 
#
# 1 32.7477 26.2997 28.5113 0.0000 0.0000 0.0000
# 2 26.2997 207.3507 134.3954 0.0000 0.0000 0.0000
# 3 28.5113 134.3954 214.7627 0.0000 0.0000 0.0000
# 4 0.0000 0.0000 0.0000 -679.7364 0.0000 0.0000
# 5 0.0000 0.0000 0.0000 0.0000 -7.4508 0.0000
# 6 0.0000 0.0000 0.0000 0.0000 0.0000 25.3376
#
#
#
# Elastic Compliance Matrix: (Units=1/GPa)
#
#
# Indices 1 2 3 4 5 6 
#
# 1 0.035233 -0.002418 -0.003164 0.000000 0.000000 0.000000
# 2 -0.002418 0.008280 -0.004860 0.000000 0.000000 0.000000
# 3 -0.003164 -0.004860 0.008118 0.000000 0.000000 0.000000
# 4 0.000000 0.000000 0.000000 -0.001471 0.000000 0.000000
# 5 0.000000 0.000000 0.000000 0.000000 -0.134214 0.000000
# 6 0.000000 0.000000 0.000000 0.000000 0.000000 0.039467
#
#
# Mechanical properties :
#
#
# Convention : Reuss Voigt Hill
#
# Bulk Modulus (GPa) = 32.52485 92.58602 62.55544
# Shear Modulus (GPa) = -371.63938 -114.65960 -243.14949
#
# Velocity S-wave (km/s) = -13.81094 -7.67128 -11.17118
# Velocity P-wave (km/s) = 15.41524 5.56285 11.58825
#
# Compressibility (1/GPa) = 0.03074572
#
# Stress axis : x y z
#
# Youngs Moduli (GPa) = 28.38223 120.77805 123.18440
#
# Poissons Ratio (x) = 0.29202 0.38981
# Poissons Ratio (y) = 0.06862 0.59871
# Poissons Ratio (z) = 0.08981 0.58702
#
# Static dielectric constant tensor:
#      x y z
#    x 1.683480 0.000000 0.000000 
#    y 0.000000 1.649020 0.000000 
#    z 0.000000 0.000000 1.691120 
# 
# From -- ./inp_files/76613.got.cif
#   From: 2010.05.17/outbox.cif.g08.bks.cpg/sg65_39_cif.got.tgz:76613.got - 2010.06.03 17:01:31.
