data_PCOD9485291
_publ_section_title
;
Structure prediction by ZEFSAII (Michael W. Deem and Ramdas Pophale) SiO2 
 PCOD9485291
Probable space group: C M M M
;
_chemical_formula_sum "Si O2"
_cell_formula_units_Z 56
_cell_length_a 9.929558
_cell_length_b 27.489027
_cell_length_c 9.899703
_cell_angle_alpha 90.000000
_cell_angle_beta 90.000000
_cell_angle_gamma 90.000000
_cell_volume 2702.162423
_symmetry_space_group_name_H-M "C M M M"
_symmetry_group_IT_number 65
_symmetry_cell_setting 'orthorhombic'
loop_
_space_group_symop_operation_xyz
x,y,z
-x,-y,z
x,-y,-z
-x,y,-z
-x,-y,-z
x,y,-z
-x,y,z
x,-y,z
1/2+x,1/2+y,z
1/2-x,1/2-y,z
1/2+x,1/2-y,-z
1/2-x,1/2+y,-z
1/2-x,1/2-y,-z
1/2+x,1/2+y,-z
1/2-x,1/2+y,z
1/2+x,1/2-y,z
loop_
_atom_site_type_symbol
_atom_site_label
_atom_site_fract_x
_atom_site_fract_y
_atom_site_fract_z
Si Si1 0.500000 0.324988 0.752840
Si Si2 0.500000 0.429864 0.346387
Si Si3 0.000000 0.284214 0.657893
Si Si4 0.798378 0.661426 0.848072
Si Si5 0.747726 0.052823 0.156193
O O1 0.500000 0.371284 0.654939
O O2 0.500000 0.273483 0.679576
O O3 0.362084 0.330730 0.836483
O O4 0.500000 0.446680 0.500000
O O5 0.629848 0.445738 0.261204
O O6 0.872652 0.307049 0.735898
O O7 0.000000 0.296118 0.500000
O O8 0.828445 0.603952 0.825558
O O9 0.840854 0.674730 0.000000
O O10 0.678144 0.000000 0.170588
O O11 0.797609 0.055072 0.000000
#
# Coordination Sequence:
#
# PCOD9485291 Si02
#       5
#     8   8   8  16  16
#     4  10  22  39  63  88 116 152 195 240 292 346
#     4  10  19  30  49  82 118 148 184 231 283 343
#     4  12  26  41  58  83 120 163 198 234 289 351
#     4  10  22  40  63  90 117 149 195 246 290 339
#     4   9  18  34  55  79 110 148 188 233 287 343
#
# _framework density 20.724143000000002
#
# number of rings (size 3 to 8) (size 9 to 14) (size 15 to 20)
#    0.000    2.000    0.000    3.000    0.000   16.000 
#    0.000    0.714    0.000    4.286    0.000    0.000 
#    0.000    0.000    0.000    0.000    0.000    0.000 
#
# Total GULP energy -156281.474864 kJ/mol
# GULP energy per Si atom -5581.481245 kJ/mol
# Density = 2.067697 g / cm^3
# Si number density = 20.724143 Si / 1000 Ang^3
#
#
#
# Elastic Constant Matrix: (Units=GPa)
#
#
# Indices 1 2 3 4 5 6 
#
# 1 87.8677 29.2631 32.7153 0.0000 0.0000 0.0000
# 2 29.2631 171.1363 63.7009 0.0000 0.0000 0.0000
# 3 32.7153 63.7009 137.5134 0.0000 0.0000 0.0000
# 4 0.0000 0.0000 0.0000 10.7641 0.0000 0.0000
# 5 0.0000 0.0000 0.0000 0.0000 8.1314 0.0000
# 6 0.0000 0.0000 0.0000 0.0000 0.0000 16.7811
#
#
#
# Elastic Compliance Matrix: (Units=1/GPa)
#
#
# Indices 1 2 3 4 5 6 
#
# 1 0.012710 -0.001266 -0.002437 0.000000 0.000000 0.000000
# 2 -0.001266 0.007187 -0.003028 0.000000 0.000000 0.000000
# 3 -0.002437 -0.003028 0.009255 0.000000 0.000000 0.000000
# 4 0.000000 0.000000 0.000000 0.092901 0.000000 0.000000
# 5 0.000000 0.000000 0.000000 0.000000 0.122980 0.000000
# 6 0.000000 0.000000 0.000000 0.000000 0.000000 0.059591
#
#
# Mechanical properties :
#
#
# Convention : Reuss Voigt Hill
#
# Bulk Modulus (GPa) = 63.74065 71.98620 67.86343
# Shear Modulus (GPa) = 15.46477 25.19120 20.32798
#
# Velocity S-wave (km/s) = 2.73467 3.49025 3.13530
# Velocity P-wave (km/s) = 6.38707 7.14516 6.77673
#
# Compressibility (1/GPa) = 0.01568858
#
# Stress axis : x y z
#
# Youngs Moduli (GPa) = 78.67914 139.14252 108.05526
#
# Poissons Ratio (x) = 0.17617 0.26336
# Poissons Ratio (y) = 0.09961 0.32719
# Poissons Ratio (z) = 0.19176 0.42132
#
# Static dielectric constant tensor:
#      x y z
#    x 1.748840 0.000000 0.000000 
#    y 0.000000 1.788260 0.000000 
#    z 0.000000 0.000000 1.685080 
# 
# From -- ./inp_files/4486.got.cif
#   From: 2010.05.17/outbox.cif.g08.bks.cpg/sg65_3_cif.got.tgz:4486.got - 2010.06.03 17:01:31.
