data_PCOD9485410
_publ_section_title
;
Structure prediction by ZEFSAII (Michael W. Deem and Ramdas Pophale) SiO2 
 PCOD9485410
Probable space group: C M M M
;
_chemical_formula_sum "Si O2"
_cell_formula_units_Z 80
_cell_length_a 14.623646
_cell_length_b 7.490308
_cell_length_c 30.210351
_cell_angle_alpha 90.000000
_cell_angle_beta 90.000000
_cell_angle_gamma 90.000000
_cell_volume 3309.109304
_symmetry_space_group_name_H-M "C M M M"
_symmetry_group_IT_number 65
_symmetry_cell_setting 'orthorhombic'
loop_
_space_group_symop_operation_xyz
x,y,z
-x,-y,z
x,-y,-z
-x,y,-z
-x,-y,-z
x,y,-z
-x,y,z
x,-y,z
1/2+x,1/2+y,z
1/2-x,1/2-y,z
1/2+x,1/2-y,-z
1/2-x,1/2+y,-z
1/2-x,1/2-y,-z
1/2+x,1/2+y,-z
1/2-x,1/2+y,z
1/2+x,1/2-y,z
loop_
_atom_site_type_symbol
_atom_site_label
_atom_site_fract_x
_atom_site_fract_y
_atom_site_fract_z
Si Si1 0.388109 0.000000 0.550415
Si Si2 0.887903 0.795050 0.619548
Si Si3 0.856177 0.712661 0.000000
Si Si4 0.895171 0.285819 0.189442
Si Si5 0.604416 0.713526 0.714828
Si Si6 0.608289 0.201787 0.903521
O O1 0.360205 0.828865 0.579169
O O2 0.500000 0.000000 0.549180
O O3 0.355598 0.000000 0.500000
O O4 0.856755 0.723693 0.667830
O O5 0.000000 0.793716 0.621515
O O6 0.859677 0.000000 0.613500
O O7 0.750000 0.750000 0.000000
O O8 0.885222 0.786025 0.047903
O O9 0.881765 0.500000 0.000000
O O10 0.897749 0.500000 0.184605
O O11 0.852563 0.250197 0.237354
O O12 0.855900 0.216514 0.142586
O O13 0.000000 0.216797 0.192884
O O14 0.500000 0.784709 0.717235
O O15 0.600020 0.500000 0.710448
O O16 0.500000 0.186491 0.895688
O O17 0.647731 0.000000 0.908016
#
# Coordination Sequence:
#
# PCOD9485410 Si02
#       6
#     8  16   8  16  16  16
#     4   9  16  22  28  38  50  72 110 149 189 231
#     4   8  14  22  29  38  54  76 104 140 183 234
#     4  10  19  31  47  63  83 110 140 174 206 248
#     4   8  13  20  33  53  71  86 110 146 186 232
#     4   8  13  20  29  43  63  85 106 130 174 236
#     4   8  14  26  44  64  81 102 136 172 207 248
#
# _framework density 24.175688999999998
#
# number of rings (size 3 to 8) (size 9 to 14) (size 15 to 20)
#    0.000    3.700    0.000    2.700    1.400    1.600 
#    0.000    3.000    0.000    2.400    0.000    0.000 
#    0.000    0.000    0.000    0.000    0.000    0.000 
#
# Total GULP energy -222842.433984 kJ/mol
# GULP energy per Si atom -5571.060850 kJ/mol
# Density = 2.412066 g / cm^3
# Si number density = 24.175689 Si / 1000 Ang^3
#
#
#
# Elastic Constant Matrix: (Units=GPa)
#
#
# Indices 1 2 3 4 5 6 
#
# 1 66.1490 -5.1811 10.2177 0.0000 0.0000 0.0000
# 2 -5.1811 91.4192 66.7335 0.0000 0.0000 0.0000
# 3 10.2177 66.7335 345.5141 0.0000 0.0000 0.0000
# 4 0.0000 0.0000 0.0000 55.6381 0.0000 0.0000
# 5 0.0000 0.0000 0.0000 0.0000 -65.9601 0.0000
# 6 0.0000 0.0000 0.0000 0.0000 0.0000 -3.6725
#
#
#
# Elastic Compliance Matrix: (Units=1/GPa)
#
#
# Indices 1 2 3 4 5 6 
#
# 1 0.015339 0.001397 -0.000724 0.000000 0.000000 0.000000
# 2 0.001397 0.012861 -0.002525 0.000000 0.000000 0.000000
# 3 -0.000724 -0.002525 0.003403 0.000000 0.000000 0.000000
# 4 0.000000 0.000000 0.000000 0.017973 0.000000 0.000000
# 5 0.000000 0.000000 0.000000 0.000000 -0.015161 0.000000
# 6 0.000000 0.000000 0.000000 0.000000 0.000000 -0.272296
#
#
# Mechanical properties :
#
#
# Convention : Reuss Voigt Hill
#
# Bulk Modulus (GPa) = 35.84181 71.84694 53.84438
# Shear Modulus (GPa) = -22.23438 25.95525 1.86044
#
# Velocity S-wave (km/s) = -3.03595 3.28015 0.87819
# Velocity P-wave (km/s) = 1.60264 6.64297 4.83206
#
# Compressibility (1/GPa) = 0.02790037
#
# Stress axis : x y z
#
# Youngs Moduli (GPa) = 65.19497 77.75276 293.82433
#
# Poissons Ratio (x) = -0.10865 0.21258
# Poissons Ratio (y) = -0.09111 0.74202
# Poissons Ratio (z) = 0.04717 0.19636
#
# Static dielectric constant tensor:
#      x y z
#    x 1.930570 0.000000 0.000000 
#    y 0.000000 1.803320 0.000000 
#    z 0.000000 0.000000 2.025640 
# 
# From -- ./inp_files/77779.got.cif
#   From: 2010.05.17/outbox.cif.g08.bks.cpg/sg65_39_cif.got.tgz:77779.got - 2010.06.03 17:01:31.
