data_PCOD9485402
_publ_section_title
;
Structure prediction by ZEFSAII (Michael W. Deem and Ramdas Pophale) SiO2 
 PCOD9485402
Probable space group: C M M M
;
_chemical_formula_sum "Si O2"
_cell_formula_units_Z 72
_cell_length_a 23.985435
_cell_length_b 8.427797
_cell_length_c 21.825614
_cell_angle_alpha 90.000000
_cell_angle_beta 90.000000
_cell_angle_gamma 90.000000
_cell_volume 4411.925148
_symmetry_space_group_name_H-M "C M M M"
_symmetry_group_IT_number 65
_symmetry_cell_setting 'orthorhombic'
loop_
_space_group_symop_operation_xyz
x,y,z
-x,-y,z
x,-y,-z
-x,y,-z
-x,-y,-z
x,y,-z
-x,y,z
x,-y,z
1/2+x,1/2+y,z
1/2-x,1/2-y,z
1/2+x,1/2-y,-z
1/2-x,1/2+y,-z
1/2-x,1/2-y,-z
1/2+x,1/2+y,-z
1/2-x,1/2+y,z
1/2+x,1/2-y,z
loop_
_atom_site_type_symbol
_atom_site_label
_atom_site_fract_x
_atom_site_fract_y
_atom_site_fract_z
Si Si1 0.500000 0.310059 0.428718
Si Si2 0.186149 0.191562 0.868236
Si Si3 0.686125 0.690624 0.733372
Si Si4 0.685732 0.307886 0.000000
Si Si5 0.882725 0.309796 0.618094
Si Si6 0.312799 0.808619 0.500000
O O1 0.500000 0.500000 0.429937
O O2 0.500000 0.252935 0.500000
O O3 0.444741 0.251327 0.394536
O O4 0.250000 0.250000 0.868926
O O5 0.165041 0.242606 0.801294
O O6 0.161203 0.244377 0.934017
O O7 0.185465 0.000000 0.868257
O O8 0.687499 0.500000 0.731569
O O9 0.750000 0.750000 0.725201
O O10 0.646317 0.751978 0.680059
O O11 0.750000 0.250000 0.000000
O O12 0.685710 0.500000 0.000000
O O13 0.883516 0.500000 0.618001
O O14 0.845187 0.254278 0.560595
O O15 0.250000 0.750000 0.500000
O O16 0.312842 0.000000 0.500000
#
# Coordination Sequence:
#
# PCOD9485402 Si02
#       6
#     8  16  16   8  16   8
#     4  11  23  39  59  79  95 118 151 194 243 289
#     4   8  14  23  37  57  86 121 158 195 231 273
#     4  10  19  31  46  69  99 131 164 200 241 287
#     4   8  12  20  34  54  80 117 158 193 228 268
#     4  11  22  37  54  72  95 126 159 197 238 284
#     4  10  22  35  50  71  95 122 154 190 229 272
#
# _framework density 16.319406000000001
#
# number of rings (size 3 to 8) (size 9 to 14) (size 15 to 20)
#    0.000    2.333    1.111    2.333    0.000    4.889 
#    0.000    0.000    0.000    0.000    0.000    0.000 
#    0.000    0.889    0.000   10.444    0.000    2.667 
#
# Total GULP energy -200488.596233 kJ/mol
# GULP energy per Si atom -5569.127673 kJ/mol
# Density = 1.628226 g / cm^3
# Si number density = 16.319406 Si / 1000 Ang^3
#
#
#
# Elastic Constant Matrix: (Units=GPa)
#
#
# Indices 1 2 3 4 5 6 
#
# 1 95.0976 19.1039 74.1451 0.0000 0.0000 0.0000
# 2 19.1039 28.2234 30.1345 0.0000 0.0000 0.0000
# 3 74.1451 30.1345 210.3659 0.0000 0.0000 0.0000
# 4 0.0000 0.0000 0.0000 -672.2771 0.0000 0.0000
# 5 0.0000 0.0000 0.0000 0.0000 -0.9935 0.0000
# 6 0.0000 0.0000 0.0000 0.0000 0.0000 22.9403
#
#
#
# Elastic Compliance Matrix: (Units=1/GPa)
#
#
# Indices 1 2 3 4 5 6 
#
# 1 0.015162 -0.005380 -0.004573 0.000000 0.000000 0.000000
# 2 -0.005380 0.043738 -0.004369 0.000000 0.000000 0.000000
# 3 -0.004573 -0.004369 0.006991 0.000000 0.000000 0.000000
# 4 0.000000 0.000000 0.000000 -0.001487 0.000000 0.000000
# 5 0.000000 0.000000 0.000000 0.000000 -1.006587 0.000000
# 6 0.000000 0.000000 0.000000 0.000000 0.000000 0.043591
#
#
# Mechanical properties :
#
#
# Convention : Reuss Voigt Hill
#
# Bulk Modulus (GPa) = 26.84800 64.49487 45.67144
# Shear Modulus (GPa) = -5.83069 -116.04583 -60.93826
#
# Velocity S-wave (km/s) = -1.89225 -8.44177 -6.11736
# Velocity P-wave (km/s) = 3.42245 7.44391 4.67433
#
# Compressibility (1/GPa) = 0.03724672
#
# Stress axis : x y z
#
# Youngs Moduli (GPa) = 65.95464 22.86332 143.03302
#
# Poissons Ratio (x) = 0.12300 0.65413
# Poissons Ratio (y) = 0.35483 0.62494
# Poissons Ratio (z) = 0.30163 0.09989
#
# Static dielectric constant tensor:
#      x y z
#    x 1.492570 0.000000 0.000000 
#    y 0.000000 1.559500 0.000000 
#    z 0.000000 0.000000 1.623900 
# 
# From -- ./inp_files/59331.got.cif
#   From: 2010.05.17/outbox.cif.g08.bks.cpg/sg65_30_cif.got.tgz:59331.got - 2010.06.03 17:01:31.
