data_PCOD9485707
_publ_section_title
;
Structure prediction by ZEFSAII (Michael W. Deem and Ramdas Pophale) SiO2 
 PCOD9485707
Probable space group: C M M M
;
_chemical_formula_sum "Si O2"
_cell_formula_units_Z 80
_cell_length_a 21.721661
_cell_length_b 18.529396
_cell_length_c 12.421541
_cell_angle_alpha 90.000000
_cell_angle_beta 90.000000
_cell_angle_gamma 90.000000
_cell_volume 4999.536826
_symmetry_space_group_name_H-M "C M M M"
_symmetry_group_IT_number 65
_symmetry_cell_setting 'orthorhombic'
loop_
_space_group_symop_operation_xyz
x,y,z
-x,-y,z
x,-y,-z
-x,y,-z
-x,-y,-z
x,y,-z
-x,y,z
x,-y,z
1/2+x,1/2+y,z
1/2-x,1/2-y,z
1/2+x,1/2-y,-z
1/2-x,1/2+y,-z
1/2-x,1/2-y,-z
1/2+x,1/2+y,-z
1/2-x,1/2+y,z
1/2+x,1/2-y,z
loop_
_atom_site_type_symbol
_atom_site_label
_atom_site_fract_x
_atom_site_fract_y
_atom_site_fract_z
Si Si1 0.901497 0.500000 0.124613
Si Si2 0.769044 0.871463 0.292255
Si Si3 0.652441 0.773045 0.296732
Si Si4 0.753375 0.500000 0.873320
Si Si5 0.343460 0.580701 0.500000
Si Si6 0.074709 0.222691 0.500000
Si Si7 0.429741 0.843441 0.125101
O O1 0.827769 0.500000 0.126937
O O2 0.924839 0.424858 0.170834
O O3 0.922991 0.500000 0.000000
O O4 0.701960 0.836986 0.317183
O O5 0.810854 0.800733 0.273497
O O6 0.766391 0.928666 0.194265
O O7 0.799949 0.908099 0.396154
O O8 0.605937 0.760257 0.395865
O O9 0.614217 0.793679 0.192492
O O10 0.734156 0.500000 0.000000
O O11 0.369040 0.500000 0.500000
O O12 0.396751 0.641424 0.500000
O O13 0.000000 0.224448 0.500000
O O14 0.500000 0.819390 0.130719
O O15 0.410702 0.845956 0.000000
#
# Coordination Sequence:
#
# PCOD9485707 Si02
#       7
#     8  16  16   8   8   8  16
#     4   9  17  30  46  69  99 131 171 209 241 286
#     4  10  20  34  53  78 102 133 168 209 253 306
#     4  10  20  34  53  75 103 133 170 207 254 304
#     4  11  20  32  51  78 107 135 167 208 256 301
#     4  10  19  34  57  77  99 128 172 207 252 305
#     4  10  21  36  53  76 105 132 164 212 258 296
#     4  10  19  31  49  72  99 135 175 211 249 296
#
# _framework density 16.001481999999999
#
# number of rings (size 3 to 8) (size 9 to 14) (size 15 to 20)
#    0.000    2.000    3.000    1.500    0.000    4.600 
#    0.000    2.000    0.000    0.000    0.000    2.800 
#    0.000    6.400    0.000    0.000    0.000    0.000 
#
# Total GULP energy -222838.121580 kJ/mol
# GULP energy per Si atom -5570.953039 kJ/mol
# Density = 1.596506 g / cm^3
# Si number density = 16.001482 Si / 1000 Ang^3
#
#
#
# Elastic Constant Matrix: (Units=GPa)
#
#
# Indices 1 2 3 4 5 6 
#
# 1 97.4278 39.4568 60.9367 0.0000 0.0000 0.0000
# 2 39.4568 77.0930 42.6882 0.0000 0.0000 0.0000
# 3 60.9367 42.6882 83.2620 0.0000 0.0000 0.0000
# 4 0.0000 0.0000 0.0000 27.2262 0.0000 0.0000
# 5 0.0000 0.0000 0.0000 0.0000 23.1620 0.0000
# 6 0.0000 0.0000 0.0000 0.0000 0.0000 10.4264
#
#
#
# Elastic Compliance Matrix: (Units=1/GPa)
#
#
# Indices 1 2 3 4 5 6 
#
# 1 0.019377 -0.002883 -0.012703 0.000000 0.000000 0.000000
# 2 -0.002883 0.018543 -0.007397 0.000000 0.000000 0.000000
# 3 -0.012703 -0.007397 0.025099 0.000000 0.000000 0.000000
# 4 0.000000 0.000000 0.000000 0.036729 0.000000 0.000000
# 5 0.000000 0.000000 0.000000 0.000000 0.043174 0.000000
# 6 0.000000 0.000000 0.000000 0.000000 0.000000 0.095910
#
#
# Mechanical properties :
#
#
# Convention : Reuss Voigt Hill
#
# Bulk Modulus (GPa) = 58.64019 60.43847 59.53933
# Shear Modulus (GPa) = 17.21273 19.80967 18.51120
#
# Velocity S-wave (km/s) = 3.28334 3.52233 3.40493
# Velocity P-wave (km/s) = 7.14843 7.37529 7.26275
#
# Compressibility (1/GPa) = 0.01705315
#
# Stress axis : x y z
#
# Youngs Moduli (GPa) = 51.60796 53.92947 39.84155
#
# Poissons Ratio (x) = 0.15549 0.50611
# Poissons Ratio (y) = 0.14880 0.29469
# Poissons Ratio (z) = 0.65558 0.39890
#
# Static dielectric constant tensor:
#      x y z
#    x 1.525170 0.000000 0.000000 
#    y 0.000000 1.550660 0.000000 
#    z 0.000000 0.000000 1.526750 
# 
# From -- ./inp_files/28626.got.cif
#   From: 2010.05.17/outbox.cif.g08.bks.cpg/sg65_15_cif.got.tgz:28626.got - 2010.06.03 17:01:31.
