data_PCOD9485989
_publ_section_title
;
Structure prediction by ZEFSAII (Michael W. Deem and Ramdas Pophale) SiO2 
 PCOD9485989
Probable space group: C M M M
;
_chemical_formula_sum "Si O2"
_cell_formula_units_Z 56
_cell_length_a 15.421736
_cell_length_b 9.091123
_cell_length_c 20.455955
_cell_angle_alpha 90.000000
_cell_angle_beta 90.000000
_cell_angle_gamma 90.000000
_cell_volume 2867.943278
_symmetry_space_group_name_H-M "C M M M"
_symmetry_group_IT_number 65
_symmetry_cell_setting 'orthorhombic'
loop_
_space_group_symop_operation_xyz
x,y,z
-x,-y,z
x,-y,-z
-x,y,-z
-x,-y,-z
x,y,-z
-x,y,z
x,-y,z
1/2+x,1/2+y,z
1/2-x,1/2-y,z
1/2+x,1/2-y,-z
1/2-x,1/2+y,-z
1/2-x,1/2-y,-z
1/2+x,1/2+y,-z
1/2-x,1/2+y,z
1/2+x,1/2-y,z
loop_
_atom_site_type_symbol
_atom_site_label
_atom_site_fract_x
_atom_site_fract_y
_atom_site_fract_z
Si Si1 0.000000 0.678810 0.074571
Si Si2 0.605757 0.828932 0.572592
Si Si3 0.660866 0.176181 0.164512
Si Si4 0.605299 0.669008 0.296537
O O1 0.084179 0.722626 0.115729
O O2 0.000000 0.500000 0.072832
O O3 0.000000 0.731615 0.000000
O O4 0.633784 0.780244 0.500000
O O5 0.500000 0.825005 0.572597
O O6 0.634682 0.731506 0.633437
O O7 0.630132 0.000000 0.581552
O O8 0.750000 0.250000 0.143516
O O9 0.638866 0.232985 0.237111
O O10 0.667018 0.000000 0.164672
O O11 0.500000 0.673818 0.295358
O O12 0.632501 0.500000 0.287894
#
# Coordination Sequence:
#
# PCOD9485989 Si02
#       4
#     8  16  16  16
#     4   9  20  40  65  91 120 155 192 231 283 348
#     4   8  14  25  43  70 105 146 193 241 290 346
#     4  11  22  38  61  88 119 156 196 239 288 344
#     4  10  19  31  51  79 113 151 195 245 292 343
#
# _framework density 19.526188000000001
#
# number of rings (size 3 to 8) (size 9 to 14) (size 15 to 20)
#    0.000    2.429    1.429    2.571    0.000    2.286 
#    0.000    2.857    0.000    6.857    0.000    0.000 
#    0.000    0.000    0.000    0.000    0.000    0.000 
#
# Total GULP energy -156349.770440 kJ/mol
# GULP energy per Si atom -5583.920373 kJ/mol
# Density = 1.948175 g / cm^3
# Si number density = 19.526188 Si / 1000 Ang^3
#
#
#
# Elastic Constant Matrix: (Units=GPa)
#
#
# Indices 1 2 3 4 5 6 
#
# 1 92.0805 44.4491 64.7863 0.0000 0.0000 0.0000
# 2 44.4491 82.5441 59.1890 0.0000 0.0000 0.0000
# 3 64.7863 59.1890 163.9328 0.0000 0.0000 0.0000
# 4 0.0000 0.0000 0.0000 7.3226 0.0000 0.0000
# 5 0.0000 0.0000 0.0000 0.0000 -12.5573 0.0000
# 6 0.0000 0.0000 0.0000 0.0000 0.0000 22.2556
#
#
#
# Elastic Compliance Matrix: (Units=1/GPa)
#
#
# Indices 1 2 3 4 5 6 
#
# 1 0.016884 -0.005812 -0.004574 0.000000 0.000000 0.000000
# 2 -0.005812 0.018348 -0.004328 0.000000 0.000000 0.000000
# 3 -0.004574 -0.004328 0.009470 0.000000 0.000000 0.000000
# 4 0.000000 0.000000 0.000000 0.136563 0.000000 0.000000
# 5 0.000000 0.000000 0.000000 0.000000 -0.079635 0.000000
# 6 0.000000 0.000000 0.000000 0.000000 0.000000 0.044933
#
#
# Mechanical properties :
#
#
# Convention : Reuss Voigt Hill
#
# Bulk Modulus (GPa) = 65.46885 75.04513 70.25699
# Shear Modulus (GPa) = 27.61203 14.74639 21.17921
#
# Velocity S-wave (km/s) = 3.76453 2.75109 3.29699
# Velocity P-wave (km/s) = 7.24549 6.97193 7.11003
#
# Compressibility (1/GPa) = 0.01527444
#
# Stress axis : x y z
#
# Youngs Moduli (GPa) = 59.22835 54.50326 105.59370
#
# Poissons Ratio (x) = 0.31676 0.48299
# Poissons Ratio (y) = 0.34423 0.45697
# Poissons Ratio (z) = 0.27092 0.23587
#
# Static dielectric constant tensor:
#      x y z
#    x 1.716640 0.000000 0.000000 
#    y 0.000000 1.651450 0.000000 
#    z 0.000000 0.000000 1.661200 
# 
# From -- ./inp_files/58548.got.cif
#   From: 2010.05.17/outbox.cif.g08.bks.cpg/sg65_30_cif.got.tgz:58548.got - 2010.06.03 17:01:31.
