data_PCOD9485169
_publ_section_title
;
Structure prediction by ZEFSAII (Michael W. Deem and Ramdas Pophale) SiO2 
 PCOD9485169
Probable space group: C M M M
;
_chemical_formula_sum "Si O2"
_cell_formula_units_Z 80
_cell_length_a 19.789185
_cell_length_b 8.494471
_cell_length_c 26.971350
_cell_angle_alpha 90.000000
_cell_angle_beta 90.000000
_cell_angle_gamma 90.000000
_cell_volume 4533.847742
_symmetry_space_group_name_H-M "C M M M"
_symmetry_group_IT_number 65
_symmetry_cell_setting 'orthorhombic'
loop_
_space_group_symop_operation_xyz
x,y,z
-x,-y,z
x,-y,-z
-x,y,-z
-x,-y,-z
x,y,-z
-x,y,z
x,-y,z
1/2+x,1/2+y,z
1/2-x,1/2-y,z
1/2+x,1/2-y,-z
1/2-x,1/2+y,-z
1/2-x,1/2-y,-z
1/2+x,1/2+y,-z
1/2-x,1/2+y,z
1/2+x,1/2-y,z
loop_
_atom_site_type_symbol
_atom_site_label
_atom_site_fract_x
_atom_site_fract_y
_atom_site_fract_z
Si Si1 0.077923 0.190191 0.855605
Si Si2 0.172701 0.811273 0.446139
Si Si3 0.173165 0.688584 0.341926
Si Si4 0.921966 0.690058 0.252121
Si Si5 0.174163 0.190313 0.944167
O O1 0.100557 0.250383 0.801810
O O2 0.124429 0.245198 0.900843
O O3 0.000000 0.240339 0.862557
O O4 0.079148 0.000000 0.854951
O O5 0.142646 0.766096 0.500000
O O6 0.250000 0.750000 0.446852
O O7 0.144005 0.743899 0.395066
O O8 0.173477 0.000000 0.443176
O O9 0.175573 0.500000 0.341987
O O10 0.250000 0.750000 0.336952
O O11 0.126684 0.743236 0.296413
O O12 0.921430 0.500000 0.251683
O O13 0.000000 0.741366 0.259550
O O14 0.250000 0.250000 0.935703
O O15 0.174673 0.000000 0.943374
O O16 0.153578 0.239346 0.000000
#
# Coordination Sequence:
#
# PCOD9485169 Si02
#       5
#    16  16  16  16  16
#     4   9  18  32  50  71  92 118 155 194 231 272
#     4   9  16  26  42  65  93 122 151 186 228 272
#     4  10  19  30  47  70  94 120 152 191 231 273
#     4   9  19  35  51  67  91 124 158 191 230 274
#     4   9  18  32  49  70  97 126 154 187 228 274
#
# _framework density 17.645056
#
# number of rings (size 3 to 8) (size 9 to 14) (size 15 to 20)
#    0.000    2.800    0.000    2.400    0.000    4.800 
#    0.000    6.000    0.000    0.600    0.000    9.800 
#    0.000    0.000    0.000    0.000    0.000    0.000 
#
# Total GULP energy -222850.381426 kJ/mol
# GULP energy per Si atom -5571.259536 kJ/mol
# Density = 1.760490 g / cm^3
# Si number density = 17.645056 Si / 1000 Ang^3
#
#
#
# Elastic Constant Matrix: (Units=GPa)
#
#
# Indices 1 2 3 4 5 6 
#
# 1 55.8698 14.5184 92.2462 0.0000 0.0000 0.0000
# 2 14.5184 20.3043 29.3559 0.0000 0.0000 0.0000
# 3 92.2462 29.3559 220.4651 0.0000 0.0000 0.0000
# 4 0.0000 0.0000 0.0000 28.6553 0.0000 0.0000
# 5 0.0000 0.0000 0.0000 0.0000 -8.7633 0.0000
# 6 0.0000 0.0000 0.0000 0.0000 0.0000 17.8469
#
#
#
# Elastic Compliance Matrix: (Units=1/GPa)
#
#
# Indices 1 2 3 4 5 6 
#
# 1 0.058936 -0.008035 -0.023590 0.000000 0.000000 0.000000
# 2 -0.008035 0.062088 -0.004905 0.000000 0.000000 0.000000
# 3 -0.023590 -0.004905 0.015059 0.000000 0.000000 0.000000
# 4 0.000000 0.000000 0.000000 0.034898 0.000000 0.000000
# 5 0.000000 0.000000 0.000000 0.000000 -0.114112 0.000000
# 6 0.000000 0.000000 0.000000 0.000000 0.000000 0.056032
#
#
# Mechanical properties :
#
#
# Convention : Reuss Voigt Hill
#
# Bulk Modulus (GPa) = 15.86732 63.20891 39.53811
# Shear Modulus (GPa) = 24.15815 18.24901 21.20358
#
# Velocity S-wave (km/s) = 3.70417 3.21943 3.47028
# Velocity P-wave (km/s) = 5.22557 7.05123 6.20590
#
# Compressibility (1/GPa) = 0.06302263
#
# Stress axis : x y z
#
# Youngs Moduli (GPa) = 16.96765 16.10610 66.40408
#
# Poissons Ratio (x) = 0.12942 1.56645
# Poissons Ratio (y) = 0.13634 0.32572
# Poissons Ratio (z) = 0.40026 0.07900
#
# Static dielectric constant tensor:
#      x y z
#    x 1.583270 0.000000 0.000000 
#    y 0.000000 1.607680 0.000000 
#    z 0.000000 0.000000 1.631730 
# 
# From -- ./inp_files/75023.got.cif
#   From: 2010.05.17/outbox.cif.g08.bks.cpg/sg65_38_cif.got.tgz:75023.got - 2010.06.03 17:01:31.
