data_PCOD9485310
_publ_section_title
;
Structure prediction by ZEFSAII (Michael W. Deem and Ramdas Pophale) SiO2 
 PCOD9485310
Probable space group: C M M M
;
_chemical_formula_sum "Si O2"
_cell_formula_units_Z 104
_cell_length_a 13.943229
_cell_length_b 19.675789
_cell_length_c 20.132956
_cell_angle_alpha 90.000000
_cell_angle_beta 90.000000
_cell_angle_gamma 90.000000
_cell_volume 5523.356321
_symmetry_space_group_name_H-M "C M M M"
_symmetry_group_IT_number 65
_symmetry_cell_setting 'orthorhombic'
loop_
_space_group_symop_operation_xyz
x,y,z
-x,-y,z
x,-y,-z
-x,y,-z
-x,-y,-z
x,y,-z
-x,y,z
x,-y,z
1/2+x,1/2+y,z
1/2-x,1/2-y,z
1/2+x,1/2-y,-z
1/2-x,1/2+y,-z
1/2-x,1/2-y,-z
1/2+x,1/2+y,-z
1/2-x,1/2+y,z
1/2+x,1/2-y,z
loop_
_atom_site_type_symbol
_atom_site_label
_atom_site_fract_x
_atom_site_fract_y
_atom_site_fract_z
Si Si1 0.226930 0.578884 0.369505
Si Si2 0.151825 0.208778 0.073337
Si Si3 0.107965 0.720291 0.207786
Si Si4 0.885113 0.922459 0.854491
Si Si5 0.111333 0.417149 0.500000
Si Si6 0.384854 0.351282 0.285788
Si Si7 0.384486 0.073809 0.766781
O O1 0.256855 0.500000 0.379608
O O2 0.171069 0.603290 0.434773
O O3 0.317825 0.622405 0.344867
O O4 0.150903 0.578624 0.308961
O O5 0.250000 0.250000 0.069730
O O6 0.102673 0.244507 0.136163
O O7 0.163311 0.131092 0.096273
O O8 0.107673 0.211907 0.000000
O O9 0.146870 0.777167 0.258181
O O10 0.151309 0.644976 0.202129
O O11 0.000000 0.709434 0.232236
O O12 0.870001 0.901187 0.777652
O O13 0.000000 0.915609 0.865622
O O14 0.857914 0.000000 0.865673
O O15 0.108142 0.500000 0.500000
O O16 0.000000 0.394258 0.500000
O O17 0.500000 0.350744 0.299755
O O18 0.500000 0.071589 0.771533
O O19 0.349766 0.000000 0.792879
#
# Coordination Sequence:
#
# PCOD9485310 Si02
#       7
#    16  16  16  16   8  16  16
#     4  10  19  30  51  79 104 141 178 211 266 314
#     4  10  21  34  48  71 104 141 177 215 267 335
#     4   9  19  34  53  75  99 135 176 219 270 318
#     4   9  18  33  54  78 102 133 179 235 283 318
#     4   9  18  34  53  76 111 147 185 228 260 302
#     4   9  18  32  50  76 109 141 177 219 265 326
#     4   9  18  32  51  78 104 126 169 228 272 310
#
# _framework density 18.829131
#
# number of rings (size 3 to 8) (size 9 to 14) (size 15 to 20)
#    0.000    2.692    0.000    2.308    4.308    4.308 
#    0.000    1.154    0.000    4.615    0.000    5.385 
#    0.000    0.000    0.000    0.000    0.000    0.154 
#
# Total GULP energy -289617.043052 kJ/mol
# GULP energy per Si atom -5569.558520 kJ/mol
# Density = 1.878627 g / cm^3
# Si number density = 18.829131 Si / 1000 Ang^3
#
#
#
# Elastic Constant Matrix: (Units=GPa)
#
#
# Indices 1 2 3 4 5 6 
#
# 1 99.2663 38.7581 40.6106 0.0000 0.0000 0.0000
# 2 38.7581 165.8797 51.3080 0.0000 0.0000 0.0000
# 3 40.6106 51.3080 93.7569 0.0000 0.0000 0.0000
# 4 0.0000 0.0000 0.0000 14.9723 0.0000 0.0000
# 5 0.0000 0.0000 0.0000 0.0000 29.6122 0.0000
# 6 0.0000 0.0000 0.0000 0.0000 0.0000 23.2820
#
#
#
# Elastic Compliance Matrix: (Units=1/GPa)
#
#
# Indices 1 2 3 4 5 6 
#
# 1 0.012548 -0.001506 -0.004611 0.000000 0.000000 0.000000
# 2 -0.001506 0.007437 -0.003418 0.000000 0.000000 0.000000
# 3 -0.004611 -0.003418 0.014534 0.000000 0.000000 0.000000
# 4 0.000000 0.000000 0.000000 0.066790 0.000000 0.000000
# 5 0.000000 0.000000 0.000000 0.000000 0.033770 0.000000
# 6 0.000000 0.000000 0.000000 0.000000 0.000000 0.042952
#
#
# Mechanical properties :
#
#
# Convention : Reuss Voigt Hill
#
# Bulk Modulus (GPa) = 64.72621 68.91736 66.82179
# Shear Modulus (GPa) = 24.72178 28.78837 26.75507
#
# Velocity S-wave (km/s) = 3.62740 3.91439 3.77363
# Velocity P-wave (km/s) = 7.21070 7.55717 7.38597
#
# Compressibility (1/GPa) = 0.01544969
#
# Stress axis : x y z
#
# Youngs Moduli (GPa) = 79.69203 134.45459 68.80547
#
# Poissons Ratio (x) = 0.20244 0.31728
# Poissons Ratio (y) = 0.11999 0.23517
# Poissons Ratio (z) = 0.36749 0.45956
#
# Static dielectric constant tensor:
#      x y z
#    x 1.720900 0.000000 0.000000 
#    y 0.000000 1.709360 0.000000 
#    z 0.000000 0.000000 1.628250 
# 
# From -- ./inp_files/53281.got.cif
#   From: 2010.05.17/outbox.cif.g08.bks.cpg/sg65_27_cif.got.tgz:53281.got - 2010.06.03 17:01:31.
