data_PCOD9485327
_publ_section_title
;
Structure prediction by ZEFSAII (Michael W. Deem and Ramdas Pophale) SiO2 
 PCOD9485327
Probable space group: C M M M
;
_chemical_formula_sum "Si O2"
_cell_formula_units_Z 112
_cell_length_a 32.939510
_cell_length_b 32.654349
_cell_length_c 8.994143
_cell_angle_alpha 90.000000
_cell_angle_beta 90.000000
_cell_angle_gamma 90.000000
_cell_volume 9674.264403
_symmetry_space_group_name_H-M "C M M M"
_symmetry_group_IT_number 65
_symmetry_cell_setting 'orthorhombic'
loop_
_space_group_symop_operation_xyz
x,y,z
-x,-y,z
x,-y,-z
-x,y,-z
-x,-y,-z
x,y,-z
-x,y,z
x,-y,z
1/2+x,1/2+y,z
1/2-x,1/2-y,z
1/2+x,1/2-y,-z
1/2-x,1/2+y,-z
1/2-x,1/2-y,-z
1/2+x,1/2+y,-z
1/2-x,1/2+y,z
1/2+x,1/2-y,z
loop_
_atom_site_type_symbol
_atom_site_label
_atom_site_fract_x
_atom_site_fract_y
_atom_site_fract_z
Si Si1 0.580688 0.500000 0.676503
Si Si2 0.951943 0.083175 0.823386
Si Si3 0.337471 0.712650 0.670577
Si Si4 0.383798 0.365471 0.320491
Si Si5 0.321586 0.500000 0.676509
Si Si6 0.691891 0.414094 0.822273
Si Si7 0.789894 0.279533 0.829497
Si Si8 0.241907 0.846638 0.329379
O O1 0.572065 0.500000 0.500000
O O2 0.562319 0.459739 0.752483
O O3 0.629395 0.500000 0.695167
O O4 0.925916 0.118264 0.743128
O O5 0.000000 0.088106 0.802144
O O6 0.943387 0.082946 0.000000
O O7 0.344000 0.725205 0.500000
O O8 0.372997 0.681602 0.717844
O O9 0.326399 0.751876 0.767634
O O10 0.297485 0.683448 0.672398
O O11 0.381744 0.369542 0.500000
O O12 0.348627 0.393649 0.248484
O O13 0.313350 0.500000 0.500000
O O14 0.305002 0.540793 0.754015
O O15 0.728795 0.385008 0.770219
O O16 0.688527 0.414969 0.000000
O O17 0.750000 0.250000 0.823985
O O18 0.778356 0.319168 0.733542
O O19 0.796349 0.290934 0.000000
O O20 0.248511 0.858871 0.500000
#
# Coordination Sequence:
#
# PCOD9485327 Si02
#       8
#     8  16  16  16   8  16  16  16
#     4  11  22  34  49  60  69  84 108 138 172 218
#     4  11  23  35  46  59  73  87 106 137 177 217
#     4   8  15  25  37  52  70  90 110 130 156 190
#     4  10  19  31  44  57  71  89 111 134 163 206
#     4  11  21  32  44  57  71  88 113 141 173 214
#     4  11  20  29  42  57  71  88 110 139 172 203
#     4   9  15  22  34  53  73  91 112 133 155 185
#     4   9  16  26  38  51  71  94 113 133 158 191
#
# _framework density 11.577107
#
# number of rings (size 3 to 8) (size 9 to 14) (size 15 to 20)
#    0.000    2.143    1.429    4.500    0.000    8.286 
#    0.000    0.000    0.000    0.000    0.000    0.000 
#    0.000    0.000    0.000    0.000    0.000    0.000 
#
# Total GULP energy -312160.205617 kJ/mol
# GULP energy per Si atom -5574.289386 kJ/mol
# Density = 1.155076 g / cm^3
# Si number density = 11.577107 Si / 1000 Ang^3
#
#
#
# Elastic Constant Matrix: (Units=GPa)
#
#
# Indices 1 2 3 4 5 6 
#
# 1 34.6416 35.6659 29.9512 0.0000 0.0000 0.0000
# 2 35.6659 60.8667 44.8165 0.0000 0.0000 0.0000
# 3 29.9512 44.8165 84.3819 0.0000 0.0000 0.0000
# 4 0.0000 0.0000 0.0000 16.5827 0.0000 0.0000
# 5 0.0000 0.0000 0.0000 0.0000 14.5538 0.0000
# 6 0.0000 0.0000 0.0000 0.0000 0.0000 8.3202
#
#
#
# Elastic Compliance Matrix: (Units=1/GPa)
#
#
# Indices 1 2 3 4 5 6 
#
# 1 0.074198 -0.039554 -0.005329 0.000000 0.000000 0.000000
# 2 -0.039554 0.048066 -0.011489 0.000000 0.000000 0.000000
# 3 -0.005329 -0.011489 0.019844 0.000000 0.000000 0.000000
# 4 0.000000 0.000000 0.000000 0.060304 0.000000 0.000000
# 5 0.000000 0.000000 0.000000 0.000000 0.068711 0.000000
# 6 0.000000 0.000000 0.000000 0.000000 0.000000 0.120190
#
#
# Mechanical properties :
#
#
# Convention : Reuss Voigt Hill
#
# Bulk Modulus (GPa) = 34.05437 44.52861 39.29149
# Shear Modulus (GPa) = 9.73060 12.52178 11.12619
#
# Velocity S-wave (km/s) = 2.90229 3.29233 3.10345
# Velocity P-wave (km/s) = 6.38045 7.28002 6.84503
#
# Compressibility (1/GPa) = 0.02936481
#
# Stress axis : x y z
#
# Youngs Moduli (GPa) = 13.47754 20.80473 50.39242
#
# Poissons Ratio (x) = 0.82291 0.26853
# Poissons Ratio (y) = 0.53309 0.57896
# Poissons Ratio (z) = 0.07182 0.23903
#
# Static dielectric constant tensor:
#      x y z
#    x 1.356120 0.000000 0.000000 
#    y 0.000000 1.371940 0.000000 
#    z 0.000000 0.000000 1.386870 
# 
# From -- ./inp_files/19241.got.cif
#   From: 2010.05.17/outbox.cif.g08.bks.cpg/sg65_10_cif.got.tgz:19241.got - 2010.06.03 17:01:31.
