data_PCOD9485184
_publ_section_title
;
Structure prediction by ZEFSAII (Michael W. Deem and Ramdas Pophale) SiO2 
 PCOD9485184
Probable space group: C M M M
;
_chemical_formula_sum "Si O2"
_cell_formula_units_Z 80
_cell_length_a 9.654831
_cell_length_b 26.107338
_cell_length_c 20.371218
_cell_angle_alpha 90.000000
_cell_angle_beta 90.000000
_cell_angle_gamma 90.000000
_cell_volume 5134.808653
_symmetry_space_group_name_H-M "C M M M"
_symmetry_group_IT_number 65
_symmetry_cell_setting 'orthorhombic'
loop_
_space_group_symop_operation_xyz
x,y,z
-x,-y,z
x,-y,-z
-x,y,-z
-x,-y,-z
x,y,-z
-x,y,z
x,-y,z
1/2+x,1/2+y,z
1/2-x,1/2-y,z
1/2+x,1/2-y,-z
1/2-x,1/2+y,-z
1/2-x,1/2-y,-z
1/2+x,1/2+y,-z
1/2-x,1/2+y,z
1/2+x,1/2-y,z
loop_
_atom_site_type_symbol
_atom_site_label
_atom_site_fract_x
_atom_site_fract_y
_atom_site_fract_z
Si Si1 0.333498 0.912855 0.322993
Si Si2 0.160645 0.058746 0.195249
Si Si3 0.836864 0.355793 0.137417
Si Si4 0.661521 0.199615 0.000000
Si Si5 0.667468 0.000000 0.425635
Si Si6 0.663853 0.198967 0.723897
O O1 0.500000 0.918372 0.311810
O O2 0.246702 0.935092 0.262448
O O3 0.296352 0.948277 0.385295
O O4 0.305939 0.851510 0.320881
O O5 0.237927 0.095924 0.145526
O O6 0.000000 0.073278 0.205046
O O7 0.165614 0.000000 0.174194
O O8 0.809048 0.319267 0.200619
O O9 0.000000 0.369822 0.142329
O O10 0.812108 0.330454 0.067333
O O11 0.750000 0.250000 0.000000
O O12 0.500000 0.213083 0.000000
O O13 0.500000 0.000000 0.428694
O O14 0.721184 0.000000 0.500000
O O15 0.500000 0.209658 0.718482
O O16 0.750000 0.250000 0.708966
#
# Coordination Sequence:
#
# PCOD9485184 Si02
#       6
#    16  16  16   8   8  16
#     4   9  17  30  49  72  98 127 159 196 240 285
#     4  10  19  30  47  71  96 122 157 197 240 289
#     4   9  19  33  48  68  93 123 161 199 240 290
#     4  10  20  34  51  70  93 123 160 201 245 298
#     4   9  16  28  51  79 101 124 159 200 237 277
#     4   9  17  28  44  68  94 122 157 196 237 280
#
# _framework density 15.579938
#
# number of rings (size 3 to 8) (size 9 to 14) (size 15 to 20)
#    0.000    2.700    1.000    2.400    0.000    5.200 
#    0.000    0.500    0.000    4.800    0.000    0.000 
#    0.000    0.000    0.000    0.000    0.000    0.400 
#
# Total GULP energy -222686.298640 kJ/mol
# GULP energy per Si atom -5567.157466 kJ/mol
# Density = 1.554448 g / cm^3
# Si number density = 15.579938 Si / 1000 Ang^3
#
#
#
# Elastic Constant Matrix: (Units=GPa)
#
#
# Indices 1 2 3 4 5 6 
#
# 1 56.3114 70.7467 42.4825 0.0000 0.0000 0.0000
# 2 70.7467 135.4610 64.3761 0.0000 0.0000 0.0000
# 3 42.4825 64.3761 99.9545 0.0000 0.0000 0.0000
# 4 0.0000 0.0000 0.0000 9.9608 0.0000 0.0000
# 5 0.0000 0.0000 0.0000 0.0000 7.9678 0.0000
# 6 0.0000 0.0000 0.0000 0.0000 0.0000 32.8093
#
#
#
# Elastic Compliance Matrix: (Units=1/GPa)
#
#
# Indices 1 2 3 4 5 6 
#
# 1 0.054852 -0.025317 -0.007008 0.000000 0.000000 0.000000
# 2 -0.025317 0.022324 -0.003617 0.000000 0.000000 0.000000
# 3 -0.007008 -0.003617 0.015313 0.000000 0.000000 0.000000
# 4 0.000000 0.000000 0.000000 0.100393 0.000000 0.000000
# 5 0.000000 0.000000 0.000000 0.000000 0.125506 0.000000
# 6 0.000000 0.000000 0.000000 0.000000 0.000000 0.030479
#
#
# Mechanical properties :
#
#
# Convention : Reuss Voigt Hill
#
# Bulk Modulus (GPa) = 48.53352 71.88195 60.20773
# Shear Modulus (GPa) = 11.69263 17.75567 14.72415
#
# Velocity S-wave (km/s) = 2.74248 3.37953 3.07754
# Velocity P-wave (km/s) = 6.42240 7.84002 7.16635
#
# Compressibility (1/GPa) = 0.02060432
#
# Stress axis : x y z
#
# Youngs Moduli (GPa) = 18.23076 44.79552 65.30553
#
# Poissons Ratio (x) = 1.13410 0.45763
# Poissons Ratio (y) = 0.46155 0.23623
# Poissons Ratio (z) = 0.12775 0.16204
#
# Static dielectric constant tensor:
#      x y z
#    x 1.514870 0.000000 0.000000 
#    y 0.000000 1.527870 0.000000 
#    z 0.000000 0.000000 1.514440 
# 
# From -- ./inp_files/60068.got.cif
#   From: 2010.05.17/outbox.cif.g08.bks.cpg/sg65_31_cif.got.tgz:60068.got - 2010.06.03 17:01:31.
