data_PCOD9485167
_publ_section_title
;
Structure prediction by ZEFSAII (Michael W. Deem and Ramdas Pophale) SiO2 
 PCOD9485167
Probable space group: C M M M
;
_chemical_formula_sum "Si O2"
_cell_formula_units_Z 88
_cell_length_a 28.265667
_cell_length_b 8.211117
_cell_length_c 22.037246
_cell_angle_alpha 90.000000
_cell_angle_beta 90.000000
_cell_angle_gamma 90.000000
_cell_volume 5114.683899
_symmetry_space_group_name_H-M "C M M M"
_symmetry_group_IT_number 65
_symmetry_cell_setting 'orthorhombic'
loop_
_space_group_symop_operation_xyz
x,y,z
-x,-y,z
x,-y,-z
-x,y,-z
-x,-y,-z
x,y,-z
-x,y,z
x,-y,z
1/2+x,1/2+y,z
1/2-x,1/2-y,z
1/2+x,1/2-y,-z
1/2-x,1/2+y,-z
1/2-x,1/2-y,-z
1/2+x,1/2+y,-z
1/2-x,1/2+y,z
1/2+x,1/2-y,z
loop_
_atom_site_type_symbol
_atom_site_label
_atom_site_fract_x
_atom_site_fract_y
_atom_site_fract_z
Si Si1 0.695805 0.696938 0.432425
Si Si2 0.146446 0.194578 0.688990
Si Si3 0.196968 0.305793 0.188971
Si Si4 0.396808 0.198715 0.875398
Si Si5 0.944991 0.300531 0.000000
Si Si6 0.553015 0.196649 0.751378
O O1 0.681038 0.752491 0.500000
O O2 0.694410 0.500000 0.432338
O O3 0.750000 0.750000 0.423372
O O4 0.664789 0.756310 0.375926
O O5 0.179859 0.253422 0.744007
O O6 0.093398 0.247159 0.705373
O O7 0.148520 0.000000 0.688506
O O8 0.196189 0.500000 0.187532
O O9 0.250000 0.250000 0.176161
O O10 0.156259 0.247027 0.142281
O O11 0.417960 0.253667 0.939232
O O12 0.429918 0.247154 0.818755
O O13 0.396534 0.000000 0.876736
O O14 0.944855 0.500000 0.000000
O O15 0.000000 0.250843 0.000000
O O16 0.500000 0.254690 0.738623
O O17 0.552761 0.000000 0.751091
#
# Coordination Sequence:
#
# PCOD9485167 Si02
#       6
#    16  16  16  16   8  16
#     4   9  18  31  46  66  92 119 146 179 220 266
#     4  10  19  30  47  70  93 118 150 186 224 268
#     4  10  19  31  46  65  92 122 152 186 225 267
#     4   8  15  26  41  64  91 117 146 183 225 267
#     4   9  14  22  41  66  89 113 145 185 226 269
#     4   9  17  30  47  67  93 122 151 186 228 268
#
# _framework density 17.205363999999999
#
# number of rings (size 3 to 8) (size 9 to 14) (size 15 to 20)
#    0.000    2.818    0.000    3.273    0.000    5.455 
#    0.000    0.455    0.000    0.545    0.000   19.091 
#    0.000   24.000    0.000    0.000    0.000    0.000 
#
# Total GULP energy -245250.862459 kJ/mol
# GULP energy per Si atom -5573.883238 kJ/mol
# Density = 1.716620 g / cm^3
# Si number density = 17.205364 Si / 1000 Ang^3
#
#
#
# Elastic Constant Matrix: (Units=GPa)
#
#
# Indices 1 2 3 4 5 6 
#
# 1 157.8625 15.2623 101.4462 0.0000 0.0000 0.0000
# 2 15.2623 14.6568 12.9526 0.0000 0.0000 0.0000
# 3 101.4462 12.9526 166.0139 0.0000 0.0000 0.0000
# 4 0.0000 0.0000 0.0000 12.3989 0.0000 0.0000
# 5 0.0000 0.0000 0.0000 0.0000 21.3644 0.0000
# 6 0.0000 0.0000 0.0000 0.0000 0.0000 24.3020
#
#
#
# Elastic Compliance Matrix: (Units=1/GPa)
#
#
# Indices 1 2 3 4 5 6 
#
# 1 0.010880 -0.005858 -0.006191 0.000000 0.000000 0.000000
# 2 -0.005858 0.076434 -0.002384 0.000000 0.000000 0.000000
# 3 -0.006191 -0.002384 0.009993 0.000000 0.000000 0.000000
# 4 0.000000 0.000000 0.000000 0.080652 0.000000 0.000000
# 5 0.000000 0.000000 0.000000 0.000000 0.046807 0.000000
# 6 0.000000 0.000000 0.000000 0.000000 0.000000 0.041149
#
#
# Mechanical properties :
#
#
# Convention : Reuss Voigt Hill
#
# Bulk Modulus (GPa) = 14.61116 66.42836 40.51976
# Shear Modulus (GPa) = 15.74337 25.53786 20.64062
#
# Velocity S-wave (km/s) = 3.02822 3.85684 3.46737
# Velocity P-wave (km/s) = 4.55384 7.65026 6.29539
#
# Compressibility (1/GPa) = 0.06844084
#
# Stress axis : x y z
#
# Youngs Moduli (GPa) = 91.91577 13.08315 100.07195
#
# Poissons Ratio (x) = 0.07664 0.61956
# Poissons Ratio (y) = 0.53842 0.23857
# Poissons Ratio (z) = 0.56906 0.03119
#
# Static dielectric constant tensor:
#      x y z
#    x 1.556080 0.000000 0.000000 
#    y 0.000000 1.613330 0.000000 
#    z 0.000000 0.000000 1.584200 
# 
# From -- ./inp_files/60683.got.cif
#   From: 2010.05.17/outbox.cif.g08.bks.cpg/sg65_31_cif.got.tgz:60683.got - 2010.06.03 17:01:31.
