data_PCOD9485705
_publ_section_title
;
Structure prediction by ZEFSAII (Michael W. Deem and Ramdas Pophale) SiO2 
 PCOD9485705
Probable space group: C M M M
;
_chemical_formula_sum "Si O2"
_cell_formula_units_Z 64
_cell_length_a 18.410812
_cell_length_b 22.050990
_cell_length_c 7.601894
_cell_angle_alpha 90.000000
_cell_angle_beta 90.000000
_cell_angle_gamma 90.000000
_cell_volume 3086.191318
_symmetry_space_group_name_H-M "C M M M"
_symmetry_group_IT_number 65
_symmetry_cell_setting 'orthorhombic'
loop_
_space_group_symop_operation_xyz
x,y,z
-x,-y,z
x,-y,-z
-x,y,-z
-x,-y,-z
x,y,-z
-x,y,z
x,-y,z
1/2+x,1/2+y,z
1/2-x,1/2-y,z
1/2+x,1/2-y,-z
1/2-x,1/2+y,-z
1/2-x,1/2-y,-z
1/2+x,1/2+y,-z
1/2-x,1/2+y,z
1/2+x,1/2-y,z
loop_
_atom_site_type_symbol
_atom_site_label
_atom_site_fract_x
_atom_site_fract_y
_atom_site_fract_z
Si Si1 0.317993 0.500000 0.700282
Si Si2 0.083587 0.114737 0.786738
Si Si3 0.584939 0.878402 0.784749
Si Si4 0.911522 0.246818 0.794894
Si Si5 0.657355 0.000000 0.200077
O O1 0.294001 0.500000 0.500000
O O2 0.366218 0.440747 0.734518
O O3 0.243806 0.500000 0.806741
O O4 0.109374 0.181059 0.721107
O O5 0.000000 0.104926 0.729610
O O6 0.082464 0.117287 0.000000
O O7 0.500000 0.885653 0.740470
O O8 0.610961 0.812082 0.720142
O O9 0.628519 0.936995 0.721503
O O10 0.589121 0.875442 0.000000
O O11 0.000000 0.247109 0.791672
O O12 0.889275 0.246402 0.000000
O O13 0.627917 0.000000 0.000000
#
# Coordination Sequence:
#
# PCOD9485705 Si02
#       5
#     8  16  16  16   8
#     4  12  25  36  45  62  95 134 165 198 238 278
#     4   9  17  32  55  77  94 117 153 196 240 287
#     4   8  13  24  47  79 105 121 147 192 240 280
#     4   7  11  22  44  75 103 119 139 184 241 286
#     4  10  19  31  49  72  99 131 163 194 228 272
#
# _framework density 20.737534
#
# number of rings (size 3 to 8) (size 9 to 14) (size 15 to 20)
#    0.000    3.250    0.000    4.875    0.000    3.500 
#    0.000    1.250    0.000   10.500    0.000    3.500 
#    0.000    0.000    0.000    0.000    0.000    0.000 
#
# Total GULP energy -178272.601181 kJ/mol
# GULP energy per Si atom -5571.018787 kJ/mol
# Density = 2.069033 g / cm^3
# Si number density = 20.737534 Si / 1000 Ang^3
#
#
#
# Elastic Constant Matrix: (Units=GPa)
#
#
# Indices 1 2 3 4 5 6 
#
# 1 51.5319 76.3766 -4.2915 0.0000 0.0000 0.0000
# 2 76.3766 255.9124 5.8864 0.0000 0.0000 0.0000
# 3 -4.2915 5.8864 48.6869 0.0000 0.0000 0.0000
# 4 0.0000 0.0000 0.0000 -44.9752 0.0000 0.0000
# 5 0.0000 0.0000 0.0000 0.0000 225.7858 0.0000
# 6 0.0000 0.0000 0.0000 0.0000 0.0000 -8.3592
#
#
#
# Elastic Compliance Matrix: (Units=1/GPa)
#
#
# Indices 1 2 3 4 5 6 
#
# 1 0.035735 -0.010767 0.004452 0.000000 0.000000 0.000000
# 2 -0.010767 0.007163 -0.001815 0.000000 0.000000 0.000000
# 3 0.004452 -0.001815 0.021151 0.000000 0.000000 0.000000
# 4 0.000000 0.000000 0.000000 -0.022234 0.000000 0.000000
# 5 0.000000 0.000000 0.000000 0.000000 0.004429 0.000000
# 6 0.000000 0.000000 0.000000 0.000000 0.000000 -0.119629
#
#
# Mechanical properties :
#
#
# Convention : Reuss Voigt Hill
#
# Bulk Modulus (GPa) = 20.92608 56.89714 38.91161
# Shear Modulus (GPa) = -121.37568 53.03426 -34.17071
#
# Velocity S-wave (km/s) = -7.65876 5.06256 -4.06368
# Velocity P-wave (km/s) = 8.25202 7.85297 1.79259
#
# Compressibility (1/GPa) = 0.04778725
#
# Stress axis : x y z
#
# Youngs Moduli (GPa) = 27.98390 139.60918 47.27857
#
# Poissons Ratio (x) = 1.50323 -0.21047
# Poissons Ratio (y) = 0.30131 0.08582
# Poissons Ratio (z) = -0.12458 0.25341
#
# Static dielectric constant tensor:
#      x y z
#    x 1.682240 0.000000 0.000000 
#    y 0.000000 1.796590 0.000000 
#    z 0.000000 0.000000 1.777450 
# 
# From -- ./inp_files/8811.got.cif
#   From: 2010.05.17/outbox.cif.g08.bks.cpg/sg65_5_cif.got.tgz:8811.got - 2010.06.03 17:01:31.
