data_PCOD9485466
_publ_section_title
;
Structure prediction by ZEFSAII (Michael W. Deem and Ramdas Pophale) SiO2 
 PCOD9485466
Probable space group: C M M M
;
_chemical_formula_sum "Si O2"
_cell_formula_units_Z 88
_cell_length_a 20.360702
_cell_length_b 32.044161
_cell_length_c 8.866357
_cell_angle_alpha 90.000000
_cell_angle_beta 90.000000
_cell_angle_gamma 90.000000
_cell_volume 5784.780262
_symmetry_space_group_name_H-M "C M M M"
_symmetry_group_IT_number 65
_symmetry_cell_setting 'orthorhombic'
loop_
_space_group_symop_operation_xyz
x,y,z
-x,-y,z
x,-y,-z
-x,y,-z
-x,-y,-z
x,y,-z
-x,y,z
x,-y,z
1/2+x,1/2+y,z
1/2-x,1/2-y,z
1/2+x,1/2-y,-z
1/2-x,1/2+y,-z
1/2-x,1/2-y,-z
1/2+x,1/2+y,-z
1/2-x,1/2+y,z
1/2+x,1/2-y,z
loop_
_atom_site_type_symbol
_atom_site_label
_atom_site_fract_x
_atom_site_fract_y
_atom_site_fract_z
Si Si1 0.072443 0.833454 0.318152
Si Si2 0.424030 0.500000 0.319099
Si Si3 0.426963 0.758874 0.818672
Si Si4 0.310725 0.453903 0.178161
Si Si5 0.210589 0.129975 0.319478
Si Si6 0.211692 0.292941 0.181543
O O1 0.073411 0.831626 0.500000
O O2 0.079673 0.786706 0.254715
O O3 0.135635 0.859545 0.270211
O O4 0.000000 0.849180 0.271727
O O5 0.500000 0.500000 0.274376
O O6 0.420268 0.500000 0.500000
O O7 0.382466 0.461023 0.254128
O O8 0.500000 0.775046 0.780162
O O9 0.364483 0.786526 0.775327
O O10 0.423962 0.753728 0.000000
O O11 0.279282 0.500000 0.201695
O O12 0.274151 0.415344 0.252522
O O13 0.317816 0.447461 0.000000
O O14 0.213259 0.128935 0.500000
O O15 0.255402 0.167316 0.258442
O O16 0.250000 0.250000 0.221091
O O17 0.216339 0.297567 0.000000
#
# Coordination Sequence:
#
# PCOD9485466 Si02
#       6
#    16   8  16  16  16  16
#     4   9  18  30  42  60  88 121 157 196 237 279
#     4   9  17  31  51  71  93 123 158 199 246 289
#     4   9  17  30  47  65  88 123 162 196 233 278
#     4   9  20  35  50  66  89 120 156 200 243 286
#     4  11  21  31  48  70  93 123 160 201 244 291
#     4  10  19  31  47  68  96 126 158 198 241 283
#
# _framework density 15.212332999999999
#
# number of rings (size 3 to 8) (size 9 to 14) (size 15 to 20)
#    0.545    1.909    1.818    1.091    0.000    3.273 
#    0.000    1.818    0.000    0.000    0.000    0.000 
#    0.000    0.727    0.000    8.364    0.000    2.364 
#
# Total GULP energy -244989.263074 kJ/mol
# GULP energy per Si atom -5567.937797 kJ/mol
# Density = 1.517771 g / cm^3
# Si number density = 15.212333 Si / 1000 Ang^3
#
#
#
# Elastic Constant Matrix: (Units=GPa)
#
#
# Indices 1 2 3 4 5 6 
#
# 1 75.7088 44.4185 23.5928 0.0000 0.0000 0.0000
# 2 44.4185 98.8845 35.6332 0.0000 0.0000 0.0000
# 3 23.5928 35.6332 29.2206 0.0000 0.0000 0.0000
# 4 0.0000 0.0000 0.0000 20.6776 0.0000 0.0000
# 5 0.0000 0.0000 0.0000 0.0000 18.2781 0.0000
# 6 0.0000 0.0000 0.0000 0.0000 0.0000 17.5739
#
#
#
# Elastic Compliance Matrix: (Units=1/GPa)
#
#
# Indices 1 2 3 4 5 6 
#
# 1 0.019142 -0.005404 -0.008866 0.000000 0.000000 0.000000
# 2 -0.005404 0.019566 -0.019497 0.000000 0.000000 0.000000
# 3 -0.008866 -0.019497 0.065156 0.000000 0.000000 0.000000
# 4 0.000000 0.000000 0.000000 0.048361 0.000000 0.000000
# 5 0.000000 0.000000 0.000000 0.000000 0.054710 0.000000
# 6 0.000000 0.000000 0.000000 0.000000 0.000000 0.056903
#
#
# Mechanical properties :
#
#
# Convention : Reuss Voigt Hill
#
# Bulk Modulus (GPa) = 27.52424 45.67811 36.60118
# Shear Modulus (GPa) = 14.55689 17.98387 16.27038
#
# Velocity S-wave (km/s) = 3.09676 3.44203 3.27395
# Velocity P-wave (km/s) = 5.56050 6.77414 6.19710
#
# Compressibility (1/GPa) = 0.03633161
#
# Stress axis : x y z
#
# Youngs Moduli (GPa) = 52.24248 51.10963 15.34777
#
# Poissons Ratio (x) = 0.27618 0.13607
# Poissons Ratio (y) = 0.28230 0.29923
# Poissons Ratio (z) = 0.46316 0.99647
#
# Static dielectric constant tensor:
#      x y z
#    x 1.518170 0.000000 0.000000 
#    y 0.000000 1.501950 0.000000 
#    z 0.000000 0.000000 1.506570 
# 
# From -- ./inp_files/12668.got.cif
#   From: 2010.05.17/outbox.cif.g08.bks.cpg/sg65_7_cif.got.tgz:12668.got - 2010.06.03 17:01:31.
