data_PCOD9485103
_publ_section_title
;
Structure prediction by ZEFSAII (Michael W. Deem and Ramdas Pophale) SiO2 
 PCOD9485103
Probable space group: C M M M
;
_chemical_formula_sum "Si O2"
_cell_formula_units_Z 96
_cell_length_a 28.355062
_cell_length_b 23.098597
_cell_length_c 7.935470
_cell_angle_alpha 90.000000
_cell_angle_beta 90.000000
_cell_angle_gamma 90.000000
_cell_volume 5197.432493
_symmetry_space_group_name_H-M "C M M M"
_symmetry_group_IT_number 65
_symmetry_cell_setting 'orthorhombic'
loop_
_space_group_symop_operation_xyz
x,y,z
-x,-y,z
x,-y,-z
-x,y,-z
-x,-y,-z
x,y,-z
-x,y,z
x,-y,z
1/2+x,1/2+y,z
1/2-x,1/2-y,z
1/2+x,1/2-y,-z
1/2-x,1/2+y,-z
1/2-x,1/2-y,-z
1/2+x,1/2+y,-z
1/2-x,1/2+y,z
1/2+x,1/2-y,z
loop_
_atom_site_type_symbol
_atom_site_label
_atom_site_fract_x
_atom_site_fract_y
_atom_site_fract_z
Si Si1 0.399612 0.124947 0.798011
Si Si2 0.225263 0.500000 0.707795
Si Si3 0.883646 0.500000 0.300424
Si Si4 0.696511 0.181141 0.801547
Si Si5 0.281446 0.611987 0.306144
Si Si6 0.552622 0.757434 0.204037
Si Si7 0.648270 0.700683 0.701685
O O1 0.346672 0.140880 0.739562
O O2 0.432752 0.177466 0.738400
O O3 0.409354 0.059118 0.751303
O O4 0.399009 0.128724 0.000000
O O5 0.223473 0.500000 0.500000
O O6 0.170706 0.500000 0.766926
O O7 0.254307 0.443537 0.766423
O O8 0.880154 0.500000 0.500000
O O9 0.743086 0.163463 0.704074
O O10 0.677727 0.245869 0.778070
O O11 0.704917 0.171278 0.000000
O O12 0.291258 0.596690 0.500000
O O13 0.328994 0.640602 0.234546
O O14 0.500000 0.743106 0.262153
O O15 0.593957 0.714123 0.258419
O O16 0.552647 0.758113 0.000000
O O17 0.654207 0.702571 0.500000
#
# Coordination Sequence:
#
# PCOD9485103 Si02
#       7
#    16   8   8  16  16  16  16
#     4   9  18  31  47  68  94 124 160 202 241 280
#     4   9  18  31  47  66  95 136 172 198 227 269
#     4  11  19  29  48  68  91 131 173 201 232 274
#     4  10  19  30  46  68  97 131 165 199 236 281
#     4  10  19  32  47  68  98 131 165 198 235 280
#     4   9  19  37  57  74  93 120 156 199 249 299
#     4  10  20  31  48  73  99 125 155 196 245 292
#
# _framework density 18.470658
#
# number of rings (size 3 to 8) (size 9 to 14) (size 15 to 20)
#    0.000    2.333    1.667    2.750    0.000    6.333 
#    0.000    0.833    0.000    2.500    0.000    0.583 
#    0.000    4.667    0.000    0.000    0.000    0.000 
#
# Total GULP energy -267610.046724 kJ/mol
# GULP energy per Si atom -5575.209307 kJ/mol
# Density = 1.842862 g / cm^3
# Si number density = 18.470658 Si / 1000 Ang^3
#
#
#
# Elastic Constant Matrix: (Units=GPa)
#
#
# Indices 1 2 3 4 5 6 
#
# 1 88.8864 27.6382 2.1025 0.0000 0.0000 0.0000
# 2 27.6382 31.3352 -1.5039 0.0000 0.0000 0.0000
# 3 2.1025 -1.5039 19.9240 0.0000 0.0000 0.0000
# 4 0.0000 0.0000 0.0000 11.6971 0.0000 0.0000
# 5 0.0000 0.0000 0.0000 0.0000 17.3189 0.0000
# 6 0.0000 0.0000 0.0000 0.0000 0.0000 11.8628
#
#
#
# Elastic Compliance Matrix: (Units=1/GPa)
#
#
# Indices 1 2 3 4 5 6 
#
# 1 0.015645 -0.013929 -0.002702 0.000000 0.000000 0.000000
# 2 -0.013929 0.044430 0.004823 0.000000 0.000000 0.000000
# 3 -0.002702 0.004823 0.050840 0.000000 0.000000 0.000000
# 4 0.000000 0.000000 0.000000 0.085491 0.000000 0.000000
# 5 0.000000 0.000000 0.000000 0.000000 0.057740 0.000000
# 6 0.000000 0.000000 0.000000 0.000000 0.000000 0.084297
#
#
# Mechanical properties :
#
#
# Convention : Reuss Voigt Hill
#
# Bulk Modulus (GPa) = 11.45483 21.84659 16.65071
# Shear Modulus (GPa) = 12.78248 15.63634 14.20941
#
# Velocity S-wave (km/s) = 2.63352 2.91271 2.77663
# Velocity P-wave (km/s) = 3.93222 4.81303 4.39475
#
# Compressibility (1/GPa) = 0.08729939
#
# Stress axis : x y z
#
# Youngs Moduli (GPa) = 63.91683 22.50723 19.66959
#
# Poissons Ratio (x) = 0.31351 0.05315
# Poissons Ratio (y) = 0.89031 -0.09488
# Poissons Ratio (z) = 0.17273 -0.10856
#
# Static dielectric constant tensor:
#      x y z
#    x 1.650210 0.000000 0.000000 
#    y 0.000000 1.672820 0.000000 
#    z 0.000000 0.000000 1.670600 
# 
# From -- ./inp_files/16707.got.cif
#   From: 2010.05.17/outbox.cif.g08.bks.cpg/sg65_9_cif.got.tgz:16707.got - 2010.06.03 17:01:31.
