data_PCOD9485484
_publ_section_title
;
Structure prediction by ZEFSAII (Michael W. Deem and Ramdas Pophale) SiO2 
 PCOD9485484
Probable space group: C M M M
;
_chemical_formula_sum "Si O2"
_cell_formula_units_Z 104
_cell_length_a 24.611409
_cell_length_b 8.437497
_cell_length_c 29.557706
_cell_angle_alpha 90.000000
_cell_angle_beta 90.000000
_cell_angle_gamma 90.000000
_cell_volume 6137.914496
_symmetry_space_group_name_H-M "C M M M"
_symmetry_group_IT_number 65
_symmetry_cell_setting 'orthorhombic'
loop_
_space_group_symop_operation_xyz
x,y,z
-x,-y,z
x,-y,-z
-x,y,-z
-x,-y,-z
x,y,-z
-x,y,z
x,-y,z
1/2+x,1/2+y,z
1/2-x,1/2-y,z
1/2+x,1/2-y,-z
1/2-x,1/2+y,-z
1/2-x,1/2-y,-z
1/2+x,1/2+y,-z
1/2-x,1/2+y,z
1/2+x,1/2-y,z
loop_
_atom_site_type_symbol
_atom_site_label
_atom_site_fract_x
_atom_site_fract_y
_atom_site_fract_z
Si Si1 0.311994 0.809056 0.268443
Si Si2 0.812430 0.690700 0.168437
Si Si3 0.811693 0.808787 0.000000
Si Si4 0.688351 0.190070 0.633737
Si Si5 0.000000 0.309974 0.052807
Si Si6 0.883858 0.809796 0.914403
Si Si7 0.000000 0.180123 0.554703
Si Si8 0.117668 0.191981 0.551669
O O1 0.250000 0.750000 0.269230
O O2 0.332122 0.758201 0.218910
O O3 0.335949 0.758526 0.317107
O O4 0.312457 0.000000 0.268419
O O5 0.810866 0.500000 0.166642
O O6 0.750000 0.750000 0.161616
O O7 0.853685 0.752894 0.130799
O O8 0.750000 0.750000 0.000000
O O9 0.845413 0.756269 0.043960
O O10 0.810418 0.000000 0.000000
O O11 0.750000 0.250000 0.632758
O O12 0.658724 0.256421 0.589951
O O13 0.687603 0.000000 0.631953
O O14 0.055227 0.251990 0.076853
O O15 0.000000 0.500000 0.052678
O O16 0.000000 0.254896 0.000000
O O17 0.885723 0.000000 0.914637
O O18 0.942192 0.254869 0.565463
O O19 0.000000 0.168316 0.500000
O O20 0.000000 0.000000 0.572947
O O21 0.130445 0.242939 0.500000
O O22 0.114731 0.000000 0.550503
#
# Coordination Sequence:
#
# PCOD9485484 Si02
#       8
#    16  16   8  16   8  16   8  16
#     4   8  16  30  48  69  96 128 163 203 246 294
#     4  10  19  33  53  79 106 132 166 209 257 306
#     4  10  22  35  50  73 105 138 164 196 243 292
#     4  10  19  31  47  69  97 130 165 200 243 295
#     4  11  23  39  59  80 101 136 181 218 250 297
#     4  11  22  37  55  77 105 139 172 209 252 296
#     4   7  12  26  47  66  85 114 153 192 233 282
#     4   9  17  30  48  69  93 123 160 203 249 297
#
# _framework density 16.943866
#
# number of rings (size 3 to 8) (size 9 to 14) (size 15 to 20)
#    0.000    2.462    0.769    3.000    0.000    4.615 
#    0.000    0.385    0.000    2.308    0.000    5.385 
#    0.000    0.000    0.000    0.000    0.000    0.000 
#
# Total GULP energy -289563.626930 kJ/mol
# GULP energy per Si atom -5568.531287 kJ/mol
# Density = 1.690530 g / cm^3
# Si number density = 16.943866 Si / 1000 Ang^3
#
#
#
# Elastic Constant Matrix: (Units=GPa)
#
#
# Indices 1 2 3 4 5 6 
#
# 1 112.5612 22.5058 83.7126 0.0000 0.0000 0.0000
# 2 22.5058 29.1076 30.0972 0.0000 0.0000 0.0000
# 3 83.7126 30.0972 176.1241 0.0000 0.0000 0.0000
# 4 0.0000 0.0000 0.0000 18.3232 0.0000 0.0000
# 5 0.0000 0.0000 0.0000 0.0000 -1.2215 0.0000
# 6 0.0000 0.0000 0.0000 0.0000 0.0000 20.3987
#
#
#
# Elastic Compliance Matrix: (Units=1/GPa)
#
#
# Indices 1 2 3 4 5 6 
#
# 1 0.014293 -0.004891 -0.005958 0.000000 0.000000 0.000000
# 2 -0.004891 0.043402 -0.005092 0.000000 0.000000 0.000000
# 3 -0.005958 -0.005092 0.009380 0.000000 0.000000 0.000000
# 4 0.000000 0.000000 0.000000 0.054576 0.000000 0.000000
# 5 0.000000 0.000000 0.000000 0.000000 -0.818666 0.000000
# 6 0.000000 0.000000 0.000000 0.000000 0.000000 0.049023
#
#
# Mechanical properties :
#
#
# Convention : Reuss Voigt Hill
#
# Bulk Modulus (GPa) = 28.41450 65.60267 47.00859
# Shear Modulus (GPa) = -8.27293 19.59856 5.66282
#
# Velocity S-wave (km/s) = -2.21205 3.40468 1.83013
# Velocity P-wave (km/s) = 3.20656 7.36597 5.68065
#
# Compressibility (1/GPa) = 0.03519329
#
# Stress axis : x y z
#
# Youngs Moduli (GPa) = 69.96602 23.04027 106.61349
#
# Poissons Ratio (x) = 0.11269 0.63516
# Poissons Ratio (y) = 0.34219 0.54290
# Poissons Ratio (z) = 0.41683 0.11733
#
# Static dielectric constant tensor:
#      x y z
#    x 1.555160 0.000000 0.000000 
#    y 0.000000 1.588530 0.000000 
#    z 0.000000 0.000000 1.605210 
# 
# From -- ./inp_files/75816.got.cif
#   From: 2010.05.17/outbox.cif.g08.bks.cpg/sg65_38_cif.got.tgz:75816.got - 2010.06.03 17:01:31.
