data_PCOD9485549
_publ_section_title
;
Structure prediction by ZEFSAII (Michael W. Deem and Ramdas Pophale) SiO2 
 PCOD9485549
Probable space group: C M M M
;
_chemical_formula_sum "Si O2"
_cell_formula_units_Z 128
_cell_length_a 20.138758
_cell_length_b 20.197592
_cell_length_c 20.319348
_cell_angle_alpha 90.000000
_cell_angle_beta 90.000000
_cell_angle_gamma 90.000000
_cell_volume 8264.984559
_symmetry_space_group_name_H-M "C M M M"
_symmetry_group_IT_number 65
_symmetry_cell_setting 'orthorhombic'
loop_
_space_group_symop_operation_xyz
x,y,z
-x,-y,z
x,-y,-z
-x,y,-z
-x,-y,-z
x,y,-z
-x,y,z
x,-y,z
1/2+x,1/2+y,z
1/2-x,1/2-y,z
1/2+x,1/2-y,-z
1/2-x,1/2+y,-z
1/2-x,1/2-y,-z
1/2+x,1/2+y,-z
1/2-x,1/2+y,z
1/2+x,1/2-y,z
loop_
_atom_site_type_symbol
_atom_site_label
_atom_site_fract_x
_atom_site_fract_y
_atom_site_fract_z
Si Si1 0.922639 0.204461 0.328741
Si Si2 0.821864 0.281772 0.578790
Si Si3 0.243083 0.141727 0.200663
Si Si4 0.164228 0.075369 0.683257
Si Si5 0.922615 0.675846 0.074561
Si Si6 0.222171 0.573971 0.578317
Si Si7 0.302195 0.921671 0.926521
Si Si8 0.860730 0.260879 0.799238
O O1 0.878385 0.242796 0.382516
O O2 0.892496 0.130721 0.320628
O O3 0.909306 0.242221 0.259919
O O4 0.000000 0.203295 0.344933
O O5 0.829514 0.274575 0.500000
O O6 0.750000 0.250000 0.596885
O O7 0.819638 0.360241 0.595055
O O8 0.213933 0.094734 0.257087
O O9 0.257113 0.105746 0.131972
O O10 0.188966 0.199343 0.191321
O O11 0.312265 0.177844 0.219713
O O12 0.209153 0.079230 0.617764
O O13 0.140427 0.000000 0.691226
O O14 0.874179 0.612689 0.078950
O O15 0.898072 0.722949 0.133091
O O16 0.000000 0.659537 0.082899
O O17 0.914216 0.703180 0.000000
O O18 0.233881 0.577225 0.500000
O O19 0.194229 0.500000 0.593002
O O20 0.308228 0.000000 0.921107
O O21 0.276501 0.905230 0.000000
#
# Coordination Sequence:
#
# PCOD9485549 Si02
#       8
#    16  16  16  16  16  16  16  16
#     4  11  22  33  49  72 100 131 161 197 243 292
#     4  10  19  33  54  76  99 128 164 204 237 278
#     4   9  17  29  47  69  88 117 154 197 240 283
#     4  10  19  31  48  69  96 127 160 195 234 286
#     4   9  17  29  44  62  87 120 155 189 230 283
#     4   9  17  30  51  77  99 122 157 200 241 277
#     4   9  17  28  42  63  91 119 149 189 235 281
#     4   9  18  30  47  68  92 117 153 199 242 283
#
# _framework density 15.487022
#
# number of rings (size 3 to 8) (size 9 to 14) (size 15 to 20)
#    0.000    2.500    1.250    1.500    1.750    1.250 
#    0.000    3.750    0.000    0.375    0.000    4.375 
#    0.000    0.000    0.000   23.250    0.000    0.500 
#
# Total GULP energy -356494.166127 kJ/mol
# GULP energy per Si atom -5570.221346 kJ/mol
# Density = 1.545177 g / cm^3
# Si number density = 15.487022 Si / 1000 Ang^3
#
#
#
# Elastic Constant Matrix: (Units=GPa)
#
#
# Indices 1 2 3 4 5 6 
#
# 1 89.6300 40.1532 44.3705 0.0000 0.0000 0.0000
# 2 40.1532 104.0643 45.3483 0.0000 0.0000 0.0000
# 3 44.3705 45.3483 56.9687 0.0000 0.0000 0.0000
# 4 0.0000 0.0000 0.0000 22.8067 0.0000 0.0000
# 5 0.0000 0.0000 0.0000 0.0000 17.6331 0.0000
# 6 0.0000 0.0000 0.0000 0.0000 0.0000 8.1165
#
#
#
# Elastic Compliance Matrix: (Units=1/GPa)
#
#
# Indices 1 2 3 4 5 6 
#
# 1 0.018272 -0.001299 -0.013197 0.000000 0.000000 0.000000
# 2 -0.001299 0.014806 -0.010774 0.000000 0.000000 0.000000
# 3 -0.013197 -0.010774 0.036408 0.000000 0.000000 0.000000
# 4 0.000000 0.000000 0.000000 0.043847 0.000000 0.000000
# 5 0.000000 0.000000 0.000000 0.000000 0.056712 0.000000
# 6 0.000000 0.000000 0.000000 0.000000 0.000000 0.123206
#
#
# Mechanical properties :
#
#
# Convention : Reuss Voigt Hill
#
# Bulk Modulus (GPa) = 52.78195 56.71190 54.74692
# Shear Modulus (GPa) = 14.28140 17.76399 16.02270
#
# Velocity S-wave (km/s) = 3.03999 3.39045 3.21999
# Velocity P-wave (km/s) = 6.81744 7.21286 7.01793
#
# Compressibility (1/GPa) = 0.01894587
#
# Stress axis : x y z
#
# Youngs Moduli (GPa) = 54.72809 67.54187 27.46648
#
# Poissons Ratio (x) = 0.08777 0.36248
# Poissons Ratio (y) = 0.07111 0.29591
# Poissons Ratio (z) = 0.72225 0.72766
#
# Static dielectric constant tensor:
#      x y z
#    x 1.480470 0.000000 0.000000 
#    y 0.000000 1.527200 0.000000 
#    z 0.000000 0.000000 1.526210 
# 
# From -- ./inp_files/64110.got.cif
#   From: 2010.05.17/outbox.cif.g08.bks.cpg/sg65_33_cif.got.tgz:64110.got - 2010.06.03 17:01:31.
