data_PCOD9485028
_publ_section_title
;
Structure prediction by ZEFSAII (Michael W. Deem and Ramdas Pophale) SiO2 
 PCOD9485028
Probable space group: C M M M
;
_chemical_formula_sum "Si O2"
_cell_formula_units_Z 88
_cell_length_a 21.012333
_cell_length_b 32.122210
_cell_length_c 7.509420
_cell_angle_alpha 90.000000
_cell_angle_beta 90.000000
_cell_angle_gamma 90.000000
_cell_volume 5068.577447
_symmetry_space_group_name_H-M "C M M M"
_symmetry_group_IT_number 65
_symmetry_cell_setting 'orthorhombic'
loop_
_space_group_symop_operation_xyz
x,y,z
-x,-y,z
x,-y,-z
-x,y,-z
-x,-y,-z
x,y,-z
-x,y,z
x,-y,z
1/2+x,1/2+y,z
1/2-x,1/2-y,z
1/2+x,1/2-y,-z
1/2-x,1/2+y,-z
1/2-x,1/2-y,-z
1/2+x,1/2+y,-z
1/2-x,1/2+y,z
1/2+x,1/2-y,z
loop_
_atom_site_type_symbol
_atom_site_label
_atom_site_fract_x
_atom_site_fract_y
_atom_site_fract_z
Si Si1 0.705916 0.364723 0.714000
Si Si2 0.174020 0.952493 0.712477
Si Si3 0.569440 0.768011 0.787670
Si Si4 0.706433 0.787528 0.209676
Si Si5 0.930390 0.950320 0.000000
Si Si6 0.429666 0.330552 0.285893
O O1 0.704513 0.361861 0.500000
O O2 0.718568 0.413159 0.758436
O O3 0.756669 0.330837 0.774448
O O4 0.635165 0.351856 0.780365
O O5 0.162434 0.951505 0.500000
O O6 0.110452 0.942621 0.823152
O O7 0.194354 0.000000 0.757452
O O8 0.500000 0.780857 0.714971
O O9 0.634734 0.787657 0.716101
O O10 0.575274 0.718414 0.757448
O O11 0.567075 0.775411 0.000000
O O12 0.750000 0.750000 0.285180
O O13 0.699227 0.778157 0.000000
O O14 0.000000 0.931259 0.000000
O O15 0.937287 0.000000 0.000000
O O16 0.429930 0.335307 0.500000
O O17 0.500000 0.344478 0.222145
#
# Coordination Sequence:
#
# PCOD9485028 Si02
#       6
#    16  16  16  16   8  16
#     4  10  20  31  47  68  89 120 158 196 241 287
#     4   9  19  35  51  68  94 126 160 204 253 296
#     4   9  17  30  45  61  86 121 156 185 222 273
#     4  10  19  30  45  67  94 121 151 191 234 277
#     4   9  18  32  50  72  93 122 167 209 250 297
#     4   9  17  28  41  59  85 116 152 192 228 266
#
# _framework density 17.361872999999999
#
# number of rings (size 3 to 8) (size 9 to 14) (size 15 to 20)
#    0.000    2.636    1.818    0.000    1.273    2.182 
#    0.000    3.636    0.000    0.000    0.000    0.000 
#    0.000    0.727    0.000    9.091    0.000    0.000 
#
# Total GULP energy -245039.025817 kJ/mol
# GULP energy per Si atom -5569.068769 kJ/mol
# Density = 1.732236 g / cm^3
# Si number density = 17.361873 Si / 1000 Ang^3
#
#
#
# Elastic Constant Matrix: (Units=GPa)
#
#
# Indices 1 2 3 4 5 6 
#
# 1 139.2649 71.4092 9.4761 0.0000 0.0000 0.0000
# 2 71.4092 97.6609 3.1818 0.0000 0.0000 0.0000
# 3 9.4761 3.1818 40.8597 0.0000 0.0000 0.0000
# 4 0.0000 0.0000 0.0000 43.0629 0.0000 0.0000
# 5 0.0000 0.0000 0.0000 0.0000 79.5551 0.0000
# 6 0.0000 0.0000 0.0000 0.0000 0.0000 16.1763
#
#
#
# Elastic Compliance Matrix: (Units=1/GPa)
#
#
# Indices 1 2 3 4 5 6 
#
# 1 0.011655 -0.008456 -0.002045 0.000000 0.000000 0.000000
# 2 -0.008456 0.016400 0.000684 0.000000 0.000000 0.000000
# 3 -0.002045 0.000684 0.024895 0.000000 0.000000 0.000000
# 4 0.000000 0.000000 0.000000 0.023222 0.000000 0.000000
# 5 0.000000 0.000000 0.000000 0.000000 0.012570 0.000000
# 6 0.000000 0.000000 0.000000 0.000000 0.000000 0.061819
#
#
# Mechanical properties :
#
#
# Convention : Reuss Voigt Hill
#
# Bulk Modulus (GPa) = 30.01428 49.54663 39.78046
# Shear Modulus (GPa) = 27.57861 40.67341 34.12601
#
# Velocity S-wave (km/s) = 3.98987 4.84538 4.43829
# Velocity P-wave (km/s) = 6.20890 7.73971 7.01618
#
# Compressibility (1/GPa) = 0.03331748
#
# Stress axis : x y z
#
# Youngs Moduli (GPa) = 85.79656 60.97528 40.16885
#
# Poissons Ratio (x) = 0.51560 0.08213
# Poissons Ratio (y) = 0.72548 -0.02747
# Poissons Ratio (z) = 0.17542 -0.04171
#
# Static dielectric constant tensor:
#      x y z
#    x 1.623520 0.000000 0.000000 
#    y 0.000000 1.596310 0.000000 
#    z 0.000000 0.000000 1.681230 
# 
# From -- ./inp_files/12659.got.cif
#   From: 2010.05.17/outbox.cif.g08.bks.cpg/sg65_7_cif.got.tgz:12659.got - 2010.06.03 17:01:31.
