data_PCOD9485297
_publ_section_title
;
Structure prediction by ZEFSAII (Michael W. Deem and Ramdas Pophale) SiO2 
 PCOD9485297
Probable space group: C M M M
;
_chemical_formula_sum "Si O2"
_cell_formula_units_Z 88
_cell_length_a 15.878430
_cell_length_b 10.745410
_cell_length_c 26.223854
_cell_angle_alpha 90.000000
_cell_angle_beta 90.000000
_cell_angle_gamma 90.000000
_cell_volume 4474.320276
_symmetry_space_group_name_H-M "C M M M"
_symmetry_group_IT_number 65
_symmetry_cell_setting 'orthorhombic'
loop_
_space_group_symop_operation_xyz
x,y,z
-x,-y,z
x,-y,-z
-x,y,-z
-x,-y,-z
x,y,-z
-x,y,z
x,-y,z
1/2+x,1/2+y,z
1/2-x,1/2-y,z
1/2+x,1/2-y,-z
1/2-x,1/2+y,-z
1/2-x,1/2-y,-z
1/2+x,1/2+y,-z
1/2-x,1/2+y,z
1/2+x,1/2-y,z
loop_
_atom_site_type_symbol
_atom_site_label
_atom_site_fract_x
_atom_site_fract_y
_atom_site_fract_z
Si Si1 0.601868 0.000000 0.884478
Si Si2 0.603042 0.251414 0.058958
Si Si3 0.350509 0.750580 0.711880
Si Si4 0.601718 0.500000 0.117269
Si Si5 0.851601 0.000000 0.764371
Si Si6 0.179760 0.355226 0.500000
Si Si7 0.399780 0.139671 0.390009
Si Si8 0.351375 0.000000 0.233788
O O1 0.630672 0.874760 0.913015
O O2 0.500000 0.000000 0.885987
O O3 0.628927 0.000000 0.825889
O O4 0.500000 0.251524 0.059323
O O5 0.631089 0.374905 0.088796
O O6 0.629271 0.253660 0.000000
O O7 0.250000 0.750000 0.719584
O O8 0.384059 0.624619 0.736949
O O9 0.366628 0.764607 0.651820
O O10 0.384720 0.874514 0.739575
O O11 0.500000 0.500000 0.114848
O O12 0.627148 0.500000 0.176112
O O13 0.749898 0.000000 0.759902
O O14 0.210024 0.500000 0.500000
O O15 0.250000 0.250000 0.500000
O O16 0.127569 0.338256 0.447998
O O17 0.500000 0.139587 0.387424
O O18 0.368625 0.000000 0.375967
#
# Coordination Sequence:
#
# PCOD9485297 Si02
#       8
#     8  16  16   8   8   8  16   8
#     4  10  19  30  50  76  99 127 168 219 268 317
#     4   9  17  30  49  73  99 128 166 214 265 319
#     4  10  20  36  55  78 107 144 188 223 267 331
#     4  10  19  32  50  72  97 131 174 213 260 323
#     4  10  22  35  53  76 107 144 176 223 271 319
#     4  10  21  39  63  89 117 154 194 230 270 324
#     4  10  20  36  60  88 115 146 187 235 279 319
#     4  10  20  35  53  74 105 142 178 219 267 327
#
# _framework density 19.667791999999999
#
# number of rings (size 3 to 8) (size 9 to 14) (size 15 to 20)
#    0.000    2.182    0.909    2.455    0.000    4.727 
#    1.636    0.000    0.000    3.818    0.000    0.000 
#    0.000    0.000    0.000    0.000    0.000    0.000 
#
# Total GULP energy -245665.374592 kJ/mol
# GULP energy per Si atom -5583.303968 kJ/mol
# Density = 1.962303 g / cm^3
# Si number density = 19.667792 Si / 1000 Ang^3
#
#
#
# Elastic Constant Matrix: (Units=GPa)
#
#
# Indices 1 2 3 4 5 6 
#
# 1 10.0455 17.3066 -8.3051 0.0000 0.0000 0.0000
# 2 17.3066 185.4793 105.1936 0.0000 0.0000 0.0000
# 3 -8.3051 105.1936 168.0701 0.0000 0.0000 0.0000
# 4 0.0000 0.0000 0.0000 -4.3495 0.0000 0.0000
# 5 0.0000 0.0000 0.0000 0.0000 34.5288 0.0000
# 6 0.0000 0.0000 0.0000 0.0000 0.0000 5.1388
#
#
#
# Elastic Compliance Matrix: (Units=1/GPa)
#
#
# Indices 1 2 3 4 5 6 
#
# 1 0.185122 -0.034822 0.030943 0.000000 0.000000 0.000000
# 2 -0.034822 0.014909 -0.011052 0.000000 0.000000 0.000000
# 3 0.030943 -0.011052 0.014396 0.000000 0.000000 0.000000
# 4 0.000000 0.000000 0.000000 -0.229911 0.000000 0.000000
# 5 0.000000 0.000000 0.000000 0.000000 0.028961 0.000000
# 6 0.000000 0.000000 0.000000 0.000000 0.000000 0.194599
#
#
# Mechanical properties :
#
#
# Convention : Reuss Voigt Hill
#
# Bulk Modulus (GPa) = 5.41818 65.77612 35.59715
# Shear Modulus (GPa) = 16.69672 23.69027 20.19349
#
# Velocity S-wave (km/s) = 2.91681 3.47439 3.20774
# Velocity P-wave (km/s) = 3.75560 7.04353 5.64428
#
# Compressibility (1/GPa) = 0.18456380
#
# Stress axis : x y z
#
# Youngs Moduli (GPa) = 5.40184 67.07518 69.46272
#
# Poissons Ratio (x) = 2.33571 -2.14936
# Poissons Ratio (y) = 0.18810 0.76770
# Poissons Ratio (z) = -0.16715 0.74131
#
# Static dielectric constant tensor:
#      x y z
#    x 1.686110 0.000000 0.000000 
#    y 0.000000 1.700950 0.000000 
#    z 0.000000 0.000000 1.665430 
# 
# From -- ./inp_files/71140.got.cif
#   From: 2010.05.17/outbox.cif.g08.bks.cpg/sg65_36_cif.got.tgz:71140.got - 2010.06.03 17:01:31.
