data_PCOD9485852
_publ_section_title
;
Structure prediction by ZEFSAII (Michael W. Deem and Ramdas Pophale) SiO2 
 PCOD9485852
Probable space group: C M M M
;
_chemical_formula_sum "Si O2"
_cell_formula_units_Z 104
_cell_length_a 9.105278
_cell_length_b 28.501284
_cell_length_c 24.147837
_cell_angle_alpha 90.000000
_cell_angle_beta 90.000000
_cell_angle_gamma 90.000000
_cell_volume 6266.656233
_symmetry_space_group_name_H-M "C M M M"
_symmetry_group_IT_number 65
_symmetry_cell_setting 'orthorhombic'
loop_
_space_group_symop_operation_xyz
x,y,z
-x,-y,z
x,-y,-z
-x,y,-z
-x,-y,-z
x,y,-z
-x,y,z
x,-y,z
1/2+x,1/2+y,z
1/2-x,1/2-y,z
1/2+x,1/2-y,-z
1/2-x,1/2+y,-z
1/2-x,1/2-y,-z
1/2+x,1/2+y,-z
1/2-x,1/2+y,z
1/2+x,1/2-y,z
loop_
_atom_site_type_symbol
_atom_site_label
_atom_site_fract_x
_atom_site_fract_y
_atom_site_fract_z
Si Si1 0.164287 0.000000 0.433327
Si Si2 0.675995 0.131722 0.840774
Si Si3 0.823905 0.298753 0.935308
Si Si4 0.169293 0.201473 0.243797
Si Si5 0.822754 0.944729 0.232596
Si Si6 0.167913 0.122484 0.333740
Si Si7 0.674783 0.096177 0.436515
O O1 0.254068 0.046355 0.420125
O O2 0.151899 0.000000 0.500000
O O3 0.000000 0.000000 0.409430
O O4 0.500000 0.127236 0.837082
O O5 0.714108 0.154615 0.900353
O O6 0.738003 0.171350 0.799718
O O7 0.749546 0.083837 0.818211
O O8 0.750000 0.250000 0.915114
O O9 0.000000 0.292822 0.931059
O O10 0.784685 0.304297 0.000000
O O11 0.250000 0.250000 0.252681
O O12 0.166772 0.169950 0.298643
O O13 0.000000 0.207536 0.225212
O O14 0.781474 0.917812 0.289909
O O15 0.000000 0.939937 0.228160
O O16 0.786402 0.000000 0.233769
O O17 0.265110 0.128621 0.388077
O O18 0.000000 0.111045 0.350148
O O19 0.719578 0.107409 0.500000
O O20 0.500000 0.093085 0.435673
#
# Coordination Sequence:
#
# PCOD9485852 Si02
#       7
#     8  16  16  16  16  16  16
#     4   9  17  29  45  63  85 119 157 187 222 275
#     4  10  19  31  50  75 101 131 167 203 242 293
#     4   9  18  31  47  71 103 135 166 202 244 289
#     4  10  20  34  52  74 100 128 159 200 245 290
#     4   9  19  35  52  71  98 130 163 205 250 290
#     4   9  19  33  50  72  95 125 161 194 238 294
#     4  10  20  32  46  68  97 124 154 196 242 285
#
# _framework density 16.595770999999999
#
# number of rings (size 3 to 8) (size 9 to 14) (size 15 to 20)
#    0.000    2.538    0.000    3.000    1.077    7.692 
#    0.000    0.000    0.000    0.923    0.000    3.231 
#    0.000    0.000    0.000    0.000    0.000    0.000 
#
# Total GULP energy -289679.541500 kJ/mol
# GULP energy per Si atom -5570.760413 kJ/mol
# Density = 1.655800 g / cm^3
# Si number density = 16.595771 Si / 1000 Ang^3
#
#
#
# Elastic Constant Matrix: (Units=GPa)
#
#
# Indices 1 2 3 4 5 6 
#
# 1 42.9894 26.7151 28.4409 0.0000 0.0000 0.0000
# 2 26.7151 95.7533 30.5924 0.0000 0.0000 0.0000
# 3 28.4409 30.5924 68.0500 0.0000 0.0000 0.0000
# 4 0.0000 0.0000 0.0000 14.8357 0.0000 0.0000
# 5 0.0000 0.0000 0.0000 0.0000 23.5179 0.0000
# 6 0.0000 0.0000 0.0000 0.0000 0.0000 28.9760
#
#
#
# Elastic Compliance Matrix: (Units=1/GPa)
#
#
# Indices 1 2 3 4 5 6 
#
# 1 0.034799 -0.005911 -0.011886 0.000000 0.000000 0.000000
# 2 -0.005911 0.013199 -0.003463 0.000000 0.000000 0.000000
# 3 -0.011886 -0.003463 0.021220 0.000000 0.000000 0.000000
# 4 0.000000 0.000000 0.000000 0.067405 0.000000 0.000000
# 5 0.000000 0.000000 0.000000 0.000000 0.042521 0.000000
# 6 0.000000 0.000000 0.000000 0.000000 0.000000 0.034511
#
#
# Mechanical properties :
#
#
# Convention : Reuss Voigt Hill
#
# Bulk Modulus (GPa) = 37.45873 42.03217 39.74545
# Shear Modulus (GPa) = 18.86255 21.53554 20.19904
#
# Velocity S-wave (km/s) = 3.37499 3.60620 3.49251
# Velocity P-wave (km/s) = 6.14879 6.53618 6.34544
#
# Compressibility (1/GPa) = 0.02669605
#
# Stress axis : x y z
#
# Youngs Moduli (GPa) = 28.73658 75.76203 47.12568
#
# Poissons Ratio (x) = 0.44785 0.56016
# Poissons Ratio (y) = 0.16987 0.16321
# Poissons Ratio (z) = 0.34158 0.26238
#
# Static dielectric constant tensor:
#      x y z
#    x 1.563270 0.000000 0.000000 
#    y 0.000000 1.568310 0.000000 
#    z 0.000000 0.000000 1.587730 
# 
# From -- ./inp_files/68254.got.cif
#   From: 2010.05.17/outbox.cif.g08.bks.cpg/sg65_35_cif.got.tgz:68254.got - 2010.06.03 17:01:31.
