data_PCOD9485826
_publ_section_title
;
Structure prediction by ZEFSAII (Michael W. Deem and Ramdas Pophale) SiO2 
 PCOD9485826
Probable space group: C M M M
;
_chemical_formula_sum "Si O2"
_cell_formula_units_Z 100
_cell_length_a 19.922468
_cell_length_b 7.348306
_cell_length_c 31.288924
_cell_angle_alpha 90.000000
_cell_angle_beta 90.000000
_cell_angle_gamma 90.000000
_cell_volume 4580.585556
_symmetry_space_group_name_H-M "C M M M"
_symmetry_group_IT_number 65
_symmetry_cell_setting 'orthorhombic'
loop_
_space_group_symop_operation_xyz
x,y,z
-x,-y,z
x,-y,-z
-x,y,-z
-x,-y,-z
x,y,-z
-x,y,z
x,-y,z
1/2+x,1/2+y,z
1/2-x,1/2-y,z
1/2+x,1/2-y,-z
1/2-x,1/2+y,-z
1/2-x,1/2-y,-z
1/2+x,1/2+y,-z
1/2-x,1/2+y,z
1/2+x,1/2-y,z
loop_
_atom_site_type_symbol
_atom_site_label
_atom_site_fract_x
_atom_site_fract_y
_atom_site_fract_z
Si Si1 0.500000 0.000000 0.344927
Si Si2 0.829695 0.217237 0.124722
Si Si3 0.922398 0.222761 0.203719
Si Si4 0.323324 0.284959 0.724692
Si Si5 0.423826 0.278372 0.950968
Si Si6 0.619526 0.721600 0.361582
Si Si7 0.829469 0.783627 0.546285
O O1 0.557055 0.839150 0.347346
O O2 0.750000 0.250000 0.127384
O O3 0.874599 0.281451 0.164672
O O4 0.866551 0.283809 0.081623
O O5 0.836673 0.000000 0.124690
O O6 0.884418 0.286245 0.246625
O O7 0.000000 0.281076 0.200792
O O8 0.923793 0.000000 0.203477
O O9 0.332013 0.500000 0.725073
O O10 0.250000 0.250000 0.743695
O O11 0.326493 0.231202 0.675153
O O12 0.500000 0.225606 0.937922
O O13 0.423264 0.500000 0.951022
O O14 0.413080 0.220913 0.000000
O O15 0.609408 0.500000 0.361601
O O16 0.638731 0.779904 0.409580
O O17 0.853539 0.711704 0.500000
O O18 0.750000 0.750000 0.548336
O O19 0.840001 0.000000 0.545485
#
# Coordination Sequence:
#
# PCOD9485826 Si02
#       7
#     4  16  16  16  16  16  16
#     4  12  26  40  65  88 116 168 198 244 287 370
#     4  10  19  31  50  74 103 137 175 221 271 331
#     4   9  18  33  54  78 103 138 183 226 275 331
#     4  10  21  36  58  83 112 145 181 232 285 340
#     4   8  14  26  46  72  99 130 175 227 270 314
#     4  10  23  41  60  87 122 156 199 246 297 346
#     4   9  18  34  59  88 119 154 195 248 302 353
#
# _framework density 21.831271000000001
#
# number of rings (size 3 to 8) (size 9 to 14) (size 15 to 20)
#    0.000    2.560    0.000    2.160    3.360    2.240 
#    0.000    0.800    0.000    4.800    0.000    1.120 
#    0.000    0.000    0.000    0.000    0.000    0.000 
#
# Total GULP energy -278371.021958 kJ/mol
# GULP energy per Si atom -5567.420439 kJ/mol
# Density = 2.178158 g / cm^3
# Si number density = 21.831271 Si / 1000 Ang^3
#
#
#
# Elastic Constant Matrix: (Units=GPa)
#
#
# Indices 1 2 3 4 5 6 
#
# 1 177.6632 5.9879 90.2557 0.0000 0.0000 0.0000
# 2 5.9879 81.6440 12.3917 0.0000 0.0000 0.0000
# 3 90.2557 12.3917 144.8705 0.0000 0.0000 0.0000
# 4 0.0000 0.0000 0.0000 2.2987 0.0000 0.0000
# 5 0.0000 0.0000 0.0000 0.0000 171.1140 0.0000
# 6 0.0000 0.0000 0.0000 0.0000 0.0000 23.2019
#
#
#
# Elastic Compliance Matrix: (Units=1/GPa)
#
#
# Indices 1 2 3 4 5 6 
#
# 1 0.008238 0.000177 -0.005147 0.000000 0.000000 0.000000
# 2 0.000177 0.012413 -0.001172 0.000000 0.000000 0.000000
# 3 -0.005147 -0.001172 0.010210 0.000000 0.000000 0.000000
# 4 0.000000 0.000000 0.000000 0.435024 0.000000 0.000000
# 5 0.000000 0.000000 0.000000 0.000000 0.005844 0.000000
# 6 0.000000 0.000000 0.000000 0.000000 0.000000 0.043100
#
#
# Mechanical properties :
#
#
# Convention : Reuss Voigt Hill
#
# Bulk Modulus (GPa) = 53.83288 69.04981 61.44134
# Shear Modulus (GPa) = 9.37549 59.02575 34.20062
#
# Velocity S-wave (km/s) = 2.07457 5.20538 3.96231
# Velocity P-wave (km/s) = 5.51821 8.23562 7.00985
#
# Compressibility (1/GPa) = 0.01857601
#
# Stress axis : x y z
#
# Youngs Moduli (GPa) = 121.39585 80.55930 97.94587
#
# Poissons Ratio (x) = -0.01426 0.50415
# Poissons Ratio (y) = -0.02150 0.11480
# Poissons Ratio (z) = 0.62485 0.09442
#
# Static dielectric constant tensor:
#      x y z
#    x 1.771250 0.000000 0.000000 
#    y 0.000000 1.794410 0.000000 
#    z 0.000000 0.000000 1.834880 
# 
# From -- ./inp_files/75508.got.cif
#   From: 2010.05.17/outbox.cif.g08.bks.cpg/sg65_38_cif.got.tgz:75508.got - 2010.06.03 17:01:31.
