data_PCOD9485195
_publ_section_title
;
Structure prediction by ZEFSAII (Michael W. Deem and Ramdas Pophale) SiO2 
 PCOD9485195
Probable space group: C M M M
;
_chemical_formula_sum "Si O2"
_cell_formula_units_Z 88
_cell_length_a 7.573665
_cell_length_b 18.627866
_cell_length_c 29.768024
_cell_angle_alpha 90.000000
_cell_angle_beta 90.000000
_cell_angle_gamma 90.000000
_cell_volume 4199.709046
_symmetry_space_group_name_H-M "C M M M"
_symmetry_group_IT_number 65
_symmetry_cell_setting 'orthorhombic'
loop_
_space_group_symop_operation_xyz
x,y,z
-x,-y,z
x,-y,-z
-x,y,-z
-x,-y,-z
x,y,-z
-x,y,z
x,-y,z
1/2+x,1/2+y,z
1/2-x,1/2-y,z
1/2+x,1/2-y,-z
1/2-x,1/2+y,-z
1/2-x,1/2-y,-z
1/2+x,1/2+y,-z
1/2-x,1/2+y,z
1/2+x,1/2-y,z
loop_
_atom_site_type_symbol
_atom_site_label
_atom_site_fract_x
_atom_site_fract_y
_atom_site_fract_z
Si Si1 0.790631 0.918331 0.500000
Si Si2 0.283749 0.083024 0.773565
Si Si3 0.210363 0.417886 0.597733
Si Si4 0.284671 0.083359 0.050145
Si Si5 0.288049 0.834090 0.315350
Si Si6 0.711736 0.166067 0.137672
O O1 0.739885 0.886087 0.547997
O O2 0.000000 0.923024 0.500000
O O3 0.714743 0.000000 0.500000
O O4 0.500000 0.083994 0.773600
O O5 0.223764 0.124771 0.729042
O O6 0.223627 0.123248 0.818621
O O7 0.230206 0.000000 0.772984
O O8 0.280970 0.500000 0.598759
O O9 0.279875 0.370882 0.638915
O O10 0.000000 0.422977 0.603297
O O11 0.500000 0.085232 0.050003
O O12 0.221440 0.132098 0.091081
O O13 0.235295 0.000000 0.057162
O O14 0.227090 0.105311 0.000000
O O15 0.500000 0.841820 0.315434
O O16 0.250000 0.750000 0.313583
O O17 0.500000 0.157408 0.137204
O O18 0.750000 0.250000 0.141069
#
# Coordination Sequence:
#
# PCOD9485195 Si02
#       6
#     8  16  16  16  16  16
#     4   9  17  29  48  75 102 125 153 195 242 279
#     4   9  17  31  52  74  93 119 161 204 235 273
#     4   9  17  31  51  72  94 124 162 197 229 272
#     4   8  14  26  45  68  92 121 163 209 242 273
#     4  10  20  33  50  72  98 126 155 192 238 284
#     4  10  19  30  47  71  98 127 157 194 242 290
#
# _framework density 20.953831999999998
#
# number of rings (size 3 to 8) (size 9 to 14) (size 15 to 20)
#    0.000    2.818    0.000    2.455    0.000    6.545 
#    0.000    0.455    0.000    4.909    0.000    1.273 
#    0.000    0.000    0.000    0.000    0.000    0.000 
#
# Total GULP energy -245568.577596 kJ/mol
# GULP energy per Si atom -5581.104036 kJ/mol
# Density = 2.090614 g / cm^3
# Si number density = 20.953832 Si / 1000 Ang^3
#
#
#
# Elastic Constant Matrix: (Units=GPa)
#
#
# Indices 1 2 3 4 5 6 
#
# 1 48.1547 -1.1302 8.6288 0.0000 0.0000 0.0000
# 2 -1.1302 153.2165 138.9264 0.0000 0.0000 0.0000
# 3 8.6288 138.9264 258.9389 0.0000 0.0000 0.0000
# 4 0.0000 0.0000 0.0000 15.5340 0.0000 0.0000
# 5 0.0000 0.0000 0.0000 0.0000 -47.3742 0.0000
# 6 0.0000 0.0000 0.0000 0.0000 0.0000 20.3212
#
#
#
# Elastic Compliance Matrix: (Units=1/GPa)
#
#
# Indices 1 2 3 4 5 6 
#
# 1 0.021077 0.001543 -0.001530 0.000000 0.000000 0.000000
# 2 0.001543 0.012823 -0.006931 0.000000 0.000000 0.000000
# 3 -0.001530 -0.006931 0.007632 0.000000 0.000000 0.000000
# 4 0.000000 0.000000 0.000000 0.064375 0.000000 0.000000
# 5 0.000000 0.000000 0.000000 0.000000 -0.021109 0.000000
# 6 0.000000 0.000000 0.000000 0.000000 0.000000 0.049210
#
#
# Mechanical properties :
#
#
# Convention : Reuss Voigt Hill
#
# Bulk Modulus (GPa) = 36.10832 83.68447 59.89639
# Shear Modulus (GPa) = 31.83185 18.62186 25.22685
#
# Velocity S-wave (km/s) = 3.90185 2.98436 3.47353
# Velocity P-wave (km/s) = 6.12935 7.20413 6.68836
#
# Compressibility (1/GPa) = 0.02769445
#
# Stress axis : x y z
#
# Youngs Moduli (GPa) = 47.44554 77.98633 131.03409
#
# Poissons Ratio (x) = -0.12033 0.20051
# Poissons Ratio (y) = -0.07321 0.90821
# Poissons Ratio (z) = 0.07260 0.54053
#
# Static dielectric constant tensor:
#      x y z
#    x 1.795560 0.000000 0.000000 
#    y 0.000000 1.699090 0.000000 
#    z 0.000000 0.000000 1.762300 
# 
# From -- ./inp_files/76670.got.cif
#   From: 2010.05.17/outbox.cif.g08.bks.cpg/sg65_39_cif.got.tgz:76670.got - 2010.06.03 17:01:31.
