data_PCOD9485881
_publ_section_title
;
Structure prediction by ZEFSAII (Michael W. Deem and Ramdas Pophale) SiO2 
 PCOD9485881
Probable space group: C M M M
;
_chemical_formula_sum "Si O2"
_cell_formula_units_Z 88
_cell_length_a 13.078462
_cell_length_b 28.599298
_cell_length_c 12.326354
_cell_angle_alpha 90.000000
_cell_angle_beta 90.000000
_cell_angle_gamma 90.000000
_cell_volume 4610.485749
_symmetry_space_group_name_H-M "C M M M"
_symmetry_group_IT_number 65
_symmetry_cell_setting 'orthorhombic'
loop_
_space_group_symop_operation_xyz
x,y,z
-x,-y,z
x,-y,-z
-x,y,-z
-x,-y,-z
x,y,-z
-x,y,z
x,-y,z
1/2+x,1/2+y,z
1/2-x,1/2-y,z
1/2+x,1/2-y,-z
1/2-x,1/2+y,-z
1/2-x,1/2-y,-z
1/2+x,1/2+y,-z
1/2-x,1/2+y,z
1/2+x,1/2-y,z
loop_
_atom_site_type_symbol
_atom_site_label
_atom_site_fract_x
_atom_site_fract_y
_atom_site_fract_z
Si Si1 0.118472 0.291239 0.116457
Si Si2 0.617234 0.335218 0.683759
Si Si3 0.764573 0.120198 0.123052
Si Si4 0.383470 0.943572 0.740368
Si Si5 0.334903 0.946735 0.500000
Si Si6 0.750000 0.250000 0.699873
Si Si7 0.112879 0.913390 0.500000
O O1 0.180710 0.338908 0.114694
O O2 0.158846 0.263506 0.218623
O O3 0.000000 0.300962 0.126464
O O4 0.135110 0.266378 0.000000
O O5 0.500000 0.317384 0.683877
O O6 0.649304 0.356339 0.800695
O O7 0.700748 0.296101 0.646176
O O8 0.620273 0.378832 0.602429
O O9 0.704621 0.079027 0.185850
O O10 0.796824 0.107923 0.000000
O O11 0.500000 0.932476 0.776320
O O12 0.370678 0.926285 0.615321
O O13 0.372840 0.000000 0.740722
O O14 0.211915 0.945578 0.500000
O O15 0.373070 0.000000 0.500000
O O16 0.000000 0.935785 0.500000
#
# Coordination Sequence:
#
# PCOD9485881 Si02
#       7
#    16  16  16  16   8   8   8
#     4   9  17  29  45  67  98 135 176 219 256 300
#     4  10  21  37  57  80 107 143 184 228 277 329
#     4  10  20  34  53  78 108 145 184 222 269 324
#     4  10  20  34  55  83 114 147 182 223 273 328
#     4  10  19  35  59  85 112 143 183 232 276 318
#     4  10  19  31  50  76 104 136 173 217 272 326
#     4  10  20  37  60  82 107 142 185 228 276 329
#
# _framework density 19.086925000000001
#
# number of rings (size 3 to 8) (size 9 to 14) (size 15 to 20)
#    0.000    2.182    1.818    1.636    0.000    4.182 
#    0.000    0.909    0.000    0.545    0.000    1.273 
#    0.000    0.000    0.000    0.000    0.000    0.000 
#
# Total GULP energy -245080.976709 kJ/mol
# GULP energy per Si atom -5570.022198 kJ/mol
# Density = 1.904348 g / cm^3
# Si number density = 19.086925 Si / 1000 Ang^3
#
#
#
# Elastic Constant Matrix: (Units=GPa)
#
#
# Indices 1 2 3 4 5 6 
#
# 1 76.0430 0.0952 8.8375 0.0000 0.0000 0.0000
# 2 0.0952 30.1504 6.3355 0.0000 0.0000 0.0000
# 3 8.8375 6.3355 77.6168 0.0000 0.0000 0.0000
# 4 0.0000 0.0000 0.0000 4.1030 0.0000 0.0000
# 5 0.0000 0.0000 0.0000 0.0000 -443.6908 0.0000
# 6 0.0000 0.0000 0.0000 0.0000 0.0000 27.9255
#
#
#
# Elastic Compliance Matrix: (Units=1/GPa)
#
#
# Indices 1 2 3 4 5 6 
#
# 1 0.013329 0.000282 -0.001541 0.000000 0.000000 0.000000
# 2 0.000282 0.033752 -0.002787 0.000000 0.000000 0.000000
# 3 -0.001541 -0.002787 0.013287 0.000000 0.000000 0.000000
# 4 0.000000 0.000000 0.000000 0.243721 0.000000 0.000000
# 5 0.000000 0.000000 0.000000 0.000000 -0.002254 0.000000
# 6 0.000000 0.000000 0.000000 0.000000 0.000000 0.035810
#
#
# Mechanical properties :
#
#
# Convention : Reuss Voigt Hill
#
# Bulk Modulus (GPa) = 19.12940 23.81628 21.47284
# Shear Modulus (GPa) = 13.76796 -71.09632 -28.66418
#
# Velocity S-wave (km/s) = 2.68867 -6.10979 -3.87947
# Velocity P-wave (km/s) = 4.43651 6.10474 2.96524
#
# Compressibility (1/GPa) = 0.05227557
#
# Stress axis : x y z
#
# Youngs Moduli (GPa) = 75.02353 29.62804 75.26316
#
# Poissons Ratio (x) = -0.00834 0.11595
# Poissons Ratio (y) = -0.02113 0.20976
# Poissons Ratio (z) = 0.11558 0.08258
#
# Static dielectric constant tensor:
#      x y z
#    x 1.658020 0.000000 0.000000 
#    y 0.000000 1.686600 0.000000 
#    z 0.000000 0.000000 1.747230 
# 
# From -- ./inp_files/23038.got.cif
#   From: 2010.05.17/outbox.cif.g08.bks.cpg/sg65_12_cif.got.tgz:23038.got - 2010.06.03 17:01:31.
