data_PCOD9485971
_publ_section_title
;
Structure prediction by ZEFSAII (Michael W. Deem and Ramdas Pophale) SiO2 
 PCOD9485971
Probable space group: C M M M
;
_chemical_formula_sum "Si O2"
_cell_formula_units_Z 88
_cell_length_a 8.797547
_cell_length_b 18.496235
_cell_length_c 29.710259
_cell_angle_alpha 90.000000
_cell_angle_beta 90.000000
_cell_angle_gamma 90.000000
_cell_volume 4834.497813
_symmetry_space_group_name_H-M "C M M M"
_symmetry_group_IT_number 65
_symmetry_cell_setting 'orthorhombic'
loop_
_space_group_symop_operation_xyz
x,y,z
-x,-y,z
x,-y,-z
-x,y,-z
-x,-y,-z
x,y,-z
-x,y,z
x,-y,z
1/2+x,1/2+y,z
1/2-x,1/2-y,z
1/2+x,1/2-y,-z
1/2-x,1/2+y,-z
1/2-x,1/2-y,-z
1/2+x,1/2+y,-z
1/2-x,1/2+y,z
1/2+x,1/2-y,z
loop_
_atom_site_type_symbol
_atom_site_label
_atom_site_fract_x
_atom_site_fract_y
_atom_site_fract_z
Si Si1 0.183261 0.583868 0.269072
Si Si2 0.816698 0.831084 0.548326
Si Si3 0.817317 0.168980 0.647047
Si Si4 0.824543 0.412104 0.000000
Si Si5 0.682412 0.170019 0.178967
Si Si6 0.181181 0.914271 0.905374
O O1 0.227228 0.500000 0.265795
O O2 0.254690 0.620992 0.312667
O O3 0.228103 0.626300 0.223854
O O4 0.000000 0.587701 0.272588
O O5 0.770616 0.864989 0.500000
O O6 0.750000 0.750000 0.548137
O O7 0.773506 0.861513 0.597302
O O8 0.000000 0.827038 0.548272
O O9 0.750000 0.250000 0.650812
O O10 0.000000 0.173164 0.649556
O O11 0.742855 0.389496 0.045992
O O12 0.820412 0.500000 0.000000
O O13 0.000000 0.389469 0.000000
O O14 0.500000 0.173312 0.177548
O O15 0.750000 0.250000 0.180775
O O16 0.742392 0.128878 0.135032
O O17 0.000000 0.905695 0.903907
O O18 0.215937 0.000000 0.900668
#
# Coordination Sequence:
#
# PCOD9485971 Si02
#       6
#    16  16  16   8  16  16
#     4  10  22  39  57  77 103 136 174 218 266 316
#     4   8  14  25  42  67  99 132 167 208 253 302
#     4  10  19  31  51  78 106 137 173 214 261 312
#     4   9  17  31  54  83 114 149 186 221 259 307
#     4  11  23  39  58  80 107 139 176 217 266 320
#     4  10  20  35  57  85 115 146 182 223 264 307
#
# _framework density 18.202511000000001
#
# number of rings (size 3 to 8) (size 9 to 14) (size 15 to 20)
#    0.000    2.273    0.000    3.000    0.000    6.909 
#    0.000    0.455    0.000    0.545    0.000    3.818 
#    0.000    0.000    0.000    0.000    0.000    0.000 
#
# Total GULP energy -245407.202723 kJ/mol
# GULP energy per Si atom -5577.436426 kJ/mol
# Density = 1.816108 g / cm^3
# Si number density = 18.202511 Si / 1000 Ang^3
#
#
#
# Elastic Constant Matrix: (Units=GPa)
#
#
# Indices 1 2 3 4 5 6 
#
# 1 41.5920 43.9858 62.7767 0.0000 0.0000 0.0000
# 2 43.9858 87.9530 92.4435 0.0000 0.0000 0.0000
# 3 62.7767 92.4435 237.2350 0.0000 0.0000 0.0000
# 4 0.0000 0.0000 0.0000 22.8586 0.0000 0.0000
# 5 0.0000 0.0000 0.0000 0.0000 -8.8730 0.0000
# 6 0.0000 0.0000 0.0000 0.0000 0.0000 22.3304
#
#
#
# Elastic Compliance Matrix: (Units=1/GPa)
#
#
# Indices 1 2 3 4 5 6 
#
# 1 0.056689 -0.021313 -0.006696 0.000000 0.000000 0.000000
# 2 -0.021313 0.027269 -0.004986 0.000000 0.000000 0.000000
# 3 -0.006696 -0.004986 0.007930 0.000000 0.000000 0.000000
# 4 0.000000 0.000000 0.000000 0.043747 0.000000 0.000000
# 5 0.000000 0.000000 0.000000 0.000000 -0.112701 0.000000
# 6 0.000000 0.000000 0.000000 0.000000 0.000000 0.044782
#
#
# Mechanical properties :
#
#
# Convention : Reuss Voigt Hill
#
# Bulk Modulus (GPa) = 38.61246 85.02132 61.81689
# Shear Modulus (GPa) = 35.12742 18.43478 26.78110
#
# Velocity S-wave (km/s) = 4.39773 3.18584 3.83990
# Velocity P-wave (km/s) = 6.85897 7.76806 7.32763
#
# Compressibility (1/GPa) = 0.02589837
#
# Stress axis : x y z
#
# Youngs Moduli (GPa) = 17.64017 36.67154 126.10137
#
# Poissons Ratio (x) = 0.78156 0.84438
# Poissons Ratio (y) = 0.37596 0.62878
# Poissons Ratio (z) = 0.11812 0.18285
#
# Static dielectric constant tensor:
#      x y z
#    x 1.622670 0.000000 0.000000 
#    y 0.000000 1.597550 0.000000 
#    z 0.000000 0.000000 1.645770 
# 
# From -- ./inp_files/76450.got.cif
#   From: 2010.05.17/outbox.cif.g08.bks.cpg/sg65_39_cif.got.tgz:76450.got - 2010.06.03 17:01:31.
