data_PCOD9485080
_publ_section_title
;
Structure prediction by ZEFSAII (Michael W. Deem and Ramdas Pophale) SiO2 
 PCOD9485080
Probable space group: C M M M
;
_chemical_formula_sum "Si O2"
_cell_formula_units_Z 104
_cell_length_a 30.495685
_cell_length_b 15.220914
_cell_length_c 13.548858
_cell_angle_alpha 90.000000
_cell_angle_beta 90.000000
_cell_angle_gamma 90.000000
_cell_volume 6289.003208
_symmetry_space_group_name_H-M "C M M M"
_symmetry_group_IT_number 65
_symmetry_cell_setting 'orthorhombic'
loop_
_space_group_symop_operation_xyz
x,y,z
-x,-y,z
x,-y,-z
-x,y,-z
-x,-y,-z
x,y,-z
-x,y,z
x,-y,z
1/2+x,1/2+y,z
1/2-x,1/2-y,z
1/2+x,1/2-y,-z
1/2-x,1/2+y,-z
1/2-x,1/2-y,-z
1/2+x,1/2+y,-z
1/2-x,1/2+y,z
1/2+x,1/2-y,z
loop_
_atom_site_type_symbol
_atom_site_label
_atom_site_fract_x
_atom_site_fract_y
_atom_site_fract_z
Si Si1 0.000000 0.394079 0.114362
Si Si2 0.184254 0.902926 0.783607
Si Si3 0.250727 0.144911 0.612433
Si Si4 0.405595 0.893909 0.802939
Si Si5 0.660107 0.761635 0.885762
Si Si6 0.851528 0.603995 0.610843
Si Si7 0.225501 0.404922 0.115955
O O1 0.044003 0.371514 0.174321
O O2 0.000000 0.500000 0.107459
O O3 0.000000 0.361594 0.000000
O O4 0.212985 0.889193 0.684702
O O5 0.154014 0.821659 0.814445
O O6 0.223018 0.901090 0.865185
O O7 0.163983 0.000000 0.782704
O O8 0.243200 0.114916 0.500000
O O9 0.250000 0.250000 0.614594
O O10 0.300494 0.117827 0.638824
O O11 0.376935 0.836116 0.877591
O O12 0.385369 0.868095 0.696006
O O13 0.400206 0.000000 0.815569
O O14 0.702847 0.815846 0.849264
O O15 0.664706 0.734410 0.000000
O O16 0.857740 0.642415 0.500000
O O17 0.857925 0.500000 0.603124
O O18 0.209960 0.500000 0.157560
O O19 0.216226 0.406739 0.000000
#
# Coordination Sequence:
#
# PCOD9485080 Si02
#       7
#     8  16  16  16  16  16  16
#     4   9  18  32  49  71  98 122 145 180 233 301
#     4  11  21  31  43  60  88 126 163 197 232 268
#     4  10  19  30  46  67  91 122 161 203 243 280
#     4  10  19  32  51  73  96 121 149 187 241 300
#     4  11  21  31  45  65  89 119 158 200 238 280
#     4   9  17  29  45  66  93 124 157 190 223 268
#     4   9  17  28  42  61  85 114 148 186 229 274
#
# _framework density 16.536802000000002
#
# number of rings (size 3 to 8) (size 9 to 14) (size 15 to 20)
#    0.000    2.077    0.000    5.077    0.000    7.077 
#    0.000    0.385    0.000    2.308    0.000    0.538 
#    0.000    1.846    0.000    0.000    0.000   15.615 
#
# Total GULP energy -289750.486334 kJ/mol
# GULP energy per Si atom -5572.124737 kJ/mol
# Density = 1.649916 g / cm^3
# Si number density = 16.536802 Si / 1000 Ang^3
#
#
#
# Elastic Constant Matrix: (Units=GPa)
#
#
# Indices 1 2 3 4 5 6 
#
# 1 55.9914 9.8319 25.5290 0.0000 0.0000 0.0000
# 2 9.8319 72.5681 22.3757 0.0000 0.0000 0.0000
# 3 25.5290 22.3757 110.0900 0.0000 0.0000 0.0000
# 4 0.0000 0.0000 0.0000 8.5149 0.0000 0.0000
# 5 0.0000 0.0000 0.0000 0.0000 13.6676 0.0000
# 6 0.0000 0.0000 0.0000 0.0000 0.0000 11.9135
#
#
#
# Elastic Compliance Matrix: (Units=1/GPa)
#
#
# Indices 1 2 3 4 5 6 
#
# 1 0.020099 -0.001372 -0.004382 0.000000 0.000000 0.000000
# 2 -0.001372 0.014795 -0.002689 0.000000 0.000000 0.000000
# 3 -0.004382 -0.002689 0.010646 0.000000 0.000000 0.000000
# 4 0.000000 0.000000 0.000000 0.117441 0.000000 0.000000
# 5 0.000000 0.000000 0.000000 0.000000 0.073165 0.000000
# 6 0.000000 0.000000 0.000000 0.000000 0.000000 0.083938
#
#
# Mechanical properties :
#
#
# Convention : Reuss Voigt Hill
#
# Bulk Modulus (GPa) = 34.89866 39.34696 37.12281
# Shear Modulus (GPa) = 14.42910 18.88007 16.65459
#
# Velocity S-wave (km/s) = 2.95709 3.38257 3.17696
# Velocity P-wave (km/s) = 5.72788 6.25307 5.99623
#
# Compressibility (1/GPa) = 0.02865439
#
# Stress axis : x y z
#
# Youngs Moduli (GPa) = 49.75452 67.58966 93.93091
#
# Poissons Ratio (x) = 0.09273 0.41159
# Poissons Ratio (y) = 0.06826 0.25258
# Poissons Ratio (z) = 0.21802 0.18175
#
# Static dielectric constant tensor:
#      x y z
#    x 1.548690 0.000000 0.000000 
#    y 0.000000 1.615990 0.000000 
#    z 0.000000 0.000000 1.633560 
# 
# From -- ./inp_files/47982.got.cif
#   From: 2010.05.17/outbox.cif.g08.bks.cpg/sg65_24_cif.got.tgz:47982.got - 2010.06.03 17:01:31.
