data_PCOD9485587
_publ_section_title
;
Structure prediction by ZEFSAII (Michael W. Deem and Ramdas Pophale) SiO2 
 PCOD9485587
Probable space group: C M M M
;
_chemical_formula_sum "Si O2"
_cell_formula_units_Z 80
_cell_length_a 8.331099
_cell_length_b 19.125308
_cell_length_c 27.438793
_cell_angle_alpha 90.000000
_cell_angle_beta 90.000000
_cell_angle_gamma 90.000000
_cell_volume 4371.955538
_symmetry_space_group_name_H-M "C M M M"
_symmetry_group_IT_number 65
_symmetry_cell_setting 'orthorhombic'
loop_
_space_group_symop_operation_xyz
x,y,z
-x,-y,z
x,-y,-z
-x,y,-z
-x,-y,-z
x,y,-z
-x,y,z
x,-y,z
1/2+x,1/2+y,z
1/2-x,1/2-y,z
1/2+x,1/2-y,-z
1/2-x,1/2+y,-z
1/2-x,1/2-y,-z
1/2+x,1/2+y,-z
1/2-x,1/2+y,z
1/2+x,1/2-y,z
loop_
_atom_site_type_symbol
_atom_site_label
_atom_site_fract_x
_atom_site_fract_y
_atom_site_fract_z
Si Si1 0.308352 0.919864 0.198180
Si Si2 0.306022 0.669250 0.395153
Si Si3 0.193478 0.919404 0.907541
Si Si4 0.305644 0.331050 0.500000
Si Si5 0.192413 0.830075 0.711055
Si Si6 0.305617 0.329574 0.000000
O O1 0.500000 0.920474 0.196527
O O2 0.246085 0.894107 0.145782
O O3 0.253909 0.874278 0.243681
O O4 0.249808 0.000000 0.203760
O O5 0.500000 0.667622 0.395264
O O6 0.250000 0.750000 0.395263
O O7 0.251670 0.638666 0.447532
O O8 0.252996 0.641275 0.342317
O O9 0.000000 0.920581 0.908842
O O10 0.249504 0.000000 0.913488
O O11 0.249701 0.870960 0.951752
O O12 0.500000 0.332277 0.500000
O O13 0.250000 0.250000 0.500000
O O14 0.250000 0.750000 0.715024
O O15 0.000000 0.830488 0.711735
O O16 0.250000 0.250000 0.000000
O O17 0.500000 0.330760 0.000000
#
# Coordination Sequence:
#
# PCOD9485587 Si02
#       6
#    16  16  16   8  16   8
#     4  10  21  36  53  74  99 128 165 207 248 290
#     4   8  14  23  37  59  87 119 153 190 234 284
#     4   9  18  35  57  76  96 127 166 202 235 278
#     4   8  12  20  34  54  83 116 149 187 231 279
#     4  10  19  31  48  71  99 130 163 200 245 295
#     4  10  21  35  53  79 107 132 158 192 236 284
#
# _framework density 18.298446999999999
#
# number of rings (size 3 to 8) (size 9 to 14) (size 15 to 20)
#    0.000    2.800    0.000    1.500    0.000    4.800 
#    0.000    2.000    0.000    3.000    0.000    0.700 
#    0.000    5.600    0.000    0.000    0.000    0.400 
#
# Total GULP energy -222737.484462 kJ/mol
# GULP energy per Si atom -5568.437112 kJ/mol
# Density = 1.825680 g / cm^3
# Si number density = 18.298447 Si / 1000 Ang^3
#
#
#
# Elastic Constant Matrix: (Units=GPa)
#
#
# Indices 1 2 3 4 5 6 
#
# 1 13.5036 8.0514 22.3387 0.0000 0.0000 0.0000
# 2 8.0514 46.4737 78.9511 0.0000 0.0000 0.0000
# 3 22.3387 78.9511 247.2746 0.0000 0.0000 0.0000
# 4 0.0000 0.0000 0.0000 -99.4183 0.0000 0.0000
# 5 0.0000 0.0000 0.0000 0.0000 14.8409 0.0000
# 6 0.0000 0.0000 0.0000 0.0000 0.0000 19.6064
#
#
#
# Elastic Compliance Matrix: (Units=1/GPa)
#
#
# Indices 1 2 3 4 5 6 
#
# 1 0.087368 -0.003776 -0.006687 0.000000 0.000000 0.000000
# 2 -0.003776 0.047187 -0.014725 0.000000 0.000000 0.000000
# 3 -0.006687 -0.014725 0.009350 0.000000 0.000000 0.000000
# 4 0.000000 0.000000 0.000000 -0.010059 0.000000 0.000000
# 5 0.000000 0.000000 0.000000 0.000000 0.067382 0.000000
# 6 0.000000 0.000000 0.000000 0.000000 0.000000 0.051004
#
#
# Mechanical properties :
#
#
# Convention : Reuss Voigt Hill
#
# Bulk Modulus (GPa) = 10.69186 58.43717 34.56452
# Shear Modulus (GPa) = 14.97975 0.19984 7.58979
#
# Velocity S-wave (km/s) = 2.86428 0.33083 2.03882
# Velocity P-wave (km/s) = 4.09812 5.67017 4.94699
#
# Compressibility (1/GPa) = 0.09352907
#
# Stress axis : x y z
#
# Youngs Moduli (GPa) = 11.44581 21.19227 106.95521
#
# Poissons Ratio (x) = 0.08001 0.71525
# Poissons Ratio (y) = 0.04321 1.57492
# Poissons Ratio (z) = 0.07654 0.31206
#
# Static dielectric constant tensor:
#      x y z
#    x 1.636970 0.000000 0.000000 
#    y 0.000000 1.587830 0.000000 
#    z 0.000000 0.000000 1.686840 
# 
# From -- ./inp_files/72910.got.cif
#   From: 2010.05.17/outbox.cif.g08.bks.cpg/sg65_37_cif.got.tgz:72910.got - 2010.06.03 17:01:31.
