data_PCOD9485305
_publ_section_title
;
Structure prediction by ZEFSAII (Michael W. Deem and Ramdas Pophale) SiO2 
 PCOD9485305
Probable space group: C M M M
;
_chemical_formula_sum "Si O2"
_cell_formula_units_Z 88
_cell_length_a 8.300056
_cell_length_b 23.959171
_cell_length_c 24.758201
_cell_angle_alpha 90.000000
_cell_angle_beta 90.000000
_cell_angle_gamma 90.000000
_cell_volume 4923.476781
_symmetry_space_group_name_H-M "C M M M"
_symmetry_group_IT_number 65
_symmetry_cell_setting 'orthorhombic'
loop_
_space_group_symop_operation_xyz
x,y,z
-x,-y,z
x,-y,-z
-x,y,-z
-x,-y,-z
x,y,-z
-x,y,z
x,-y,z
1/2+x,1/2+y,z
1/2-x,1/2-y,z
1/2+x,1/2-y,-z
1/2-x,1/2+y,-z
1/2-x,1/2-y,-z
1/2+x,1/2+y,-z
1/2-x,1/2+y,z
1/2+x,1/2-y,z
loop_
_atom_site_type_symbol
_atom_site_label
_atom_site_fract_x
_atom_site_fract_y
_atom_site_fract_z
Si Si1 0.183209 0.932971 0.368876
Si Si2 0.182125 0.500000 0.191578
Si Si3 0.191564 0.622677 0.940976
Si Si4 0.813772 0.611985 0.261126
Si Si5 0.500000 0.932467 0.438407
Si Si6 0.690360 0.312968 0.165079
Si Si7 0.184303 0.000000 0.078447
O O1 0.207430 0.897747 0.314122
O O2 0.333373 0.917709 0.407708
O O3 0.000000 0.924928 0.389864
O O4 0.199415 0.000000 0.357133
O O5 0.198231 0.445457 0.227582
O O6 0.306222 0.500000 0.143271
O O7 0.000000 0.500000 0.167851
O O8 0.265957 0.652047 0.888667
O O9 0.231447 0.557003 0.939107
O O10 0.000000 0.630102 0.937640
O O11 0.247291 0.644173 0.000000
O O12 0.766638 0.659491 0.218597
O O13 0.000000 0.618853 0.277826
O O14 0.500000 0.911802 0.500000
O O15 0.500000 0.000000 0.440038
O O16 0.500000 0.313957 0.171763
O O17 0.750000 0.250000 0.158196
O O18 0.000000 0.000000 0.060795
#
# Coordination Sequence:
#
# PCOD9485305 Si02
#       7
#    16   8  16  16   8  16   8
#     4  10  19  30  50  80 113 154 201 240 282 337
#     4  10  20  31  55  82 110 146 181 220 278 345
#     4  11  24  42  62  82 108 144 184 228 281 343
#     4  11  20  35  58  83 114 149 185 233 288 341
#     4   9  18  32  48  72 116 164 201 239 281 328
#     4  12  26  43  61  82 109 144 184 232 289 348
#     4  12  23  35  56  87 116 140 177 225 283 338
#
# _framework density 17.873548
#
# number of rings (size 3 to 8) (size 9 to 14) (size 15 to 20)
#    0.000    1.182    3.636    3.818    0.000    4.000 
#    0.000    1.818    0.000    0.000    0.000    0.000 
#    0.000    0.727    0.364    0.000    0.000    0.000 
#
# Total GULP energy -245663.124331 kJ/mol
# GULP energy per Si atom -5583.252826 kJ/mol
# Density = 1.783287 g / cm^3
# Si number density = 17.873548 Si / 1000 Ang^3
#
#
#
# Elastic Constant Matrix: (Units=GPa)
#
#
# Indices 1 2 3 4 5 6 
#
# 1 100.9354 11.2387 45.5027 0.0000 0.0000 0.0000
# 2 11.2387 73.2831 25.2289 0.0000 0.0000 0.0000
# 3 45.5027 25.2289 104.8614 0.0000 0.0000 0.0000
# 4 0.0000 0.0000 0.0000 7.9957 0.0000 0.0000
# 5 0.0000 0.0000 0.0000 0.0000 11.3398 0.0000
# 6 0.0000 0.0000 0.0000 0.0000 0.0000 15.0206
#
#
#
# Elastic Compliance Matrix: (Units=1/GPa)
#
#
# Indices 1 2 3 4 5 6 
#
# 1 0.012317 -0.000053 -0.005332 0.000000 0.000000 0.000000
# 2 -0.000053 0.014878 -0.003556 0.000000 0.000000 0.000000
# 3 -0.005332 -0.003556 0.012706 0.000000 0.000000 0.000000
# 4 0.000000 0.000000 0.000000 0.125067 0.000000 0.000000
# 5 0.000000 0.000000 0.000000 0.000000 0.088185 0.000000
# 6 0.000000 0.000000 0.000000 0.000000 0.000000 0.066575
#
#
# Mechanical properties :
#
#
# Convention : Reuss Voigt Hill
#
# Bulk Modulus (GPa) = 45.41828 49.22450 47.32139
# Shear Modulus (GPa) = 14.49487 20.01189 17.25338
#
# Velocity S-wave (km/s) = 2.85084 3.34973 3.11030
# Velocity P-wave (km/s) = 6.02515 6.52389 6.27947
#
# Compressibility (1/GPa) = 0.02201757
#
# Stress axis : x y z
#
# Youngs Moduli (GPa) = 81.18902 67.21221 78.70469
#
# Poissons Ratio (x) = 0.00359 0.41964
# Poissons Ratio (y) = 0.00433 0.27991
# Poissons Ratio (z) = 0.43289 0.23904
#
# Static dielectric constant tensor:
#      x y z
#    x 1.622770 0.000000 0.000000 
#    y 0.000000 1.573410 0.000000 
#    z 0.000000 0.000000 1.621000 
# 
# From -- ./inp_files/67643.got.cif
#   From: 2010.05.17/outbox.cif.g08.bks.cpg/sg65_34_cif.got.tgz:67643.got - 2010.06.03 17:01:31.
