data_PCOD9485574
_publ_section_title
;
Structure prediction by ZEFSAII (Michael W. Deem and Ramdas Pophale) SiO2 
 PCOD9485574
Probable space group: C M M M
;
_chemical_formula_sum "Si O2"
_cell_formula_units_Z 104
_cell_length_a 24.988045
_cell_length_b 19.167286
_cell_length_c 12.792093
_cell_angle_alpha 90.000000
_cell_angle_beta 90.000000
_cell_angle_gamma 90.000000
_cell_volume 6126.811384
_symmetry_space_group_name_H-M "C M M M"
_symmetry_group_IT_number 65
_symmetry_cell_setting 'orthorhombic'
loop_
_space_group_symop_operation_xyz
x,y,z
-x,-y,z
x,-y,-z
-x,y,-z
-x,-y,-z
x,y,-z
-x,y,z
x,-y,z
1/2+x,1/2+y,z
1/2-x,1/2-y,z
1/2+x,1/2-y,-z
1/2-x,1/2+y,-z
1/2-x,1/2-y,-z
1/2+x,1/2+y,-z
1/2-x,1/2+y,z
1/2+x,1/2-y,z
loop_
_atom_site_type_symbol
_atom_site_label
_atom_site_fract_x
_atom_site_fract_y
_atom_site_fract_z
Si Si1 0.670132 0.800812 0.880957
Si Si2 0.612556 0.082341 0.382254
Si Si3 0.203168 0.200984 0.690173
Si Si4 0.780180 0.582643 0.253137
Si Si5 0.500000 0.422047 0.625750
Si Si6 0.083125 0.194401 0.620439
Si Si7 0.440730 0.181688 0.221747
O O1 0.689305 0.741958 0.798544
O O2 0.698109 0.873264 0.845850
O O3 0.606825 0.810665 0.861277
O O4 0.681988 0.783062 0.000000
O O5 0.606751 0.110521 0.500000
O O6 0.672991 0.092612 0.339896
O O7 0.574335 0.118165 0.298568
O O8 0.602726 0.000000 0.384649
O O9 0.250000 0.250000 0.641509
O O10 0.228293 0.125138 0.710072
O O11 0.147387 0.194240 0.630215
O O12 0.773045 0.500000 0.236274
O O13 0.500000 0.500000 0.670091
O O14 0.500000 0.427754 0.500000
O O15 0.447135 0.376994 0.651093
O O16 0.068704 0.209782 0.500000
O O17 0.062820 0.252392 0.700559
O O18 0.500000 0.175048 0.177752
#
# Coordination Sequence:
#
# PCOD9485574 Si02
#       7
#    16  16  16  16   8  16  16
#     4   9  19  35  51  68  94 124 154 199 253 297
#     4   9  18  31  46  67  99 136 164 189 228 275
#     4   9  19  32  48  73 100 127 162 199 243 299
#     4   9  18  32  49  71  97 125 161 198 232 284
#     4   9  18  32  48  68  96 132 172 207 240 284
#     4  10  19  31  48  71 101 132 163 202 244 284
#     4  10  19  31  49  71  94 121 163 204 238 285
#
# _framework density 16.974571999999998
#
# number of rings (size 3 to 8) (size 9 to 14) (size 15 to 20)
#    0.000    2.692    0.769    1.385    0.000    6.154 
#    0.000    0.769    0.000    0.000    0.000    4.308 
#    0.000    3.077    0.000    0.000    0.000    0.000 
#
# Total GULP energy -289691.983549 kJ/mol
# GULP energy per Si atom -5570.999684 kJ/mol
# Density = 1.693594 g / cm^3
# Si number density = 16.974572 Si / 1000 Ang^3
#
#
#
# Elastic Constant Matrix: (Units=GPa)
#
#
# Indices 1 2 3 4 5 6 
#
# 1 97.5561 22.0317 -8.6427 0.0000 0.0000 0.0000
# 2 22.0317 85.6439 4.5209 0.0000 0.0000 0.0000
# 3 -8.6427 4.5209 31.3497 0.0000 0.0000 0.0000
# 4 0.0000 0.0000 0.0000 10.8798 0.0000 0.0000
# 5 0.0000 0.0000 0.0000 0.0000 2.2336 0.0000
# 6 0.0000 0.0000 0.0000 0.0000 0.0000 22.1208
#
#
#
# Elastic Compliance Matrix: (Units=1/GPa)
#
#
# Indices 1 2 3 4 5 6 
#
# 1 0.011262 -0.003084 0.003549 0.000000 0.000000 0.000000
# 2 -0.003084 0.012611 -0.002669 0.000000 0.000000 0.000000
# 3 0.003549 -0.002669 0.033262 0.000000 0.000000 0.000000
# 4 0.000000 0.000000 0.000000 0.091914 0.000000 0.000000
# 5 0.000000 0.000000 0.000000 0.000000 0.447699 0.000000
# 6 0.000000 0.000000 0.000000 0.000000 0.000000 0.045206
#
#
# Mechanical properties :
#
#
# Convention : Reuss Voigt Hill
#
# Bulk Modulus (GPa) = 18.96590 27.81883 23.39237
# Shear Modulus (GPa) = 7.53084 20.15617 13.84351
#
# Velocity S-wave (km/s) = 2.10860 3.44965 2.85887
# Velocity P-wave (km/s) = 4.13831 5.68251 4.97074
#
# Compressibility (1/GPa) = 0.05272620
#
# Stress axis : x y z
#
# Youngs Moduli (GPa) = 88.79794 79.29849 30.06461
#
# Poissons Ratio (x) = 0.24459 -0.10671
# Poissons Ratio (y) = 0.27388 0.08024
# Poissons Ratio (z) = -0.31518 0.21164
#
# Static dielectric constant tensor:
#      x y z
#    x 1.604450 0.000000 0.000000 
#    y 0.000000 1.579190 0.000000 
#    z 0.000000 0.000000 1.557500 
# 
# From -- ./inp_files/32516.got.cif
#   From: 2010.05.17/outbox.cif.g08.bks.cpg/sg65_17_cif.got.tgz:32516.got - 2010.06.03 17:01:31.
