data_PCOD9485898
_publ_section_title
;
Structure prediction by ZEFSAII (Michael W. Deem and Ramdas Pophale) SiO2 
 PCOD9485898
Probable space group: C M M M
;
_chemical_formula_sum "Si O2"
_cell_formula_units_Z 96
_cell_length_a 20.091897
_cell_length_b 14.210917
_cell_length_c 13.026695
_cell_angle_alpha 90.000000
_cell_angle_beta 90.000000
_cell_angle_gamma 90.000000
_cell_volume 3719.437719
_symmetry_space_group_name_H-M "C M M M"
_symmetry_group_IT_number 65
_symmetry_cell_setting 'orthorhombic'
loop_
_space_group_symop_operation_xyz
x,y,z
-x,-y,z
x,-y,-z
-x,y,-z
-x,-y,-z
x,y,-z
-x,y,z
x,-y,z
1/2+x,1/2+y,z
1/2-x,1/2-y,z
1/2+x,1/2-y,-z
1/2-x,1/2+y,-z
1/2-x,1/2-y,-z
1/2+x,1/2+y,-z
1/2-x,1/2+y,z
1/2+x,1/2-y,z
loop_
_atom_site_type_symbol
_atom_site_label
_atom_site_fract_x
_atom_site_fract_y
_atom_site_fract_z
Si Si1 0.765894 0.890486 0.172143
Si Si2 0.213921 0.388191 0.616351
Si Si3 0.923504 0.899385 0.327785
Si Si4 0.110942 0.396994 0.120845
Si Si5 0.100353 0.188190 0.116398
Si Si6 0.075938 0.307895 0.380701
O O1 0.762433 0.859105 0.291565
O O2 0.691127 0.890146 0.130160
O O3 0.819863 0.826590 0.117268
O O4 0.787395 0.000000 0.165150
O O5 0.223462 0.351686 0.500000
O O6 0.220118 0.500000 0.611203
O O7 0.139026 0.367217 0.656447
O O8 0.922840 0.882546 0.204948
O O9 0.900786 0.800823 0.373799
O O10 0.000000 0.904601 0.361552
O O11 0.891477 0.000000 0.354406
O O12 0.089996 0.500000 0.163402
O O13 0.083942 0.294416 0.153125
O O14 0.094640 0.399485 0.000000
O O15 0.077060 0.172897 0.000000
O O16 0.071501 0.334097 0.500000
O O17 0.000000 0.318453 0.341048
#
# Coordination Sequence:
#
# PCOD9485898 Si02
#       6
#    16  16  16  16  16  16
#     4  10  19  31  50  77 110 145 180 221 270 323
#     4   9  18  33  54  82 117 153 185 223 274 326
#     4  10  22  39  57  79 109 144 183 230 282 331
#     4   9  18  32  51  77 107 137 170 212 266 325
#     4  11  22  36  57  82 108 141 184 232 277 327
#     4   9  18  34  57  83 110 144 187 229 269 320
#
# _framework density 25.810352999999999
#
# number of rings (size 3 to 8) (size 9 to 14) (size 15 to 20)
#    0.000    2.333    0.000    2.500    0.000    4.333 
#    0.000    5.000    0.000    7.500    0.000    2.333 
#    0.000    0.000    0.000   12.000    0.000    0.500 
#
# Total GULP energy -268203.201290 kJ/mol
# GULP energy per Si atom -5587.566694 kJ/mol
# Density = 2.575161 g / cm^3
# Si number density = 25.810353 Si / 1000 Ang^3
#
#
#
# Elastic Constant Matrix: (Units=GPa)
#
#
# Indices 1 2 3 4 5 6 
#
# 1 86.2643 15.1253 14.5696 0.0000 0.0000 0.0000
# 2 15.1253 121.6157 0.5582 0.0000 0.0000 0.0000
# 3 14.5696 0.5582 97.2787 0.0000 0.0000 0.0000
# 4 0.0000 0.0000 0.0000 24.5472 0.0000 0.0000
# 5 0.0000 0.0000 0.0000 0.0000 16.2833 0.0000
# 6 0.0000 0.0000 0.0000 0.0000 0.0000 16.3654
#
#
#
# Elastic Compliance Matrix: (Units=1/GPa)
#
#
# Indices 1 2 3 4 5 6 
#
# 1 0.012162 -0.001504 -0.001813 0.000000 0.000000 0.000000
# 2 -0.001504 0.008409 0.000177 0.000000 0.000000 0.000000
# 3 -0.001813 0.000177 0.010550 0.000000 0.000000 0.000000
# 4 0.000000 0.000000 0.000000 0.040738 0.000000 0.000000
# 5 0.000000 0.000000 0.000000 0.000000 0.061413 0.000000
# 6 0.000000 0.000000 0.000000 0.000000 0.000000 0.061105
#
#
# Mechanical properties :
#
#
# Convention : Reuss Voigt Hill
#
# Bulk Modulus (GPa) = 40.25594 40.62941 40.44267
# Shear Modulus (GPa) = 23.93064 29.76622 26.84843
#
# Velocity S-wave (km/s) = 3.04825 3.39966 3.22874
# Velocity P-wave (km/s) = 5.29337 5.58444 5.44085
#
# Compressibility (1/GPa) = 0.02484106
#
# Stress axis : x y z
#
# Youngs Moduli (GPa) = 82.22173 118.92168 94.78444
#
# Poissons Ratio (x) = 0.17889 0.17184
# Poissons Ratio (y) = 0.12369 -0.01678
# Poissons Ratio (z) = 0.14906 -0.02105
#
# Static dielectric constant tensor:
#      x y z
#    x 2.038210 0.000000 0.000000 
#    y 0.000000 2.028220 0.000000 
#    z 0.000000 0.000000 2.068880 
# 
# From -- ./inp_files/40363.got.cif
#   From: 2010.05.17/outbox.cif.g08.bks.cpg/sg65_21_cif.got.tgz:40363.got - 2010.06.03 17:01:31.
