data_PCOD9485517
_publ_section_title
;
Structure prediction by ZEFSAII (Michael W. Deem and Ramdas Pophale) SiO2 
 PCOD9485517
Probable space group: C M M M
;
_chemical_formula_sum "Si O2"
_cell_formula_units_Z 88
_cell_length_a 16.976235
_cell_length_b 24.252818
_cell_length_c 12.851319
_cell_angle_alpha 90.000000
_cell_angle_beta 90.000000
_cell_angle_gamma 90.000000
_cell_volume 5291.164821
_symmetry_space_group_name_H-M "C M M M"
_symmetry_group_IT_number 65
_symmetry_cell_setting 'orthorhombic'
loop_
_space_group_symop_operation_xyz
x,y,z
-x,-y,z
x,-y,-z
-x,y,-z
-x,-y,-z
x,y,-z
-x,y,z
x,-y,z
1/2+x,1/2+y,z
1/2-x,1/2-y,z
1/2+x,1/2-y,-z
1/2-x,1/2+y,-z
1/2-x,1/2-y,-z
1/2+x,1/2+y,-z
1/2-x,1/2+y,z
1/2+x,1/2-y,z
loop_
_atom_site_type_symbol
_atom_site_label
_atom_site_fract_x
_atom_site_fract_y
_atom_site_fract_z
Si Si1 0.314201 0.627558 0.180923
Si Si2 0.592489 0.434003 0.000000
Si Si3 0.592694 0.269479 0.123312
Si Si4 0.866321 0.357032 0.119743
Si Si5 0.741926 0.565927 0.382984
Si Si6 0.913979 0.565083 0.303274
O O1 0.355765 0.686916 0.186095
O O2 0.227282 0.634967 0.132672
O O3 0.302417 0.598287 0.291832
O O4 0.365720 0.591138 0.101589
O O5 0.599905 0.500000 0.000000
O O6 0.500000 0.419233 0.000000
O O7 0.500000 0.278894 0.139043
O O8 0.612441 0.206027 0.146440
O O9 0.609964 0.278263 0.000000
O O10 0.906409 0.398929 0.199229
O O11 0.889366 0.366559 0.000000
O O12 0.717421 0.580647 0.500000
O O13 0.731144 0.500000 0.369242
O O14 0.835802 0.577064 0.369796
O O15 0.910191 0.500000 0.278010
O O16 0.000000 0.575419 0.352186
#
# Coordination Sequence:
#
# PCOD9485517 Si02
#       6
#    16   8  16  16  16  16
#     4  11  19  33  53  76 102 136 172 216 259 309
#     4  11  22  34  51  78 109 137 167 210 264 314
#     4  10  19  31  50  74 104 138 175 210 250 308
#     4  10  19  31  47  75 107 142 172 210 253 310
#     4   9  19  35  54  76 101 133 176 221 262 306
#     4   9  18  31  48  73 104 138 176 215 258 307
#
# _framework density 16.631499999999999
#
# number of rings (size 3 to 8) (size 9 to 14) (size 15 to 20)
#    0.000    2.091    1.818    2.182    0.000    4.000 
#    0.000    2.727    0.000   10.909    0.000    6.364 
#    0.000    0.000    0.000    0.000    0.000    0.000 
#
# Total GULP energy -245452.612726 kJ/mol
# GULP energy per Si atom -5578.468471 kJ/mol
# Density = 1.659365 g / cm^3
# Si number density = 16.631500 Si / 1000 Ang^3
#
#
#
# Elastic Constant Matrix: (Units=GPa)
#
#
# Indices 1 2 3 4 5 6 
#
# 1 79.6436 22.0509 25.3732 0.0000 0.0000 0.0000
# 2 22.0509 42.5906 37.0047 0.0000 0.0000 0.0000
# 3 25.3732 37.0047 98.4437 0.0000 0.0000 0.0000
# 4 0.0000 0.0000 0.0000 19.5654 0.0000 0.0000
# 5 0.0000 0.0000 0.0000 0.0000 9.8623 0.0000
# 6 0.0000 0.0000 0.0000 0.0000 0.0000 26.1698
#
#
#
# Elastic Compliance Matrix: (Units=1/GPa)
#
#
# Indices 1 2 3 4 5 6 
#
# 1 0.014783 -0.006450 -0.001386 0.000000 0.000000 0.000000
# 2 -0.006450 0.037681 -0.012502 0.000000 0.000000 0.000000
# 3 -0.001386 -0.012502 0.015215 0.000000 0.000000 0.000000
# 4 0.000000 0.000000 0.000000 0.051111 0.000000 0.000000
# 5 0.000000 0.000000 0.000000 0.000000 0.101396 0.000000
# 6 0.000000 0.000000 0.000000 0.000000 0.000000 0.038212
#
#
# Mechanical properties :
#
#
# Convention : Reuss Voigt Hill
#
# Bulk Modulus (GPa) = 37.03163 43.28173 40.15668
# Shear Modulus (GPa) = 16.22991 20.20277 18.21634
#
# Velocity S-wave (km/s) = 3.12725 3.48908 3.31311
# Velocity P-wave (km/s) = 5.94592 6.50477 6.23161
#
# Compressibility (1/GPa) = 0.02700394
#
# Stress axis : x y z
#
# Youngs Moduli (GPa) = 67.64435 26.53880 65.72634
#
# Poissons Ratio (x) = 0.17117 0.09108
# Poissons Ratio (y) = 0.43629 0.82169
# Poissons Ratio (z) = 0.09374 0.33178
#
# Static dielectric constant tensor:
#      x y z
#    x 1.573960 0.000000 0.000000 
#    y 0.000000 1.552040 0.000000 
#    z 0.000000 0.000000 1.529080 
# 
# From -- ./inp_files/40232.got.cif
#   From: 2010.05.17/outbox.cif.g08.bks.cpg/sg65_21_cif.got.tgz:40232.got - 2010.06.03 17:01:31.
