data_PCOD9485560
_publ_section_title
;
Structure prediction by ZEFSAII (Michael W. Deem and Ramdas Pophale) SiO2 
 PCOD9485560
Probable space group: C M M M
;
_chemical_formula_sum "Si O2"
_cell_formula_units_Z 104
_cell_length_a 23.659001
_cell_length_b 28.979350
_cell_length_c 7.415767
_cell_angle_alpha 90.000000
_cell_angle_beta 90.000000
_cell_angle_gamma 90.000000
_cell_volume 5084.416492
_symmetry_space_group_name_H-M "C M M M"
_symmetry_group_IT_number 65
_symmetry_cell_setting 'orthorhombic'
loop_
_space_group_symop_operation_xyz
x,y,z
-x,-y,z
x,-y,-z
-x,y,-z
-x,-y,-z
x,y,-z
-x,y,z
x,-y,z
1/2+x,1/2+y,z
1/2-x,1/2-y,z
1/2+x,1/2-y,-z
1/2-x,1/2+y,-z
1/2-x,1/2-y,-z
1/2+x,1/2+y,-z
1/2-x,1/2+y,z
1/2+x,1/2-y,z
loop_
_atom_site_type_symbol
_atom_site_label
_atom_site_fract_x
_atom_site_fract_y
_atom_site_fract_z
Si Si1 0.564789 0.900506 0.278861
Si Si2 0.645175 0.819897 0.289081
Si Si3 0.375306 0.645353 0.219703
Si Si4 0.568777 0.000000 0.290174
Si Si5 0.437283 0.736564 0.216805
Si Si6 0.233345 0.799270 0.795700
Si Si7 0.565734 0.552302 0.780272
O O1 0.564504 0.901240 0.500000
O O2 0.500000 0.894011 0.223348
O O3 0.603014 0.858722 0.218872
O O4 0.585868 0.950593 0.215046
O O5 0.654998 0.827917 0.500000
O O6 0.612417 0.771374 0.271305
O O7 0.705864 0.822890 0.198905
O O8 0.420998 0.684549 0.269524
O O9 0.315292 0.667489 0.279694
O O10 0.394841 0.594687 0.281096
O O11 0.373491 0.642796 0.000000
O O12 0.500000 0.000000 0.285679
O O13 0.585584 0.000000 0.500000
O O14 0.500000 0.749903 0.282701
O O15 0.438682 0.737705 0.000000
O O16 0.250000 0.750000 0.707402
O O17 0.213528 0.787851 0.000000
O O18 0.500000 0.560233 0.728917
O O19 0.581503 0.500000 0.723921
O O20 0.566802 0.552464 0.000000
#
# Coordination Sequence:
#
# PCOD9485560 Si02
#       7
#    16  16  16   8  16  16  16
#     4   8  14  25  42  65  91 117 145 183 230 274
#     4  11  21  31  46  69  98 124 152 195 242 281
#     4   9  16  28  46  65  88 124 162 195 228 274
#     4   7  10  20  40  62  83 111 147 179 212 263
#     4  10  19  31  48  70  96 126 159 189 224 279
#     4  10  19  34  51  64  86 124 168 200 224 268
#     4   8  13  22  40  69  99 120 145 191 248 294
#
# _framework density 20.454657999999998
#
# number of rings (size 3 to 8) (size 9 to 14) (size 15 to 20)
#    0.000    2.846    1.538    2.769    0.000    3.077 
#    0.000    0.000    1.692    0.000    0.000    1.615 
#    0.000   10.462    0.000    8.462    0.000    7.692 
#
# Total GULP energy -289910.859597 kJ/mol
# GULP energy per Si atom -5575.208838 kJ/mol
# Density = 2.040810 g / cm^3
# Si number density = 20.454658 Si / 1000 Ang^3
#
#
#
# Elastic Constant Matrix: (Units=GPa)
#
#
# Indices 1 2 3 4 5 6 
#
# 1 114.2656 61.8446 1.9762 0.0000 0.0000 0.0000
# 2 61.8446 164.9459 2.6135 0.0000 0.0000 0.0000
# 3 1.9762 2.6135 68.3739 0.0000 0.0000 0.0000
# 4 0.0000 0.0000 0.0000 1.9959 0.0000 0.0000
# 5 0.0000 0.0000 0.0000 0.0000 84.0255 0.0000
# 6 0.0000 0.0000 0.0000 0.0000 0.0000 22.6509
#
#
#
# Elastic Compliance Matrix: (Units=1/GPa)
#
#
# Indices 1 2 3 4 5 6 
#
# 1 0.010981 -0.004115 -0.000160 0.000000 0.000000 0.000000
# 2 -0.004115 0.007608 -0.000172 0.000000 0.000000 0.000000
# 3 -0.000160 -0.000172 0.014637 0.000000 0.000000 0.000000
# 4 0.000000 0.000000 0.000000 0.501038 0.000000 0.000000
# 5 0.000000 0.000000 0.000000 0.000000 0.011901 0.000000
# 6 0.000000 0.000000 0.000000 0.000000 0.000000 0.044148
#
#
# Mechanical properties :
#
#
# Convention : Reuss Voigt Hill
#
# Bulk Modulus (GPa) = 41.09719 53.38378 47.24048
# Shear Modulus (GPa) = 8.23291 40.47787 24.35539
#
# Velocity S-wave (km/s) = 2.00841 4.45332 3.45440
# Velocity P-wave (km/s) = 5.05111 7.25244 6.24947
#
# Compressibility (1/GPa) = 0.02433256
#
# Stress axis : x y z
#
# Youngs Moduli (GPa) = 91.06315 131.43852 68.32164
#
# Poissons Ratio (x) = 0.54084 0.01094
# Poissons Ratio (y) = 0.37471 0.01174
# Poissons Ratio (z) = 0.01458 0.02259
#
# Static dielectric constant tensor:
#      x y z
#    x 1.717750 0.000000 0.000000 
#    y 0.000000 1.753720 0.000000 
#    z 0.000000 0.000000 1.787190 
# 
# From -- ./inp_files/14737.got.cif
#   From: 2010.05.17/outbox.cif.g08.bks.cpg/sg65_8_cif.got.tgz:14737.got - 2010.06.03 17:01:31.
