data_PCOD9485248
_publ_section_title
;
Structure prediction by ZEFSAII (Michael W. Deem and Ramdas Pophale) SiO2 
 PCOD9485248
Probable space group: C M M M
;
_chemical_formula_sum "Si O2"
_cell_formula_units_Z 72
_cell_length_a 28.577802
_cell_length_b 16.778497
_cell_length_c 9.258099
_cell_angle_alpha 90.000000
_cell_angle_beta 90.000000
_cell_angle_gamma 90.000000
_cell_volume 4439.189638
_symmetry_space_group_name_H-M "C M M M"
_symmetry_group_IT_number 65
_symmetry_cell_setting 'orthorhombic'
loop_
_space_group_symop_operation_xyz
x,y,z
-x,-y,z
x,-y,-z
-x,y,-z
-x,-y,-z
x,y,-z
-x,y,z
x,-y,z
1/2+x,1/2+y,z
1/2-x,1/2-y,z
1/2+x,1/2-y,-z
1/2-x,1/2+y,-z
1/2-x,1/2-y,-z
1/2+x,1/2+y,-z
1/2-x,1/2+y,z
1/2+x,1/2-y,z
loop_
_atom_site_type_symbol
_atom_site_label
_atom_site_fract_x
_atom_site_fract_y
_atom_site_fract_z
Si Si1 0.687951 0.090173 0.173908
Si Si2 0.781145 0.169138 0.163820
Si Si3 0.857720 0.260136 0.328068
Si Si4 0.056879 0.000000 0.835252
Si Si5 0.445830 0.339057 0.672566
O O1 0.742883 0.104210 0.210340
O O2 0.657887 0.158069 0.251904
O O3 0.674023 0.000000 0.209379
O O4 0.684657 0.101264 0.000000
O O5 0.750000 0.250000 0.158244
O O6 0.823473 0.190799 0.268120
O O7 0.797448 0.152495 0.000000
O O8 0.852227 0.267617 0.500000
O O9 0.910378 0.232417 0.294330
O O10 0.070131 0.919380 0.752802
O O11 0.000000 0.000000 0.836490
O O12 0.073547 0.000000 0.000000
O O13 0.444102 0.353000 0.500000
O O14 0.500000 0.322542 0.711191
#
# Coordination Sequence:
#
# PCOD9485248 Si02
#       5
#    16  16  16   8  16
#     4   9  18  33  51  69  93 127 162 191 230 287
#     4   8  15  29  47  65  90 122 153 185 227 280
#     4  10  19  30  48  73  97 122 158 199 236 275
#     4   9  17  29  47  71  93 115 153 201 237 269
#     4   9  18  33  50  67  95 133 162 188 233 290
#
# _framework density 16.219176000000001
#
# number of rings (size 3 to 8) (size 9 to 14) (size 15 to 20)
#    0.000    3.000    0.000    2.333    0.000    7.556 
#    2.000    0.000    0.000    0.667    0.000    4.667 
#    0.000    0.000    0.000    0.000    0.000    0.000 
#
# Total GULP energy -200447.260646 kJ/mol
# GULP energy per Si atom -5567.979462 kJ/mol
# Density = 1.618226 g / cm^3
# Si number density = 16.219176 Si / 1000 Ang^3
#
#
#
# Elastic Constant Matrix: (Units=GPa)
#
#
# Indices 1 2 3 4 5 6 
#
# 1 83.7886 57.3650 46.4507 0.0000 0.0000 0.0000
# 2 57.3650 107.1072 49.5593 0.0000 0.0000 0.0000
# 3 46.4507 49.5593 48.9280 0.0000 0.0000 0.0000
# 4 0.0000 0.0000 0.0000 16.2638 0.0000 0.0000
# 5 0.0000 0.0000 0.0000 0.0000 14.4791 0.0000
# 6 0.0000 0.0000 0.0000 0.0000 0.0000 22.9082
#
#
#
# Elastic Compliance Matrix: (Units=1/GPa)
#
#
# Indices 1 2 3 4 5 6 
#
# 1 0.026441 -0.004793 -0.020248 0.000000 0.000000 0.000000
# 2 -0.004793 0.018441 -0.014129 0.000000 0.000000 0.000000
# 3 -0.020248 -0.014129 0.053972 0.000000 0.000000 0.000000
# 4 0.000000 0.000000 0.000000 0.061486 0.000000 0.000000
# 5 0.000000 0.000000 0.000000 0.000000 0.069065 0.000000
# 6 0.000000 0.000000 0.000000 0.000000 0.000000 0.043652
#
#
# Mechanical properties :
#
#
# Convention : Reuss Voigt Hill
#
# Bulk Modulus (GPa) = 48.74405 60.73041 54.73723
# Shear Modulus (GPa) = 13.95736 16.49349 15.22542
#
# Velocity S-wave (km/s) = 2.93669 3.19237 3.06719
# Velocity P-wave (km/s) = 6.45116 7.14935 6.80921
#
# Compressibility (1/GPa) = 0.02051533
#
# Stress axis : x y z
#
# Youngs Moduli (GPa) = 37.82015 54.22777 18.52815
#
# Poissons Ratio (x) = 0.25989 0.37515
# Poissons Ratio (y) = 0.18125 0.26178
# Poissons Ratio (z) = 0.76578 0.76617
#
# Static dielectric constant tensor:
#      x y z
#    x 1.557210 0.000000 0.000000 
#    y 0.000000 1.543410 0.000000 
#    z 0.000000 0.000000 1.545330 
# 
# From -- ./inp_files/18018.got.cif
#   From: 2010.05.17/outbox.cif.g08.bks.cpg/sg65_10_cif.got.tgz:18018.got - 2010.06.03 17:01:31.
