data_PCOD9485278
_publ_section_title
;
Structure prediction by ZEFSAII (Michael W. Deem and Ramdas Pophale) SiO2 
 PCOD9485278
Probable space group: C M M M
;
_chemical_formula_sum "Si O2"
_cell_formula_units_Z 96
_cell_length_a 23.441231
_cell_length_b 17.849729
_cell_length_c 13.498949
_cell_angle_alpha 90.000000
_cell_angle_beta 90.000000
_cell_angle_gamma 90.000000
_cell_volume 5648.225121
_symmetry_space_group_name_H-M "C M M M"
_symmetry_group_IT_number 65
_symmetry_cell_setting 'orthorhombic'
loop_
_space_group_symop_operation_xyz
x,y,z
-x,-y,z
x,-y,-z
-x,y,-z
-x,-y,-z
x,y,-z
-x,y,z
x,-y,z
1/2+x,1/2+y,z
1/2-x,1/2-y,z
1/2+x,1/2-y,-z
1/2-x,1/2+y,-z
1/2-x,1/2-y,-z
1/2+x,1/2+y,-z
1/2-x,1/2+y,z
1/2+x,1/2-y,z
loop_
_atom_site_type_symbol
_atom_site_label
_atom_site_fract_x
_atom_site_fract_y
_atom_site_fract_z
Si Si1 0.349430 0.586131 0.753948
Si Si2 0.064197 0.588815 0.107027
Si Si3 0.764054 0.585826 0.117708
Si Si4 0.639831 0.186780 0.791116
Si Si5 0.315720 0.722350 0.384509
Si Si6 0.567902 0.678215 0.883173
O O1 0.355139 0.500000 0.721615
O O2 0.298218 0.590246 0.834026
O O3 0.329583 0.642482 0.666809
O O4 0.405955 0.615277 0.810310
O O5 0.062151 0.500000 0.107135
O O6 0.097192 0.617825 0.200654
O O7 0.000000 0.618136 0.107027
O O8 0.091116 0.610666 0.000000
O O9 0.786121 0.500000 0.137768
O O10 0.802537 0.652057 0.163056
O O11 0.761216 0.594049 0.000000
O O12 0.649921 0.219350 0.683320
O O13 0.607699 0.250212 0.856165
O O14 0.330667 0.721567 0.500000
O O15 0.250000 0.750000 0.376176
O O16 0.500000 0.690837 0.865737
O O17 0.574578 0.660474 0.000000
#
# Coordination Sequence:
#
# PCOD9485278 Si02
#       6
#    16  16  16  16  16  16
#     4  10  21  37  56  79 106 138 175 215 263 320
#     4   9  17  29  48  77 113 151 183 207 239 295
#     4  10  19  30  48  79 115 145 170 202 254 322
#     4  11  19  31  53  77 105 143 176 220 262 312
#     4  10  21  39  57  76 102 132 172 223 273 319
#     4  10  21  34  51  78 110 146 185 219 254 304
#
# _framework density 16.996490999999999
#
# number of rings (size 3 to 8) (size 9 to 14) (size 15 to 20)
#    0.000    2.000    1.667    3.500    0.000    4.333 
#    0.000    3.333    0.000   14.500    0.000    5.833 
#    0.000    0.000    0.000    0.000    0.000    0.000 
#
# Total GULP energy -267403.654501 kJ/mol
# GULP energy per Si atom -5570.909469 kJ/mol
# Density = 1.695781 g / cm^3
# Si number density = 16.996491 Si / 1000 Ang^3
#
#
#
# Elastic Constant Matrix: (Units=GPa)
#
#
# Indices 1 2 3 4 5 6 
#
# 1 68.9344 36.9432 46.0370 0.0000 0.0000 0.0000
# 2 36.9432 95.2618 62.2300 0.0000 0.0000 0.0000
# 3 46.0370 62.2300 126.9025 0.0000 0.0000 0.0000
# 4 0.0000 0.0000 0.0000 17.4563 0.0000 0.0000
# 5 0.0000 0.0000 0.0000 0.0000 17.8405 0.0000
# 6 0.0000 0.0000 0.0000 0.0000 0.0000 44.0143
#
#
#
# Elastic Compliance Matrix: (Units=1/GPa)
#
#
# Indices 1 2 3 4 5 6 
#
# 1 0.020389 -0.004525 -0.005178 0.000000 0.000000 0.000000
# 2 -0.004525 0.016449 -0.006425 0.000000 0.000000 0.000000
# 3 -0.005178 -0.006425 0.012909 0.000000 0.000000 0.000000
# 4 0.000000 0.000000 0.000000 0.057286 0.000000 0.000000
# 5 0.000000 0.000000 0.000000 0.000000 0.056052 0.000000
# 6 0.000000 0.000000 0.000000 0.000000 0.000000 0.022720
#
#
# Mechanical properties :
#
#
# Convention : Reuss Voigt Hill
#
# Bulk Modulus (GPa) = 57.16664 64.61325 60.88995
# Shear Modulus (GPa) = 22.33226 25.58813 23.96020
#
# Velocity S-wave (km/s) = 3.62876 3.88428 3.75869
# Velocity P-wave (km/s) = 7.15993 7.62988 7.39863
#
# Compressibility (1/GPa) = 0.01749272
#
# Stress axis : x y z
#
# Youngs Moduli (GPa) = 49.04499 60.79358 77.46479
#
# Poissons Ratio (x) = 0.27507 0.40111
# Poissons Ratio (y) = 0.22191 0.49770
# Poissons Ratio (z) = 0.25395 0.39059
#
# Static dielectric constant tensor:
#      x y z
#    x 1.607370 0.000000 0.000000 
#    y 0.000000 1.638970 0.000000 
#    z 0.000000 0.000000 1.537530 
# 
# From -- ./inp_files/27145.got.cif
#   From: 2010.05.17/outbox.cif.g08.bks.cpg/sg65_14_cif.got.tgz:27145.got - 2010.06.03 17:01:31.
