data_PCOD9485317
_publ_section_title
;
Structure prediction by ZEFSAII (Michael W. Deem and Ramdas Pophale) SiO2 
 PCOD9485317
Probable space group: C M M M
;
_chemical_formula_sum "Si O2"
_cell_formula_units_Z 56
_cell_length_a 14.184434
_cell_length_b 26.559700
_cell_length_c 7.827482
_cell_angle_alpha 90.000000
_cell_angle_beta 90.000000
_cell_angle_gamma 90.000000
_cell_volume 2948.881044
_symmetry_space_group_name_H-M "C M M M"
_symmetry_group_IT_number 65
_symmetry_cell_setting 'orthorhombic'
loop_
_space_group_symop_operation_xyz
x,y,z
-x,-y,z
x,-y,-z
-x,y,-z
-x,-y,-z
x,y,-z
-x,y,z
x,-y,z
1/2+x,1/2+y,z
1/2-x,1/2-y,z
1/2+x,1/2-y,-z
1/2-x,1/2+y,-z
1/2-x,1/2-y,-z
1/2+x,1/2+y,-z
1/2-x,1/2+y,z
1/2+x,1/2-y,z
loop_
_atom_site_type_symbol
_atom_site_label
_atom_site_fract_x
_atom_site_fract_y
_atom_site_fract_z
Si Si1 0.897848 0.845923 0.197320
Si Si2 0.688180 0.872341 0.300515
Si Si3 0.387247 0.940550 0.000000
Si Si4 0.639316 0.237790 0.694480
O O1 0.801449 0.863256 0.287081
O O2 0.899945 0.784950 0.204058
O O3 0.000000 0.863321 0.266259
O O4 0.890527 0.861528 0.000000
O O5 0.665613 0.881732 0.500000
O O6 0.636142 0.819892 0.246609
O O7 0.656310 0.914485 0.168216
O O8 0.500000 0.933093 0.000000
O O9 0.368069 0.000000 0.000000
O O10 0.604067 0.240092 0.500000
O O11 0.750000 0.250000 0.688189
#
# Coordination Sequence:
#
# PCOD9485317 Si02
#       4
#    16  16   8  16
#     4  10  19  30  52  89 128 164 197 228 269 331
#     4  10  21  39  62  86 117 157 195 235 287 345
#     4  11  26  46  66  87 109 137 184 250 312 355
#     4   8  16  29  47  77 116 157 196 229 264 317
#
# _framework density 18.990255000000001
#
# number of rings (size 3 to 8) (size 9 to 14) (size 15 to 20)
#    0.000    2.429    1.429    2.571    2.000    6.286 
#    0.000    4.286    0.000    1.714    0.000    2.000 
#    0.000    0.000    0.000    0.000    0.000    0.000 
#
# Total GULP energy -156002.364751 kJ/mol
# GULP energy per Si atom -5571.513027 kJ/mol
# Density = 1.894703 g / cm^3
# Si number density = 18.990255 Si / 1000 Ang^3
#
#
#
# Elastic Constant Matrix: (Units=GPa)
#
#
# Indices 1 2 3 4 5 6 
#
# 1 95.3596 38.7364 26.1650 0.0000 0.0000 0.0000
# 2 38.7364 109.1159 54.3547 0.0000 0.0000 0.0000
# 3 26.1650 54.3547 87.4173 0.0000 0.0000 0.0000
# 4 0.0000 0.0000 0.0000 2.3637 0.0000 0.0000
# 5 0.0000 0.0000 0.0000 0.0000 601.3692 0.0000
# 6 0.0000 0.0000 0.0000 0.0000 0.0000 -1.0734
#
#
#
# Elastic Compliance Matrix: (Units=1/GPa)
#
#
# Indices 1 2 3 4 5 6 
#
# 1 0.012372 -0.003691 -0.001408 0.000000 0.000000 0.000000
# 2 -0.003691 0.014378 -0.007835 0.000000 0.000000 0.000000
# 3 -0.001408 -0.007835 0.016733 0.000000 0.000000 0.000000
# 4 0.000000 0.000000 0.000000 0.423057 0.000000 0.000000
# 5 0.000000 0.000000 0.000000 0.000000 0.001663 0.000000
# 6 0.000000 0.000000 0.000000 0.000000 0.000000 -0.931593
#
#
# Mechanical properties :
#
#
# Convention : Reuss Voigt Hill
#
# Bulk Modulus (GPa) = 56.77204 58.93390 57.85297
# Shear Modulus (GPa) = -11.58345 132.04102 60.22878
#
# Velocity S-wave (km/s) = -2.47243 8.34757 5.63777
# Velocity P-wave (km/s) = 4.67008 11.13599 8.53874
#
# Compressibility (1/GPa) = 0.01761430
#
# Stress axis : x y z
#
# Youngs Moduli (GPa) = 80.82617 69.55185 59.76301
#
# Poissons Ratio (x) = 0.25669 0.08417
# Poissons Ratio (y) = 0.29830 0.46826
# Poissons Ratio (z) = 0.11383 0.54496
#
# Static dielectric constant tensor:
#      x y z
#    x 1.715950 0.000000 0.000000 
#    y 0.000000 1.638620 0.000000 
#    z 0.000000 0.000000 1.655850 
# 
# From -- ./inp_files/6552.got.cif
#   From: 2010.05.17/outbox.cif.g08.bks.cpg/sg65_4_cif.got.tgz:6552.got - 2010.06.03 17:01:31.
