data_PCOD9485595
_publ_section_title
;
Structure prediction by ZEFSAII (Michael W. Deem and Ramdas Pophale) SiO2 
 PCOD9485595
Probable space group: C M M M
;
_chemical_formula_sum "Si O2"
_cell_formula_units_Z 112
_cell_length_a 17.119243
_cell_length_b 26.412940
_cell_length_c 14.156075
_cell_angle_alpha 90.000000
_cell_angle_beta 90.000000
_cell_angle_gamma 90.000000
_cell_volume 6400.945896
_symmetry_space_group_name_H-M "C M M M"
_symmetry_group_IT_number 65
_symmetry_cell_setting 'orthorhombic'
loop_
_space_group_symop_operation_xyz
x,y,z
-x,-y,z
x,-y,-z
-x,y,-z
-x,-y,-z
x,y,-z
-x,y,z
x,-y,z
1/2+x,1/2+y,z
1/2-x,1/2-y,z
1/2+x,1/2-y,-z
1/2-x,1/2+y,-z
1/2-x,1/2-y,-z
1/2+x,1/2+y,-z
1/2-x,1/2+y,z
1/2+x,1/2-y,z
loop_
_atom_site_type_symbol
_atom_site_label
_atom_site_fract_x
_atom_site_fract_y
_atom_site_fract_z
Si Si1 0.909661 0.629154 0.610775
Si Si2 0.094021 0.058426 0.107877
Si Si3 0.592929 0.943841 0.778805
Si Si4 0.335094 0.854591 0.888408
Si Si5 0.154749 0.244767 0.109370
Si Si6 0.170169 0.147454 0.782414
Si Si7 0.254573 0.191089 0.611895
O O1 0.906281 0.615772 0.500000
O O2 0.889360 0.582123 0.678103
O O3 0.842738 0.670814 0.627755
O O4 0.000000 0.644583 0.631009
O O5 0.124346 0.097632 0.185770
O O6 0.000000 0.059130 0.108187
O O7 0.118792 0.000000 0.124073
O O8 0.119176 0.072748 0.000000
O O9 0.500000 0.947891 0.783605
O O10 0.618908 0.903875 0.857003
O O11 0.627174 0.000000 0.788825
O O12 0.374691 0.800663 0.862895
O O13 0.252845 0.857135 0.836007
O O14 0.322557 0.852891 0.000000
O O15 0.250000 0.250000 0.113534
O O16 0.130937 0.198165 0.174601
O O17 0.134587 0.234321 0.000000
O O18 0.194392 0.158684 0.674749
O O19 0.238086 0.187597 0.500000
O O20 0.250000 0.250000 0.640813
#
# Coordination Sequence:
#
# PCOD9485595 Si02
#       7
#    16  16  16  16  16  16  16
#     4   9  18  35  57  77 100 136 182 225 264 311
#     4   9  19  36  56  79 109 144 183 228 274 320
#     4  10  21  35  49  68  98 136 176 218 263 311
#     4  10  19  31  48  72 101 134 171 209 255 316
#     4   8  15  27  46  71  98 129 163 200 248 306
#     4  11  18  31  55  79 105 135 175 218 268 321
#     4  10  20  34  55  84 115 143 174 220 277 329
#
# _framework density 17.497413999999999
#
# number of rings (size 3 to 8) (size 9 to 14) (size 15 to 20)
#    0.000    2.429    1.429    3.857    0.000    1.429 
#    0.000    3.571    0.000    2.571    0.000    1.000 
#    0.000    0.000    0.000    0.000    0.000    0.000 
#
# Total GULP energy -312017.845451 kJ/mol
# GULP energy per Si atom -5571.747240 kJ/mol
# Density = 1.745759 g / cm^3
# Si number density = 17.497414 Si / 1000 Ang^3
#
#
#
# Elastic Constant Matrix: (Units=GPa)
#
#
# Indices 1 2 3 4 5 6 
#
# 1 15.7674 27.9927 16.7673 0.0000 0.0000 0.0000
# 2 27.9927 121.1338 41.8291 0.0000 0.0000 0.0000
# 3 16.7673 41.8291 78.1556 0.0000 0.0000 0.0000
# 4 0.0000 0.0000 0.0000 8.3756 0.0000 0.0000
# 5 0.0000 0.0000 0.0000 0.0000 20.8189 0.0000
# 6 0.0000 0.0000 0.0000 0.0000 0.0000 -28.3765
#
#
#
# Elastic Compliance Matrix: (Units=1/GPa)
#
#
# Indices 1 2 3 4 5 6 
#
# 1 0.117548 -0.022640 -0.013101 0.000000 0.000000 0.000000
# 2 -0.022640 0.014487 -0.002897 0.000000 0.000000 0.000000
# 3 -0.013101 -0.002897 0.017156 0.000000 0.000000 0.000000
# 4 0.000000 0.000000 0.000000 0.119395 0.000000 0.000000
# 5 0.000000 0.000000 0.000000 0.000000 0.048033 0.000000
# 6 0.000000 0.000000 0.000000 0.000000 0.000000 -0.035240
#
#
# Mechanical properties :
#
#
# Convention : Reuss Voigt Hill
#
# Bulk Modulus (GPa) = 13.90523 43.13722 28.52122
# Shear Modulus (GPa) = 13.06755 8.72810 10.89783
#
# Velocity S-wave (km/s) = 2.73578 2.23586 2.49835
# Velocity P-wave (km/s) = 4.23599 5.60111 4.96568
#
# Compressibility (1/GPa) = 0.07191539
#
# Stress axis : x y z
#
# Youngs Moduli (GPa) = 8.50716 69.02540 58.28858
#
# Poissons Ratio (x) = 1.56273 0.76367
# Poissons Ratio (y) = 0.19260 0.16884
# Poissons Ratio (z) = 0.11146 0.19994
#
# Static dielectric constant tensor:
#      x y z
#    x 1.600620 0.000000 0.000000 
#    y 0.000000 1.633690 0.000000 
#    z 0.000000 0.000000 1.614090 
# 
# From -- ./inp_files/41057.got.cif
#   From: 2010.05.17/outbox.cif.g08.bks.cpg/sg65_21_cif.got.tgz:41057.got - 2010.06.03 17:01:31.
