data_PCOD9485917
_publ_section_title
;
Structure prediction by ZEFSAII (Michael W. Deem and Ramdas Pophale) SiO2 
 PCOD9485917
Probable space group: C M M M
;
_chemical_formula_sum "Si O2"
_cell_formula_units_Z 116
_cell_length_a 28.806606
_cell_length_b 22.869946
_cell_length_c 10.007422
_cell_angle_alpha 90.000000
_cell_angle_beta 90.000000
_cell_angle_gamma 90.000000
_cell_volume 6592.944891
_symmetry_space_group_name_H-M "C M M M"
_symmetry_group_IT_number 65
_symmetry_cell_setting 'orthorhombic'
loop_
_space_group_symop_operation_xyz
x,y,z
-x,-y,z
x,-y,-z
-x,y,-z
-x,-y,-z
x,y,-z
-x,y,z
x,-y,z
1/2+x,1/2+y,z
1/2-x,1/2-y,z
1/2+x,1/2-y,-z
1/2-x,1/2+y,-z
1/2-x,1/2-y,-z
1/2+x,1/2+y,-z
1/2-x,1/2+y,z
1/2+x,1/2-y,z
loop_
_atom_site_type_symbol
_atom_site_label
_atom_site_fract_x
_atom_site_fract_y
_atom_site_fract_z
Si Si1 0.779624 0.137374 0.844271
Si Si2 0.555162 0.791419 0.150320
Si Si3 0.819041 0.228688 0.349152
Si Si4 0.000000 0.821244 0.500000
Si Si5 0.418640 0.324090 0.720989
Si Si6 0.873848 0.066621 0.159675
Si Si7 0.183244 0.430518 0.154846
Si Si8 0.129990 0.652691 0.659719
O O1 0.786524 0.194059 0.752580
O O2 0.822733 0.093710 0.816071
O O3 0.732265 0.102141 0.824931
O O4 0.782889 0.154648 0.000000
O O5 0.500000 0.797598 0.169019
O O6 0.569131 0.723396 0.165562
O O7 0.583861 0.824657 0.264979
O O8 0.567296 0.811369 0.000000
O O9 0.801587 0.223440 0.500000
O O10 0.869553 0.197476 0.339347
O O11 0.831529 0.295981 0.319519
O O12 0.959371 0.820966 0.615196
O O13 0.410122 0.388982 0.775067
O O14 0.877096 0.000000 0.207922
O O15 0.880423 0.066692 0.000000
O O16 0.188780 0.500000 0.169575
O O17 0.148047 0.403952 0.262499
O O18 0.168823 0.419057 0.000000
O O19 0.123608 0.646038 0.500000
#
# Coordination Sequence:
#
# PCOD9485917 Si02
#       8
#    16  16  16   4  16  16  16  16
#     4   9  18  32  55  81 103 136 181 226 271 318
#     4  10  20  34  57  85 110 135 174 221 265 319
#     4   9  18  33  51  75 108 139 174 216 268 318
#     4  12  20  32  51  70 100 146 179 226 270 338
#     4  10  19  31  51  73 102 138 179 219 274 322
#     4   9  17  32  52  72  97 132 181 235 279 320
#     4  10  21  38  58  80 109 143 180 221 265 315
#     4  10  22  36  55  82 114 149 179 214 264 318
#
# _framework density 17.594564999999999
#
# number of rings (size 3 to 8) (size 9 to 14) (size 15 to 20)
#    0.000    2.345    1.379    1.241    0.966    7.172 
#    0.000    3.793    0.000    2.069    0.000    2.897 
#    0.000    0.000    0.000    0.000    0.000    0.000 
#
# Total GULP energy -322950.104707 kJ/mol
# GULP energy per Si atom -5568.105254 kJ/mol
# Density = 1.755452 g / cm^3
# Si number density = 17.594565 Si / 1000 Ang^3
#
#
#
# Elastic Constant Matrix: (Units=GPa)
#
#
# Indices 1 2 3 4 5 6 
#
# 1 69.1372 33.3799 52.3783 0.0000 0.0000 0.0000
# 2 33.3799 72.7144 56.4079 0.0000 0.0000 0.0000
# 3 52.3783 56.4079 106.5989 0.0000 0.0000 0.0000
# 4 0.0000 0.0000 0.0000 5.6293 0.0000 0.0000
# 5 0.0000 0.0000 0.0000 0.0000 21.4447 0.0000
# 6 0.0000 0.0000 0.0000 0.0000 0.0000 11.5485
#
#
#
# Elastic Compliance Matrix: (Units=1/GPa)
#
#
# Indices 1 2 3 4 5 6 
#
# 1 0.023445 -0.003098 -0.009881 0.000000 0.000000 0.000000
# 2 -0.003098 0.023738 -0.011039 0.000000 0.000000 0.000000
# 3 -0.009881 -0.011039 0.020078 0.000000 0.000000 0.000000
# 4 0.000000 0.000000 0.000000 0.177640 0.000000 0.000000
# 5 0.000000 0.000000 0.000000 0.000000 0.046632 0.000000
# 6 0.000000 0.000000 0.000000 0.000000 0.000000 0.086591
#
#
# Mechanical properties :
#
#
# Convention : Reuss Voigt Hill
#
# Bulk Modulus (GPa) = 52.01441 59.19808 55.60624
# Shear Modulus (GPa) = 11.55888 14.81013 13.18450
#
# Velocity S-wave (km/s) = 2.56590 2.90443 2.74040
# Velocity P-wave (km/s) = 6.19721 6.70569 6.45646
#
# Compressibility (1/GPa) = 0.01922544
#
# Stress axis : x y z
#
# Youngs Moduli (GPa) = 42.65242 42.12650 49.80688
#
# Poissons Ratio (x) = 0.13049 0.49214
# Poissons Ratio (y) = 0.13212 0.54983
# Poissons Ratio (z) = 0.42145 0.46504
#
# Static dielectric constant tensor:
#      x y z
#    x 1.593320 0.000000 0.000000 
#    y 0.000000 1.590540 0.000000 
#    z 0.000000 0.000000 1.607750 
# 
# From -- ./inp_files/16885.got.cif
#   From: 2010.05.17/outbox.cif.g08.bks.cpg/sg65_9_cif.got.tgz:16885.got - 2010.06.03 17:01:31.
