data_PCOD9485032
_publ_section_title
;
Structure prediction by ZEFSAII (Michael W. Deem and Ramdas Pophale) SiO2 
 PCOD9485032
Probable space group: C M M M
;
_chemical_formula_sum "Si O2"
_cell_formula_units_Z 104
_cell_length_a 7.631028
_cell_length_b 29.266356
_cell_length_c 24.165150
_cell_angle_alpha 90.000000
_cell_angle_beta 90.000000
_cell_angle_gamma 90.000000
_cell_volume 5396.860513
_symmetry_space_group_name_H-M "C M M M"
_symmetry_group_IT_number 65
_symmetry_cell_setting 'orthorhombic'
loop_
_space_group_symop_operation_xyz
x,y,z
-x,-y,z
x,-y,-z
-x,y,-z
-x,-y,-z
x,y,-z
-x,y,z
x,-y,z
1/2+x,1/2+y,z
1/2-x,1/2-y,z
1/2+x,1/2-y,-z
1/2-x,1/2+y,-z
1/2-x,1/2-y,-z
1/2+x,1/2+y,-z
1/2-x,1/2+y,z
1/2+x,1/2-y,z
loop_
_atom_site_type_symbol
_atom_site_label
_atom_site_fract_x
_atom_site_fract_y
_atom_site_fract_z
Si Si1 0.207830 0.852163 0.389280
Si Si2 0.790669 0.050691 0.219700
Si Si3 0.788826 0.196227 0.500000
Si Si4 0.210519 0.802973 0.937941
Si Si5 0.215297 0.856182 0.169275
Si Si6 0.289716 0.303394 0.721294
Si Si7 0.209134 0.551175 0.348476
O O1 0.278932 0.828450 0.444508
O O2 0.279919 0.829605 0.332885
O O3 0.231109 0.906591 0.385582
O O4 0.000000 0.843169 0.388926
O O5 0.725619 0.092396 0.182694
O O6 0.760705 0.060682 0.284679
O O7 0.000000 0.048871 0.212116
O O8 0.718670 0.000000 0.208376
O O9 0.750000 0.250000 0.500000
O O10 0.000000 0.191319 0.500000
O O11 0.250000 0.750000 0.925398
O O12 0.275438 0.835026 0.888604
O O13 0.000000 0.807536 0.939573
O O14 0.277658 0.812832 0.000000
O O15 0.272927 0.825192 0.221189
O O16 0.000000 0.856010 0.168699
O O17 0.500000 0.309115 0.721650
O O18 0.250000 0.250000 0.717984
O O19 0.275419 0.500000 0.362366
O O20 0.000000 0.549931 0.350851
#
# Coordination Sequence:
#
# PCOD9485032 Si02
#       7
#    16  16   8  16  16  16  16
#     4  10  20  36  54  73  98 131 166 199 237 288
#     4   9  16  29  50  71  94 127 161 194 238 294
#     4  10  22  38  57  78 101 131 170 207 239 286
#     4   9  17  29  45  64  91 127 162 197 235 278
#     4   9  16  28  45  68  95 121 157 197 237 285
#     4  10  19  30  45  67  95 123 154 195 239 283
#     4  10  20  33  51  77 104 127 157 201 249 294
#
# _framework density 19.270464
#
# number of rings (size 3 to 8) (size 9 to 14) (size 15 to 20)
#    0.000    2.462    1.538    1.385    0.000    2.154 
#    0.000    1.154    0.000    2.769    0.000    3.231 
#    0.000    0.000    0.000    7.692    0.000    8.000 
#
# Total GULP energy -290152.122220 kJ/mol
# GULP energy per Si atom -5579.848504 kJ/mol
# Density = 1.922660 g / cm^3
# Si number density = 19.270464 Si / 1000 Ang^3
#
#
#
# Elastic Constant Matrix: (Units=GPa)
#
#
# Indices 1 2 3 4 5 6 
#
# 1 35.6729 -7.7077 7.9101 0.0000 0.0000 0.0000
# 2 -7.7077 165.9265 109.1008 0.0000 0.0000 0.0000
# 3 7.9101 109.1008 150.2708 0.0000 0.0000 0.0000
# 4 0.0000 0.0000 0.0000 33.2198 0.0000 0.0000
# 5 0.0000 0.0000 0.0000 0.0000 -1.9912 0.0000
# 6 0.0000 0.0000 0.0000 0.0000 0.0000 19.7390
#
#
#
# Elastic Compliance Matrix: (Units=1/GPa)
#
#
# Indices 1 2 3 4 5 6 
#
# 1 0.030148 0.004676 -0.004982 0.000000 0.000000 0.000000
# 2 0.004676 0.012257 -0.009145 0.000000 0.000000 0.000000
# 3 -0.004982 -0.009145 0.013557 0.000000 0.000000 0.000000
# 4 0.000000 0.000000 0.000000 0.030103 0.000000 0.000000
# 5 0.000000 0.000000 0.000000 0.000000 -0.502199 0.000000
# 6 0.000000 0.000000 0.000000 0.000000 0.000000 0.050661
#
#
# Mechanical properties :
#
#
# Convention : Reuss Voigt Hill
#
# Bulk Modulus (GPa) = 26.98377 63.38628 45.18502
# Shear Modulus (GPa) = -14.96025 26.36464 5.70219
#
# Velocity S-wave (km/s) = -2.78929 3.70285 1.72205
# Velocity P-wave (km/s) = 1.91298 7.15862 5.23953
#
# Compressibility (1/GPa) = 0.03705932
#
# Stress axis : x y z
#
# Youngs Moduli (GPa) = 33.17020 81.58486 73.76497
#
# Poissons Ratio (x) = -0.38151 0.36749
# Poissons Ratio (y) = -0.15511 0.67460
# Poissons Ratio (z) = 0.16525 0.74611
#
# Static dielectric constant tensor:
#      x y z
#    x 1.703920 0.000000 0.000000 
#    y 0.000000 1.670410 0.000000 
#    z 0.000000 0.000000 1.663380 
# 
# From -- ./inp_files/60791.got.cif
#   From: 2010.05.17/outbox.cif.g08.bks.cpg/sg65_31_cif.got.tgz:60791.got - 2010.06.03 17:01:31.
