data_PCOD9485157
_publ_section_title
;
Structure prediction by ZEFSAII (Michael W. Deem and Ramdas Pophale) SiO2 
 PCOD9485157
Probable space group: C M M M
;
_chemical_formula_sum "Si O2"
_cell_formula_units_Z 104
_cell_length_a 14.333385
_cell_length_b 9.285622
_cell_length_c 34.931851
_cell_angle_alpha 90.000000
_cell_angle_beta 90.000000
_cell_angle_gamma 90.000000
_cell_volume 4649.233578
_symmetry_space_group_name_H-M "C M M M"
_symmetry_group_IT_number 65
_symmetry_cell_setting 'orthorhombic'
loop_
_space_group_symop_operation_xyz
x,y,z
-x,-y,z
x,-y,-z
-x,y,-z
-x,-y,-z
x,y,-z
-x,y,z
x,-y,z
1/2+x,1/2+y,z
1/2-x,1/2-y,z
1/2+x,1/2-y,-z
1/2-x,1/2+y,-z
1/2-x,1/2-y,-z
1/2+x,1/2+y,-z
1/2-x,1/2+y,z
1/2+x,1/2-y,z
loop_
_atom_site_type_symbol
_atom_site_label
_atom_site_fract_x
_atom_site_fract_y
_atom_site_fract_z
Si Si1 0.649857 0.673106 0.615779
Si Si2 0.886054 0.835905 0.000000
Si Si3 0.614100 0.161615 0.773819
Si Si4 0.648531 0.172696 0.457536
Si Si5 0.391262 0.659180 0.702887
Si Si6 0.886045 0.336039 0.075837
Si Si7 0.886124 0.163346 0.848628
O O1 0.653883 0.500000 0.609830
O O2 0.750000 0.750000 0.617833
O O3 0.603478 0.749911 0.579124
O O4 0.610784 0.698466 0.658171
O O5 0.858340 0.752191 0.038282
O O6 0.000000 0.839794 0.000000
O O7 0.852739 0.000000 0.000000
O O8 0.500000 0.155250 0.774235
O O9 0.644890 0.225600 0.733052
O O10 0.641264 0.263995 0.808750
O O11 0.648431 0.000000 0.779554
O O12 0.606674 0.192730 0.500000
O O13 0.750000 0.250000 0.459701
O O14 0.656904 0.000000 0.451339
O O15 0.500000 0.645049 0.712908
O O16 0.347513 0.500000 0.706891
O O17 0.852754 0.500000 0.074476
O O18 0.858232 0.257112 0.114818
O O19 0.000000 0.339827 0.075782
O O20 0.000000 0.159565 0.848876
O O21 0.852609 0.000000 0.851660
#
# Coordination Sequence:
#
# PCOD9485157 Si02
#       7
#    16   8  16  16  16  16  16
#     4  10  19  30  47  69  92 117 144 178 216 254
#     4   9  15  21  27  35  49  71 101 137 182 237
#     4   9  16  25  38  56  75  96 125 162 203 244
#     4   9  16  26  42  64  89 115 143 176 212 250
#     4   9  18  32  47  63  85 114 146 177 212 255
#     4   9  15  21  28  38  53  74 103 142 187 233
#     4   9  15  22  32  45  62  85 113 148 191 237
#
# _framework density 22.369278000000001
#
# number of rings (size 3 to 8) (size 9 to 14) (size 15 to 20)
#    0.000    2.846    0.000    3.462    0.000    8.615 
#    0.000    0.000    0.000    0.462    0.000    3.231 
#    0.000    0.000    0.000    0.000    0.000    0.000 
#
# Total GULP energy -290291.986801 kJ/mol
# GULP energy per Si atom -5582.538208 kJ/mol
# Density = 2.231836 g / cm^3
# Si number density = 22.369278 Si / 1000 Ang^3
#
#
#
# Elastic Constant Matrix: (Units=GPa)
#
#
# Indices 1 2 3 4 5 6 
#
# 1 64.7572 11.6134 -4.9040 0.0000 0.0000 0.0000
# 2 11.6134 209.8669 132.1382 0.0000 0.0000 0.0000
# 3 -4.9040 132.1382 198.0730 0.0000 0.0000 0.0000
# 4 0.0000 0.0000 0.0000 50.9665 0.0000 0.0000
# 5 0.0000 0.0000 0.0000 0.0000 -3.2280 0.0000
# 6 0.0000 0.0000 0.0000 0.0000 0.0000 -0.8849
#
#
#
# Elastic Compliance Matrix: (Units=1/GPa)
#
#
# Indices 1 2 3 4 5 6 
#
# 1 0.015920 -0.001947 0.001693 0.000000 0.000000 0.000000
# 2 -0.001947 0.008454 -0.005688 0.000000 0.000000 0.000000
# 3 0.001693 -0.005688 0.008885 0.000000 0.000000 0.000000
# 4 0.000000 0.000000 0.000000 0.019621 0.000000 0.000000
# 5 0.000000 0.000000 0.000000 0.000000 -0.309789 0.000000
# 6 0.000000 0.000000 0.000000 0.000000 0.000000 -1.130034
#
#
# Mechanical properties :
#
#
# Convention : Reuss Voigt Hill
#
# Bulk Modulus (GPa) = 46.78386 83.37692 65.08039
# Shear Modulus (GPa) = -3.65515 31.62734 13.98610
#
# Velocity S-wave (km/s) = -1.27967 3.76423 2.50319
# Velocity P-wave (km/s) = 4.33317 7.49976 6.12465
#
# Compressibility (1/GPa) = 0.02137489
#
# Stress axis : x y z
#
# Youngs Moduli (GPa) = 62.81546 118.28710 112.54735
#
# Poissons Ratio (x) = 0.23029 -0.19054
# Poissons Ratio (y) = 0.12229 0.64017
# Poissons Ratio (z) = -0.10634 0.67282
#
# Static dielectric constant tensor:
#      x y z
#    x 2.088820 0.000000 0.000000 
#    y 0.000000 1.773610 0.000000 
#    z 0.000000 0.000000 1.816390 
# 
# From -- ./inp_files/78357.got.cif
#   From: 2010.05.17/outbox.cif.g08.bks.cpg/sg65_40_cif.got.tgz:78357.got - 2010.06.03 17:01:31.
