data_PCOD9485924
_publ_section_title
;
Structure prediction by ZEFSAII (Michael W. Deem and Ramdas Pophale) SiO2 
 PCOD9485924
Probable space group: C M M M
;
_chemical_formula_sum "Si O2"
_cell_formula_units_Z 64
_cell_length_a 7.466942
_cell_length_b 18.273881
_cell_length_c 23.549127
_cell_angle_alpha 90.000000
_cell_angle_beta 90.000000
_cell_angle_gamma 90.000000
_cell_volume 3213.278604
_symmetry_space_group_name_H-M "C M M M"
_symmetry_group_IT_number 65
_symmetry_cell_setting 'orthorhombic'
loop_
_space_group_symop_operation_xyz
x,y,z
-x,-y,z
x,-y,-z
-x,y,-z
-x,-y,-z
x,y,-z
-x,y,z
x,-y,z
1/2+x,1/2+y,z
1/2-x,1/2-y,z
1/2+x,1/2-y,-z
1/2-x,1/2+y,-z
1/2-x,1/2-y,-z
1/2+x,1/2+y,-z
1/2-x,1/2+y,z
1/2+x,1/2-y,z
loop_
_atom_site_type_symbol
_atom_site_label
_atom_site_fract_x
_atom_site_fract_y
_atom_site_fract_z
Si Si1 0.500000 0.911102 0.435497
Si Si2 0.211035 0.912383 0.343831
Si Si3 0.719210 0.584733 0.114292
Si Si4 0.785868 0.163954 0.000000
Si Si5 0.213874 0.163995 0.228460
O O1 0.500000 0.883765 0.500000
O O2 0.327218 0.890278 0.398264
O O3 0.500000 0.000000 0.438183
O O4 0.277549 0.872049 0.287071
O O5 0.000000 0.897323 0.352168
O O6 0.230445 0.000000 0.335559
O O7 0.500000 0.586694 0.114353
O O8 0.771622 0.500000 0.113622
O O9 0.780945 0.626079 0.057581
O O10 0.781379 0.624670 0.171567
O O11 0.750000 0.250000 0.000000
O O12 0.000000 0.153859 0.000000
O O13 0.250000 0.250000 0.226676
O O14 0.000000 0.152973 0.228767
#
# Coordination Sequence:
#
# PCOD9485924 Si02
#       5
#     8  16  16   8  16
#     4   9  18  32  54  84 112 139 174 220 269 317
#     4   9  18  33  53  78 107 141 179 220 268 319
#     4   9  17  31  51  74 100 132 178 223 263 314
#     4  10  19  31  51  75 101 138 174 218 266 318
#     4  10  20  32  50  75 101 136 171 218 268 318
#
# _framework density 19.917351
#
# number of rings (size 3 to 8) (size 9 to 14) (size 15 to 20)
#    0.000    2.625    0.000    1.875    1.750    5.000 
#    0.000    2.500    0.000    3.750    0.000    0.000 
#    0.000    0.000    0.000    0.000    0.000    0.000 
#
# Total GULP energy -178679.136126 kJ/mol
# GULP energy per Si atom -5583.723004 kJ/mol
# Density = 1.987202 g / cm^3
# Si number density = 19.917351 Si / 1000 Ang^3
#
#
#
# Elastic Constant Matrix: (Units=GPa)
#
#
# Indices 1 2 3 4 5 6 
#
# 1 71.9856 23.0433 54.8982 0.0000 0.0000 0.0000
# 2 23.0433 114.2531 105.3299 0.0000 0.0000 0.0000
# 3 54.8982 105.3299 254.5334 0.0000 0.0000 0.0000
# 4 0.0000 0.0000 0.0000 -8.9889 0.0000 0.0000
# 5 0.0000 0.0000 0.0000 0.0000 762.5822 0.0000
# 6 0.0000 0.0000 0.0000 0.0000 0.0000 21.4780
#
#
#
# Elastic Compliance Matrix: (Units=1/GPa)
#
#
# Indices 1 2 3 4 5 6 
#
# 1 0.016627 -0.000077 -0.003554 0.000000 0.000000 0.000000
# 2 -0.000077 0.014151 -0.005840 0.000000 0.000000 0.000000
# 3 -0.003554 -0.005840 0.007112 0.000000 0.000000 0.000000
# 4 0.000000 0.000000 0.000000 -0.111249 0.000000 0.000000
# 5 0.000000 0.000000 0.000000 0.000000 0.001311 0.000000
# 6 0.000000 0.000000 0.000000 0.000000 0.000000 0.046559
#
#
# Mechanical properties :
#
#
# Convention : Reuss Voigt Hill
#
# Bulk Modulus (GPa) = 52.77314 89.70167 71.23741
# Shear Modulus (GPa) = -21709.09066 172.18098 -10768.45484
#
# Velocity S-wave (km/s) = -104.51435 9.30781 -73.60915
# Velocity P-wave (km/s) = 120.57271 12.67472 84.78541
#
# Compressibility (1/GPa) = 0.01894903
#
# Stress axis : x y z
#
# Youngs Moduli (GPa) = 60.14357 70.66423 140.60980
#
# Poissons Ratio (x) = 0.00541 0.49979
# Poissons Ratio (y) = 0.00461 0.82110
# Poissons Ratio (z) = 0.21378 0.41265
#
# Static dielectric constant tensor:
#      x y z
#    x 1.754070 0.000000 0.000000 
#    y 0.000000 1.658690 0.000000 
#    z 0.000000 0.000000 1.681690 
# 
# From -- ./inp_files/49114.got.cif
#   From: 2010.05.17/outbox.cif.g08.bks.cpg/sg65_25_cif.got.tgz:49114.got - 2010.06.03 17:01:31.
