data_PCOD9485675
_publ_section_title
;
Structure prediction by ZEFSAII (Michael W. Deem and Ramdas Pophale) SiO2 
 PCOD9485675
Probable space group: C M M M
;
_chemical_formula_sum "Si O2"
_cell_formula_units_Z 104
_cell_length_a 22.806968
_cell_length_b 29.220661
_cell_length_c 9.156143
_cell_angle_alpha 90.000000
_cell_angle_beta 90.000000
_cell_angle_gamma 90.000000
_cell_volume 6101.971234
_symmetry_space_group_name_H-M "C M M M"
_symmetry_group_IT_number 65
_symmetry_cell_setting 'orthorhombic'
loop_
_space_group_symop_operation_xyz
x,y,z
-x,-y,z
x,-y,-z
-x,y,-z
-x,-y,-z
x,y,-z
-x,y,z
x,-y,z
1/2+x,1/2+y,z
1/2-x,1/2-y,z
1/2+x,1/2-y,-z
1/2-x,1/2+y,-z
1/2-x,1/2-y,-z
1/2+x,1/2+y,-z
1/2-x,1/2+y,z
1/2+x,1/2-y,z
loop_
_atom_site_type_symbol
_atom_site_label
_atom_site_fract_x
_atom_site_fract_y
_atom_site_fract_z
Si Si1 0.178526 0.696907 0.176866
Si Si2 0.657799 0.389252 0.670937
Si Si3 0.000000 0.446207 0.821415
Si Si4 0.069917 0.946424 0.837559
Si Si5 0.740230 0.053441 0.824970
Si Si6 0.316642 0.700268 0.175872
Si Si7 0.880057 0.396662 0.177229
O O1 0.247625 0.692617 0.213266
O O2 0.163224 0.748811 0.220692
O O3 0.139033 0.654367 0.228935
O O4 0.176122 0.695900 0.000000
O O5 0.667115 0.385047 0.500000
O O6 0.601748 0.419257 0.712073
O O7 0.712587 0.415304 0.744685
O O8 0.650078 0.340066 0.744936
O O9 0.941343 0.418968 0.773614
O O10 0.000000 0.500000 0.777429
O O11 0.000000 0.446462 0.000000
O O12 0.000000 0.942446 0.830625
O O13 0.084901 0.000000 0.828160
O O14 0.089237 0.930413 0.000000
O O15 0.674787 0.070434 0.788266
O O16 0.747957 0.000000 0.789964
O O17 0.747546 0.059044 0.000000
O O18 0.321199 0.696964 0.000000
O O19 0.883582 0.394303 0.000000
#
# Coordination Sequence:
#
# PCOD9485675 Si02
#       7
#    16  16   8  16  16  16  16
#     4   8  14  26  49  72  90 123 168 215 257 294
#     4  12  23  32  47  75 107 136 162 201 254 303
#     4   9  16  24  38  68 109 139 159 201 262 313
#     4   9  19  37  59  78  97 128 170 208 242 290
#     4  10  19  31  49  71  98 134 172 207 246 298
#     4   9  16  30  51  72  95 126 168 211 254 302
#     4   9  15  26  45  70  99 131 167 207 256 307
#
# _framework density 17.043672000000001
#
# number of rings (size 3 to 8) (size 9 to 14) (size 15 to 20)
#    0.000    2.538    1.538    3.692    0.000    4.615 
#    0.000    2.308    1.692    0.000    0.000    0.538 
#    0.000    1.846    0.000    0.000    0.000    0.000 
#
# Total GULP energy -289762.014042 kJ/mol
# GULP energy per Si atom -5572.346424 kJ/mol
# Density = 1.700488 g / cm^3
# Si number density = 17.043672 Si / 1000 Ang^3
#
#
#
# Elastic Constant Matrix: (Units=GPa)
#
#
# Indices 1 2 3 4 5 6 
#
# 1 40.9000 44.3915 6.8174 0.0000 0.0000 0.0000
# 2 44.3915 125.4710 26.9078 0.0000 0.0000 0.0000
# 3 6.8174 26.9078 20.4082 0.0000 0.0000 0.0000
# 4 0.0000 0.0000 0.0000 -9.4551 0.0000 0.0000
# 5 0.0000 0.0000 0.0000 0.0000 -8.2582 0.0000
# 6 0.0000 0.0000 0.0000 0.0000 0.0000 21.7490
#
#
#
# Elastic Compliance Matrix: (Units=1/GPa)
#
#
# Indices 1 2 3 4 5 6 
#
# 1 0.040493 -0.015930 0.007476 0.000000 0.000000 0.000000
# 2 -0.015930 0.017379 -0.017592 0.000000 0.000000 0.000000
# 3 0.007476 -0.017592 0.069697 0.000000 0.000000 0.000000
# 4 0.000000 0.000000 0.000000 -0.105763 0.000000 0.000000
# 5 0.000000 0.000000 0.000000 0.000000 -0.121092 0.000000
# 6 0.000000 0.000000 0.000000 0.000000 0.000000 0.045979
#
#
# Mechanical properties :
#
#
# Convention : Reuss Voigt Hill
#
# Bulk Modulus (GPa) = 13.24891 38.11251 25.68071
# Shear Modulus (GPa) = 208.82411 8.05130 108.43770
#
# Velocity S-wave (km/s) = 11.08102 2.17582 7.98508
# Velocity P-wave (km/s) = 13.09614 5.35933 10.00578
#
# Compressibility (1/GPa) = 0.07547792
#
# Stress axis : x y z
#
# Youngs Moduli (GPa) = 24.69544 57.54210 14.34781
#
# Poissons Ratio (x) = 0.91663 -0.10727
# Poissons Ratio (y) = 0.39339 0.25241
# Poissons Ratio (z) = -0.18463 1.01228
#
# Static dielectric constant tensor:
#      x y z
#    x 1.576840 0.000000 0.000000 
#    y 0.000000 1.602400 0.000000 
#    z 0.000000 0.000000 1.560800 
# 
# From -- ./inp_files/15061.got.cif
#   From: 2010.05.17/outbox.cif.g08.bks.cpg/sg65_8_cif.got.tgz:15061.got - 2010.06.03 17:01:31.
