data_PCOD9485025
_publ_section_title
;
Structure prediction by ZEFSAII (Michael W. Deem and Ramdas Pophale) SiO2 
 PCOD9485025
Probable space group: C M M M
;
_chemical_formula_sum "Si O2"
_cell_formula_units_Z 104
_cell_length_a 8.959014
_cell_length_b 27.903863
_cell_length_c 26.986127
_cell_angle_alpha 90.000000
_cell_angle_beta 90.000000
_cell_angle_gamma 90.000000
_cell_volume 6746.291554
_symmetry_space_group_name_H-M "C M M M"
_symmetry_group_IT_number 65
_symmetry_cell_setting 'orthorhombic'
loop_
_space_group_symop_operation_xyz
x,y,z
-x,-y,z
x,-y,-z
-x,y,-z
-x,-y,-z
x,y,-z
-x,y,z
x,-y,z
1/2+x,1/2+y,z
1/2-x,1/2-y,z
1/2+x,1/2-y,-z
1/2-x,1/2+y,-z
1/2-x,1/2-y,-z
1/2+x,1/2+y,-z
1/2-x,1/2+y,z
1/2+x,1/2-y,z
loop_
_atom_site_type_symbol
_atom_site_label
_atom_site_fract_x
_atom_site_fract_y
_atom_site_fract_z
Si Si1 0.322098 0.697684 0.057327
Si Si2 0.677630 0.602777 0.698657
Si Si3 0.321569 0.148933 0.850855
Si Si4 0.328424 0.441868 0.500000
Si Si5 0.822031 0.445801 0.792666
Si Si6 0.678409 0.943446 0.603260
Si Si7 0.321285 0.699418 0.756225
O O1 0.500000 0.700578 0.064711
O O2 0.250000 0.750000 0.065202
O O3 0.249219 0.662297 0.096810
O O4 0.293885 0.684139 0.000000
O O5 0.500000 0.597917 0.693745
O O6 0.736552 0.568956 0.742877
O O7 0.755760 0.587136 0.648149
O O8 0.710928 0.656872 0.717094
O O9 0.500000 0.155932 0.851738
O O10 0.289477 0.094554 0.833580
O O11 0.249802 0.182386 0.808312
O O12 0.327551 0.500000 0.500000
O O13 0.500000 0.425874 0.500000
O O14 0.245859 0.427734 0.550499
O O15 0.785710 0.500000 0.807538
O O16 0.000000 0.443274 0.782466
O O17 0.500000 0.939964 0.602030
O O18 0.716755 0.000000 0.610843
O O19 0.500000 0.703447 0.761479
O O20 0.250000 0.750000 0.741969
#
# Coordination Sequence:
#
# PCOD9485025 Si02
#       7
#    16  16  16   8  16  16  16
#     4  10  20  33  49  69  93 119 148 184 226 272
#     4  10  20  31  45  68  94 121 154 190 228 269
#     4  10  19  31  49  70  93 121 151 185 225 269
#     4   9  17  29  45  65  90 121 156 193 231 269
#     4   9  18  32  48  67  92 122 155 188 223 265
#     4  10  19  30  45  66  94 126 157 189 226 270
#     4  10  20  33  48  67  93 122 153 188 226 271
#
# _framework density 15.415877
#
# number of rings (size 3 to 8) (size 9 to 14) (size 15 to 20)
#    0.000    2.231    0.000    3.462    0.000    7.385 
#    0.000    0.000    0.000    0.462    0.000    3.769 
#    0.000    0.000    0.000    0.000    0.000    0.000 
#
# Total GULP energy -290121.930247 kJ/mol
# GULP energy per Si atom -5579.267889 kJ/mol
# Density = 1.538079 g / cm^3
# Si number density = 15.415877 Si / 1000 Ang^3
#
#
#
# Elastic Constant Matrix: (Units=GPa)
#
#
# Indices 1 2 3 4 5 6 
#
# 1 75.1730 53.3125 70.4744 0.0000 0.0000 0.0000
# 2 53.3125 93.4161 65.3892 0.0000 0.0000 0.0000
# 3 70.4744 65.3892 135.1158 0.0000 0.0000 0.0000
# 4 0.0000 0.0000 0.0000 18.9524 0.0000 0.0000
# 5 0.0000 0.0000 0.0000 0.0000 31.7163 0.0000
# 6 0.0000 0.0000 0.0000 0.0000 0.0000 22.2004
#
#
#
# Elastic Compliance Matrix: (Units=1/GPa)
#
#
# Indices 1 2 3 4 5 6 
#
# 1 0.030824 -0.009584 -0.011439 0.000000 0.000000 0.000000
# 2 -0.009584 0.019169 -0.004278 0.000000 0.000000 0.000000
# 3 -0.011439 -0.004278 0.015438 0.000000 0.000000 0.000000
# 4 0.000000 0.000000 0.000000 0.052764 0.000000 0.000000
# 5 0.000000 0.000000 0.000000 0.000000 0.031529 0.000000
# 6 0.000000 0.000000 0.000000 0.000000 0.000000 0.045044
#
#
# Mechanical properties :
#
#
# Convention : Reuss Voigt Hill
#
# Bulk Modulus (GPa) = 67.43779 75.78411 71.61095
# Shear Modulus (GPa) = 19.97509 22.20909 21.09209
#
# Velocity S-wave (km/s) = 3.60355 3.79972 3.70294
# Velocity P-wave (km/s) = 7.82015 8.27750 8.05208
#
# Compressibility (1/GPa) = 0.01482848
#
# Stress axis : x y z
#
# Youngs Moduli (GPa) = 32.44274 52.16830 64.77645
#
# Poissons Ratio (x) = 0.49998 0.74098
# Poissons Ratio (y) = 0.31093 0.27710
# Poissons Ratio (z) = 0.37111 0.22317
#
# Static dielectric constant tensor:
#      x y z
#    x 1.513520 0.000000 0.000000 
#    y 0.000000 1.504980 0.000000 
#    z 0.000000 0.000000 1.490990 
# 
# From -- ./inp_files/68267.got.cif
#   From: 2010.05.17/outbox.cif.g08.bks.cpg/sg65_35_cif.got.tgz:68267.got - 2010.06.03 17:01:31.
