data_PCOD9485060
_publ_section_title
;
Structure prediction by ZEFSAII (Michael W. Deem and Ramdas Pophale) SiO2 
 PCOD9485060
Probable space group: C M M M
;
_chemical_formula_sum "Si O2"
_cell_formula_units_Z 104
_cell_length_a 24.088382
_cell_length_b 25.278763
_cell_length_c 7.731910
_cell_angle_alpha 90.000000
_cell_angle_beta 90.000000
_cell_angle_gamma 90.000000
_cell_volume 4708.149428
_symmetry_space_group_name_H-M "C M M M"
_symmetry_group_IT_number 65
_symmetry_cell_setting 'orthorhombic'
loop_
_space_group_symop_operation_xyz
x,y,z
-x,-y,z
x,-y,-z
-x,y,-z
-x,-y,-z
x,y,-z
-x,y,z
x,-y,z
1/2+x,1/2+y,z
1/2-x,1/2-y,z
1/2+x,1/2-y,-z
1/2-x,1/2+y,-z
1/2-x,1/2-y,-z
1/2+x,1/2+y,-z
1/2-x,1/2+y,z
1/2+x,1/2-y,z
loop_
_atom_site_type_symbol
_atom_site_label
_atom_site_fract_x
_atom_site_fract_y
_atom_site_fract_z
Si Si1 0.647599 0.558699 0.287953
Si Si2 0.500000 0.938790 0.212278
Si Si3 0.111445 0.384724 0.203832
Si Si4 0.601792 0.332592 0.697556
Si Si5 0.276017 0.693467 0.207236
Si Si6 0.729272 0.914582 0.696221
Si Si7 0.938709 0.277969 0.292281
O O1 0.649189 0.562904 0.500000
O O2 0.627757 0.500000 0.243109
O O3 0.609801 0.608081 0.227189
O O4 0.712185 0.564318 0.226668
O O5 0.555970 0.911219 0.278008
O O6 0.500000 0.000000 0.258656
O O7 0.500000 0.935980 0.000000
O O8 0.166388 0.419309 0.240638
O O9 0.107217 0.322388 0.252002
O O10 0.106882 0.384519 0.000000
O O11 0.581526 0.339131 0.500000
O O12 0.665133 0.312459 0.701806
O O13 0.570761 0.281850 0.776663
O O14 0.250000 0.750000 0.234894
O O15 0.237848 0.648164 0.285145
O O16 0.282243 0.684999 0.000000
O O17 0.729696 0.933086 0.500000
O O18 0.939187 0.273464 0.500000
O O19 0.000000 0.296293 0.233311
#
# Coordination Sequence:
#
# PCOD9485060 Si02
#       7
#    16   8  16  16  16  16  16
#     4   8  15  30  51  73  99 132 170 209 250 302
#     4   9  20  38  55  71  97 135 176 217 262 308
#     4  11  21  35  54  76 101 134 174 215 259 304
#     4   9  18  31  49  73  99 133 170 207 258 312
#     4  10  19  30  45  69  99 130 162 201 248 301
#     4  10  20  32  49  73 100 131 165 204 251 303
#     4  10  20  34  53  76 105 138 173 215 261 311
#
# _framework density 22.089357
#
# number of rings (size 3 to 8) (size 9 to 14) (size 15 to 20)
#    0.000    2.385    0.769    3.231    0.000    4.923 
#    0.000    0.000    0.000   14.769    0.000    3.231 
#    0.000    0.000    0.000    6.923    0.000    7.692 
#
# Total GULP energy -289697.802942 kJ/mol
# GULP energy per Si atom -5571.111595 kJ/mol
# Density = 2.203908 g / cm^3
# Si number density = 22.089357 Si / 1000 Ang^3
#
#
#
# Elastic Constant Matrix: (Units=GPa)
#
#
# Indices 1 2 3 4 5 6 
#
# 1 30.9117 -8.7943 -5.6447 0.0000 0.0000 0.0000
# 2 -8.7943 110.1023 2.9687 0.0000 0.0000 0.0000
# 3 -5.6447 2.9687 35.5440 0.0000 0.0000 0.0000
# 4 0.0000 0.0000 0.0000 7.0802 0.0000 0.0000
# 5 0.0000 0.0000 0.0000 0.0000 -20.2065 0.0000
# 6 0.0000 0.0000 0.0000 0.0000 0.0000 21.3746
#
#
#
# Elastic Compliance Matrix: (Units=1/GPa)
#
#
# Indices 1 2 3 4 5 6 
#
# 1 0.034031 0.002578 0.005189 0.000000 0.000000 0.000000
# 2 0.002578 0.009298 -0.000367 0.000000 0.000000 0.000000
# 3 0.005189 -0.000367 0.028989 0.000000 0.000000 0.000000
# 4 0.000000 0.000000 0.000000 0.141239 0.000000 0.000000
# 5 0.000000 0.000000 0.000000 0.000000 -0.049489 0.000000
# 6 0.000000 0.000000 0.000000 0.000000 0.000000 0.046785
#
#
# Mechanical properties :
#
#
# Convention : Reuss Voigt Hill
#
# Bulk Modulus (GPa) = 11.47856 17.06861 14.27359
# Shear Modulus (GPa) = 22.21312 14.18487 18.19900
#
# Velocity S-wave (km/s) = 3.17456 2.53683 2.87345
# Velocity P-wave (km/s) = 4.31797 4.04037 4.18147
#
# Compressibility (1/GPa) = 0.08711894
#
# Stress axis : x y z
#
# Youngs Moduli (GPa) = 29.38468 107.54652 34.49601
#
# Poissons Ratio (x) = -0.27729 -0.17900
# Poissons Ratio (y) = -0.07576 0.01267
# Poissons Ratio (z) = -0.15248 0.03949
#
# Static dielectric constant tensor:
#      x y z
#    x 1.862420 0.000000 0.000000 
#    y 0.000000 1.817170 0.000000 
#    z 0.000000 0.000000 1.830700 
# 
# From -- ./inp_files/14753.got.cif
#   From: 2010.05.17/outbox.cif.g08.bks.cpg/sg65_8_cif.got.tgz:14753.got - 2010.06.03 17:01:31.
