data_PCOD9485368
_publ_section_title
;
Structure prediction by ZEFSAII (Michael W. Deem and Ramdas Pophale) SiO2 
 PCOD9485368
Probable space group: C M M M
;
_chemical_formula_sum "Si O2"
_cell_formula_units_Z 104
_cell_length_a 27.908167
_cell_length_b 8.635679
_cell_length_c 27.764583
_cell_angle_alpha 90.000000
_cell_angle_beta 90.000000
_cell_angle_gamma 90.000000
_cell_volume 6691.430304
_symmetry_space_group_name_H-M "C M M M"
_symmetry_group_IT_number 65
_symmetry_cell_setting 'orthorhombic'
loop_
_space_group_symop_operation_xyz
x,y,z
-x,-y,z
x,-y,-z
-x,y,-z
-x,-y,-z
x,y,-z
-x,y,z
x,-y,z
1/2+x,1/2+y,z
1/2-x,1/2-y,z
1/2+x,1/2-y,-z
1/2-x,1/2+y,-z
1/2-x,1/2-y,-z
1/2+x,1/2+y,-z
1/2-x,1/2+y,z
1/2+x,1/2-y,z
loop_
_atom_site_type_symbol
_atom_site_label
_atom_site_fract_x
_atom_site_fract_y
_atom_site_fract_z
Si Si1 0.695805 0.684473 0.795594
Si Si2 0.600278 0.313420 0.445680
Si Si3 0.304485 0.186243 0.104329
Si Si4 0.301035 0.685260 0.605094
Si Si5 0.553190 0.186535 0.648568
Si Si6 0.804264 0.686471 0.000000
Si Si7 0.849780 0.313808 0.300427
O O1 0.698279 0.500000 0.796035
O O2 0.750000 0.750000 0.791149
O O3 0.674855 0.744237 0.846567
O O4 0.666084 0.744090 0.750158
O O5 0.590157 0.261583 0.500000
O O6 0.596134 0.500000 0.444035
O O7 0.654843 0.274454 0.430145
O O8 0.566383 0.243260 0.404914
O O9 0.250000 0.250000 0.103186
O O10 0.326037 0.231030 0.051982
O O11 0.303602 0.000000 0.108111
O O12 0.298736 0.500000 0.609067
O O13 0.250000 0.750000 0.589015
O O14 0.314805 0.755691 0.657067
O O15 0.500000 0.240021 0.662392
O O16 0.596816 0.236073 0.683092
O O17 0.553466 0.000000 0.648512
O O18 0.750000 0.750000 0.000000
O O19 0.801603 0.500000 0.000000
O O20 0.847766 0.500000 0.298265
#
# Coordination Sequence:
#
# PCOD9485368 Si02
#       7
#    16  16  16  16  16   8  16
#     4  11  20  29  41  60  86 115 148 182 215 250
#     4   9  19  34  49  67  91 116 141 169 202 244
#     4   9  15  24  36  53  77 108 146 183 218 250
#     4  10  19  31  46  64  87 114 144 175 206 243
#     4   9  19  35  53  71  88 107 134 169 210 255
#     4   8  14  22  34  50  72 104 143 184 217 248
#     4  10  19  32  48  64  84 110 139 172 211 254
#
# _framework density 15.542268
#
# number of rings (size 3 to 8) (size 9 to 14) (size 15 to 20)
#    0.000    2.462    0.000    4.154    0.000    3.077 
#    0.000    1.538    0.000    0.000    0.000    0.000 
#    0.000    0.000    0.000    0.692    0.000   15.923 
#
# Total GULP energy -289766.211988 kJ/mol
# GULP energy per Si atom -5572.427154 kJ/mol
# Density = 1.550689 g / cm^3
# Si number density = 15.542268 Si / 1000 Ang^3
#
#
#
# Elastic Constant Matrix: (Units=GPa)
#
#
# Indices 1 2 3 4 5 6 
#
# 1 57.5174 12.7533 20.2395 0.0000 0.0000 0.0000
# 2 12.7533 48.7539 25.8371 0.0000 0.0000 0.0000
# 3 20.2395 25.8371 123.5674 0.0000 0.0000 0.0000
# 4 0.0000 0.0000 0.0000 23.1236 0.0000 0.0000
# 5 0.0000 0.0000 0.0000 0.0000 8.7591 0.0000
# 6 0.0000 0.0000 0.0000 0.0000 0.0000 14.1244
#
#
#
# Elastic Compliance Matrix: (Units=1/GPa)
#
#
# Indices 1 2 3 4 5 6 
#
# 1 0.019038 -0.003742 -0.002336 0.000000 0.000000 0.000000
# 2 -0.003742 0.023803 -0.004364 0.000000 0.000000 0.000000
# 3 -0.002336 -0.004364 0.009388 0.000000 0.000000 0.000000
# 4 0.000000 0.000000 0.000000 0.043246 0.000000 0.000000
# 5 0.000000 0.000000 0.000000 0.000000 0.114166 0.000000
# 6 0.000000 0.000000 0.000000 0.000000 0.000000 0.070799
#
#
# Mechanical properties :
#
#
# Convention : Reuss Voigt Hill
#
# Bulk Modulus (GPa) = 31.90368 38.61096 35.25732
# Shear Modulus (GPa) = 16.03735 20.60201 18.31968
#
# Velocity S-wave (km/s) = 3.21573 3.64476 3.43695
# Velocity P-wave (km/s) = 5.86170 6.52754 6.20356
#
# Compressibility (1/GPa) = 0.03134435
#
# Stress axis : x y z
#
# Youngs Moduli (GPa) = 52.52729 42.01183 106.52082
#
# Poissons Ratio (x) = 0.15721 0.24881
# Poissons Ratio (y) = 0.19656 0.46486
# Poissons Ratio (z) = 0.12269 0.18334
#
# Static dielectric constant tensor:
#      x y z
#    x 1.506450 0.000000 0.000000 
#    y 0.000000 1.522130 0.000000 
#    z 0.000000 0.000000 1.548320 
# 
# From -- ./inp_files/76038.got.cif
#   From: 2010.05.17/outbox.cif.g08.bks.cpg/sg65_39_cif.got.tgz:76038.got - 2010.06.03 17:01:31.
