data_PCOD9485690
_publ_section_title
;
Structure prediction by ZEFSAII (Michael W. Deem and Ramdas Pophale) SiO2 
 PCOD9485690
Probable space group: C M M M
;
_chemical_formula_sum "Si O2"
_cell_formula_units_Z 88
_cell_length_a 9.171321
_cell_length_b 14.700449
_cell_length_c 30.341232
_cell_angle_alpha 90.000000
_cell_angle_beta 90.000000
_cell_angle_gamma 90.000000
_cell_volume 4090.681863
_symmetry_space_group_name_H-M "C M M M"
_symmetry_group_IT_number 65
_symmetry_cell_setting 'orthorhombic'
loop_
_space_group_symop_operation_xyz
x,y,z
-x,-y,z
x,-y,-z
-x,y,-z
-x,-y,-z
x,y,-z
-x,y,z
x,-y,z
1/2+x,1/2+y,z
1/2-x,1/2-y,z
1/2+x,1/2-y,-z
1/2-x,1/2+y,-z
1/2-x,1/2-y,-z
1/2+x,1/2+y,-z
1/2-x,1/2+y,z
1/2+x,1/2-y,z
loop_
_atom_site_type_symbol
_atom_site_label
_atom_site_fract_x
_atom_site_fract_y
_atom_site_fract_z
Si Si1 0.333947 0.611603 0.683698
Si Si2 0.161543 0.606530 0.231115
Si Si3 0.324915 0.348466 0.142955
Si Si4 0.824517 0.849292 0.952507
Si Si5 0.177501 0.393663 0.500000
Si Si6 0.831040 0.388605 0.404282
O O1 0.500000 0.642203 0.687032
O O2 0.334792 0.500000 0.683977
O O3 0.242787 0.643527 0.725970
O O4 0.262377 0.639599 0.637605
O O5 0.143968 0.500000 0.240340
O O6 0.256494 0.611243 0.186960
O O7 0.000000 0.647098 0.224384
O O8 0.500000 0.344396 0.146913
O O9 0.250000 0.250000 0.140828
O O10 0.288900 0.392345 0.095071
O O11 0.750000 0.750000 0.952825
O O12 0.000000 0.838405 0.952196
O O13 0.786072 0.892544 0.000000
O O14 0.219333 0.500000 0.500000
O O15 0.224545 0.357061 0.547621
O O16 0.000000 0.390484 0.500000
O O17 0.830162 0.500000 0.405324
O O18 0.000000 0.361683 0.398739
#
# Coordination Sequence:
#
# PCOD9485690 Si02
#       6
#    16  16  16  16   8  16
#     4   9  16  25  37  54  76 103 138 179 221 265
#     4  10  20  33  48  65  87 118 156 194 230 270
#     4  10  19  31  49  72  97 122 149 184 225 268
#     4   8  14  25  42  65  91 117 145 177 214 258
#     4   7  10  16  27  43  63  91 128 167 206 251
#     4   8  12  19  31  46  66  95 132 171 210 254
#
# _framework density 21.512305999999999
#
# number of rings (size 3 to 8) (size 9 to 14) (size 15 to 20)
#    0.000    3.182    0.000    2.727    0.000    4.000 
#    0.000    0.455    0.000    3.273    0.000    3.818 
#    0.000    0.000    0.000    0.818    0.000   11.273 
#
# Total GULP energy -245137.431585 kJ/mol
# GULP energy per Si atom -5571.305263 kJ/mol
# Density = 2.146334 g / cm^3
# Si number density = 21.512306 Si / 1000 Ang^3
#
#
#
# Elastic Constant Matrix: (Units=GPa)
#
#
# Indices 1 2 3 4 5 6 
#
# 1 105.9893 8.2609 100.9507 0.0000 0.0000 0.0000
# 2 8.2609 50.5406 11.1115 0.0000 0.0000 0.0000
# 3 100.9507 11.1115 261.0943 0.0000 0.0000 0.0000
# 4 0.0000 0.0000 0.0000 -5.8625 0.0000 0.0000
# 5 0.0000 0.0000 0.0000 0.0000 48.0984 0.0000
# 6 0.0000 0.0000 0.0000 0.0000 0.0000 5.7470
#
#
#
# Elastic Compliance Matrix: (Units=1/GPa)
#
#
# Indices 1 2 3 4 5 6 
#
# 1 0.015005 -0.001188 -0.005751 0.000000 0.000000 0.000000
# 2 -0.001188 0.020067 -0.000395 0.000000 0.000000 0.000000
# 3 -0.005751 -0.000395 0.006070 0.000000 0.000000 0.000000
# 4 0.000000 0.000000 0.000000 -0.170576 0.000000 0.000000
# 5 0.000000 0.000000 0.000000 0.000000 0.020791 0.000000
# 6 0.000000 0.000000 0.000000 0.000000 0.000000 0.174003
#
#
# Mechanical properties :
#
#
# Convention : Reuss Voigt Hill
#
# Bulk Modulus (GPa) = 37.77163 73.14116 55.45639
# Shear Modulus (GPa) = 56.27212 29.41665 42.84438
#
# Velocity S-wave (km/s) = 5.12005 3.70189 4.46760
# Velocity P-wave (km/s) = 7.24910 7.23502 7.24206
#
# Compressibility (1/GPa) = 0.02647490
#
# Stress axis : x y z
#
# Youngs Moduli (GPa) = 66.64336 49.83294 164.73188
#
# Poissons Ratio (x) = 0.05921 0.94739
# Poissons Ratio (y) = 0.07919 0.06500
# Poissons Ratio (z) = 0.38327 0.01966
#
# Static dielectric constant tensor:
#      x y z
#    x 1.745310 0.000000 0.000000 
#    y 0.000000 1.883060 0.000000 
#    z 0.000000 0.000000 1.829100 
# 
# From -- ./inp_files/76655.got.cif
#   From: 2010.05.17/outbox.cif.g08.bks.cpg/sg65_39_cif.got.tgz:76655.got - 2010.06.03 17:01:31.
