data_PCOD9485941
_publ_section_title
;
Structure prediction by ZEFSAII (Michael W. Deem and Ramdas Pophale) SiO2 
 PCOD9485941
Probable space group: C M M M
;
_chemical_formula_sum "Si O2"
_cell_formula_units_Z 96
_cell_length_a 25.207178
_cell_length_b 24.605889
_cell_length_c 7.704441
_cell_angle_alpha 90.000000
_cell_angle_beta 90.000000
_cell_angle_gamma 90.000000
_cell_volume 4778.641192
_symmetry_space_group_name_H-M "C M M M"
_symmetry_group_IT_number 65
_symmetry_cell_setting 'orthorhombic'
loop_
_space_group_symop_operation_xyz
x,y,z
-x,-y,z
x,-y,-z
-x,y,-z
-x,-y,-z
x,y,-z
-x,y,z
x,-y,z
1/2+x,1/2+y,z
1/2-x,1/2-y,z
1/2+x,1/2-y,-z
1/2-x,1/2+y,-z
1/2-x,1/2-y,-z
1/2+x,1/2+y,-z
1/2-x,1/2+y,z
1/2+x,1/2-y,z
loop_
_atom_site_type_symbol
_atom_site_label
_atom_site_fract_x
_atom_site_fract_y
_atom_site_fract_z
Si Si1 0.347947 0.142296 0.300849
Si Si2 0.855767 0.061440 0.711852
Si Si3 0.355999 0.261238 0.800289
Si Si4 0.559900 0.353325 0.710034
Si Si5 0.560225 0.062952 0.711992
Si Si6 0.270838 0.650936 0.289892
O O1 0.341459 0.123472 0.500000
O O2 0.363643 0.205549 0.301613
O O3 0.393961 0.103910 0.225550
O O4 0.288706 0.143056 0.222597
O O5 0.855010 0.060428 0.500000
O O6 0.909614 0.091972 0.764785
O O7 0.807792 0.100691 0.765747
O O8 0.851554 0.000000 0.773521
O O9 0.403308 0.303322 0.764905
O O10 0.301860 0.294096 0.760189
O O11 0.355533 0.245784 0.000000
O O12 0.558964 0.353232 0.500000
O O13 0.500000 0.349719 0.773864
O O14 0.559522 0.065125 0.500000
O O15 0.500000 0.076880 0.768394
O O16 0.570762 0.000000 0.759529
O O17 0.269238 0.651830 0.500000
#
# Coordination Sequence:
#
# PCOD9485941 Si02
#       6
#    16  16  16  16  16  16
#     4  10  19  31  51  76  99 128 167 205 242 291
#     4   8  14  26  46  73 101 125 154 198 248 291
#     4  11  22  34  49  70  99 132 166 206 250 294
#     4   9  18  33  52  73  99 132 167 202 243 290
#     4   8  15  29  49  75 105 130 154 192 243 295
#     4   9  18  32  49  71 100 131 164 204 248 293
#
# _framework density 20.089390999999999
#
# number of rings (size 3 to 8) (size 9 to 14) (size 15 to 20)
#    0.000    2.833    0.000    3.500    0.000    4.667 
#    0.000    6.667    0.000    8.500    0.000   10.500 
#    0.000    0.000    0.000    0.000    0.000    0.000 
#
# Total GULP energy -267702.791032 kJ/mol
# GULP energy per Si atom -5577.141480 kJ/mol
# Density = 2.004367 g / cm^3
# Si number density = 20.089391 Si / 1000 Ang^3
#
#
#
# Elastic Constant Matrix: (Units=GPa)
#
#
# Indices 1 2 3 4 5 6 
#
# 1 479.9555 56.3960 21.0959 0.0000 0.0000 0.0000
# 2 56.3960 124.5029 -7.2271 0.0000 0.0000 0.0000
# 3 21.0959 -7.2271 41.3217 0.0000 0.0000 0.0000
# 4 0.0000 0.0000 0.0000 -31.4502 0.0000 0.0000
# 5 0.0000 0.0000 0.0000 0.0000 -5.5756 0.0000
# 6 0.0000 0.0000 0.0000 0.0000 0.0000 26.9106
#
#
#
# Elastic Compliance Matrix: (Units=1/GPa)
#
#
# Indices 1 2 3 4 5 6 
#
# 1 0.002273 -0.001108 -0.001354 0.000000 0.000000 0.000000
# 2 -0.001108 0.008655 0.002080 0.000000 0.000000 0.000000
# 3 -0.001354 0.002080 0.025256 0.000000 0.000000 0.000000
# 4 0.000000 0.000000 0.000000 -0.031796 0.000000 0.000000
# 5 0.000000 0.000000 0.000000 0.000000 -0.179353 0.000000
# 6 0.000000 0.000000 0.000000 0.000000 0.000000 0.037160
#
#
# Mechanical properties :
#
#
# Convention : Reuss Voigt Hill
#
# Bulk Modulus (GPa) = 28.23498 87.36776 57.80137
# Shear Modulus (GPa) = -39.92538 36.34465 -1.79037
#
# Velocity S-wave (km/s) = -4.46285 4.25802 -0.94506
# Velocity P-wave (km/s) = 3.53141 8.23154 5.25773
#
# Compressibility (1/GPa) = 0.03541706
#
# Stress axis : x y z
#
# Youngs Moduli (GPa) = 439.89040 115.54412 39.59528
#
# Poissons Ratio (x) = 0.12806 0.05363
# Poissons Ratio (y) = 0.48755 -0.08234
# Poissons Ratio (z) = 0.59580 -0.24028
#
# Static dielectric constant tensor:
#      x y z
#    x 1.716340 0.000000 0.000000 
#    y 0.000000 1.676170 0.000000 
#    z 0.000000 0.000000 1.739810 
# 
# From -- ./inp_files/14302.got.cif
#   From: 2010.05.17/outbox.cif.g08.bks.cpg/sg65_8_cif.got.tgz:14302.got - 2010.06.03 17:01:31.
