data_PCOD9485498
_publ_section_title
;
Structure prediction by ZEFSAII (Michael W. Deem and Ramdas Pophale) SiO2 
 PCOD9485498
Probable space group: C M M M
;
_chemical_formula_sum "Si O2"
_cell_formula_units_Z 96
_cell_length_a 30.320845
_cell_length_b 20.687273
_cell_length_c 7.535949
_cell_angle_alpha 90.000000
_cell_angle_beta 90.000000
_cell_angle_gamma 90.000000
_cell_volume 4726.966197
_symmetry_space_group_name_H-M "C M M M"
_symmetry_group_IT_number 65
_symmetry_cell_setting 'orthorhombic'
loop_
_space_group_symop_operation_xyz
x,y,z
-x,-y,z
x,-y,-z
-x,y,-z
-x,-y,-z
x,y,-z
-x,y,z
x,-y,z
1/2+x,1/2+y,z
1/2-x,1/2-y,z
1/2+x,1/2-y,-z
1/2-x,1/2+y,-z
1/2-x,1/2-y,-z
1/2+x,1/2+y,-z
1/2-x,1/2+y,z
1/2+x,1/2-y,z
loop_
_atom_site_type_symbol
_atom_site_label
_atom_site_fract_x
_atom_site_fract_y
_atom_site_fract_z
Si Si1 0.671854 0.071983 0.284771
Si Si2 0.551533 0.430714 0.213253
Si Si3 0.123567 0.302712 0.708034
Si Si4 0.294435 0.287811 0.784378
Si Si5 0.775138 0.928642 0.207918
Si Si6 0.950039 0.789520 0.711237
O O1 0.673765 0.075214 0.500000
O O2 0.640972 0.129455 0.217685
O O3 0.722138 0.079662 0.220783
O O4 0.656930 0.000000 0.234804
O O5 0.500000 0.429695 0.271665
O O6 0.570554 0.500000 0.274363
O O7 0.570288 0.361267 0.264313
O O8 0.551726 0.431974 0.000000
O O9 0.114554 0.314336 0.500000
O O10 0.163872 0.252804 0.723188
O O11 0.081132 0.266416 0.785160
O O12 0.250000 0.250000 0.729001
O O13 0.294765 0.361973 0.719350
O O14 0.294338 0.289013 0.000000
O O15 0.785710 0.000000 0.283992
O O16 0.787089 0.931016 0.000000
O O17 0.953042 0.780553 0.500000
O O18 0.000000 0.789061 0.783700
#
# Coordination Sequence:
#
# PCOD9485498 Si02
#       6
#    16  16  16  16  16  16
#     4   9  17  29  46  68  92 118 151 190 229 272
#     4   8  14  26  45  68  91 115 148 191 235 277
#     4  10  20  32  48  70  94 123 157 193 235 279
#     4  10  19  31  47  70  97 123 152 188 229 276
#     4   9  17  30  47  66  92 125 156 185 221 268
#     4   9  18  32  48  67  93 125 160 197 237 280
#
# _framework density 20.309011000000002
#
# number of rings (size 3 to 8) (size 9 to 14) (size 15 to 20)
#    0.000    2.833    1.667    0.500    0.000    2.000 
#    0.000    2.500    0.000    3.500    0.000    3.500 
#    0.000    0.000    0.000    9.833    0.000   10.333 
#
# Total GULP energy -267564.055590 kJ/mol
# GULP energy per Si atom -5574.251158 kJ/mol
# Density = 2.026279 g / cm^3
# Si number density = 20.309011 Si / 1000 Ang^3
#
#
#
# Elastic Constant Matrix: (Units=GPa)
#
#
# Indices 1 2 3 4 5 6 
#
# 1 35.5233 34.6492 -7.6469 0.0000 0.0000 0.0000
# 2 34.6492 179.7049 -1.4950 0.0000 0.0000 0.0000
# 3 -7.6469 -1.4950 49.8566 0.0000 0.0000 0.0000
# 4 0.0000 0.0000 0.0000 25.9445 0.0000 0.0000
# 5 0.0000 0.0000 0.0000 0.0000 23.3047 0.0000
# 6 0.0000 0.0000 0.0000 0.0000 0.0000 21.4566
#
#
#
# Elastic Compliance Matrix: (Units=1/GPa)
#
#
# Indices 1 2 3 4 5 6 
#
# 1 0.036028 -0.006902 0.005319 0.000000 0.000000 0.000000
# 2 -0.006902 0.006888 -0.000852 0.000000 0.000000 0.000000
# 3 0.005319 -0.000852 0.020848 0.000000 0.000000 0.000000
# 4 0.000000 0.000000 0.000000 0.038544 0.000000 0.000000
# 5 0.000000 0.000000 0.000000 0.000000 0.042910 0.000000
# 6 0.000000 0.000000 0.000000 0.000000 0.000000 0.046606
#
#
# Mechanical properties :
#
#
# Convention : Reuss Voigt Hill
#
# Bulk Modulus (GPa) = 16.97988 35.12214 26.05101
# Shear Modulus (GPa) = 23.11329 30.11300 26.61314
#
# Velocity S-wave (km/s) = 3.37720 3.85481 3.62389
# Velocity P-wave (km/s) = 4.85657 6.09460 5.51047
#
# Compressibility (1/GPa) = 0.05889323
#
# Stress axis : x y z
#
# Youngs Moduli (GPa) = 27.75612 145.17052 47.96668
#
# Poissons Ratio (x) = 1.00202 -0.25513
# Poissons Ratio (y) = 0.19158 0.04087
# Poissons Ratio (z) = -0.14763 0.12370
#
# Static dielectric constant tensor:
#      x y z
#    x 1.708240 0.000000 0.000000 
#    y 0.000000 1.769180 0.000000 
#    z 0.000000 0.000000 1.760370 
# 
# From -- ./inp_files/16354.got.cif
#   From: 2010.05.17/outbox.cif.g08.bks.cpg/sg65_9_cif.got.tgz:16354.got - 2010.06.03 17:01:31.
