data_PCOD9485681
_publ_section_title
;
Structure prediction by ZEFSAII (Michael W. Deem and Ramdas Pophale) SiO2 
 PCOD9485681
Probable space group: C M M M
;
_chemical_formula_sum "Si O2"
_cell_formula_units_Z 88
_cell_length_a 28.069161
_cell_length_b 8.543784
_cell_length_c 19.308119
_cell_angle_alpha 90.000000
_cell_angle_beta 90.000000
_cell_angle_gamma 90.000000
_cell_volume 4630.412252
_symmetry_space_group_name_H-M "C M M M"
_symmetry_group_IT_number 65
_symmetry_cell_setting 'orthorhombic'
loop_
_space_group_symop_operation_xyz
x,y,z
-x,-y,z
x,-y,-z
-x,y,-z
-x,-y,-z
x,y,-z
-x,y,z
x,-y,z
1/2+x,1/2+y,z
1/2-x,1/2-y,z
1/2+x,1/2-y,-z
1/2-x,1/2+y,-z
1/2-x,1/2-y,-z
1/2+x,1/2+y,-z
1/2-x,1/2+y,z
1/2+x,1/2-y,z
loop_
_atom_site_type_symbol
_atom_site_label
_atom_site_fract_x
_atom_site_fract_y
_atom_site_fract_z
Si Si1 0.445647 0.813114 0.300776
Si Si2 0.405377 0.189485 0.156537
Si Si3 0.199865 0.811636 0.327080
Si Si4 0.611602 0.311936 0.421503
Si Si5 0.500000 0.312920 0.080859
Si Si6 0.699105 0.812485 0.830252
O O1 0.500000 0.778639 0.281984
O O2 0.413584 0.759078 0.236389
O O3 0.431965 0.738471 0.373417
O O4 0.440272 0.000000 0.306841
O O5 0.451026 0.249857 0.114602
O O6 0.351473 0.236677 0.135410
O O7 0.407262 0.000000 0.155039
O O8 0.250000 0.750000 0.355148
O O9 0.157783 0.759885 0.377917
O O10 0.195576 0.742653 0.249767
O O11 0.200006 0.000000 0.322157
O O12 0.610145 0.252065 0.500000
O O13 0.613086 0.500000 0.424448
O O14 0.500000 0.500000 0.087829
O O15 0.500000 0.270409 0.000000
O O16 0.750000 0.750000 0.857556
O O17 0.701153 0.000000 0.831453
#
# Coordination Sequence:
#
# PCOD9485681 Si02
#       6
#    16  16  16  16   8  16
#     4  10  20  36  56  78 104 135 181 232 277 331
#     4  10  20  37  61  87 117 155 192 231 277 334
#     4  10  19  31  49  72 101 137 180 229 283 335
#     4  10  22  37  50  69 101 140 183 232 286 342
#     4  11  25  41  61  95 130 155 184 225 273 326
#     4  10  19  32  54  84 116 147 188 236 283 333
#
# _framework density 19.004788000000001
#
# number of rings (size 3 to 8) (size 9 to 14) (size 15 to 20)
#    0.000    1.909    2.727    2.455    0.000    5.091 
#    0.000    1.818    0.000    0.545    0.000    0.000 
#    0.000    0.000    0.000    0.000    0.000    0.000 
#
# Total GULP energy -245375.361663 kJ/mol
# GULP energy per Si atom -5576.712765 kJ/mol
# Density = 1.896153 g / cm^3
# Si number density = 19.004788 Si / 1000 Ang^3
#
#
#
# Elastic Constant Matrix: (Units=GPa)
#
#
# Indices 1 2 3 4 5 6 
#
# 1 135.8675 34.3559 45.0076 0.0000 0.0000 0.0000
# 2 34.3559 18.4666 7.8878 0.0000 0.0000 0.0000
# 3 45.0076 7.8878 54.1572 0.0000 0.0000 0.0000
# 4 0.0000 0.0000 0.0000 17.9903 0.0000 0.0000
# 5 0.0000 0.0000 0.0000 0.0000 8.7471 0.0000
# 6 0.0000 0.0000 0.0000 0.0000 0.0000 29.3997
#
#
#
# Elastic Compliance Matrix: (Units=1/GPa)
#
#
# Indices 1 2 3 4 5 6 
#
# 1 0.018575 -0.029820 -0.011094 0.000000 0.000000 0.000000
# 2 -0.029820 0.105614 0.009399 0.000000 0.000000 0.000000
# 3 -0.011094 0.009399 0.026316 0.000000 0.000000 0.000000
# 4 0.000000 0.000000 0.000000 0.055585 0.000000 0.000000
# 5 0.000000 0.000000 0.000000 0.000000 0.114323 0.000000
# 6 0.000000 0.000000 0.000000 0.000000 0.000000 0.034014
#
#
# Mechanical properties :
#
#
# Convention : Reuss Voigt Hill
#
# Bulk Modulus (GPa) = 11.43162 42.55488 26.99325
# Shear Modulus (GPa) = 11.19530 19.31010 15.25270
#
# Velocity S-wave (km/s) = 2.42973 3.19104 2.83604
# Velocity P-wave (km/s) = 3.72822 6.00143 4.99584
#
# Compressibility (1/GPa) = 0.08747666
#
# Stress axis : x y z
#
# Youngs Moduli (GPa) = 53.83456 9.46841 38.00033
#
# Poissons Ratio (x) = 0.28234 0.42158
# Poissons Ratio (y) = 1.60533 -0.35718
# Poissons Ratio (z) = 0.59724 -0.08900
#
# Static dielectric constant tensor:
#      x y z
#    x 1.713280 0.000000 0.000000 
#    y 0.000000 1.650790 0.000000 
#    z 0.000000 0.000000 1.638180 
# 
# From -- ./inp_files/66238.got.cif
#   From: 2010.05.17/outbox.cif.g08.bks.cpg/sg65_34_cif.got.tgz:66238.got - 2010.06.03 17:01:31.
