data_PCOD9485984
_publ_section_title
;
Structure prediction by ZEFSAII (Michael W. Deem and Ramdas Pophale) SiO2 
 PCOD9485984
Probable space group: C M M M
;
_chemical_formula_sum "Si O2"
_cell_formula_units_Z 104
_cell_length_a 28.037194
_cell_length_b 26.836200
_cell_length_c 7.694693
_cell_angle_alpha 90.000000
_cell_angle_beta 90.000000
_cell_angle_gamma 90.000000
_cell_volume 5789.577392
_symmetry_space_group_name_H-M "C M M M"
_symmetry_group_IT_number 65
_symmetry_cell_setting 'orthorhombic'
loop_
_space_group_symop_operation_xyz
x,y,z
-x,-y,z
x,-y,-z
-x,y,-z
-x,-y,-z
x,y,-z
-x,y,z
x,-y,z
1/2+x,1/2+y,z
1/2-x,1/2-y,z
1/2+x,1/2-y,-z
1/2-x,1/2+y,-z
1/2-x,1/2-y,-z
1/2+x,1/2+y,-z
1/2-x,1/2+y,z
1/2+x,1/2-y,z
loop_
_atom_site_type_symbol
_atom_site_label
_atom_site_fract_x
_atom_site_fract_y
_atom_site_fract_z
Si Si1 0.946518 0.121890 0.000000
Si Si2 0.148334 0.940931 0.000000
Si Si3 0.772947 0.302402 0.712305
Si Si4 0.811012 0.873355 0.702835
Si Si5 0.445537 0.891398 0.205460
Si Si6 0.054325 0.500000 0.706847
Si Si7 0.619311 0.798619 0.704863
Si Si8 0.406823 0.690598 0.703399
O O1 0.905752 0.079944 0.000000
O O2 0.937553 0.156417 0.830842
O O3 0.000000 0.102183 0.000000
O O4 0.173502 0.917176 0.830680
O O5 0.150009 0.000000 0.000000
O O6 0.772792 0.302376 0.500000
O O7 0.750000 0.250000 0.767580
O O8 0.737853 0.347165 0.761507
O O9 0.827267 0.306507 0.774852
O O10 0.807440 0.888411 0.500000
O O11 0.852974 0.831625 0.711471
O O12 0.500000 0.889714 0.277231
O O13 0.413222 0.846903 0.273831
O O14 0.424918 0.946723 0.239632
O O15 0.448476 0.884992 0.000000
O O16 0.052153 0.500000 0.500000
O O17 0.000000 0.500000 0.779787
O O18 0.625385 0.789008 0.500000
O O19 0.595349 0.747530 0.769202
O O20 0.421898 0.688401 0.500000
#
# Coordination Sequence:
#
# PCOD9485984 Si02
#       8
#     8   8  16  16  16   8  16  16
#     4  10  22  37  55  79 108 143 183 228 282 335
#     4  10  22  39  58  82 107 139 192 239 273 328
#     4   9  15  29  55  82 108 140 173 211 261 317
#     4   9  17  34  58  82 110 142 176 218 274 330
#     4  10  21  35  50  70 100 137 175 217 264 310
#     4   9  17  33  57  75  87 117 171 225 263 301
#     4  10  19  31  51  79 108 139 177 217 260 316
#     4   9  18  33  53  78 110 145 176 213 266 330
#
# _framework density 17.963312999999999
#
# number of rings (size 3 to 8) (size 9 to 14) (size 15 to 20)
#    0.000    2.538    1.538    0.692    1.077    3.231 
#    1.385    1.923    1.692    0.000    0.000    4.308 
#    0.000    0.000    0.000    0.000    0.000    0.000 
#
# Total GULP energy -289943.345572 kJ/mol
# GULP energy per Si atom -5575.833569 kJ/mol
# Density = 1.792243 g / cm^3
# Si number density = 17.963313 Si / 1000 Ang^3
#
#
#
# Elastic Constant Matrix: (Units=GPa)
#
#
# Indices 1 2 3 4 5 6 
#
# 1 74.3298 47.0899 16.8949 0.0000 0.0000 0.0000
# 2 47.0899 148.3760 27.1106 0.0000 0.0000 0.0000
# 3 16.8949 27.1106 60.1170 0.0000 0.0000 0.0000
# 4 0.0000 0.0000 0.0000 22.3387 0.0000 0.0000
# 5 0.0000 0.0000 0.0000 0.0000 19.0187 0.0000
# 6 0.0000 0.0000 0.0000 0.0000 0.0000 13.8458
#
#
#
# Elastic Compliance Matrix: (Units=1/GPa)
#
#
# Indices 1 2 3 4 5 6 
#
# 1 0.017200 -0.004986 -0.002585 0.000000 0.000000 0.000000
# 2 -0.004986 0.008790 -0.002563 0.000000 0.000000 0.000000
# 3 -0.002585 -0.002563 0.018516 0.000000 0.000000 0.000000
# 4 0.000000 0.000000 0.000000 0.044765 0.000000 0.000000
# 5 0.000000 0.000000 0.000000 0.000000 0.052580 0.000000
# 6 0.000000 0.000000 0.000000 0.000000 0.000000 0.072224
#
#
# Mechanical properties :
#
#
# Convention : Reuss Voigt Hill
#
# Bulk Modulus (GPa) = 41.25695 51.66818 46.46257
# Shear Modulus (GPa) = 20.62499 23.82247 22.22373
#
# Velocity S-wave (km/s) = 3.39215 3.64562 3.52116
# Velocity P-wave (km/s) = 6.19350 6.82249 6.51559
#
# Compressibility (1/GPa) = 0.02423834
#
# Stress axis : x y z
#
# Youngs Moduli (GPa) = 58.13891 113.75980 54.00593
#
# Poissons Ratio (x) = 0.56726 0.13961
# Poissons Ratio (y) = 0.28991 0.13841
# Poissons Ratio (z) = 0.15030 0.29155
#
# Static dielectric constant tensor:
#      x y z
#    x 1.624720 0.000000 0.000000 
#    y 0.000000 1.595410 0.000000 
#    z 0.000000 0.000000 1.646540 
# 
# From -- ./inp_files/16835.got.cif
#   From: 2010.05.17/outbox.cif.g08.bks.cpg/sg65_9_cif.got.tgz:16835.got - 2010.06.03 17:01:31.
