data_PCOD9485135
_publ_section_title
;
Structure prediction by ZEFSAII (Michael W. Deem and Ramdas Pophale) SiO2 
 PCOD9485135
Probable space group: C M M M
;
_chemical_formula_sum "Si O2"
_cell_formula_units_Z 112
_cell_length_a 19.424564
_cell_length_b 18.297496
_cell_length_c 19.265333
_cell_angle_alpha 90.000000
_cell_angle_beta 90.000000
_cell_angle_gamma 90.000000
_cell_volume 6847.301649
_symmetry_space_group_name_H-M "C M M M"
_symmetry_group_IT_number 65
_symmetry_cell_setting 'orthorhombic'
loop_
_space_group_symop_operation_xyz
x,y,z
-x,-y,z
x,-y,-z
-x,y,-z
-x,-y,-z
x,y,-z
-x,y,z
x,-y,z
1/2+x,1/2+y,z
1/2-x,1/2-y,z
1/2+x,1/2-y,-z
1/2-x,1/2+y,-z
1/2-x,1/2-y,-z
1/2+x,1/2+y,-z
1/2-x,1/2+y,z
1/2+x,1/2-y,z
loop_
_atom_site_type_symbol
_atom_site_label
_atom_site_fract_x
_atom_site_fract_y
_atom_site_fract_z
Si Si1 0.079548 0.160749 0.791546
Si Si2 0.151811 0.087833 0.079235
Si Si3 0.785533 0.411054 0.421855
Si Si4 0.699326 0.412615 0.709917
Si Si5 0.577352 0.087209 0.656735
Si Si6 0.791384 0.413639 0.154024
Si Si7 0.077928 0.665628 0.194300
O O1 0.103503 0.125941 0.864511
O O2 0.131008 0.128420 0.734137
O O3 0.086832 0.247909 0.796698
O O4 0.000000 0.143197 0.777423
O O5 0.230934 0.104885 0.099852
O O6 0.144647 0.000000 0.086634
O O7 0.137046 0.107937 0.000000
O O8 0.772569 0.385254 0.500000
O O9 0.783922 0.500000 0.422830
O O10 0.730731 0.388465 0.363420
O O11 0.861501 0.390581 0.394527
O O12 0.686662 0.500000 0.708438
O O13 0.756250 0.400725 0.770403
O O14 0.500000 0.099974 0.629233
O O15 0.583321 0.127609 0.730189
O O16 0.584516 0.000000 0.669408
O O17 0.806447 0.500000 0.148903
O O18 0.860877 0.367918 0.148911
O O19 0.000000 0.651705 0.168379
#
# Coordination Sequence:
#
# PCOD9485135 Si02
#       7
#    16  16  16  16  16  16  16
#     4  10  21  34  49  72  99 126 161 205 249 290
#     4   9  19  35  55  78 100 124 156 196 246 299
#     4   9  16  27  45  71 101 127 157 204 253 293
#     4   9  17  30  48  70  94 123 160 199 244 294
#     4   9  16  27  45  69  98 132 167 202 243 288
#     4   9  16  30  51  73  98 127 161 197 234 281
#     4  10  19  30  46  71 100 130 166 201 236 277
#
# _framework density 16.356808999999998
#
# number of rings (size 3 to 8) (size 9 to 14) (size 15 to 20)
#    0.000    2.714    1.429    1.714    0.000    4.857 
#    0.000    3.571    0.000    3.429    0.000    6.000 
#    0.000    0.000    0.000    0.000    0.000    0.000 
#
# Total GULP energy -312075.517342 kJ/mol
# GULP energy per Si atom -5572.777095 kJ/mol
# Density = 1.631958 g / cm^3
# Si number density = 16.356809 Si / 1000 Ang^3
#
#
#
# Elastic Constant Matrix: (Units=GPa)
#
#
# Indices 1 2 3 4 5 6 
#
# 1 129.0515 47.4043 38.2844 0.0000 0.0000 0.0000
# 2 47.4043 29.9924 19.7749 0.0000 0.0000 0.0000
# 3 38.2844 19.7749 82.4124 0.0000 0.0000 0.0000
# 4 0.0000 0.0000 0.0000 5.4714 0.0000 0.0000
# 5 0.0000 0.0000 0.0000 0.0000 15.7503 0.0000
# 6 0.0000 0.0000 0.0000 0.0000 0.0000 15.5761
#
#
#
# Elastic Compliance Matrix: (Units=1/GPa)
#
#
# Indices 1 2 3 4 5 6 
#
# 1 0.018721 -0.028339 -0.001897 0.000000 0.000000 0.000000
# 2 -0.028339 0.082506 -0.006633 0.000000 0.000000 0.000000
# 3 -0.001897 -0.006633 0.014607 0.000000 0.000000 0.000000
# 4 0.000000 0.000000 0.000000 0.182769 0.000000 0.000000
# 5 0.000000 0.000000 0.000000 0.000000 0.063491 0.000000
# 6 0.000000 0.000000 0.000000 0.000000 0.000000 0.064201
#
#
# Mechanical properties :
#
#
# Convention : Reuss Voigt Hill
#
# Bulk Modulus (GPa) = 23.75466 50.26485 37.00976
# Shear Modulus (GPa) = 9.72640 16.42573 13.07607
#
# Velocity S-wave (km/s) = 2.44117 3.17237 2.83048
# Velocity P-wave (km/s) = 4.74342 6.64948 5.77562
#
# Compressibility (1/GPa) = 0.04209700
#
# Stress axis : x y z
#
# Youngs Moduli (GPa) = 53.41471 12.12028 68.46135
#
# Poissons Ratio (x) = 0.34348 0.12987
# Poissons Ratio (y) = 1.51374 0.45407
# Poissons Ratio (z) = 0.10132 0.08039
#
# Static dielectric constant tensor:
#      x y z
#    x 1.561010 0.000000 0.000000 
#    y 0.000000 1.535590 0.000000 
#    z 0.000000 0.000000 1.539030 
# 
# From -- ./inp_files/63960.got.cif
#   From: 2010.05.17/outbox.cif.g08.bks.cpg/sg65_32_cif.got.tgz:63960.got - 2010.06.03 17:01:31.
