data_PCOD9485203
_publ_section_title
;
Structure prediction by ZEFSAII (Michael W. Deem and Ramdas Pophale) SiO2 
 PCOD9485203
Probable space group: C M M M
;
_chemical_formula_sum "Si O2"
_cell_formula_units_Z 96
_cell_length_a 30.504472
_cell_length_b 19.686346
_cell_length_c 7.389282
_cell_angle_alpha 90.000000
_cell_angle_beta 90.000000
_cell_angle_gamma 90.000000
_cell_volume 4437.423378
_symmetry_space_group_name_H-M "C M M M"
_symmetry_group_IT_number 65
_symmetry_cell_setting 'orthorhombic'
loop_
_space_group_symop_operation_xyz
x,y,z
-x,-y,z
x,-y,-z
-x,y,-z
-x,-y,-z
x,y,-z
-x,y,z
x,-y,z
1/2+x,1/2+y,z
1/2-x,1/2-y,z
1/2+x,1/2-y,-z
1/2-x,1/2+y,-z
1/2-x,1/2-y,-z
1/2+x,1/2+y,-z
1/2-x,1/2+y,z
1/2+x,1/2-y,z
loop_
_atom_site_type_symbol
_atom_site_label
_atom_site_fract_x
_atom_site_fract_y
_atom_site_fract_z
Si Si1 0.049888 0.079464 0.779929
Si Si2 0.672280 0.924896 0.280045
Si Si3 0.704265 0.777680 0.286505
Si Si4 0.622639 0.317073 0.799009
Si Si5 0.930741 0.572231 0.719489
Si Si6 0.953418 0.280898 0.280302
O O1 0.091463 0.124032 0.713662
O O2 0.000000 0.097508 0.718586
O O3 0.056188 0.000000 0.737806
O O4 0.049498 0.086332 0.000000
O O5 0.675060 0.924866 0.500000
O O6 0.691829 0.853008 0.214806
O O7 0.620690 0.923510 0.235888
O O8 0.689374 0.000000 0.221396
O O9 0.710485 0.788646 0.500000
O O10 0.750000 0.750000 0.210878
O O11 0.666265 0.720248 0.272261
O O12 0.587501 0.256544 0.801204
O O13 0.634194 0.341090 0.000000
O O14 0.934030 0.571697 0.500000
O O15 0.947861 0.500000 0.784349
O O16 0.952612 0.641187 0.777563
O O17 0.949380 0.278036 0.500000
O O18 0.000000 0.249947 0.228846
#
# Coordination Sequence:
#
# PCOD9485203 Si02
#       6
#    16  16  16  16  16  16
#     4   8  15  30  52  76 101 133 174 210 241 295
#     4   8  13  25  48  72  93 124 168 209 240 283
#     4  10  20  35  55  77 101 131 168 213 264 313
#     4  11  21  33  52  76 103 133 165 209 257 303
#     4   8  13  23  42  67  93 124 165 208 239 270
#     4  10  19  30  47  72 102 134 167 205 246 290
#
# _framework density 21.634177000000001
#
# number of rings (size 3 to 8) (size 9 to 14) (size 15 to 20)
#    0.000    2.833    1.667    2.500    0.000    1.667 
#    0.000    2.500    0.000    5.000    0.000    7.000 
#    0.000    0.000    0.000    0.000    0.000    0.000 
#
# Total GULP energy -267414.517366 kJ/mol
# GULP energy per Si atom -5571.135778 kJ/mol
# Density = 2.158494 g / cm^3
# Si number density = 21.634177 Si / 1000 Ang^3
#
#
#
# Elastic Constant Matrix: (Units=GPa)
#
#
# Indices 1 2 3 4 5 6 
#
# 1 137.9125 76.4994 2.7937 0.0000 0.0000 0.0000
# 2 76.4994 177.0272 -1.5308 0.0000 0.0000 0.0000
# 3 2.7937 -1.5308 69.4009 0.0000 0.0000 0.0000
# 4 0.0000 0.0000 0.0000 5.9999 0.0000 0.0000
# 5 0.0000 0.0000 0.0000 0.0000 11.4627 0.0000
# 6 0.0000 0.0000 0.0000 0.0000 0.0000 29.8149
#
#
#
# Elastic Compliance Matrix: (Units=1/GPa)
#
#
# Indices 1 2 3 4 5 6 
#
# 1 0.009553 -0.004132 -0.000476 0.000000 0.000000 0.000000
# 2 -0.004132 0.007437 0.000330 0.000000 0.000000 0.000000
# 3 -0.000476 0.000330 0.014435 0.000000 0.000000 0.000000
# 4 0.000000 0.000000 0.000000 0.166670 0.000000 0.000000
# 5 0.000000 0.000000 0.000000 0.000000 0.087240 0.000000
# 6 0.000000 0.000000 0.000000 0.000000 0.000000 0.033540
#
#
# Mechanical properties :
#
#
# Convention : Reuss Voigt Hill
#
# Bulk Modulus (GPa) = 43.72424 59.98502 51.85463
# Shear Modulus (GPa) = 14.92297 29.89405 22.40851
#
# Velocity S-wave (km/s) = 2.62923 3.72129 3.22186
# Velocity P-wave (km/s) = 5.42879 6.80082 6.15316
#
# Compressibility (1/GPa) = 0.02287061
#
# Stress axis : x y z
#
# Youngs Moduli (GPa) = 104.68248 134.45652 69.27381
#
# Poissons Ratio (x) = 0.55560 0.03295
# Poissons Ratio (y) = 0.43256 -0.02289
# Poissons Ratio (z) = 0.04980 -0.04442
#
# Static dielectric constant tensor:
#      x y z
#    x 1.745460 0.000000 0.000000 
#    y 0.000000 1.826590 0.000000 
#    z 0.000000 0.000000 1.899510 
# 
# From -- ./inp_files/16299.got.cif
#   From: 2010.05.17/outbox.cif.g08.bks.cpg/sg65_9_cif.got.tgz:16299.got - 2010.06.03 17:01:31.
