data_PCOD9485245
_publ_section_title
;
Structure prediction by ZEFSAII (Michael W. Deem and Ramdas Pophale) SiO2 
 PCOD9485245
Probable space group: C M M M
;
_chemical_formula_sum "Si O2"
_cell_formula_units_Z 80
_cell_length_a 27.855500
_cell_length_b 19.251514
_cell_length_c 8.054903
_cell_angle_alpha 90.000000
_cell_angle_beta 90.000000
_cell_angle_gamma 90.000000
_cell_volume 4319.526699
_symmetry_space_group_name_H-M "C M M M"
_symmetry_group_IT_number 65
_symmetry_cell_setting 'orthorhombic'
loop_
_space_group_symop_operation_xyz
x,y,z
-x,-y,z
x,-y,-z
-x,y,-z
-x,-y,-z
x,y,-z
-x,y,z
x,-y,z
1/2+x,1/2+y,z
1/2-x,1/2-y,z
1/2+x,1/2-y,-z
1/2-x,1/2+y,-z
1/2-x,1/2-y,-z
1/2+x,1/2+y,-z
1/2-x,1/2+y,z
1/2+x,1/2-y,z
loop_
_atom_site_type_symbol
_atom_site_label
_atom_site_fract_x
_atom_site_fract_y
_atom_site_fract_z
Si Si1 0.553312 0.642011 0.695101
Si Si2 0.152882 0.077120 0.197951
Si Si3 0.799702 0.783104 0.202849
Si Si4 0.900341 0.279857 0.803828
Si Si5 0.944053 0.422856 0.299575
O O1 0.553569 0.626160 0.500000
O O2 0.500000 0.626443 0.761779
O O3 0.597986 0.601351 0.773711
O O4 0.564928 0.723744 0.718349
O O5 0.187341 0.138882 0.260956
O O6 0.160807 0.000000 0.267196
O O7 0.160114 0.074109 0.000000
O O8 0.750000 0.750000 0.261512
O O9 0.845996 0.737239 0.249367
O O10 0.797874 0.784678 0.000000
O O11 0.914834 0.358306 0.768590
O O12 0.903571 0.265929 0.000000
O O13 0.942189 0.420789 0.500000
O O14 0.927919 0.500000 0.246460
O O15 0.000000 0.415310 0.251446
#
# Coordination Sequence:
#
# PCOD9485245 Si02
#       5
#    16  16  16  16  16
#     4  10  20  32  47  68  95 129 163 190 225 280
#     4   9  18  32  50  72  96 123 157 197 239 278
#     4   8  15  30  50  70  93 121 154 193 237 284
#     4  10  19  30  48  73  96 120 156 201 242 278
#     4   9  18  32  48  66  93 131 166 192 228 282
#
# _framework density 18.520547000000001
#
# number of rings (size 3 to 8) (size 9 to 14) (size 15 to 20)
#    0.000    2.800    0.000    3.600    0.000    5.600 
#    0.000    4.000    0.000   18.600    0.000    0.000 
#    0.000    0.000    0.000    0.000    0.000    0.000 
#
# Total GULP energy -222999.199797 kJ/mol
# GULP energy per Si atom -5574.979995 kJ/mol
# Density = 1.847839 g / cm^3
# Si number density = 18.520547 Si / 1000 Ang^3
#
#
#
# Elastic Constant Matrix: (Units=GPa)
#
#
# Indices 1 2 3 4 5 6 
#
# 1 107.4887 66.6812 2.5325 0.0000 0.0000 0.0000
# 2 66.6812 152.3704 0.8486 0.0000 0.0000 0.0000
# 3 2.5325 0.8486 11.9387 0.0000 0.0000 0.0000
# 4 0.0000 0.0000 0.0000 20.0913 0.0000 0.0000
# 5 0.0000 0.0000 0.0000 0.0000 31.9443 0.0000
# 6 0.0000 0.0000 0.0000 0.0000 0.0000 11.5393
#
#
#
# Elastic Compliance Matrix: (Units=1/GPa)
#
#
# Indices 1 2 3 4 5 6 
#
# 1 0.012834 -0.005604 -0.002324 0.000000 0.000000 0.000000
# 2 -0.005604 0.009012 0.000548 0.000000 0.000000 0.000000
# 3 -0.002324 0.000548 0.084215 0.000000 0.000000 0.000000
# 4 0.000000 0.000000 0.000000 0.049773 0.000000 0.000000
# 5 0.000000 0.000000 0.000000 0.000000 0.031304 0.000000
# 6 0.000000 0.000000 0.000000 0.000000 0.000000 0.086660
#
#
# Mechanical properties :
#
#
# Convention : Reuss Voigt Hill
#
# Bulk Modulus (GPa) = 10.95264 45.76915 28.36090
# Shear Modulus (GPa) = 15.67434 26.16403 20.91919
#
# Velocity S-wave (km/s) = 2.91232 3.76267 3.36447
# Velocity P-wave (km/s) = 4.15155 6.60630 5.51718
#
# Compressibility (1/GPa) = 0.09130219
#
# Stress axis : x y z
#
# Youngs Moduli (GPa) = 77.91598 110.96050 11.87435
#
# Poissons Ratio (x) = 0.62179 0.02760
# Poissons Ratio (y) = 0.43662 -0.00651
# Poissons Ratio (z) = 0.18109 -0.06081
#
# Static dielectric constant tensor:
#      x y z
#    x 1.621930 0.000000 0.000000 
#    y 0.000000 1.652970 0.000000 
#    z 0.000000 0.000000 1.665510 
# 
# From -- ./inp_files/9884.got.cif
#   From: 2010.05.17/outbox.cif.g08.bks.cpg/sg65_5_cif.got.tgz:9884.got - 2010.06.03 17:01:31.
