data_PCOD9485133
_publ_section_title
;
Structure prediction by ZEFSAII (Michael W. Deem and Ramdas Pophale) SiO2 
 PCOD9485133
Probable space group: C M M M
;
_chemical_formula_sum "Si O2"
_cell_formula_units_Z 104
_cell_length_a 8.962476
_cell_length_b 24.013345
_cell_length_c 28.480666
_cell_angle_alpha 90.000000
_cell_angle_beta 90.000000
_cell_angle_gamma 90.000000
_cell_volume 6129.581260
_symmetry_space_group_name_H-M "C M M M"
_symmetry_group_IT_number 65
_symmetry_cell_setting 'orthorhombic'
loop_
_space_group_symop_operation_xyz
x,y,z
-x,-y,z
x,-y,-z
-x,y,-z
-x,-y,-z
x,y,-z
-x,y,z
x,-y,z
1/2+x,1/2+y,z
1/2-x,1/2-y,z
1/2+x,1/2-y,-z
1/2-x,1/2+y,-z
1/2-x,1/2-y,-z
1/2+x,1/2+y,-z
1/2-x,1/2+y,z
1/2+x,1/2-y,z
loop_
_atom_site_type_symbol
_atom_site_label
_atom_site_fract_x
_atom_site_fract_y
_atom_site_fract_z
Si Si1 0.752516 0.500000 0.448387
Si Si2 0.329986 0.127586 0.551571
Si Si3 0.671765 0.567720 0.096367
Si Si4 0.323659 0.067045 0.806074
Si Si5 0.675605 0.310035 0.363624
Si Si6 0.822602 0.901155 0.288620
Si Si7 0.672649 0.067909 0.000000
Si Si8 0.319351 0.000000 0.347247
O O1 0.671169 0.500000 0.500000
O O2 0.831544 0.439811 0.448889
O O3 0.710318 0.500000 0.393180
O O4 0.273035 0.144988 0.500000
O O5 0.500000 0.146848 0.556648
O O6 0.236072 0.151793 0.593967
O O7 0.500000 0.585562 0.099787
O O8 0.672395 0.500000 0.095356
O O9 0.763958 0.583526 0.142622
O O10 0.745739 0.586284 0.047596
O O11 0.500000 0.077577 0.801764
O O12 0.232312 0.096342 0.764725
O O13 0.301233 0.000000 0.800999
O O14 0.500000 0.303609 0.369581
O O15 0.750000 0.250000 0.364625
O O16 0.702909 0.343063 0.315232
O O17 0.724993 0.946567 0.316760
O O18 0.000000 0.914329 0.291537
O O19 0.500000 0.084580 0.000000
O O20 0.675927 0.000000 0.000000
O O21 0.500000 0.000000 0.358016
#
# Coordination Sequence:
#
# PCOD9485133 Si02
#       8
#     8  16  16  16  16  16   8   8
#     4  10  20  34  56  86 114 138 165 198 244 302
#     4  10  20  36  59  84 109 136 165 200 243 295
#     4   9  16  25  38  57  86 125 167 210 256 297
#     4  10  19  30  46  70  97 128 168 206 249 302
#     4  11  25  42  59  77  99 130 169 210 253 302
#     4  11  23  37  53  75 104 131 162 207 257 304
#     4   9  15  23  35  53  81 121 170 217 252 291
#     4  12  21  32  56  82 104 133 165 199 244 303
#
# _framework density 16.966902000000001
#
# number of rings (size 3 to 8) (size 9 to 14) (size 15 to 20)
#    0.000    1.769    2.308    3.000    0.000    7.538 
#    0.000    0.385    0.000    2.308    0.000    0.000 
#    0.000    0.000    0.000    0.692    0.000    9.462 
#
# Total GULP energy -289734.974521 kJ/mol
# GULP energy per Si atom -5571.826433 kJ/mol
# Density = 1.692828 g / cm^3
# Si number density = 16.966902 Si / 1000 Ang^3
#
#
#
# Elastic Constant Matrix: (Units=GPa)
#
#
# Indices 1 2 3 4 5 6 
#
# 1 86.9270 39.3926 55.3156 0.0000 0.0000 0.0000
# 2 39.3926 64.0737 34.7842 0.0000 0.0000 0.0000
# 3 55.3156 34.7842 151.3572 0.0000 0.0000 0.0000
# 4 0.0000 0.0000 0.0000 3.9473 0.0000 0.0000
# 5 0.0000 0.0000 0.0000 0.0000 20.3080 0.0000
# 6 0.0000 0.0000 0.0000 0.0000 0.0000 3.1478
#
#
#
# Elastic Compliance Matrix: (Units=1/GPa)
#
#
# Indices 1 2 3 4 5 6 
#
# 1 0.018512 -0.008807 -0.004742 0.000000 0.000000 0.000000
# 2 -0.008807 0.022022 -0.001842 0.000000 0.000000 0.000000
# 3 -0.004742 -0.001842 0.008763 0.000000 0.000000 0.000000
# 4 0.000000 0.000000 0.000000 0.253340 0.000000 0.000000
# 5 0.000000 0.000000 0.000000 0.000000 0.049242 0.000000
# 6 0.000000 0.000000 0.000000 0.000000 0.000000 0.317685
#
#
# Mechanical properties :
#
#
# Convention : Reuss Voigt Hill
#
# Bulk Modulus (GPa) = 54.00970 62.37141 58.19056
# Shear Modulus (GPa) = 7.07696 17.00497 12.04096
#
# Velocity S-wave (km/s) = 2.04453 3.16926 2.66686
# Velocity P-wave (km/s) = 6.12168 7.08750 6.62222
#
# Compressibility (1/GPa) = 0.01851519
#
# Stress axis : x y z
#
# Youngs Moduli (GPa) = 54.01785 45.40940 114.11463
#
# Poissons Ratio (x) = 0.39994 0.54108
# Poissons Ratio (y) = 0.47575 0.21022
# Poissons Ratio (z) = 0.25613 0.08365
#
# Static dielectric constant tensor:
#      x y z
#    x 1.575610 0.000000 0.000000 
#    y 0.000000 1.545140 0.000000 
#    z 0.000000 0.000000 1.593160 
# 
# From -- ./inp_files/73608.got.cif
#   From: 2010.05.17/outbox.cif.g08.bks.cpg/sg65_37_cif.got.tgz:73608.got - 2010.06.03 17:01:31.
