data_PCOD9485423
_publ_section_title
;
Structure prediction by ZEFSAII (Michael W. Deem and Ramdas Pophale) SiO2 
 PCOD9485423
Probable space group: C M M M
;
_chemical_formula_sum "Si O2"
_cell_formula_units_Z 96
_cell_length_a 34.060260
_cell_length_b 18.985467
_cell_length_c 7.480829
_cell_angle_alpha 90.000000
_cell_angle_beta 90.000000
_cell_angle_gamma 90.000000
_cell_volume 4837.477641
_symmetry_space_group_name_H-M "C M M M"
_symmetry_group_IT_number 65
_symmetry_cell_setting 'orthorhombic'
loop_
_space_group_symop_operation_xyz
x,y,z
-x,-y,z
x,-y,-z
-x,y,-z
-x,-y,-z
x,y,-z
-x,y,z
x,-y,z
1/2+x,1/2+y,z
1/2-x,1/2-y,z
1/2+x,1/2-y,-z
1/2-x,1/2+y,-z
1/2-x,1/2-y,-z
1/2+x,1/2+y,-z
1/2-x,1/2+y,z
1/2+x,1/2-y,z
loop_
_atom_site_type_symbol
_atom_site_label
_atom_site_fract_x
_atom_site_fract_y
_atom_site_fract_z
Si Si1 0.956013 0.280059 0.281647
Si Si2 0.324116 0.579048 0.212386
Si Si3 0.621931 0.294880 0.714695
Si Si4 0.747436 0.671158 0.209210
Si Si5 0.665438 0.154669 0.284372
Si Si6 0.413228 0.921464 0.717904
O O1 0.956216 0.279369 0.500000
O O2 0.921562 0.226966 0.223753
O O3 0.942125 0.358490 0.227482
O O4 0.000000 0.264264 0.221459
O O5 0.328031 0.500000 0.284584
O O6 0.361566 0.629304 0.236815
O O7 0.286580 0.621928 0.286607
O O8 0.318069 0.572510 0.000000
O O9 0.621547 0.290699 0.500000
O O10 0.651593 0.232766 0.776256
O O11 0.750000 0.750000 0.288477
O O12 0.790810 0.638823 0.222792
O O13 0.737768 0.680088 0.000000
O O14 0.666030 0.154823 0.500000
O O15 0.630802 0.101819 0.228847
O O16 0.413783 0.921930 0.500000
O O17 0.422969 0.000000 0.778766
#
# Coordination Sequence:
#
# PCOD9485423 Si02
#       6
#    16  16  16  16  16  16
#     4   8  14  25  43  68  94 120 152 188 225 266
#     4  10  21  35  49  67  91 118 150 190 233 272
#     4   9  17  30  48  69  93 120 151 187 224 268
#     4  10  19  31  47  66  88 118 155 191 226 268
#     4   9  17  28  44  66  92 124 158 190 223 260
#     4   8  14  24  38  61  95 129 157 186 222 263
#
# _framework density 19.845051999999999
#
# number of rings (size 3 to 8) (size 9 to 14) (size 15 to 20)
#    0.000    3.000    1.667    2.000    0.000    2.333 
#    0.000    1.667    0.000    1.000    0.000    3.500 
#    0.000    0.000    0.000    7.333    0.000    7.333 
#
# Total GULP energy -267713.377157 kJ/mol
# GULP energy per Si atom -5577.362024 kJ/mol
# Density = 1.979988 g / cm^3
# Si number density = 19.845052 Si / 1000 Ang^3
#
#
#
# Elastic Constant Matrix: (Units=GPa)
#
#
# Indices 1 2 3 4 5 6 
#
# 1 158.1832 86.2935 -1.9141 0.0000 0.0000 0.0000
# 2 86.2935 151.6956 9.5872 0.0000 0.0000 0.0000
# 3 -1.9141 9.5872 54.1036 0.0000 0.0000 0.0000
# 4 0.0000 0.0000 0.0000 -9.4338 0.0000 0.0000
# 5 0.0000 0.0000 0.0000 0.0000 21.5058 0.0000
# 6 0.0000 0.0000 0.0000 0.0000 0.0000 13.9573
#
#
#
# Elastic Compliance Matrix: (Units=1/GPa)
#
#
# Indices 1 2 3 4 5 6 
#
# 1 0.009252 -0.005344 0.001274 0.000000 0.000000 0.000000
# 2 -0.005344 0.009753 -0.001917 0.000000 0.000000 0.000000
# 3 0.001274 -0.001917 0.018868 0.000000 0.000000 0.000000
# 4 0.000000 0.000000 0.000000 -0.106002 0.000000 0.000000
# 5 0.000000 0.000000 0.000000 0.000000 0.046499 0.000000
# 6 0.000000 0.000000 0.000000 0.000000 0.000000 0.071647
#
#
# Mechanical properties :
#
#
# Convention : Reuss Voigt Hill
#
# Bulk Modulus (GPa) = 38.61052 61.32397 49.96724
# Shear Modulus (GPa) = 70.79661 23.20693 47.00177
#
# Velocity S-wave (km/s) = 5.97931 3.42337 4.87194
# Velocity P-wave (km/s) = 8.19559 6.82601 7.54195
#
# Compressibility (1/GPa) = 0.02589967
#
# Stress axis : x y z
#
# Youngs Moduli (GPa) = 108.07964 102.53010 53.00014
#
# Poissons Ratio (x) = 0.54791 -0.06754
# Poissons Ratio (y) = 0.57756 0.10162
# Poissons Ratio (z) = -0.13772 0.19658
#
# Static dielectric constant tensor:
#      x y z
#    x 1.690420 0.000000 0.000000 
#    y 0.000000 1.700770 0.000000 
#    z 0.000000 0.000000 1.769560 
# 
# From -- ./inp_files/32433.got.cif
#   From: 2010.05.17/outbox.cif.g08.bks.cpg/sg65_17_cif.got.tgz:32433.got - 2010.06.03 17:01:31.
