data_PCOD9485819
_publ_section_title
;
Structure prediction by ZEFSAII (Michael W. Deem and Ramdas Pophale) SiO2 
 PCOD9485819
Probable space group: C M M M
;
_chemical_formula_sum "Si O2"
_cell_formula_units_Z 96
_cell_length_a 8.857436
_cell_length_b 19.269355
_cell_length_c 31.853598
_cell_angle_alpha 90.000000
_cell_angle_beta 90.000000
_cell_angle_gamma 90.000000
_cell_volume 5436.679052
_symmetry_space_group_name_H-M "C M M M"
_symmetry_group_IT_number 65
_symmetry_cell_setting 'orthorhombic'
loop_
_space_group_symop_operation_xyz
x,y,z
-x,-y,z
x,-y,-z
-x,y,-z
-x,-y,-z
x,y,-z
-x,y,z
x,-y,z
1/2+x,1/2+y,z
1/2-x,1/2-y,z
1/2+x,1/2-y,-z
1/2-x,1/2+y,-z
1/2-x,1/2-y,-z
1/2+x,1/2+y,-z
1/2-x,1/2+y,z
1/2+x,1/2-y,z
loop_
_atom_site_type_symbol
_atom_site_label
_atom_site_fract_x
_atom_site_fract_y
_atom_site_fract_z
Si Si1 0.318166 0.080601 0.212577
Si Si2 0.319201 0.673955 0.284730
Si Si3 0.319979 0.325376 0.618995
Si Si4 0.819366 0.417787 0.546919
Si Si5 0.681185 0.827316 0.131596
Si Si6 0.318969 0.672338 0.045960
O O1 0.500000 0.083364 0.216957
O O2 0.244211 0.118578 0.252126
O O3 0.279310 0.124020 0.170780
O O4 0.273567 0.000000 0.209432
O O5 0.500000 0.678276 0.281443
O O6 0.250000 0.750000 0.275878
O O7 0.279084 0.655327 0.332944
O O8 0.500000 0.321019 0.616793
O O9 0.250000 0.250000 0.610899
O O10 0.259652 0.377818 0.584360
O O11 0.771598 0.394727 0.500000
O O12 0.790393 0.500000 0.549894
O O13 0.000000 0.407861 0.549776
O O14 0.500000 0.821338 0.128608
O O15 0.750000 0.750000 0.137438
O O16 0.746280 0.858042 0.088019
O O17 0.500000 0.676300 0.050374
O O18 0.250000 0.750000 0.044668
O O19 0.285584 0.640400 0.000000
#
# Coordination Sequence:
#
# PCOD9485819 Si02
#       6
#    16  16  16  16  16  16
#     4  10  22  38  54  75 104 137 173 213 257 306
#     4  10  21  37  57  80 105 135 172 213 258 309
#     4  10  21  36  55  80 108 137 172 214 259 308
#     4   9  19  36  56  78 106 141 179 216 256 305
#     4  10  19  31  50  74 100 131 167 207 251 301
#     4   9  16  26  43  69  99 128 161 203 249 297
#
# _framework density 17.657838999999999
#
# number of rings (size 3 to 8) (size 9 to 14) (size 15 to 20)
#    0.000    2.333    0.000    4.000    0.000    7.667 
#    0.000    4.167    0.000    0.500    0.000    3.500 
#    0.000    0.000    0.000    0.000    0.000    0.000 
#
# Total GULP energy -267737.784518 kJ/mol
# GULP energy per Si atom -5577.870511 kJ/mol
# Density = 1.761765 g / cm^3
# Si number density = 17.657839 Si / 1000 Ang^3
#
#
#
# Elastic Constant Matrix: (Units=GPa)
#
#
# Indices 1 2 3 4 5 6 
#
# 1 51.5385 43.3689 64.6108 0.0000 0.0000 0.0000
# 2 43.3689 84.5690 94.2261 0.0000 0.0000 0.0000
# 3 64.6108 94.2261 167.3016 0.0000 0.0000 0.0000
# 4 0.0000 0.0000 0.0000 -27.2775 0.0000 0.0000
# 5 0.0000 0.0000 0.0000 0.0000 34.8869 0.0000
# 6 0.0000 0.0000 0.0000 0.0000 0.0000 25.0387
#
#
#
# Elastic Compliance Matrix: (Units=1/GPa)
#
#
# Indices 1 2 3 4 5 6 
#
# 1 0.039936 -0.008849 -0.010439 0.000000 0.000000 0.000000
# 2 -0.008849 0.033707 -0.015567 0.000000 0.000000 0.000000
# 3 -0.010439 -0.015567 0.018776 0.000000 0.000000 0.000000
# 4 0.000000 0.000000 0.000000 -0.036660 0.000000 0.000000
# 5 0.000000 0.000000 0.000000 0.000000 0.028664 0.000000
# 6 0.000000 0.000000 0.000000 0.000000 0.000000 0.039938
#
#
# Mechanical properties :
#
#
# Convention : Reuss Voigt Hill
#
# Bulk Modulus (GPa) = 44.03426 78.64674 61.34050
# Shear Modulus (GPa) = 24.79653 13.27651 19.03652
#
# Velocity S-wave (km/s) = 3.75144 2.74501 3.28697
# Velocity P-wave (km/s) = 6.61483 7.39478 7.01565
#
# Compressibility (1/GPa) = 0.02270959
#
# Stress axis : x y z
#
# Youngs Moduli (GPa) = 25.03980 29.66759 53.25884
#
# Poissons Ratio (x) = 0.26252 0.55599
# Poissons Ratio (y) = 0.22157 0.82907
# Poissons Ratio (z) = 0.26140 0.46183
#
# Static dielectric constant tensor:
#      x y z
#    x 1.591610 0.000000 0.000000 
#    y 0.000000 1.566890 0.000000 
#    z 0.000000 0.000000 1.629230 
# 
# From -- ./inp_files/73172.got.cif
#   From: 2010.05.17/outbox.cif.g08.bks.cpg/sg65_37_cif.got.tgz:73172.got - 2010.06.03 17:01:31.
