data_PCOD9485878
_publ_section_title
;
Structure prediction by ZEFSAII (Michael W. Deem and Ramdas Pophale) SiO2 
 PCOD9485878
Probable space group: C M M M
;
_chemical_formula_sum "Si O2"
_cell_formula_units_Z 88
_cell_length_a 8.480440
_cell_length_b 18.782502
_cell_length_c 29.969796
_cell_angle_alpha 90.000000
_cell_angle_beta 90.000000
_cell_angle_gamma 90.000000
_cell_volume 4773.705427
_symmetry_space_group_name_H-M "C M M M"
_symmetry_group_IT_number 65
_symmetry_cell_setting 'orthorhombic'
loop_
_space_group_symop_operation_xyz
x,y,z
-x,-y,z
x,-y,-z
-x,y,-z
-x,-y,-z
x,y,-z
-x,y,z
x,-y,z
1/2+x,1/2+y,z
1/2-x,1/2-y,z
1/2+x,1/2-y,-z
1/2-x,1/2+y,-z
1/2-x,1/2-y,-z
1/2+x,1/2+y,-z
1/2-x,1/2+y,z
1/2+x,1/2-y,z
loop_
_atom_site_type_symbol
_atom_site_label
_atom_site_fract_x
_atom_site_fract_y
_atom_site_fract_z
Si Si1 0.309136 0.831209 0.172178
Si Si2 0.691132 0.082378 0.914831
Si Si3 0.310018 0.582923 0.450730
Si Si4 0.312216 0.330694 0.000000
Si Si5 0.188740 0.669249 0.633424
Si Si6 0.690304 0.168687 0.730253
O O1 0.500000 0.829254 0.171590
O O2 0.250000 0.750000 0.166993
O O3 0.257065 0.880052 0.131165
O O4 0.258793 0.859759 0.221249
O O5 0.500000 0.083419 0.915892
O O6 0.752363 0.127424 0.956499
O O7 0.741400 0.000000 0.917257
O O8 0.257880 0.608878 0.500000
O O9 0.500000 0.586136 0.450062
O O10 0.264464 0.500000 0.447095
O O11 0.246853 0.625942 0.408974
O O12 0.250000 0.250000 0.000000
O O13 0.500000 0.329101 0.000000
O O14 0.250000 0.750000 0.630460
O O15 0.241266 0.638608 0.682067
O O16 0.000000 0.670495 0.633045
O O17 0.500000 0.168076 0.730289
O O18 0.750000 0.250000 0.730099
#
# Coordination Sequence:
#
# PCOD9485878 Si02
#       6
#    16  16  16   8  16  16
#     4   9  17  31  52  76 101 133 172 210 248 293
#     4  10  21  37  56  79 109 142 173 208 253 302
#     4   9  19  36  54  70  93 128 167 207 254 307
#     4  12  25  40  59  81 105 135 173 216 259 304
#     4  10  19  31  50  76 104 133 166 207 252 298
#     4   8  15  28  46  71 101 131 165 204 247 293
#
# _framework density 18.434317
#
# number of rings (size 3 to 8) (size 9 to 14) (size 15 to 20)
#    0.000    2.545    0.000    2.727    0.000    5.455 
#    0.000    1.818    0.000    3.273    0.000    0.000 
#    0.000    0.000    0.000    0.000    0.000    0.000 
#
# Total GULP energy -245209.586808 kJ/mol
# GULP energy per Si atom -5572.945155 kJ/mol
# Density = 1.839236 g / cm^3
# Si number density = 18.434317 Si / 1000 Ang^3
#
#
#
# Elastic Constant Matrix: (Units=GPa)
#
#
# Indices 1 2 3 4 5 6 
#
# 1 16.5259 21.2077 35.5608 0.0000 0.0000 0.0000
# 2 21.2077 94.5075 99.7578 0.0000 0.0000 0.0000
# 3 35.5608 99.7578 249.4647 0.0000 0.0000 0.0000
# 4 0.0000 0.0000 0.0000 -29.8230 0.0000 0.0000
# 5 0.0000 0.0000 0.0000 0.0000 16.7598 0.0000
# 6 0.0000 0.0000 0.0000 0.0000 0.0000 20.0832
#
#
#
# Elastic Compliance Matrix: (Units=1/GPa)
#
#
# Indices 1 2 3 4 5 6 
#
# 1 0.094671 -0.012112 -0.008652 0.000000 0.000000 0.000000
# 2 -0.012112 0.019859 -0.006215 0.000000 0.000000 0.000000
# 3 -0.008652 -0.006215 0.007727 0.000000 0.000000 0.000000
# 4 0.000000 0.000000 0.000000 -0.033531 0.000000 0.000000
# 5 0.000000 0.000000 0.000000 0.000000 0.059666 0.000000
# 6 0.000000 0.000000 0.000000 0.000000 0.000000 0.049793
#
#
# Mechanical properties :
#
#
# Convention : Reuss Voigt Hill
#
# Bulk Modulus (GPa) = 14.64122 74.83896 44.74009
# Shear Modulus (GPa) = 18.18774 15.00212 16.59493
#
# Velocity S-wave (km/s) = 3.14446 2.85584 3.00362
# Velocity P-wave (km/s) = 4.59817 7.18054 6.02923
#
# Compressibility (1/GPa) = 0.06830033
#
# Stress axis : x y z
#
# Youngs Moduli (GPa) = 10.56285 50.35408 129.41363
#
# Poissons Ratio (x) = 0.60989 1.11966
# Poissons Ratio (y) = 0.12794 0.80430
# Poissons Ratio (z) = 0.09139 0.31295
#
# Static dielectric constant tensor:
#      x y z
#    x 1.638990 0.000000 0.000000 
#    y 0.000000 1.588220 0.000000 
#    z 0.000000 0.000000 1.683480 
# 
# From -- ./inp_files/76638.got.cif
#   From: 2010.05.17/outbox.cif.g08.bks.cpg/sg65_39_cif.got.tgz:76638.got - 2010.06.03 17:01:31.
