data_PCOD9485190
_publ_section_title
;
Structure prediction by ZEFSAII (Michael W. Deem and Ramdas Pophale) SiO2 
 PCOD9485190
Probable space group: C M M M
;
_chemical_formula_sum "Si O2"
_cell_formula_units_Z 72
_cell_length_a 19.545216
_cell_length_b 7.840626
_cell_length_c 24.557648
_cell_angle_alpha 90.000000
_cell_angle_beta 90.000000
_cell_angle_gamma 90.000000
_cell_volume 3763.379222
_symmetry_space_group_name_H-M "C M M M"
_symmetry_group_IT_number 65
_symmetry_cell_setting 'orthorhombic'
loop_
_space_group_symop_operation_xyz
x,y,z
-x,-y,z
x,-y,-z
-x,y,-z
-x,-y,-z
x,y,-z
-x,y,z
x,-y,z
1/2+x,1/2+y,z
1/2-x,1/2-y,z
1/2+x,1/2-y,-z
1/2-x,1/2+y,-z
1/2-x,1/2-y,-z
1/2+x,1/2+y,-z
1/2-x,1/2+y,z
1/2+x,1/2-y,z
loop_
_atom_site_type_symbol
_atom_site_label
_atom_site_fract_x
_atom_site_fract_y
_atom_site_fract_z
Si Si1 0.330778 0.294280 0.558517
Si Si2 0.420749 0.791781 0.899452
Si Si3 0.422878 0.204393 0.222346
Si Si4 0.170396 0.294302 0.000000
Si Si5 0.329600 0.702674 0.323522
O O1 0.358671 0.231067 0.500000
O O2 0.337609 0.500000 0.558098
O O3 0.250000 0.250000 0.558539
O O4 0.355822 0.229796 0.617448
O O5 0.500000 0.743334 0.909850
O O6 0.401946 0.735137 0.838158
O O7 0.369649 0.731854 0.946275
O O8 0.419421 0.000000 0.900117
O O9 0.500000 0.268360 0.233165
O O10 0.372763 0.244015 0.271494
O O11 0.426470 0.000000 0.218579
O O12 0.250000 0.250000 0.000000
O O13 0.165390 0.500000 0.000000
O O14 0.333148 0.500000 0.326589
O O15 0.250000 0.750000 0.317363
#
# Coordination Sequence:
#
# PCOD9485190 Si02
#       5
#    16  16  16   8  16
#     4   8  14  25  41  62  88 117 150 189 231 274
#     4   8  15  30  52  72  88 116 159 196 224 264
#     4   9  18  33  51  70  94 124 158 196 237 279
#     4  10  19  31  49  73  99 122 148 186 230 274
#     4  10  19  30  47  71  97 124 156 194 236 282
#
# _framework density 19.131743
#
# number of rings (size 3 to 8) (size 9 to 14) (size 15 to 20)
#    0.000    3.111    0.000    2.333    0.000    3.556 
#    0.000    3.333    0.000    3.333    0.000    4.667 
#    0.000    0.000    0.000    0.000    0.000    0.000 
#
# Total GULP energy -200443.786379 kJ/mol
# GULP energy per Si atom -5567.882955 kJ/mol
# Density = 1.908820 g / cm^3
# Si number density = 19.131743 Si / 1000 Ang^3
#
#
#
# Elastic Constant Matrix: (Units=GPa)
#
#
# Indices 1 2 3 4 5 6 
#
# 1 82.1605 3.0213 116.6437 0.0000 0.0000 0.0000
# 2 3.0213 21.2028 13.0477 0.0000 0.0000 0.0000
# 3 116.6437 13.0477 249.9078 0.0000 0.0000 0.0000
# 4 0.0000 0.0000 0.0000 8.1823 0.0000 0.0000
# 5 0.0000 0.0000 0.0000 0.0000-1347.6964 0.0000
# 6 0.0000 0.0000 0.0000 0.0000 0.0000 18.6561
#
#
#
# Elastic Compliance Matrix: (Units=1/GPa)
#
#
# Indices 1 2 3 4 5 6 
#
# 1 0.036686 0.005486 -0.017409 0.000000 0.000000 0.000000
# 2 0.005486 0.049549 -0.005147 0.000000 0.000000 0.000000
# 3 -0.017409 -0.005147 0.012396 0.000000 0.000000 0.000000
# 4 0.000000 0.000000 0.000000 0.122214 0.000000 0.000000
# 5 0.000000 0.000000 0.000000 0.000000 -0.000742 0.000000
# 6 0.000000 0.000000 0.000000 0.000000 0.000000 0.053602
#
#
# Mechanical properties :
#
#
# Convention : Reuss Voigt Hill
#
# Bulk Modulus (GPa) = 15.50650 68.74406 42.12528
# Shear Modulus (GPa) = 15.18170 -249.46770 -117.14300
#
# Velocity S-wave (km/s) = 2.82003 -11.43144 -7.83343
# Velocity P-wave (km/s) = 4.32737 11.75700 7.72984
#
# Compressibility (1/GPa) = 0.06448909
#
# Stress axis : x y z
#
# Youngs Moduli (GPa) = 27.25854 20.18186 80.67124
#
# Poissons Ratio (x) = -0.11071 1.40444
# Poissons Ratio (y) = -0.14953 0.41525
# Poissons Ratio (z) = 0.47455 0.10388
#
# Static dielectric constant tensor:
#      x y z
#    x 1.607530 0.000000 0.000000 
#    y 0.000000 1.748750 0.000000 
#    z 0.000000 0.000000 1.739190 
# 
# From -- ./inp_files/64317.got.cif
#   From: 2010.05.17/outbox.cif.g08.bks.cpg/sg65_33_cif.got.tgz:64317.got - 2010.06.03 17:01:31.
