data_PCOD9485404
_publ_section_title
;
Structure prediction by ZEFSAII (Michael W. Deem and Ramdas Pophale) SiO2 
 PCOD9485404
Probable space group: C M M M
;
_chemical_formula_sum "Si O2"
_cell_formula_units_Z 104
_cell_length_a 8.360541
_cell_length_b 24.301928
_cell_length_c 29.836138
_cell_angle_alpha 90.000000
_cell_angle_beta 90.000000
_cell_angle_gamma 90.000000
_cell_volume 6062.024930
_symmetry_space_group_name_H-M "C M M M"
_symmetry_group_IT_number 65
_symmetry_cell_setting 'orthorhombic'
loop_
_space_group_symop_operation_xyz
x,y,z
-x,-y,z
x,-y,-z
-x,y,-z
-x,-y,-z
x,y,-z
-x,y,z
x,-y,z
1/2+x,1/2+y,z
1/2-x,1/2-y,z
1/2+x,1/2-y,-z
1/2-x,1/2+y,-z
1/2-x,1/2-y,-z
1/2+x,1/2+y,-z
1/2-x,1/2+y,z
1/2+x,1/2-y,z
loop_
_atom_site_type_symbol
_atom_site_label
_atom_site_fract_x
_atom_site_fract_y
_atom_site_fract_z
Si Si1 0.808162 0.813108 0.694699
Si Si2 0.193178 0.186695 0.596413
Si Si3 0.693642 0.686355 0.500000
Si Si4 0.193128 0.883676 0.050134
Si Si5 0.694970 0.000000 0.808988
Si Si6 0.191538 0.380641 0.220250
Si Si7 0.808184 0.812396 0.865611
Si Si8 0.191965 0.500000 0.086565
O O1 0.750000 0.750000 0.700399
O O2 0.754004 0.834251 0.645272
O O3 0.748695 0.851069 0.734757
O O4 0.000000 0.812026 0.695435
O O5 0.250000 0.250000 0.596052
O O6 0.247159 0.162403 0.548266
O O7 0.000000 0.185456 0.596376
O O8 0.500000 0.685764 0.500000
O O9 0.750000 0.750000 0.500000
O O10 0.249791 0.842609 0.089091
O O11 0.245849 0.945112 0.062905
O O12 0.000000 0.882189 0.050117
O O13 0.249083 0.869525 0.000000
O O14 0.748676 0.056425 0.785736
O O15 0.500000 0.000000 0.808693
O O16 0.743897 0.000000 0.861244
O O17 0.248850 0.346166 0.177319
O O18 0.000000 0.380956 0.220043
O O19 0.750000 0.750000 0.863554
O O20 0.000000 0.812950 0.865402
O O21 0.000000 0.500000 0.085507
#
# Coordination Sequence:
#
# PCOD9485404 Si02
#       8
#    16  16   8  16   8  16  16   8
#     4  10  19  31  46  70 100 133 167 202 239 285
#     4   8  14  23  37  57  87 122 161 199 235 276
#     4   8  12  20  34  54  80 119 160 197 235 274
#     4  10  22  39  57  79 107 135 162 196 240 288
#     4   9  20  36  56  77  98 121 153 198 246 287
#     4  11  21  37  56  74  97 126 159 200 244 292
#     4  11  23  38  56  77 101 132 165 198 236 283
#     4  11  20  36  59  84 106 128 161 201 241 287
#
# _framework density 17.155982999999999
#
# number of rings (size 3 to 8) (size 9 to 14) (size 15 to 20)
#    0.000    2.154    1.538    2.308    0.000    2.769 
#    0.000    1.538    0.000    0.000    0.000    0.000 
#    0.000    0.615    0.000    7.692    0.000    1.385 
#
# Total GULP energy -289879.168884 kJ/mol
# GULP energy per Si atom -5574.599402 kJ/mol
# Density = 1.711694 g / cm^3
# Si number density = 17.155983 Si / 1000 Ang^3
#
#
#
# Elastic Constant Matrix: (Units=GPa)
#
#
# Indices 1 2 3 4 5 6 
#
# 1 23.4596 14.7819 25.5288 0.0000 0.0000 0.0000
# 2 14.7819 107.2098 80.4164 0.0000 0.0000 0.0000
# 3 25.5288 80.4164 209.6317 0.0000 0.0000 0.0000
# 4 0.0000 0.0000 0.0000 -1.9103 0.0000 0.0000
# 5 0.0000 0.0000 0.0000 0.0000 9.9553 0.0000
# 6 0.0000 0.0000 0.0000 0.0000 0.0000 -4.0208
#
#
#
# Elastic Compliance Matrix: (Units=1/GPa)
#
#
# Indices 1 2 3 4 5 6 
#
# 1 0.049938 -0.003263 -0.004830 0.000000 0.000000 0.000000
# 2 -0.003263 0.013309 -0.004708 0.000000 0.000000 0.000000
# 3 -0.004830 -0.004708 0.007164 0.000000 0.000000 0.000000
# 4 0.000000 0.000000 0.000000 -0.523490 0.000000 0.000000
# 5 0.000000 0.000000 0.000000 0.000000 0.100449 0.000000
# 6 0.000000 0.000000 0.000000 0.000000 0.000000 -0.248706
#
#
# Mechanical properties :
#
#
# Convention : Reuss Voigt Hill
#
# Bulk Modulus (GPa) = 22.31620 64.63949 43.47784
# Shear Modulus (GPa) = -8.91588 15.44310 3.26361
#
# Velocity S-wave (km/s) = -2.28216 3.00352 1.38074
# Velocity P-wave (km/s) = 2.46815 7.05602 5.28579
#
# Compressibility (1/GPa) = 0.04481050
#
# Stress axis : x y z
#
# Youngs Moduli (GPa) = 20.02474 75.13847 139.57720
#
# Poissons Ratio (x) = 0.24514 0.67414
# Poissons Ratio (y) = 0.06533 0.65713
# Poissons Ratio (z) = 0.09672 0.35375
#
# Static dielectric constant tensor:
#      x y z
#    x 1.589940 0.000000 0.000000 
#    y 0.000000 1.532600 0.000000 
#    z 0.000000 0.000000 1.636200 
# 
# From -- ./inp_files/76963.got.cif
#   From: 2010.05.17/outbox.cif.g08.bks.cpg/sg65_39_cif.got.tgz:76963.got - 2010.06.03 17:01:31.
