data_PCOD9485078
_publ_section_title
;
Structure prediction by ZEFSAII (Michael W. Deem and Ramdas Pophale) SiO2 
 PCOD9485078
Probable space group: C M M M
;
_chemical_formula_sum "Si O2"
_cell_formula_units_Z 96
_cell_length_a 19.038186
_cell_length_b 7.371884
_cell_length_c 32.390784
_cell_angle_alpha 90.000000
_cell_angle_beta 90.000000
_cell_angle_gamma 90.000000
_cell_volume 4545.959039
_symmetry_space_group_name_H-M "C M M M"
_symmetry_group_IT_number 65
_symmetry_cell_setting 'orthorhombic'
loop_
_space_group_symop_operation_xyz
x,y,z
-x,-y,z
x,-y,-z
-x,y,-z
-x,-y,-z
x,y,-z
-x,y,z
x,-y,z
1/2+x,1/2+y,z
1/2-x,1/2-y,z
1/2+x,1/2-y,-z
1/2-x,1/2+y,-z
1/2-x,1/2-y,-z
1/2+x,1/2+y,-z
1/2-x,1/2+y,z
1/2+x,1/2-y,z
loop_
_atom_site_type_symbol
_atom_site_label
_atom_site_fract_x
_atom_site_fract_y
_atom_site_fract_z
Si Si1 0.832758 0.283425 0.124973
Si Si2 0.581727 0.220959 0.545494
Si Si3 0.332432 0.783346 0.375997
Si Si4 0.918767 0.722027 0.204947
Si Si5 0.167286 0.283182 0.715803
Si Si6 0.418904 0.220970 0.046503
O O1 0.842258 0.500000 0.124636
O O2 0.750000 0.250000 0.127515
O O3 0.874667 0.216915 0.165121
O O4 0.867654 0.215159 0.082588
O O5 0.607426 0.278750 0.500000
O O6 0.500000 0.271054 0.549079
O O7 0.624677 0.286993 0.584910
O O8 0.584432 0.000000 0.545659
O O9 0.250000 0.750000 0.382069
O O10 0.350599 0.713198 0.330122
O O11 0.343576 0.000000 0.374862
O O12 0.917818 0.500000 0.205059
O O13 0.880377 0.783786 0.246770
O O14 0.000000 0.776657 0.202895
O O15 0.158329 0.500000 0.714549
O O16 0.250000 0.250000 0.723470
O O17 0.500000 0.272533 0.054708
O O18 0.417575 0.000000 0.046269
O O19 0.400142 0.279341 0.000000
#
# Coordination Sequence:
#
# PCOD9485078 Si02
#       6
#    16  16  16  16  16  16
#     4  10  19  30  46  67  90 116 144 176 215 256
#     4   8  14  25  41  61  84 109 139 176 213 246
#     4   9  17  28  43  64  87 111 139 171 209 252
#     4   9  17  29  46  67  87 109 143 183 215 245
#     4   9  17  29  45  64  87 113 139 171 211 253
#     4   8  14  26  45  67  88 112 146 184 215 246
#
# _framework density 21.117656
#
# number of rings (size 3 to 8) (size 9 to 14) (size 15 to 20)
#    0.000    3.167    0.000    2.000    0.000    3.333 
#    0.000    3.333    0.000    4.000    0.000    7.000 
#    0.000    0.000    0.000    0.000    0.000    0.000 
#
# Total GULP energy -267882.376268 kJ/mol
# GULP energy per Si atom -5580.882839 kJ/mol
# Density = 2.106959 g / cm^3
# Si number density = 21.117656 Si / 1000 Ang^3
#
#
#
# Elastic Constant Matrix: (Units=GPa)
#
#
# Indices 1 2 3 4 5 6 
#
# 1 146.1181 -0.7406 158.7873 0.0000 0.0000 0.0000
# 2 -0.7406 76.6400 11.1894 0.0000 0.0000 0.0000
# 3 158.7873 11.1894 261.1442 0.0000 0.0000 0.0000
# 4 0.0000 0.0000 0.0000 -4.4068 0.0000 0.0000
# 5 0.0000 0.0000 0.0000 0.0000 51.3291 0.0000
# 6 0.0000 0.0000 0.0000 0.0000 0.0000 16.6144
#
#
#
# Elastic Compliance Matrix: (Units=1/GPa)
#
#
# Indices 1 2 3 4 5 6 
#
# 1 0.020483 0.002029 -0.012541 0.000000 0.000000 0.000000
# 2 0.002029 0.013331 -0.001805 0.000000 0.000000 0.000000
# 3 -0.012541 -0.001805 0.011532 0.000000 0.000000 0.000000
# 4 0.000000 0.000000 0.000000 -0.226924 0.000000 0.000000
# 5 0.000000 0.000000 0.000000 0.000000 0.019482 0.000000
# 6 0.000000 0.000000 0.000000 0.000000 0.000000 0.060189
#
#
# Mechanical properties :
#
#
# Convention : Reuss Voigt Hill
#
# Bulk Modulus (GPa) = 48.28192 91.37495 69.82844
# Shear Modulus (GPa) = -71.05506 33.68511 -18.68498
#
# Velocity S-wave (km/s) = -5.80692 3.99822 -2.97779
# Velocity P-wave (km/s) = 4.69547 8.04225 4.61684
#
# Compressibility (1/GPa) = 0.02071168
#
# Stress axis : x y z
#
# Youngs Moduli (GPa) = 48.82106 75.01229 86.71204
#
# Poissons Ratio (x) = -0.15220 1.08750
# Poissons Ratio (y) = -0.09906 0.15651
# Poissons Ratio (z) = 0.61229 0.13539
#
# Static dielectric constant tensor:
#      x y z
#    x 1.692530 0.000000 0.000000 
#    y 0.000000 1.822770 0.000000 
#    z 0.000000 0.000000 1.765680 
# 
# From -- ./inp_files/75324.got.cif
#   From: 2010.05.17/outbox.cif.g08.bks.cpg/sg65_38_cif.got.tgz:75324.got - 2010.06.03 17:01:31.
