data_PCOD9485952
_publ_section_title
;
Structure prediction by ZEFSAII (Michael W. Deem and Ramdas Pophale) SiO2 
 PCOD9485952
Probable space group: C M M M
;
_chemical_formula_sum "Si O2"
_cell_formula_units_Z 104
_cell_length_a 20.602138
_cell_length_b 31.032292
_cell_length_c 9.687142
_cell_angle_alpha 90.000000
_cell_angle_beta 90.000000
_cell_angle_gamma 90.000000
_cell_volume 6193.295629
_symmetry_space_group_name_H-M "C M M M"
_symmetry_group_IT_number 65
_symmetry_cell_setting 'orthorhombic'
loop_
_space_group_symop_operation_xyz
x,y,z
-x,-y,z
x,-y,-z
-x,y,-z
-x,-y,-z
x,y,-z
-x,y,z
x,-y,z
1/2+x,1/2+y,z
1/2-x,1/2-y,z
1/2+x,1/2-y,-z
1/2-x,1/2+y,-z
1/2-x,1/2-y,-z
1/2+x,1/2+y,-z
1/2-x,1/2+y,z
1/2+x,1/2-y,z
loop_
_atom_site_type_symbol
_atom_site_label
_atom_site_fract_x
_atom_site_fract_y
_atom_site_fract_z
Si Si1 0.237045 0.948606 0.155890
Si Si2 0.424456 0.000000 0.646291
Si Si3 0.076562 0.254041 0.658766
Si Si4 0.229872 0.868455 0.659228
Si Si5 0.191726 0.784743 0.165768
Si Si6 0.389344 0.074682 0.151525
Si Si7 0.385823 0.854141 0.650738
O O1 0.212125 0.914296 0.269071
O O2 0.312167 0.933916 0.143154
O O3 0.234079 0.000000 0.190616
O O4 0.208991 0.943508 0.000000
O O5 0.409655 0.041198 0.734851
O O6 0.500000 0.000000 0.626659
O O7 0.388785 0.000000 0.500000
O O8 0.089051 0.239077 0.500000
O O9 0.125185 0.232503 0.767091
O O10 0.093823 0.304760 0.659701
O O11 0.000000 0.248071 0.687462
O O12 0.206634 0.866014 0.500000
O O13 0.206589 0.829504 0.756589
O O14 0.308081 0.861536 0.651859
O O15 0.250000 0.750000 0.193023
O O16 0.187693 0.790054 0.000000
O O17 0.408303 0.120431 0.214652
O O18 0.416638 0.067143 0.000000
O O19 0.409371 0.870680 0.500000
#
# Coordination Sequence:
#
# PCOD9485952 Si02
#       7
#    16   8  16  16  16  16  16
#     4   9  17  31  49  71 101 131 159 202 259 312
#     4  11  23  35  45  57  77 111 157 207 256 307
#     4  10  21  37  56  77 104 138 175 218 267 316
#     4  10  19  31  51  77 103 135 176 218 257 309
#     4  11  22  35  54  78 106 141 179 222 268 317
#     4  10  19  32  48  66  88 118 158 205 256 306
#     4   9  18  32  49  72  99 129 166 209 257 307
#
# _framework density 16.792351
#
# number of rings (size 3 to 8) (size 9 to 14) (size 15 to 20)
#    0.000    2.077    2.308    1.615    0.000    4.308 
#    0.000    1.538    0.000    0.000    0.000    0.000 
#    0.000    0.615    0.000    6.462    0.000    2.769 
#
# Total GULP energy -289533.135297 kJ/mol
# GULP energy per Si atom -5567.944910 kJ/mol
# Density = 1.675413 g / cm^3
# Si number density = 16.792351 Si / 1000 Ang^3
#
#
#
# Elastic Constant Matrix: (Units=GPa)
#
#
# Indices 1 2 3 4 5 6 
#
# 1 39.0788 17.7067 36.8563 0.0000 0.0000 0.0000
# 2 17.7067 91.7636 73.7014 0.0000 0.0000 0.0000
# 3 36.8563 73.7014 159.1704 0.0000 0.0000 0.0000
# 4 0.0000 0.0000 0.0000 33.8713 0.0000 0.0000
# 5 0.0000 0.0000 0.0000 0.0000 16.2971 0.0000
# 6 0.0000 0.0000 0.0000 0.0000 0.0000 16.2245
#
#
#
# Elastic Compliance Matrix: (Units=1/GPa)
#
#
# Indices 1 2 3 4 5 6 
#
# 1 0.032747 -0.000364 -0.007414 0.000000 0.000000 0.000000
# 2 -0.000364 0.017354 -0.007951 0.000000 0.000000 0.000000
# 3 -0.007414 -0.007951 0.011681 0.000000 0.000000 0.000000
# 4 0.000000 0.000000 0.000000 0.029524 0.000000 0.000000
# 5 0.000000 0.000000 0.000000 0.000000 0.061361 0.000000
# 6 0.000000 0.000000 0.000000 0.000000 0.000000 0.061635
#
#
# Mechanical properties :
#
#
# Convention : Reuss Voigt Hill
#
# Bulk Modulus (GPa) = 32.97824 60.72682 46.85253
# Shear Modulus (GPa) = 19.54138 24.06179 21.80158
#
# Velocity S-wave (km/s) = 3.41502 3.78948 3.60711
# Velocity P-wave (km/s) = 5.93559 7.44236 6.73127
#
# Compressibility (1/GPa) = 0.03032303
#
# Stress axis : x y z
#
# Youngs Moduli (GPa) = 30.53748 57.62384 85.60957
#
# Poissons Ratio (x) = 0.02098 0.63470
# Poissons Ratio (y) = 0.01112 0.68069
# Poissons Ratio (z) = 0.22640 0.45818
#
# Static dielectric constant tensor:
#      x y z
#    x 1.563420 0.000000 0.000000 
#    y 0.000000 1.624780 0.000000 
#    z 0.000000 0.000000 1.424020 
# 
# From -- ./inp_files/12820.got.cif
#   From: 2010.05.17/outbox.cif.g08.bks.cpg/sg65_7_cif.got.tgz:12820.got - 2010.06.03 17:01:31.
