data_PCOD9485302
_publ_section_title
;
Structure prediction by ZEFSAII (Michael W. Deem and Ramdas Pophale) SiO2 
 PCOD9485302
Probable space group: C M M M
;
_chemical_formula_sum "Si O2"
_cell_formula_units_Z 88
_cell_length_a 26.327794
_cell_length_b 17.768615
_cell_length_c 8.304751
_cell_angle_alpha 90.000000
_cell_angle_beta 90.000000
_cell_angle_gamma 90.000000
_cell_volume 3885.032572
_symmetry_space_group_name_H-M "C M M M"
_symmetry_group_IT_number 65
_symmetry_cell_setting 'orthorhombic'
loop_
_space_group_symop_operation_xyz
x,y,z
-x,-y,z
x,-y,-z
-x,y,-z
-x,-y,-z
x,y,-z
-x,y,z
x,-y,z
1/2+x,1/2+y,z
1/2-x,1/2-y,z
1/2+x,1/2-y,-z
1/2-x,1/2+y,-z
1/2-x,1/2-y,-z
1/2+x,1/2+y,-z
1/2-x,1/2+y,z
1/2+x,1/2-y,z
loop_
_atom_site_type_symbol
_atom_site_label
_atom_site_fract_x
_atom_site_fract_y
_atom_site_fract_z
Si Si1 0.559926 0.824878 0.181755
Si Si2 0.937829 0.587370 0.500000
Si Si3 0.809747 0.732970 0.179195
Si Si4 0.944135 0.855716 0.190209
Si Si5 0.338252 0.618043 0.682069
Si Si6 0.225071 0.584638 0.692567
O O1 0.500000 0.842313 0.174377
O O2 0.579470 0.870169 0.337078
O O3 0.562703 0.734844 0.212022
O O4 0.579749 0.841322 0.000000
O O5 0.922169 0.500000 0.500000
O O6 0.000000 0.589342 0.500000
O O7 0.750000 0.750000 0.179934
O O8 0.833060 0.791318 0.303461
O O9 0.810085 0.645912 0.222839
O O10 0.829100 0.750627 0.000000
O O11 0.893657 0.898061 0.248062
O O12 0.000000 0.875754 0.259633
O O13 0.946723 0.867556 0.000000
O O14 0.338201 0.592034 0.500000
O O15 0.284187 0.590234 0.752950
O O16 0.226188 0.601355 0.500000
O O17 0.207468 0.500000 0.716324
#
# Coordination Sequence:
#
# PCOD9485302 Si02
#       6
#    16   8  16  16  16  16
#     4   8  15  27  41  59  85 117 154 200 254 303
#     4   9  16  24  38  60  82 108 144 189 243 303
#     4   9  17  30  49  74 104 135 168 208 254 307
#     4   9  18  32  49  70  98 132 170 218 270 307
#     4  10  19  30  50  79 105 135 175 215 259 311
#     4   9  18  33  52  76 109 142 170 207 257 313
#
# _framework density 22.651033999999999
#
# number of rings (size 3 to 8) (size 9 to 14) (size 15 to 20)
#    0.000    3.000    0.000    2.182    1.273    4.000 
#    0.000    1.818    0.000    1.636    0.000    6.364 
#    0.000    0.000    0.000    0.000    0.000    0.000 
#
# Total GULP energy -245315.965855 kJ/mol
# GULP energy per Si atom -5575.362860 kJ/mol
# Density = 2.259948 g / cm^3
# Si number density = 22.651034 Si / 1000 Ang^3
#
#
#
# Elastic Constant Matrix: (Units=GPa)
#
#
# Indices 1 2 3 4 5 6 
#
# 1 67.9688 5.2206 14.1104 0.0000 0.0000 0.0000
# 2 5.2206 46.5576 12.6462 0.0000 0.0000 0.0000
# 3 14.1104 12.6462 66.0729 0.0000 0.0000 0.0000
# 4 0.0000 0.0000 0.0000 14.6287 0.0000 0.0000
# 5 0.0000 0.0000 0.0000 0.0000 17.7829 0.0000
# 6 0.0000 0.0000 0.0000 0.0000 0.0000 -7.5764
#
#
#
# Elastic Compliance Matrix: (Units=1/GPa)
#
#
# Indices 1 2 3 4 5 6 
#
# 1 0.015429 -0.000881 -0.003126 0.000000 0.000000 0.000000
# 2 -0.000881 0.022707 -0.004158 0.000000 0.000000 0.000000
# 3 -0.003126 -0.004158 0.016598 0.000000 0.000000 0.000000
# 4 0.000000 0.000000 0.000000 0.068359 0.000000 0.000000
# 5 0.000000 0.000000 0.000000 0.000000 0.056234 0.000000
# 6 0.000000 0.000000 0.000000 0.000000 0.000000 -0.131989
#
#
# Mechanical properties :
#
#
# Convention : Reuss Voigt Hill
#
# Bulk Modulus (GPa) = 26.03895 27.17264 26.60580
# Shear Modulus (GPa) = 65.38486 14.87517 40.13002
#
# Velocity S-wave (km/s) = 5.37855 2.56542 4.21368
# Velocity P-wave (km/s) = 7.07760 4.56042 5.95356
#
# Compressibility (1/GPa) = 0.03840400
#
# Stress axis : x y z
#
# Youngs Moduli (GPa) = 64.81156 44.03940 60.24712
#
# Poissons Ratio (x) = 0.03879 0.18836
# Poissons Ratio (y) = 0.05709 0.25050
# Poissons Ratio (z) = 0.20263 0.18311
#
# Static dielectric constant tensor:
#      x y z
#    x 1.909980 0.000000 0.000000 
#    y 0.000000 1.862510 0.000000 
#    z 0.000000 0.000000 1.819390 
# 
# From -- ./inp_files/18306.got.cif
#   From: 2010.05.17/outbox.cif.g08.bks.cpg/sg65_10_cif.got.tgz:18306.got - 2010.06.03 17:01:31.
