data_PCOD9485490
_publ_section_title
;
Structure prediction by ZEFSAII (Michael W. Deem and Ramdas Pophale) SiO2 
 PCOD9485490
Probable space group: C M M M
;
_chemical_formula_sum "Si O2"
_cell_formula_units_Z 80
_cell_length_a 18.568700
_cell_length_b 8.730294
_cell_length_c 26.677785
_cell_angle_alpha 90.000000
_cell_angle_beta 90.000000
_cell_angle_gamma 90.000000
_cell_volume 4324.741334
_symmetry_space_group_name_H-M "C M M M"
_symmetry_group_IT_number 65
_symmetry_cell_setting 'orthorhombic'
loop_
_space_group_symop_operation_xyz
x,y,z
-x,-y,z
x,-y,-z
-x,y,-z
-x,-y,-z
x,y,-z
-x,y,z
x,-y,z
1/2+x,1/2+y,z
1/2-x,1/2-y,z
1/2+x,1/2-y,-z
1/2-x,1/2+y,-z
1/2-x,1/2-y,-z
1/2+x,1/2+y,-z
1/2-x,1/2+y,z
1/2+x,1/2-y,z
loop_
_atom_site_type_symbol
_atom_site_label
_atom_site_fract_x
_atom_site_fract_y
_atom_site_fract_z
Si Si1 0.583107 0.313107 0.401951
Si Si2 0.170351 0.185567 0.500000
Si Si3 0.587549 0.322848 0.292157
Si Si4 0.169841 0.817920 0.905535
Si Si5 0.914538 0.681163 0.187078
Si Si6 0.584387 0.816079 0.000000
O O1 0.500000 0.264672 0.407940
O O2 0.582764 0.500000 0.400695
O O3 0.628952 0.264492 0.449662
O O4 0.611155 0.264997 0.346996
O O5 0.250000 0.250000 0.500000
O O6 0.171391 0.000000 0.500000
O O7 0.500000 0.322481 0.294653
O O8 0.609865 0.500000 0.285463
O O9 0.607859 0.226848 0.243449
O O10 0.250000 0.750000 0.906959
O O11 0.130903 0.771009 0.853989
O O12 0.173195 0.000000 0.910344
O O13 0.123592 0.748914 0.951060
O O14 0.905685 0.500000 0.179306
O O15 0.000000 0.717072 0.181812
O O16 0.500000 0.774324 0.000000
O O17 0.589609 0.000000 0.000000
#
# Coordination Sequence:
#
# PCOD9485490 Si02
#       6
#    16   8  16  16  16   8
#     4   8  14  27  50  75  95 124 173 224 261 301
#     4  10  19  31  47  69  99 132 166 208 262 320
#     4   8  14  27  49  76 102 130 171 222 269 311
#     4  12  25  41  61  85 116 151 188 228 272 322
#     4  10  20  35  56  83 114 146 181 222 269 321
#     4  11  24  43  66  91 119 149 184 227 272 319
#
# _framework density 18.498214999999998
#
# number of rings (size 3 to 8) (size 9 to 14) (size 15 to 20)
#    0.000    2.300    0.000    5.100    0.000    5.600 
#    0.000    2.000    0.000    4.800    0.000    0.000 
#    0.000    0.000    0.000    0.000    0.000    0.000 
#
# Total GULP energy -223243.659583 kJ/mol
# GULP energy per Si atom -5581.091490 kJ/mol
# Density = 1.845611 g / cm^3
# Si number density = 18.498215 Si / 1000 Ang^3
#
#
#
# Elastic Constant Matrix: (Units=GPa)
#
#
# Indices 1 2 3 4 5 6 
#
# 1 99.0760 46.9440 78.8992 0.0000 0.0000 0.0000
# 2 46.9440 63.3733 45.9418 0.0000 0.0000 0.0000
# 3 78.8992 45.9418 172.7961 0.0000 0.0000 0.0000
# 4 0.0000 0.0000 0.0000 -6.2772 0.0000 0.0000
# 5 0.0000 0.0000 0.0000 0.0000 -13.2729 0.0000
# 6 0.0000 0.0000 0.0000 0.0000 0.0000 25.5414
#
#
#
# Elastic Compliance Matrix: (Units=1/GPa)
#
#
# Indices 1 2 3 4 5 6 
#
# 1 0.020052 -0.010178 -0.006450 0.000000 0.000000 0.000000
# 2 -0.010178 0.024713 -0.001923 0.000000 0.000000 0.000000
# 3 -0.006450 -0.001923 0.009244 0.000000 0.000000 0.000000
# 4 0.000000 0.000000 0.000000 -0.159308 0.000000 0.000000
# 5 0.000000 0.000000 0.000000 0.000000 -0.075341 0.000000
# 6 0.000000 0.000000 0.000000 0.000000 0.000000 0.039152
#
#
# Mechanical properties :
#
#
# Convention : Reuss Voigt Hill
#
# Bulk Modulus (GPa) = 59.14817 75.42394 67.28606
# Shear Modulus (GPa) = -50.63259 12.09562 -19.26849
#
# Velocity S-wave (km/s) = -5.23746 2.55988 -3.23095
# Velocity P-wave (km/s) = 2.12843 7.04269 4.74707
#
# Compressibility (1/GPa) = 0.01690669
#
# Stress axis : x y z
#
# Youngs Moduli (GPa) = 49.87025 40.46432 108.18402
#
# Poissons Ratio (x) = 0.41184 0.69776
# Poissons Ratio (y) = 0.50758 0.20807
# Poissons Ratio (z) = 0.32165 0.07782
#
# Static dielectric constant tensor:
#      x y z
#    x 1.608570 0.000000 0.000000 
#    y 0.000000 1.625160 0.000000 
#    z 0.000000 0.000000 1.647460 
# 
# From -- ./inp_files/75104.got.cif
#   From: 2010.05.17/outbox.cif.g08.bks.cpg/sg65_38_cif.got.tgz:75104.got - 2010.06.03 17:01:31.
