data_PCOD9485925
_publ_section_title
;
Structure prediction by ZEFSAII (Michael W. Deem and Ramdas Pophale) SiO2 
 PCOD9485925
Probable space group: C M M M
;
_chemical_formula_sum "Si O2"
_cell_formula_units_Z 112
_cell_length_a 17.700855
_cell_length_b 16.184642
_cell_length_c 23.103857
_cell_angle_alpha 90.000000
_cell_angle_beta 90.000000
_cell_angle_gamma 90.000000
_cell_volume 6618.839190
_symmetry_space_group_name_H-M "C M M M"
_symmetry_group_IT_number 65
_symmetry_cell_setting 'orthorhombic'
loop_
_space_group_symop_operation_xyz
x,y,z
-x,-y,z
x,-y,-z
-x,y,-z
-x,-y,-z
x,y,-z
-x,y,z
x,-y,z
1/2+x,1/2+y,z
1/2-x,1/2-y,z
1/2+x,1/2-y,-z
1/2-x,1/2+y,-z
1/2-x,1/2-y,-z
1/2+x,1/2+y,-z
1/2-x,1/2+y,z
1/2+x,1/2-y,z
loop_
_atom_site_type_symbol
_atom_site_label
_atom_site_fract_x
_atom_site_fract_y
_atom_site_fract_z
Si Si1 0.267022 0.595647 0.261663
Si Si2 0.870107 0.907023 0.433178
Si Si3 0.179783 0.304296 0.837481
Si Si4 0.912968 0.202778 0.748602
Si Si5 0.588235 0.099041 0.066745
Si Si6 0.914731 0.733885 0.377993
Si Si7 0.297055 0.094185 0.608438
O O1 0.268227 0.500000 0.247107
O O2 0.217426 0.643137 0.214408
O O3 0.351430 0.631701 0.261791
O O4 0.231860 0.605106 0.325448
O O5 0.893902 0.903209 0.500000
O O6 0.901788 0.827602 0.400035
O O7 0.779139 0.900319 0.428973
O O8 0.889470 0.000000 0.410632
O O9 0.250000 0.250000 0.860206
O O10 0.115989 0.249570 0.805701
O O11 0.141908 0.357423 0.887425
O O12 0.907505 0.261074 0.691769
O O13 0.000000 0.176112 0.753163
O O14 0.500000 0.119319 0.077866
O O15 0.595388 0.000000 0.071513
O O16 0.605021 0.121638 0.000000
O O17 0.855529 0.667796 0.402710
O O18 0.000000 0.709075 0.392599
O O19 0.327343 0.000000 0.602571
#
# Coordination Sequence:
#
# PCOD9485925 Si02
#       7
#    16  16  16  16  16  16  16
#     4  10  19  32  51  74 100 136 174 213 258 303
#     4  10  22  39  60  83 103 133 177 221 267 320
#     4  10  19  31  51  75 104 140 171 215 257 305
#     4  10  20  32  48  74 105 136 170 209 260 317
#     4   9  18  33  52  74 104 141 178 217 258 300
#     4  11  22  35  54  77 108 142 170 214 271 316
#     4  10  20  36  56  76 105 138 176 220 258 310
#
# _framework density 16.921396000000001
#
# number of rings (size 3 to 8) (size 9 to 14) (size 15 to 20)
#    0.000    2.000    2.857    1.714    0.000    2.571 
#    0.000    2.143    0.000    0.000    0.000    3.000 
#    0.000    0.000    0.000   26.571    0.000    0.143 
#
# Total GULP energy -312315.264566 kJ/mol
# GULP energy per Si atom -5577.058296 kJ/mol
# Density = 1.688288 g / cm^3
# Si number density = 16.921396 Si / 1000 Ang^3
#
#
#
# Elastic Constant Matrix: (Units=GPa)
#
#
# Indices 1 2 3 4 5 6 
#
# 1 61.0125 30.2489 9.6116 0.0000 0.0000 0.0000
# 2 30.2489 62.8461 9.8405 0.0000 0.0000 0.0000
# 3 9.6116 9.8405 49.8218 0.0000 0.0000 0.0000
# 4 0.0000 0.0000 0.0000 23.8052 0.0000 0.0000
# 5 0.0000 0.0000 0.0000 0.0000 -13.1445 0.0000
# 6 0.0000 0.0000 0.0000 0.0000 0.0000 12.1926
#
#
#
# Elastic Compliance Matrix: (Units=1/GPa)
#
#
# Indices 1 2 3 4 5 6 
#
# 1 0.021758 -0.010128 -0.002197 0.000000 0.000000 0.000000
# 2 -0.010128 0.021135 -0.002220 0.000000 0.000000 0.000000
# 3 -0.002197 -0.002220 0.020934 0.000000 0.000000 0.000000
# 4 0.000000 0.000000 0.000000 0.042008 0.000000 0.000000
# 5 0.000000 0.000000 0.000000 0.000000 -0.076077 0.000000
# 6 0.000000 0.000000 0.000000 0.000000 0.000000 0.082017
#
#
# Mechanical properties :
#
#
# Convention : Reuss Voigt Hill
#
# Bulk Modulus (GPa) = 28.78973 30.34251 29.56612
# Shear Modulus (GPa) = 32.79922 12.83595 22.81759
#
# Velocity S-wave (km/s) = 4.40742 2.75719 3.67610
# Velocity P-wave (km/s) = 6.55372 5.30156 5.96061
#
# Compressibility (1/GPa) = 0.03473461
#
# Stress axis : x y z
#
# Youngs Moduli (GPa) = 45.96084 47.31597 47.76935
#
# Poissons Ratio (x) = 0.47923 0.10495
# Poissons Ratio (y) = 0.46551 0.10607
# Poissons Ratio (z) = 0.10098 0.10506
#
# Static dielectric constant tensor:
#      x y z
#    x 1.563880 0.000000 0.000000 
#    y 0.000000 1.574830 0.000000 
#    z 0.000000 0.000000 1.567360 
# 
# From -- ./inp_files/70016.got.cif
#   From: 2010.05.17/outbox.cif.g08.bks.cpg/sg65_36_cif.got.tgz:70016.got - 2010.06.03 17:01:31.
