data_PCOD9485235
_publ_section_title
;
Structure prediction by ZEFSAII (Michael W. Deem and Ramdas Pophale) SiO2 
 PCOD9485235
Probable space group: C M M M
;
_chemical_formula_sum "Si O2"
_cell_formula_units_Z 104
_cell_length_a 7.681187
_cell_length_b 28.048842
_cell_length_c 24.213404
_cell_angle_alpha 90.000000
_cell_angle_beta 90.000000
_cell_angle_gamma 90.000000
_cell_volume 5216.739163
_symmetry_space_group_name_H-M "C M M M"
_symmetry_group_IT_number 65
_symmetry_cell_setting 'orthorhombic'
loop_
_space_group_symop_operation_xyz
x,y,z
-x,-y,z
x,-y,-z
-x,y,-z
-x,-y,-z
x,y,-z
-x,y,z
x,-y,z
1/2+x,1/2+y,z
1/2-x,1/2-y,z
1/2+x,1/2-y,-z
1/2-x,1/2+y,-z
1/2-x,1/2-y,-z
1/2+x,1/2+y,-z
1/2-x,1/2+y,z
1/2+x,1/2-y,z
loop_
_atom_site_type_symbol
_atom_site_label
_atom_site_fract_x
_atom_site_fract_y
_atom_site_fract_z
Si Si1 0.213442 0.604936 0.435593
Si Si2 0.795615 0.196174 0.238176
Si Si3 0.207082 0.694840 0.937597
Si Si4 0.205343 0.500000 0.566968
Si Si5 0.293282 0.196418 0.632645
Si Si6 0.288098 0.444143 0.938953
Si Si7 0.196148 0.876151 0.152943
O O1 0.261413 0.610047 0.500000
O O2 0.273904 0.552216 0.415477
O O3 0.275112 0.651022 0.401542
O O4 0.000000 0.604047 0.433809
O O5 0.750000 0.250000 0.219550
O O6 0.760335 0.193332 0.303305
O O7 0.717419 0.151494 0.204432
O O8 0.000000 0.192282 0.229186
O O9 0.250000 0.750000 0.930960
O O10 0.309211 0.665227 0.892853
O O11 0.000000 0.687463 0.930744
O O12 0.256487 0.681611 0.000000
O O13 0.217799 0.500000 0.500000
O O14 0.000000 0.500000 0.580865
O O15 0.500000 0.193137 0.630984
O O16 0.250000 0.250000 0.612263
O O17 0.500000 0.438625 0.938814
O O18 0.250451 0.500000 0.935724
O O19 0.220328 0.417694 0.884305
O O20 0.227119 0.427423 0.000000
O O21 0.000000 0.892067 0.168570
#
# Coordination Sequence:
#
# PCOD9485235 Si02
#       7
#    16  16  16   8  16  16  16
#     4   8  14  25  44  71  99 125 157 197 240 284
#     4  10  20  33  48  66  90 121 159 197 233 275
#     4  10  20  31  43  63  92 121 145 175 220 273
#     4   7  10  20  40  66  95 123 151 189 232 271
#     4  10  19  31  48  69  95 128 161 196 238 285
#     4   8  14  26  46  71  94 115 145 187 230 273
#     4  10  19  30  48  70  89 115 152 193 232 270
#
# _framework density 19.935825000000001
#
# number of rings (size 3 to 8) (size 9 to 14) (size 15 to 20)
#    0.000    2.846    0.000    4.615    0.000    4.308 
#    0.000    0.000    1.692    1.846    0.000    3.769 
#    0.000    7.385    0.000    0.000    0.000    0.000 
#
# Total GULP energy -289608.639930 kJ/mol
# GULP energy per Si atom -5569.396922 kJ/mol
# Density = 1.989045 g / cm^3
# Si number density = 19.935825 Si / 1000 Ang^3
#
#
#
# Elastic Constant Matrix: (Units=GPa)
#
#
# Indices 1 2 3 4 5 6 
#
# 1 40.3255 -2.1097 1.7013 0.0000 0.0000 0.0000
# 2 -2.1097 160.3265 62.5700 0.0000 0.0000 0.0000
# 3 1.7013 62.5700 63.1058 0.0000 0.0000 0.0000
# 4 0.0000 0.0000 0.0000 39.9887 0.0000 0.0000
# 5 0.0000 0.0000 0.0000 0.0000 16.7666 0.0000
# 6 0.0000 0.0000 0.0000 0.0000 0.0000 2.8366
#
#
#
# Elastic Compliance Matrix: (Units=1/GPa)
#
#
# Indices 1 2 3 4 5 6 
#
# 1 0.024917 0.000962 -0.001626 0.000000 0.000000 0.000000
# 2 0.000962 0.010211 -0.010151 0.000000 0.000000 0.000000
# 3 -0.001626 -0.010151 0.025955 0.000000 0.000000 0.000000
# 4 0.000000 0.000000 0.000000 0.025007 0.000000 0.000000
# 5 0.000000 0.000000 0.000000 0.000000 0.059642 0.000000
# 6 0.000000 0.000000 0.000000 0.000000 0.000000 0.352534
#
#
# Mechanical properties :
#
#
# Convention : Reuss Voigt Hill
#
# Bulk Modulus (GPa) = 25.34545 43.12012 34.23279
# Shear Modulus (GPa) = 9.38004 25.35814 17.36909
#
# Velocity S-wave (km/s) = 2.17148 3.57036 2.95490
# Velocity P-wave (km/s) = 4.36214 6.21877 5.37128
#
# Compressibility (1/GPa) = 0.03945481
#
# Stress axis : x y z
#
# Youngs Moduli (GPa) = 40.13298 97.92987 38.52863
#
# Poissons Ratio (x) = -0.09425 0.06265
# Poissons Ratio (y) = -0.03863 0.39109
# Poissons Ratio (z) = 0.06526 0.99405
#
# Static dielectric constant tensor:
#      x y z
#    x 1.756120 0.000000 0.000000 
#    y 0.000000 1.759490 0.000000 
#    z 0.000000 0.000000 1.726060 
# 
# From -- ./inp_files/68142.got.cif
#   From: 2010.05.17/outbox.cif.g08.bks.cpg/sg65_35_cif.got.tgz:68142.got - 2010.06.03 17:01:31.
