data_PCOD9485376
_publ_section_title
;
Structure prediction by ZEFSAII (Michael W. Deem and Ramdas Pophale) SiO2 
 PCOD9485376
Probable space group: C M M M
;
_chemical_formula_sum "Si O2"
_cell_formula_units_Z 96
_cell_length_a 28.259687
_cell_length_b 8.020438
_cell_length_c 24.959760
_cell_angle_alpha 90.000000
_cell_angle_beta 90.000000
_cell_angle_gamma 90.000000
_cell_volume 5657.256087
_symmetry_space_group_name_H-M "C M M M"
_symmetry_group_IT_number 65
_symmetry_cell_setting 'orthorhombic'
loop_
_space_group_symop_operation_xyz
x,y,z
-x,-y,z
x,-y,-z
-x,y,-z
-x,-y,-z
x,y,-z
-x,y,z
x,-y,z
1/2+x,1/2+y,z
1/2-x,1/2-y,z
1/2+x,1/2-y,-z
1/2-x,1/2+y,-z
1/2-x,1/2-y,-z
1/2+x,1/2+y,-z
1/2-x,1/2+y,z
1/2+x,1/2-y,z
loop_
_atom_site_type_symbol
_atom_site_label
_atom_site_fract_x
_atom_site_fract_y
_atom_site_fract_z
Si Si1 0.896101 0.296107 0.725053
Si Si2 0.853198 0.801952 0.891109
Si Si3 0.557536 0.194659 0.500000
Si Si4 0.303122 0.801320 0.217473
Si Si5 0.194970 0.202153 0.000000
Si Si6 0.552855 0.200485 0.833676
Si Si7 0.055094 0.295618 0.616667
O O1 0.896965 0.500000 0.724249
O O2 0.843274 0.241577 0.741023
O O3 0.929469 0.243425 0.774718
O O4 0.914914 0.239561 0.667663
O O5 0.819362 0.757501 0.841287
O O6 0.831446 0.735868 0.946445
O O7 0.905834 0.743819 0.875376
O O8 0.854931 0.000000 0.895228
O O9 0.500000 0.197441 0.500000
O O10 0.571693 0.265093 0.442066
O O11 0.571808 0.000000 0.500000
O O12 0.250000 0.750000 0.229919
O O13 0.305508 0.000000 0.216783
O O14 0.250000 0.250000 0.000000
O O15 0.193005 0.000000 0.000000
O O16 0.500000 0.263064 0.845671
O O17 0.550878 0.000000 0.831523
O O18 0.056207 0.500000 0.615245
O O19 0.000000 0.249805 0.624054
#
# Coordination Sequence:
#
# PCOD9485376 Si02
#       7
#    16  16   8  16   8  16  16
#     4   8  14  23  37  57  80 108 142 176 210 251
#     4  10  20  34  50  69  91 114 142 174 212 257
#     4   7  10  14  22  42  73 106 137 167 201 243
#     4  10  19  31  46  65  87 111 140 175 217 261
#     4  10  22  36  51  70  89 111 140 175 215 260
#     4   9  17  30  47  67  91 119 150 181 212 249
#     4   8  11  16  28  48  76 108 138 168 204 246
#
# _framework density 16.969356999999999
#
# number of rings (size 3 to 8) (size 9 to 14) (size 15 to 20)
#    0.000    3.083    0.000    4.000    0.000    5.000 
#    0.000    0.417    0.000    2.500    0.000    0.583 
#    0.000    0.000    0.000   18.000    0.000  164.333 
#
# Total GULP energy -267357.224533 kJ/mol
# GULP energy per Si atom -5569.942178 kJ/mol
# Density = 1.693073 g / cm^3
# Si number density = 16.969357 Si / 1000 Ang^3
#
#
#
# Elastic Constant Matrix: (Units=GPa)
#
#
# Indices 1 2 3 4 5 6 
#
# 1 139.4406 10.0600 92.2002 0.0000 0.0000 0.0000
# 2 10.0600 12.9060 8.4326 0.0000 0.0000 0.0000
# 3 92.2002 8.4326 173.8866 0.0000 0.0000 0.0000
# 4 0.0000 0.0000 0.0000 -9.3025 0.0000 0.0000
# 5 0.0000 0.0000 0.0000 0.0000 20.8501 0.0000
# 6 0.0000 0.0000 0.0000 0.0000 0.0000 19.9036
#
#
#
# Elastic Compliance Matrix: (Units=1/GPa)
#
#
# Indices 1 2 3 4 5 6 
#
# 1 0.011357 -0.005079 -0.005775 0.000000 0.000000 0.000000
# 2 -0.005079 0.082290 -0.001298 0.000000 0.000000 0.000000
# 3 -0.005775 -0.001298 0.008876 0.000000 0.000000 0.000000
# 4 0.000000 0.000000 0.000000 -0.107498 0.000000 0.000000
# 5 0.000000 0.000000 0.000000 0.000000 0.047961 0.000000
# 6 0.000000 0.000000 0.000000 0.000000 0.000000 0.050242
#
#
# Mechanical properties :
#
#
# Convention : Reuss Voigt Hill
#
# Bulk Modulus (GPa) = 12.78462 60.84653 36.81558
# Shear Modulus (GPa) = 34.81768 20.65961 27.73864
#
# Velocity S-wave (km/s) = 4.53459 3.49301 4.04744
# Velocity P-wave (km/s) = 5.91329 7.22514 6.60188
#
# Compressibility (1/GPa) = 0.07821897
#
# Stress axis : x y z
#
# Youngs Moduli (GPa) = 88.05387 12.15216 112.66220
#
# Poissons Ratio (x) = 0.06172 0.65067
# Poissons Ratio (y) = 0.44721 0.14620
# Poissons Ratio (z) = 0.50854 0.01577
#
# Static dielectric constant tensor:
#      x y z
#    x 1.557610 0.000000 0.000000 
#    y 0.000000 1.616630 0.000000 
#    z 0.000000 0.000000 1.591860 
# 
# From -- ./inp_files/71733.got.cif
#   From: 2010.05.17/outbox.cif.g08.bks.cpg/sg65_36_cif.got.tgz:71733.got - 2010.06.03 17:01:31.
