data_PCOD9485515
_publ_section_title
;
Structure prediction by ZEFSAII (Michael W. Deem and Ramdas Pophale) SiO2 
 PCOD9485515
Probable space group: C M M M
;
_chemical_formula_sum "Si O2"
_cell_formula_units_Z 120
_cell_length_a 18.800308
_cell_length_b 18.364874
_cell_length_c 17.878063
_cell_angle_alpha 90.000000
_cell_angle_beta 90.000000
_cell_angle_gamma 90.000000
_cell_volume 6172.674563
_symmetry_space_group_name_H-M "C M M M"
_symmetry_group_IT_number 65
_symmetry_cell_setting 'orthorhombic'
loop_
_space_group_symop_operation_xyz
x,y,z
-x,-y,z
x,-y,-z
-x,y,-z
-x,-y,-z
x,y,-z
-x,y,z
x,-y,z
1/2+x,1/2+y,z
1/2-x,1/2-y,z
1/2+x,1/2-y,-z
1/2-x,1/2+y,-z
1/2-x,1/2-y,-z
1/2+x,1/2+y,-z
1/2-x,1/2+y,z
1/2+x,1/2-y,z
loop_
_atom_site_type_symbol
_atom_site_label
_atom_site_fract_x
_atom_site_fract_y
_atom_site_fract_z
Si Si1 0.294579 0.414351 0.232529
Si Si2 0.679316 0.361762 0.916305
Si Si3 0.418014 0.315383 0.285649
Si Si4 0.082484 0.733287 0.871782
Si Si5 0.166468 0.268191 0.413474
Si Si6 0.578271 0.500000 0.911230
Si Si7 0.914753 0.420198 0.178338
Si Si8 0.339739 0.916621 0.335786
O O1 0.296763 0.500000 0.216591
O O2 0.377962 0.426120 0.101103
O O3 0.369069 0.382827 0.261169
O O4 0.236916 0.404613 0.297247
O O5 0.636519 0.286369 0.913486
O O6 0.727658 0.370449 0.842702
O O7 0.708535 0.373126 0.000000
O O8 0.500000 0.334438 0.299138
O O9 0.416067 0.260567 0.214587
O O10 0.381471 0.277708 0.356505
O O11 0.104849 0.649212 0.871300
O O12 0.000000 0.741190 0.897450
O O13 0.151385 0.251892 0.500000
O O14 0.250000 0.250000 0.399950
O O15 0.151407 0.352951 0.395257
O O16 0.500000 0.500000 0.875160
O O17 0.569023 0.500000 0.000000
O O18 0.886244 0.500000 0.155370
O O19 0.892112 0.409418 0.264544
O O20 0.000000 0.422206 0.175712
O O21 0.344680 0.000000 0.363540
#
# Coordination Sequence:
#
# PCOD9485515 Si02
#       8
#    16  16  16  16  16   8  16  16
#     4  10  20  35  54  81 113 152 194 229 273 332
#     4  10  19  31  47  73 109 144 180 228 280 330
#     4  10  20  35  55  82 113 147 187 228 269 324
#     4   9  17  29  49  75 103 139 179 218 268 329
#     4  11  22  37  58  83 110 146 184 226 282 334
#     4   9  16  26  42  66 102 142 172 208 268 329
#     4   9  17  31  54  82 106 133 178 233 283 330
#     4  10  20  35  58  84 112 147 184 228 280 336
#
# _framework density 19.440519999999999
#
# number of rings (size 3 to 8) (size 9 to 14) (size 15 to 20)
#    0.000    2.200    3.333    0.400    0.000    2.133 
#    0.000    0.000    0.000    2.400    0.000    7.467 
#    0.000    0.000    0.000    0.000    0.000    0.000 
#
# Total GULP energy -334619.150045 kJ/mol
# GULP energy per Si atom -5576.985834 kJ/mol
# Density = 1.939627 g / cm^3
# Si number density = 19.440520 Si / 1000 Ang^3
#
#
#
# Elastic Constant Matrix: (Units=GPa)
#
#
# Indices 1 2 3 4 5 6 
#
# 1 48.4294 8.8627 14.5228 0.0000 0.0000 0.0000
# 2 8.8627 85.5483 12.7796 0.0000 0.0000 0.0000
# 3 14.5228 12.7796 74.6704 0.0000 0.0000 0.0000
# 4 0.0000 0.0000 0.0000 23.5559 0.0000 0.0000
# 5 0.0000 0.0000 0.0000 0.0000 1.5574 0.0000
# 6 0.0000 0.0000 0.0000 0.0000 0.0000 14.8349
#
#
#
# Elastic Compliance Matrix: (Units=1/GPa)
#
#
# Indices 1 2 3 4 5 6 
#
# 1 0.022165 -0.001696 -0.004021 0.000000 0.000000 0.000000
# 2 -0.001696 0.012126 -0.001746 0.000000 0.000000 0.000000
# 3 -0.004021 -0.001746 0.014473 0.000000 0.000000 0.000000
# 4 0.000000 0.000000 0.000000 0.042452 0.000000 0.000000
# 5 0.000000 0.000000 0.000000 0.000000 0.642102 0.000000
# 6 0.000000 0.000000 0.000000 0.000000 0.000000 0.067409
#
#
# Mechanical properties :
#
#
# Convention : Reuss Voigt Hill
#
# Bulk Modulus (GPa) = 29.55105 31.21982 30.38544
# Shear Modulus (GPa) = 6.04647 19.48850 12.76748
#
# Velocity S-wave (km/s) = 1.76550 3.16961 2.56549
# Velocity P-wave (km/s) = 4.40338 5.43040 4.94363
#
# Compressibility (1/GPa) = 0.03383974
#
# Stress axis : x y z
#
# Youngs Moduli (GPa) = 45.11692 82.46937 69.09462
#
# Poissons Ratio (x) = 0.13984 0.27781
# Poissons Ratio (y) = 0.07650 0.12060
# Poissons Ratio (z) = 0.18140 0.14395
#
# Static dielectric constant tensor:
#      x y z
#    x 1.737910 0.000000 0.000000 
#    y 0.000000 1.700340 0.000000 
#    z 0.000000 0.000000 1.668340 
# 
# From -- ./inp_files/56094.got.cif
#   From: 2010.05.17/outbox.cif.g08.bks.cpg/sg65_29_cif.got.tgz:56094.got - 2010.06.03 17:01:31.
