data_PCOD9485932
_publ_section_title
;
Structure prediction by ZEFSAII (Michael W. Deem and Ramdas Pophale) SiO2 
 PCOD9485932
Probable space group: C M M M
;
_chemical_formula_sum "Si O2"
_cell_formula_units_Z 96
_cell_length_a 20.881328
_cell_length_b 28.831122
_cell_length_c 7.508704
_cell_angle_alpha 90.000000
_cell_angle_beta 90.000000
_cell_angle_gamma 90.000000
_cell_volume 4520.480951
_symmetry_space_group_name_H-M "C M M M"
_symmetry_group_IT_number 65
_symmetry_cell_setting 'orthorhombic'
loop_
_space_group_symop_operation_xyz
x,y,z
-x,-y,z
x,-y,-z
-x,y,-z
-x,-y,-z
x,y,-z
-x,y,z
x,-y,z
1/2+x,1/2+y,z
1/2-x,1/2-y,z
1/2+x,1/2-y,-z
1/2-x,1/2+y,-z
1/2-x,1/2-y,-z
1/2+x,1/2+y,-z
1/2-x,1/2+y,z
1/2+x,1/2-y,z
loop_
_atom_site_type_symbol
_atom_site_label
_atom_site_fract_x
_atom_site_fract_y
_atom_site_fract_z
Si Si1 0.315928 0.618737 0.708252
Si Si2 0.072737 0.290627 0.282946
Si Si3 0.814006 0.223594 0.718306
Si Si4 0.572569 0.103325 0.714987
Si Si5 0.798531 0.448081 0.791717
Si Si6 0.072451 0.052985 0.717580
O O1 0.331070 0.624645 0.500000
O O2 0.312642 0.670600 0.781687
O O3 0.249981 0.590193 0.717294
O O4 0.373080 0.587408 0.783814
O O5 0.073592 0.290809 0.500000
O O6 0.124428 0.253167 0.224089
O O7 0.087425 0.343657 0.227876
O O8 0.000000 0.279925 0.228226
O O9 0.814128 0.223413 0.500000
O O10 0.750000 0.250000 0.773637
O O11 0.571889 0.103328 0.500000
O O12 0.500000 0.091872 0.774114
O O13 0.628561 0.068939 0.771007
O O14 0.789676 0.500000 0.716125
O O15 0.784070 0.450291 0.000000
O O16 0.073774 0.052813 0.500000
O O17 0.000000 0.065641 0.769803
O O18 0.085074 0.000000 0.773132
#
# Coordination Sequence:
#
# PCOD9485932 Si02
#       6
#    16  16  16  16  16  16
#     4  10  19  31  51  75  98 130 170 207 243 290
#     4   8  14  26  46  74 106 133 157 193 243 295
#     4   9  16  25  41  68  99 127 156 194 238 281
#     4   9  18  34  57  81 102 129 167 206 244 294
#     4  11  24  38  51  70  99 134 169 209 259 308
#     4   8  14  25  42  67  97 122 148 192 246 289
#
# _framework density 21.236678999999999
#
# number of rings (size 3 to 8) (size 9 to 14) (size 15 to 20)
#    0.000    2.833    0.000    3.500    0.000    6.000 
#    0.000    5.000    0.000    5.000    0.000    2.333 
#    0.000    0.000    0.000    0.000    0.000    0.000 
#
# Total GULP energy -267967.375809 kJ/mol
# GULP energy per Si atom -5582.653663 kJ/mol
# Density = 2.118834 g / cm^3
# Si number density = 21.236679 Si / 1000 Ang^3
#
#
#
# Elastic Constant Matrix: (Units=GPa)
#
#
# Indices 1 2 3 4 5 6 
#
# 1 95.2908 58.3036 -6.1169 0.0000 0.0000 0.0000
# 2 58.3036 104.3641 1.2978 0.0000 0.0000 0.0000
# 3 -6.1169 1.2978 53.3358 0.0000 0.0000 0.0000
# 4 0.0000 0.0000 0.0000 9.2488 0.0000 0.0000
# 5 0.0000 0.0000 0.0000 0.0000 -54.2874 0.0000
# 6 0.0000 0.0000 0.0000 0.0000 0.0000 43.1139
#
#
#
# Elastic Compliance Matrix: (Units=1/GPa)
#
#
# Indices 1 2 3 4 5 6 
#
# 1 0.016170 -0.009060 0.002075 0.000000 0.000000 0.000000
# 2 -0.009060 0.014660 -0.001396 0.000000 0.000000 0.000000
# 3 0.002075 -0.001396 0.019021 0.000000 0.000000 0.000000
# 4 0.000000 0.000000 0.000000 0.108122 0.000000 0.000000
# 5 0.000000 0.000000 0.000000 0.000000 -0.018420 0.000000
# 6 0.000000 0.000000 0.000000 0.000000 0.000000 0.023194
#
#
# Mechanical properties :
#
#
# Convention : Reuss Voigt Hill
#
# Bulk Modulus (GPa) = 30.21940 39.99554 35.10747
# Shear Modulus (GPa) = 26.24136 12.91546 19.57841
#
# Velocity S-wave (km/s) = 3.51901 2.46878 3.03960
# Velocity P-wave (km/s) = 5.54725 5.19621 5.37460
#
# Compressibility (1/GPa) = 0.03309132
#
# Stress axis : x y z
#
# Youngs Moduli (GPa) = 61.84119 68.21121 52.57324
#
# Poissons Ratio (x) = 0.61796 -0.10909
# Poissons Ratio (y) = 0.56025 0.07338
# Poissons Ratio (z) = -0.12832 0.09521
#
# Static dielectric constant tensor:
#      x y z
#    x 1.732840 0.000000 0.000000 
#    y 0.000000 1.758360 0.000000 
#    z 0.000000 0.000000 1.816560 
# 
# From -- ./inp_files/12327.got.cif
#   From: 2010.05.17/outbox.cif.g08.bks.cpg/sg65_7_cif.got.tgz:12327.got - 2010.06.03 17:01:31.
