data_PCOD9485599
_publ_section_title
;
Structure prediction by ZEFSAII (Michael W. Deem and Ramdas Pophale) SiO2 
 PCOD9485599
Probable space group: C M M M
;
_chemical_formula_sum "Si O2"
_cell_formula_units_Z 88
_cell_length_a 33.215840
_cell_length_b 11.843478
_cell_length_c 12.558257
_cell_angle_alpha 90.000000
_cell_angle_beta 90.000000
_cell_angle_gamma 90.000000
_cell_volume 4940.306162
_symmetry_space_group_name_H-M "C M M M"
_symmetry_group_IT_number 65
_symmetry_cell_setting 'orthorhombic'
loop_
_space_group_symop_operation_xyz
x,y,z
-x,-y,z
x,-y,-z
-x,y,-z
-x,-y,-z
x,y,-z
-x,y,z
x,-y,z
1/2+x,1/2+y,z
1/2-x,1/2-y,z
1/2+x,1/2-y,-z
1/2-x,1/2+y,-z
1/2-x,1/2-y,-z
1/2+x,1/2+y,-z
1/2-x,1/2+y,z
1/2+x,1/2-y,z
loop_
_atom_site_type_symbol
_atom_site_label
_atom_site_fract_x
_atom_site_fract_y
_atom_site_fract_z
Si Si1 0.766204 0.371468 0.323982
Si Si2 0.102307 0.500000 0.875126
Si Si3 0.347961 0.199030 0.231082
Si Si4 0.290617 0.626293 0.120808
Si Si5 0.547985 0.000000 0.320983
Si Si6 0.500000 0.370063 0.629402
Si Si7 0.420025 0.757107 0.377542
O O1 0.757973 0.500000 0.368117
O O2 0.750000 0.250000 0.371914
O O3 0.813842 0.357946 0.305713
O O4 0.745086 0.371700 0.207274
O O5 0.128677 0.607355 0.838889
O O6 0.062382 0.500000 0.802029
O O7 0.094441 0.500000 0.000000
O O8 0.323781 0.285082 0.157224
O O9 0.380924 0.258511 0.305560
O O10 0.307944 0.500000 0.125545
O O11 0.276753 0.645264 0.000000
O O12 0.567241 0.111549 0.371906
O O13 0.500000 0.000000 0.333601
O O14 0.500000 0.500000 0.660179
O O15 0.500000 0.362510 0.500000
O O16 0.459092 0.309534 0.664208
O O17 0.412317 0.725014 0.500000
#
# Coordination Sequence:
#
# PCOD9485599 Si02
#       7
#    16   8  16  16   8   8  16
#     4   9  17  30  46  69 100 136 169 216 259 305
#     4  10  20  30  45  72 104 133 161 201 255 309
#     4  10  19  31  48  72 103 132 166 210 256 306
#     4   9  18  31  49  73  99 133 174 212 251 300
#     4  10  19  33  52  73  99 128 165 203 252 303
#     4   9  18  33  53  77 101 125 160 206 256 308
#     4  10  20  33  52  77 101 129 165 209 259 307
#
# _framework density 17.812662
#
# number of rings (size 3 to 8) (size 9 to 14) (size 15 to 20)
#    0.000    2.455    1.818    0.818    0.000    5.273 
#    0.000    0.000    0.000    4.909    0.000    5.091 
#    0.000    5.818    0.000    0.000    0.000    0.000 
#
# Total GULP energy -245108.686014 kJ/mol
# GULP energy per Si atom -5570.651955 kJ/mol
# Density = 1.777212 g / cm^3
# Si number density = 17.812662 Si / 1000 Ang^3
#
#
#
# Elastic Constant Matrix: (Units=GPa)
#
#
# Indices 1 2 3 4 5 6 
#
# 1 64.8986 5.0074 19.6864 0.0000 0.0000 0.0000
# 2 5.0074 101.9820 -0.5753 0.0000 0.0000 0.0000
# 3 19.6864 -0.5753 61.9936 0.0000 0.0000 0.0000
# 4 0.0000 0.0000 0.0000 -13.5506 0.0000 0.0000
# 5 0.0000 0.0000 0.0000 0.0000 -8.6327 0.0000
# 6 0.0000 0.0000 0.0000 0.0000 0.0000 15.0779
#
#
#
# Elastic Compliance Matrix: (Units=1/GPa)
#
#
# Indices 1 2 3 4 5 6 
#
# 1 0.017128 -0.000872 -0.005447 0.000000 0.000000 0.000000
# 2 -0.000872 0.009851 0.000368 0.000000 0.000000 0.000000
# 3 -0.005447 0.000368 0.017864 0.000000 0.000000 0.000000
# 4 0.000000 0.000000 0.000000 -0.073797 0.000000 0.000000
# 5 0.000000 0.000000 0.000000 0.000000 -0.115838 0.000000
# 6 0.000000 0.000000 0.000000 0.000000 0.000000 0.066322
#
#
# Mechanical properties :
#
#
# Convention : Reuss Voigt Hill
#
# Bulk Modulus (GPa) = 30.35711 30.79013 30.57362
# Shear Modulus (GPa) = -89.94653 12.22929 -38.85862
#
# Velocity S-wave (km/s) = -7.11375 2.62305 -4.67574
# Velocity P-wave (km/s) = 7.09891 5.14752 3.45670
#
# Compressibility (1/GPa) = 0.03294121
#
# Stress axis : x y z
#
# Youngs Moduli (GPa) = 58.38290 101.51737 55.97873
#
# Poissons Ratio (x) = 0.08850 0.30493
# Poissons Ratio (y) = 0.05089 -0.02061
# Poissons Ratio (z) = 0.31803 -0.03738
#
# Static dielectric constant tensor:
#      x y z
#    x 1.582920 0.000000 0.000000 
#    y 0.000000 1.659070 0.000000 
#    z 0.000000 0.000000 1.601140 
# 
# From -- ./inp_files/47666.got.cif
#   From: 2010.05.17/outbox.cif.g08.bks.cpg/sg65_24_cif.got.tgz:47666.got - 2010.06.03 17:01:31.
