data_PCOD9485149
_publ_section_title
;
Structure prediction by ZEFSAII (Michael W. Deem and Ramdas Pophale) SiO2 
 PCOD9485149
Probable space group: C M M M
;
_chemical_formula_sum "Si O2"
_cell_formula_units_Z 104
_cell_length_a 33.477648
_cell_length_b 14.055226
_cell_length_c 12.506367
_cell_angle_alpha 90.000000
_cell_angle_beta 90.000000
_cell_angle_gamma 90.000000
_cell_volume 5884.694759
_symmetry_space_group_name_H-M "C M M M"
_symmetry_group_IT_number 65
_symmetry_cell_setting 'orthorhombic'
loop_
_space_group_symop_operation_xyz
x,y,z
-x,-y,z
x,-y,-z
-x,y,-z
-x,-y,-z
x,y,-z
-x,y,z
x,-y,z
1/2+x,1/2+y,z
1/2-x,1/2-y,z
1/2+x,1/2-y,-z
1/2-x,1/2+y,-z
1/2-x,1/2-y,-z
1/2+x,1/2+y,-z
1/2-x,1/2+y,z
1/2+x,1/2-y,z
loop_
_atom_site_type_symbol
_atom_site_label
_atom_site_fract_x
_atom_site_fract_y
_atom_site_fract_z
Si Si1 0.543556 0.615453 0.335054
Si Si2 0.201608 0.825492 0.500000
Si Si3 0.889117 0.115299 0.500000
Si Si4 0.579345 0.614502 0.882364
Si Si5 0.333207 0.703572 0.874061
Si Si6 0.814468 0.389807 0.500000
Si Si7 0.235117 0.142137 0.725573
Si Si8 0.674414 0.102469 0.742773
O O1 0.500000 0.648527 0.373261
O O2 0.542736 0.500000 0.342305
O O3 0.582750 0.643071 0.400668
O O4 0.550660 0.643889 0.213117
O O5 0.153656 0.835985 0.500000
O O6 0.289884 0.789518 0.500000
O O7 0.217291 0.874568 0.391981
O O8 0.883345 0.000000 0.500000
O O9 0.581737 0.500000 0.879410
O O10 0.623793 0.654329 0.866188
O O11 0.565282 0.643350 0.000000
O O12 0.299744 0.639712 0.813711
O O13 0.335531 0.805356 0.813354
O O14 0.323207 0.715378 0.000000
O O15 0.797702 0.500000 0.500000
O O16 0.835607 0.383619 0.616267
O O17 0.250000 0.250000 0.725721
O O18 0.277254 0.093573 0.745907
O O19 0.657599 0.000000 0.778216
#
# Coordination Sequence:
#
# PCOD9485149 Si02
#       8
#    16   8   8  16  16   8  16  16
#     4   9  17  30  47  68  98 131 157 184 223 276
#     4  12  18  31  53  70  94 124 160 201 246 283
#     4  10  21  30  43  71 103 129 155 185 228 288
#     4   9  18  32  49  70  95 125 162 199 233 273
#     4  10  20  33  48  67  95 127 158 199 245 285
#     4  10  19  33  50  69  91 117 153 202 251 282
#     4  10  19  30  47  65  88 118 158 200 244 283
#     4  10  21  34  49  68  91 122 160 205 248 287
#
# _framework density 17.672965000000001
#
# number of rings (size 3 to 8) (size 9 to 14) (size 15 to 20)
#    0.000    2.154    3.077    1.846    0.000    5.538 
#    0.000    1.538    0.000    0.000    0.000    0.000 
#    0.000    3.077    0.000    3.385    0.000    0.154 
#
# Total GULP energy -289502.321349 kJ/mol
# GULP energy per Si atom -5567.352334 kJ/mol
# Density = 1.763274 g / cm^3
# Si number density = 17.672965 Si / 1000 Ang^3
#
#
#
# Elastic Constant Matrix: (Units=GPa)
#
#
# Indices 1 2 3 4 5 6 
#
# 1 56.8940 -6.5719 23.2813 0.0000 0.0000 0.0000
# 2 -6.5719 32.2314 7.2923 0.0000 0.0000 0.0000
# 3 23.2813 7.2923 108.6096 0.0000 0.0000 0.0000
# 4 0.0000 0.0000 0.0000 8.2992 0.0000 0.0000
# 5 0.0000 0.0000 0.0000 0.0000 59.4719 0.0000
# 6 0.0000 0.0000 0.0000 0.0000 0.0000 11.2443
#
#
#
# Elastic Compliance Matrix: (Units=1/GPa)
#
#
# Indices 1 2 3 4 5 6 
#
# 1 0.020073 0.005144 -0.004648 0.000000 0.000000 0.000000
# 2 0.005144 0.032823 -0.003307 0.000000 0.000000 0.000000
# 3 -0.004648 -0.003307 0.010426 0.000000 0.000000 0.000000
# 4 0.000000 0.000000 0.000000 0.120493 0.000000 0.000000
# 5 0.000000 0.000000 0.000000 0.000000 0.016815 0.000000
# 6 0.000000 0.000000 0.000000 0.000000 0.000000 0.088934
#
#
# Mechanical properties :
#
#
# Convention : Reuss Voigt Hill
#
# Bulk Modulus (GPa) = 17.33084 27.30427 22.31755
# Shear Modulus (GPa) = 15.90245 27.38530 21.64388
#
# Velocity S-wave (km/s) = 3.00295 3.94071 3.50335
# Velocity P-wave (km/s) = 4.67454 6.01572 5.38703
#
# Compressibility (1/GPa) = 0.05770062
#
# Stress axis : x y z
#
# Youngs Moduli (GPa) = 49.81850 30.46676 95.91704
#
# Poissons Ratio (x) = -0.15673 0.44584
# Poissons Ratio (y) = -0.25629 0.31715
# Poissons Ratio (z) = 0.23157 0.10074
#
# Static dielectric constant tensor:
#      x y z
#    x 1.601160 0.000000 0.000000 
#    y 0.000000 1.659950 0.000000 
#    z 0.000000 0.000000 1.661190 
# 
# From -- ./inp_files/34165.got.cif
#   From: 2010.05.17/outbox.cif.g08.bks.cpg/sg65_18_cif.got.tgz:34165.got - 2010.06.03 17:01:31.
