data_PCOD9485189
_publ_section_title
;
Structure prediction by ZEFSAII (Michael W. Deem and Ramdas Pophale) SiO2 
 PCOD9485189
Probable space group: C M M M
;
_chemical_formula_sum "Si O2"
_cell_formula_units_Z 104
_cell_length_a 18.765008
_cell_length_b 7.520275
_cell_length_c 34.932176
_cell_angle_alpha 90.000000
_cell_angle_beta 90.000000
_cell_angle_gamma 90.000000
_cell_volume 4929.559530
_symmetry_space_group_name_H-M "C M M M"
_symmetry_group_IT_number 65
_symmetry_cell_setting 'orthorhombic'
loop_
_space_group_symop_operation_xyz
x,y,z
-x,-y,z
x,-y,-z
-x,y,-z
-x,-y,-z
x,y,-z
-x,y,z
x,-y,z
1/2+x,1/2+y,z
1/2-x,1/2-y,z
1/2+x,1/2-y,-z
1/2-x,1/2+y,-z
1/2-x,1/2-y,-z
1/2+x,1/2+y,-z
1/2-x,1/2+y,z
1/2+x,1/2-y,z
loop_
_atom_site_type_symbol
_atom_site_label
_atom_site_fract_x
_atom_site_fract_y
_atom_site_fract_z
Si Si1 0.081561 0.713014 0.659042
Si Si2 0.333636 0.213174 0.267384
Si Si3 0.666473 0.786974 0.883141
Si Si4 0.333302 0.286641 0.500000
Si Si5 0.582583 0.216828 0.042888
Si Si6 0.582499 0.217773 0.807926
Si Si7 0.581363 0.713160 0.426493
O O1 0.077904 0.500000 0.662743
O O2 0.130513 0.781012 0.693438
O O3 0.108739 0.749521 0.616230
O O4 0.000000 0.781106 0.661826
O O5 0.250000 0.250000 0.265300
O O6 0.375775 0.277951 0.229965
O O7 0.341620 0.000000 0.267496
O O8 0.750000 0.750000 0.880186
O O9 0.632428 0.719859 0.922785
O O10 0.623361 0.721974 0.846081
O O11 0.657767 0.000000 0.883523
O O12 0.341941 0.500000 0.500000
O O13 0.250000 0.250000 0.500000
O O14 0.371305 0.218757 0.461461
O O15 0.500000 0.266911 0.049518
O O16 0.584232 0.000000 0.042734
O O17 0.603278 0.274604 0.000000
O O18 0.500000 0.271868 0.807634
O O19 0.583189 0.000000 0.807943
O O20 0.500000 0.781273 0.428960
O O21 0.577989 0.500000 0.429978
#
# Coordination Sequence:
#
# PCOD9485189 Si02
#       7
#    16  16  16   8  16  16  16
#     4   9  18  33  52  73  96 124 160 198 234 275
#     4  10  20  33  50  72  99 128 156 192 238 284
#     4  10  19  30  47  71  97 124 155 194 240 288
#     4  10  21  35  51  73 101 130 160 196 238 284
#     4   8  14  26  45  68  92 120 159 203 238 272
#     4   9  17  31  52  73  91 119 163 205 235 272
#     4   9  18  34  55  75  96 126 163 200 237 278
#
# _framework density 21.097218000000002
#
# number of rings (size 3 to 8) (size 9 to 14) (size 15 to 20)
#    0.000    2.769    0.000    2.077    0.000    6.769 
#    0.000    3.077    0.000    6.462    0.000    1.077 
#    0.000    0.000    0.000    0.000    0.000    0.000 
#
# Total GULP energy -290346.903105 kJ/mol
# GULP energy per Si atom -5583.594290 kJ/mol
# Density = 2.104920 g / cm^3
# Si number density = 21.097218 Si / 1000 Ang^3
#
#
#
# Elastic Constant Matrix: (Units=GPa)
#
#
# Indices 1 2 3 4 5 6 
#
# 1 165.4720 -1.2182 152.8234 0.0000 0.0000 0.0000
# 2 -1.2182 54.4001 7.9334 0.0000 0.0000 0.0000
# 3 152.8234 7.9334 256.5353 0.0000 0.0000 0.0000
# 4 0.0000 0.0000 0.0000 19.3211 0.0000 0.0000
# 5 0.0000 0.0000 0.0000 0.0000 -20.0717 0.0000
# 6 0.0000 0.0000 0.0000 0.0000 0.0000 21.6336
#
#
#
# Elastic Compliance Matrix: (Units=1/GPa)
#
#
# Indices 1 2 3 4 5 6 
#
# 1 0.013554 0.001488 -0.008120 0.000000 0.000000 0.000000
# 2 0.001488 0.018629 -0.001462 0.000000 0.000000 0.000000
# 3 -0.008120 -0.001462 0.008781 0.000000 0.000000 0.000000
# 4 0.000000 0.000000 0.000000 0.051757 0.000000 0.000000
# 5 0.000000 0.000000 0.000000 0.000000 -0.049821 0.000000
# 6 0.000000 0.000000 0.000000 0.000000 0.000000 0.046224
#
#
# Mechanical properties :
#
#
# Convention : Reuss Voigt Hill
#
# Bulk Modulus (GPa) = 40.36555 88.38720 64.37637
# Shear Modulus (GPa) = 44.02526 25.30120 34.66323
#
# Velocity S-wave (km/s) = 4.57308 3.46680 4.05782
# Velocity P-wave (km/s) = 6.85994 7.61650 7.24810
#
# Compressibility (1/GPa) = 0.02477360
#
# Stress axis : x y z
#
# Youngs Moduli (GPa) = 73.77941 53.68006 113.88493
#
# Poissons Ratio (x) = -0.07986 0.92479
# Poissons Ratio (y) = -0.10977 0.16654
# Poissons Ratio (z) = 0.59912 0.07850
#
# Static dielectric constant tensor:
#      x y z
#    x 1.705180 0.000000 0.000000 
#    y 0.000000 1.821040 0.000000 
#    z 0.000000 0.000000 1.751880 
# 
# From -- ./inp_files/77659.got.cif
#   From: 2010.05.17/outbox.cif.g08.bks.cpg/sg65_39_cif.got.tgz:77659.got - 2010.06.03 17:01:31.
