data_PCOD9485666
_publ_section_title
;
Structure prediction by ZEFSAII (Michael W. Deem and Ramdas Pophale) SiO2 
 PCOD9485666
Probable space group: C M M M
;
_chemical_formula_sum "Si O2"
_cell_formula_units_Z 88
_cell_length_a 7.579359
_cell_length_b 18.872891
_cell_length_c 30.075980
_cell_angle_alpha 90.000000
_cell_angle_beta 90.000000
_cell_angle_gamma 90.000000
_cell_volume 4302.201002
_symmetry_space_group_name_H-M "C M M M"
_symmetry_group_IT_number 65
_symmetry_cell_setting 'orthorhombic'
loop_
_space_group_symop_operation_xyz
x,y,z
-x,-y,z
x,-y,-z
-x,y,-z
-x,-y,-z
x,y,-z
-x,y,z
x,-y,z
1/2+x,1/2+y,z
1/2-x,1/2-y,z
1/2+x,1/2-y,-z
1/2-x,1/2+y,-z
1/2-x,1/2-y,-z
1/2+x,1/2+y,-z
1/2-x,1/2+y,z
1/2+x,1/2-y,z
loop_
_atom_site_type_symbol
_atom_site_label
_atom_site_fract_x
_atom_site_fract_y
_atom_site_fract_z
Si Si1 0.788490 0.333298 0.500000
Si Si2 0.210537 0.419533 0.855696
Si Si3 0.288125 0.582415 0.047780
Si Si4 0.211808 0.666932 0.327080
Si Si5 0.788060 0.332723 0.228313
Si Si6 0.283778 0.081902 0.413090
O O1 0.750000 0.250000 0.500000
O O2 0.724188 0.372667 0.544413
O O3 0.000000 0.340748 0.500000
O O4 0.281691 0.500000 0.856032
O O5 0.239306 0.386126 0.904508
O O6 0.281019 0.376646 0.813582
O O7 0.000000 0.424006 0.850480
O O8 0.500000 0.581426 0.046694
O O9 0.226904 0.500000 0.048804
O O10 0.227307 0.612667 0.000000
O O11 0.250000 0.750000 0.334865
O O12 0.278728 0.647583 0.277675
O O13 0.276689 0.619042 0.367558
O O14 0.000000 0.659516 0.326092
O O15 0.750000 0.250000 0.221965
O O16 0.000000 0.341400 0.229328
O O17 0.500000 0.082856 0.412963
O O18 0.230416 0.000000 0.416150
#
# Coordination Sequence:
#
# PCOD9485666 Si02
#       6
#     8  16  16  16  16  16
#     4  10  19  31  49  71  95 124 158 194 228 268
#     4   9  17  28  43  65  90 113 141 181 225 264
#     4   8  14  25  41  62  88 116 145 177 215 262
#     4   9  17  30  48  67  88 117 152 187 223 267
#     4   9  18  31  46  65  89 118 150 183 221 266
#     4   9  17  29  47  71  95 120 153 192 231 269
#
# _framework density 20.454647000000001
#
# number of rings (size 3 to 8) (size 9 to 14) (size 15 to 20)
#    0.000    3.091    0.000    1.364    0.000    2.909 
#    0.000    5.455    0.000    3.273    0.000    5.091 
#    0.000    0.000    0.000    0.000    0.000    0.000 
#
# Total GULP energy -245242.592750 kJ/mol
# GULP energy per Si atom -5573.695290 kJ/mol
# Density = 2.040809 g / cm^3
# Si number density = 20.454647 Si / 1000 Ang^3
#
#
#
# Elastic Constant Matrix: (Units=GPa)
#
#
# Indices 1 2 3 4 5 6 
#
# 1 45.3698 -0.7916 9.5932 0.0000 0.0000 0.0000
# 2 -0.7916 94.3380 117.7860 0.0000 0.0000 0.0000
# 3 9.5932 117.7860 259.9758 0.0000 0.0000 0.0000
# 4 0.0000 0.0000 0.0000 28.0100 0.0000 0.0000
# 5 0.0000 0.0000 0.0000 0.0000 22.3948 0.0000
# 6 0.0000 0.0000 0.0000 0.0000 0.0000 16.7585
#
#
#
# Elastic Compliance Matrix: (Units=1/GPa)
#
#
# Indices 1 2 3 4 5 6 
#
# 1 0.022537 0.002826 -0.002112 0.000000 0.000000 0.000000
# 2 0.002826 0.024761 -0.011322 0.000000 0.000000 0.000000
# 3 -0.002112 -0.011322 0.009054 0.000000 0.000000 0.000000
# 4 0.000000 0.000000 0.000000 0.035702 0.000000 0.000000
# 5 0.000000 0.000000 0.000000 0.000000 0.044653 0.000000
# 6 0.000000 0.000000 0.000000 0.000000 0.000000 0.059671
#
#
# Mechanical properties :
#
#
# Convention : Reuss Voigt Hill
#
# Bulk Modulus (GPa) = 28.46162 72.53987 50.50075
# Shear Modulus (GPa) = 21.80491 31.63906 26.72199
#
# Velocity S-wave (km/s) = 3.26853 3.93719 3.61834
# Velocity P-wave (km/s) = 5.30934 7.49729 6.49609
#
# Compressibility (1/GPa) = 0.03513503
#
# Stress axis : x y z
#
# Youngs Moduli (GPa) = 44.37155 40.38683 110.44547
#
# Poissons Ratio (x) = -0.11414 0.23326
# Poissons Ratio (y) = -0.12540 1.25051
# Poissons Ratio (z) = 0.09371 0.45728
#
# Static dielectric constant tensor:
#      x y z
#    x 1.765480 0.000000 0.000000 
#    y 0.000000 1.681580 0.000000 
#    z 0.000000 0.000000 1.772310 
# 
# From -- ./inp_files/73196.got.cif
#   From: 2010.05.17/outbox.cif.g08.bks.cpg/sg65_37_cif.got.tgz:73196.got - 2010.06.03 17:01:31.
