data_PCOD9485816
_publ_section_title
;
Structure prediction by ZEFSAII (Michael W. Deem and Ramdas Pophale) SiO2 
 PCOD9485816
Probable space group: C M M M
;
_chemical_formula_sum "Si O2"
_cell_formula_units_Z 80
_cell_length_a 18.738743
_cell_length_b 8.513584
_cell_length_c 26.970249
_cell_angle_alpha 90.000000
_cell_angle_beta 90.000000
_cell_angle_gamma 90.000000
_cell_volume 4302.667998
_symmetry_space_group_name_H-M "C M M M"
_symmetry_group_IT_number 65
_symmetry_cell_setting 'orthorhombic'
loop_
_space_group_symop_operation_xyz
x,y,z
-x,-y,z
x,-y,-z
-x,y,-z
-x,-y,-z
x,y,-z
-x,y,z
x,-y,z
1/2+x,1/2+y,z
1/2-x,1/2-y,z
1/2+x,1/2-y,-z
1/2-x,1/2+y,-z
1/2-x,1/2-y,-z
1/2+x,1/2+y,-z
1/2-x,1/2+y,z
1/2+x,1/2-y,z
loop_
_atom_site_type_symbol
_atom_site_label
_atom_site_fract_x
_atom_site_fract_y
_atom_site_fract_z
Si Si1 0.417550 0.190093 0.254916
Si Si2 0.917540 0.191269 0.444349
Si Si3 0.668910 0.188014 0.157593
Si Si4 0.169870 0.811484 0.651057
Si Si5 0.831606 0.811758 0.946144
O O1 0.500000 0.239904 0.255068
O O2 0.377550 0.239864 0.204561
O O3 0.376395 0.254482 0.302492
O O4 0.415587 0.000000 0.256497
O O5 0.896801 0.242048 0.500000
O O6 0.866936 0.244858 0.400082
O O7 0.000000 0.237943 0.435651
O O8 0.916599 0.000000 0.444279
O O9 0.750000 0.250000 0.162565
O O10 0.637621 0.245397 0.104922
O O11 0.671788 0.000000 0.156738
O O12 0.250000 0.750000 0.655157
O O13 0.170704 0.000000 0.650753
O O14 0.750000 0.750000 0.946693
O O15 0.830464 0.000000 0.943322
O O16 0.863284 0.766567 0.000000
#
# Coordination Sequence:
#
# PCOD9485816 Si02
#       5
#    16  16  16  16  16
#     4  10  22  39  56  75 102 135 171 215 265 313
#     4   8  15  30  52  77 105 137 174 215 256 301
#     4  10  19  31  50  74 100 131 166 206 252 302
#     4  11  22  35  54  80 107 138 176 215 259 309
#     4   9  16  26  43  69 100 131 163 202 248 296
#
# _framework density 18.593115000000001
#
# number of rings (size 3 to 8) (size 9 to 14) (size 15 to 20)
#    0.000    2.400    0.000    4.800    0.000    6.000 
#    0.000    0.000    0.000    2.400    0.000   11.200 
#    0.000    0.000    0.000    0.000    0.000    0.000 
#
# Total GULP energy -223110.460426 kJ/mol
# GULP energy per Si atom -5577.761511 kJ/mol
# Density = 1.855080 g / cm^3
# Si number density = 18.593115 Si / 1000 Ang^3
#
#
#
# Elastic Constant Matrix: (Units=GPa)
#
#
# Indices 1 2 3 4 5 6 
#
# 1 111.4374 23.8462 105.2250 0.0000 0.0000 0.0000
# 2 23.8462 28.1062 37.6377 0.0000 0.0000 0.0000
# 3 105.2250 37.6377 217.8125 0.0000 0.0000 0.0000
# 4 0.0000 0.0000 0.0000 -14.4680 0.0000 0.0000
# 5 0.0000 0.0000 0.0000 0.0000 -30.8263 0.0000
# 6 0.0000 0.0000 0.0000 0.0000 0.0000 7.5136
#
#
#
# Elastic Compliance Matrix: (Units=1/GPa)
#
#
# Indices 1 2 3 4 5 6 
#
# 1 0.016915 -0.004435 -0.007405 0.000000 0.000000 0.000000
# 2 -0.004435 0.047454 -0.006058 0.000000 0.000000 0.000000
# 3 -0.007405 -0.006058 0.009215 0.000000 0.000000 0.000000
# 4 0.000000 0.000000 0.000000 -0.069118 0.000000 0.000000
# 5 0.000000 0.000000 0.000000 0.000000 -0.032440 0.000000
# 6 0.000000 0.000000 0.000000 0.000000 0.000000 0.133093
#
#
# Mechanical properties :
#
#
# Convention : Reuss Voigt Hill
#
# Bulk Modulus (GPa) = 26.46273 76.75265 51.60769
# Shear Modulus (GPa) = 32.57103 5.15367 18.86235
#
# Velocity S-wave (km/s) = 4.18997 1.66668 3.18855
# Velocity P-wave (km/s) = 6.13769 6.71368 6.43214
#
# Compressibility (1/GPa) = 0.03778899
#
# Stress axis : x y z
#
# Youngs Moduli (GPa) = 59.11858 21.07322 108.51432
#
# Poissons Ratio (x) = 0.09345 0.80359
# Poissons Ratio (y) = 0.26217 0.65733
# Poissons Ratio (z) = 0.43780 0.12765
#
# Static dielectric constant tensor:
#      x y z
#    x 1.614440 0.000000 0.000000 
#    y 0.000000 1.622090 0.000000 
#    z 0.000000 0.000000 1.672270 
# 
# From -- ./inp_files/75030.got.cif
#   From: 2010.05.17/outbox.cif.g08.bks.cpg/sg65_38_cif.got.tgz:75030.got - 2010.06.03 17:01:31.
