data_PCOD9485355
_publ_section_title
;
Structure prediction by ZEFSAII (Michael W. Deem and Ramdas Pophale) SiO2 
 PCOD9485355
Probable space group: C M M M
;
_chemical_formula_sum "Si O2"
_cell_formula_units_Z 88
_cell_length_a 29.547213
_cell_length_b 7.289767
_cell_length_c 18.847451
_cell_angle_alpha 90.000000
_cell_angle_beta 90.000000
_cell_angle_gamma 90.000000
_cell_volume 4059.595787
_symmetry_space_group_name_H-M "C M M M"
_symmetry_group_IT_number 65
_symmetry_cell_setting 'orthorhombic'
loop_
_space_group_symop_operation_xyz
x,y,z
-x,-y,z
x,-y,-z
-x,y,-z
-x,-y,-z
x,y,-z
-x,y,z
x,-y,z
1/2+x,1/2+y,z
1/2-x,1/2-y,z
1/2+x,1/2-y,-z
1/2-x,1/2+y,-z
1/2-x,1/2-y,-z
1/2+x,1/2+y,-z
1/2-x,1/2+y,z
1/2+x,1/2-y,z
loop_
_atom_site_type_symbol
_atom_site_label
_atom_site_fract_x
_atom_site_fract_y
_atom_site_fract_z
Si Si1 0.854073 0.724395 0.858690
Si Si2 0.449795 0.222796 0.358043
Si Si3 0.855613 0.723913 0.421495
Si Si4 0.196755 0.281913 0.283041
Si Si5 0.196332 0.718622 0.000000
Si Si6 0.949714 0.722796 0.192785
O O1 0.853357 0.500000 0.858984
O O2 0.828540 0.785894 0.787283
O O3 0.827842 0.787049 0.928635
O O4 0.906480 0.780850 0.852462
O O5 0.500000 0.282320 0.380673
O O6 0.407098 0.280501 0.404077
O O7 0.443161 0.275233 0.275467
O O8 0.449946 0.000000 0.359158
O O9 0.841696 0.783208 0.500000
O O10 0.854910 0.500000 0.421532
O O11 0.824392 0.787027 0.356601
O O12 0.189029 0.500000 0.283461
O O13 0.250000 0.250000 0.278817
O O14 0.250000 0.750000 0.000000
O O15 0.190105 0.500000 0.000000
O O16 0.949970 0.500000 0.192063
O O17 0.000000 0.782628 0.170453
#
# Coordination Sequence:
#
# PCOD9485355 Si02
#       6
#    16  16  16  16   8  16
#     4   9  16  28  44  63  88 116 143 175 216 259
#     4   8  12  19  33  54  81 112 141 168 205 256
#     4   9  16  25  37  56  83 112 142 177 215 254
#     4  10  19  31  46  62  83 113 147 180 216 256
#     4  10  20  32  47  67  91 117 148 184 219 252
#     4   8  12  20  37  59  84 114 142 167 205 259
#
# _framework density 21.677035
#
# number of rings (size 3 to 8) (size 9 to 14) (size 15 to 20)
#    0.000    3.091    1.818    1.636    0.000    0.727 
#    0.000    2.273    0.000    2.727    0.000    0.000 
#    0.000    5.818    0.000    1.636    0.000    1.818 
#
# Total GULP energy -245651.446844 kJ/mol
# GULP energy per Si atom -5582.987428 kJ/mol
# Density = 2.162770 g / cm^3
# Si number density = 21.677035 Si / 1000 Ang^3
#
#
#
# Elastic Constant Matrix: (Units=GPa)
#
#
# Indices 1 2 3 4 5 6 
#
# 1 181.7793 -1.8477 118.3195 0.0000 0.0000 0.0000
# 2 -1.8477 91.2973 10.2536 0.0000 0.0000 0.0000
# 3 118.3195 10.2536 181.6179 0.0000 0.0000 0.0000
# 4 0.0000 0.0000 0.0000 -18.3738 0.0000 0.0000
# 5 0.0000 0.0000 0.0000 0.0000 19.6678 0.0000
# 6 0.0000 0.0000 0.0000 0.0000 0.0000 3.6429
#
#
#
# Elastic Compliance Matrix: (Units=1/GPa)
#
#
# Indices 1 2 3 4 5 6 
#
# 1 0.009625 0.000905 -0.006322 0.000000 0.000000 0.000000
# 2 0.000905 0.011108 -0.001217 0.000000 0.000000 0.000000
# 3 -0.006322 -0.001217 0.009693 0.000000 0.000000 0.000000
# 4 0.000000 0.000000 0.000000 -0.054425 0.000000 0.000000
# 5 0.000000 0.000000 0.000000 0.000000 0.050844 0.000000
# 6 0.000000 0.000000 0.000000 0.000000 0.000000 0.274503
#
#
# Mechanical properties :
#
#
# Convention : Reuss Voigt Hill
#
# Bulk Modulus (GPa) = 58.27644 78.68281 68.47962
# Shear Modulus (GPa) = 15.60865 22.85201 19.23033
#
# Velocity S-wave (km/s) = 2.68629 3.25037 2.98170
# Velocity P-wave (km/s) = 6.04681 7.10374 6.59648
#
# Compressibility (1/GPa) = 0.01715959
#
# Stress axis : x y z
#
# Youngs Moduli (GPa) = 103.89558 90.02381 103.16638
#
# Poissons Ratio (x) = -0.08145 0.65217
# Poissons Ratio (y) = -0.09400 0.12551
# Poissons Ratio (z) = 0.65678 0.10952
#
# Static dielectric constant tensor:
#      x y z
#    x 1.767620 0.000000 0.000000 
#    y 0.000000 1.895410 0.000000 
#    z 0.000000 0.000000 1.749090 
# 
# From -- ./inp_files/57983.got.cif
#   From: 2010.05.17/outbox.cif.g08.bks.cpg/sg65_29_cif.got.tgz:57983.got - 2010.06.03 17:01:31.
