data_PCOD9485543
_publ_section_title
;
Structure prediction by ZEFSAII (Michael W. Deem and Ramdas Pophale) SiO2 
 PCOD9485543
Probable space group: C M M M
;
_chemical_formula_sum "Si O2"
_cell_formula_units_Z 120
_cell_length_a 28.457278
_cell_length_b 8.718384
_cell_length_c 27.716224
_cell_angle_alpha 90.000000
_cell_angle_beta 90.000000
_cell_angle_gamma 90.000000
_cell_volume 6876.436117
_symmetry_space_group_name_H-M "C M M M"
_symmetry_group_IT_number 65
_symmetry_cell_setting 'orthorhombic'
loop_
_space_group_symop_operation_xyz
x,y,z
-x,-y,z
x,-y,-z
-x,y,-z
-x,-y,-z
x,y,-z
-x,y,z
x,-y,z
1/2+x,1/2+y,z
1/2-x,1/2-y,z
1/2+x,1/2-y,-z
1/2-x,1/2+y,-z
1/2-x,1/2-y,-z
1/2+x,1/2+y,-z
1/2-x,1/2+y,z
1/2+x,1/2-y,z
loop_
_atom_site_type_symbol
_atom_site_label
_atom_site_fract_x
_atom_site_fract_y
_atom_site_fract_z
Si Si1 0.697130 0.184269 0.342356
Si Si2 0.644398 0.315899 0.250576
Si Si3 0.557361 0.173696 0.100169
Si Si4 0.442353 0.676336 0.000000
Si Si5 0.303319 0.814658 0.052000
Si Si6 0.197060 0.314997 0.448154
Si Si7 0.802960 0.314940 0.157427
Si Si8 0.052786 0.184133 0.798062
O O1 0.750000 0.250000 0.338207
O O2 0.666741 0.247363 0.298523
O O3 0.677586 0.229760 0.395599
O O4 0.699431 0.000000 0.339670
O O5 0.647843 0.500000 0.252130
O O6 0.670916 0.255476 0.203059
O O7 0.590346 0.269180 0.241835
O O8 0.500000 0.172339 0.098393
O O9 0.568965 0.262557 0.148947
O O10 0.574404 0.000000 0.103992
O O11 0.572970 0.243774 0.049455
O O12 0.428269 0.500000 0.000000
O O13 0.500000 0.680903 0.000000
O O14 0.250000 0.750000 0.052151
O O15 0.323642 0.771054 0.104434
O O16 0.301495 0.000000 0.051865
O O17 0.324256 0.765670 0.000000
O O18 0.175350 0.267379 0.500000
O O19 0.199140 0.500000 0.448175
O O20 0.250000 0.250000 0.448338
O O21 0.802494 0.500000 0.161141
O O22 0.750000 0.250000 0.158500
O O23 0.000000 0.243061 0.789891
O O24 0.051214 0.000000 0.798780
#
# Coordination Sequence:
#
# PCOD9485543 Si02
#       8
#    16  16  16   8  16  16  16  16
#     4  10  19  31  48  71 102 136 168 199 232 271
#     4  11  22  34  49  68  93 122 156 196 237 284
#     4   9  16  26  43  67  90 109 135 176 225 277
#     4   9  15  23  39  63  89 115 140 167 208 271
#     4   8  14  25  42  63  84 108 140 177 218 263
#     4   8  14  25  42  65  94 130 168 200 228 261
#     4  10  19  31  48  69  94 122 152 186 226 276
#     4   9  19  36  54  68  84 113 153 195 242 294
#
# _framework density 17.450901000000002
#
# number of rings (size 3 to 8) (size 9 to 14) (size 15 to 20)
#    0.000    2.733    0.000    2.200    0.000    4.533 
#    0.000    0.000    1.467    0.000    0.000    0.000 
#    0.000    0.533    0.000    6.667    0.000    0.000 
#
# Total GULP energy -334444.754474 kJ/mol
# GULP energy per Si atom -5574.079241 kJ/mol
# Density = 1.741118 g / cm^3
# Si number density = 17.450901 Si / 1000 Ang^3
#
#
#
# Elastic Constant Matrix: (Units=GPa)
#
#
# Indices 1 2 3 4 5 6 
#
# 1 61.2842 18.3540 61.5378 0.0000 0.0000 0.0000
# 2 18.3540 26.8655 34.4977 0.0000 0.0000 0.0000
# 3 61.5378 34.4977 193.6888 0.0000 0.0000 0.0000
# 4 0.0000 0.0000 0.0000 0.7687 0.0000 0.0000
# 5 0.0000 0.0000 0.0000 0.0000 11.0238 0.0000
# 6 0.0000 0.0000 0.0000 0.0000 0.0000 9.7716
#
#
#
# Elastic Compliance Matrix: (Units=1/GPa)
#
#
# Indices 1 2 3 4 5 6 
#
# 1 0.025579 -0.009127 -0.006501 0.000000 0.000000 0.000000
# 2 -0.009127 0.051516 -0.006276 0.000000 0.000000 0.000000
# 3 -0.006501 -0.006276 0.008346 0.000000 0.000000 0.000000
# 4 0.000000 0.000000 0.000000 1.300830 0.000000 0.000000
# 5 0.000000 0.000000 0.000000 0.000000 0.090713 0.000000
# 6 0.000000 0.000000 0.000000 0.000000 0.000000 0.102338
#
#
# Mechanical properties :
#
#
# Convention : Reuss Voigt Hill
#
# Bulk Modulus (GPa) = 24.01891 56.73526 40.37708
# Shear Modulus (GPa) = 3.05435 15.47610 9.26523
#
# Velocity S-wave (km/s) = 1.32441 2.98121 2.30669
# Velocity P-wave (km/s) = 4.01651 6.66574 5.50293
#
# Compressibility (1/GPa) = 0.04163387
#
# Stress axis : x y z
#
# Youngs Moduli (GPa) = 39.09467 19.41127 119.81450
#
# Poissons Ratio (x) = 0.17716 0.77894
# Poissons Ratio (y) = 0.35681 0.75193
# Poissons Ratio (z) = 0.25416 0.12182
#
# Static dielectric constant tensor:
#      x y z
#    x 1.534200 0.000000 0.000000 
#    y 0.000000 1.584530 0.000000 
#    z 0.000000 0.000000 1.627760 
# 
# From -- ./inp_files/76089.got.cif
#   From: 2010.05.17/outbox.cif.g08.bks.cpg/sg65_39_cif.got.tgz:76089.got - 2010.06.03 17:01:31.
