data_PCOD9485600
_publ_section_title
;
Structure prediction by ZEFSAII (Michael W. Deem and Ramdas Pophale) SiO2 
 PCOD9485600
Probable space group: C M M M
;
_chemical_formula_sum "Si O2"
_cell_formula_units_Z 104
_cell_length_a 8.603881
_cell_length_b 29.622622
_cell_length_c 24.158337
_cell_angle_alpha 90.000000
_cell_angle_beta 90.000000
_cell_angle_gamma 90.000000
_cell_volume 6157.223625
_symmetry_space_group_name_H-M "C M M M"
_symmetry_group_IT_number 65
_symmetry_cell_setting 'orthorhombic'
loop_
_space_group_symop_operation_xyz
x,y,z
-x,-y,z
x,-y,-z
-x,y,-z
-x,-y,-z
x,y,-z
-x,y,z
x,-y,z
1/2+x,1/2+y,z
1/2-x,1/2-y,z
1/2+x,1/2-y,-z
1/2-x,1/2+y,-z
1/2-x,1/2-y,-z
1/2+x,1/2+y,-z
1/2-x,1/2+y,z
1/2+x,1/2-y,z
loop_
_atom_site_type_symbol
_atom_site_label
_atom_site_fract_x
_atom_site_fract_y
_atom_site_fract_z
Si Si1 0.685300 0.143883 0.938720
Si Si2 0.312931 0.199061 0.500000
Si Si3 0.312841 0.550973 0.100449
Si Si4 0.814090 0.199487 0.835411
Si Si5 0.688684 0.549771 0.231034
Si Si6 0.313281 0.801200 0.621348
Si Si7 0.188241 0.144801 0.274465
O O1 0.500000 0.148001 0.935085
O O2 0.732820 0.091691 0.931053
O O3 0.759813 0.172319 0.889334
O O4 0.735733 0.159152 0.000000
O O5 0.500000 0.199884 0.500000
O O6 0.250000 0.250000 0.500000
O O7 0.265107 0.180560 0.439831
O O8 0.500000 0.555248 0.095280
O O9 0.270619 0.500000 0.082994
O O10 0.274485 0.555488 0.165890
O O11 0.750000 0.250000 0.835639
O O12 0.763497 0.173269 0.779789
O O13 0.000000 0.200729 0.835123
O O14 0.500000 0.549343 0.233672
O O15 0.743754 0.500000 0.248758
O O16 0.741760 0.593226 0.265031
O O17 0.500000 0.799310 0.623696
O O18 0.250000 0.750000 0.627239
O O19 0.251216 0.831890 0.670651
O O20 0.000000 0.145110 0.276288
#
# Coordination Sequence:
#
# PCOD9485600 Si02
#       7
#    16   8  16  16  16  16  16
#     4  11  24  39  54  74 101 132 167 208 255 305
#     4   8  16  30  46  66  97 136 175 209 244 285
#     4   9  17  33  57  80 101 129 165 203 248 304
#     4  11  23  39  57  76  99 130 166 208 254 304
#     4   8  14  28  51  76 101 128 159 197 243 294
#     4  10  19  31  48  72 103 139 174 209 246 289
#     4  10  19  32  52  79 105 130 163 203 249 296
#
# _framework density 16.890730000000001
#
# number of rings (size 3 to 8) (size 9 to 14) (size 15 to 20)
#    0.000    2.308    1.538    2.769    0.000    5.231 
#    0.000    1.538    0.000    0.462    0.000    0.538 
#    0.000    4.308    0.000    0.000    0.000    0.000 
#
# Total GULP energy -289994.240466 kJ/mol
# GULP energy per Si atom -5576.812317 kJ/mol
# Density = 1.685229 g / cm^3
# Si number density = 16.890730 Si / 1000 Ang^3
#
#
#
# Elastic Constant Matrix: (Units=GPa)
#
#
# Indices 1 2 3 4 5 6 
#
# 1 19.4572 22.8363 29.4879 0.0000 0.0000 0.0000
# 2 22.8363 112.6710 74.2963 0.0000 0.0000 0.0000
# 3 29.4879 74.2963 149.9553 0.0000 0.0000 0.0000
# 4 0.0000 0.0000 0.0000 21.5388 0.0000 0.0000
# 5 0.0000 0.0000 0.0000 0.0000 16.7067 0.0000
# 6 0.0000 0.0000 0.0000 0.0000 0.0000 23.5300
#
#
#
# Elastic Compliance Matrix: (Units=1/GPa)
#
#
# Indices 1 2 3 4 5 6 
#
# 1 0.078330 -0.008494 -0.011195 0.000000 0.000000 0.000000
# 2 -0.008494 0.014103 -0.005317 0.000000 0.000000 0.000000
# 3 -0.011195 -0.005317 0.011504 0.000000 0.000000 0.000000
# 4 0.000000 0.000000 0.000000 0.046428 0.000000 0.000000
# 5 0.000000 0.000000 0.000000 0.000000 0.059856 0.000000
# 6 0.000000 0.000000 0.000000 0.000000 0.000000 0.042499
#
#
# Mechanical properties :
#
#
# Convention : Reuss Voigt Hill
#
# Bulk Modulus (GPa) = 18.54405 59.48049 39.01227
# Shear Modulus (GPa) = 15.59052 22.71932 19.15492
#
# Velocity S-wave (km/s) = 3.04142 3.67151 3.37122
# Velocity P-wave (km/s) = 4.83077 7.29826 6.18874
#
# Compressibility (1/GPa) = 0.05392564
#
# Stress axis : x y z
#
# Youngs Moduli (GPa) = 12.76650 70.90587 86.92276
#
# Poissons Ratio (x) = 0.60228 0.97307
# Poissons Ratio (y) = 0.10844 0.46219
# Poissons Ratio (z) = 0.14292 0.37702
#
# Static dielectric constant tensor:
#      x y z
#    x 1.574990 0.000000 0.000000 
#    y 0.000000 1.563050 0.000000 
#    z 0.000000 0.000000 1.581090 
# 
# From -- ./inp_files/60786.got.cif
#   From: 2010.05.17/outbox.cif.g08.bks.cpg/sg65_31_cif.got.tgz:60786.got - 2010.06.03 17:01:31.
