data_PCOD9485396
_publ_section_title
;
Structure prediction by ZEFSAII (Michael W. Deem and Ramdas Pophale) SiO2 
 PCOD9485396
Probable space group: C M M M
;
_chemical_formula_sum "Si O2"
_cell_formula_units_Z 88
_cell_length_a 14.473182
_cell_length_b 18.851424
_cell_length_c 18.138786
_cell_angle_alpha 90.000000
_cell_angle_beta 90.000000
_cell_angle_gamma 90.000000
_cell_volume 4948.988014
_symmetry_space_group_name_H-M "C M M M"
_symmetry_group_IT_number 65
_symmetry_cell_setting 'orthorhombic'
loop_
_space_group_symop_operation_xyz
x,y,z
-x,-y,z
x,-y,-z
-x,y,-z
-x,-y,-z
x,y,-z
-x,y,z
x,-y,z
1/2+x,1/2+y,z
1/2-x,1/2-y,z
1/2+x,1/2-y,-z
1/2-x,1/2+y,-z
1/2-x,1/2-y,-z
1/2+x,1/2+y,-z
1/2-x,1/2+y,z
1/2+x,1/2-y,z
loop_
_atom_site_type_symbol
_atom_site_label
_atom_site_fract_x
_atom_site_fract_y
_atom_site_fract_z
Si Si1 0.611183 0.854712 0.416205
Si Si2 0.280387 0.000000 0.413762
Si Si3 0.392075 0.786505 0.264471
Si Si4 0.103558 0.130124 0.199883
Si Si5 0.721906 0.831126 0.875380
Si Si6 0.111168 0.414743 0.000000
Si Si7 0.395971 0.500000 0.688986
O O1 0.637181 0.832381 0.500000
O O2 0.500000 0.863228 0.416159
O O3 0.635167 0.802990 0.348522
O O4 0.659196 0.929791 0.399709
O O5 0.257833 0.000000 0.500000
O O6 0.186633 0.000000 0.368275
O O7 0.500000 0.807236 0.255636
O O8 0.385342 0.703959 0.243893
O O9 0.329785 0.825115 0.203577
O O10 0.182252 0.128515 0.138671
O O11 0.112476 0.067597 0.258083
O O12 0.000000 0.128765 0.168370
O O13 0.750000 0.750000 0.898043
O O14 0.656964 0.873758 0.930872
O O15 0.130101 0.500000 0.000000
O O16 0.000000 0.406194 0.000000
O O17 0.500000 0.500000 0.656476
#
# Coordination Sequence:
#
# PCOD9485396 Si02
#       7
#    16   8  16  16  16   8   8
#     4   9  17  30  50  78 111 142 174 219 274 329
#     4  10  19  31  46  67  98 138 179 222 271 322
#     4   9  17  32  54  81 109 140 182 225 269 326
#     4   9  19  34  55  80 105 135 179 230 268 312
#     4  10  20  37  61  84 110 149 189 223 270 328
#     4  11  25  42  59  87 125 151 176 223 282 340
#     4  10  20  34  51  71  97 134 178 225 275 314
#
# _framework density 17.781413000000001
#
# number of rings (size 3 to 8) (size 9 to 14) (size 15 to 20)
#    0.000    2.455    0.000    2.182    1.273    2.000 
#    1.636    1.364    0.000   10.909    0.000    0.000 
#    0.000    0.000    0.000    0.000    0.000    0.000 
#
# Total GULP energy -245286.023303 kJ/mol
# GULP energy per Si atom -5574.682348 kJ/mol
# Density = 1.774094 g / cm^3
# Si number density = 17.781413 Si / 1000 Ang^3
#
#
#
# Elastic Constant Matrix: (Units=GPa)
#
#
# Indices 1 2 3 4 5 6 
#
# 1 97.7680 40.1085 57.3212 0.0000 0.0000 0.0000
# 2 40.1085 38.2391 31.4612 0.0000 0.0000 0.0000
# 3 57.3212 31.4612 82.3038 0.0000 0.0000 0.0000
# 4 0.0000 0.0000 0.0000 13.9896 0.0000 0.0000
# 5 0.0000 0.0000 0.0000 0.0000 34.6250 0.0000
# 6 0.0000 0.0000 0.0000 0.0000 0.0000 23.7561
#
#
#
# Elastic Compliance Matrix: (Units=1/GPa)
#
#
# Indices 1 2 3 4 5 6 
#
# 1 0.022117 -0.015354 -0.009535 0.000000 0.000000 0.000000
# 2 -0.015354 0.048808 -0.007964 0.000000 0.000000 0.000000
# 3 -0.009535 -0.007964 0.021835 0.000000 0.000000 0.000000
# 4 0.000000 0.000000 0.000000 0.071482 0.000000 0.000000
# 5 0.000000 0.000000 0.000000 0.000000 0.028881 0.000000
# 6 0.000000 0.000000 0.000000 0.000000 0.000000 0.042094
#
#
# Mechanical properties :
#
#
# Convention : Reuss Voigt Hill
#
# Bulk Modulus (GPa) = 36.96129 52.89918 44.93024
# Shear Modulus (GPa) = 16.13217 20.43548 18.28382
#
# Velocity S-wave (km/s) = 3.01532 3.39375 3.21012
# Velocity P-wave (km/s) = 5.74060 6.72094 6.25002
#
# Compressibility (1/GPa) = 0.02705533
#
# Stress axis : x y z
#
# Youngs Moduli (GPa) = 45.21381 20.48848 45.79850
#
# Poissons Ratio (x) = 0.31458 0.43667
# Poissons Ratio (y) = 0.69420 0.36473
# Poissons Ratio (z) = 0.43109 0.16317
#
# Static dielectric constant tensor:
#      x y z
#    x 1.626920 0.000000 0.000000 
#    y 0.000000 1.597950 0.000000 
#    z 0.000000 0.000000 1.593490 
# 
# From -- ./inp_files/53072.got.cif
#   From: 2010.05.17/outbox.cif.g08.bks.cpg/sg65_27_cif.got.tgz:53072.got - 2010.06.03 17:01:31.
