data_PCOD9485137
_publ_section_title
;
Structure prediction by ZEFSAII (Michael W. Deem and Ramdas Pophale) SiO2 
 PCOD9485137
Probable space group: C M M M
;
_chemical_formula_sum "Si O2"
_cell_formula_units_Z 104
_cell_length_a 24.492716
_cell_length_b 8.283096
_cell_length_c 29.110677
_cell_angle_alpha 90.000000
_cell_angle_beta 90.000000
_cell_angle_gamma 90.000000
_cell_volume 5905.843674
_symmetry_space_group_name_H-M "C M M M"
_symmetry_group_IT_number 65
_symmetry_cell_setting 'orthorhombic'
loop_
_space_group_symop_operation_xyz
x,y,z
-x,-y,z
x,-y,-z
-x,y,-z
-x,-y,-z
x,y,-z
-x,y,z
x,-y,z
1/2+x,1/2+y,z
1/2-x,1/2-y,z
1/2+x,1/2-y,-z
1/2-x,1/2+y,-z
1/2-x,1/2-y,-z
1/2+x,1/2+y,-z
1/2-x,1/2+y,z
1/2+x,1/2-y,z
loop_
_atom_site_type_symbol
_atom_site_label
_atom_site_fract_x
_atom_site_fract_y
_atom_site_fract_z
Si Si1 0.390999 0.809176 0.597296
Si Si2 0.935851 0.302308 0.500000
Si Si3 0.500000 0.313251 0.643748
Si Si4 0.312846 0.194223 0.850250
Si Si5 0.879997 0.194676 0.762798
Si Si6 0.000000 0.187282 0.753801
Si Si7 0.313130 0.805106 0.950645
Si Si8 0.687870 0.308079 0.674132
O O1 0.404347 0.749057 0.545880
O O2 0.446192 0.772086 0.625226
O O3 0.341542 0.736394 0.626439
O O4 0.382167 0.000000 0.594641
O O5 0.936948 0.500000 0.500000
O O6 0.000000 0.252254 0.500000
O O7 0.500000 0.500000 0.628328
O O8 0.500000 0.313688 0.698554
O O9 0.250000 0.250000 0.846969
O O10 0.345917 0.265074 0.807904
O O11 0.334844 0.247140 0.900755
O O12 0.314365 0.000000 0.847945
O O13 0.848540 0.255217 0.717092
O O14 0.941707 0.260147 0.767414
O O15 0.884210 0.000000 0.757754
O O16 0.000000 0.000000 0.769887
O O17 0.250000 0.750000 0.950768
O O18 0.314439 0.000000 0.950653
O O19 0.336933 0.749799 0.000000
O O20 0.688411 0.500000 0.677973
O O21 0.750000 0.250000 0.676741
#
# Coordination Sequence:
#
# PCOD9485137 Si02
#       8
#    16   8   8  16  16   8  16  16
#     4  11  21  36  58  83 109 139 173 210 256 305
#     4   9  18  34  55  82 113 138 165 207 258 306
#     4  11  19  34  56  81 110 137 169 212 258 304
#     4  10  19  30  46  71 102 134 170 209 248 297
#     4  10  20  35  54  74 101 134 166 204 252 302
#     4   9  18  35  54  74 100 133 164 201 252 300
#     4   8  14  25  41  62  91 127 164 204 250 295
#     4  11  23  39  57  78 105 138 175 213 253 307
#
# _framework density 17.609677000000001
#
# number of rings (size 3 to 8) (size 9 to 14) (size 15 to 20)
#    0.000    2.077    2.308    2.077    0.000    3.077 
#    0.000    2.692    0.000    0.000    0.000    0.538 
#    0.000    4.308    0.000    0.000    0.000    0.000 
#
# Total GULP energy -289818.167560 kJ/mol
# GULP energy per Si atom -5573.426299 kJ/mol
# Density = 1.756960 g / cm^3
# Si number density = 17.609677 Si / 1000 Ang^3
#
#
#
# Elastic Constant Matrix: (Units=GPa)
#
#
# Indices 1 2 3 4 5 6 
#
# 1 119.9622 13.2617 64.7216 0.0000 0.0000 0.0000
# 2 13.2617 15.3718 6.8940 0.0000 0.0000 0.0000
# 3 64.7216 6.8940 134.0907 0.0000 0.0000 0.0000
# 4 0.0000 0.0000 0.0000 12.4246 0.0000 0.0000
# 5 0.0000 0.0000 0.0000 0.0000 11.6528 0.0000
# 6 0.0000 0.0000 0.0000 0.0000 0.0000 11.7811
#
#
#
# Elastic Compliance Matrix: (Units=1/GPa)
#
#
# Indices 1 2 3 4 5 6 
#
# 1 0.012173 -0.008052 -0.005461 0.000000 0.000000 0.000000
# 2 -0.008052 0.071916 0.000189 0.000000 0.000000 0.000000
# 3 -0.005461 0.000189 0.010084 0.000000 0.000000 0.000000
# 4 0.000000 0.000000 0.000000 0.080485 0.000000 0.000000
# 5 0.000000 0.000000 0.000000 0.000000 0.085816 0.000000
# 6 0.000000 0.000000 0.000000 0.000000 0.000000 0.084882
#
#
# Mechanical properties :
#
#
# Convention : Reuss Voigt Hill
#
# Bulk Modulus (GPa) = 14.80961 48.79769 31.80365
# Shear Modulus (GPa) = 12.67386 19.47487 16.07436
#
# Velocity S-wave (km/s) = 2.68565 3.32914 3.02456
# Velocity P-wave (km/s) = 4.24796 6.52292 5.50425
#
# Compressibility (1/GPa) = 0.06752372
#
# Stress axis : x y z
#
# Youngs Moduli (GPa) = 82.15147 13.90508 99.16746
#
# Poissons Ratio (x) = 0.11197 0.54159
# Poissons Ratio (y) = 0.66151 -0.01876
# Poissons Ratio (z) = 0.44866 -0.00263
#
# Static dielectric constant tensor:
#      x y z
#    x 1.564300 0.000000 0.000000 
#    y 0.000000 1.612520 0.000000 
#    z 0.000000 0.000000 1.635050 
# 
# From -- ./inp_files/78399.got.cif
#   From: 2010.05.17/outbox.cif.g08.bks.cpg/sg65_40_cif.got.tgz:78399.got - 2010.06.03 17:01:31.
