data_PCOD9485728
_publ_section_title
;
Structure prediction by ZEFSAII (Michael W. Deem and Ramdas Pophale) SiO2 
 PCOD9485728
Probable space group: C M M M
;
_chemical_formula_sum "Si O2"
_cell_formula_units_Z 88
_cell_length_a 18.462220
_cell_length_b 7.910445
_cell_length_c 30.909224
_cell_angle_alpha 90.000000
_cell_angle_beta 90.000000
_cell_angle_gamma 90.000000
_cell_volume 4514.118328
_symmetry_space_group_name_H-M "C M M M"
_symmetry_group_IT_number 65
_symmetry_cell_setting 'orthorhombic'
loop_
_space_group_symop_operation_xyz
x,y,z
-x,-y,z
x,-y,-z
-x,y,-z
-x,-y,-z
x,y,-z
-x,y,z
x,-y,z
1/2+x,1/2+y,z
1/2-x,1/2-y,z
1/2+x,1/2-y,-z
1/2-x,1/2+y,-z
1/2-x,1/2-y,-z
1/2+x,1/2+y,-z
1/2-x,1/2+y,z
1/2+x,1/2-y,z
loop_
_atom_site_type_symbol
_atom_site_label
_atom_site_fract_x
_atom_site_fract_y
_atom_site_fract_z
Si Si1 0.665617 0.202111 0.640233
Si Si2 0.582227 0.300453 0.725935
Si Si3 0.664645 0.796027 0.453498
Si Si4 0.584811 0.802280 0.180405
Si Si5 0.915616 0.500000 0.948191
Si Si6 0.166474 0.193390 0.902226
O O1 0.750000 0.250000 0.642455
O O2 0.625997 0.268848 0.682437
O O3 0.636479 0.264368 0.593240
O O4 0.659601 0.000000 0.640628
O O5 0.500000 0.237300 0.719591
O O6 0.580264 0.500000 0.733979
O O7 0.610677 0.218844 0.770196
O O8 0.634803 0.734560 0.500000
O O9 0.750000 0.750000 0.453512
O O10 0.658766 0.000000 0.453550
O O11 0.500000 0.748520 0.179028
O O12 0.632396 0.704217 0.145776
O O13 0.587816 0.000000 0.168851
O O14 0.877146 0.668141 0.930013
O O15 0.000000 0.500000 0.934818
O O16 0.911720 0.500000 0.000000
O O17 0.250000 0.250000 0.901140
O O18 0.160653 0.000000 0.918077
#
# Coordination Sequence:
#
# PCOD9485728 Si02
#       6
#    16  16  16  16   8  16
#     4  10  19  31  49  73 102 134 173 221 279 338
#     4  10  21  36  53  77 108 147 191 233 284 344
#     4   8  14  25  42  65  92 123 162 212 269 332
#     4  10  20  37  62  89 120 156 199 250 302 366
#     4  11  26  48  72 102 139 179 227 275 321 385
#     4  12  24  43  68 101 137 176 219 269 330 383
#
# _framework density 19.494392999999999
#
# number of rings (size 3 to 8) (size 9 to 14) (size 15 to 20)
#    0.000    1.909    1.818    2.182    0.000    5.455 
#    0.000    4.545    0.000    0.545    0.000    3.818 
#    0.000    0.000    0.000    0.000    0.000    0.000 
#
# Total GULP energy -245468.933495 kJ/mol
# GULP energy per Si atom -5578.839398 kJ/mol
# Density = 1.945002 g / cm^3
# Si number density = 19.494393 Si / 1000 Ang^3
#
#
#
# Elastic Constant Matrix: (Units=GPa)
#
#
# Indices 1 2 3 4 5 6 
#
# 1 74.0674 31.8827 52.5613 0.0000 0.0000 0.0000
# 2 31.8827 96.8948 36.3660 0.0000 0.0000 0.0000
# 3 52.5613 36.3660 127.0125 0.0000 0.0000 0.0000
# 4 0.0000 0.0000 0.0000 14.8931 0.0000 0.0000
# 5 0.0000 0.0000 0.0000 0.0000 27.4074 0.0000
# 6 0.0000 0.0000 0.0000 0.0000 0.0000 21.8298
#
#
#
# Elastic Compliance Matrix: (Units=1/GPa)
#
#
# Indices 1 2 3 4 5 6 
#
# 1 0.020392 -0.003969 -0.007302 0.000000 0.000000 0.000000
# 2 -0.003969 0.012336 -0.001889 0.000000 0.000000 0.000000
# 3 -0.007302 -0.001889 0.011436 0.000000 0.000000 0.000000
# 4 0.000000 0.000000 0.000000 0.067145 0.000000 0.000000
# 5 0.000000 0.000000 0.000000 0.000000 0.036486 0.000000
# 6 0.000000 0.000000 0.000000 0.000000 0.000000 0.045809
#
#
# Mechanical properties :
#
#
# Convention : Reuss Voigt Hill
#
# Bulk Modulus (GPa) = 56.04780 59.95497 58.00139
# Shear Modulus (GPa) = 22.13633 24.63702 23.38667
#
# Velocity S-wave (km/s) = 3.37341 3.55885 3.46737
# Velocity P-wave (km/s) = 6.63222 6.90717 6.77109
#
# Compressibility (1/GPa) = 0.01784191
#
# Stress axis : x y z
#
# Youngs Moduli (GPa) = 49.03944 81.06611 87.44258
#
# Poissons Ratio (x) = 0.32176 0.63853
# Poissons Ratio (y) = 0.19465 0.16521
# Poissons Ratio (z) = 0.35810 0.15316
#
# Static dielectric constant tensor:
#      x y z
#    x 1.653760 0.000000 0.000000 
#    y 0.000000 1.696130 0.000000 
#    z 0.000000 0.000000 1.721210 
# 
# From -- ./inp_files/77824.got.cif
#   From: 2010.05.17/outbox.cif.g08.bks.cpg/sg65_39_cif.got.tgz:77824.got - 2010.06.03 17:01:31.
