data_PCOD9485615
_publ_section_title
;
Structure prediction by ZEFSAII (Michael W. Deem and Ramdas Pophale) SiO2 
 PCOD9485615
Probable space group: C M M M
;
_chemical_formula_sum "Si O2"
_cell_formula_units_Z 80
_cell_length_a 19.978865
_cell_length_b 19.425060
_cell_length_c 12.769541
_cell_angle_alpha 90.000000
_cell_angle_beta 90.000000
_cell_angle_gamma 90.000000
_cell_volume 4955.739484
_symmetry_space_group_name_H-M "C M M M"
_symmetry_group_IT_number 65
_symmetry_cell_setting 'orthorhombic'
loop_
_space_group_symop_operation_xyz
x,y,z
-x,-y,z
x,-y,-z
-x,y,-z
-x,-y,-z
x,y,-z
-x,y,z
x,-y,z
1/2+x,1/2+y,z
1/2-x,1/2-y,z
1/2+x,1/2-y,-z
1/2-x,1/2+y,-z
1/2-x,1/2-y,-z
1/2+x,1/2+y,-z
1/2-x,1/2+y,z
1/2+x,1/2-y,z
loop_
_atom_site_type_symbol
_atom_site_label
_atom_site_fract_x
_atom_site_fract_y
_atom_site_fract_z
Si Si1 0.139973 0.731059 0.000000
Si Si2 0.734334 0.922182 0.622079
Si Si3 0.662052 0.578474 0.806110
Si Si4 0.824439 0.279785 0.376623
Si Si5 0.738162 0.363896 0.000000
Si Si6 0.921431 0.213952 0.207375
O O1 0.185922 0.663018 0.000000
O O2 0.192066 0.795263 0.000000
O O3 0.096915 0.741633 0.104388
O O4 0.753787 0.914064 0.500000
O O5 0.798112 0.914276 0.697004
O O6 0.682285 0.861377 0.644488
O O7 0.708468 0.000000 0.636547
O O8 0.637989 0.500000 0.816562
O O9 0.715863 0.594666 0.897303
O O10 0.605064 0.636221 0.812435
O O11 0.837717 0.268651 0.500000
O O12 0.750000 0.250000 0.354028
O O13 0.878208 0.244263 0.302893
O O14 0.000000 0.214917 0.227544
#
# Coordination Sequence:
#
# PCOD9485615 Si02
#       6
#     8  16  16  16   8  16
#     4   9  19  32  51  71  98 130 168 218 260 297
#     4   9  17  30  51  77 101 127 164 213 264 308
#     4  10  19  31  48  73 105 136 171 209 252 304
#     4  10  19  33  54  77 102 134 174 221 266 303
#     4   9  17  30  51  75  93 125 170 218 256 290
#     4  11  22  34  50  74 107 143 177 209 254 313
#
# _framework density 16.142899
#
# number of rings (size 3 to 8) (size 9 to 14) (size 15 to 20)
#    0.000    2.200    2.000    1.800    2.800    0.800 
#    0.000    0.000    0.000    4.200    0.000    7.000 
#    0.000    8.000    0.000    0.000    0.000    0.000 
#
# Total GULP energy -222991.908509 kJ/mol
# GULP energy per Si atom -5574.797713 kJ/mol
# Density = 1.610616 g / cm^3
# Si number density = 16.142899 Si / 1000 Ang^3
#
#
#
# Elastic Constant Matrix: (Units=GPa)
#
#
# Indices 1 2 3 4 5 6 
#
# 1 110.6163 56.6590 60.8705 0.0000 0.0000 0.0000
# 2 56.6590 89.2096 43.9416 0.0000 0.0000 0.0000
# 3 60.8705 43.9416 79.6013 0.0000 0.0000 0.0000
# 4 0.0000 0.0000 0.0000 20.4882 0.0000 0.0000
# 5 0.0000 0.0000 0.0000 0.0000 8.3429 0.0000
# 6 0.0000 0.0000 0.0000 0.0000 0.0000 16.0186
#
#
#
# Elastic Compliance Matrix: (Units=1/GPa)
#
#
# Indices 1 2 3 4 5 6 
#
# 1 0.017894 -0.006352 -0.010177 0.000000 0.000000 0.000000
# 2 -0.006352 0.017651 -0.004886 0.000000 0.000000 0.000000
# 3 -0.010177 -0.004886 0.023042 0.000000 0.000000 0.000000
# 4 0.000000 0.000000 0.000000 0.048809 0.000000 0.000000
# 5 0.000000 0.000000 0.000000 0.000000 0.119863 0.000000
# 6 0.000000 0.000000 0.000000 0.000000 0.000000 0.062427
#
#
# Mechanical properties :
#
#
# Convention : Reuss Voigt Hill
#
# Bulk Modulus (GPa) = 63.46614 66.92994 65.19804
# Shear Modulus (GPa) = 14.80304 16.83367 15.81836
#
# Velocity S-wave (km/s) = 3.03149 3.23273 3.13372
# Velocity P-wave (km/s) = 7.18706 7.44882 7.31911
#
# Compressibility (1/GPa) = 0.01575643
#
# Stress axis : x y z
#
# Youngs Moduli (GPa) = 55.88415 56.65509 43.39868
#
# Poissons Ratio (x) = 0.35988 0.44167
# Poissons Ratio (y) = 0.35498 0.21205
# Poissons Ratio (z) = 0.56874 0.27682
#
# Static dielectric constant tensor:
#      x y z
#    x 1.495050 0.000000 0.000000 
#    y 0.000000 1.576850 0.000000 
#    z 0.000000 0.000000 1.556850 
# 
# From -- ./inp_files/26664.got.cif
#   From: 2010.05.17/outbox.cif.g08.bks.cpg/sg65_14_cif.got.tgz:26664.got - 2010.06.03 17:01:31.
