data_PCOD9485193
_publ_section_title
;
Structure prediction by ZEFSAII (Michael W. Deem and Ramdas Pophale) SiO2 
 PCOD9485193
Probable space group: C M M M
;
_chemical_formula_sum "Si O2"
_cell_formula_units_Z 96
_cell_length_a 9.064310
_cell_length_b 19.050237
_cell_length_c 32.389529
_cell_angle_alpha 90.000000
_cell_angle_beta 90.000000
_cell_angle_gamma 90.000000
_cell_volume 5592.934918
_symmetry_space_group_name_H-M "C M M M"
_symmetry_group_IT_number 65
_symmetry_cell_setting 'orthorhombic'
loop_
_space_group_symop_operation_xyz
x,y,z
-x,-y,z
x,-y,-z
-x,y,-z
-x,-y,-z
x,y,-z
-x,y,z
x,-y,z
1/2+x,1/2+y,z
1/2-x,1/2-y,z
1/2+x,1/2-y,-z
1/2-x,1/2+y,-z
1/2-x,1/2-y,-z
1/2+x,1/2+y,-z
1/2-x,1/2+y,z
1/2+x,1/2-y,z
loop_
_atom_site_type_symbol
_atom_site_label
_atom_site_fract_x
_atom_site_fract_y
_atom_site_fract_z
Si Si1 0.829719 0.414660 0.799071
Si Si2 0.672535 0.415722 0.117310
Si Si3 0.822655 0.827191 0.364984
Si Si4 0.322716 0.327024 0.544343
Si Si5 0.322477 0.916989 0.706783
Si Si6 0.175842 0.674161 0.952747
O O1 0.828706 0.500000 0.798226
O O2 0.732980 0.392381 0.837924
O O3 0.780195 0.392895 0.753224
O O4 0.000000 0.393153 0.805166
O O5 0.500000 0.399436 0.113632
O O6 0.690777 0.500000 0.114897
O O7 0.761042 0.378921 0.080808
O O8 0.750000 0.750000 0.362487
O O9 0.784735 0.857948 0.410770
O O10 0.758494 0.874334 0.328626
O O11 0.000000 0.821537 0.361830
O O12 0.281524 0.361036 0.500000
O O13 0.500000 0.319458 0.544319
O O14 0.250000 0.250000 0.544147
O O15 0.500000 0.908834 0.703524
O O16 0.290187 0.000000 0.703161
O O17 0.250000 0.750000 0.946638
O O18 0.000000 0.680375 0.948670
O O19 0.208935 0.651722 0.000000
#
# Coordination Sequence:
#
# PCOD9485193 Si02
#       6
#    16  16  16  16  16  16
#     4   8  15  30  51  72  95 126 163 201 242 288
#     4  10  20  33  52  79 107 132 161 202 247 287
#     4  10  19  30  47  71  98 126 157 198 244 288
#     4   8  14  25  41  62  88 118 153 192 235 283
#     4   9  18  33  52  72  96 128 163 199 241 289
#     4  10  21  37  56  76 101 135 171 205 243 290
#
# _framework density 17.164511999999998
#
# number of rings (size 3 to 8) (size 9 to 14) (size 15 to 20)
#    0.000    2.833    0.000    2.500    0.000    4.000 
#    0.000    4.167    0.000    4.500    0.000    3.500 
#    0.000    0.000    0.000    0.000    0.000    0.000 
#
# Total GULP energy -267303.357318 kJ/mol
# GULP energy per Si atom -5568.819944 kJ/mol
# Density = 1.712545 g / cm^3
# Si number density = 17.164512 Si / 1000 Ang^3
#
#
#
# Elastic Constant Matrix: (Units=GPa)
#
#
# Indices 1 2 3 4 5 6 
#
# 1 60.3565 31.4978 76.7229 0.0000 0.0000 0.0000
# 2 31.4978 25.7386 51.2727 0.0000 0.0000 0.0000
# 3 76.7229 51.2727 183.4850 0.0000 0.0000 0.0000
# 4 0.0000 0.0000 0.0000 27.0904 0.0000 0.0000
# 5 0.0000 0.0000 0.0000 0.0000 28.6742 0.0000
# 6 0.0000 0.0000 0.0000 0.0000 0.0000 24.5531
#
#
#
# Elastic Compliance Matrix: (Units=1/GPa)
#
#
# Indices 1 2 3 4 5 6 
#
# 1 0.051522 -0.045415 -0.008853 0.000000 0.000000 0.000000
# 2 -0.045415 0.127667 -0.016685 0.000000 0.000000 0.000000
# 3 -0.008853 -0.016685 0.013814 0.000000 0.000000 0.000000
# 4 0.000000 0.000000 0.000000 0.036913 0.000000 0.000000
# 5 0.000000 0.000000 0.000000 0.000000 0.034875 0.000000
# 6 0.000000 0.000000 0.000000 0.000000 0.000000 0.040728
#
#
# Mechanical properties :
#
#
# Convention : Reuss Voigt Hill
#
# Bulk Modulus (GPa) = 19.57061 65.39632 42.48346
# Shear Modulus (GPa) = 10.76525 23.40264 17.08394
#
# Velocity S-wave (km/s) = 2.50707 3.69647 3.15827
# Velocity P-wave (km/s) = 4.45052 7.51006 6.17285
#
# Compressibility (1/GPa) = 0.05109703
#
# Stress axis : x y z
#
# Youngs Moduli (GPa) = 19.40911 7.83290 72.38937
#
# Poissons Ratio (x) = 0.35573 0.64086
# Poissons Ratio (y) = 0.88147 1.20780
# Poissons Ratio (z) = 0.17183 0.13069
#
# Static dielectric constant tensor:
#      x y z
#    x 1.575860 0.000000 0.000000 
#    y 0.000000 1.553730 0.000000 
#    z 0.000000 0.000000 1.619540 
# 
# From -- ./inp_files/73059.got.cif
#   From: 2010.05.17/outbox.cif.g08.bks.cpg/sg65_37_cif.got.tgz:73059.got - 2010.06.03 17:01:31.
