data_PCOD9485217
_publ_section_title
;
Structure prediction by ZEFSAII (Michael W. Deem and Ramdas Pophale) SiO2 
 PCOD9485217
Probable space group: C M M M
;
_chemical_formula_sum "Si O2"
_cell_formula_units_Z 96
_cell_length_a 24.575352
_cell_length_b 7.867238
_cell_length_c 26.855154
_cell_angle_alpha 90.000000
_cell_angle_beta 90.000000
_cell_angle_gamma 90.000000
_cell_volume 5192.179318
_symmetry_space_group_name_H-M "C M M M"
_symmetry_group_IT_number 65
_symmetry_cell_setting 'orthorhombic'
loop_
_space_group_symop_operation_xyz
x,y,z
-x,-y,z
x,-y,-z
-x,y,-z
-x,-y,-z
x,y,-z
-x,y,z
x,-y,z
1/2+x,1/2+y,z
1/2-x,1/2-y,z
1/2+x,1/2-y,-z
1/2-x,1/2+y,-z
1/2-x,1/2-y,-z
1/2+x,1/2+y,-z
1/2-x,1/2+y,z
1/2+x,1/2-y,z
loop_
_atom_site_type_symbol
_atom_site_label
_atom_site_fract_x
_atom_site_fract_y
_atom_site_fract_z
Si Si1 0.381344 0.703210 0.258797
Si Si2 0.685972 0.204841 0.053471
Si Si3 0.887058 0.794599 0.556274
Si Si4 0.313048 0.295085 0.353679
Si Si5 0.313665 0.796689 0.837741
Si Si6 0.500000 0.799952 0.607882
Si Si7 0.500000 0.301737 0.721340
O O1 0.385594 0.500000 0.266089
O O2 0.346278 0.769428 0.305578
O O3 0.349582 0.733227 0.207786
O O4 0.442813 0.773377 0.260006
O O5 0.750000 0.250000 0.053160
O O6 0.666717 0.267027 0.107628
O O7 0.680883 0.000000 0.053431
O O8 0.663428 0.267294 0.000000
O O9 0.879317 0.731570 0.500000
O O10 0.842332 0.733482 0.595973
O O11 0.946251 0.747270 0.577202
O O12 0.884305 0.000000 0.555013
O O13 0.316687 0.500000 0.353527
O O14 0.250000 0.250000 0.350993
O O15 0.250000 0.750000 0.831277
O O16 0.316583 0.000000 0.838053
O O17 0.500000 0.708610 0.661329
O O18 0.500000 0.000000 0.617761
O O19 0.500000 0.500000 0.736305
#
# Coordination Sequence:
#
# PCOD9485217 Si02
#       7
#    16  16  16  16  16   8   8
#     4  10  20  35  55  75  98 129 167 209 251 300
#     4   8  14  25  41  63  94 133 171 206 244 286
#     4  10  21  39  60  77  99 137 176 204 241 301
#     4  10  21  36  54  76 101 132 168 203 244 296
#     4  10  19  30  47  73 106 138 171 208 247 297
#     4  12  23  35  56  85 110 127 155 209 264 300
#     4  10  20  39  61  76  97 132 170 204 246 305
#
# _framework density 18.489346999999999
#
# number of rings (size 3 to 8) (size 9 to 14) (size 15 to 20)
#    0.000    2.167    1.667    2.000    0.000    5.667 
#    0.000    0.000    0.000    0.000    0.000    0.583 
#    0.000    4.667    0.000    0.000    0.000    0.000 
#
# Total GULP energy -267688.481170 kJ/mol
# GULP energy per Si atom -5576.843358 kJ/mol
# Density = 1.844726 g / cm^3
# Si number density = 18.489347 Si / 1000 Ang^3
#
#
#
# Elastic Constant Matrix: (Units=GPa)
#
#
# Indices 1 2 3 4 5 6 
#
# 1 141.2811 2.8630 89.5343 0.0000 0.0000 0.0000
# 2 2.8630 18.0382 -8.5933 0.0000 0.0000 0.0000
# 3 89.5343 -8.5933 153.8709 0.0000 0.0000 0.0000
# 4 0.0000 0.0000 0.0000 10.3988 0.0000 0.0000
# 5 0.0000 0.0000 0.0000 0.0000 41.7896 0.0000
# 6 0.0000 0.0000 0.0000 0.0000 0.0000 18.9731
#
#
#
# Elastic Compliance Matrix: (Units=1/GPa)
#
#
# Indices 1 2 3 4 5 6 
#
# 1 0.011674 -0.005228 -0.007085 0.000000 0.000000 0.000000
# 2 -0.005228 0.059294 0.006354 0.000000 0.000000 0.000000
# 3 -0.007085 0.006354 0.010976 0.000000 0.000000 0.000000
# 4 0.000000 0.000000 0.000000 0.096165 0.000000 0.000000
# 5 0.000000 0.000000 0.000000 0.000000 0.023929 0.000000
# 6 0.000000 0.000000 0.000000 0.000000 0.000000 0.052706
#
#
# Mechanical properties :
#
#
# Convention : Reuss Voigt Hill
#
# Bulk Modulus (GPa) = 14.28038 53.42200 33.85119
# Shear Modulus (GPa) = 17.24103 29.52471 23.38287
#
# Velocity S-wave (km/s) = 3.05697 4.00040 3.56007
# Velocity P-wave (km/s) = 4.49449 7.09180 5.93692
#
# Compressibility (1/GPa) = 0.07002615
#
# Stress axis : x y z
#
# Youngs Moduli (GPa) = 85.66150 16.86497 91.10576
#
# Poissons Ratio (x) = 0.08817 0.64546
# Poissons Ratio (y) = 0.44784 -0.57884
# Poissons Ratio (z) = 0.60689 -0.10715
#
# Static dielectric constant tensor:
#      x y z
#    x 1.598140 0.000000 0.000000 
#    y 0.000000 1.753320 0.000000 
#    z 0.000000 0.000000 1.674460 
# 
# From -- ./inp_files/71474.got.cif
#   From: 2010.05.17/outbox.cif.g08.bks.cpg/sg65_36_cif.got.tgz:71474.got - 2010.06.03 17:01:31.
