data_PCOD9485712
_publ_section_title
;
Structure prediction by ZEFSAII (Michael W. Deem and Ramdas Pophale) SiO2 
 PCOD9485712
Probable space group: C M M M
;
_chemical_formula_sum "Si O2"
_cell_formula_units_Z 64
_cell_length_a 8.679368
_cell_length_b 18.323540
_cell_length_c 21.827071
_cell_angle_alpha 90.000000
_cell_angle_beta 90.000000
_cell_angle_gamma 90.000000
_cell_volume 3471.306362
_symmetry_space_group_name_H-M "C M M M"
_symmetry_group_IT_number 65
_symmetry_cell_setting 'orthorhombic'
loop_
_space_group_symop_operation_xyz
x,y,z
-x,-y,z
x,-y,-z
-x,y,-z
-x,-y,-z
x,y,-z
-x,y,z
x,-y,z
1/2+x,1/2+y,z
1/2-x,1/2-y,z
1/2+x,1/2-y,-z
1/2-x,1/2+y,-z
1/2-x,1/2-y,-z
1/2+x,1/2+y,-z
1/2-x,1/2+y,z
1/2+x,1/2-y,z
loop_
_atom_site_type_symbol
_atom_site_label
_atom_site_fract_x
_atom_site_fract_y
_atom_site_fract_z
Si Si1 0.316815 0.331261 0.000000
Si Si2 0.314047 0.915156 0.117095
Si Si3 0.314832 0.667070 0.632577
Si Si4 0.185658 0.167445 0.500000
Si Si5 0.684641 0.832088 0.241071
O O1 0.250000 0.250000 0.000000
O O2 0.258728 0.373079 0.939760
O O3 0.500000 0.328026 0.000000
O O4 0.500000 0.910596 0.111833
O O5 0.270514 0.878202 0.181516
O O6 0.270416 0.000000 0.115984
O O7 0.500000 0.669031 0.636936
O O8 0.250000 0.750000 0.631508
O O9 0.270299 0.634104 0.566066
O O10 0.247143 0.634977 0.695087
O O11 0.250000 0.250000 0.500000
O O12 0.000000 0.171734 0.500000
O O13 0.500000 0.828101 0.244433
O O14 0.750000 0.750000 0.234781
#
# Coordination Sequence:
#
# PCOD9485712 Si02
#       5
#     8  16  16   8  16
#     4  12  25  40  61  87 111 137 171 210 251 300
#     4  10  22  40  59  79 107 141 173 210 258 307
#     4   9  15  24  39  61  92 127 163 205 252 301
#     4   8  14  22  34  56  87 124 161 199 249 303
#     4  10  19  31  49  73 100 132 170 209 252 303
#
# _framework density 18.436864
#
# number of rings (size 3 to 8) (size 9 to 14) (size 15 to 20)
#    0.000    2.250    0.000    5.250    0.000    7.000 
#    0.000    0.000    0.000    0.000    0.000    0.875 
#    0.000    7.000    0.000    0.000    0.000    0.000 
#
# Total GULP energy -178413.718886 kJ/mol
# GULP energy per Si atom -5575.428715 kJ/mol
# Density = 1.839490 g / cm^3
# Si number density = 18.436864 Si / 1000 Ang^3
#
#
#
# Elastic Constant Matrix: (Units=GPa)
#
#
# Indices 1 2 3 4 5 6 
#
# 1 46.0474 30.5776 64.0765 0.0000 0.0000 0.0000
# 2 30.5776 80.6714 81.3434 0.0000 0.0000 0.0000
# 3 64.0765 81.3434 249.5499 0.0000 0.0000 0.0000
# 4 0.0000 0.0000 0.0000 -10.1827 0.0000 0.0000
# 5 0.0000 0.0000 0.0000 0.0000 30.6512 0.0000
# 6 0.0000 0.0000 0.0000 0.0000 0.0000 14.7547
#
#
#
# Elastic Compliance Matrix: (Units=1/GPa)
#
#
# Indices 1 2 3 4 5 6 
#
# 1 0.035893 -0.006423 -0.007123 0.000000 0.000000 0.000000
# 2 -0.006423 0.019614 -0.004744 0.000000 0.000000 0.000000
# 3 -0.007123 -0.004744 0.007383 0.000000 0.000000 0.000000
# 4 0.000000 0.000000 0.000000 -0.098206 0.000000 0.000000
# 5 0.000000 0.000000 0.000000 0.000000 0.032625 0.000000
# 6 0.000000 0.000000 0.000000 0.000000 0.000000 0.067775
#
#
# Mechanical properties :
#
#
# Convention : Reuss Voigt Hill
#
# Bulk Modulus (GPa) = 38.00785 80.91820 59.46303
# Shear Modulus (GPa) = 45.27580 20.39607 32.83593
#
# Velocity S-wave (km/s) = 4.96090 3.32967 4.22476
# Velocity P-wave (km/s) = 7.31259 7.66595 7.49135
#
# Compressibility (1/GPa) = 0.02631035
#
# Stress axis : x y z
#
# Youngs Moduli (GPa) = 27.86042 50.98319 135.45506
#
# Poissons Ratio (x) = 0.32746 0.96479
# Poissons Ratio (y) = 0.17895 0.64264
# Poissons Ratio (z) = 0.19844 0.24188
#
# Static dielectric constant tensor:
#      x y z
#    x 1.623160 0.000000 0.000000 
#    y 0.000000 1.596010 0.000000 
#    z 0.000000 0.000000 1.693070 
# 
# From -- ./inp_files/58894.got.cif
#   From: 2010.05.17/outbox.cif.g08.bks.cpg/sg65_30_cif.got.tgz:58894.got - 2010.06.03 17:01:31.
