data_PCOD9485269
_publ_section_title
;
Structure prediction by ZEFSAII (Michael W. Deem and Ramdas Pophale) SiO2 
 PCOD9485269
Probable space group: C M M M
;
_chemical_formula_sum "Si O2"
_cell_formula_units_Z 80
_cell_length_a 20.646882
_cell_length_b 25.200142
_cell_length_c 9.300517
_cell_angle_alpha 90.000000
_cell_angle_beta 90.000000
_cell_angle_gamma 90.000000
_cell_volume 4839.099529
_symmetry_space_group_name_H-M "C M M M"
_symmetry_group_IT_number 65
_symmetry_cell_setting 'orthorhombic'
loop_
_space_group_symop_operation_xyz
x,y,z
-x,-y,z
x,-y,-z
-x,y,-z
-x,-y,-z
x,y,-z
-x,y,z
x,-y,z
1/2+x,1/2+y,z
1/2-x,1/2-y,z
1/2+x,1/2-y,-z
1/2-x,1/2+y,-z
1/2-x,1/2-y,-z
1/2+x,1/2+y,-z
1/2-x,1/2+y,z
1/2+x,1/2-y,z
loop_
_atom_site_type_symbol
_atom_site_label
_atom_site_fract_x
_atom_site_fract_y
_atom_site_fract_z
Si Si1 0.426457 0.786647 0.169146
Si Si2 0.108444 0.606607 0.331789
Si Si3 0.265291 0.606051 0.668048
Si Si4 0.763379 0.000000 0.165404
Si Si5 0.810229 0.789978 0.829888
Si Si6 0.894436 0.500000 0.165873
O O1 0.500000 0.767437 0.182966
O O2 0.418124 0.840406 0.258567
O O3 0.374387 0.742420 0.212463
O O4 0.414094 0.798854 0.000000
O O5 0.091632 0.603412 0.500000
O O6 0.186889 0.610102 0.320581
O O7 0.086348 0.553591 0.248756
O O8 0.281131 0.602254 0.500000
O O9 0.284432 0.552825 0.752019
O O10 0.296781 0.657476 0.739837
O O11 0.684484 0.000000 0.165994
O O12 0.784247 0.000000 0.000000
O O13 0.750000 0.750000 0.810570
O O14 0.813979 0.803016 0.000000
O O15 0.915798 0.500000 0.000000
#
# Coordination Sequence:
#
# PCOD9485269 Si02
#       6
#    16  16  16   8  16   8
#     4  10  21  36  52  71  98 132 169 209 251 295
#     4  10  19  31  48  71 100 131 166 208 252 295
#     4  10  19  30  48  75 105 133 164 205 251 296
#     4   9  17  29  47  72 103 134 165 202 248 298
#     4  10  19  32  52  75  99 130 170 209 246 294
#     4   9  17  29  48  70  95 130 170 209 248 291
#
# _framework density 16.532001000000001
#
# number of rings (size 3 to 8) (size 9 to 14) (size 15 to 20)
#    0.000    2.200    2.000    1.800    0.000    5.600 
#    0.000    0.500    0.000    3.000    0.000    0.700 
#    0.000    5.600    0.000    0.000    0.000    0.000 
#
# Total GULP energy -223269.805675 kJ/mol
# GULP energy per Si atom -5581.745142 kJ/mol
# Density = 1.649437 g / cm^3
# Si number density = 16.532001 Si / 1000 Ang^3
#
#
#
# Elastic Constant Matrix: (Units=GPa)
#
#
# Indices 1 2 3 4 5 6 
#
# 1 56.2239 45.0378 43.1146 0.0000 0.0000 0.0000
# 2 45.0378 131.8062 84.6577 0.0000 0.0000 0.0000
# 3 43.1146 84.6577 112.5514 0.0000 0.0000 0.0000
# 4 0.0000 0.0000 0.0000 -28.5549 0.0000 0.0000
# 5 0.0000 0.0000 0.0000 0.0000 12.0970 0.0000
# 6 0.0000 0.0000 0.0000 0.0000 0.0000 5.4094
#
#
#
# Elastic Compliance Matrix: (Units=1/GPa)
#
#
# Indices 1 2 3 4 5 6 
#
# 1 0.026756 -0.004952 -0.006525 0.000000 0.000000 0.000000
# 2 -0.004952 0.015594 -0.009833 0.000000 0.000000 0.000000
# 3 -0.006525 -0.009833 0.018780 0.000000 0.000000 0.000000
# 4 0.000000 0.000000 0.000000 -0.035020 0.000000 0.000000
# 5 0.000000 0.000000 0.000000 0.000000 0.082665 0.000000
# 6 0.000000 0.000000 0.000000 0.000000 0.000000 0.184864
#
#
# Mechanical properties :
#
#
# Convention : Reuss Voigt Hill
#
# Bulk Modulus (GPa) = 54.01894 71.80018 62.90956
# Shear Modulus (GPa) = 14.60161 6.30840 10.45501
#
# Velocity S-wave (km/s) = 2.97515 1.95555 2.51750
# Velocity P-wave (km/s) = 6.67445 6.97310 6.82541
#
# Compressibility (1/GPa) = 0.01851203
#
# Stress axis : x y z
#
# Youngs Moduli (GPa) = 37.37481 64.12587 53.24762
#
# Poissons Ratio (x) = 0.31753 0.34743
# Poissons Ratio (y) = 0.18507 0.52357
# Poissons Ratio (z) = 0.24386 0.63054
#
# Static dielectric constant tensor:
#      x y z
#    x 1.553520 0.000000 0.000000 
#    y 0.000000 1.520830 0.000000 
#    z 0.000000 0.000000 1.553830 
# 
# From -- ./inp_files/11571.got.cif
#   From: 2010.05.17/outbox.cif.g08.bks.cpg/sg65_6_cif.got.tgz:11571.got - 2010.06.03 17:01:31.
