data_PCOD9485102
_publ_section_title
;
Structure prediction by ZEFSAII (Michael W. Deem and Ramdas Pophale) SiO2 
 PCOD9485102
Probable space group: C M M M
;
_chemical_formula_sum "Si O2"
_cell_formula_units_Z 112
_cell_length_a 28.864243
_cell_length_b 15.176227
_cell_length_c 14.760712
_cell_angle_alpha 90.000000
_cell_angle_beta 90.000000
_cell_angle_gamma 90.000000
_cell_volume 6465.934378
_symmetry_space_group_name_H-M "C M M M"
_symmetry_group_IT_number 65
_symmetry_cell_setting 'orthorhombic'
loop_
_space_group_symop_operation_xyz
x,y,z
-x,-y,z
x,-y,-z
-x,y,-z
-x,-y,-z
x,y,-z
-x,y,z
x,-y,z
1/2+x,1/2+y,z
1/2-x,1/2-y,z
1/2+x,1/2-y,-z
1/2-x,1/2+y,-z
1/2-x,1/2-y,-z
1/2+x,1/2+y,-z
1/2-x,1/2+y,z
1/2+x,1/2-y,z
loop_
_atom_site_type_symbol
_atom_site_label
_atom_site_fract_x
_atom_site_fract_y
_atom_site_fract_z
Si Si1 0.763216 0.893346 0.603272
Si Si2 0.766546 0.347666 0.791528
Si Si3 0.180172 0.096034 0.104101
Si Si4 0.360858 0.898802 0.891785
Si Si5 0.447920 0.604492 0.745244
Si Si6 0.906432 0.779297 0.106653
Si Si7 0.369377 0.606821 0.397396
O O1 0.752010 0.866752 0.500000
O O2 0.731567 0.857004 0.683207
O O3 0.816568 0.865979 0.623333
O O4 0.761528 0.000000 0.606084
O O5 0.750000 0.250000 0.816364
O O6 0.723491 0.403324 0.829587
O O7 0.813731 0.376457 0.838735
O O8 0.143057 0.171704 0.121837
O O9 0.156751 0.000000 0.111461
O O10 0.196637 0.105984 0.000000
O O11 0.398327 0.823121 0.869807
O O12 0.374554 0.000000 0.873404
O O13 0.351757 0.891064 0.000000
O O14 0.500000 0.613807 0.708094
O O15 0.441645 0.500000 0.766000
O O16 0.441572 0.666106 0.832289
O O17 0.408132 0.632407 0.674468
O O18 0.917137 0.786460 0.000000
O O19 0.380314 0.635323 0.500000
O O20 0.368813 0.500000 0.397692
#
# Coordination Sequence:
#
# PCOD9485102 Si02
#       7
#    16  16  16  16  16  16  16
#     4   9  18  32  48  66  93 132 173 207 240 284
#     4  12  21  29  46  70  98 130 166 212 256 287
#     4  10  19  30  46  68  95 128 164 200 238 288
#     4  10  21  36  52  70  95 129 171 217 256 287
#     4  10  20  32  50  78 107 131 156 191 242 304
#     4  10  20  34  50  69  97 131 167 200 240 294
#     4   8  15  29  49  71  97 131 166 197 232 281
#
# _framework density 17.321549999999998
#
# number of rings (size 3 to 8) (size 9 to 14) (size 15 to 20)
#    0.000    2.143    1.429    3.857    0.000    4.571 
#    0.000    2.143    0.000    0.429    0.000    2.000 
#    0.000    0.000    0.000    1.286    0.000    0.143 
#
# Total GULP energy -312310.059444 kJ/mol
# GULP energy per Si atom -5576.965347 kJ/mol
# Density = 1.728213 g / cm^3
# Si number density = 17.321550 Si / 1000 Ang^3
#
#
#
# Elastic Constant Matrix: (Units=GPa)
#
#
# Indices 1 2 3 4 5 6 
#
# 1 22.1500 5.9526 21.8169 0.0000 0.0000 0.0000
# 2 5.9526 87.5420 18.0094 0.0000 0.0000 0.0000
# 3 21.8169 18.0094 55.1060 0.0000 0.0000 0.0000
# 4 0.0000 0.0000 0.0000 14.7806 0.0000 0.0000
# 5 0.0000 0.0000 0.0000 0.0000 15.5279 0.0000
# 6 0.0000 0.0000 0.0000 0.0000 0.0000 15.9658
#
#
#
# Elastic Compliance Matrix: (Units=1/GPa)
#
#
# Indices 1 2 3 4 5 6 
#
# 1 0.074098 0.001069 -0.029685 0.000000 0.000000 0.000000
# 2 0.001069 0.012262 -0.004430 0.000000 0.000000 0.000000
# 3 -0.029685 -0.004430 0.031347 0.000000 0.000000 0.000000
# 4 0.000000 0.000000 0.000000 0.067656 0.000000 0.000000
# 5 0.000000 0.000000 0.000000 0.000000 0.064400 0.000000
# 6 0.000000 0.000000 0.000000 0.000000 0.000000 0.062634
#
#
# Mechanical properties :
#
#
# Convention : Reuss Voigt Hill
#
# Bulk Modulus (GPa) = 19.37486 28.48397 23.92942
# Shear Modulus (GPa) = 12.63595 17.18947 14.91271
#
# Velocity S-wave (km/s) = 2.70384 3.15362 2.93735
# Velocity P-wave (km/s) = 4.57792 5.45347 5.03476
#
# Compressibility (1/GPa) = 0.05161326
#
# Stress axis : x y z
#
# Youngs Moduli (GPa) = 13.49560 81.55368 31.90063
#
# Poissons Ratio (x) = -0.08714 0.94698
# Poissons Ratio (y) = -0.01442 0.14133
# Poissons Ratio (z) = 0.40062 0.36131
#
# Static dielectric constant tensor:
#      x y z
#    x 1.569890 0.000000 0.000000 
#    y 0.000000 1.651570 0.000000 
#    z 0.000000 0.000000 1.618090 
# 
# From -- ./inp_files/41139.got.cif
#   From: 2010.05.17/outbox.cif.g08.bks.cpg/sg65_21_cif.got.tgz:41139.got - 2010.06.03 17:01:31.
