data_PCOD9485613
_publ_section_title
;
Structure prediction by ZEFSAII (Michael W. Deem and Ramdas Pophale) SiO2 
 PCOD9485613
Probable space group: C M M M
;
_chemical_formula_sum "Si O2"
_cell_formula_units_Z 88
_cell_length_a 29.074794
_cell_length_b 14.730784
_cell_length_c 9.460781
_cell_angle_alpha 90.000000
_cell_angle_beta 90.000000
_cell_angle_gamma 90.000000
_cell_volume 4052.000565
_symmetry_space_group_name_H-M "C M M M"
_symmetry_group_IT_number 65
_symmetry_cell_setting 'orthorhombic'
loop_
_space_group_symop_operation_xyz
x,y,z
-x,-y,z
x,-y,-z
-x,y,-z
-x,-y,-z
x,y,-z
-x,y,z
x,-y,z
1/2+x,1/2+y,z
1/2-x,1/2-y,z
1/2+x,1/2-y,-z
1/2-x,1/2+y,-z
1/2-x,1/2-y,-z
1/2+x,1/2+y,-z
1/2-x,1/2+y,z
1/2+x,1/2-y,z
loop_
_atom_site_type_symbol
_atom_site_label
_atom_site_fract_x
_atom_site_fract_y
_atom_site_fract_z
Si Si1 0.152515 0.345554 0.662312
Si Si2 0.000000 0.888179 0.340008
Si Si3 0.259761 0.140424 0.837547
Si Si4 0.949592 0.390704 0.668441
Si Si5 0.672321 0.631606 0.339629
Si Si6 0.583576 0.605047 0.156548
O O1 0.154704 0.382494 0.500000
O O2 0.191029 0.382976 0.768744
O O3 0.100059 0.353878 0.717244
O O4 0.166576 0.240262 0.652496
O O5 0.955240 0.854761 0.257394
O O6 0.000000 0.855918 0.500000
O O7 0.000000 0.000000 0.346621
O O8 0.250000 0.250000 0.840904
O O9 0.220037 0.106147 0.733265
O O10 0.255983 0.109872 0.000000
O O11 0.950289 0.371680 0.500000
O O12 0.947762 0.500000 0.685387
O O13 0.000000 0.360716 0.725221
O O14 0.667867 0.598484 0.500000
O O15 0.631430 0.603705 0.236882
O O16 0.569586 0.500000 0.139854
O O17 0.586553 0.645952 0.000000
#
# Coordination Sequence:
#
# PCOD9485613 Si02
#       6
#    16   8  16  16  16  16
#     4   9  17  30  49  75 101 127 164 209 251 294
#     4   9  17  31  51  71  91 121 162 201 238 285
#     4   9  17  30  49  70  94 130 169 205 249 303
#     4   8  14  27  49  75 102 132 164 198 241 295
#     4  10  19  31  48  73 101 130 164 209 257 299
#     4  10  20  34  51  70  96 131 168 205 247 296
#
# _framework density 21.717668
#
# number of rings (size 3 to 8) (size 9 to 14) (size 15 to 20)
#    0.000    2.818    0.000    2.455    0.000    5.091 
#    1.636    0.909    0.000    4.364    0.000    1.273 
#    0.000    0.000    0.000    0.000    0.000    0.000 
#
# Total GULP energy -245378.544978 kJ/mol
# GULP energy per Si atom -5576.785113 kJ/mol
# Density = 2.166824 g / cm^3
# Si number density = 21.717668 Si / 1000 Ang^3
#
#
#
# Elastic Constant Matrix: (Units=GPa)
#
#
# Indices 1 2 3 4 5 6 
#
# 1 220.0066 8.0299 90.7656 0.0000 0.0000 0.0000
# 2 8.0299 43.9869 5.5409 0.0000 0.0000 0.0000
# 3 90.7656 5.5409 172.3273 0.0000 0.0000 0.0000
# 4 0.0000 0.0000 0.0000 -7.1366 0.0000 0.0000
# 5 0.0000 0.0000 0.0000 0.0000 165.3742 0.0000
# 6 0.0000 0.0000 0.0000 0.0000 0.0000 26.7034
#
#
#
# Elastic Compliance Matrix: (Units=1/GPa)
#
#
# Indices 1 2 3 4 5 6 
#
# 1 0.005827 -0.000680 -0.003047 0.000000 0.000000 0.000000
# 2 -0.000680 0.022906 -0.000378 0.000000 0.000000 0.000000
# 3 -0.003047 -0.000378 0.007420 0.000000 0.000000 0.000000
# 4 0.000000 0.000000 0.000000 -0.140122 0.000000 0.000000
# 5 0.000000 0.000000 0.000000 0.000000 0.006047 0.000000
# 6 0.000000 0.000000 0.000000 0.000000 0.000000 0.037448
#
#
# Mechanical properties :
#
#
# Convention : Reuss Voigt Hill
#
# Bulk Modulus (GPa) = 35.78853 71.66594 53.72723
# Shear Modulus (GPa) = -116.41931 59.12049 -28.64941
#
# Velocity S-wave (km/s) = -7.32954 5.22316 -3.63599
# Velocity P-wave (km/s) = 7.42393 8.33341 2.67684
#
# Compressibility (1/GPa) = 0.02794192
#
# Stress axis : x y z
#
# Youngs Moduli (GPa) = 171.60364 43.65697 134.76765
#
# Poissons Ratio (x) = 0.02968 0.41070
# Poissons Ratio (y) = 0.11668 0.05099
# Poissons Ratio (z) = 0.52295 0.01652
#
# Static dielectric constant tensor:
#      x y z
#    x 1.783800 0.000000 0.000000 
#    y 0.000000 1.929900 0.000000 
#    z 0.000000 0.000000 1.762390 
# 
# From -- ./inp_files/11781.got.cif
#   From: 2010.05.17/outbox.cif.g08.bks.cpg/sg65_6_cif.got.tgz:11781.got - 2010.06.03 17:01:31.
