data_PCOD9485429
_publ_section_title
;
Structure prediction by ZEFSAII (Michael W. Deem and Ramdas Pophale) SiO2 
 PCOD9485429
Probable space group: C M M M
;
_chemical_formula_sum "Si O2"
_cell_formula_units_Z 112
_cell_length_a 13.649182
_cell_length_b 27.266596
_cell_length_c 16.005157
_cell_angle_alpha 90.000000
_cell_angle_beta 90.000000
_cell_angle_gamma 90.000000
_cell_volume 5956.586965
_symmetry_space_group_name_H-M "C M M M"
_symmetry_group_IT_number 65
_symmetry_cell_setting 'orthorhombic'
loop_
_space_group_symop_operation_xyz
x,y,z
-x,-y,z
x,-y,-z
-x,y,-z
-x,-y,-z
x,y,-z
-x,y,z
x,-y,z
1/2+x,1/2+y,z
1/2-x,1/2-y,z
1/2+x,1/2-y,-z
1/2-x,1/2+y,-z
1/2-x,1/2-y,-z
1/2+x,1/2+y,-z
1/2-x,1/2+y,z
1/2+x,1/2-y,z
loop_
_atom_site_type_symbol
_atom_site_label
_atom_site_fract_x
_atom_site_fract_y
_atom_site_fract_z
Si Si1 0.889292 0.215568 0.744369
Si Si2 0.764263 0.366719 0.314752
Si Si3 0.152575 0.282761 0.408930
Si Si4 0.203377 0.058840 0.908250
Si Si5 0.886927 0.058954 0.269001
Si Si6 0.882075 0.273332 0.092019
Si Si7 0.117077 0.617929 0.850348
O O1 0.812028 0.174501 0.718635
O O2 0.893828 0.258446 0.673854
O O3 0.855097 0.238827 0.831373
O O4 0.000000 0.195909 0.752641
O O5 0.817948 0.338818 0.389963
O O6 0.693572 0.413519 0.325669
O O7 0.845666 0.378988 0.245176
O O8 0.104571 0.278512 0.500000
O O9 0.250000 0.250000 0.415068
O O10 0.140169 0.073935 0.827027
O O11 0.313772 0.077776 0.893399
O O12 0.202004 0.000000 0.908663
O O13 0.168595 0.075897 0.000000
O O14 0.000000 0.071472 0.287523
O O15 0.877144 0.000000 0.274807
O O16 0.855430 0.329661 0.109141
O O17 0.000000 0.273412 0.093781
O O18 0.852192 0.257024 0.000000
O O19 0.000000 0.610286 0.857018
#
# Coordination Sequence:
#
# PCOD9485429 Si02
#       7
#    16  16  16  16  16  16  16
#     4  10  19  32  50  74 104 136 174 215 260 312
#     4  10  19  33  53  73 102 134 173 215 263 311
#     4   9  18  32  51  74 102 133 167 207 255 309
#     4   9  18  31  47  70  98 129 172 225 273 316
#     4   9  18  33  53  76 101 134 174 214 262 316
#     4   9  17  29  45  65  93 132 171 205 247 300
#     4  10  19  31  47  66  94 134 176 215 257 309
#
# _framework density 18.802714000000002
#
# number of rings (size 3 to 8) (size 9 to 14) (size 15 to 20)
#    0.000    2.571    1.429    0.857    0.000    1.714 
#    0.000    6.429    0.000    5.143    0.000    1.000 
#    0.000    0.000    0.000    8.429    0.000    0.000 
#
# Total GULP energy -311951.329648 kJ/mol
# GULP energy per Si atom -5570.559458 kJ/mol
# Density = 1.875992 g / cm^3
# Si number density = 18.802714 Si / 1000 Ang^3
#
#
#
# Elastic Constant Matrix: (Units=GPa)
#
#
# Indices 1 2 3 4 5 6 
#
# 1 61.8278 3.0018 -0.7214 0.0000 0.0000 0.0000
# 2 3.0018 36.4286 10.6834 0.0000 0.0000 0.0000
# 3 -0.7214 10.6834 67.0979 0.0000 0.0000 0.0000
# 4 0.0000 0.0000 0.0000 9.3722 0.0000 0.0000
# 5 0.0000 0.0000 0.0000 0.0000 6.8791 0.0000
# 6 0.0000 0.0000 0.0000 0.0000 0.0000 26.1195
#
#
#
# Elastic Compliance Matrix: (Units=1/GPa)
#
#
# Indices 1 2 3 4 5 6 
#
# 1 0.016249 -0.001458 0.000407 0.000000 0.000000 0.000000
# 2 -0.001458 0.028926 -0.004621 0.000000 0.000000 0.000000
# 3 0.000407 -0.004621 0.015644 0.000000 0.000000 0.000000
# 4 0.000000 0.000000 0.000000 0.106699 0.000000 0.000000
# 5 0.000000 0.000000 0.000000 0.000000 0.145367 0.000000
# 6 0.000000 0.000000 0.000000 0.000000 0.000000 0.038286
#
#
# Mechanical properties :
#
#
# Convention : Reuss Voigt Hill
#
# Bulk Modulus (GPa) = 20.21260 21.25356 20.73308
# Shear Modulus (GPa) = 13.19234 18.63354 15.91294
#
# Velocity S-wave (km/s) = 2.65168 3.15143 2.91230
# Velocity P-wave (km/s) = 4.48870 4.95682 4.72855
#
# Compressibility (1/GPa) = 0.04947409
#
# Stress axis : x y z
#
# Youngs Moduli (GPa) = 61.54036 34.57042 63.92313
#
# Poissons Ratio (x) = 0.05042 -0.02601
# Poissons Ratio (y) = 0.08975 0.29541
# Poissons Ratio (z) = -0.02504 0.15976
#
# Static dielectric constant tensor:
#      x y z
#    x 1.687350 0.000000 0.000000 
#    y 0.000000 1.653290 0.000000 
#    z 0.000000 0.000000 1.687820 
# 
# From -- ./inp_files/41132.got.cif
#   From: 2010.05.17/outbox.cif.g08.bks.cpg/sg65_21_cif.got.tgz:41132.got - 2010.06.03 17:01:31.
