data_PCOD9485835
_publ_section_title
;
Structure prediction by ZEFSAII (Michael W. Deem and Ramdas Pophale) SiO2 
 PCOD9485835
Probable space group: C M M M
;
_chemical_formula_sum "Si O2"
_cell_formula_units_Z 72
_cell_length_a 27.453205
_cell_length_b 15.376533
_cell_length_c 7.472216
_cell_angle_alpha 90.000000
_cell_angle_beta 90.000000
_cell_angle_gamma 90.000000
_cell_volume 3154.284743
_symmetry_space_group_name_H-M "C M M M"
_symmetry_group_IT_number 65
_symmetry_cell_setting 'orthorhombic'
loop_
_space_group_symop_operation_xyz
x,y,z
-x,-y,z
x,-y,-z
-x,y,-z
-x,-y,-z
x,y,-z
-x,y,z
x,-y,z
1/2+x,1/2+y,z
1/2-x,1/2-y,z
1/2+x,1/2-y,-z
1/2-x,1/2+y,-z
1/2-x,1/2-y,-z
1/2+x,1/2+y,-z
1/2-x,1/2+y,z
1/2+x,1/2-y,z
loop_
_atom_site_type_symbol
_atom_site_label
_atom_site_fract_x
_atom_site_fract_y
_atom_site_fract_z
Si Si1 0.225819 0.662676 0.206072
Si Si2 0.173938 0.906932 0.715614
Si Si3 0.000000 0.899213 0.281439
Si Si4 0.590910 0.280245 0.280771
Si Si5 0.380081 0.903219 0.707607
O O1 0.250000 0.750000 0.287578
O O2 0.271339 0.598260 0.215734
O O3 0.176944 0.624407 0.288685
O O4 0.213622 0.681063 0.000000
O O5 0.175930 0.903263 0.500000
O O6 0.140841 0.827215 0.776407
O O7 0.151395 0.000000 0.764908
O O8 0.953061 0.842862 0.226781
O O9 0.000000 0.901783 0.500000
O O10 0.000000 0.000000 0.222464
O O11 0.590900 0.278290 0.500000
O O12 0.591246 0.180485 0.217506
O O13 0.394473 0.909348 0.500000
O O14 0.385714 0.000000 0.786753
#
# Coordination Sequence:
#
# PCOD9485835 Si02
#       5
#    16  16   8  16  16
#     4  11  22  34  49  72 102 136 173 211 253 296
#     4  10  19  31  50  74  99 132 170 206 250 302
#     4   9  16  28  49  77 106 133 161 201 258 310
#     4   9  17  30  48  72 103 132 164 208 250 296
#     4  10  20  34  52  73 100 138 176 207 249 302
#
# _framework density 22.826094000000001
#
# number of rings (size 3 to 8) (size 9 to 14) (size 15 to 20)
#    0.000    2.111    2.222    2.000    0.000    7.111 
#    0.000    0.556    0.000    3.333    0.000    3.111 
#    0.000    7.111    0.000    0.000    0.000    0.000 
#
# Total GULP energy -200996.546578 kJ/mol
# GULP energy per Si atom -5583.237405 kJ/mol
# Density = 2.277414 g / cm^3
# Si number density = 22.826094 Si / 1000 Ang^3
#
#
#
# Elastic Constant Matrix: (Units=GPa)
#
#
# Indices 1 2 3 4 5 6 
#
# 1 91.9682 63.3072 -5.2991 0.0000 0.0000 0.0000
# 2 63.3072 239.7173 11.5654 0.0000 0.0000 0.0000
# 3 -5.2991 11.5654 67.5892 0.0000 0.0000 0.0000
# 4 0.0000 0.0000 0.0000 -6.2027 0.0000 0.0000
# 5 0.0000 0.0000 0.0000 0.0000 507.0445 0.0000
# 6 0.0000 0.0000 0.0000 0.0000 0.0000 33.2884
#
#
#
# Elastic Compliance Matrix: (Units=1/GPa)
#
#
# Indices 1 2 3 4 5 6 
#
# 1 0.013476 -0.003640 0.001679 0.000000 0.000000 0.000000
# 2 -0.003640 0.005189 -0.001173 0.000000 0.000000 0.000000
# 3 0.001679 -0.001173 0.015128 0.000000 0.000000 0.000000
# 4 0.000000 0.000000 0.000000 -0.161221 0.000000 0.000000
# 5 0.000000 0.000000 0.000000 0.000000 0.001972 0.000000
# 6 0.000000 0.000000 0.000000 0.000000 0.000000 0.030040
#
#
# Mechanical properties :
#
#
# Convention : Reuss Voigt Hill
#
# Bulk Modulus (GPa) = 36.33056 59.82465 48.07760
# Shear Modulus (GPa) = -62.52084 128.80613 33.14265
#
# Velocity S-wave (km/s) = -5.23923 7.52010 3.81460
# Velocity P-wave (km/s) = 4.54407 10.08307 6.36473
#
# Compressibility (1/GPa) = 0.02752504
#
# Stress axis : x y z
#
# Youngs Moduli (GPa) = 74.20836 192.69950 66.10395
#
# Poissons Ratio (x) = 0.70139 -0.11101
# Poissons Ratio (y) = 0.27010 0.07756
# Poissons Ratio (z) = -0.12462 0.22610
#
# Static dielectric constant tensor:
#      x y z
#    x 1.805910 0.000000 0.000000 
#    y 0.000000 1.921340 0.000000 
#    z 0.000000 0.000000 1.861150 
# 
# From -- ./inp_files/7212.got.cif
#   From: 2010.05.17/outbox.cif.g08.bks.cpg/sg65_4_cif.got.tgz:7212.got - 2010.06.03 17:01:31.
