data_PCOD9485020
_publ_section_title
;
Structure prediction by ZEFSAII (Michael W. Deem and Ramdas Pophale) SiO2 
 PCOD9485020
Probable space group: C M M M
;
_chemical_formula_sum "Si O2"
_cell_formula_units_Z 104
_cell_length_a 9.117851
_cell_length_b 31.143622
_cell_length_c 23.341768
_cell_angle_alpha 90.000000
_cell_angle_beta 90.000000
_cell_angle_gamma 90.000000
_cell_volume 6628.196249
_symmetry_space_group_name_H-M "C M M M"
_symmetry_group_IT_number 65
_symmetry_cell_setting 'orthorhombic'
loop_
_space_group_symop_operation_xyz
x,y,z
-x,-y,z
x,-y,-z
-x,y,-z
-x,-y,-z
x,y,-z
-x,y,z
x,-y,z
1/2+x,1/2+y,z
1/2-x,1/2-y,z
1/2+x,1/2-y,-z
1/2-x,1/2+y,-z
1/2-x,1/2-y,-z
1/2+x,1/2+y,-z
1/2-x,1/2+y,z
1/2+x,1/2-y,z
loop_
_atom_site_type_symbol
_atom_site_label
_atom_site_fract_x
_atom_site_fract_y
_atom_site_fract_z
Si Si1 0.675994 0.049678 0.820493
Si Si2 0.821789 0.048783 0.500000
Si Si3 0.676538 0.882106 0.276927
Si Si4 0.178642 0.886565 0.400619
Si Si5 0.332843 0.292359 0.412108
Si Si6 0.171846 0.947969 0.062911
Si Si7 0.169723 0.206625 0.272581
O O1 0.500000 0.049594 0.825148
O O2 0.715597 0.080708 0.768185
O O3 0.742287 0.065717 0.880605
O O4 0.723159 0.000000 0.810920
O O5 0.780131 0.075683 0.443837
O O6 0.000000 0.047705 0.500000
O O7 0.768071 0.000000 0.500000
O O8 0.500000 0.879226 0.281703
O O9 0.747352 0.891549 0.338854
O O10 0.742715 0.836424 0.257105
O O11 0.223367 0.839992 0.426261
O O12 0.000000 0.885350 0.394244
O O13 0.500000 0.289421 0.431128
O O14 0.250000 0.250000 0.431797
O O15 0.330719 0.292005 0.342358
O O16 0.000000 0.937082 0.067938
O O17 0.181590 0.000000 0.062209
O O18 0.224767 0.933100 0.000000
O O19 0.250000 0.250000 0.252906
O O20 0.000000 0.204918 0.254432
#
# Coordination Sequence:
#
# PCOD9485020 Si02
#       7
#    16   8  16  16  16  16  16
#     4   9  18  30  42  60  89 124 158 189 223 264
#     4   9  18  34  54  69  81 105 147 195 235 273
#     4  10  19  30  45  66  93 122 151 186 227 269
#     4   9  18  32  48  66  86 109 142 185 230 272
#     4   8  14  24  40  62  86 108 129 158 200 254
#     4   8  14  25  41  61  85 114 149 188 227 265
#     4   9  16  27  44  66  91 118 148 181 220 267
#
# _framework density 15.690543
#
# number of rings (size 3 to 8) (size 9 to 14) (size 15 to 20)
#    0.000    3.154    0.000    2.308    0.000    5.846 
#    0.000    2.308    0.000    0.462    0.000    0.000 
#    0.000    0.615    0.000    2.000    0.000    3.077 
#
# Total GULP energy -289525.506420 kJ/mol
# GULP energy per Si atom -5567.798200 kJ/mol
# Density = 1.565483 g / cm^3
# Si number density = 15.690543 Si / 1000 Ang^3
#
#
#
# Elastic Constant Matrix: (Units=GPa)
#
#
# Indices 1 2 3 4 5 6 
#
# 1 41.2814 43.0608 37.5561 0.0000 0.0000 0.0000
# 2 43.0608 130.7028 68.2974 0.0000 0.0000 0.0000
# 3 37.5561 68.2974 97.9194 0.0000 0.0000 0.0000
# 4 0.0000 0.0000 0.0000 -7.4339 0.0000 0.0000
# 5 0.0000 0.0000 0.0000 0.0000 10.2709 0.0000
# 6 0.0000 0.0000 0.0000 0.0000 0.0000 21.0124
#
#
#
# Elastic Compliance Matrix: (Units=1/GPa)
#
#
# Indices 1 2 3 4 5 6 
#
# 1 0.042639 -0.008658 -0.010315 0.000000 0.000000 0.000000
# 2 -0.008658 0.013796 -0.006302 0.000000 0.000000 0.000000
# 3 -0.010315 -0.006302 0.018565 0.000000 0.000000 0.000000
# 4 0.000000 0.000000 0.000000 -0.134519 0.000000 0.000000
# 5 0.000000 0.000000 0.000000 0.000000 0.097362 0.000000
# 6 0.000000 0.000000 0.000000 0.000000 0.000000 0.047591
#
#
# Mechanical properties :
#
#
# Convention : Reuss Voigt Hill
#
# Bulk Modulus (GPa) = 40.90004 63.08134 51.99069
# Shear Modulus (GPa) = 34.68977 12.83583 23.76280
#
# Velocity S-wave (km/s) = 4.70709 2.86328 3.89584
# Velocity P-wave (km/s) = 7.46093 7.15694 7.31052
#
# Compressibility (1/GPa) = 0.02444986
#
# Stress axis : x y z
#
# Youngs Moduli (GPa) = 23.45259 72.48249 53.86595
#
# Poissons Ratio (x) = 0.62752 0.55565
# Poissons Ratio (y) = 0.20304 0.33948
# Poissons Ratio (z) = 0.24192 0.45681
#
# Static dielectric constant tensor:
#      x y z
#    x 1.527400 0.000000 0.000000 
#    y 0.000000 1.531440 0.000000 
#    z 0.000000 0.000000 1.522440 
# 
# From -- ./inp_files/68549.got.cif
#   From: 2010.05.17/outbox.cif.g08.bks.cpg/sg65_35_cif.got.tgz:68549.got - 2010.06.03 17:01:31.
