data_PCOD9485892
_publ_section_title
;
Structure prediction by ZEFSAII (Michael W. Deem and Ramdas Pophale) SiO2 
 PCOD9485892
Probable space group: C M M M
;
_chemical_formula_sum "Si O2"
_cell_formula_units_Z 88
_cell_length_a 16.908479
_cell_length_b 31.701207
_cell_length_c 7.563601
_cell_angle_alpha 90.000000
_cell_angle_beta 90.000000
_cell_angle_gamma 90.000000
_cell_volume 4054.235303
_symmetry_space_group_name_H-M "C M M M"
_symmetry_group_IT_number 65
_symmetry_cell_setting 'orthorhombic'
loop_
_space_group_symop_operation_xyz
x,y,z
-x,-y,z
x,-y,-z
-x,y,-z
-x,-y,-z
x,y,-z
-x,y,z
x,-y,z
1/2+x,1/2+y,z
1/2-x,1/2-y,z
1/2+x,1/2-y,-z
1/2-x,1/2+y,-z
1/2-x,1/2-y,-z
1/2+x,1/2+y,-z
1/2-x,1/2+y,z
1/2+x,1/2-y,z
loop_
_atom_site_type_symbol
_atom_site_label
_atom_site_fract_x
_atom_site_fract_y
_atom_site_fract_z
Si Si1 0.680345 0.626017 0.794646
Si Si2 0.592304 0.454629 0.215603
Si Si3 0.142566 0.391022 0.299210
Si Si4 0.500000 0.950450 0.283485
Si Si5 0.094210 0.299875 0.199984
Si Si6 0.092541 0.208441 0.216414
O O1 0.635474 0.586252 0.713929
O O2 0.772394 0.614944 0.787855
O O3 0.649785 0.670793 0.722799
O O4 0.656628 0.628114 0.000000
O O5 0.500000 0.452631 0.259108
O O6 0.624473 0.500000 0.274890
O O7 0.597655 0.454473 0.000000
O O8 0.157369 0.404465 0.500000
O O9 0.108479 0.343583 0.296861
O O10 0.077692 0.423852 0.224839
O O11 0.500000 0.949050 0.500000
O O12 0.500000 0.000000 0.232439
O O13 0.120829 0.254899 0.276363
O O14 0.000000 0.294719 0.187221
O O15 0.126783 0.304945 0.000000
O O16 0.000000 0.200697 0.265793
O O17 0.093365 0.211039 0.000000
#
# Coordination Sequence:
#
# PCOD9485892 Si02
#       6
#    16  16  16   8  16  16
#     4  10  19  31  50  77 108 137 169 210 252 298
#     4   8  14  26  47  75 104 134 167 205 250 297
#     4  11  22  36  54  75 100 131 168 210 259 313
#     4   9  20  40  61  75  91 127 177 219 258 315
#     4   9  17  32  55  77  99 129 170 215 254 298
#     4   8  15  29  51  78 104 137 177 210 242 291
#
# _framework density 21.705697000000001
#
# number of rings (size 3 to 8) (size 9 to 14) (size 15 to 20)
#    0.000    2.818    0.909    2.727    0.000    3.636 
#    0.000    4.545    0.000    7.091    0.000    1.273 
#    0.000    0.000    0.000    0.000    0.000    0.000 
#
# Total GULP energy -245228.082583 kJ/mol
# GULP energy per Si atom -5573.365513 kJ/mol
# Density = 2.165629 g / cm^3
# Si number density = 21.705697 Si / 1000 Ang^3
#
#
#
# Elastic Constant Matrix: (Units=GPa)
#
#
# Indices 1 2 3 4 5 6 
#
# 1 61.9183 75.7044 -7.5993 0.0000 0.0000 0.0000
# 2 75.7044 210.2131 2.9366 0.0000 0.0000 0.0000
# 3 -7.5993 2.9366 46.3387 0.0000 0.0000 0.0000
# 4 0.0000 0.0000 0.0000 28.1644 0.0000 0.0000
# 5 0.0000 0.0000 0.0000 0.0000 87.8206 0.0000
# 6 0.0000 0.0000 0.0000 0.0000 0.0000 11.9946
#
#
#
# Elastic Compliance Matrix: (Units=1/GPa)
#
#
# Indices 1 2 3 4 5 6 
#
# 1 0.030270 -0.010980 0.005660 0.000000 0.000000 0.000000
# 2 -0.010980 0.008744 -0.002355 0.000000 0.000000 0.000000
# 3 0.005660 -0.002355 0.022658 0.000000 0.000000 0.000000
# 4 0.000000 0.000000 0.000000 0.035506 0.000000 0.000000
# 5 0.000000 0.000000 0.000000 0.000000 0.011387 0.000000
# 6 0.000000 0.000000 0.000000 0.000000 0.000000 0.083371
#
#
# Mechanical properties :
#
#
# Convention : Reuss Voigt Hill
#
# Bulk Modulus (GPa) = 21.58815 51.17260 36.38038
# Shear Modulus (GPa) = 22.44909 42.09115 32.27012
#
# Velocity S-wave (km/s) = 3.21946 4.40838 3.85997
# Velocity P-wave (km/s) = 4.87723 7.03837 6.05500
#
# Compressibility (1/GPa) = 0.04632170
#
# Stress axis : x y z
#
# Youngs Moduli (GPa) = 33.03603 114.36006 44.13519
#
# Poissons Ratio (x) = 1.25570 -0.24980
# Poissons Ratio (y) = 0.36274 0.10393
# Poissons Ratio (z) = -0.18698 0.26930
#
# Static dielectric constant tensor:
#      x y z
#    x 1.774760 0.000000 0.000000 
#    y 0.000000 1.825770 0.000000 
#    z 0.000000 0.000000 1.860540 
# 
# From -- ./inp_files/10129.got.cif
#   From: 2010.05.17/outbox.cif.g08.bks.cpg/sg65_6_cif.got.tgz:10129.got - 2010.06.03 17:01:31.
