data_PCOD9485829
_publ_section_title
;
Structure prediction by ZEFSAII (Michael W. Deem and Ramdas Pophale) SiO2 
 PCOD9485829
Probable space group: C M M M
;
_chemical_formula_sum "Si O2"
_cell_formula_units_Z 72
_cell_length_a 7.740970
_cell_length_b 18.845067
_cell_length_c 24.851862
_cell_angle_alpha 90.000000
_cell_angle_beta 90.000000
_cell_angle_gamma 90.000000
_cell_volume 3625.367220
_symmetry_space_group_name_H-M "C M M M"
_symmetry_group_IT_number 65
_symmetry_cell_setting 'orthorhombic'
loop_
_space_group_symop_operation_xyz
x,y,z
-x,-y,z
x,-y,-z
-x,y,-z
-x,-y,-z
x,y,-z
-x,y,z
x,-y,z
1/2+x,1/2+y,z
1/2-x,1/2-y,z
1/2+x,1/2-y,-z
1/2-x,1/2+y,-z
1/2-x,1/2-y,-z
1/2+x,1/2+y,-z
1/2-x,1/2+y,z
1/2+x,1/2-y,z
loop_
_atom_site_type_symbol
_atom_site_label
_atom_site_fract_x
_atom_site_fract_y
_atom_site_fract_z
Si Si1 0.206100 0.079851 0.780573
Si Si2 0.791984 0.665981 0.557798
Si Si3 0.292523 0.666208 0.000000
Si Si4 0.291472 0.333334 0.117098
Si Si5 0.705953 0.166751 0.325206
O O1 0.275624 0.122905 0.832025
O O2 0.233006 0.122282 0.725518
O O3 0.000000 0.075111 0.788223
O O4 0.275853 0.000000 0.777369
O O5 0.727503 0.637250 0.500000
O O6 0.750000 0.750000 0.557671
O O7 0.727100 0.640694 0.616127
O O8 0.000000 0.658064 0.557619
O O9 0.250000 0.750000 0.000000
O O10 0.228311 0.640328 0.058258
O O11 0.500000 0.657499 0.000000
O O12 0.500000 0.338567 0.116453
O O13 0.250000 0.250000 0.122956
O O14 0.500000 0.161538 0.326623
O O15 0.750000 0.250000 0.318930
#
# Coordination Sequence:
#
# PCOD9485829 Si02
#       5
#    16  16   8  16  16
#     4  10  21  35  48  65  94 129 162 198 239 278
#     4   8  14  25  42  66  94 119 145 183 230 276
#     4   8  14  26  45  69  93 115 145 186 229 274
#     4   9  17  30  49  71  93 119 152 190 232 277
#     4  10  19  31  50  74  97 123 157 194 233 280
#
# _framework density 19.860057000000001
#
# number of rings (size 3 to 8) (size 9 to 14) (size 15 to 20)
#    0.000    2.889    0.000    1.333    0.000    4.000 
#    0.000    0.556    0.000    4.000    0.000    4.667 
#    0.000   10.667    0.000    0.000    0.000    0.000 
#
# Total GULP energy -200469.443564 kJ/mol
# GULP energy per Si atom -5568.595655 kJ/mol
# Density = 1.981485 g / cm^3
# Si number density = 19.860057 Si / 1000 Ang^3
#
#
#
# Elastic Constant Matrix: (Units=GPa)
#
#
# Indices 1 2 3 4 5 6 
#
# 1 33.1615 1.3523 6.6012 0.0000 0.0000 0.0000
# 2 1.3523 71.1003 89.1971 0.0000 0.0000 0.0000
# 3 6.6012 89.1971 265.4807 0.0000 0.0000 0.0000
# 4 0.0000 0.0000 0.0000 -5.9698 0.0000 0.0000
# 5 0.0000 0.0000 0.0000 0.0000 17.3277 0.0000
# 6 0.0000 0.0000 0.0000 0.0000 0.0000 11.5330
#
#
#
# Elastic Compliance Matrix: (Units=1/GPa)
#
#
# Indices 1 2 3 4 5 6 
#
# 1 0.030322 0.000638 -0.000968 0.000000 0.000000 0.000000
# 2 0.000638 0.024326 -0.008189 0.000000 0.000000 0.000000
# 3 -0.000968 -0.008189 0.006542 0.000000 0.000000 0.000000
# 4 0.000000 0.000000 0.000000 -0.167509 0.000000 0.000000
# 5 0.000000 0.000000 0.000000 0.000000 0.057711 0.000000
# 6 0.000000 0.000000 0.000000 0.000000 0.000000 0.086708
#
#
# Mechanical properties :
#
#
# Convention : Reuss Voigt Hill
#
# Bulk Modulus (GPa) = 22.64918 62.67153 42.66036
# Shear Modulus (GPa) = 71.57661 22.75096 47.16379
#
# Velocity S-wave (km/s) = 6.00989 3.38829 4.87849
# Velocity P-wave (km/s) = 7.71929 6.85072 7.29794
#
# Compressibility (1/GPa) = 0.04415171
#
# Stress axis : x y z
#
# Youngs Moduli (GPa) = 32.97917 41.10886 152.85478
#
# Poissons Ratio (x) = -0.02623 0.14802
# Poissons Ratio (y) = -0.02104 1.25171
# Poissons Ratio (z) = 0.03194 0.33664
#
# Static dielectric constant tensor:
#      x y z
#    x 1.738770 0.000000 0.000000 
#    y 0.000000 1.639070 0.000000 
#    z 0.000000 0.000000 1.785790 
# 
# From -- ./inp_files/67122.got.cif
#   From: 2010.05.17/outbox.cif.g08.bks.cpg/sg65_34_cif.got.tgz:67122.got - 2010.06.03 17:01:31.
