data_PCOD9485110
_publ_section_title
;
Structure prediction by ZEFSAII (Michael W. Deem and Ramdas Pophale) SiO2 
 PCOD9485110
Probable space group: C M M M
;
_chemical_formula_sum "Si O2"
_cell_formula_units_Z 116
_cell_length_a 7.922836
_cell_length_b 29.747137
_cell_length_c 28.248734
_cell_angle_alpha 90.000000
_cell_angle_beta 90.000000
_cell_angle_gamma 90.000000
_cell_volume 6657.709311
_symmetry_space_group_name_H-M "C M M M"
_symmetry_group_IT_number 65
_symmetry_cell_setting 'orthorhombic'
loop_
_space_group_symop_operation_xyz
x,y,z
-x,-y,z
x,-y,-z
-x,y,-z
-x,-y,-z
x,y,-z
-x,y,z
x,-y,z
1/2+x,1/2+y,z
1/2-x,1/2-y,z
1/2+x,1/2-y,-z
1/2-x,1/2+y,-z
1/2-x,1/2-y,-z
1/2+x,1/2+y,-z
1/2-x,1/2+y,z
1/2+x,1/2-y,z
loop_
_atom_site_type_symbol
_atom_site_label
_atom_site_fract_x
_atom_site_fract_y
_atom_site_fract_z
Si Si1 0.202917 0.799239 0.908875
Si Si2 0.703930 0.393857 0.052058
Si Si3 0.300499 0.894016 0.236097
Si Si4 0.000000 0.921847 0.500000
Si Si5 0.796937 0.448848 0.855174
Si Si6 0.201291 0.200589 0.799922
Si Si7 0.308459 0.054186 0.568916
Si Si8 0.301812 0.449116 0.673556
O O1 0.250000 0.750000 0.927556
O O2 0.262731 0.842866 0.937107
O O3 0.265655 0.802730 0.854411
O O4 0.000000 0.801070 0.907681
O O5 0.500000 0.393078 0.051337
O O6 0.754731 0.425425 0.095288
O O7 0.763054 0.408336 0.000000
O O8 0.500000 0.901637 0.238082
O O9 0.232889 0.919250 0.189001
O O10 0.267977 0.841266 0.229589
O O11 0.226379 0.915609 0.283255
O O12 0.847926 0.924684 0.540745
O O13 0.733625 0.500000 0.852899
O O14 0.000000 0.450100 0.851705
O O15 0.250000 0.250000 0.782111
O O16 0.000000 0.197376 0.801396
O O17 0.500000 0.066602 0.554358
O O18 0.290711 0.063072 0.624953
O O19 0.291312 0.000000 0.562219
O O20 0.500000 0.450498 0.662462
O O21 0.248670 0.500000 0.687601
#
# Coordination Sequence:
#
# PCOD9485110 Si02
#       8
#    16  16  16   4  16  16  16  16
#     4   9  18  32  51  74 100 125 154 194 242 302
#     4  10  21  37  54  73  98 126 159 203 254 309
#     4  11  21  34  54  77 102 134 172 212 264 318
#     4  12  19  30  48  70 102 144 196 242 278 328
#     4  10  22  38  54  73  97 126 166 213 256 306
#     4  10  19  33  53  77 103 130 164 203 250 310
#     4  10  19  30  46  69 100 141 190 240 283 322
#     4  10  20  34  50  72 105 143 185 231 275 320
#
# _framework density 17.423411999999999
#
# number of rings (size 3 to 8) (size 9 to 14) (size 15 to 20)
#    0.000    1.931    2.069    2.483    0.000    4.690 
#    0.000    1.379    0.000    0.000    0.000    0.000 
#    0.000    0.000    0.000    0.621    3.586    1.172 
#
# Total GULP energy -323168.048620 kJ/mol
# GULP energy per Si atom -5571.862907 kJ/mol
# Density = 1.738376 g / cm^3
# Si number density = 17.423412 Si / 1000 Ang^3
#
#
#
# Elastic Constant Matrix: (Units=GPa)
#
#
# Indices 1 2 3 4 5 6 
#
# 1 65.4230 9.1195 22.8643 0.0000 0.0000 0.0000
# 2 9.1195 84.5237 47.1321 0.0000 0.0000 0.0000
# 3 22.8643 47.1321 109.1897 0.0000 0.0000 0.0000
# 4 0.0000 0.0000 0.0000 13.2837 0.0000 0.0000
# 5 0.0000 0.0000 0.0000 0.0000 18.8319 0.0000
# 6 0.0000 0.0000 0.0000 0.0000 0.0000 19.6483
#
#
#
# Elastic Compliance Matrix: (Units=1/GPa)
#
#
# Indices 1 2 3 4 5 6 
#
# 1 0.016494 0.000193 -0.003537 0.000000 0.000000 0.000000
# 2 0.000193 0.015584 -0.006767 0.000000 0.000000 0.000000
# 3 -0.003537 -0.006767 0.012820 0.000000 0.000000 0.000000
# 4 0.000000 0.000000 0.000000 0.075280 0.000000 0.000000
# 5 0.000000 0.000000 0.000000 0.000000 0.053101 0.000000
# 6 0.000000 0.000000 0.000000 0.000000 0.000000 0.050895
#
#
# Mechanical properties :
#
#
# Convention : Reuss Voigt Hill
#
# Bulk Modulus (GPa) = 40.52647 46.37424 43.45035
# Shear Modulus (GPa) = 19.79234 22.35415 21.07324
#
# Velocity S-wave (km/s) = 3.37406 3.58578 3.48153
# Velocity P-wave (km/s) = 6.20398 6.61948 6.41509
#
# Compressibility (1/GPa) = 0.02467523
#
# Stress axis : x y z
#
# Youngs Moduli (GPa) = 60.62647 64.16973 78.00253
#
# Poissons Ratio (x) = -0.01237 0.27591
# Poissons Ratio (y) = -0.01169 0.52785
# Poissons Ratio (z) = 0.21444 0.43424
#
# Static dielectric constant tensor:
#      x y z
#    x 1.627150 0.000000 0.000000 
#    y 0.000000 1.577630 0.000000 
#    z 0.000000 0.000000 1.595820 
# 
# From -- ./inp_files/73688.got.cif
#   From: 2010.05.17/outbox.cif.g08.bks.cpg/sg65_37_cif.got.tgz:73688.got - 2010.06.03 17:01:31.
