data_PCOD9485862
_publ_section_title
;
Structure prediction by ZEFSAII (Michael W. Deem and Ramdas Pophale) SiO2 
 PCOD9485862
Probable space group: C M M M
;
_chemical_formula_sum "Si O2"
_cell_formula_units_Z 88
_cell_length_a 8.753880
_cell_length_b 18.313694
_cell_length_c 29.424854
_cell_angle_alpha 90.000000
_cell_angle_beta 90.000000
_cell_angle_gamma 90.000000
_cell_volume 4717.271352
_symmetry_space_group_name_H-M "C M M M"
_symmetry_group_IT_number 65
_symmetry_cell_setting 'orthorhombic'
loop_
_space_group_symop_operation_xyz
x,y,z
-x,-y,z
x,-y,-z
-x,y,-z
-x,-y,-z
x,y,-z
-x,y,z
x,-y,z
1/2+x,1/2+y,z
1/2-x,1/2-y,z
1/2+x,1/2-y,-z
1/2-x,1/2+y,-z
1/2-x,1/2-y,-z
1/2+x,1/2+y,-z
1/2-x,1/2+y,z
1/2+x,1/2-y,z
loop_
_atom_site_type_symbol
_atom_site_label
_atom_site_fract_x
_atom_site_fract_y
_atom_site_fract_z
Si Si1 0.181926 0.168802 0.500000
Si Si2 0.184268 0.084714 0.234757
Si Si3 0.816975 0.668958 0.321015
Si Si4 0.183190 0.168166 0.142668
Si Si5 0.184175 0.414630 0.413464
Si Si6 0.183126 0.667629 0.950353
O O1 0.250000 0.250000 0.500000
O O2 0.239684 0.126200 0.455552
O O3 0.000000 0.172840 0.500000
O O4 0.256323 0.128525 0.276350
O O5 0.226089 0.121357 0.186727
O O6 0.000000 0.088449 0.238526
O O7 0.229970 0.000000 0.236170
O O8 0.750000 0.750000 0.323497
O O9 0.773234 0.623756 0.366096
O O10 0.000000 0.672756 0.319225
O O11 0.250000 0.250000 0.147652
O O12 0.246844 0.135062 0.095520
O O13 0.000000 0.172877 0.139815
O O14 0.225431 0.500000 0.412882
O O15 0.000000 0.409649 0.418291
O O16 0.250000 0.750000 0.951353
O O17 0.000000 0.671099 0.946331
O O18 0.220238 0.634484 0.000000
#
# Coordination Sequence:
#
# PCOD9485862 Si02
#       6
#     8  16  16  16  16  16
#     4  12  25  40  61  89 119 155 199 240 281 330
#     4  10  22  39  57  79 109 144 182 227 277 327
#     4  11  23  39  61  88 115 147 187 228 275 330
#     4  10  19  31  50  75 103 136 174 217 266 321
#     4  10  22  41  63  88 120 154 188 231 282 333
#     4   9  16  26  43  69 100 132 168 213 264 316
#
# _framework density 18.654852000000002
#
# number of rings (size 3 to 8) (size 9 to 14) (size 15 to 20)
#    0.000    1.818    0.000    5.455    0.000    9.455 
#    0.000    0.000    0.000    0.545    0.000    3.818 
#    0.000    0.000    0.000    0.000    0.000    0.000 
#
# Total GULP energy -245752.876784 kJ/mol
# GULP energy per Si atom -5585.292654 kJ/mol
# Density = 1.861239 g / cm^3
# Si number density = 18.654852 Si / 1000 Ang^3
#
#
#
# Elastic Constant Matrix: (Units=GPa)
#
#
# Indices 1 2 3 4 5 6 
#
# 1 53.8345 50.2183 72.9265 0.0000 0.0000 0.0000
# 2 50.2183 143.9562 107.0304 0.0000 0.0000 0.0000
# 3 72.9265 107.0304 230.1412 0.0000 0.0000 0.0000
# 4 0.0000 0.0000 0.0000 -499.8483 0.0000 0.0000
# 5 0.0000 0.0000 0.0000 0.0000 6.0807 0.0000
# 6 0.0000 0.0000 0.0000 0.0000 0.0000 18.1720
#
#
#
# Elastic Compliance Matrix: (Units=1/GPa)
#
#
# Indices 1 2 3 4 5 6 
#
# 1 0.035837 -0.006204 -0.008471 0.000000 0.000000 0.000000
# 2 -0.006204 0.011692 -0.003472 0.000000 0.000000 0.000000
# 3 -0.008471 -0.003472 0.008644 0.000000 0.000000 0.000000
# 4 0.000000 0.000000 0.000000 -0.002001 0.000000 0.000000
# 5 0.000000 0.000000 0.000000 0.000000 0.164455 0.000000
# 6 0.000000 0.000000 0.000000 0.000000 0.000000 0.055030
#
#
# Mechanical properties :
#
#
# Convention : Reuss Voigt Hill
#
# Bulk Modulus (GPa) = 50.29993 98.69804 74.49898
# Shear Modulus (GPa) = 15.79398 -81.93532 -33.07067
#
# Velocity S-wave (km/s) = 2.91287 -6.63454 -4.21499
# Velocity P-wave (km/s) = 6.19153 2.38057 4.04153
#
# Compressibility (1/GPa) = 0.01988075
#
# Stress axis : x y z
#
# Youngs Moduli (GPa) = 27.90375 85.53008 115.68750
#
# Poissons Ratio (x) = 0.53059 0.97999
# Poissons Ratio (y) = 0.17310 0.40163
# Poissons Ratio (z) = 0.23637 0.29693
#
# Static dielectric constant tensor:
#      x y z
#    x 1.629560 0.000000 0.000000 
#    y 0.000000 1.611120 0.000000 
#    z 0.000000 0.000000 1.653030 
# 
# From -- ./inp_files/76610.got.cif
#   From: 2010.05.17/outbox.cif.g08.bks.cpg/sg65_39_cif.got.tgz:76610.got - 2010.06.03 17:01:31.
