data_PCOD9485699
_publ_section_title
;
Structure prediction by ZEFSAII (Michael W. Deem and Ramdas Pophale) SiO2 
 PCOD9485699
Probable space group: C M M M
;
_chemical_formula_sum "Si O2"
_cell_formula_units_Z 72
_cell_length_a 28.722904
_cell_length_b 16.868210
_cell_length_c 9.020448
_cell_angle_alpha 90.000000
_cell_angle_beta 90.000000
_cell_angle_gamma 90.000000
_cell_volume 4370.442926
_symmetry_space_group_name_H-M "C M M M"
_symmetry_group_IT_number 65
_symmetry_cell_setting 'orthorhombic'
loop_
_space_group_symop_operation_xyz
x,y,z
-x,-y,z
x,-y,-z
-x,y,-z
-x,-y,-z
x,y,-z
-x,y,z
x,-y,z
1/2+x,1/2+y,z
1/2-x,1/2-y,z
1/2+x,1/2-y,-z
1/2-x,1/2+y,-z
1/2-x,1/2-y,-z
1/2+x,1/2+y,-z
1/2-x,1/2+y,z
1/2+x,1/2-y,z
loop_
_atom_site_type_symbol
_atom_site_label
_atom_site_fract_x
_atom_site_fract_y
_atom_site_fract_z
Si Si1 0.054422 0.325567 0.320464
Si Si2 0.780018 0.668538 0.668787
Si Si3 0.361829 0.743957 0.177223
Si Si4 0.696153 0.588926 0.177473
Si Si5 0.556553 0.000000 0.670307
O O1 0.058055 0.325113 0.500000
O O2 0.088717 0.262072 0.250146
O O3 0.069021 0.414202 0.265613
O O4 0.000000 0.313363 0.284189
O O5 0.791883 0.646870 0.500000
O O6 0.750000 0.750000 0.665446
O O7 0.825585 0.690548 0.761570
O O8 0.745295 0.606514 0.744195
O O9 0.340076 0.658276 0.219204
O O10 0.364482 0.747934 0.000000
O O11 0.680086 0.500000 0.212482
O O12 0.702889 0.595076 0.000000
O O13 0.500000 0.000000 0.665071
O O14 0.573229 0.000000 0.500000
#
# Coordination Sequence:
#
# PCOD9485699 Si02
#       5
#    16  16  16  16   8
#     4   9  17  31  51  72  95 125 161 200 240 282
#     4   9  17  30  48  69  93 121 155 194 235 282
#     4  10  19  31  49  72  98 128 160 196 241 288
#     4   9  18  33  51  70  95 127 162 200 241 284
#     4   7  12  26  47  67  87 115 151 189 229 273
#
# _framework density 16.474302000000002
#
# number of rings (size 3 to 8) (size 9 to 14) (size 15 to 20)
#    0.000    3.000    0.000    2.667    0.000    4.444 
#    2.000    0.556    0.000    2.667    0.000    4.667 
#    0.000    0.000    0.000    0.000    0.000    0.000 
#
# Total GULP energy -200431.552699 kJ/mol
# GULP energy per Si atom -5567.543131 kJ/mol
# Density = 1.643681 g / cm^3
# Si number density = 16.474302 Si / 1000 Ang^3
#
#
#
# Elastic Constant Matrix: (Units=GPa)
#
#
# Indices 1 2 3 4 5 6 
#
# 1 94.2983 54.5661 40.6208 0.0000 0.0000 0.0000
# 2 54.5661 99.7791 35.1288 0.0000 0.0000 0.0000
# 3 40.6208 35.1288 37.5310 0.0000 0.0000 0.0000
# 4 0.0000 0.0000 0.0000 16.2415 0.0000 0.0000
# 5 0.0000 0.0000 0.0000 0.0000 22.8839 0.0000
# 6 0.0000 0.0000 0.0000 0.0000 0.0000 21.4704
#
#
#
# Elastic Compliance Matrix: (Units=1/GPa)
#
#
# Indices 1 2 3 4 5 6 
#
# 1 0.021626 -0.005348 -0.018400 0.000000 0.000000 0.000000
# 2 -0.005348 0.016271 -0.009441 0.000000 0.000000 0.000000
# 3 -0.018400 -0.009441 0.055396 0.000000 0.000000 0.000000
# 4 0.000000 0.000000 0.000000 0.061571 0.000000 0.000000
# 5 0.000000 0.000000 0.000000 0.000000 0.043699 0.000000
# 6 0.000000 0.000000 0.000000 0.000000 0.000000 0.046576
#
#
# Mechanical properties :
#
#
# Convention : Reuss Voigt Hill
#
# Bulk Modulus (GPa) = 37.15508 54.69330 45.92419
# Shear Modulus (GPa) = 15.60129 18.87201 17.23665
#
# Velocity S-wave (km/s) = 3.08069 3.38826 3.23813
# Velocity P-wave (km/s) = 5.93772 6.96981 6.47436
#
# Compressibility (1/GPa) = 0.02691422
#
# Stress axis : x y z
#
# Youngs Moduli (GPa) = 46.24146 61.46012 18.05197
#
# Poissons Ratio (x) = 0.32871 0.33215
# Poissons Ratio (y) = 0.24732 0.17042
# Poissons Ratio (z) = 0.85084 0.58022
#
# Static dielectric constant tensor:
#      x y z
#    x 1.539800 0.000000 0.000000 
#    y 0.000000 1.576770 0.000000 
#    z 0.000000 0.000000 1.556600 
# 
# From -- ./inp_files/7641.got.cif
#   From: 2010.05.17/outbox.cif.g08.bks.cpg/sg65_4_cif.got.tgz:7641.got - 2010.06.03 17:01:31.
