data_PCOD9485999
_publ_section_title
;
Structure prediction by ZEFSAII (Michael W. Deem and Ramdas Pophale) SiO2 
 PCOD9485999
Probable space group: C M M M
;
_chemical_formula_sum "Si O2"
_cell_formula_units_Z 104
_cell_length_a 14.741580
_cell_length_b 23.524570
_cell_length_c 15.073262
_cell_angle_alpha 90.000000
_cell_angle_beta 90.000000
_cell_angle_gamma 90.000000
_cell_volume 5227.246439
_symmetry_space_group_name_H-M "C M M M"
_symmetry_group_IT_number 65
_symmetry_cell_setting 'orthorhombic'
loop_
_space_group_symop_operation_xyz
x,y,z
-x,-y,z
x,-y,-z
-x,y,-z
-x,-y,-z
x,y,-z
-x,y,z
x,-y,z
1/2+x,1/2+y,z
1/2-x,1/2-y,z
1/2+x,1/2-y,-z
1/2-x,1/2+y,-z
1/2-x,1/2-y,-z
1/2+x,1/2+y,-z
1/2-x,1/2+y,z
1/2+x,1/2-y,z
loop_
_atom_site_type_symbol
_atom_site_label
_atom_site_fract_x
_atom_site_fract_y
_atom_site_fract_z
Si Si1 0.642523 0.239853 0.098327
Si Si2 0.609726 0.735021 0.397665
Si Si3 0.712899 0.934433 0.674337
Si Si4 0.891332 0.116552 0.297571
Si Si5 0.399285 0.931660 0.500000
Si Si6 0.396872 0.628771 0.904203
Si Si7 0.604999 0.834594 0.267525
O O1 0.750000 0.250000 0.108573
O O2 0.601414 0.302822 0.100830
O O3 0.607720 0.201502 0.177309
O O4 0.625704 0.215678 0.000000
O O5 0.641576 0.731303 0.500000
O O6 0.500000 0.738255 0.400654
O O7 0.628753 0.678855 0.338895
O O8 0.639245 0.791228 0.344450
O O9 0.819559 0.925311 0.657532
O O10 0.657216 0.918006 0.586491
O O11 0.670109 0.888707 0.741288
O O12 0.695390 0.000000 0.697182
O O13 0.865501 0.111297 0.193312
O O14 0.000000 0.106576 0.307590
O O15 0.500000 0.906124 0.500000
O O16 0.407892 0.000000 0.500000
O O17 0.500000 0.607662 0.908726
O O18 0.352267 0.614235 0.000000
O O19 0.500000 0.850863 0.285663
#
# Coordination Sequence:
#
# PCOD9485999 Si02
#       7
#    16  16  16  16   8  16  16
#     4  10  19  31  51  82 119 153 186 233 293 357
#     4   9  19  34  54  86 123 155 184 220 287 366
#     4  11  25  41  59  84 112 153 207 253 295 343
#     4  10  20  37  60  86 123 160 192 239 298 366
#     4   9  20  42  65  82 105 141 198 262 298 323
#     4   9  16  29  52  81 113 149 189 235 288 346
#     4  11  22  36  59  86 116 154 196 243 293 353
#
# _framework density 19.895752000000002
#
# number of rings (size 3 to 8) (size 9 to 14) (size 15 to 20)
#    0.000    2.077    1.538    1.846    2.154    2.154 
#    0.000    0.769    0.000    3.231    0.000    3.231 
#    0.000    0.000    0.000    0.000    0.000    0.000 
#
# Total GULP energy -289891.439836 kJ/mol
# GULP energy per Si atom -5574.835381 kJ/mol
# Density = 1.985047 g / cm^3
# Si number density = 19.895752 Si / 1000 Ang^3
#
#
#
# Elastic Constant Matrix: (Units=GPa)
#
#
# Indices 1 2 3 4 5 6 
#
# 1 94.2435 7.1279 27.9476 0.0000 0.0000 0.0000
# 2 7.1279 26.6420 3.5389 0.0000 0.0000 0.0000
# 3 27.9476 3.5389 94.5969 0.0000 0.0000 0.0000
# 4 0.0000 0.0000 0.0000 3.0895 0.0000 0.0000
# 5 0.0000 0.0000 0.0000 0.0000 94.2535 0.0000
# 6 0.0000 0.0000 0.0000 0.0000 0.0000 22.7684
#
#
#
# Elastic Compliance Matrix: (Units=1/GPa)
#
#
# Indices 1 2 3 4 5 6 
#
# 1 0.011822 -0.002712 -0.003391 0.000000 0.000000 0.000000
# 2 -0.002712 0.038344 -0.000633 0.000000 0.000000 0.000000
# 3 -0.003391 -0.000633 0.011597 0.000000 0.000000 0.000000
# 4 0.000000 0.000000 0.000000 0.323679 0.000000 0.000000
# 5 0.000000 0.000000 0.000000 0.000000 0.010610 0.000000
# 6 0.000000 0.000000 0.000000 0.000000 0.000000 0.043921
#
#
# Mechanical properties :
#
#
# Convention : Reuss Voigt Hill
#
# Bulk Modulus (GPa) = 20.70839 32.52348 26.61593
# Shear Modulus (GPa) = 10.64868 35.81348 23.23108
#
# Velocity S-wave (km/s) = 2.31600 4.24731 3.42078
# Velocity P-wave (km/s) = 4.19319 6.35887 5.38601
#
# Compressibility (1/GPa) = 0.04828961
#
# Stress axis : x y z
#
# Youngs Moduli (GPa) = 84.59119 26.07937 86.23128
#
# Poissons Ratio (x) = 0.07074 0.29242
# Poissons Ratio (y) = 0.22944 0.05460
# Poissons Ratio (z) = 0.28686 0.01651
#
# Static dielectric constant tensor:
#      x y z
#    x 1.738630 0.000000 0.000000 
#    y 0.000000 1.689800 0.000000 
#    z 0.000000 0.000000 1.780080 
# 
# From -- ./inp_files/40869.got.cif
#   From: 2010.05.17/outbox.cif.g08.bks.cpg/sg65_21_cif.got.tgz:40869.got - 2010.06.03 17:01:31.
