data_PCOD9485084
_publ_section_title
;
Structure prediction by ZEFSAII (Michael W. Deem and Ramdas Pophale) SiO2 
 PCOD9485084
Probable space group: C M M M
;
_chemical_formula_sum "Si O2"
_cell_formula_units_Z 112
_cell_length_a 29.357027
_cell_length_b 14.227497
_cell_length_c 13.076116
_cell_angle_alpha 90.000000
_cell_angle_beta 90.000000
_cell_angle_gamma 90.000000
_cell_volume 5461.593080
_symmetry_space_group_name_H-M "C M M M"
_symmetry_group_IT_number 65
_symmetry_cell_setting 'orthorhombic'
loop_
_space_group_symop_operation_xyz
x,y,z
-x,-y,z
x,-y,-z
-x,y,-z
-x,-y,-z
x,y,-z
-x,y,z
x,-y,z
1/2+x,1/2+y,z
1/2-x,1/2-y,z
1/2+x,1/2-y,-z
1/2-x,1/2+y,-z
1/2-x,1/2-y,-z
1/2+x,1/2+y,-z
1/2-x,1/2+y,z
1/2+x,1/2-y,z
loop_
_atom_site_type_symbol
_atom_site_label
_atom_site_fract_x
_atom_site_fract_y
_atom_site_fract_z
Si Si1 0.375987 0.393263 0.879066
Si Si2 0.646572 0.173683 0.613581
Si Si3 0.050577 0.387699 0.683354
Si Si4 0.824392 0.610356 0.833540
Si Si5 0.418177 0.794189 0.883442
Si Si6 0.713147 0.334673 0.388707
Si Si7 0.724995 0.606441 0.834399
O O1 0.379317 0.500000 0.836151
O O2 0.410494 0.312547 0.843387
O O3 0.324148 0.356138 0.866428
O O4 0.383905 0.399968 0.000000
O O5 0.660186 0.139550 0.500000
O O6 0.592653 0.161281 0.626634
O O7 0.668598 0.121707 0.710797
O O8 0.664968 0.280255 0.621095
O O9 0.057926 0.500000 0.678737
O O10 0.054091 0.353430 0.800890
O O11 0.000000 0.367408 0.643541
O O12 0.825767 0.500000 0.858135
O O13 0.867491 0.660786 0.882554
O O14 0.774191 0.648762 0.861521
O O15 0.435418 0.794836 0.000000
O O16 0.715747 0.380704 0.500000
O O17 0.750000 0.250000 0.387559
O O18 0.722584 0.393822 0.288769
O O19 0.725590 0.500000 0.874333
#
# Coordination Sequence:
#
# PCOD9485084 Si02
#       7
#    16  16  16  16  16  16  16
#     4   9  19  34  51  74 101 131 171 213 255 307
#     4  10  19  32  51  71  97 138 177 210 254 300
#     4  10  22  38  55  79 107 133 170 217 258 308
#     4  10  20  30  43  70 103 135 177 220 251 297
#     4  10  20  34  54  74  96 133 170 207 261 315
#     4  10  19  31  47  70 100 135 175 217 256 303
#     4  10  19  30  46  67  98 139 175 215 261 301
#
# _framework density 20.506837999999998
#
# number of rings (size 3 to 8) (size 9 to 14) (size 15 to 20)
#    0.000    2.143    1.429    3.429    0.000    3.714 
#    0.000    5.714    0.000    0.429    0.000    2.000 
#    0.000    0.000    0.000   16.857    0.000    0.571 
#
# Total GULP energy -312269.784797 kJ/mol
# GULP energy per Si atom -5576.246157 kJ/mol
# Density = 2.046016 g / cm^3
# Si number density = 20.506838 Si / 1000 Ang^3
#
#
#
# Elastic Constant Matrix: (Units=GPa)
#
#
# Indices 1 2 3 4 5 6 
#
# 1 84.0563 12.2285 -3.3638 0.0000 0.0000 0.0000
# 2 12.2285 44.6418 2.8315 0.0000 0.0000 0.0000
# 3 -3.3638 2.8315 57.0305 0.0000 0.0000 0.0000
# 4 0.0000 0.0000 0.0000 43.2024 0.0000 0.0000
# 5 0.0000 0.0000 0.0000 0.0000 -0.8817 0.0000
# 6 0.0000 0.0000 0.0000 0.0000 0.0000 20.6200
#
#
#
# Elastic Compliance Matrix: (Units=1/GPa)
#
#
# Indices 1 2 3 4 5 6 
#
# 1 0.012437 -0.003464 0.000906 0.000000 0.000000 0.000000
# 2 -0.003464 0.023436 -0.001368 0.000000 0.000000 0.000000
# 3 0.000906 -0.001368 0.017656 0.000000 0.000000 0.000000
# 4 0.000000 0.000000 0.000000 0.023147 0.000000 0.000000
# 5 0.000000 0.000000 0.000000 0.000000 -1.134230 0.000000
# 6 0.000000 0.000000 0.000000 0.000000 0.000000 0.048497
#
#
# Mechanical properties :
#
#
# Convention : Reuss Voigt Hill
#
# Bulk Modulus (GPa) = 21.89339 23.23566 22.56453
# Shear Modulus (GPa) = -5.07110 24.19032 9.55961
#
# Velocity S-wave (km/s) = -1.57425 3.43829 2.16143
# Velocity P-wave (km/s) = 2.71937 5.20747 4.15408
#
# Compressibility (1/GPa) = 0.04567588
#
# Stress axis : x y z
#
# Youngs Moduli (GPa) = 80.40523 42.66901 56.63858
#
# Poissons Ratio (x) = 0.14782 -0.05129
# Poissons Ratio (y) = 0.27854 0.07748
# Poissons Ratio (z) = -0.07281 0.05837
#
# Static dielectric constant tensor:
#      x y z
#    x 1.753220 0.000000 0.000000 
#    y 0.000000 1.752560 0.000000 
#    z 0.000000 0.000000 1.763970 
# 
# From -- ./inp_files/47050.got.cif
#   From: 2010.05.17/outbox.cif.g08.bks.cpg/sg65_24_cif.got.tgz:47050.got - 2010.06.03 17:01:31.
