data_PCOD9485204
_publ_section_title
;
Structure prediction by ZEFSAII (Michael W. Deem and Ramdas Pophale) SiO2 
 PCOD9485204
Probable space group: C M M M
;
_chemical_formula_sum "Si O2"
_cell_formula_units_Z 88
_cell_length_a 27.883242
_cell_length_b 8.138167
_cell_length_c 23.118918
_cell_angle_alpha 90.000000
_cell_angle_beta 90.000000
_cell_angle_gamma 90.000000
_cell_volume 5246.109729
_symmetry_space_group_name_H-M "C M M M"
_symmetry_group_IT_number 65
_symmetry_cell_setting 'orthorhombic'
loop_
_space_group_symop_operation_xyz
x,y,z
-x,-y,z
x,-y,-z
-x,y,-z
-x,-y,-z
x,y,-z
-x,y,z
x,-y,z
1/2+x,1/2+y,z
1/2-x,1/2-y,z
1/2+x,1/2-y,-z
1/2-x,1/2+y,-z
1/2-x,1/2-y,-z
1/2+x,1/2+y,-z
1/2-x,1/2+y,z
1/2+x,1/2-y,z
loop_
_atom_site_type_symbol
_atom_site_label
_atom_site_fract_x
_atom_site_fract_y
_atom_site_fract_z
Si Si1 0.056279 0.500000 0.569277
Si Si2 0.853529 0.305453 0.179748
Si Si3 0.304571 0.695108 0.936194
Si Si4 0.696683 0.304847 0.704098
Si Si5 0.399177 0.693242 0.636060
Si Si6 0.945554 0.301312 0.752905
O O1 0.057751 0.500000 0.500000
O O2 0.081595 0.666219 0.592950
O O3 0.000000 0.500000 0.587896
O O4 0.854941 0.500000 0.175661
O O5 0.836577 0.242323 0.118158
O O6 0.818010 0.262041 0.232725
O O7 0.905997 0.248235 0.200458
O O8 0.304619 0.500000 0.939408
O O9 0.250000 0.750000 0.925323
O O10 0.318856 0.761062 0.000000
O O11 0.696030 0.500000 0.708555
O O12 0.750000 0.250000 0.687759
O O13 0.654475 0.261400 0.658766
O O14 0.400025 0.500000 0.617280
O O15 0.431978 0.713211 0.693212
O O16 0.940674 0.500000 0.743680
O O17 0.000000 0.268138 0.769808
#
# Coordination Sequence:
#
# PCOD9485204 Si02
#       6
#     8  16  16  16  16  16
#     4  11  24  40  60  84 112 148 183 223 270 312
#     4  10  19  30  47  72 104 132 165 213 260 311
#     4  10  20  33  48  65  90 127 167 208 254 307
#     4  10  20  32  52  81 109 142 176 215 267 319
#     4  10  21  36  56  84 113 144 180 222 268 321
#     4   9  17  31  52  76 104 136 169 209 262 316
#
# _framework density 16.774334
#
# number of rings (size 3 to 8) (size 9 to 14) (size 15 to 20)
#    0.000    2.091    0.909    2.727    2.545    3.636 
#    0.000    0.909    0.000    1.091    0.000    3.818 
#    0.000    0.000    0.000    0.000    0.000    0.000 
#
# Total GULP energy -245333.367064 kJ/mol
# GULP energy per Si atom -5575.758342 kJ/mol
# Density = 1.673616 g / cm^3
# Si number density = 16.774334 Si / 1000 Ang^3
#
#
#
# Elastic Constant Matrix: (Units=GPa)
#
#
# Indices 1 2 3 4 5 6 
#
# 1 113.9104 38.6561 53.1145 0.0000 0.0000 0.0000
# 2 38.6561 63.4049 46.2105 0.0000 0.0000 0.0000
# 3 53.1145 46.2105 91.3954 0.0000 0.0000 0.0000
# 4 0.0000 0.0000 0.0000 14.5182 0.0000 0.0000
# 5 0.0000 0.0000 0.0000 0.0000 27.7760 0.0000
# 6 0.0000 0.0000 0.0000 0.0000 0.0000 16.9523
#
#
#
# Elastic Compliance Matrix: (Units=1/GPa)
#
#
# Indices 1 2 3 4 5 6 
#
# 1 0.012568 -0.003704 -0.005431 0.000000 0.000000 0.000000
# 2 -0.003704 0.026066 -0.011027 0.000000 0.000000 0.000000
# 3 -0.005431 -0.011027 0.019673 0.000000 0.000000 0.000000
# 4 0.000000 0.000000 0.000000 0.068879 0.000000 0.000000
# 5 0.000000 0.000000 0.000000 0.000000 0.036002 0.000000
# 6 0.000000 0.000000 0.000000 0.000000 0.000000 0.058989
#
#
# Mechanical properties :
#
#
# Convention : Reuss Voigt Hill
#
# Bulk Modulus (GPa) = 55.60652 60.51920 58.06286
# Shear Modulus (GPa) = 18.62217 20.56462 19.59340
#
# Velocity S-wave (km/s) = 3.33552 3.50517 3.42139
# Velocity P-wave (km/s) = 6.93224 7.24834 7.09205
#
# Compressibility (1/GPa) = 0.01798350
#
# Stress axis : x y z
#
# Youngs Moduli (GPa) = 79.56497 38.36348 50.83086
#
# Poissons Ratio (x) = 0.14211 0.27607
# Poissons Ratio (y) = 0.29472 0.56050
# Poissons Ratio (z) = 0.43214 0.42303
#
# Static dielectric constant tensor:
#      x y z
#    x 1.656440 0.000000 0.000000 
#    y 0.000000 1.582650 0.000000 
#    z 0.000000 0.000000 1.581540 
# 
# From -- ./inp_files/65173.got.cif
#   From: 2010.05.17/outbox.cif.g08.bks.cpg/sg65_33_cif.got.tgz:65173.got - 2010.06.03 17:01:31.
