data_PCOD9485176
_publ_section_title
;
Structure prediction by ZEFSAII (Michael W. Deem and Ramdas Pophale) SiO2 
 PCOD9485176
Probable space group: C M M M
;
_chemical_formula_sum "Si O2"
_cell_formula_units_Z 72
_cell_length_a 19.133941
_cell_length_b 8.591920
_cell_length_c 24.386713
_cell_angle_alpha 90.000000
_cell_angle_beta 90.000000
_cell_angle_gamma 90.000000
_cell_volume 4009.109538
_symmetry_space_group_name_H-M "C M M M"
_symmetry_group_IT_number 65
_symmetry_cell_setting 'orthorhombic'
loop_
_space_group_symop_operation_xyz
x,y,z
-x,-y,z
x,-y,-z
-x,y,-z
-x,-y,-z
x,y,-z
-x,y,z
x,-y,z
1/2+x,1/2+y,z
1/2-x,1/2-y,z
1/2+x,1/2-y,-z
1/2-x,1/2+y,-z
1/2-x,1/2-y,-z
1/2+x,1/2+y,-z
1/2-x,1/2+y,z
1/2+x,1/2-y,z
loop_
_atom_site_type_symbol
_atom_site_label
_atom_site_fract_x
_atom_site_fract_y
_atom_site_fract_z
Si Si1 0.419070 0.312259 0.604355
Si Si2 0.328920 0.186702 0.173508
Si Si3 0.828451 0.811455 0.500000
Si Si4 0.829592 0.186573 0.059730
Si Si5 0.080861 0.687700 0.722247
O O1 0.500000 0.262305 0.596256
O O2 0.418708 0.500000 0.605258
O O3 0.370694 0.260561 0.554201
O O4 0.395001 0.251570 0.663526
O O5 0.250000 0.250000 0.177956
O O6 0.360455 0.245284 0.115677
O O7 0.373134 0.238589 0.226150
O O8 0.326607 0.000000 0.172235
O O9 0.750000 0.750000 0.500000
O O10 0.827338 0.000000 0.500000
O O11 0.750000 0.250000 0.058824
O O12 0.827668 0.000000 0.063616
O O13 0.860832 0.228619 0.000000
O O14 0.082788 0.500000 0.720309
O O15 0.000000 0.736047 0.729405
#
# Coordination Sequence:
#
# PCOD9485176 Si02
#       5
#    16  16   8  16  16
#     4   9  18  34  55  74  93 124 164 200 234 276
#     4  10  19  30  47  70  96 125 156 195 240 284
#     4  10  21  35  51  75 105 130 156 194 238 284
#     4   9  16  26  42  65  93 123 156 195 236 280
#     4   9  19  35  52  71  96 126 161 199 237 279
#
# _framework density 17.959101
#
# number of rings (size 3 to 8) (size 9 to 14) (size 15 to 20)
#    0.000    2.667    0.000    3.000    0.000    6.222 
#    0.000    4.444    0.000    4.000    0.000    4.667 
#    0.000    0.000    0.000    0.000    0.000    0.000 
#
# Total GULP energy -200640.793409 kJ/mol
# GULP energy per Si atom -5573.355372 kJ/mol
# Density = 1.791823 g / cm^3
# Si number density = 17.959101 Si / 1000 Ang^3
#
#
#
# Elastic Constant Matrix: (Units=GPa)
#
#
# Indices 1 2 3 4 5 6 
#
# 1 55.4588 16.7621 84.8200 0.0000 0.0000 0.0000
# 2 16.7621 27.2636 38.4602 0.0000 0.0000 0.0000
# 3 84.8200 38.4602 231.9000 0.0000 0.0000 0.0000
# 4 0.0000 0.0000 0.0000 32.4531 0.0000 0.0000
# 5 0.0000 0.0000 0.0000 0.0000 -40.8826 0.0000
# 6 0.0000 0.0000 0.0000 0.0000 0.0000 19.1597
#
#
#
# Elastic Compliance Matrix: (Units=1/GPa)
#
#
# Indices 1 2 3 4 5 6 
#
# 1 0.041516 -0.005357 -0.014296 0.000000 0.000000 0.000000
# 2 -0.005357 0.048572 -0.006096 0.000000 0.000000 0.000000
# 3 -0.014296 -0.006096 0.010552 0.000000 0.000000 0.000000
# 4 0.000000 0.000000 0.000000 0.030814 0.000000 0.000000
# 5 0.000000 0.000000 0.000000 0.000000 -0.024460 0.000000
# 6 0.000000 0.000000 0.000000 0.000000 0.000000 0.052193
#
#
# Mechanical properties :
#
#
# Convention : Reuss Voigt Hill
#
# Bulk Modulus (GPa) = 20.34950 66.07856 43.21403
# Shear Modulus (GPa) = 22.01998 13.78471 17.90235
#
# Velocity S-wave (km/s) = 3.50540 2.77350 3.16070
# Velocity P-wave (km/s) = 5.26682 6.86514 6.11839
#
# Compressibility (1/GPa) = 0.04914125
#
# Stress axis : x y z
#
# Youngs Moduli (GPa) = 24.08723 20.58782 94.76575
#
# Poissons Ratio (x) = 0.11029 1.35481
# Poissons Ratio (y) = 0.12903 0.57772
# Poissons Ratio (z) = 0.34436 0.12551
#
# Static dielectric constant tensor:
#      x y z
#    x 1.595540 0.000000 0.000000 
#    y 0.000000 1.616200 0.000000 
#    z 0.000000 0.000000 1.646310 
# 
# From -- ./inp_files/67123.got.cif
#   From: 2010.05.17/outbox.cif.g08.bks.cpg/sg65_34_cif.got.tgz:67123.got - 2010.06.03 17:01:31.
