data_PCOD9485598
_publ_section_title
;
Structure prediction by ZEFSAII (Michael W. Deem and Ramdas Pophale) SiO2 
 PCOD9485598
Probable space group: C M M M
;
_chemical_formula_sum "Si O2"
_cell_formula_units_Z 104
_cell_length_a 29.656609
_cell_length_b 7.975929
_cell_length_c 24.412678
_cell_angle_alpha 90.000000
_cell_angle_beta 90.000000
_cell_angle_gamma 90.000000
_cell_volume 5774.550631
_symmetry_space_group_name_H-M "C M M M"
_symmetry_group_IT_number 65
_symmetry_cell_setting 'orthorhombic'
loop_
_space_group_symop_operation_xyz
x,y,z
-x,-y,z
x,-y,-z
-x,y,-z
-x,-y,-z
x,y,-z
-x,y,z
x,-y,z
1/2+x,1/2+y,z
1/2-x,1/2-y,z
1/2+x,1/2-y,-z
1/2-x,1/2+y,-z
1/2-x,1/2-y,-z
1/2+x,1/2+y,-z
1/2-x,1/2+y,z
1/2+x,1/2-y,z
loop_
_atom_site_type_symbol
_atom_site_label
_atom_site_fract_x
_atom_site_fract_y
_atom_site_fract_z
Si Si1 0.856277 0.701640 0.773288
Si Si2 0.802435 0.799958 0.880726
Si Si3 0.949666 0.799878 0.397728
Si Si4 0.802689 0.202057 0.000000
Si Si5 0.854610 0.699299 0.440355
Si Si6 0.049912 0.296940 0.729595
Si Si7 0.302148 0.202704 0.666420
O O1 0.857312 0.500000 0.769649
O O2 0.832668 0.744689 0.830087
O O3 0.907606 0.761987 0.765013
O O4 0.826975 0.763687 0.721472
O O5 0.750000 0.750000 0.872936
O O6 0.819126 0.735946 0.940555
O O7 0.803296 0.000000 0.882513
O O8 0.907668 0.725275 0.429913
O O9 0.943573 0.756937 0.333479
O O10 0.000000 0.740303 0.413620
O O11 0.948578 0.000000 0.404268
O O12 0.750000 0.250000 0.000000
O O13 0.807112 0.000000 0.000000
O O14 0.842044 0.769568 0.500000
O O15 0.846238 0.500000 0.441612
O O16 0.827283 0.767066 0.388152
O O17 0.049790 0.500000 0.730126
O O18 0.000000 0.239171 0.747013
O O19 0.250000 0.250000 0.666566
O O20 0.305562 0.000000 0.666455
#
# Coordination Sequence:
#
# PCOD9485598 Si02
#       7
#    16  16  16   8  16  16  16
#     4  10  19  32  50  75 103 128 160 202 245 289
#     4  10  19  31  48  72 102 137 172 205 242 285
#     4  10  20  33  51  76 103 126 151 192 247 300
#     4   8  16  30  46  66  97 134 171 207 240 279
#     4  10  21  38  56  71  91 125 168 205 240 291
#     4   9  17  32  54  75  98 130 163 195 237 291
#     4  10  21  36  51  71  96 125 159 201 245 288
#
# _framework density 18.010059999999999
#
# number of rings (size 3 to 8) (size 9 to 14) (size 15 to 20)
#    0.000    2.308    1.538    1.385    0.000    5.538 
#    0.000    1.538    0.000    0.000    0.000    0.538 
#    0.000    4.308    0.000    0.000    0.000    0.000 
#
# Total GULP energy -289984.520330 kJ/mol
# GULP energy per Si atom -5576.625391 kJ/mol
# Density = 1.796907 g / cm^3
# Si number density = 18.010060 Si / 1000 Ang^3
#
#
#
# Elastic Constant Matrix: (Units=GPa)
#
#
# Indices 1 2 3 4 5 6 
#
# 1 106.3375 5.9379 78.7776 0.0000 0.0000 0.0000
# 2 5.9379 11.8390 9.4099 0.0000 0.0000 0.0000
# 3 78.7776 9.4099 163.1854 0.0000 0.0000 0.0000
# 4 0.0000 0.0000 0.0000 11.0796 0.0000 0.0000
# 5 0.0000 0.0000 0.0000 0.0000 16.6043 0.0000
# 6 0.0000 0.0000 0.0000 0.0000 0.0000 20.2945
#
#
#
# Elastic Compliance Matrix: (Units=1/GPa)
#
#
# Indices 1 2 3 4 5 6 
#
# 1 0.014677 -0.001813 -0.006981 0.000000 0.000000 0.000000
# 2 -0.001813 0.088748 -0.004242 0.000000 0.000000 0.000000
# 3 -0.006981 -0.004242 0.009743 0.000000 0.000000 0.000000
# 4 0.000000 0.000000 0.000000 0.090256 0.000000 0.000000
# 5 0.000000 0.000000 0.000000 0.000000 0.060225 0.000000
# 6 0.000000 0.000000 0.000000 0.000000 0.000000 0.049274
#
#
# Mechanical properties :
#
#
# Convention : Reuss Voigt Hill
#
# Bulk Modulus (GPa) = 11.48171 52.17921 31.83046
# Shear Modulus (GPa) = 13.58600 22.07811 17.83206
#
# Velocity S-wave (km/s) = 2.74953 3.50505 3.15003
# Velocity P-wave (km/s) = 4.05819 6.73911 5.56258
#
# Compressibility (1/GPa) = 0.08709504
#
# Stress axis : x y z
#
# Youngs Moduli (GPa) = 68.13539 11.26792 102.64292
#
# Poissons Ratio (x) = 0.02043 0.71651
# Poissons Ratio (y) = 0.12352 0.43545
# Poissons Ratio (z) = 0.47563 0.04780
#
# Static dielectric constant tensor:
#      x y z
#    x 1.612080 0.000000 0.000000 
#    y 0.000000 132.879480 0.000000 
#    z 0.000000 0.000000 1.646220 
# 
# From -- ./inp_files/68240.got.cif
#   From: 2010.05.17/outbox.cif.g08.bks.cpg/sg65_35_cif.got.tgz:68240.got - 2010.06.03 17:01:31.
