data_PCOD9485244
_publ_section_title
;
Structure prediction by ZEFSAII (Michael W. Deem and Ramdas Pophale) SiO2 
 PCOD9485244
Probable space group: C M M M
;
_chemical_formula_sum "Si O2"
_cell_formula_units_Z 80
_cell_length_a 28.895139
_cell_length_b 7.579943
_cell_length_c 17.325094
_cell_angle_alpha 90.000000
_cell_angle_beta 90.000000
_cell_angle_gamma 90.000000
_cell_volume 3794.602840
_symmetry_space_group_name_H-M "C M M M"
_symmetry_group_IT_number 65
_symmetry_cell_setting 'orthorhombic'
loop_
_space_group_symop_operation_xyz
x,y,z
-x,-y,z
x,-y,-z
-x,y,-z
-x,-y,-z
x,y,-z
-x,y,z
x,-y,z
1/2+x,1/2+y,z
1/2-x,1/2-y,z
1/2+x,1/2-y,-z
1/2-x,1/2+y,-z
1/2-x,1/2-y,-z
1/2+x,1/2+y,-z
1/2-x,1/2+y,z
1/2+x,1/2-y,z
loop_
_atom_site_type_symbol
_atom_site_label
_atom_site_fract_x
_atom_site_fract_y
_atom_site_fract_z
Si Si1 0.551562 0.284667 0.090159
Si Si2 0.056037 0.799386 0.500000
Si Si3 0.946912 0.702964 0.331046
Si Si4 0.304936 0.711279 0.500000
Si Si5 0.124474 0.197753 0.790326
Si Si6 0.304477 0.712527 0.669663
O O1 0.500000 0.228315 0.117795
O O2 0.551889 0.500000 0.095389
O O3 0.595326 0.219872 0.139433
O O4 0.555263 0.238830 0.000000
O O5 0.069003 0.713203 0.580365
O O6 0.000000 0.798776 0.500000
O O7 0.072735 0.000000 0.500000
O O8 0.945406 0.500000 0.306082
O O9 0.914281 0.811724 0.276270
O O10 0.000000 0.765087 0.327586
O O11 0.311536 0.500000 0.500000
O O12 0.250000 0.750000 0.500000
O O13 0.320829 0.777288 0.584460
O O14 0.166998 0.282249 0.743296
O O15 0.138759 0.000000 0.814815
O O16 0.310763 0.500000 0.669405
O O17 0.250000 0.750000 0.676545
#
# Coordination Sequence:
#
# PCOD9485244 Si02
#       6
#    16   8  16   8  16  16
#     4   8  14  26  46  72  99 124 153 195 243 287
#     4   9  17  30  47  64  87 126 170 204 233 270
#     4  10  20  32  45  65  96 129 159 194 239 289
#     4   8  14  27  44  61  84 113 147 188 232 276
#     4  10  19  30  48  73  95 120 159 202 244 291
#     4   9  18  31  47  67  91 121 157 199 244 289
#
# _framework density 21.082576
#
# number of rings (size 3 to 8) (size 9 to 14) (size 15 to 20)
#    0.000    2.900    0.000    2.100    0.000    4.800 
#    0.000    2.000    0.000    3.600    0.000    2.800 
#    0.000    0.000    0.000    0.000    0.000    0.000 
#
# Total GULP energy -222998.153058 kJ/mol
# GULP energy per Si atom -5574.953826 kJ/mol
# Density = 2.103459 g / cm^3
# Si number density = 21.082576 Si / 1000 Ang^3
#
#
#
# Elastic Constant Matrix: (Units=GPa)
#
#
# Indices 1 2 3 4 5 6 
#
# 1 117.7531 -0.3910 54.3728 0.0000 0.0000 0.0000
# 2 -0.3910 52.2808 -1.2712 0.0000 0.0000 0.0000
# 3 54.3728 -1.2712 109.7413 0.0000 0.0000 0.0000
# 4 0.0000 0.0000 0.0000 -4.8181 0.0000 0.0000
# 5 0.0000 0.0000 0.0000 0.0000 59.3266 0.0000
# 6 0.0000 0.0000 0.0000 0.0000 0.0000 6.4934
#
#
#
# Elastic Compliance Matrix: (Units=1/GPa)
#
#
# Indices 1 2 3 4 5 6 
#
# 1 0.011012 -0.000050 -0.005456 0.000000 0.000000 0.000000
# 2 -0.000050 0.019133 0.000247 0.000000 0.000000 0.000000
# 3 -0.005456 0.000247 0.011819 0.000000 0.000000 0.000000
# 4 0.000000 0.000000 0.000000 -0.207549 0.000000 0.000000
# 5 0.000000 0.000000 0.000000 0.000000 0.016856 0.000000
# 6 0.000000 0.000000 0.000000 0.000000 0.000000 0.154003
#
#
# Mechanical properties :
#
#
# Convention : Reuss Voigt Hill
#
# Bulk Modulus (GPa) = 31.80353 42.79958 37.30155
# Shear Modulus (GPa) = 190.29418 27.33799 108.81609
#
# Velocity S-wave (km/s) = 9.51090 3.60489 7.19210
# Velocity P-wave (km/s) = 11.65022 6.13775 9.31128
#
# Compressibility (1/GPa) = 0.03144305
#
# Stress axis : x y z
#
# Youngs Moduli (GPa) = 90.81223 52.26541 84.61175
#
# Poissons Ratio (x) = 0.00263 0.46168
# Poissons Ratio (y) = 0.00457 -0.02086
# Poissons Ratio (z) = 0.49552 -0.01289
#
# Static dielectric constant tensor:
#      x y z
#    x 1.766240 0.000000 0.000000 
#    y 0.000000 1.802670 0.000000 
#    z 0.000000 0.000000 1.776430 
# 
# From -- ./inp_files/57887.got.cif
#   From: 2010.05.17/outbox.cif.g08.bks.cpg/sg65_29_cif.got.tgz:57887.got - 2010.06.03 17:01:31.
