data_PCOD9485004
_publ_section_title
;
Structure prediction by ZEFSAII (Michael W. Deem and Ramdas Pophale) SiO2 
 PCOD9485004
Probable space group: C M M M
;
_chemical_formula_sum "Si O2"
_cell_formula_units_Z 96
_cell_length_a 18.347403
_cell_length_b 7.356673
_cell_length_c 32.616471
_cell_angle_alpha 90.000000
_cell_angle_beta 90.000000
_cell_angle_gamma 90.000000
_cell_volume 4402.435710
_symmetry_space_group_name_H-M "C M M M"
_symmetry_group_IT_number 65
_symmetry_cell_setting 'orthorhombic'
loop_
_space_group_symop_operation_xyz
x,y,z
-x,-y,z
x,-y,-z
-x,y,-z
-x,-y,-z
x,y,-z
-x,y,z
x,-y,z
1/2+x,1/2+y,z
1/2-x,1/2-y,z
1/2+x,1/2-y,-z
1/2-x,1/2+y,-z
1/2-x,1/2-y,-z
1/2+x,1/2+y,-z
1/2-x,1/2+y,z
1/2+x,1/2-y,z
loop_
_atom_site_type_symbol
_atom_site_label
_atom_site_fract_x
_atom_site_fract_y
_atom_site_fract_z
Si Si1 0.084496 0.277724 0.417603
Si Si2 0.584368 0.222264 0.747035
Si Si3 0.911501 0.286289 0.000000
Si Si4 0.415003 0.777776 0.089240
Si Si5 0.836063 0.716782 0.500000
Si Si6 0.664336 0.783282 0.829179
Si Si7 0.336009 0.216764 0.664778
O O1 0.086043 0.500000 0.417581
O O2 0.125984 0.215487 0.458496
O O3 0.125119 0.215431 0.376444
O O4 0.000000 0.224268 0.417878
O O5 0.500000 0.275601 0.745644
O O6 0.622954 0.284659 0.788776
O O7 0.627250 0.284572 0.706616
O O8 0.586128 0.000000 0.747155
O O9 0.888227 0.213692 0.955619
O O10 0.893008 0.500000 0.000000
O O11 0.000000 0.273591 0.000000
O O12 0.500000 0.727750 0.094370
O O13 0.368829 0.714765 0.128052
O O14 0.413355 0.000000 0.088167
O O15 0.846747 0.500000 0.500000
O O16 0.750000 0.750000 0.500000
O O17 0.750000 0.750000 0.826256
O O18 0.652868 0.000000 0.829735
O O19 0.250000 0.250000 0.664089
O O20 0.346804 0.000000 0.664867
#
# Coordination Sequence:
#
# PCOD9485004 Si02
#       7
#    16  16   8  16   8  16  16
#     4   9  17  30  49  71  92 119 158 195 222 256
#     4   9  17  30  49  70  88 112 151 191 220 252
#     4   7  10  18  35  60  85 105 134 181 224 250
#     4   8  13  23  41  63  84 109 144 183 218 252
#     4  10  19  31  49  71  95 122 152 190 232 272
#     4  10  19  30  45  65  90 117 144 178 219 263
#     4  10  19  31  49  71  95 121 148 183 225 268
#
# _framework density 21.806111999999999
#
# number of rings (size 3 to 8) (size 9 to 14) (size 15 to 20)
#    0.000    2.917    0.000    3.250    0.000    5.000 
#    0.000    0.417    0.000    7.000    0.000    0.000 
#    0.000    2.000    0.000    0.000    0.000    0.000 
#
# Total GULP energy -268090.173288 kJ/mol
# GULP energy per Si atom -5585.211944 kJ/mol
# Density = 2.175648 g / cm^3
# Si number density = 21.806112 Si / 1000 Ang^3
#
#
#
# Elastic Constant Matrix: (Units=GPa)
#
#
# Indices 1 2 3 4 5 6 
#
# 1 187.7292 -5.1209 153.1649 0.0000 0.0000 0.0000
# 2 -5.1209 80.6719 14.3824 0.0000 0.0000 0.0000
# 3 153.1649 14.3824 290.0332 0.0000 0.0000 0.0000
# 4 0.0000 0.0000 0.0000 2.3430 0.0000 0.0000
# 5 0.0000 0.0000 0.0000 0.0000 -9.0440 0.0000
# 6 0.0000 0.0000 0.0000 0.0000 0.0000 17.2214
#
#
#
# Elastic Compliance Matrix: (Units=1/GPa)
#
#
# Indices 1 2 3 4 5 6 
#
# 1 0.009540 0.001517 -0.005113 0.000000 0.000000 0.000000
# 2 0.001517 0.012748 -0.001433 0.000000 0.000000 0.000000
# 3 -0.005113 -0.001433 0.006219 0.000000 0.000000 0.000000
# 4 0.000000 0.000000 0.000000 0.426802 0.000000 0.000000
# 5 0.000000 0.000000 0.000000 0.000000 -0.110571 0.000000
# 6 0.000000 0.000000 0.000000 0.000000 0.000000 0.058067
#
#
# Mechanical properties :
#
#
# Convention : Reuss Voigt Hill
#
# Bulk Modulus (GPa) = 54.20601 98.14300 76.17450
# Shear Modulus (GPa) = 11.93278 28.50461 20.21870
#
# Velocity S-wave (km/s) = 2.34182 3.61942 3.04830
# Velocity P-wave (km/s) = 5.67664 7.91023 6.88462
#
# Compressibility (1/GPa) = 0.01844814
#
# Stress axis : x y z
#
# Youngs Moduli (GPa) = 104.82141 78.44524 160.79103
#
# Poissons Ratio (x) = -0.11902 0.82217
# Poissons Ratio (y) = -0.15903 0.23047
# Poissons Ratio (z) = 0.53598 0.11244
#
# Static dielectric constant tensor:
#      x y z
#    x 1.716720 0.000000 0.000000 
#    y 0.000000 1.848760 0.000000 
#    z 0.000000 0.000000 1.788780 
# 
# From -- ./inp_files/77645.got.cif
#   From: 2010.05.17/outbox.cif.g08.bks.cpg/sg65_39_cif.got.tgz:77645.got - 2010.06.03 17:01:31.
