data_PCOD9485700
_publ_section_title
;
Structure prediction by ZEFSAII (Michael W. Deem and Ramdas Pophale) SiO2 
 PCOD9485700
Probable space group: C M M M
;
_chemical_formula_sum "Si O2"
_cell_formula_units_Z 96
_cell_length_a 26.351984
_cell_length_b 24.287635
_cell_length_c 7.480411
_cell_angle_alpha 90.000000
_cell_angle_beta 90.000000
_cell_angle_gamma 90.000000
_cell_volume 4787.667771
_symmetry_space_group_name_H-M "C M M M"
_symmetry_group_IT_number 65
_symmetry_cell_setting 'orthorhombic'
loop_
_space_group_symop_operation_xyz
x,y,z
-x,-y,z
x,-y,-z
-x,y,-z
-x,-y,-z
x,y,-z
-x,y,z
x,-y,z
1/2+x,1/2+y,z
1/2-x,1/2-y,z
1/2+x,1/2-y,-z
1/2-x,1/2+y,-z
1/2-x,1/2-y,-z
1/2+x,1/2+y,-z
1/2-x,1/2+y,z
1/2+x,1/2-y,z
loop_
_atom_site_type_symbol
_atom_site_label
_atom_site_fract_x
_atom_site_fract_y
_atom_site_fract_z
Si Si1 0.154397 0.128932 0.281256
Si Si2 0.306634 0.744252 0.708572
Si Si3 0.244959 0.436953 0.716183
Si Si4 0.351487 0.138977 0.791867
Si Si5 0.441779 0.937143 0.218220
Si Si6 0.556791 0.436530 0.717996
O O1 0.152712 0.127670 0.500000
O O2 0.163817 0.191317 0.219407
O O3 0.202965 0.092463 0.227494
O O4 0.102002 0.102197 0.219585
O O5 0.298848 0.730866 0.500000
O O6 0.250000 0.750000 0.787684
O O7 0.336191 0.801640 0.717325
O O8 0.244965 0.437372 0.500000
O O9 0.241842 0.500000 0.777930
O O10 0.196775 0.401172 0.773061
O O11 0.400450 0.106775 0.717505
O O12 0.361321 0.148447 0.000000
O O13 0.500000 0.925576 0.270819
O O14 0.429147 0.000000 0.272905
O O15 0.440545 0.936989 0.000000
O O16 0.556904 0.435850 0.500000
O O17 0.500000 0.420617 0.774917
O O18 0.565848 0.500000 0.770286
#
# Coordination Sequence:
#
# PCOD9485700 Si02
#       6
#    16  16  16  16  16  16
#     4   9  16  28  45  64  89 126 165 196 230 283
#     4  10  19  34  51  66  94 135 172 199 235 291
#     4  10  19  31  49  72  98 128 161 196 240 298
#     4  11  21  32  50  75 101 125 161 209 250 287
#     4   8  15  30  51  72  95 126 161 196 241 297
#     4   8  13  22  39  65  94 120 150 193 241 284
#
# _framework density 20.051514999999998
#
# number of rings (size 3 to 8) (size 9 to 14) (size 15 to 20)
#    0.000    2.667    1.667    2.500    0.000    3.333 
#    0.000    0.833    0.000    3.000    0.000    5.833 
#    0.000    0.667    0.000    9.167    0.000    8.333 
#
# Total GULP energy -267900.146701 kJ/mol
# GULP energy per Si atom -5581.253056 kJ/mol
# Density = 2.000588 g / cm^3
# Si number density = 20.051515 Si / 1000 Ang^3
#
#
#
# Elastic Constant Matrix: (Units=GPa)
#
#
# Indices 1 2 3 4 5 6 
#
# 1 163.8379 94.3074 -4.1965 0.0000 0.0000 0.0000
# 2 94.3074 145.7262 -8.8652 0.0000 0.0000 0.0000
# 3 -4.1965 -8.8652 51.4150 0.0000 0.0000 0.0000
# 4 0.0000 0.0000 0.0000 -59.6042 0.0000 0.0000
# 5 0.0000 0.0000 0.0000 0.0000 7.3869 0.0000
# 6 0.0000 0.0000 0.0000 0.0000 0.0000 19.5069
#
#
#
# Elastic Compliance Matrix: (Units=1/GPa)
#
#
# Indices 1 2 3 4 5 6 
#
# 1 0.009731 -0.006316 -0.000295 0.000000 0.000000 0.000000
# 2 -0.006316 0.011034 0.001387 0.000000 0.000000 0.000000
# 3 -0.000295 0.001387 0.019665 0.000000 0.000000 0.000000
# 4 0.000000 0.000000 0.000000 -0.016777 0.000000 0.000000
# 5 0.000000 0.000000 0.000000 0.000000 0.135375 0.000000
# 6 0.000000 0.000000 0.000000 0.000000 0.000000 0.051264
#
#
# Mechanical properties :
#
#
# Convention : Reuss Voigt Hill
#
# Bulk Modulus (GPa) = 33.35204 58.16338 45.75771
# Shear Modulus (GPa) = 21.67010 12.10680 16.88845
#
# Velocity S-wave (km/s) = 3.29100 2.45987 2.90531
# Velocity P-wave (km/s) = 5.57765 6.09409 5.84158
#
# Compressibility (1/GPa) = 0.02998318
#
# Stress axis : x y z
#
# Youngs Moduli (GPa) = 102.75980 90.63078 50.85258
#
# Poissons Ratio (x) = 0.57239 0.01499
# Poissons Ratio (y) = 0.64900 -0.07053
# Poissons Ratio (z) = 0.03028 -0.12571
#
# Static dielectric constant tensor:
#      x y z
#    x 1.686670 0.000000 0.000000 
#    y 0.000000 1.680300 0.000000 
#    z 0.000000 0.000000 1.759670 
# 
# From -- ./inp_files/16650.got.cif
#   From: 2010.05.17/outbox.cif.g08.bks.cpg/sg65_9_cif.got.tgz:16650.got - 2010.06.03 17:01:31.
