data_PCOD9485435
_publ_section_title
;
Structure prediction by ZEFSAII (Michael W. Deem and Ramdas Pophale) SiO2 
 PCOD9485435
Probable space group: C M M M
;
_chemical_formula_sum "Si O2"
_cell_formula_units_Z 80
_cell_length_a 15.463431
_cell_length_b 9.334443
_cell_length_c 27.453416
_cell_angle_alpha 90.000000
_cell_angle_beta 90.000000
_cell_angle_gamma 90.000000
_cell_volume 3962.695118
_symmetry_space_group_name_H-M "C M M M"
_symmetry_group_IT_number 65
_symmetry_cell_setting 'orthorhombic'
loop_
_space_group_symop_operation_xyz
x,y,z
-x,-y,z
x,-y,-z
-x,y,-z
-x,-y,-z
x,y,-z
-x,y,z
x,-y,z
1/2+x,1/2+y,z
1/2-x,1/2-y,z
1/2+x,1/2-y,-z
1/2-x,1/2+y,-z
1/2-x,1/2-y,-z
1/2+x,1/2+y,-z
1/2-x,1/2+y,z
1/2+x,1/2-y,z
loop_
_atom_site_type_symbol
_atom_site_label
_atom_site_fract_x
_atom_site_fract_y
_atom_site_fract_z
Si Si1 0.902190 0.174051 0.106959
Si Si2 0.894136 0.664322 0.692447
Si Si3 0.605859 0.664708 0.403635
Si Si4 0.839723 0.826785 0.000000
Si Si5 0.393675 0.333323 0.788026
Si Si6 0.394143 0.835144 0.500000
O O1 0.876974 0.217289 0.052541
O O2 0.860567 0.217034 0.158612
O O3 0.000000 0.222915 0.111318
O O4 0.899516 0.000000 0.107604
O O5 0.866103 0.500000 0.688720
O O6 0.866755 0.756099 0.645711
O O7 0.865995 0.736924 0.742891
O O8 0.000000 0.664764 0.692505
O O9 0.500000 0.663913 0.403676
O O10 0.634243 0.500000 0.405092
O O11 0.633171 0.751771 0.451438
O O12 0.750000 0.750000 0.000000
O O13 0.837850 0.000000 0.000000
O O14 0.500000 0.331066 0.788984
O O15 0.369962 0.500000 0.780633
O O16 0.500000 0.836078 0.500000
O O17 0.365766 0.000000 0.500000
#
# Coordination Sequence:
#
# PCOD9485435 Si02
#       6
#    16  16  16   8  16   8
#     4   8  14  26  46  67  83 106 144 182 210 244
#     4   9  15  21  29  43  63  85 108 139 186 239
#     4   9  15  21  28  37  51  75 108 145 184 227
#     4  10  19  31  47  67  91 116 142 174 212 254
#     4   8  13  22  36  53  70  88 116 156 197 234
#     4   9  15  21  27  35  49  71 103 145 190 233
#
# _framework density 20.188281
#
# number of rings (size 3 to 8) (size 9 to 14) (size 15 to 20)
#    0.000    3.300    0.000    3.000    0.000    7.200 
#    0.000    1.000    0.000    2.400    0.000    0.000 
#    0.000    0.000    0.000    0.000    0.000    0.000 
#
# Total GULP energy -222757.676927 kJ/mol
# GULP energy per Si atom -5568.941923 kJ/mol
# Density = 2.014233 g / cm^3
# Si number density = 20.188281 Si / 1000 Ang^3
#
#
#
# Elastic Constant Matrix: (Units=GPa)
#
#
# Indices 1 2 3 4 5 6 
#
# 1 10.8215 8.2235 15.5466 0.0000 0.0000 0.0000
# 2 8.2235 125.2628 118.8283 0.0000 0.0000 0.0000
# 3 15.5466 118.8283 259.5391 0.0000 0.0000 0.0000
# 4 0.0000 0.0000 0.0000 -28.7790 0.0000 0.0000
# 5 0.0000 0.0000 0.0000 0.0000 -21.6912 0.0000
# 6 0.0000 0.0000 0.0000 0.0000 0.0000 3.8433
#
#
#
# Elastic Compliance Matrix: (Units=1/GPa)
#
#
# Indices 1 2 3 4 5 6 
#
# 1 0.101287 -0.001580 -0.005344 0.000000 0.000000 0.000000
# 2 -0.001580 0.014137 -0.006378 0.000000 0.000000 0.000000
# 3 -0.005344 -0.006378 0.007093 0.000000 0.000000 0.000000
# 4 0.000000 0.000000 0.000000 -0.034748 0.000000 0.000000
# 5 0.000000 0.000000 0.000000 0.000000 -0.046102 0.000000
# 6 0.000000 0.000000 0.000000 0.000000 0.000000 0.260192
#
#
# Mechanical properties :
#
#
# Convention : Reuss Voigt Hill
#
# Bulk Modulus (GPa) = 10.42609 75.64668 43.03639
# Shear Modulus (GPa) = 13.87210 7.54295 10.70752
#
# Velocity S-wave (km/s) = 2.62417 1.93505 2.30550
# Velocity P-wave (km/s) = 3.78911 6.52261 5.33394
#
# Compressibility (1/GPa) = 0.09591324
#
# Stress axis : x y z
#
# Youngs Moduli (GPa) = 9.87297 70.73439 140.97978
#
# Poissons Ratio (x) = 0.11179 0.75334
# Poissons Ratio (y) = 0.01560 0.89918
# Poissons Ratio (z) = 0.05276 0.45115
#
# Static dielectric constant tensor:
#      x y z
#    x 1.707930 0.000000 0.000000 
#    y 0.000000 1.667420 0.000000 
#    z 0.000000 0.000000 1.958830 
# 
# From -- ./inp_files/70814.got.cif
#   From: 2010.05.17/outbox.cif.g08.bks.cpg/sg65_36_cif.got.tgz:70814.got - 2010.06.03 17:01:31.
