data_PCOD9485934
_publ_section_title
;
Structure prediction by ZEFSAII (Michael W. Deem and Ramdas Pophale) SiO2 
 PCOD9485934
Probable space group: C M M M
;
_chemical_formula_sum "Si O2"
_cell_formula_units_Z 88
_cell_length_a 18.201130
_cell_length_b 8.719184
_cell_length_c 30.198181
_cell_angle_alpha 90.000000
_cell_angle_beta 90.000000
_cell_angle_gamma 90.000000
_cell_volume 4792.421171
_symmetry_space_group_name_H-M "C M M M"
_symmetry_group_IT_number 65
_symmetry_cell_setting 'orthorhombic'
loop_
_space_group_symop_operation_xyz
x,y,z
-x,-y,z
x,-y,-z
-x,y,-z
-x,-y,-z
x,y,-z
-x,y,z
x,-y,z
1/2+x,1/2+y,z
1/2-x,1/2-y,z
1/2+x,1/2-y,-z
1/2-x,1/2+y,-z
1/2-x,1/2-y,-z
1/2+x,1/2+y,-z
1/2-x,1/2+y,z
1/2+x,1/2-y,z
loop_
_atom_site_type_symbol
_atom_site_label
_atom_site_fract_x
_atom_site_fract_y
_atom_site_fract_z
Si Si1 0.166698 0.315656 0.904139
Si Si2 0.333099 0.316195 0.548338
Si Si3 0.167138 0.315283 0.000000
Si Si4 0.332166 0.318108 0.186515
Si Si5 0.167632 0.316192 0.361055
Si Si6 0.413468 0.183133 0.270573
O O1 0.168923 0.500000 0.900811
O O2 0.250000 0.250000 0.904976
O O3 0.133389 0.272147 0.952248
O O4 0.133835 0.248157 0.859120
O O5 0.366260 0.277676 0.500000
O O6 0.329772 0.500000 0.551959
O O7 0.250000 0.250000 0.547500
O O8 0.366291 0.247461 0.593151
O O9 0.250000 0.250000 0.000000
O O10 0.172053 0.500000 0.000000
O O11 0.326968 0.500000 0.183002
O O12 0.250000 0.250000 0.190895
O O13 0.377091 0.268482 0.229433
O O14 0.171405 0.500000 0.363905
O O15 0.250000 0.250000 0.356983
O O16 0.123114 0.272554 0.317224
O O17 0.500000 0.211663 0.272026
O O18 0.401543 0.000000 0.264806
#
# Coordination Sequence:
#
# PCOD9485934 Si02
#       6
#    16  16   8  16  16  16
#     4   9  15  25  41  64  95 128 161 198 241 287
#     4   9  16  26  43  69 100 130 159 194 236 281
#     4   8  14  22  36  60  91 126 159 192 235 287
#     4  11  21  33  51  75 101 131 168 206 247 294
#     4  10  19  31  51  76 100 128 161 199 242 289
#     4  10  22  39  55  72  97 129 165 207 255 302
#
# _framework density 18.362324999999998
#
# number of rings (size 3 to 8) (size 9 to 14) (size 15 to 20)
#    0.000    2.364    0.000    6.000    0.000    5.091 
#    0.000    0.000    0.000    0.545    0.000    4.455 
#    0.000    5.091    0.000    0.000    0.000    0.000 
#
# Total GULP energy -245182.699500 kJ/mol
# GULP energy per Si atom -5572.334080 kJ/mol
# Density = 1.832053 g / cm^3
# Si number density = 18.362325 Si / 1000 Ang^3
#
#
#
# Elastic Constant Matrix: (Units=GPa)
#
#
# Indices 1 2 3 4 5 6 
#
# 1 19.2946 28.0441 38.0808 0.0000 0.0000 0.0000
# 2 28.0441 78.9886 81.4169 0.0000 0.0000 0.0000
# 3 38.0808 81.4169 230.3693 0.0000 0.0000 0.0000
# 4 0.0000 0.0000 0.0000 33.7822 0.0000 0.0000
# 5 0.0000 0.0000 0.0000 0.0000 -47.6680 0.0000
# 6 0.0000 0.0000 0.0000 0.0000 0.0000 11.6353
#
#
#
# Elastic Compliance Matrix: (Units=1/GPa)
#
#
# Indices 1 2 3 4 5 6 
#
# 1 0.114116 -0.033147 -0.007149 0.000000 0.000000 0.000000
# 2 -0.033147 0.029543 -0.004962 0.000000 0.000000 0.000000
# 3 -0.007149 -0.004962 0.007276 0.000000 0.000000 0.000000
# 4 0.000000 0.000000 0.000000 0.029601 0.000000 0.000000
# 5 0.000000 0.000000 0.000000 0.000000 -0.020978 0.000000
# 6 0.000000 0.000000 0.000000 0.000000 0.000000 0.085945
#
#
# Mechanical properties :
#
#
# Convention : Reuss Voigt Hill
#
# Bulk Modulus (GPa) = 16.55093 69.30400 42.92746
# Shear Modulus (GPa) = 14.03870 11.62395 12.83133
#
# Velocity S-wave (km/s) = 2.76803 2.51874 2.64632
# Velocity P-wave (km/s) = 4.38738 6.80317 5.72417
#
# Compressibility (1/GPa) = 0.06041957
#
# Stress axis : x y z
#
# Youngs Moduli (GPa) = 8.76302 33.84916 137.43542
#
# Poissons Ratio (x) = 1.12200 0.98251
# Poissons Ratio (y) = 0.29047 0.68191
# Poissons Ratio (z) = 0.06265 0.16795
#
# Static dielectric constant tensor:
#      x y z
#    x 1.585030 0.000000 0.000000 
#    y 0.000000 1.617350 0.000000 
#    z 0.000000 0.000000 1.712110 
# 
# From -- ./inp_files/77952.got.cif
#   From: 2010.05.17/outbox.cif.g08.bks.cpg/sg65_39_cif.got.tgz:77952.got - 2010.06.03 17:01:31.
