data_PCOD9485035
_publ_section_title
;
Structure prediction by ZEFSAII (Michael W. Deem and Ramdas Pophale) SiO2 
 PCOD9485035
Probable space group: C M M M
;
_chemical_formula_sum "Si O2"
_cell_formula_units_Z 104
_cell_length_a 28.006195
_cell_length_b 8.917911
_cell_length_c 26.938663
_cell_angle_alpha 90.000000
_cell_angle_beta 90.000000
_cell_angle_gamma 90.000000
_cell_volume 6728.113040
_symmetry_space_group_name_H-M "C M M M"
_symmetry_group_IT_number 65
_symmetry_cell_setting 'orthorhombic'
loop_
_space_group_symop_operation_xyz
x,y,z
-x,-y,z
x,-y,-z
-x,y,-z
-x,-y,-z
x,y,-z
-x,y,z
x,-y,z
1/2+x,1/2+y,z
1/2-x,1/2-y,z
1/2+x,1/2-y,-z
1/2-x,1/2+y,-z
1/2-x,1/2-y,-z
1/2+x,1/2+y,-z
1/2-x,1/2+y,z
1/2+x,1/2-y,z
loop_
_atom_site_type_symbol
_atom_site_label
_atom_site_fract_x
_atom_site_fract_y
_atom_site_fract_z
Si Si1 0.802029 0.178693 0.057880
Si Si2 0.858582 0.319945 0.146318
Si Si3 0.944528 0.820899 0.202947
Si Si4 0.397525 0.819643 0.299364
Si Si5 0.556820 0.321010 0.603914
Si Si6 0.557928 0.827309 0.500000
Si Si7 0.801271 0.679330 0.245459
O O1 0.750000 0.250000 0.067248
O O2 0.839086 0.252471 0.095495
O O3 0.799738 0.000000 0.065598
O O4 0.813839 0.206562 0.000000
O O5 0.861333 0.500000 0.144203
O O6 0.909089 0.252063 0.163014
O O7 0.821874 0.279146 0.191032
O O8 0.930128 0.749763 0.255847
O O9 0.000000 0.791797 0.192463
O O10 0.937140 0.000000 0.204948
O O11 0.414420 0.755278 0.351639
O O12 0.343088 0.779488 0.284265
O O13 0.401635 0.000000 0.298404
O O14 0.500000 0.288932 0.610326
O O15 0.562631 0.500000 0.605000
O O16 0.572065 0.256268 0.550485
O O17 0.500000 0.827031 0.500000
O O18 0.573812 0.000000 0.500000
O O19 0.796648 0.500000 0.246317
O O20 0.750000 0.750000 0.254760
#
# Coordination Sequence:
#
# PCOD9485035 Si02
#       7
#    16  16  16  16  16   8  16
#     4  10  20  33  50  73 100 128 158 194 237 283
#     4  10  20  33  50  72  97 126 159 194 235 283
#     4  10  20  33  49  70  96 126 160 196 235 280
#     4  10  20  32  46  68  96 125 159 195 233 279
#     4  10  19  30  45  67  95 125 158 195 233 275
#     4   9  17  29  45  65  90 123 158 191 233 279
#     4   9  19  32  46  67  93 121 153 189 229 274
#
# _framework density 15.457528999999999
#
# number of rings (size 3 to 8) (size 9 to 14) (size 15 to 20)
#    0.000    2.231    0.000    4.385    0.000   10.769 
#    0.000    0.000    0.000    0.462    0.000    3.769 
#    0.000    0.000    0.000    0.000    0.000    0.000 
#
# Total GULP energy -290141.148235 kJ/mol
# GULP energy per Si atom -5579.637466 kJ/mol
# Density = 1.542235 g / cm^3
# Si number density = 15.457529 Si / 1000 Ang^3
#
#
#
# Elastic Constant Matrix: (Units=GPa)
#
#
# Indices 1 2 3 4 5 6 
#
# 1 109.0661 62.9929 77.0862 0.0000 0.0000 0.0000
# 2 62.9929 79.6034 67.1828 0.0000 0.0000 0.0000
# 3 77.0862 67.1828 129.1783 0.0000 0.0000 0.0000
# 4 0.0000 0.0000 0.0000 30.8476 0.0000 0.0000
# 5 0.0000 0.0000 0.0000 0.0000 21.1352 0.0000
# 6 0.0000 0.0000 0.0000 0.0000 0.0000 27.9235
#
#
#
# Elastic Compliance Matrix: (Units=1/GPa)
#
#
# Indices 1 2 3 4 5 6 
#
# 1 0.019485 -0.009991 -0.006431 0.000000 0.000000 0.000000
# 2 -0.009991 0.027513 -0.008347 0.000000 0.000000 0.000000
# 3 -0.006431 -0.008347 0.015920 0.000000 0.000000 0.000000
# 4 0.000000 0.000000 0.000000 0.032417 0.000000 0.000000
# 5 0.000000 0.000000 0.000000 0.000000 0.047314 0.000000
# 6 0.000000 0.000000 0.000000 0.000000 0.000000 0.035812
#
#
# Mechanical properties :
#
#
# Convention : Reuss Voigt Hill
#
# Bulk Modulus (GPa) = 74.74131 81.37461 78.05796
# Shear Modulus (GPa) = 21.50905 23.35366 22.43135
#
# Velocity S-wave (km/s) = 3.73432 3.89115 3.81354
# Velocity P-wave (km/s) = 8.18848 8.54087 8.36653
#
# Compressibility (1/GPa) = 0.01337948
#
# Stress axis : x y z
#
# Youngs Moduli (GPa) = 51.32183 36.34623 62.81433
#
# Poissons Ratio (x) = 0.36315 0.40397
# Poissons Ratio (y) = 0.51278 0.52429
# Poissons Ratio (z) = 0.33006 0.30337
#
# Static dielectric constant tensor:
#      x y z
#    x 1.495520 0.000000 0.000000 
#    y 0.000000 1.514650 0.000000 
#    z 0.000000 0.000000 1.500600 
# 
# From -- ./inp_files/68270.got.cif
#   From: 2010.05.17/outbox.cif.g08.bks.cpg/sg65_35_cif.got.tgz:68270.got - 2010.06.03 17:01:31.
