data_PCOD9485581
_publ_section_title
;
Structure prediction by ZEFSAII (Michael W. Deem and Ramdas Pophale) SiO2 
 PCOD9485581
Probable space group: C M M M
;
_chemical_formula_sum "Si O2"
_cell_formula_units_Z 104
_cell_length_a 24.604861
_cell_length_b 8.155325
_cell_length_c 29.128211
_cell_angle_alpha 90.000000
_cell_angle_beta 90.000000
_cell_angle_gamma 90.000000
_cell_volume 5844.885404
_symmetry_space_group_name_H-M "C M M M"
_symmetry_group_IT_number 65
_symmetry_cell_setting 'orthorhombic'
loop_
_space_group_symop_operation_xyz
x,y,z
-x,-y,z
x,-y,-z
-x,y,-z
-x,-y,-z
x,y,-z
-x,y,z
x,-y,z
1/2+x,1/2+y,z
1/2-x,1/2-y,z
1/2+x,1/2-y,-z
1/2-x,1/2+y,-z
1/2-x,1/2-y,-z
1/2+x,1/2+y,-z
1/2-x,1/2+y,z
1/2+x,1/2-y,z
loop_
_atom_site_type_symbol
_atom_site_label
_atom_site_fract_x
_atom_site_fract_y
_atom_site_fract_z
Si Si1 0.111274 0.694880 0.806205
Si Si2 0.063488 0.298593 0.100413
Si Si3 0.687832 0.195458 0.273317
Si Si4 0.934013 0.689706 0.000000
Si Si5 0.119054 0.805024 0.638242
Si Si6 0.000000 0.192541 0.348034
Si Si7 0.812148 0.696541 0.551831
Si Si8 0.500000 0.308403 0.761929
O O1 0.120209 0.500000 0.810375
O O2 0.101303 0.758418 0.857826
O O3 0.157948 0.762669 0.772608
O O4 0.053976 0.724631 0.780991
O O5 0.063804 0.500000 0.099536
O O6 0.080875 0.239379 0.049709
O O7 0.000000 0.252879 0.108615
O O8 0.750000 0.250000 0.277578
O O9 0.652725 0.241576 0.318030
O O10 0.687511 0.000000 0.270343
O O11 0.915628 0.500000 0.000000
O O12 0.000000 0.687211 0.000000
O O13 0.150508 0.767385 0.591560
O O14 0.057678 0.735692 0.636403
O O15 0.115078 0.000000 0.644649
O O16 0.000000 0.199744 0.292929
O O17 0.000000 0.000000 0.361941
O O18 0.827141 0.749960 0.500000
O O19 0.814673 0.500000 0.553645
O O20 0.750000 0.750000 0.559726
O O21 0.500000 0.500000 0.775298
#
# Coordination Sequence:
#
# PCOD9485581 Si02
#       8
#    16  16  16   8  16   8  16   8
#     4  10  19  31  48  71  97 128 166 206 246 291
#     4   8  12  20  37  62  94 123 152 195 243 289
#     4  11  23  36  51  72  99 131 167 205 251 296
#     4   7  10  16  30  58  91 122 150 186 242 292
#     4  11  21  37  58  79 106 136 169 204 244 293
#     4   9  20  35  52  76 104 137 168 200 239 290
#     4  10  21  38  59  83 108 135 171 213 255 295
#     4  11  19  31  49  71 101 133 167 200 240 293
#
# _framework density 17.793334000000002
#
# number of rings (size 3 to 8) (size 9 to 14) (size 15 to 20)
#    0.000    2.231    2.308    3.000    0.000    1.538 
#    0.000    1.923    0.000    2.308    0.000    1.615 
#    0.000    0.000    0.000    0.000    0.000    0.000 
#
# Total GULP energy -289878.387078 kJ/mol
# GULP energy per Si atom -5574.584367 kJ/mol
# Density = 1.775284 g / cm^3
# Si number density = 17.793334 Si / 1000 Ang^3
#
#
#
# Elastic Constant Matrix: (Units=GPa)
#
#
# Indices 1 2 3 4 5 6 
#
# 1 121.3920 9.9238 83.0617 0.0000 0.0000 0.0000
# 2 9.9238 18.4945 11.5320 0.0000 0.0000 0.0000
# 3 83.0617 11.5320 136.9769 0.0000 0.0000 0.0000
# 4 0.0000 0.0000 0.0000 1.8601 0.0000 0.0000
# 5 0.0000 0.0000 0.0000 0.0000 -5.6848 0.0000
# 6 0.0000 0.0000 0.0000 0.0000 0.0000 2.2945
#
#
#
# Elastic Compliance Matrix: (Units=1/GPa)
#
#
# Indices 1 2 3 4 5 6 
#
# 1 0.014178 -0.002371 -0.008398 0.000000 0.000000 0.000000
# 2 -0.002371 0.057463 -0.003400 0.000000 0.000000 0.000000
# 3 -0.008398 -0.003400 0.012679 0.000000 0.000000 0.000000
# 4 0.000000 0.000000 0.000000 0.537613 0.000000 0.000000
# 5 0.000000 0.000000 0.000000 0.000000 -0.175908 0.000000
# 6 0.000000 0.000000 0.000000 0.000000 0.000000 0.435828
#
#
# Mechanical properties :
#
#
# Convention : Reuss Voigt Hill
#
# Bulk Modulus (GPa) = 17.86294 53.98872 35.92583
# Shear Modulus (GPa) = 5.38300 11.18368 8.28334
#
# Velocity S-wave (km/s) = 1.74122 2.50977 2.15996
# Velocity P-wave (km/s) = 3.75545 6.22949 5.14344
#
# Compressibility (1/GPa) = 0.05598183
#
# Stress axis : x y z
#
# Youngs Moduli (GPa) = 70.53387 17.40263 78.87102
#
# Poissons Ratio (x) = 0.04127 0.66232
# Poissons Ratio (y) = 0.16725 0.26815
# Poissons Ratio (z) = 0.59231 0.05917
#
# Static dielectric constant tensor:
#      x y z
#    x 1.603100 0.000000 0.000000 
#    y 0.000000 1.622250 0.000000 
#    z 0.000000 0.000000 1.636750 
# 
# From -- ./inp_files/78311.got.cif
#   From: 2010.05.17/outbox.cif.g08.bks.cpg/sg65_40_cif.got.tgz:78311.got - 2010.06.03 17:01:31.
