data_PCOD9485405
_publ_section_title
;
Structure prediction by ZEFSAII (Michael W. Deem and Ramdas Pophale) SiO2 
 PCOD9485405
Probable space group: C M M M
;
_chemical_formula_sum "Si O2"
_cell_formula_units_Z 72
_cell_length_a 27.334022
_cell_length_b 10.275633
_cell_length_c 17.072573
_cell_angle_alpha 90.000000
_cell_angle_beta 90.000000
_cell_angle_gamma 90.000000
_cell_volume 4795.248331
_symmetry_space_group_name_H-M "C M M M"
_symmetry_group_IT_number 65
_symmetry_cell_setting 'orthorhombic'
loop_
_space_group_symop_operation_xyz
x,y,z
-x,-y,z
x,-y,-z
-x,y,-z
-x,-y,-z
x,y,-z
-x,y,z
x,-y,z
1/2+x,1/2+y,z
1/2-x,1/2-y,z
1/2+x,1/2-y,-z
1/2-x,1/2+y,-z
1/2-x,1/2-y,-z
1/2+x,1/2+y,-z
1/2-x,1/2+y,z
1/2+x,1/2-y,z
loop_
_atom_site_type_symbol
_atom_site_label
_atom_site_fract_x
_atom_site_fract_y
_atom_site_fract_z
Si Si1 0.637721 0.155067 0.152954
Si Si2 0.057791 0.851040 0.094137
Si Si3 0.193753 0.500000 0.588000
Si Si4 0.809082 0.252970 0.691120
Si Si5 0.687738 0.500000 0.409033
Si Si6 0.206020 0.351267 0.000000
O O1 0.589711 0.240066 0.134801
O O2 0.665118 0.219136 0.226745
O O3 0.628709 0.000000 0.165781
O O4 0.672540 0.165369 0.076768
O O5 0.000000 0.837207 0.110565
O O6 0.072380 0.000000 0.115578
O O7 0.063956 0.839716 0.000000
O O8 0.175106 0.500000 0.500000
O O9 0.179091 0.626703 0.635024
O O10 0.253014 0.500000 0.585001
O O11 0.750000 0.250000 0.702760
O O12 0.824812 0.125290 0.643247
O O13 0.670061 0.500000 0.500000
O O14 0.250000 0.250000 0.000000
O O15 0.224875 0.500000 0.000000
#
# Coordination Sequence:
#
# PCOD9485405 Si02
#       6
#    16  16   8  16   8   8
#     4  11  21  34  49  72 102 134 173 207 247 293
#     4   9  19  36  56  76  96 122 162 210 260 305
#     4   9  16  30  48  65  94 133 166 205 252 295
#     4  10  19  31  46  70 102 135 170 208 245 290
#     4   9  18  30  48  71  94 129 174 209 248 295
#     4  10  22  36  47  66  99 141 180 209 233 280
#
# _framework density 15.014863999999999
#
# number of rings (size 3 to 8) (size 9 to 14) (size 15 to 20)
#    0.000    2.222    2.222    2.000    1.556    4.000 
#    0.000    1.111    0.000    0.000    0.000    0.000 
#    0.000    5.333    0.000    0.000    0.000    0.000 
#
# Total GULP energy -200605.100947 kJ/mol
# GULP energy per Si atom -5572.363915 kJ/mol
# Density = 1.498069 g / cm^3
# Si number density = 15.014864 Si / 1000 Ang^3
#
#
#
# Elastic Constant Matrix: (Units=GPa)
#
#
# Indices 1 2 3 4 5 6 
#
# 1 51.5771 55.0116 35.4252 0.0000 0.0000 0.0000
# 2 55.0116 157.1495 76.6926 0.0000 0.0000 0.0000
# 3 35.4252 76.6926 129.6601 0.0000 0.0000 0.0000
# 4 0.0000 0.0000 0.0000 19.1246 0.0000 0.0000
# 5 0.0000 0.0000 0.0000 0.0000 2.8045 0.0000
# 6 0.0000 0.0000 0.0000 0.0000 0.0000 2.2025
#
#
#
# Elastic Compliance Matrix: (Units=1/GPa)
#
#
# Indices 1 2 3 4 5 6 
#
# 1 0.031724 -0.009665 -0.002951 0.000000 0.000000 0.000000
# 2 -0.009665 0.011890 -0.004392 0.000000 0.000000 0.000000
# 3 -0.002951 -0.004392 0.011117 0.000000 0.000000 0.000000
# 4 0.000000 0.000000 0.000000 0.052289 0.000000 0.000000
# 5 0.000000 0.000000 0.000000 0.000000 0.356565 0.000000
# 6 0.000000 0.000000 0.000000 0.000000 0.000000 0.454032
#
#
# Mechanical properties :
#
#
# Convention : Reuss Voigt Hill
#
# Bulk Modulus (GPa) = 48.27522 74.73836 61.50679
# Shear Modulus (GPa) = 5.21628 16.24347 10.72988
#
# Velocity S-wave (km/s) = 1.86591 3.29268 2.67613
# Velocity P-wave (km/s) = 6.07154 8.02122 7.11349
#
# Compressibility (1/GPa) = 0.02071456
#
# Stress axis : x y z
#
# Youngs Moduli (GPa) = 31.52198 84.10189 89.95547
#
# Poissons Ratio (x) = 0.81287 0.26542
# Poissons Ratio (y) = 0.30467 0.39511
# Poissons Ratio (z) = 0.09301 0.36940
#
# Static dielectric constant tensor:
#      x y z
#    x 1.465580 0.000000 0.000000 
#    y 0.000000 1.496510 0.000000 
#    z 0.000000 0.000000 1.487560 
# 
# From -- ./inp_files/47532.got.cif
#   From: 2010.05.17/outbox.cif.g08.bks.cpg/sg65_24_cif.got.tgz:47532.got - 2010.06.03 17:01:31.
