data_PCOD9485079
_publ_section_title
;
Structure prediction by ZEFSAII (Michael W. Deem and Ramdas Pophale) SiO2 
 PCOD9485079
Probable space group: C M M M
;
_chemical_formula_sum "Si O2"
_cell_formula_units_Z 88
_cell_length_a 7.390106
_cell_length_b 19.023044
_cell_length_c 29.472129
_cell_angle_alpha 90.000000
_cell_angle_beta 90.000000
_cell_angle_gamma 90.000000
_cell_volume 4143.260023
_symmetry_space_group_name_H-M "C M M M"
_symmetry_group_IT_number 65
_symmetry_cell_setting 'orthorhombic'
loop_
_space_group_symop_operation_xyz
x,y,z
-x,-y,z
x,-y,-z
-x,y,-z
-x,-y,-z
x,y,-z
-x,y,z
x,-y,z
1/2+x,1/2+y,z
1/2-x,1/2-y,z
1/2+x,1/2-y,-z
1/2-x,1/2+y,-z
1/2-x,1/2-y,-z
1/2+x,1/2+y,-z
1/2-x,1/2+y,z
1/2+x,1/2-y,z
loop_
_atom_site_type_symbol
_atom_site_label
_atom_site_fract_x
_atom_site_fract_y
_atom_site_fract_z
Si Si1 0.716129 0.667246 0.137408
Si Si2 0.283704 0.667767 0.311949
Si Si3 0.278482 0.418812 0.225254
Si Si4 0.716170 0.667896 0.586538
Si Si5 0.721590 0.419041 0.500000
Si Si6 0.279535 0.581202 0.051064
O O1 0.500000 0.657758 0.137057
O O2 0.750000 0.750000 0.139986
O O3 0.782549 0.625711 0.181681
O O4 0.784310 0.632135 0.090892
O O5 0.500000 0.658685 0.313593
O O6 0.250000 0.750000 0.302069
O O7 0.216787 0.618735 0.271500
O O8 0.213306 0.652525 0.362718
O O9 0.500000 0.417755 0.225411
O O10 0.223960 0.500000 0.222542
O O11 0.500000 0.658071 0.588242
O O12 0.750000 0.750000 0.577140
O O13 0.783932 0.620698 0.545343
O O14 0.775017 0.500000 0.500000
O O15 0.500000 0.416717 0.500000
O O16 0.500000 0.582569 0.050823
O O17 0.228121 0.500000 0.059874
O O18 0.221270 0.600282 0.000000
#
# Coordination Sequence:
#
# PCOD9485079 Si02
#       6
#    16  16  16  16   8  16
#     4  10  19  30  46  67  90 116 145 179 218 257
#     4   9  17  29  46  67  89 113 142 177 216 257
#     4   9  17  29  46  67  88 112 146 184 216 250
#     4   9  17  29  46  66  87 114 145 176 213 257
#     4   9  17  28  43  65  90 113 142 182 220 251
#     4   8  14  26  45  67  88 112 146 184 216 250
#
# _framework density 21.239315000000001
#
# number of rings (size 3 to 8) (size 9 to 14) (size 15 to 20)
#    0.000    3.000    0.000    1.909    0.000    3.273 
#    0.000    3.636    0.000    4.909    0.000    6.364 
#    0.000    0.000    0.000    0.000    0.000    0.000 
#
# Total GULP energy -245671.304899 kJ/mol
# GULP energy per Si atom -5583.438748 kJ/mol
# Density = 2.119097 g / cm^3
# Si number density = 21.239315 Si / 1000 Ang^3
#
#
#
# Elastic Constant Matrix: (Units=GPa)
#
#
# Indices 1 2 3 4 5 6 
#
# 1 74.2673 -1.0062 9.9322 0.0000 0.0000 0.0000
# 2 -1.0062 185.4203 175.8988 0.0000 0.0000 0.0000
# 3 9.9322 175.8988 239.3313 0.0000 0.0000 0.0000
# 4 0.0000 0.0000 0.0000 70.7265 0.0000 0.0000
# 5 0.0000 0.0000 0.0000 0.0000 -32.3157 0.0000
# 6 0.0000 0.0000 0.0000 0.0000 0.0000 19.2985
#
#
#
# Elastic Compliance Matrix: (Units=1/GPa)
#
#
# Indices 1 2 3 4 5 6 
#
# 1 0.013769 0.002037 -0.002069 0.000000 0.000000 0.000000
# 2 0.002037 0.018113 -0.013397 0.000000 0.000000 0.000000
# 3 -0.002069 -0.013397 0.014111 0.000000 0.000000 0.000000
# 4 0.000000 0.000000 0.000000 0.014139 0.000000 0.000000
# 5 0.000000 0.000000 0.000000 0.000000 -0.030945 0.000000
# 6 0.000000 0.000000 0.000000 0.000000 0.000000 0.051817
#
#
# Mechanical properties :
#
#
# Convention : Reuss Voigt Hill
#
# Bulk Modulus (GPa) = 52.25824 96.51871 74.38848
# Shear Modulus (GPa) = 43.76725 32.48815 38.12770
#
# Velocity S-wave (km/s) = 4.54439 3.91528 4.24151
# Velocity P-wave (km/s) = 7.22448 8.12289 7.68682
#
# Compressibility (1/GPa) = 0.01913574
#
# Stress axis : x y z
#
# Youngs Moduli (GPa) = 72.62626 55.20761 70.86898
#
# Poissons Ratio (x) = -0.11246 0.14660
# Poissons Ratio (y) = -0.14795 0.94945
# Poissons Ratio (z) = 0.15023 0.73963
#
# Static dielectric constant tensor:
#      x y z
#    x 1.843200 0.000000 0.000000 
#    y 0.000000 1.697110 0.000000 
#    z 0.000000 0.000000 1.762220 
# 
# From -- ./inp_files/74265.got.cif
#   From: 2010.05.17/outbox.cif.g08.bks.cpg/sg65_38_cif.got.tgz:74265.got - 2010.06.03 17:01:31.
