data_PCOD9485460
_publ_section_title
;
Structure prediction by ZEFSAII (Michael W. Deem and Ramdas Pophale) SiO2 
 PCOD9485460
Probable space group: C M M M
;
_chemical_formula_sum "Si O2"
_cell_formula_units_Z 88
_cell_length_a 28.006938
_cell_length_b 8.507489
_cell_length_c 21.991413
_cell_angle_alpha 90.000000
_cell_angle_beta 90.000000
_cell_angle_gamma 90.000000
_cell_volume 5239.865760
_symmetry_space_group_name_H-M "C M M M"
_symmetry_group_IT_number 65
_symmetry_cell_setting 'orthorhombic'
loop_
_space_group_symop_operation_xyz
x,y,z
-x,-y,z
x,-y,-z
-x,y,-z
-x,-y,-z
x,y,-z
-x,y,z
x,-y,z
1/2+x,1/2+y,z
1/2-x,1/2-y,z
1/2+x,1/2-y,-z
1/2-x,1/2+y,-z
1/2-x,1/2-y,-z
1/2+x,1/2+y,-z
1/2-x,1/2+y,z
1/2+x,1/2-y,z
loop_
_atom_site_type_symbol
_atom_site_label
_atom_site_fract_x
_atom_site_fract_y
_atom_site_fract_z
Si Si1 0.055654 0.691432 0.932502
Si Si2 0.801608 0.311777 0.743808
Si Si3 0.850208 0.811435 0.376847
Si Si4 0.553529 0.689777 0.687611
Si Si5 0.695868 0.186710 0.500000
Si Si6 0.397965 0.190031 0.191713
O O1 0.057290 0.500000 0.932609
O O2 0.085734 0.745820 0.874618
O O3 0.000000 0.734683 0.924610
O O4 0.071204 0.743532 0.000000
O O5 0.800787 0.500000 0.739832
O O6 0.750000 0.250000 0.762128
O O7 0.816167 0.243866 0.678057
O O8 0.844279 0.264533 0.789344
O O9 0.903782 0.759293 0.357441
O O10 0.831567 0.744630 0.440016
O O11 0.849522 0.000000 0.379704
O O12 0.500000 0.742896 0.671712
O O13 0.553831 0.500000 0.687942
O O14 0.567941 0.747554 0.754791
O O15 0.750000 0.250000 0.500000
O O16 0.697875 0.000000 0.500000
O O17 0.400599 0.000000 0.192609
#
# Coordination Sequence:
#
# PCOD9485460 Si02
#       6
#    16  16  16  16   8  16
#     4   8  13  22  39  65  94 120 148 186 231 275
#     4  10  19  31  47  68  93 120 153 193 237 280
#     4  10  20  35  53  73  97 124 155 189 227 272
#     4   9  18  32  50  72  98 127 156 187 226 273
#     4  12  24  38  55  74  97 123 154 191 233 278
#     4   9  17  28  45  69  93 120 156 196 234 273
#
# _framework density 16.794322999999999
#
# number of rings (size 3 to 8) (size 9 to 14) (size 15 to 20)
#    0.000    2.545    0.000    3.545    0.000    2.545 
#    0.000    0.455    0.000    3.818    0.000    2.545 
#    0.000    0.000    0.000    0.000    0.000    0.545 
#
# Total GULP energy -245352.133390 kJ/mol
# GULP energy per Si atom -5576.184850 kJ/mol
# Density = 1.675610 g / cm^3
# Si number density = 16.794323 Si / 1000 Ang^3
#
#
#
# Elastic Constant Matrix: (Units=GPa)
#
#
# Indices 1 2 3 4 5 6 
#
# 1 126.5288 24.8350 79.7293 0.0000 0.0000 0.0000
# 2 24.8350 31.3019 26.7481 0.0000 0.0000 0.0000
# 3 79.7293 26.7481 160.1386 0.0000 0.0000 0.0000
# 4 0.0000 0.0000 0.0000 8.8032 0.0000 0.0000
# 5 0.0000 0.0000 0.0000 0.0000 16.1448 0.0000
# 6 0.0000 0.0000 0.0000 0.0000 0.0000 17.1561
#
#
#
# Elastic Compliance Matrix: (Units=1/GPa)
#
#
# Indices 1 2 3 4 5 6 
#
# 1 0.012212 -0.005241 -0.005204 0.000000 0.000000 0.000000
# 2 -0.005241 0.039516 -0.003991 0.000000 0.000000 0.000000
# 3 -0.005204 -0.003991 0.009502 0.000000 0.000000 0.000000
# 4 0.000000 0.000000 0.000000 0.113595 0.000000 0.000000
# 5 0.000000 0.000000 0.000000 0.000000 0.061939 0.000000
# 6 0.000000 0.000000 0.000000 0.000000 0.000000 0.058288
#
#
# Mechanical properties :
#
#
# Convention : Reuss Voigt Hill
#
# Bulk Modulus (GPa) = 30.90578 64.51045 47.70812
# Shear Modulus (GPa) = 14.93828 20.86463 17.90146
#
# Velocity S-wave (km/s) = 2.98566 3.52854 3.26839
# Velocity P-wave (km/s) = 5.50709 7.42268 6.53545
#
# Compressibility (1/GPa) = 0.03235640
#
# Stress axis : x y z
#
# Youngs Moduli (GPa) = 81.88980 25.30642 105.23768
#
# Poissons Ratio (x) = 0.13264 0.54769
# Poissons Ratio (y) = 0.42922 0.41998
# Poissons Ratio (z) = 0.42618 0.10099
#
# Static dielectric constant tensor:
#      x y z
#    x 1.569540 0.000000 0.000000 
#    y 0.000000 1.570230 0.000000 
#    z 0.000000 0.000000 1.549680 
# 
# From -- ./inp_files/57968.got.cif
#   From: 2010.05.17/outbox.cif.g08.bks.cpg/sg65_29_cif.got.tgz:57968.got - 2010.06.03 17:01:31.
