data_PCOD9485583
_publ_section_title
;
Structure prediction by ZEFSAII (Michael W. Deem and Ramdas Pophale) SiO2 
 PCOD9485583
Probable space group: C M M M
;
_chemical_formula_sum "Si O2"
_cell_formula_units_Z 88
_cell_length_a 8.208949
_cell_length_b 19.762235
_cell_length_c 30.029021
_cell_angle_alpha 90.000000
_cell_angle_beta 90.000000
_cell_angle_gamma 90.000000
_cell_volume 4871.523372
_symmetry_space_group_name_H-M "C M M M"
_symmetry_group_IT_number 65
_symmetry_cell_setting 'orthorhombic'
loop_
_space_group_symop_operation_xyz
x,y,z
-x,-y,z
x,-y,-z
-x,y,-z
-x,-y,-z
x,y,-z
-x,y,z
x,-y,z
1/2+x,1/2+y,z
1/2-x,1/2-y,z
1/2+x,1/2-y,-z
1/2-x,1/2+y,-z
1/2-x,1/2-y,-z
1/2+x,1/2+y,-z
1/2-x,1/2+y,z
1/2+x,1/2-y,z
loop_
_atom_site_type_symbol
_atom_site_label
_atom_site_fract_x
_atom_site_fract_y
_atom_site_fract_z
Si Si1 0.303215 0.828539 0.904230
Si Si2 0.302820 0.171113 0.000000
Si Si3 0.803084 0.327055 0.449995
Si Si4 0.303571 0.077476 0.629356
Si Si5 0.805656 0.077395 0.726827
Si Si6 0.804960 0.672040 0.806930
O O1 0.500000 0.831724 0.904344
O O2 0.250000 0.750000 0.904488
O O3 0.246676 0.857779 0.952070
O O4 0.247038 0.854178 0.855843
O O5 0.250000 0.250000 0.000000
O O6 0.500000 0.168803 0.000000
O O7 0.748633 0.346722 0.500000
O O8 0.750000 0.250000 0.442261
O O9 0.743317 0.375708 0.410774
O O10 0.000000 0.329183 0.449835
O O11 0.500000 0.076438 0.627310
O O12 0.255084 0.101708 0.678532
O O13 0.244940 0.000000 0.624694
O O14 0.753650 0.125562 0.766829
O O15 0.000000 0.075318 0.725479
O O16 0.744159 0.000000 0.733058
O O17 0.750000 0.750000 0.801720
O O18 0.000000 0.671658 0.807143
#
# Coordination Sequence:
#
# PCOD9485583 Si02
#       6
#    16   8  16  16  16  16
#     4   8  14  23  37  59  87 118 149 184 226 273
#     4   8  12  20  34  54  83 116 147 179 221 271
#     4   9  18  32  50  73 100 128 156 187 226 273
#     4   9  18  33  52  72  94 122 157 196 235 276
#     4  10  21  36  52  70  94 125 161 201 244 288
#     4  10  19  31  48  71  98 126 158 196 238 284
#
# _framework density 18.064164999999999
#
# number of rings (size 3 to 8) (size 9 to 14) (size 15 to 20)
#    0.000    2.909    0.000    1.091    0.000    3.636 
#    0.000    3.636    0.000    0.000    0.000    5.727 
#    0.000    5.091    0.000    0.000    0.000    0.364 
#
# Total GULP energy -244953.391413 kJ/mol
# GULP energy per Si atom -5567.122532 kJ/mol
# Density = 1.802305 g / cm^3
# Si number density = 18.064165 Si / 1000 Ang^3
#
#
#
# Elastic Constant Matrix: (Units=GPa)
#
#
# Indices 1 2 3 4 5 6 
#
# 1 13.8598 6.6873 16.8977 0.0000 0.0000 0.0000
# 2 6.6873 46.7186 86.3886 0.0000 0.0000 0.0000
# 3 16.8977 86.3886 236.1017 0.0000 0.0000 0.0000
# 4 0.0000 0.0000 0.0000 -16.5849 0.0000 0.0000
# 5 0.0000 0.0000 0.0000 0.0000 13.7206 0.0000
# 6 0.0000 0.0000 0.0000 0.0000 0.0000 17.7013
#
#
#
# Elastic Compliance Matrix: (Units=1/GPa)
#
#
# Indices 1 2 3 4 5 6 
#
# 1 0.079154 -0.002643 -0.004698 0.000000 0.000000 0.000000
# 2 -0.002643 0.066272 -0.024059 0.000000 0.000000 0.000000
# 3 -0.004698 -0.024059 0.013375 0.000000 0.000000 0.000000
# 4 0.000000 0.000000 0.000000 -0.060296 0.000000 0.000000
# 5 0.000000 0.000000 0.000000 0.000000 0.072883 0.000000
# 6 0.000000 0.000000 0.000000 0.000000 0.000000 0.056493
#
#
# Mechanical properties :
#
#
# Convention : Reuss Voigt Hill
#
# Bulk Modulus (GPa) = 10.41667 57.40303 33.90985
# Shear Modulus (GPa) = 15.49508 15.41449 15.45479
#
# Velocity S-wave (km/s) = 2.93197 2.92433 2.92815
# Velocity P-wave (km/s) = 4.15222 6.57636 5.49952
#
# Compressibility (1/GPa) = 0.09600000
#
# Stress axis : x y z
#
# Youngs Moduli (GPa) = 12.63357 15.08931 74.76666
#
# Poissons Ratio (x) = 0.03988 0.35124
# Poissons Ratio (y) = 0.03339 1.79885
# Poissons Ratio (z) = 0.05935 0.36304
#
# Static dielectric constant tensor:
#      x y z
#    x 1.636510 0.000000 0.000000 
#    y 0.000000 1.547380 0.000000 
#    z 0.000000 0.000000 1.676660 
# 
# From -- ./inp_files/76710.got.cif
#   From: 2010.05.17/outbox.cif.g08.bks.cpg/sg65_39_cif.got.tgz:76710.got - 2010.06.03 17:01:31.
