data_PCOD9485950
_publ_section_title
;
Structure prediction by ZEFSAII (Michael W. Deem and Ramdas Pophale) SiO2 
 PCOD9485950
Probable space group: C M M M
;
_chemical_formula_sum "Si O2"
_cell_formula_units_Z 72
_cell_length_a 18.669452
_cell_length_b 7.833248
_cell_length_c 23.931553
_cell_angle_alpha 90.000000
_cell_angle_beta 90.000000
_cell_angle_gamma 90.000000
_cell_volume 3499.808884
_symmetry_space_group_name_H-M "C M M M"
_symmetry_group_IT_number 65
_symmetry_cell_setting 'orthorhombic'
loop_
_space_group_symop_operation_xyz
x,y,z
-x,-y,z
x,-y,-z
-x,y,-z
-x,-y,-z
x,y,-z
-x,y,z
x,-y,z
1/2+x,1/2+y,z
1/2-x,1/2-y,z
1/2+x,1/2-y,-z
1/2-x,1/2+y,-z
1/2-x,1/2-y,-z
1/2+x,1/2+y,-z
1/2-x,1/2+y,z
1/2+x,1/2-y,z
loop_
_atom_site_type_symbol
_atom_site_label
_atom_site_fract_x
_atom_site_fract_y
_atom_site_fract_z
Si Si1 0.582948 0.290930 0.389381
Si Si2 0.832503 0.296399 0.937475
Si Si3 0.419245 0.703952 0.828620
Si Si4 0.333585 0.705513 0.500000
Si Si5 0.666710 0.294272 0.278832
O O1 0.500000 0.238030 0.390477
O O2 0.583228 0.500000 0.389430
O O3 0.626035 0.233543 0.444228
O O4 0.623317 0.234123 0.333266
O O5 0.837708 0.500000 0.938953
O O6 0.750000 0.250000 0.925386
O O7 0.883199 0.233982 0.888357
O O8 0.849533 0.229979 0.000000
O O9 0.500000 0.772955 0.826178
O O10 0.423585 0.500000 0.821065
O O11 0.369993 0.770749 0.778130
O O12 0.338799 0.500000 0.500000
O O13 0.250000 0.750000 0.500000
O O14 0.661984 0.500000 0.278638
O O15 0.750000 0.250000 0.281740
#
# Coordination Sequence:
#
# PCOD9485950 Si02
#       5
#    16  16  16   8  16
#     4   9  17  31  52  76 101 132 173 216 254 298
#     4  10  21  37  57  80 106 137 173 213 258 308
#     4  10  21  36  54  77 105 138 175 214 259 310
#     4  10  19  31  51  77 103 134 172 212 254 302
#     4  10  20  34  53  76 103 135 171 213 259 307
#
# _framework density 20.572552000000002
#
# number of rings (size 3 to 8) (size 9 to 14) (size 15 to 20)
#    0.000    2.222    0.000    3.000    0.000    8.889 
#    0.000    2.222    0.000    4.667    0.000    0.000 
#    0.000    0.000    0.000    0.000    0.000    0.000 
#
# Total GULP energy -201109.654164 kJ/mol
# GULP energy per Si atom -5586.379282 kJ/mol
# Density = 2.052573 g / cm^3
# Si number density = 20.572552 Si / 1000 Ang^3
#
#
#
# Elastic Constant Matrix: (Units=GPa)
#
#
# Indices 1 2 3 4 5 6 
#
# 1 216.4605 2.7021 141.5462 0.0000 0.0000 0.0000
# 2 2.7021 24.0093 7.9640 0.0000 0.0000 0.0000
# 3 141.5462 7.9640 187.9570 0.0000 0.0000 0.0000
# 4 0.0000 0.0000 0.0000 -22.3053 0.0000 0.0000
# 5 0.0000 0.0000 0.0000 0.0000 15.3522 0.0000
# 6 0.0000 0.0000 0.0000 0.0000 0.0000 27.6898
#
#
#
# Elastic Compliance Matrix: (Units=1/GPa)
#
#
# Indices 1 2 3 4 5 6 
#
# 1 0.009140 0.001272 -0.006937 0.000000 0.000000 0.000000
# 2 0.001272 0.042421 -0.002756 0.000000 0.000000 0.000000
# 3 -0.006937 -0.002756 0.010661 0.000000 0.000000 0.000000
# 4 0.000000 0.000000 0.000000 -0.044832 0.000000 0.000000
# 5 0.000000 0.000000 0.000000 0.000000 0.065137 0.000000
# 6 0.000000 0.000000 0.000000 0.000000 0.000000 0.036114
#
#
# Mechanical properties :
#
#
# Convention : Reuss Voigt Hill
#
# Bulk Modulus (GPa) = 22.03513 81.42795 51.73154
# Shear Modulus (GPa) = 33.19821 22.56164 27.87992
#
# Velocity S-wave (km/s) = 4.02146 3.31522 3.68530
# Velocity P-wave (km/s) = 5.68305 7.37028 6.58096
#
# Compressibility (1/GPa) = 0.04538207
#
# Stress axis : x y z
#
# Youngs Moduli (GPa) = 109.40646 23.57300 93.79639
#
# Poissons Ratio (x) = -0.03000 0.65069
# Poissons Ratio (y) = -0.13921 0.25848
# Poissons Ratio (z) = 0.75898 0.06496
#
# Static dielectric constant tensor:
#      x y z
#    x 1.681490 0.000000 0.000000 
#    y 0.000000 1.764650 0.000000 
#    z 0.000000 0.000000 1.725180 
# 
# From -- ./inp_files/70323.got.cif
#   From: 2010.05.17/outbox.cif.g08.bks.cpg/sg65_36_cif.got.tgz:70323.got - 2010.06.03 17:01:31.
