data_PCOD9485723
_publ_section_title
;
Structure prediction by ZEFSAII (Michael W. Deem and Ramdas Pophale) SiO2 
 PCOD9485723
Probable space group: C M M M
;
_chemical_formula_sum "Si O2"
_cell_formula_units_Z 104
_cell_length_a 23.537029
_cell_length_b 28.379026
_cell_length_c 9.512935
_cell_angle_alpha 90.000000
_cell_angle_beta 90.000000
_cell_angle_gamma 90.000000
_cell_volume 6354.240637
_symmetry_space_group_name_H-M "C M M M"
_symmetry_group_IT_number 65
_symmetry_cell_setting 'orthorhombic'
loop_
_space_group_symop_operation_xyz
x,y,z
-x,-y,z
x,-y,-z
-x,y,-z
-x,-y,-z
x,y,-z
-x,y,z
x,-y,z
1/2+x,1/2+y,z
1/2-x,1/2-y,z
1/2+x,1/2-y,-z
1/2-x,1/2+y,-z
1/2-x,1/2-y,-z
1/2+x,1/2+y,-z
1/2-x,1/2+y,z
1/2+x,1/2-y,z
loop_
_atom_site_type_symbol
_atom_site_label
_atom_site_fract_x
_atom_site_fract_y
_atom_site_fract_z
Si Si1 0.433624 0.740684 0.332735
Si Si2 0.749052 0.693164 0.332638
Si Si3 0.069254 0.500000 0.339245
Si Si4 0.639088 0.183184 0.834931
Si Si5 0.370847 0.353450 0.330390
Si Si6 0.933745 0.589039 0.162696
Si Si7 0.433889 0.446379 0.328759
O O1 0.422486 0.747724 0.500000
O O2 0.500000 0.749594 0.306753
O O3 0.394039 0.774968 0.243552
O O4 0.417195 0.686868 0.299149
O O5 0.756855 0.684835 0.500000
O O6 0.750000 0.750000 0.313974
O O7 0.801397 0.674985 0.241900
O O8 0.690178 0.668154 0.287598
O O9 0.087042 0.500000 0.500000
O O10 0.087700 0.452972 0.260021
O O11 0.000000 0.500000 0.333896
O O12 0.601203 0.136511 0.821604
O O13 0.646651 0.193851 0.000000
O O14 0.367824 0.356907 0.500000
O O15 0.392566 0.404376 0.278853
O O16 0.000000 0.598359 0.195721
O O17 0.931022 0.573711 0.000000
O O18 0.432515 0.445993 0.500000
O O19 0.500000 0.437376 0.289794
O O20 0.419051 0.500000 0.284958
#
# Coordination Sequence:
#
# PCOD9485723 Si02
#       7
#    16  16   8  16  16  16  16
#     4  10  19  31  49  73 101 132 165 201 246 302
#     4  10  19  34  52  68  93 131 173 211 250 297
#     4   9  17  29  49  77 101 121 153 199 242 285
#     4  11  22  34  50  72 100 132 169 210 249 297
#     4   9  16  28  46  67  94 132 169 202 244 300
#     4   9  18  33  51  70  96 131 163 194 244 305
#     4   8  13  22  40  69 101 128 157 198 249 303
#
# _framework density 16.367021999999999
#
# number of rings (size 3 to 8) (size 9 to 14) (size 15 to 20)
#    0.000    2.538    1.538    2.077    0.000    5.231 
#    0.000    1.538    1.692    0.000    0.000    0.000 
#    0.000    1.846    0.000    8.462    0.000    7.692 
#
# Total GULP energy -289706.762669 kJ/mol
# GULP energy per Si atom -5571.283897 kJ/mol
# Density = 1.632977 g / cm^3
# Si number density = 16.367022 Si / 1000 Ang^3
#
#
#
# Elastic Constant Matrix: (Units=GPa)
#
#
# Indices 1 2 3 4 5 6 
#
# 1 89.1495 50.7618 31.6331 0.0000 0.0000 0.0000
# 2 50.7618 105.6416 34.6883 0.0000 0.0000 0.0000
# 3 31.6331 34.6883 32.0610 0.0000 0.0000 0.0000
# 4 0.0000 0.0000 0.0000 17.0135 0.0000 0.0000
# 5 0.0000 0.0000 0.0000 0.0000 17.5494 0.0000
# 6 0.0000 0.0000 0.0000 0.0000 0.0000 14.3485
#
#
#
# Elastic Compliance Matrix: (Units=1/GPa)
#
#
# Indices 1 2 3 4 5 6 
#
# 1 0.018545 -0.004502 -0.013426 0.000000 0.000000 0.000000
# 2 -0.004502 0.015775 -0.012626 0.000000 0.000000 0.000000
# 3 -0.013426 -0.012626 0.058097 0.000000 0.000000 0.000000
# 4 0.000000 0.000000 0.000000 0.058777 0.000000 0.000000
# 5 0.000000 0.000000 0.000000 0.000000 0.056982 0.000000
# 6 0.000000 0.000000 0.000000 0.000000 0.000000 0.069694
#
#
# Mechanical properties :
#
#
# Convention : Reuss Voigt Hill
#
# Bulk Modulus (GPa) = 31.93902 51.22428 41.58165
# Shear Modulus (GPa) = 14.30966 17.10019 15.70493
#
# Velocity S-wave (km/s) = 2.96006 3.23584 3.10102
# Velocity P-wave (km/s) = 5.58921 6.73246 6.18730
#
# Compressibility (1/GPa) = 0.03130966
#
# Stress axis : x y z
#
# Youngs Moduli (GPa) = 53.92368 63.39098 17.21246
#
# Poissons Ratio (x) = 0.28541 0.23109
# Poissons Ratio (y) = 0.24279 0.21732
# Poissons Ratio (z) = 0.72397 0.80034
#
# Static dielectric constant tensor:
#      x y z
#    x 1.552120 0.000000 0.000000 
#    y 0.000000 1.552350 0.000000 
#    z 0.000000 0.000000 1.535530 
# 
# From -- ./inp_files/14724.got.cif
#   From: 2010.05.17/outbox.cif.g08.bks.cpg/sg65_8_cif.got.tgz:14724.got - 2010.06.03 17:01:31.
