data_PCOD9485507
_publ_section_title
;
Structure prediction by ZEFSAII (Michael W. Deem and Ramdas Pophale) SiO2 
 PCOD9485507
Probable space group: C M M M
;
_chemical_formula_sum "Si O2"
_cell_formula_units_Z 88
_cell_length_a 24.197846
_cell_length_b 13.607653
_cell_length_c 14.472692
_cell_angle_alpha 90.000000
_cell_angle_beta 90.000000
_cell_angle_gamma 90.000000
_cell_volume 4765.508564
_symmetry_space_group_name_H-M "C M M M"
_symmetry_group_IT_number 65
_symmetry_cell_setting 'orthorhombic'
loop_
_space_group_symop_operation_xyz
x,y,z
-x,-y,z
x,-y,-z
-x,y,-z
-x,-y,-z
x,y,-z
-x,y,z
x,-y,z
1/2+x,1/2+y,z
1/2-x,1/2-y,z
1/2+x,1/2-y,-z
1/2-x,1/2+y,-z
1/2-x,1/2-y,-z
1/2+x,1/2+y,-z
1/2-x,1/2+y,z
1/2+x,1/2-y,z
loop_
_atom_site_type_symbol
_atom_site_label
_atom_site_fract_x
_atom_site_fract_y
_atom_site_fract_z
Si Si1 0.566054 0.000000 0.893566
Si Si2 0.728476 0.115222 0.105851
Si Si3 0.844596 0.885687 0.792532
Si Si4 0.782865 0.880996 0.397601
Si Si5 0.878345 0.684883 0.794797
Si Si6 0.845134 0.618165 0.604856
O O1 0.587809 0.900151 0.846055
O O2 0.500000 0.000000 0.890805
O O3 0.585030 0.000000 0.000000
O O4 0.791209 0.122114 0.140653
O O5 0.685106 0.167350 0.172307
O O6 0.714135 0.000000 0.110168
O O7 0.722666 0.147935 0.000000
O O8 0.820977 0.860542 0.690063
O O9 0.887975 0.799789 0.815963
O O10 0.862850 0.000000 0.794333
O O11 0.802181 0.849514 0.500000
O O12 0.719091 0.849099 0.385660
O O13 0.779906 0.000000 0.399730
O O14 0.880826 0.664298 0.685824
O O15 0.862876 0.638207 0.500000
O O16 0.845616 0.500000 0.617751
#
# Coordination Sequence:
#
# PCOD9485507 Si02
#       6
#     8  16  16  16  16  16
#     4  11  26  46  67  87 101 125 178 244 298 338
#     4  10  19  31  47  71 104 142 181 219 264 324
#     4  10  21  32  46  76 116 151 183 216 253 321
#     4   8  14  26  42  65 108 158 195 224 248 292
#     4  12  20  34  57  77 105 143 182 225 277 326
#     4   9  16  27  46  75 109 146 188 225 266 320
#
# _framework density 18.466024999999998
#
# number of rings (size 3 to 8) (size 9 to 14) (size 15 to 20)
#    0.000    2.091    3.636    2.182    0.000    2.909 
#    0.000    1.818    0.000    1.636    0.000    1.273 
#    0.000    0.000    0.000    6.182    0.000    0.000 
#
# Total GULP energy -245505.780217 kJ/mol
# GULP energy per Si atom -5579.676823 kJ/mol
# Density = 1.842400 g / cm^3
# Si number density = 18.466025 Si / 1000 Ang^3
#
#
#
# Elastic Constant Matrix: (Units=GPa)
#
#
# Indices 1 2 3 4 5 6 
#
# 1 20.2321 30.2009 11.7810 0.0000 0.0000 0.0000
# 2 30.2009 124.0394 26.9600 0.0000 0.0000 0.0000
# 3 11.7810 26.9600 98.3645 0.0000 0.0000 0.0000
# 4 0.0000 0.0000 0.0000 2.5750 0.0000 0.0000
# 5 0.0000 0.0000 0.0000 0.0000 7.5421 0.0000
# 6 0.0000 0.0000 0.0000 0.0000 0.0000 9.4808
#
#
#
# Elastic Compliance Matrix: (Units=1/GPa)
#
#
# Indices 1 2 3 4 5 6 
#
# 1 0.079462 -0.018373 -0.004481 0.000000 0.000000 0.000000
# 2 -0.018373 0.012821 -0.001313 0.000000 0.000000 0.000000
# 3 -0.004481 -0.001313 0.011063 0.000000 0.000000 0.000000
# 4 0.000000 0.000000 0.000000 0.388349 0.000000 0.000000
# 5 0.000000 0.000000 0.000000 0.000000 0.132589 0.000000
# 6 0.000000 0.000000 0.000000 0.000000 0.000000 0.105476
#
#
# Mechanical properties :
#
#
# Convention : Reuss Voigt Hill
#
# Bulk Modulus (GPa) = 18.17854 42.27996 30.22925
# Shear Modulus (GPa) = 6.27799 15.49919 10.88859
#
# Velocity S-wave (km/s) = 1.84584 2.90027 2.43092
# Velocity P-wave (km/s) = 3.79586 5.84476 4.92797
#
# Compressibility (1/GPa) = 0.05500991
#
# Stress axis : x y z
#
# Youngs Moduli (GPa) = 12.58464 77.99753 90.39160
#
# Poissons Ratio (x) = 1.43307 0.40507
# Poissons Ratio (y) = 0.23122 0.11872
# Poissons Ratio (z) = 0.05640 0.10245
#
# Static dielectric constant tensor:
#      x y z
#    x 1.582510 0.000000 0.000000 
#    y 0.000000 1.744040 0.000000 
#    z 0.000000 0.000000 1.663840 
# 
# From -- ./inp_files/40235.got.cif
#   From: 2010.05.17/outbox.cif.g08.bks.cpg/sg65_21_cif.got.tgz:40235.got - 2010.06.03 17:01:31.
