data_PCOD9485685
_publ_section_title
;
Structure prediction by ZEFSAII (Michael W. Deem and Ramdas Pophale) SiO2 
 PCOD9485685
Probable space group: C M M M
;
_chemical_formula_sum "Si O2"
_cell_formula_units_Z 80
_cell_length_a 8.024521
_cell_length_b 19.768579
_cell_length_c 26.398908
_cell_angle_alpha 90.000000
_cell_angle_beta 90.000000
_cell_angle_gamma 90.000000
_cell_volume 4187.747934
_symmetry_space_group_name_H-M "C M M M"
_symmetry_group_IT_number 65
_symmetry_cell_setting 'orthorhombic'
loop_
_space_group_symop_operation_xyz
x,y,z
-x,-y,z
x,-y,-z
-x,y,-z
-x,-y,-z
x,y,-z
-x,y,z
x,-y,z
1/2+x,1/2+y,z
1/2-x,1/2-y,z
1/2+x,1/2-y,-z
1/2-x,1/2+y,-z
1/2-x,1/2-y,-z
1/2+x,1/2+y,-z
1/2-x,1/2+y,z
1/2+x,1/2-y,z
loop_
_atom_site_type_symbol
_atom_site_label
_atom_site_fract_x
_atom_site_fract_y
_atom_site_fract_z
Si Si1 0.301809 0.327805 0.760686
Si Si2 0.296469 0.078219 0.556652
Si Si3 0.698708 0.827542 0.352996
Si Si4 0.295569 0.422053 0.852025
Si Si5 0.700920 0.325941 0.057645
O O1 0.500000 0.329040 0.763275
O O2 0.250000 0.250000 0.769762
O O3 0.252165 0.347309 0.703646
O O4 0.237832 0.379120 0.803331
O O5 0.244486 0.099858 0.500000
O O6 0.500000 0.079701 0.557115
O O7 0.235212 0.125028 0.602159
O O8 0.247743 0.000000 0.563755
O O9 0.500000 0.830676 0.354189
O O10 0.750000 0.750000 0.361044
O O11 0.500000 0.422150 0.851778
O O12 0.242103 0.500000 0.851116
O O13 0.241682 0.381665 0.902274
O O14 0.500000 0.328647 0.056484
O O15 0.750000 0.250000 0.073549
O O16 0.762074 0.336490 0.000000
#
# Coordination Sequence:
#
# PCOD9485685 Si02
#       5
#    16  16  16  16  16
#     4  10  19  32  50  68  91 124 157 191 230 274
#     4   8  15  29  48  69  93 122 155 189 227 272
#     4  10  19  31  49  72  96 121 152 192 233 273
#     4   9  18  31  47  70  97 123 154 192 234 277
#     4   9  17  30  50  73  95 122 156 193 231 273
#
# _framework density 19.103345999999998
#
# number of rings (size 3 to 8) (size 9 to 14) (size 15 to 20)
#    0.000    2.800    0.000    3.600    0.000    1.600 
#    0.000    3.000    0.000    8.400    0.000    8.400 
#    0.000    0.000    0.000    0.000    0.000    0.000 
#
# Total GULP energy -223101.489334 kJ/mol
# GULP energy per Si atom -5577.537233 kJ/mol
# Density = 1.905987 g / cm^3
# Si number density = 19.103346 Si / 1000 Ang^3
#
#
#
# Elastic Constant Matrix: (Units=GPa)
#
#
# Indices 1 2 3 4 5 6 
#
# 1 20.2153 7.3941 10.3936 0.0000 0.0000 0.0000
# 2 7.3941 142.7362 136.7748 0.0000 0.0000 0.0000
# 3 10.3936 136.7748 179.2145 0.0000 0.0000 0.0000
# 4 0.0000 0.0000 0.0000 14.1677 0.0000 0.0000
# 5 0.0000 0.0000 0.0000 0.0000 8.5712 0.0000
# 6 0.0000 0.0000 0.0000 0.0000 0.0000 15.4704
#
#
#
# Elastic Compliance Matrix: (Units=1/GPa)
#
#
# Indices 1 2 3 4 5 6 
#
# 1 0.051007 0.000716 -0.003504 0.000000 0.000000 0.000000
# 2 0.000716 0.026085 -0.019949 0.000000 0.000000 0.000000
# 3 -0.003504 -0.019949 0.021008 0.000000 0.000000 0.000000
# 4 0.000000 0.000000 0.000000 0.070583 0.000000 0.000000
# 5 0.000000 0.000000 0.000000 0.000000 0.116670 0.000000
# 6 0.000000 0.000000 0.000000 0.000000 0.000000 0.064640
#
#
# Mechanical properties :
#
#
# Convention : Reuss Voigt Hill
#
# Bulk Modulus (GPa) = 19.00248 72.36569 45.68408
# Shear Modulus (GPa) = 12.10622 20.14876 16.12749
#
# Velocity S-wave (km/s) = 2.52012 3.25117 2.90870
# Velocity P-wave (km/s) = 4.29381 7.21505 5.93690
#
# Compressibility (1/GPa) = 0.05262470
#
# Stress axis : x y z
#
# Youngs Moduli (GPa) = 19.60497 38.33620 47.60025
#
# Poissons Ratio (x) = -0.02744 0.16681
# Poissons Ratio (y) = -0.01403 0.94959
# Poissons Ratio (z) = 0.06870 0.76478
#
# Static dielectric constant tensor:
#      x y z
#    x 1.705120 0.000000 0.000000 
#    y 0.000000 1.638290 0.000000 
#    z 0.000000 0.000000 1.681660 
# 
# From -- ./inp_files/72812.got.cif
#   From: 2010.05.17/outbox.cif.g08.bks.cpg/sg65_37_cif.got.tgz:72812.got - 2010.06.03 17:01:31.
