data_PCOD9485865
_publ_section_title
;
Structure prediction by ZEFSAII (Michael W. Deem and Ramdas Pophale) SiO2 
 PCOD9485865
Probable space group: C M M M
;
_chemical_formula_sum "Si O2"
_cell_formula_units_Z 72
_cell_length_a 27.566918
_cell_length_b 7.661136
_cell_length_c 18.207702
_cell_angle_alpha 90.000000
_cell_angle_beta 90.000000
_cell_angle_gamma 90.000000
_cell_volume 3845.355739
_symmetry_space_group_name_H-M "C M M M"
_symmetry_group_IT_number 65
_symmetry_cell_setting 'orthorhombic'
loop_
_space_group_symop_operation_xyz
x,y,z
-x,-y,z
x,-y,-z
-x,y,-z
-x,-y,-z
x,y,-z
-x,y,z
x,-y,z
1/2+x,1/2+y,z
1/2-x,1/2-y,z
1/2+x,1/2-y,-z
1/2-x,1/2+y,-z
1/2-x,1/2-y,-z
1/2+x,1/2+y,-z
1/2-x,1/2+y,z
1/2+x,1/2-y,z
loop_
_atom_site_type_symbol
_atom_site_label
_atom_site_fract_x
_atom_site_fract_y
_atom_site_fract_z
Si Si1 0.153573 0.707617 0.080530
Si Si2 0.695452 0.791118 0.232067
Si Si3 0.945539 0.210027 0.844259
Si Si4 0.558140 0.500000 0.585519
Si Si5 0.400662 0.796685 0.688423
O O1 0.162510 0.500000 0.077742
O O2 0.183389 0.779059 0.150244
O O3 0.097042 0.733244 0.100942
O O4 0.164670 0.780925 0.000000
O O5 0.750000 0.750000 0.253769
O O6 0.653128 0.734084 0.287150
O O7 0.690090 0.000000 0.228421
O O8 0.931718 0.280829 0.763649
O O9 0.000000 0.264235 0.864964
O O10 0.944421 0.000000 0.839921
O O11 0.500000 0.500000 0.591000
O O12 0.571802 0.500000 0.500000
O O13 0.578003 0.330194 0.627542
O O14 0.399532 0.000000 0.666327
#
# Coordination Sequence:
#
# PCOD9485865 Si02
#       5
#    16  16  16   8  16
#     4   9  19  34  47  67 106 147 188 239 292 346
#     4   9  19  33  55  84 106 143 197 241 291 342
#     4  10  19  31  50  75 103 140 192 241 282 336
#     4  11  24  40  62  94 125 155 189 223 277 346
#     4  10  21  38  59  86 119 153 189 238 283 332
#
# _framework density 18.723884999999999
#
# number of rings (size 3 to 8) (size 9 to 14) (size 15 to 20)
#    0.000    2.333    1.111    2.667    1.556    5.778 
#    0.000    3.333    0.000    0.667    0.000    0.000 
#    0.000    0.000    0.000    0.000    0.000    0.000 
#
# Total GULP energy -200909.991611 kJ/mol
# GULP energy per Si atom -5580.833100 kJ/mol
# Density = 1.868127 g / cm^3
# Si number density = 18.723885 Si / 1000 Ang^3
#
#
#
# Elastic Constant Matrix: (Units=GPa)
#
#
# Indices 1 2 3 4 5 6 
#
# 1 52.5439 -0.6743 10.7932 0.0000 0.0000 0.0000
# 2 -0.6743 68.7903 35.9069 0.0000 0.0000 0.0000
# 3 10.7932 35.9069 96.3654 0.0000 0.0000 0.0000
# 4 0.0000 0.0000 0.0000 16.8601 0.0000 0.0000
# 5 0.0000 0.0000 0.0000 0.0000 -12.9364 0.0000
# 6 0.0000 0.0000 0.0000 0.0000 0.0000 25.2291
#
#
#
# Elastic Compliance Matrix: (Units=1/GPa)
#
#
# Indices 1 2 3 4 5 6 
#
# 1 0.019632 0.001664 -0.002819 0.000000 0.000000 0.000000
# 2 0.001664 0.018188 -0.006963 0.000000 0.000000 0.000000
# 3 -0.002819 -0.006963 0.013288 0.000000 0.000000 0.000000
# 4 0.000000 0.000000 0.000000 0.059312 0.000000 0.000000
# 5 0.000000 0.000000 0.000000 0.000000 -0.077301 0.000000
# 6 0.000000 0.000000 0.000000 0.000000 0.000000 0.039637
#
#
# Mechanical properties :
#
#
# Convention : Reuss Voigt Hill
#
# Bulk Modulus (GPa) = 28.67734 34.41680 31.54707
# Shear Modulus (GPa) = 49.69422 17.27547 33.48485
#
# Velocity S-wave (km/s) = 5.15734 3.04080 4.23348
# Velocity P-wave (km/s) = 7.12835 5.54525 6.38604
#
# Compressibility (1/GPa) = 0.03487074
#
# Stress axis : x y z
#
# Youngs Moduli (GPa) = 50.93711 54.98135 75.25852
#
# Poissons Ratio (x) = -0.09148 0.21214
# Poissons Ratio (y) = -0.08475 0.52406
# Poissons Ratio (z) = 0.14358 0.38286
#
# Static dielectric constant tensor:
#      x y z
#    x 1.662310 0.000000 0.000000 
#    y 0.000000 1.673650 0.000000 
#    z 0.000000 0.000000 1.624260 
# 
# From -- ./inp_files/57146.got.cif
#   From: 2010.05.17/outbox.cif.g08.bks.cpg/sg65_29_cif.got.tgz:57146.got - 2010.06.03 17:01:31.
