data_PCOD9485088
_publ_section_title
;
Structure prediction by ZEFSAII (Michael W. Deem and Ramdas Pophale) SiO2 
 PCOD9485088
Probable space group: C M M M
;
_chemical_formula_sum "Si O2"
_cell_formula_units_Z 72
_cell_length_a 7.352900
_cell_length_b 18.858357
_cell_length_c 24.447558
_cell_angle_alpha 90.000000
_cell_angle_beta 90.000000
_cell_angle_gamma 90.000000
_cell_volume 3389.986726
_symmetry_space_group_name_H-M "C M M M"
_symmetry_group_IT_number 65
_symmetry_cell_setting 'orthorhombic'
loop_
_space_group_symop_operation_xyz
x,y,z
-x,-y,z
x,-y,-z
-x,y,-z
-x,-y,-z
x,y,-z
-x,y,z
x,-y,z
1/2+x,1/2+y,z
1/2-x,1/2-y,z
1/2+x,1/2-y,-z
1/2-x,1/2+y,-z
1/2-x,1/2-y,-z
1/2+x,1/2+y,-z
1/2-x,1/2+y,z
1/2+x,1/2-y,z
loop_
_atom_site_type_symbol
_atom_site_label
_atom_site_fract_x
_atom_site_fract_y
_atom_site_fract_z
Si Si1 0.778393 0.417496 0.286912
Si Si2 0.222465 0.582251 0.500000
Si Si3 0.282806 0.166246 0.939965
Si Si4 0.221294 0.582370 0.834694
Si Si5 0.282950 0.833675 0.607304
O O1 0.726416 0.500000 0.295076
O O2 0.720199 0.394284 0.226056
O O3 0.714495 0.368379 0.336368
O O4 0.000000 0.416559 0.286858
O O5 0.277399 0.500000 0.500000
O O6 0.283699 0.623909 0.554144
O O7 0.000000 0.582789 0.500000
O O8 0.500000 0.155003 0.940878
O O9 0.250000 0.250000 0.935002
O O10 0.212169 0.126503 0.886498
O O11 0.213289 0.143480 0.000000
O O12 0.270567 0.500000 0.840736
O O13 0.000000 0.585736 0.834677
O O14 0.500000 0.843401 0.607789
O O15 0.250000 0.750000 0.603680
#
# Coordination Sequence:
#
# PCOD9485088 Si02
#       5
#    16   8  16  16  16
#     4   8  14  26  44  64  85 111 144 178 210 247
#     4   9  17  30  49  69  86 111 150 186 210 241
#     4   9  17  28  42  61  85 112 140 171 210 255
#     4   8  14  25  42  64  86 107 138 181 218 245
#     4  10  19  30  46  68  92 115 141 176 215 253
#
# _framework density 21.23902
#
# number of rings (size 3 to 8) (size 9 to 14) (size 15 to 20)
#    0.000    3.222    0.000    2.333    0.000    4.000 
#    0.000    2.222    0.000    4.000    0.000    6.222 
#    0.000    0.000    0.000    0.000    0.000    0.000 
#
# Total GULP energy -200894.182012 kJ/mol
# GULP energy per Si atom -5580.393945 kJ/mol
# Density = 2.119068 g / cm^3
# Si number density = 21.239020 Si / 1000 Ang^3
#
#
#
# Elastic Constant Matrix: (Units=GPa)
#
#
# Indices 1 2 3 4 5 6 
#
# 1 79.8347 -1.4629 12.3241 0.0000 0.0000 0.0000
# 2 -1.4629 129.6544 145.5967 0.0000 0.0000 0.0000
# 3 12.3241 145.5967 284.4420 0.0000 0.0000 0.0000
# 4 0.0000 0.0000 0.0000 22.1649 0.0000 0.0000
# 5 0.0000 0.0000 0.0000 0.0000 -209.6279 0.0000
# 6 0.0000 0.0000 0.0000 0.0000 0.0000 13.5367
#
#
#
# Elastic Compliance Matrix: (Units=1/GPa)
#
#
# Indices 1 2 3 4 5 6 
#
# 1 0.012787 0.001803 -0.001477 0.000000 0.000000 0.000000
# 2 0.001803 0.018394 -0.009493 0.000000 0.000000 0.000000
# 3 -0.001477 -0.009493 0.008439 0.000000 0.000000 0.000000
# 4 0.000000 0.000000 0.000000 0.045116 0.000000 0.000000
# 5 0.000000 0.000000 0.000000 0.000000 -0.004770 0.000000
# 6 0.000000 0.000000 0.000000 0.000000 0.000000 0.073873
#
#
# Mechanical properties :
#
#
# Convention : Reuss Voigt Hill
#
# Bulk Modulus (GPa) = 46.98212 89.64965 68.31588
# Shear Modulus (GPa) = 27.89113 -12.28705 7.80204
#
# Velocity S-wave (km/s) = 3.62774 -2.40784 1.91870
# Velocity P-wave (km/s) = 6.30207 5.87973 6.09456
#
# Compressibility (1/GPa) = 0.02128469
#
# Stress axis : x y z
#
# Youngs Moduli (GPa) = 78.20520 54.36657 118.49874
#
# Poissons Ratio (x) = -0.09800 0.17498
# Poissons Ratio (y) = -0.14097 1.12493
# Poissons Ratio (z) = 0.11548 0.51611
#
# Static dielectric constant tensor:
#      x y z
#    x 1.837590 0.000000 0.000000 
#    y 0.000000 1.697370 0.000000 
#    z 0.000000 0.000000 1.774860 
# 
# From -- ./inp_files/59261.got.cif
#   From: 2010.05.17/outbox.cif.g08.bks.cpg/sg65_30_cif.got.tgz:59261.got - 2010.06.03 17:01:31.
