data_PCOD9485068
_publ_section_title
;
Structure prediction by ZEFSAII (Michael W. Deem and Ramdas Pophale) SiO2 
 PCOD9485068
Probable space group: C M M M
;
_chemical_formula_sum "Si O2"
_cell_formula_units_Z 104
_cell_length_a 33.417719
_cell_length_b 23.267578
_cell_length_c 7.532557
_cell_angle_alpha 90.000000
_cell_angle_beta 90.000000
_cell_angle_gamma 90.000000
_cell_volume 5856.935051
_symmetry_space_group_name_H-M "C M M M"
_symmetry_group_IT_number 65
_symmetry_cell_setting 'orthorhombic'
loop_
_space_group_symop_operation_xyz
x,y,z
-x,-y,z
x,-y,-z
-x,y,-z
-x,-y,-z
x,y,-z
-x,y,z
x,-y,z
1/2+x,1/2+y,z
1/2-x,1/2-y,z
1/2+x,1/2-y,-z
1/2-x,1/2+y,-z
1/2-x,1/2-y,-z
1/2+x,1/2+y,-z
1/2-x,1/2+y,z
1/2+x,1/2-y,z
loop_
_atom_site_type_symbol
_atom_site_label
_atom_site_fract_x
_atom_site_fract_y
_atom_site_fract_z
Si Si1 0.603188 0.633197 0.701961
Si Si2 0.115054 0.315802 0.284415
Si Si3 0.857078 0.065957 0.000000
Si Si4 0.645278 0.936125 0.711040
Si Si5 0.783270 0.844093 0.000000
Si Si6 0.322760 0.724283 0.297363
Si Si7 0.786298 0.564776 0.000000
Si Si8 0.954502 0.231553 0.282969
O O1 0.596466 0.614487 0.500000
O O2 0.640066 0.678973 0.699721
O O3 0.565603 0.670853 0.766725
O O4 0.616476 0.582636 0.829671
O O5 0.114963 0.311617 0.500000
O O6 0.117665 0.382442 0.237439
O O7 0.155529 0.282177 0.229281
O O8 0.075968 0.281432 0.222682
O O9 0.819340 0.109057 0.000000
O O10 0.844920 0.000000 0.000000
O O11 0.653809 0.931418 0.500000
O O12 0.628179 0.000000 0.742825
O O13 0.685161 0.931950 0.828003
O O14 0.789956 0.803236 0.830113
O O15 0.744054 0.882614 0.000000
O O16 0.308924 0.731959 0.500000
O O17 0.767820 0.500000 0.000000
O O18 0.954324 0.232442 0.500000
O O19 0.000000 0.238228 0.223872
#
# Coordination Sequence:
#
# PCOD9485068 Si02
#       8
#    16  16   8  16   8  16   8  16
#     4   8  15  28  44  63  89 120 152 183 219 271
#     4   8  14  27  47  70  96 123 154 190 222 263
#     4  10  19  30  46  66  87 116 152 190 232 272
#     4   9  18  33  51  68  90 125 162 189 218 263
#     4  10  19  31  48  68  90 115 147 192 242 281
#     4   8  15  28  45  66  92 120 148 182 228 277
#     4  10  21  35  49  67  90 117 155 198 231 267
#     4   8  13  24  47  75  97 119 148 186 231 268
#
# _framework density 17.756727000000001
#
# number of rings (size 3 to 8) (size 9 to 14) (size 15 to 20)
#    0.000    3.385    0.000    2.077    0.000    1.538 
#    0.000    2.692    0.000    6.923    0.000    5.385 
#    0.000    1.846    0.000    0.154    0.000    0.000 
#
# Total GULP energy -289648.094808 kJ/mol
# GULP energy per Si atom -5570.155669 kJ/mol
# Density = 1.771631 g / cm^3
# Si number density = 17.756727 Si / 1000 Ang^3
#
#
#
# Elastic Constant Matrix: (Units=GPa)
#
#
# Indices 1 2 3 4 5 6 
#
# 1 27.9009 2.2271 6.6379 0.0000 0.0000 0.0000
# 2 2.2271 60.4892 17.5498 0.0000 0.0000 0.0000
# 3 6.6379 17.5498 58.4258 0.0000 0.0000 0.0000
# 4 0.0000 0.0000 0.0000 100.4122 0.0000 0.0000
# 5 0.0000 0.0000 0.0000 0.0000 16.3122 0.0000
# 6 0.0000 0.0000 0.0000 0.0000 0.0000 12.9952
#
#
#
# Elastic Compliance Matrix: (Units=1/GPa)
#
#
# Indices 1 2 3 4 5 6 
#
# 1 0.036838 -0.000156 -0.004139 0.000000 0.000000 0.000000
# 2 -0.000156 0.018111 -0.005422 0.000000 0.000000 0.000000
# 3 -0.004139 -0.005422 0.019215 0.000000 0.000000 0.000000
# 4 0.000000 0.000000 0.000000 0.009959 0.000000 0.000000
# 5 0.000000 0.000000 0.000000 0.000000 0.061304 0.000000
# 6 0.000000 0.000000 0.000000 0.000000 0.000000 0.076951
#
#
# Mechanical properties :
#
#
# Convention : Reuss Voigt Hill
#
# Bulk Modulus (GPa) = 18.27135 22.18284 20.22710
# Shear Modulus (GPa) = 19.22674 33.97066 26.59870
#
# Velocity S-wave (km/s) = 3.29414 4.37866 3.87454
# Velocity P-wave (km/s) = 4.97802 6.17117 5.60642
#
# Compressibility (1/GPa) = 0.05473050
#
# Stress axis : x y z
#
# Youngs Moduli (GPa) = 27.14579 55.21559 52.04348
#
# Poissons Ratio (x) = 0.00859 0.21539
# Poissons Ratio (y) = 0.00422 0.28220
# Poissons Ratio (z) = 0.11234 0.29940
#
# Static dielectric constant tensor:
#      x y z
#    x 1.593100 0.000000 0.000000 
#    y 0.000000 1.613310 0.000000 
#    z 0.000000 0.000000 1.654740 
# 
# From -- ./inp_files/18917.got.cif
#   From: 2010.05.17/outbox.cif.g08.bks.cpg/sg65_10_cif.got.tgz:18917.got - 2010.06.03 17:01:31.
