data_PCOD9485154
_publ_section_title
;
Structure prediction by ZEFSAII (Michael W. Deem and Ramdas Pophale) SiO2 
 PCOD9485154
Probable space group: C M M M
;
_chemical_formula_sum "Si O2"
_cell_formula_units_Z 120
_cell_length_a 20.094545
_cell_length_b 20.487645
_cell_length_c 17.617706
_cell_angle_alpha 90.000000
_cell_angle_beta 90.000000
_cell_angle_gamma 90.000000
_cell_volume 7253.031699
_symmetry_space_group_name_H-M "C M M M"
_symmetry_group_IT_number 65
_symmetry_cell_setting 'orthorhombic'
loop_
_space_group_symop_operation_xyz
x,y,z
-x,-y,z
x,-y,-z
-x,y,-z
-x,-y,-z
x,y,-z
-x,y,z
x,-y,z
1/2+x,1/2+y,z
1/2-x,1/2-y,z
1/2+x,1/2-y,-z
1/2-x,1/2+y,-z
1/2-x,1/2-y,-z
1/2+x,1/2+y,-z
1/2-x,1/2+y,z
1/2+x,1/2-y,z
loop_
_atom_site_type_symbol
_atom_site_label
_atom_site_fract_x
_atom_site_fract_y
_atom_site_fract_z
Si Si1 0.216542 0.077027 0.087931
Si Si2 0.242405 0.674001 0.215393
Si Si3 0.879464 0.138880 0.298979
Si Si4 0.428365 0.422190 0.852078
Si Si5 0.418940 0.000000 0.592491
Si Si6 0.839330 0.370286 0.357048
Si Si7 0.923177 0.249386 0.414120
Si Si8 0.704431 0.573834 0.584613
O O1 0.255394 0.124772 0.144391
O O2 0.137920 0.092228 0.100174
O O3 0.226041 0.000000 0.107557
O O4 0.233990 0.085812 0.000000
O O5 0.250000 0.750000 0.193056
O O6 0.310466 0.662819 0.262058
O O7 0.182048 0.652880 0.271727
O O8 0.921950 0.112849 0.229101
O O9 0.910877 0.194465 0.351041
O O10 0.854598 0.083259 0.356186
O O11 0.500000 0.405545 0.887422
O O12 0.427075 0.500000 0.839553
O O13 0.383942 0.935655 0.629870
O O14 0.500000 0.000000 0.603109
O O15 0.407155 0.000000 0.500000
O O16 0.877241 0.310737 0.395840
O O17 0.768288 0.382539 0.396990
O O18 0.909682 0.225675 0.500000
O O19 0.000000 0.270045 0.410883
O O20 0.680555 0.586858 0.500000
O O21 0.729264 0.500000 0.589433
#
# Coordination Sequence:
#
# PCOD9485154 Si02
#       8
#    16  16  16  16   8  16  16  16
#     4   9  19  34  55  83 111 133 161 206 257 310
#     4  10  20  35  53  77 104 139 172 207 256 315
#     4  10  19  32  47  68  98 130 170 213 249 294
#     4   9  17  30  50  73 100 135 169 199 241 296
#     4  11  22  36  54  76 105 137 176 231 285 319
#     4  11  21  34  52  72 100 132 173 220 262 320
#     4  11  22  34  48  67  96 136 177 219 264 305
#     4  10  19  30  47  68  92 125 167 218 268 305
#
# _framework density 16.544806000000001
#
# number of rings (size 3 to 8) (size 9 to 14) (size 15 to 20)
#    0.000    1.933    2.000    2.800    0.933    3.200 
#    0.000    3.333    0.000    0.000    0.000    5.600 
#    0.000    2.667    0.000    0.000    0.000    0.000 
#
# Total GULP energy -334219.333125 kJ/mol
# GULP energy per Si atom -5570.322219 kJ/mol
# Density = 1.650715 g / cm^3
# Si number density = 16.544806 Si / 1000 Ang^3
#
#
#
# Elastic Constant Matrix: (Units=GPa)
#
#
# Indices 1 2 3 4 5 6 
#
# 1 44.6795 13.8083 14.5569 0.0000 0.0000 0.0000
# 2 13.8083 65.5795 39.3999 0.0000 0.0000 0.0000
# 3 14.5569 39.3999 85.0645 0.0000 0.0000 0.0000
# 4 0.0000 0.0000 0.0000 22.8852 0.0000 0.0000
# 5 0.0000 0.0000 0.0000 0.0000 7.5029 0.0000
# 6 0.0000 0.0000 0.0000 0.0000 0.0000 20.7212
#
#
#
# Elastic Compliance Matrix: (Units=1/GPa)
#
#
# Indices 1 2 3 4 5 6 
#
# 1 0.024311 -0.003629 -0.002479 0.000000 0.000000 0.000000
# 2 -0.003629 0.021670 -0.009416 0.000000 0.000000 0.000000
# 3 -0.002479 -0.009416 0.016541 0.000000 0.000000 0.000000
# 4 0.000000 0.000000 0.000000 0.043696 0.000000 0.000000
# 5 0.000000 0.000000 0.000000 0.000000 0.133281 0.000000
# 6 0.000000 0.000000 0.000000 0.000000 0.000000 0.048260
#
#
# Mechanical properties :
#
#
# Convention : Reuss Voigt Hill
#
# Bulk Modulus (GPa) = 31.77309 36.76152 34.26730
# Shear Modulus (GPa) = 15.18373 18.72576 16.95475
#
# Velocity S-wave (km/s) = 3.03270 3.36791 3.20469
# Velocity P-wave (km/s) = 5.61329 6.11484 5.86942
#
# Compressibility (1/GPa) = 0.03147318
#
# Stress axis : x y z
#
# Youngs Moduli (GPa) = 41.13353 46.14692 60.45477
#
# Poissons Ratio (x) = 0.16748 0.14988
# Poissons Ratio (y) = 0.14929 0.56924
# Poissons Ratio (z) = 0.10198 0.43452
#
# Static dielectric constant tensor:
#      x y z
#    x 1.561760 0.000000 0.000000 
#    y 0.000000 1.572510 0.000000 
#    z 0.000000 0.000000 1.556870 
# 
# From -- ./inp_files/44713.got.cif
#   From: 2010.05.17/outbox.cif.g08.bks.cpg/sg65_23_cif.got.tgz:44713.got - 2010.06.03 17:01:31.
