data_PCOD9485518
_publ_section_title
;
Structure prediction by ZEFSAII (Michael W. Deem and Ramdas Pophale) SiO2 
 PCOD9485518
Probable space group: C M M M
;
_chemical_formula_sum "Si O2"
_cell_formula_units_Z 88
_cell_length_a 19.659982
_cell_length_b 18.653403
_cell_length_c 14.292384
_cell_angle_alpha 90.000000
_cell_angle_beta 90.000000
_cell_angle_gamma 90.000000
_cell_volume 5241.382629
_symmetry_space_group_name_H-M "C M M M"
_symmetry_group_IT_number 65
_symmetry_cell_setting 'orthorhombic'
loop_
_space_group_symop_operation_xyz
x,y,z
-x,-y,z
x,-y,-z
-x,y,-z
-x,-y,-z
x,y,-z
-x,y,z
x,-y,z
1/2+x,1/2+y,z
1/2-x,1/2-y,z
1/2+x,1/2-y,-z
1/2-x,1/2+y,-z
1/2-x,1/2-y,-z
1/2+x,1/2+y,-z
1/2-x,1/2+y,z
1/2+x,1/2-y,z
loop_
_atom_site_type_symbol
_atom_site_label
_atom_site_fract_x
_atom_site_fract_y
_atom_site_fract_z
Si Si1 0.576960 0.086267 0.500000
Si Si2 0.685393 0.302247 0.109919
Si Si3 0.285323 0.582575 0.734924
Si Si4 0.578604 0.227587 0.233515
Si Si5 0.875840 0.582035 0.295308
Si Si6 0.322396 0.709469 0.609628
O O1 0.500000 0.115524 0.500000
O O2 0.614561 0.103940 0.595851
O O3 0.572323 0.000000 0.500000
O O4 0.750000 0.250000 0.128884
O O5 0.693643 0.372900 0.173186
O O6 0.618655 0.260998 0.146088
O O7 0.683457 0.317465 0.000000
O O8 0.307674 0.500000 0.735275
O O9 0.203497 0.583589 0.728864
O O10 0.312246 0.628631 0.647144
O O11 0.500000 0.248173 0.237230
O O12 0.585802 0.141563 0.235553
O O13 0.620823 0.255682 0.323732
O O14 0.900687 0.500000 0.284591
O O15 0.338748 0.713237 0.500000
O O16 0.250000 0.750000 0.624726
#
# Coordination Sequence:
#
# PCOD9485518 Si02
#       6
#     8  16  16  16  16  16
#     4   9  18  28  38  61 104 156 192 209 236 283
#     4  10  20  39  60  78 104 136 175 225 276 324
#     4  10  19  33  56  83 107 135 178 224 272 321
#     4  11  21  34  54  80 109 144 185 219 263 321
#     4  10  19  31  47  75 115 150 183 218 252 302
#     4  10  20  35  52  75 111 151 189 225 260 303
#
# _framework density 16.789463999999999
#
# number of rings (size 3 to 8) (size 9 to 14) (size 15 to 20)
#    0.000    1.909    3.636    1.636    2.545    2.545 
#    0.000    0.000    0.000    9.273    0.000   11.455 
#    0.000    0.000    0.000    0.000    0.000    0.000 
#
# Total GULP energy -245443.123718 kJ/mol
# GULP energy per Si atom -5578.252812 kJ/mol
# Density = 1.675125 g / cm^3
# Si number density = 16.789464 Si / 1000 Ang^3
#
#
#
# Elastic Constant Matrix: (Units=GPa)
#
#
# Indices 1 2 3 4 5 6 
#
# 1 89.4862 21.9569 19.2877 0.0000 0.0000 0.0000
# 2 21.9569 107.0103 27.3970 0.0000 0.0000 0.0000
# 3 19.2877 27.3970 72.9705 0.0000 0.0000 0.0000
# 4 0.0000 0.0000 0.0000 14.3920 0.0000 0.0000
# 5 0.0000 0.0000 0.0000 0.0000 -10.3905 0.0000
# 6 0.0000 0.0000 0.0000 0.0000 0.0000 -7.7901
#
#
#
# Elastic Compliance Matrix: (Units=1/GPa)
#
#
# Indices 1 2 3 4 5 6 
#
# 1 0.012173 -0.001852 -0.002522 0.000000 0.000000 0.000000
# 2 -0.001852 0.010620 -0.003498 0.000000 0.000000 0.000000
# 3 -0.002522 -0.003498 0.015684 0.000000 0.000000 0.000000
# 4 0.000000 0.000000 0.000000 0.069483 0.000000 0.000000
# 5 0.000000 0.000000 0.000000 0.000000 -0.096242 0.000000
# 6 0.000000 0.000000 0.000000 0.000000 0.000000 -0.128368
#
#
# Mechanical properties :
#
#
# Convention : Reuss Voigt Hill
#
# Bulk Modulus (GPa) = 43.98850 45.19449 44.59150
# Shear Modulus (GPa) = -53.57472 12.63066 -20.47203
#
# Velocity S-wave (km/s) = -5.65500 2.74578 -3.49569
# Velocity P-wave (km/s) = 4.04743 6.08516 3.21306
#
# Compressibility (1/GPa) = 0.02273321
#
# Stress axis : x y z
#
# Youngs Moduli (GPa) = 82.14932 94.15804 63.75854
#
# Poissons Ratio (x) = 0.17438 0.16082
# Poissons Ratio (y) = 0.15214 0.22303
# Poissons Ratio (z) = 0.20720 0.32936
#
# Static dielectric constant tensor:
#      x y z
#    x 1.563670 0.000000 0.000000 
#    y 0.000000 1.591460 0.000000 
#    z 0.000000 0.000000 1.556580 
# 
# From -- ./inp_files/42481.got.cif
#   From: 2010.05.17/outbox.cif.g08.bks.cpg/sg65_22_cif.got.tgz:42481.got - 2010.06.03 17:01:31.
