data_PCOD9485441
_publ_section_title
;
Structure prediction by ZEFSAII (Michael W. Deem and Ramdas Pophale) SiO2 
 PCOD9485441
Probable space group: C M M M
;
_chemical_formula_sum "Si O2"
_cell_formula_units_Z 80
_cell_length_a 7.545229
_cell_length_b 18.800823
_cell_length_c 27.754209
_cell_angle_alpha 90.000000
_cell_angle_beta 90.000000
_cell_angle_gamma 90.000000
_cell_volume 3937.115363
_symmetry_space_group_name_H-M "C M M M"
_symmetry_group_IT_number 65
_symmetry_cell_setting 'orthorhombic'
loop_
_space_group_symop_operation_xyz
x,y,z
-x,-y,z
x,-y,-z
-x,y,-z
-x,-y,-z
x,y,-z
-x,y,z
x,-y,z
1/2+x,1/2+y,z
1/2-x,1/2-y,z
1/2+x,1/2-y,-z
1/2-x,1/2+y,-z
1/2-x,1/2-y,-z
1/2+x,1/2+y,-z
1/2-x,1/2+y,z
1/2+x,1/2-y,z
loop_
_atom_site_type_symbol
_atom_site_label
_atom_site_fract_x
_atom_site_fract_y
_atom_site_fract_z
Si Si1 0.287350 0.666710 0.000000
Si Si2 0.787685 0.665396 0.500000
Si Si3 0.288556 0.919010 0.303386
Si Si4 0.216266 0.083267 0.906263
Si Si5 0.713120 0.833872 0.604591
Si Si6 0.712581 0.417849 0.801264
O O1 0.250000 0.750000 0.000000
O O2 0.220147 0.628618 0.048481
O O3 0.500000 0.657480 0.000000
O O4 0.750000 0.750000 0.500000
O O5 0.720331 0.639709 0.552089
O O6 0.000000 0.655143 0.500000
O O7 0.500000 0.923498 0.309028
O O8 0.218105 0.875061 0.348700
O O9 0.259268 0.885645 0.250439
O O10 0.217570 0.000000 0.303393
O O11 0.273411 0.110546 0.853243
O O12 0.000000 0.084803 0.906755
O O13 0.265657 0.000000 0.910965
O O14 0.500000 0.841789 0.603773
O O15 0.750000 0.750000 0.608731
O O16 0.500000 0.419400 0.803026
O O17 0.776560 0.500000 0.799588
#
# Coordination Sequence:
#
# PCOD9485441 Si02
#       6
#     8   8  16  16  16  16
#     4  10  19  31  47  67  93 120 142 172 218 264
#     4   8  14  26  43  61  81 107 141 178 214 250
#     4   9  17  29  44  64  91 118 141 170 214 263
#     4   8  14  27  49  71  85 106 148 190 213 240
#     4   9  17  29  45  64  85 111 144 180 215 253
#     4   8  14  26  45  67  87 109 143 183 215 246
#
# _framework density 20.319445000000002
#
# number of rings (size 3 to 8) (size 9 to 14) (size 15 to 20)
#    0.000    3.400    0.000    1.500    0.000    2.000 
#    0.000    2.500    0.000   10.200    0.000    0.000 
#    0.000   11.200    0.000    0.000    0.000    0.000 
#
# Total GULP energy -222694.814658 kJ/mol
# GULP energy per Si atom -5567.370366 kJ/mol
# Density = 2.027320 g / cm^3
# Si number density = 20.319445 Si / 1000 Ang^3
#
#
#
# Elastic Constant Matrix: (Units=GPa)
#
#
# Indices 1 2 3 4 5 6 
#
# 1 49.4688 -1.1092 10.0798 0.0000 0.0000 0.0000
# 2 -1.1092 50.5770 83.2918 0.0000 0.0000 0.0000
# 3 10.0798 83.2918 284.4535 0.0000 0.0000 0.0000
# 4 0.0000 0.0000 0.0000 48.9599 0.0000 0.0000
# 5 0.0000 0.0000 0.0000 0.0000 15.8290 0.0000
# 6 0.0000 0.0000 0.0000 0.0000 0.0000 12.4806
#
#
#
# Elastic Compliance Matrix: (Units=1/GPa)
#
#
# Indices 1 2 3 4 5 6 
#
# 1 0.020626 0.003198 -0.001667 0.000000 0.000000 0.000000
# 2 0.003198 0.038681 -0.011440 0.000000 0.000000 0.000000
# 3 -0.001667 -0.011440 0.006924 0.000000 0.000000 0.000000
# 4 0.000000 0.000000 0.000000 0.020425 0.000000 0.000000
# 5 0.000000 0.000000 0.000000 0.000000 0.063175 0.000000
# 6 0.000000 0.000000 0.000000 0.000000 0.000000 0.080124
#
#
# Mechanical properties :
#
#
# Convention : Reuss Voigt Hill
#
# Bulk Modulus (GPa) = 21.54516 63.22491 42.38503
# Shear Modulus (GPa) = 18.85049 34.93636 26.89343
#
# Velocity S-wave (km/s) = 3.04913 4.15101 3.64198
# Velocity P-wave (km/s) = 4.79818 7.35918 6.21209
#
# Compressibility (1/GPa) = 0.04641414
#
# Stress axis : x y z
#
# Youngs Moduli (GPa) = 48.48199 25.85226 144.41862
#
# Poissons Ratio (x) = -0.08268 0.24081
# Poissons Ratio (y) = -0.15506 1.65211
# Poissons Ratio (z) = 0.08084 0.29574
#
# Static dielectric constant tensor:
#      x y z
#    x 1.868670 0.000000 0.000000 
#    y 0.000000 1.674660 0.000000 
#    z 0.000000 0.000000 1.797080 
# 
# From -- ./inp_files/67375.got.cif
#   From: 2010.05.17/outbox.cif.g08.bks.cpg/sg65_34_cif.got.tgz:67375.got - 2010.06.03 17:01:31.
