data_PCOD9485527
_publ_section_title
;
Structure prediction by ZEFSAII (Michael W. Deem and Ramdas Pophale) SiO2 
 PCOD9485527
Probable space group: C M M M
;
_chemical_formula_sum "Si O2"
_cell_formula_units_Z 96
_cell_length_a 17.645025
_cell_length_b 7.363723
_cell_length_c 33.638266
_cell_angle_alpha 90.000000
_cell_angle_beta 90.000000
_cell_angle_gamma 90.000000
_cell_volume 4370.723387
_symmetry_space_group_name_H-M "C M M M"
_symmetry_group_IT_number 65
_symmetry_cell_setting 'orthorhombic'
loop_
_space_group_symop_operation_xyz
x,y,z
-x,-y,z
x,-y,-z
-x,y,-z
-x,-y,-z
x,y,-z
-x,y,z
x,-y,z
1/2+x,1/2+y,z
1/2-x,1/2-y,z
1/2+x,1/2-y,-z
1/2-x,1/2+y,-z
1/2-x,1/2-y,-z
1/2+x,1/2+y,-z
1/2-x,1/2+y,z
1/2+x,1/2-y,z
loop_
_atom_site_type_symbol
_atom_site_label
_atom_site_fract_x
_atom_site_fract_y
_atom_site_fract_z
Si Si1 0.087531 0.278650 0.418494
Si Si2 0.586711 0.221209 0.743444
Si Si3 0.000000 0.279134 0.046291
Si Si4 0.339308 0.782369 0.086681
Si Si5 0.838569 0.716185 0.500000
Si Si6 0.836663 0.715959 0.822865
Si Si7 0.338240 0.216164 0.662875
O O1 0.093689 0.500000 0.418133
O O2 0.127508 0.213449 0.458670
O O3 0.121886 0.213318 0.376892
O O4 0.000000 0.231731 0.420379
O O5 0.500000 0.267535 0.736650
O O6 0.613361 0.286636 0.786655
O O7 0.633708 0.286332 0.705478
O O8 0.592933 0.000000 0.744795
O O9 0.082558 0.220343 0.064568
O O10 0.000000 0.500000 0.049417
O O11 0.000000 0.229934 0.000000
O O12 0.250000 0.750000 0.073470
O O13 0.345674 0.713464 0.132243
O O14 0.344192 0.000000 0.086420
O O15 0.853405 0.500000 0.500000
O O16 0.750000 0.750000 0.500000
O O17 0.850028 0.500000 0.825777
O O18 0.750000 0.750000 0.811274
O O19 0.250000 0.250000 0.658952
O O20 0.352918 0.000000 0.663748
#
# Coordination Sequence:
#
# PCOD9485527 Si02
#       7
#    16  16   8  16   8  16  16
#     4   9  17  30  49  70  90 115 152 191 223 260
#     4   9  17  28  45  69  92 117 154 194 227 265
#     4   9  18  32  51  75 101 131 169 209 249 296
#     4   9  18  32  51  74 100 131 166 206 251 297
#     4  10  19  31  49  71  93 118 148 184 224 268
#     4   9  17  29  47  69  93 121 154 193 235 280
#     4  10  19  31  48  68  91 120 150 186 228 271
#
# _framework density 21.964328999999999
#
# number of rings (size 3 to 8) (size 9 to 14) (size 15 to 20)
#    0.000    2.750    0.000    1.750    1.167    3.333 
#    0.000    0.417    0.000    6.000    0.000    0.000 
#    0.000    0.000    0.000    0.000    0.000    0.000 
#
# Total GULP energy -267715.706003 kJ/mol
# GULP energy per Si atom -5577.410542 kJ/mol
# Density = 2.191434 g / cm^3
# Si number density = 21.964329 Si / 1000 Ang^3
#
#
#
# Elastic Constant Matrix: (Units=GPa)
#
#
# Indices 1 2 3 4 5 6 
#
# 1 177.9005 -5.9098 106.5278 0.0000 0.0000 0.0000
# 2 -5.9098 82.1439 6.1772 0.0000 0.0000 0.0000
# 3 106.5278 6.1772 141.4818 0.0000 0.0000 0.0000
# 4 0.0000 0.0000 0.0000 -65.3947 0.0000 0.0000
# 5 0.0000 0.0000 0.0000 0.0000 55.5019 0.0000
# 6 0.0000 0.0000 0.0000 0.0000 0.0000 20.7142
#
#
#
# Elastic Compliance Matrix: (Units=1/GPa)
#
#
# Indices 1 2 3 4 5 6 
#
# 1 0.010381 0.001339 -0.007875 0.000000 0.000000 0.000000
# 2 0.001339 0.012387 -0.001549 0.000000 0.000000 0.000000
# 3 -0.007875 -0.001549 0.013065 0.000000 0.000000 0.000000
# 4 0.000000 0.000000 0.000000 -0.015292 0.000000 0.000000
# 5 0.000000 0.000000 0.000000 0.000000 0.018017 0.000000
# 6 0.000000 0.000000 0.000000 0.000000 0.000000 0.048276
#
#
# Mechanical properties :
#
#
# Convention : Reuss Voigt Hill
#
# Bulk Modulus (GPa) = 50.85689 68.34628 59.60158
# Shear Modulus (GPa) = 45.63773 21.81300 33.72537
#
# Velocity S-wave (km/s) = 4.56325 3.15478 3.92275
# Velocity P-wave (km/s) = 7.13925 6.66744 6.90737
#
# Compressibility (1/GPa) = 0.01966302
#
# Stress axis : x y z
#
# Youngs Moduli (GPa) = 96.32884 80.73249 76.54041
#
# Poissons Ratio (x) = -0.10810 0.60274
# Poissons Ratio (y) = -0.12899 0.11856
# Poissons Ratio (z) = 0.75858 0.12506
#
# Static dielectric constant tensor:
#      x y z
#    x 1.749120 0.000000 0.000000 
#    y 0.000000 1.871600 0.000000 
#    z 0.000000 0.000000 1.790030 
# 
# From -- ./inp_files/77643.got.cif
#   From: 2010.05.17/outbox.cif.g08.bks.cpg/sg65_39_cif.got.tgz:77643.got - 2010.06.03 17:01:31.
