data_PCOD9485569
_publ_section_title
;
Structure prediction by ZEFSAII (Michael W. Deem and Ramdas Pophale) SiO2 
 PCOD9485569
Probable space group: C M M M
;
_chemical_formula_sum "Si O2"
_cell_formula_units_Z 88
_cell_length_a 8.598689
_cell_length_b 18.872127
_cell_length_c 30.182540
_cell_angle_alpha 90.000000
_cell_angle_beta 90.000000
_cell_angle_gamma 90.000000
_cell_volume 4897.888304
_symmetry_space_group_name_H-M "C M M M"
_symmetry_group_IT_number 65
_symmetry_cell_setting 'orthorhombic'
loop_
_space_group_symop_operation_xyz
x,y,z
-x,-y,z
x,-y,-z
-x,y,-z
-x,-y,-z
x,y,-z
-x,y,z
x,-y,z
1/2+x,1/2+y,z
1/2-x,1/2-y,z
1/2+x,1/2-y,-z
1/2-x,1/2+y,-z
1/2-x,1/2-y,-z
1/2+x,1/2+y,-z
1/2-x,1/2+y,z
1/2+x,1/2-y,z
loop_
_atom_site_type_symbol
_atom_site_label
_atom_site_fract_x
_atom_site_fract_y
_atom_site_fract_z
Si Si1 0.186134 0.582761 0.582371
Si Si2 0.811714 0.330935 0.952272
Si Si3 0.815137 0.170705 0.500000
Si Si4 0.814369 0.917049 0.322394
Si Si5 0.686964 0.830169 0.760173
Si Si6 0.312225 0.830570 0.856945
O O1 0.233254 0.500000 0.577132
O O2 0.256625 0.629087 0.543292
O O3 0.242161 0.606866 0.630863
O O4 0.000000 0.586072 0.580197
O O5 0.750000 0.250000 0.952260
O O6 0.762564 0.362717 0.904553
O O7 0.000000 0.329377 0.952300
O O8 0.762395 0.362580 0.000000
O O9 0.750000 0.250000 0.500000
O O10 0.000000 0.172850 0.500000
O O11 0.752185 0.874303 0.280584
O O12 0.000000 0.910734 0.324971
O O13 0.773506 0.000000 0.317137
O O14 0.500000 0.828932 0.758044
O O15 0.750000 0.750000 0.757520
O O16 0.734569 0.860356 0.808885
O O17 0.500000 0.828846 0.857009
O O18 0.250000 0.750000 0.857054
#
# Coordination Sequence:
#
# PCOD9485569 Si02
#       6
#    16  16   8  16  16  16
#     4  10  21  39  62  85 109 138 172 208 249 298
#     4   8  12  18  29  46  71 105 144 184 227 276
#     4  12  25  40  59  85 117 147 177 212 249 288
#     4  10  21  37  56  78 103 131 167 210 253 297
#     4  10  19  31  48  70  98 131 166 203 247 299
#     4   8  14  23  35  54  81 114 151 190 233 284
#
# _framework density 17.966927999999999
#
# number of rings (size 3 to 8) (size 9 to 14) (size 15 to 20)
#    0.000    2.545    0.000    2.727    0.000    4.727 
#    0.000    3.636    0.000    0.000    0.000    0.000 
#    0.000    0.727    0.000    9.091    0.000    4.727 
#
# Total GULP energy -245055.239167 kJ/mol
# GULP energy per Si atom -5569.437254 kJ/mol
# Density = 1.792603 g / cm^3
# Si number density = 17.966928 Si / 1000 Ang^3
#
#
#
# Elastic Constant Matrix: (Units=GPa)
#
#
# Indices 1 2 3 4 5 6 
#
# 1 34.3849 20.0961 48.1609 0.0000 0.0000 0.0000
# 2 20.0961 37.2834 69.4620 0.0000 0.0000 0.0000
# 3 48.1609 69.4620 243.3401 0.0000 0.0000 0.0000
# 4 0.0000 0.0000 0.0000 -102.0674 0.0000 0.0000
# 5 0.0000 0.0000 0.0000 0.0000 20.5404 0.0000
# 6 0.0000 0.0000 0.0000 0.0000 0.0000 18.9089
#
#
#
# Elastic Compliance Matrix: (Units=1/GPa)
#
#
# Indices 1 2 3 4 5 6 
#
# 1 0.044358 -0.016133 -0.004174 0.000000 0.000000 0.000000
# 2 -0.016133 0.063157 -0.014835 0.000000 0.000000 0.000000
# 3 -0.004174 -0.014835 0.009170 0.000000 0.000000 0.000000
# 4 0.000000 0.000000 0.000000 -0.009797 0.000000 0.000000
# 5 0.000000 0.000000 0.000000 0.000000 0.048685 0.000000
# 6 0.000000 0.000000 0.000000 0.000000 0.000000 0.052885
#
#
# Mechanical properties :
#
#
# Convention : Reuss Voigt Hill
#
# Bulk Modulus (GPa) = 21.55145 65.60517 43.57831
# Shear Modulus (GPa) = 16.99479 -0.70433 8.14523
#
# Velocity S-wave (km/s) = 3.07887 -0.62679 2.13150
# Velocity P-wave (km/s) = 4.96592 6.00582 5.51046
#
# Compressibility (1/GPa) = 0.04640060
#
# Stress axis : x y z
#
# Youngs Moduli (GPa) = 22.54410 15.83360 109.04711
#
# Poissons Ratio (x) = 0.25544 0.45515
# Poissons Ratio (y) = 0.36370 1.61775
# Poissons Ratio (z) = 0.09410 0.23490
#
# Static dielectric constant tensor:
#      x y z
#    x 1.613650 0.000000 0.000000 
#    y 0.000000 1.581610 0.000000 
#    z 0.000000 0.000000 1.677140 
# 
# From -- ./inp_files/76430.got.cif
#   From: 2010.05.17/outbox.cif.g08.bks.cpg/sg65_39_cif.got.tgz:76430.got - 2010.06.03 17:01:31.
