data_PCOD9485802
_publ_section_title
;
Structure prediction by ZEFSAII (Michael W. Deem and Ramdas Pophale) SiO2 
 PCOD9485802
Probable space group: C M M M
;
_chemical_formula_sum "Si O2"
_cell_formula_units_Z 88
_cell_length_a 8.071407
_cell_length_b 18.431168
_cell_length_c 30.335778
_cell_angle_alpha 90.000000
_cell_angle_beta 90.000000
_cell_angle_gamma 90.000000
_cell_volume 4512.915920
_symmetry_space_group_name_H-M "C M M M"
_symmetry_group_IT_number 65
_symmetry_cell_setting 'orthorhombic'
loop_
_space_group_symop_operation_xyz
x,y,z
-x,-y,z
x,-y,-z
-x,y,-z
-x,-y,-z
x,y,-z
-x,y,z
x,-y,z
1/2+x,1/2+y,z
1/2-x,1/2-y,z
1/2+x,1/2-y,-z
1/2-x,1/2+y,-z
1/2-x,1/2-y,-z
1/2+x,1/2+y,-z
1/2-x,1/2+y,z
1/2+x,1/2-y,z
loop_
_atom_site_type_symbol
_atom_site_label
_atom_site_fract_x
_atom_site_fract_y
_atom_site_fract_z
Si Si1 0.802946 0.165403 0.640999
Si Si2 0.797132 0.916390 0.824309
Si Si3 0.200359 0.165758 0.736923
Si Si4 0.300082 0.666472 0.087926
Si Si5 0.697290 0.165159 0.452642
Si Si6 0.797209 0.083751 0.000000
O O1 0.750000 0.250000 0.640324
O O2 0.741735 0.137811 0.688674
O O3 0.749761 0.132219 0.594231
O O4 0.000000 0.162837 0.641510
O O5 0.740267 0.879212 0.778968
O O6 0.741603 0.872114 0.867269
O O7 0.000000 0.915094 0.824135
O O8 0.746540 0.000000 0.826951
O O9 0.250000 0.250000 0.741288
O O10 0.000000 0.162609 0.736944
O O11 0.500000 0.662551 0.087985
O O12 0.250000 0.750000 0.086866
O O13 0.241791 0.624818 0.044136
O O14 0.759234 0.135265 0.500000
O O15 0.500000 0.163091 0.453272
O O16 0.750000 0.250000 0.452022
O O17 0.000000 0.084444 0.000000
O O18 0.745754 0.000000 0.000000
#
# Coordination Sequence:
#
# PCOD9485802 Si02
#       6
#    16  16  16  16  16   8
#     4   9  15  22  33  50  73 101 133 168 208 253
#     4   9  17  30  48  68  89 116 152 189 224 266
#     4   9  17  28  43  63  85 111 144 181 220 264
#     4  10  19  31  50  73  96 124 156 192 232 271
#     4   9  15  21  30  46  70 101 135 168 204 248
#     4   9  17  30  49  73  98 125 162 200 228 263
#
# _framework density 19.499586000000001
#
# number of rings (size 3 to 8) (size 9 to 14) (size 15 to 20)
#    0.000    2.818    0.000    3.545    0.000    4.000 
#    0.000    0.000    0.000    4.364    0.000    0.000 
#    0.000    0.727    0.000    9.091    0.000    4.909 
#
# Total GULP energy -245132.955404 kJ/mol
# GULP energy per Si atom -5571.203532 kJ/mol
# Density = 1.945520 g / cm^3
# Si number density = 19.499586 Si / 1000 Ang^3
#
#
#
# Elastic Constant Matrix: (Units=GPa)
#
#
# Indices 1 2 3 4 5 6 
#
# 1 15.1713 2.0203 22.5051 0.0000 0.0000 0.0000
# 2 2.0203 95.9463 95.0893 0.0000 0.0000 0.0000
# 3 22.5051 95.0893 269.0290 0.0000 0.0000 0.0000
# 4 0.0000 0.0000 0.0000 -5.2980 0.0000 0.0000
# 5 0.0000 0.0000 0.0000 0.0000 7.4727 0.0000
# 6 0.0000 0.0000 0.0000 0.0000 0.0000 13.9601
#
#
#
# Elastic Compliance Matrix: (Units=1/GPa)
#
#
# Indices 1 2 3 4 5 6 
#
# 1 0.078593 0.007482 -0.009219 0.000000 0.000000 0.000000
# 2 0.007482 0.016754 -0.006548 0.000000 0.000000 0.000000
# 3 -0.009219 -0.006548 0.006803 0.000000 0.000000 0.000000
# 4 0.000000 0.000000 0.000000 -0.188751 0.000000 0.000000
# 5 0.000000 0.000000 0.000000 0.000000 0.133820 0.000000
# 6 0.000000 0.000000 0.000000 0.000000 0.000000 0.071633
#
#
# Mechanical properties :
#
#
# Convention : Reuss Voigt Hill
#
# Bulk Modulus (GPa) = 11.68502 68.81956 40.25229
# Shear Modulus (GPa) = 30.49760 20.59577 25.54668
#
# Velocity S-wave (km/s) = 3.95905 3.25347 3.62348
# Velocity P-wave (km/s) = 5.18693 7.03441 6.18009
#
# Compressibility (1/GPa) = 0.08557964
#
# Stress axis : x y z
#
# Youngs Moduli (GPa) = 12.72381 59.68671 147.00325
#
# Poissons Ratio (x) = -0.44656 1.35522
# Poissons Ratio (y) = -0.09520 0.96253
# Poissons Ratio (z) = 0.11730 0.39081
#
# Static dielectric constant tensor:
#      x y z
#    x 1.692240 0.000000 0.000000 
#    y 0.000000 1.625690 0.000000 
#    z 0.000000 0.000000 1.758240 
# 
# From -- ./inp_files/76648.got.cif
#   From: 2010.05.17/outbox.cif.g08.bks.cpg/sg65_39_cif.got.tgz:76648.got - 2010.06.03 17:01:31.
