data_PCOD9485670
_publ_section_title
;
Structure prediction by ZEFSAII (Michael W. Deem and Ramdas Pophale) SiO2 
 PCOD9485670
Probable space group: C M M M
;
_chemical_formula_sum "Si O2"
_cell_formula_units_Z 80
_cell_length_a 7.764494
_cell_length_b 18.897545
_cell_length_c 26.588272
_cell_angle_alpha 90.000000
_cell_angle_beta 90.000000
_cell_angle_gamma 90.000000
_cell_volume 3901.293821
_symmetry_space_group_name_H-M "C M M M"
_symmetry_group_IT_number 65
_symmetry_cell_setting 'orthorhombic'
loop_
_space_group_symop_operation_xyz
x,y,z
-x,-y,z
x,-y,-z
-x,y,-z
-x,-y,-z
x,y,-z
-x,y,z
x,-y,z
1/2+x,1/2+y,z
1/2-x,1/2-y,z
1/2+x,1/2-y,-z
1/2-x,1/2+y,-z
1/2-x,1/2-y,-z
1/2+x,1/2+y,-z
1/2-x,1/2+y,z
1/2+x,1/2-y,z
loop_
_atom_site_type_symbol
_atom_site_label
_atom_site_fract_x
_atom_site_fract_y
_atom_site_fract_z
Si Si1 0.792775 0.331774 0.805791
Si Si2 0.794222 0.420304 0.598600
Si Si3 0.796920 0.167494 0.500000
Si Si4 0.792924 0.667389 0.000000
Si Si5 0.207671 0.668244 0.307133
Si Si6 0.711113 0.081574 0.902086
O O1 0.750000 0.250000 0.816846
O O2 0.728376 0.348091 0.749355
O O3 0.730228 0.382260 0.850225
O O4 0.000000 0.337781 0.804534
O O5 0.726276 0.500000 0.591882
O O6 0.766424 0.372331 0.549800
O O7 0.725501 0.381904 0.648651
O O8 0.000000 0.425590 0.604936
O O9 0.750000 0.250000 0.500000
O O10 0.000000 0.162277 0.500000
O O11 0.750000 0.750000 0.000000
O O12 0.730963 0.627594 0.949834
O O13 0.000000 0.661509 0.000000
O O14 0.250000 0.750000 0.318132
O O15 0.000000 0.662404 0.306070
O O16 0.500000 0.082419 0.901968
O O17 0.763937 0.000000 0.906158
#
# Coordination Sequence:
#
# PCOD9485670 Si02
#       6
#    16  16   8   8  16  16
#     4   9  17  30  49  72  98 129 166 207 248 292
#     4  10  21  37  56  79 108 138 168 207 255 303
#     4  12  25  40  59  81 105 135 173 212 251 300
#     4  10  19  31  49  71  95 126 164 204 246 294
#     4   9  18  32  51  75 101 132 169 207 248 295
#     4   9  17  29  47  71  97 126 163 206 248 292
#
# _framework density 20.506018999999998
#
# number of rings (size 3 to 8) (size 9 to 14) (size 15 to 20)
#    0.000    2.400    0.000    2.700    0.000    6.000 
#    0.000    4.000    0.000    3.000    0.000    5.600 
#    0.000    0.000    0.000    0.000    0.000    0.000 
#
# Total GULP energy -223356.880098 kJ/mol
# GULP energy per Si atom -5583.922002 kJ/mol
# Density = 2.045935 g / cm^3
# Si number density = 20.506019 Si / 1000 Ang^3
#
#
#
# Elastic Constant Matrix: (Units=GPa)
#
#
# Indices 1 2 3 4 5 6 
#
# 1 29.7485 0.1319 5.1345 0.0000 0.0000 0.0000
# 2 0.1319 198.1091 149.5541 0.0000 0.0000 0.0000
# 3 5.1345 149.5541 192.8967 0.0000 0.0000 0.0000
# 4 0.0000 0.0000 0.0000 -5.3854 0.0000 0.0000
# 5 0.0000 0.0000 0.0000 0.0000 -8.4959 0.0000
# 6 0.0000 0.0000 0.0000 0.0000 0.0000 23.7532
#
#
#
# Elastic Compliance Matrix: (Units=1/GPa)
#
#
# Indices 1 2 3 4 5 6 
#
# 1 0.033977 0.001592 -0.002138 0.000000 0.000000 0.000000
# 2 0.001592 0.012246 -0.009537 0.000000 0.000000 0.000000
# 3 -0.002138 -0.009537 0.012635 0.000000 0.000000 0.000000
# 4 0.000000 0.000000 0.000000 -0.185688 0.000000 0.000000
# 5 0.000000 0.000000 0.000000 0.000000 -0.117704 0.000000
# 6 0.000000 0.000000 0.000000 0.000000 0.000000 0.042100
#
#
# Mechanical properties :
#
#
# Convention : Reuss Voigt Hill
#
# Bulk Modulus (GPa) = 25.84575 81.15504 53.50040
# Shear Modulus (GPa) = -29.52117 19.70330 -4.90893
#
# Velocity S-wave (km/s) = -3.79837 3.10313 -1.54890
# Velocity P-wave (km/s) = 2.57011 7.24578 4.79040
#
# Compressibility (1/GPa) = 0.03869107
#
# Stress axis : x y z
#
# Youngs Moduli (GPa) = 29.43155 81.65849 79.14497
#
# Poissons Ratio (x) = -0.12998 0.16925
# Poissons Ratio (y) = -0.04685 0.75480
# Poissons Ratio (z) = 0.06294 0.77877
#
# Static dielectric constant tensor:
#      x y z
#    x 1.752250 0.000000 0.000000 
#    y 0.000000 1.679590 0.000000 
#    z 0.000000 0.000000 1.768390 
# 
# From -- ./inp_files/67293.got.cif
#   From: 2010.05.17/outbox.cif.g08.bks.cpg/sg65_34_cif.got.tgz:67293.got - 2010.06.03 17:01:31.
