data_PCOD9485639
_publ_section_title
;
Structure prediction by ZEFSAII (Michael W. Deem and Ramdas Pophale) SiO2 
 PCOD9485639
Probable space group: C M M M
;
_chemical_formula_sum "Si O2"
_cell_formula_units_Z 104
_cell_length_a 19.050722
_cell_length_b 7.711291
_cell_length_c 34.531540
_cell_angle_alpha 90.000000
_cell_angle_beta 90.000000
_cell_angle_gamma 90.000000
_cell_volume 5072.878713
_symmetry_space_group_name_H-M "C M M M"
_symmetry_group_IT_number 65
_symmetry_cell_setting 'orthorhombic'
loop_
_space_group_symop_operation_xyz
x,y,z
-x,-y,z
x,-y,-z
-x,y,-z
-x,-y,-z
x,y,-z
-x,y,z
x,-y,z
1/2+x,1/2+y,z
1/2-x,1/2-y,z
1/2+x,1/2-y,-z
1/2-x,1/2+y,-z
1/2-x,1/2-y,-z
1/2+x,1/2+y,-z
1/2-x,1/2+y,z
1/2+x,1/2-y,z
loop_
_atom_site_type_symbol
_atom_site_label
_atom_site_fract_x
_atom_site_fract_y
_atom_site_fract_z
Si Si1 0.668985 0.208562 0.351707
Si Si2 0.168523 0.704308 0.882084
Si Si3 0.580832 0.212993 0.191215
Si Si4 0.330926 0.791552 0.264630
Si Si5 0.079415 0.208246 0.043359
Si Si6 0.418994 0.212567 0.425090
Si Si7 0.667754 0.791636 0.500000
O O1 0.750000 0.250000 0.361093
O O2 0.654389 0.274568 0.308158
O O3 0.617326 0.271255 0.385229
O O4 0.662813 0.000000 0.350570
O O5 0.163952 0.500000 0.877998
O O6 0.250000 0.750000 0.880739
O O7 0.124449 0.777368 0.845922
O O8 0.132954 0.748242 0.922890
O O9 0.500000 0.266204 0.189024
O O10 0.618306 0.271199 0.230755
O O11 0.581671 0.000000 0.191351
O O12 0.250000 0.750000 0.255346
O O13 0.337316 0.000000 0.265887
O O14 0.000000 0.270737 0.052234
O O15 0.076369 0.000000 0.041617
O O16 0.098452 0.270323 0.000000
O O17 0.500000 0.266026 0.428325
O O18 0.372394 0.270614 0.461551
O O19 0.418470 0.000000 0.425050
O O20 0.750000 0.750000 0.500000
O O21 0.661928 0.000000 0.500000
#
# Coordination Sequence:
#
# PCOD9485639 Si02
#       7
#    16  16  16  16  16  16   8
#     4   9  17  29  47  70  94 123 158 195 235 282
#     4  11  22  35  53  76 103 135 170 208 248 292
#     4   9  18  32  50  73  99 126 160 203 248 292
#     4   9  17  30  49  71  96 126 158 195 239 285
#     4   9  19  37  59  81 106 135 166 203 248 296
#     4   9  17  29  46  69  94 120 156 199 238 279
#     4  10  19  31  49  69  91 122 156 194 240 286
#
# _framework density 20.501179
#
# number of rings (size 3 to 8) (size 9 to 14) (size 15 to 20)
#    0.000    2.615    0.000    2.538    0.000    3.077 
#    0.000    4.615    0.000    4.615    0.000    4.308 
#    0.000    0.000    0.000    0.000    0.000    0.000 
#
# Total GULP energy -290287.821289 kJ/mol
# GULP energy per Si atom -5582.458102 kJ/mol
# Density = 2.045452 g / cm^3
# Si number density = 20.501179 Si / 1000 Ang^3
#
#
#
# Elastic Constant Matrix: (Units=GPa)
#
#
# Indices 1 2 3 4 5 6 
#
# 1 203.7049 3.5225 158.1265 0.0000 0.0000 0.0000
# 2 3.5225 32.0353 8.8782 0.0000 0.0000 0.0000
# 3 158.1265 8.8782 191.0369 0.0000 0.0000 0.0000
# 4 0.0000 0.0000 0.0000 7.1950 0.0000 0.0000
# 5 0.0000 0.0000 0.0000 0.0000 -28.7266 0.0000
# 6 0.0000 0.0000 0.0000 0.0000 0.0000 -1.0349
#
#
#
# Elastic Compliance Matrix: (Units=1/GPa)
#
#
# Indices 1 2 3 4 5 6 
#
# 1 0.013821 0.001672 -0.011517 0.000000 0.000000 0.000000
# 2 0.001672 0.031825 -0.002863 0.000000 0.000000 0.000000
# 3 -0.011517 -0.002863 0.014901 0.000000 0.000000 0.000000
# 4 0.000000 0.000000 0.000000 0.138986 0.000000 0.000000
# 5 0.000000 0.000000 0.000000 0.000000 -0.034811 0.000000
# 6 0.000000 0.000000 0.000000 0.000000 0.000000 -0.966323
#
#
# Mechanical properties :
#
#
# Convention : Reuss Voigt Hill
#
# Bulk Modulus (GPa) = 28.46571 85.31459 56.89015
# Shear Modulus (GPa) = -6.54043 12.57003 3.01480
#
# Velocity S-wave (km/s) = -1.78807 2.47885 1.21398
# Velocity P-wave (km/s) = 3.10679 7.06383 5.45664
#
# Compressibility (1/GPa) = 0.03512998
#
# Stress axis : x y z
#
# Youngs Moduli (GPa) = 72.35623 31.42167 67.11017
#
# Poissons Ratio (x) = -0.05254 0.77293
# Poissons Ratio (y) = -0.12100 0.19215
# Poissons Ratio (z) = 0.83335 0.08997
#
# Static dielectric constant tensor:
#      x y z
#    x 1.652870 0.000000 0.000000 
#    y 0.000000 1.768730 0.000000 
#    z 0.000000 0.000000 1.744140 
# 
# From -- ./inp_files/78213.got.cif
#   From: 2010.05.17/outbox.cif.g08.bks.cpg/sg65_40_cif.got.tgz:78213.got - 2010.06.03 17:01:31.
