data_PCOD9485236
_publ_section_title
;
Structure prediction by ZEFSAII (Michael W. Deem and Ramdas Pophale) SiO2 
 PCOD9485236
Probable space group: C M M M
;
_chemical_formula_sum "Si O2"
_cell_formula_units_Z 96
_cell_length_a 21.102123
_cell_length_b 27.008104
_cell_length_c 7.373589
_cell_angle_alpha 90.000000
_cell_angle_beta 90.000000
_cell_angle_gamma 90.000000
_cell_volume 4202.417284
_symmetry_space_group_name_H-M "C M M M"
_symmetry_group_IT_number 65
_symmetry_cell_setting 'orthorhombic'
loop_
_space_group_symop_operation_xyz
x,y,z
-x,-y,z
x,-y,-z
-x,y,-z
-x,-y,-z
x,y,-z
-x,y,z
x,-y,z
1/2+x,1/2+y,z
1/2-x,1/2-y,z
1/2+x,1/2-y,-z
1/2-x,1/2+y,-z
1/2-x,1/2-y,-z
1/2+x,1/2+y,-z
1/2-x,1/2+y,z
1/2+x,1/2-y,z
loop_
_atom_site_type_symbol
_atom_site_label
_atom_site_fract_x
_atom_site_fract_y
_atom_site_fract_z
Si Si1 0.833663 0.945379 0.778081
Si Si2 0.930635 0.558550 0.780135
Si Si3 0.929545 0.745157 0.711584
Si Si4 0.428068 0.640118 0.781034
Si Si5 0.796908 0.594810 0.211748
Si Si6 0.797707 0.292897 0.719423
O O1 0.878609 0.900792 0.717393
O O2 0.761756 0.936459 0.714818
O O3 0.855997 0.000000 0.725718
O O4 0.833269 0.943731 0.000000
O O5 0.925522 0.500000 0.738632
O O6 0.867194 0.585299 0.712494
O O7 0.000000 0.576351 0.715940
O O8 0.932039 0.562784 0.000000
O O9 0.933282 0.731873 0.500000
O O10 0.914738 0.803764 0.721978
O O11 0.869042 0.716926 0.788176
O O12 0.000000 0.737220 0.790335
O O13 0.500000 0.628236 0.724518
O O14 0.426681 0.640530 0.000000
O O15 0.778233 0.652152 0.226964
O O16 0.801432 0.581394 0.000000
O O17 0.798620 0.290781 0.500000
O O18 0.750000 0.250000 0.781474
#
# Coordination Sequence:
#
# PCOD9485236 Si02
#       6
#    16  16  16  16  16  16
#     4   9  17  29  46  69  96 123 151 185 225 270
#     4   8  14  26  45  69  96 123 150 182 222 269
#     4   9  18  33  51  68  89 121 156 186 223 274
#     4   9  17  29  47  71  95 119 150 188 227 265
#     4  10  19  30  48  72  93 117 153 193 228 263
#     4  10  21  35  49  66  91 123 155 187 228 277
#
# _framework density 22.843995
#
# number of rings (size 3 to 8) (size 9 to 14) (size 15 to 20)
#    0.000    2.833    0.000    2.000    0.000    4.000 
#    0.000    1.667    0.000    3.500    0.000    3.500 
#    0.000    0.000    0.000    0.000    0.000    0.000 
#
# Total GULP energy -268064.279016 kJ/mol
# GULP energy per Si atom -5584.672480 kJ/mol
# Density = 2.279200 g / cm^3
# Si number density = 22.843995 Si / 1000 Ang^3
#
#
#
# Elastic Constant Matrix: (Units=GPa)
#
#
# Indices 1 2 3 4 5 6 
#
# 1 52.5172 2.0436 1.8812 0.0000 0.0000 0.0000
# 2 2.0436 24.9529 -14.8676 0.0000 0.0000 0.0000
# 3 1.8812 -14.8676 82.3475 0.0000 0.0000 0.0000
# 4 0.0000 0.0000 0.0000 -84.5809 0.0000 0.0000
# 5 0.0000 0.0000 0.0000 0.0000 -14.6796 0.0000
# 6 0.0000 0.0000 0.0000 0.0000 0.0000 41.4922
#
#
#
# Elastic Compliance Matrix: (Units=1/GPa)
#
#
# Indices 1 2 3 4 5 6 
#
# 1 0.019150 -0.002049 -0.000808 0.000000 0.000000 0.000000
# 2 -0.002049 0.045126 0.008194 0.000000 0.000000 0.000000
# 3 -0.000808 0.008194 0.013642 0.000000 0.000000 0.000000
# 4 0.000000 0.000000 0.000000 -0.011823 0.000000 0.000000
# 5 0.000000 0.000000 0.000000 0.000000 -0.068122 0.000000
# 6 0.000000 0.000000 0.000000 0.000000 0.000000 0.024101
#
#
# Mechanical properties :
#
#
# Convention : Reuss Voigt Hill
#
# Bulk Modulus (GPa) = 11.28777 15.32578 13.30678
# Shear Modulus (GPa) = 122.16091 -0.16963 60.99564
#
# Velocity S-wave (km/s) = 7.32067 -0.27280 5.17290
# Velocity P-wave (km/s) = 8.74118 2.57376 6.44331
#
# Compressibility (1/GPa) = 0.08859144
#
# Stress axis : x y z
#
# Youngs Moduli (GPa) = 52.21913 22.16036 73.30560
#
# Poissons Ratio (x) = 0.04542 0.05919
# Poissons Ratio (y) = 0.10702 -0.60067
# Poissons Ratio (z) = 0.04217 -0.18158
#
# Static dielectric constant tensor:
#      x y z
#    x 1.863210 0.000000 0.000000 
#    y 0.000000 1.791270 0.000000 
#    z 0.000000 0.000000 1.692930 
# 
# From -- ./inp_files/12284.got.cif
#   From: 2010.05.17/outbox.cif.g08.bks.cpg/sg65_7_cif.got.tgz:12284.got - 2010.06.03 17:01:31.
