data_PCOD9485906
_publ_section_title
;
Structure prediction by ZEFSAII (Michael W. Deem and Ramdas Pophale) SiO2 
 PCOD9485906
Probable space group: C M M M
;
_chemical_formula_sum "Si O2"
_cell_formula_units_Z 88
_cell_length_a 21.504294
_cell_length_b 14.859156
_cell_length_c 13.513476
_cell_angle_alpha 90.000000
_cell_angle_beta 90.000000
_cell_angle_gamma 90.000000
_cell_volume 4318.037462
_symmetry_space_group_name_H-M "C M M M"
_symmetry_group_IT_number 65
_symmetry_cell_setting 'orthorhombic'
loop_
_space_group_symop_operation_xyz
x,y,z
-x,-y,z
x,-y,-z
-x,y,-z
-x,-y,-z
x,y,-z
-x,y,z
x,-y,z
1/2+x,1/2+y,z
1/2-x,1/2-y,z
1/2+x,1/2-y,-z
1/2-x,1/2+y,-z
1/2-x,1/2-y,-z
1/2+x,1/2+y,-z
1/2-x,1/2+y,z
1/2+x,1/2-y,z
loop_
_atom_site_type_symbol
_atom_site_label
_atom_site_fract_x
_atom_site_fract_y
_atom_site_fract_z
Si Si1 0.630131 0.896590 0.793476
Si Si2 0.398562 0.394554 0.107607
Si Si3 0.428538 0.601568 0.324850
Si Si4 0.752901 0.857834 0.889347
Si Si5 0.426969 0.109381 0.000000
Si Si6 0.075353 0.710698 0.389997
O O1 0.704297 0.893485 0.809940
O O2 0.603026 0.857621 0.897174
O O3 0.606905 0.843102 0.698736
O O4 0.609424 0.000000 0.784746
O O5 0.414776 0.500000 0.101617
O O6 0.427720 0.365129 0.210488
O O7 0.324271 0.386020 0.121308
O O8 0.414833 0.353643 0.000000
O O9 0.500000 0.593095 0.356370
O O10 0.401185 0.500000 0.330873
O O11 0.401894 0.685454 0.384157
O O12 0.750000 0.750000 0.886611
O O13 0.733266 0.888109 0.000000
O O14 0.500000 0.128448 0.000000
O O15 0.418834 0.000000 0.000000
O O16 0.088329 0.674683 0.500000
O O17 0.000000 0.709683 0.376536
#
# Coordination Sequence:
#
# PCOD9485906 Si02
#       6
#    16  16  16  16   8  16
#     4  11  21  35  57  82 113 150 188 230 279 334
#     4   9  17  29  48  75 109 143 174 213 265 329
#     4   9  18  34  56  81 109 144 187 234 286 340
#     4  10  19  31  50  78 110 146 184 225 269 327
#     4   9  18  32  51  78 111 145 183 228 276 328
#     4  10  22  39  57  80 110 144 189 241 287 336
#
# _framework density 20.379629000000001
#
# number of rings (size 3 to 8) (size 9 to 14) (size 15 to 20)
#    0.000    2.273    0.909    2.182    0.000    2.909 
#    1.636    4.545    0.000    4.909    0.000    5.091 
#    0.000    0.000    0.000    0.000    0.000    0.000 
#
# Total GULP energy -245422.106553 kJ/mol
# GULP energy per Si atom -5577.775149 kJ/mol
# Density = 2.033324 g / cm^3
# Si number density = 20.379629 Si / 1000 Ang^3
#
#
#
# Elastic Constant Matrix: (Units=GPa)
#
#
# Indices 1 2 3 4 5 6 
#
# 1 41.9542 5.0033 26.6994 0.0000 0.0000 0.0000
# 2 5.0033 73.7864 46.9700 0.0000 0.0000 0.0000
# 3 26.6994 46.9700 125.5810 0.0000 0.0000 0.0000
# 4 0.0000 0.0000 0.0000 22.0981 0.0000 0.0000
# 5 0.0000 0.0000 0.0000 0.0000 21.5008 0.0000
# 6 0.0000 0.0000 0.0000 0.0000 0.0000 15.5476
#
#
#
# Elastic Compliance Matrix: (Units=1/GPa)
#
#
# Indices 1 2 3 4 5 6 
#
# 1 0.027905 0.002473 -0.006858 0.000000 0.000000 0.000000
# 2 0.002473 0.018007 -0.007261 0.000000 0.000000 0.000000
# 3 -0.006858 -0.007261 0.012137 0.000000 0.000000 0.000000
# 4 0.000000 0.000000 0.000000 0.045253 0.000000 0.000000
# 5 0.000000 0.000000 0.000000 0.000000 0.046510 0.000000
# 6 0.000000 0.000000 0.000000 0.000000 0.000000 0.064319
#
#
# Mechanical properties :
#
#
# Convention : Reuss Voigt Hill
#
# Bulk Modulus (GPa) = 28.77052 44.29633 36.53342
# Shear Modulus (GPa) = 20.07980 22.67255 21.37617
#
# Velocity S-wave (km/s) = 3.14233 3.33905 3.24218
# Velocity P-wave (km/s) = 5.22624 6.05380 5.65518
#
# Compressibility (1/GPa) = 0.03475781
#
# Stress axis : x y z
#
# Youngs Moduli (GPa) = 35.83604 55.53421 82.39460
#
# Poissons Ratio (x) = -0.13735 0.56505
# Poissons Ratio (y) = -0.08863 0.59825
# Poissons Ratio (z) = 0.24576 0.40322
#
# Static dielectric constant tensor:
#      x y z
#    x 1.720420 0.000000 0.000000 
#    y 0.000000 1.770460 0.000000 
#    z 0.000000 0.000000 1.747710 
# 
# From -- ./inp_files/30537.got.cif
#   From: 2010.05.17/outbox.cif.g08.bks.cpg/sg65_16_cif.got.tgz:30537.got - 2010.06.03 17:01:31.
