data_PCOD9485692
_publ_section_title
;
Structure prediction by ZEFSAII (Michael W. Deem and Ramdas Pophale) SiO2 
 PCOD9485692
Probable space group: C M M M
;
_chemical_formula_sum "Si O2"
_cell_formula_units_Z 88
_cell_length_a 9.177877
_cell_length_b 14.560898
_cell_length_c 29.988898
_cell_angle_alpha 90.000000
_cell_angle_beta 90.000000
_cell_angle_gamma 90.000000
_cell_volume 4007.660275
_symmetry_space_group_name_H-M "C M M M"
_symmetry_group_IT_number 65
_symmetry_cell_setting 'orthorhombic'
loop_
_space_group_symop_operation_xyz
x,y,z
-x,-y,z
x,-y,-z
-x,y,-z
-x,-y,-z
x,y,-z
-x,y,z
x,-y,z
1/2+x,1/2+y,z
1/2-x,1/2-y,z
1/2+x,1/2-y,-z
1/2-x,1/2+y,-z
1/2-x,1/2-y,-z
1/2+x,1/2+y,-z
1/2-x,1/2+y,z
1/2+x,1/2-y,z
loop_
_atom_site_type_symbol
_atom_site_label
_atom_site_fract_x
_atom_site_fract_y
_atom_site_fract_z
Si Si1 0.333624 0.612573 0.679003
Si Si2 0.162173 0.607167 0.234494
Si Si3 0.324725 0.349479 0.144796
Si Si4 0.824734 0.850057 0.951927
Si Si5 0.333452 0.387704 0.500000
Si Si6 0.833601 0.387792 0.410589
O O1 0.500000 0.644487 0.678809
O O2 0.337327 0.500000 0.679401
O O3 0.250125 0.644420 0.723314
O O4 0.249918 0.639604 0.634194
O O5 0.143767 0.500000 0.244644
O O6 0.253597 0.610411 0.189057
O O7 0.000000 0.648377 0.228899
O O8 0.500000 0.345998 0.149291
O O9 0.250000 0.250000 0.142459
O O10 0.289635 0.393402 0.096245
O O11 0.750000 0.750000 0.952261
O O12 0.000000 0.838945 0.951601
O O13 0.786419 0.893593 0.000000
O O14 0.335921 0.500000 0.500000
O O15 0.500000 0.355938 0.500000
O O16 0.249981 0.359691 0.544723
O O17 0.836436 0.500000 0.410729
O O18 0.000000 0.355689 0.410516
#
# Coordination Sequence:
#
# PCOD9485692 Si02
#       6
#    16  16  16  16   8  16
#     4   9  16  26  40  57  77 104 141 182 222 267
#     4  10  20  33  48  66  90 121 157 195 233 274
#     4  10  19  31  49  72  97 123 152 188 230 275
#     4   8  14  25  42  65  91 117 146 181 221 266
#     4   9  15  21  29  43  65  95 132 173 216 261
#     4   9  15  22  32  47  69  98 133 173 217 264
#
# _framework density 21.957948999999999
#
# number of rings (size 3 to 8) (size 9 to 14) (size 15 to 20)
#    0.000    2.818    0.000    2.455    0.000    7.273 
#    0.000    0.000    0.000    0.545    0.000    3.818 
#    0.000    0.000    0.000    0.818    0.000   12.364 
#
# Total GULP energy -245479.966916 kJ/mol
# GULP energy per Si atom -5579.090157 kJ/mol
# Density = 2.190797 g / cm^3
# Si number density = 21.957949 Si / 1000 Ang^3
#
#
#
# Elastic Constant Matrix: (Units=GPa)
#
#
# Indices 1 2 3 4 5 6 
#
# 1 181.0751 11.4047 133.3762 0.0000 0.0000 0.0000
# 2 11.4047 55.8093 9.2194 0.0000 0.0000 0.0000
# 3 133.3762 9.2194 271.2468 0.0000 0.0000 0.0000
# 4 0.0000 0.0000 0.0000 -6.5804 0.0000 0.0000
# 5 0.0000 0.0000 0.0000 0.0000 37.8975 0.0000
# 6 0.0000 0.0000 0.0000 0.0000 0.0000 5.6673
#
#
#
# Elastic Compliance Matrix: (Units=1/GPa)
#
#
# Indices 1 2 3 4 5 6 
#
# 1 0.008723 -0.001080 -0.004252 0.000000 0.000000 0.000000
# 2 -0.001080 0.018153 -0.000086 0.000000 0.000000 0.000000
# 3 -0.004252 -0.000086 0.005781 0.000000 0.000000 0.000000
# 4 0.000000 0.000000 0.000000 -0.151967 0.000000 0.000000
# 5 0.000000 0.000000 0.000000 0.000000 0.026387 0.000000
# 6 0.000000 0.000000 0.000000 0.000000 0.000000 0.176451
#
#
# Mechanical properties :
#
#
# Convention : Reuss Voigt Hill
#
# Bulk Modulus (GPa) = 45.83020 90.68130 68.25575
# Shear Modulus (GPa) = 49.19456 31.00560 40.10008
#
# Velocity S-wave (km/s) = 4.73842 3.76179 4.27807
# Velocity P-wave (km/s) = 7.13120 7.76244 7.45350
#
# Compressibility (1/GPa) = 0.02181967
#
# Stress axis : x y z
#
# Youngs Moduli (GPa) = 114.64118 55.08711 172.99244
#
# Poissons Ratio (x) = 0.05950 0.73564
# Poissons Ratio (y) = 0.12382 0.01487
# Poissons Ratio (z) = 0.48751 0.00473
#
# Static dielectric constant tensor:
#      x y z
#    x 1.759060 0.000000 0.000000 
#    y 0.000000 1.944230 0.000000 
#    z 0.000000 0.000000 1.810950 
# 
# From -- ./inp_files/76656.got.cif
#   From: 2010.05.17/outbox.cif.g08.bks.cpg/sg65_39_cif.got.tgz:76656.got - 2010.06.03 17:01:31.
