data_PCOD9485389
_publ_section_title
;
Structure prediction by ZEFSAII (Michael W. Deem and Ramdas Pophale) SiO2 
 PCOD9485389
Probable space group: C M M M
;
_chemical_formula_sum "Si O2"
_cell_formula_units_Z 80
_cell_length_a 23.837888
_cell_length_b 26.592043
_cell_length_c 8.909508
_cell_angle_alpha 90.000000
_cell_angle_beta 90.000000
_cell_angle_gamma 90.000000
_cell_volume 5647.720574
_symmetry_space_group_name_H-M "C M M M"
_symmetry_group_IT_number 65
_symmetry_cell_setting 'orthorhombic'
loop_
_space_group_symop_operation_xyz
x,y,z
-x,-y,z
x,-y,-z
-x,y,-z
-x,-y,-z
x,y,-z
-x,y,z
x,-y,z
1/2+x,1/2+y,z
1/2-x,1/2-y,z
1/2+x,1/2-y,-z
1/2-x,1/2+y,-z
1/2-x,1/2-y,-z
1/2+x,1/2+y,-z
1/2-x,1/2+y,z
1/2+x,1/2-y,z
loop_
_atom_site_type_symbol
_atom_site_label
_atom_site_fract_x
_atom_site_fract_y
_atom_site_fract_z
Si Si1 0.000000 0.102280 0.679756
Si Si2 0.287236 0.198860 0.173172
Si Si3 0.500000 0.286198 0.179101
Si Si4 0.188379 0.142231 0.321811
Si Si5 0.387432 0.441171 0.821845
Si Si6 0.114798 0.243408 0.678086
O O1 0.055287 0.074293 0.738737
O O2 0.000000 0.104975 0.500000
O O3 0.000000 0.158393 0.746993
O O4 0.250000 0.250000 0.174244
O O5 0.248335 0.158071 0.254654
O O6 0.343827 0.213833 0.259041
O O7 0.297862 0.185644 0.000000
O O8 0.556052 0.258987 0.236589
O O9 0.500000 0.290658 0.000000
O O10 0.192127 0.134445 0.500000
O O11 0.161153 0.094558 0.241296
O O12 0.146543 0.189867 0.297060
O O13 0.375875 0.500000 0.797495
O O14 0.394466 0.432615 0.000000
O O15 0.106549 0.248835 0.500000
#
# Coordination Sequence:
#
# PCOD9485389 Si02
#       6
#     8  16   8  16  16  16
#     4  12  23  35  48  63  84 116 154 195 237 275
#     4   9  17  29  46  66  88 113 144 180 221 269
#     4  12  22  31  47  66  90 121 153 189 228 269
#     4  10  19  31  48  66  87 114 147 187 229 271
#     4  11  23  36  49  65  86 115 153 196 237 275
#     4  10  19  31  46  66  90 115 148 185 224 269
#
# _framework density 14.165006
#
# number of rings (size 3 to 8) (size 9 to 14) (size 15 to 20)
#    0.000    1.600    2.000    4.500    0.000    6.800 
#    0.000    0.000    0.000    0.000    0.000    0.000 
#    0.000    0.000    0.000    0.900    0.000   16.600 
#
# Total GULP energy -223338.280614 kJ/mol
# GULP energy per Si atom -5583.457015 kJ/mol
# Density = 1.413277 g / cm^3
# Si number density = 14.165006 Si / 1000 Ang^3
#
#
#
# Elastic Constant Matrix: (Units=GPa)
#
#
# Indices 1 2 3 4 5 6 
#
# 1 102.5642 62.5569 79.3068 0.0000 0.0000 0.0000
# 2 62.5569 65.4010 55.4888 0.0000 0.0000 0.0000
# 3 79.3068 55.4888 124.3560 0.0000 0.0000 0.0000
# 4 0.0000 0.0000 0.0000 15.8790 0.0000 0.0000
# 5 0.0000 0.0000 0.0000 0.0000 31.2414 0.0000
# 6 0.0000 0.0000 0.0000 0.0000 0.0000 4.7444
#
#
#
# Elastic Compliance Matrix: (Units=1/GPa)
#
#
# Indices 1 2 3 4 5 6 
#
# 1 0.029565 -0.019765 -0.010036 0.000000 0.000000 0.000000
# 2 -0.019765 0.037818 -0.004270 0.000000 0.000000 0.000000
# 3 -0.010036 -0.004270 0.016347 0.000000 0.000000 0.000000
# 4 0.000000 0.000000 0.000000 0.062976 0.000000 0.000000
# 5 0.000000 0.000000 0.000000 0.000000 0.032009 0.000000
# 6 0.000000 0.000000 0.000000 0.000000 0.000000 0.210775
#
#
# Mechanical properties :
#
#
# Convention : Reuss Voigt Hill
#
# Bulk Modulus (GPa) = 64.14610 76.33624 70.24117
# Shear Modulus (GPa) = 10.80315 16.70422 13.75368
#
# Velocity S-wave (km/s) = 2.76463 3.43776 3.11941
# Velocity P-wave (km/s) = 7.45481 8.35256 7.91642
#
# Compressibility (1/GPa) = 0.01558941
#
# Stress axis : x y z
#
# Youngs Moduli (GPa) = 33.82383 26.44209 61.17352
#
# Poissons Ratio (x) = 0.52262 0.61391
# Poissons Ratio (y) = 0.66852 0.26123
# Poissons Ratio (z) = 0.33944 0.11291
#
# Static dielectric constant tensor:
#      x y z
#    x 1.455510 0.000000 0.000000 
#    y 0.000000 1.441000 0.000000 
#    z 0.000000 0.000000 1.470970 
# 
# From -- ./inp_files/11591.got.cif
#   From: 2010.05.17/outbox.cif.g08.bks.cpg/sg65_6_cif.got.tgz:11591.got - 2010.06.03 17:01:31.
