data_PCOD9485243
_publ_section_title
;
Structure prediction by ZEFSAII (Michael W. Deem and Ramdas Pophale) SiO2 
 PCOD9485243
Probable space group: C M M M
;
_chemical_formula_sum "Si O2"
_cell_formula_units_Z 80
_cell_length_a 10.117233
_cell_length_b 27.068609
_cell_length_c 17.685628
_cell_angle_alpha 90.000000
_cell_angle_beta 90.000000
_cell_angle_gamma 90.000000
_cell_volume 4843.375901
_symmetry_space_group_name_H-M "C M M M"
_symmetry_group_IT_number 65
_symmetry_cell_setting 'orthorhombic'
loop_
_space_group_symop_operation_xyz
x,y,z
-x,-y,z
x,-y,-z
-x,y,-z
-x,-y,-z
x,y,-z
-x,y,z
x,-y,z
1/2+x,1/2+y,z
1/2-x,1/2-y,z
1/2+x,1/2-y,-z
1/2-x,1/2+y,-z
1/2-x,1/2-y,-z
1/2+x,1/2+y,-z
1/2-x,1/2+y,z
1/2+x,1/2-y,z
loop_
_atom_site_type_symbol
_atom_site_label
_atom_site_fract_x
_atom_site_fract_y
_atom_site_fract_z
Si Si1 0.757943 0.154062 0.319158
Si Si2 0.000000 0.804946 0.588159
Si Si3 0.157852 0.900092 0.083111
Si Si4 0.840851 0.796058 0.838501
Si Si5 0.840187 0.056718 0.241344
Si Si6 0.500000 0.813455 0.409136
O O1 0.783639 0.185143 0.242122
O O2 0.773471 0.097151 0.294748
O O3 0.625432 0.165915 0.363955
O O4 0.874201 0.170849 0.373781
O O5 0.000000 0.745954 0.599056
O O6 0.000000 0.814588 0.500000
O O7 0.174426 0.842559 0.105195
O O8 0.203912 0.931643 0.155111
O O9 0.000000 0.908683 0.079455
O O10 0.213481 0.911050 0.000000
O O11 0.750000 0.750000 0.861908
O O12 0.000000 0.785708 0.831899
O O13 0.000000 0.065054 0.244475
O O14 0.814401 0.000000 0.260664
O O15 0.500000 0.824187 0.500000
#
# Coordination Sequence:
#
# PCOD9485243 Si02
#       6
#    16   8  16  16  16   8
#     4  11  20  35  52  77 107 136 172 219 257 303
#     4  11  20  34  55  77 106 139 167 203 257 311
#     4   8  15  28  45  72 108 137 168 214 262 304
#     4  10  19  30  48  73 103 142 180 212 251 304
#     4   9  17  32  55  79 101 135 180 220 261 305
#     4  11  24  36  53  81 108 137 171 207 257 319
#
# _framework density 16.517405
#
# number of rings (size 3 to 8) (size 9 to 14) (size 15 to 20)
#    0.000    2.200    2.000    3.600    1.400    2.400 
#    0.000    2.500    0.000    3.600    0.000    0.000 
#    0.000    3.600    0.000    0.000    0.000    0.000 
#
# Total GULP energy -222916.267219 kJ/mol
# GULP energy per Si atom -5572.906680 kJ/mol
# Density = 1.647981 g / cm^3
# Si number density = 16.517405 Si / 1000 Ang^3
#
#
#
# Elastic Constant Matrix: (Units=GPa)
#
#
# Indices 1 2 3 4 5 6 
#
# 1 89.9705 24.9284 38.0176 0.0000 0.0000 0.0000
# 2 24.9284 68.4060 36.7142 0.0000 0.0000 0.0000
# 3 38.0176 36.7142 105.3709 0.0000 0.0000 0.0000
# 4 0.0000 0.0000 0.0000 4.0508 0.0000 0.0000
# 5 0.0000 0.0000 0.0000 0.0000 22.0902 0.0000
# 6 0.0000 0.0000 0.0000 0.0000 0.0000 12.2295
#
#
#
# Elastic Compliance Matrix: (Units=1/GPa)
#
#
# Indices 1 2 3 4 5 6 
#
# 1 0.013550 -0.002846 -0.003897 0.000000 0.000000 0.000000
# 2 -0.002846 0.018579 -0.005447 0.000000 0.000000 0.000000
# 3 -0.003897 -0.005447 0.012794 0.000000 0.000000 0.000000
# 4 0.000000 0.000000 0.000000 0.246862 0.000000 0.000000
# 5 0.000000 0.000000 0.000000 0.000000 0.045269 0.000000
# 6 0.000000 0.000000 0.000000 0.000000 0.000000 0.081770
#
#
# Mechanical properties :
#
#
# Convention : Reuss Voigt Hill
#
# Bulk Modulus (GPa) = 48.67752 51.45199 50.06476
# Shear Modulus (GPa) = 11.10984 18.61324 14.86154
#
# Velocity S-wave (km/s) = 2.59629 3.36055 3.00284
# Velocity P-wave (km/s) = 6.20662 6.80261 6.51144
#
# Compressibility (1/GPa) = 0.02054336
#
# Stress axis : x y z
#
# Youngs Moduli (GPa) = 73.79992 53.82409 78.16107
#
# Poissons Ratio (x) = 0.15320 0.30460
# Poissons Ratio (y) = 0.21006 0.42571
# Poissons Ratio (z) = 0.28761 0.29315
#
# Static dielectric constant tensor:
#      x y z
#    x 1.541140 0.000000 0.000000 
#    y 0.000000 1.551000 0.000000 
#    z 0.000000 0.000000 1.566660 
# 
# From -- ./inp_files/50230.got.cif
#   From: 2010.05.17/outbox.cif.g08.bks.cpg/sg65_26_cif.got.tgz:50230.got - 2010.06.03 17:01:31.
