data_PCOD9485719
_publ_section_title
;
Structure prediction by ZEFSAII (Michael W. Deem and Ramdas Pophale) SiO2 
 PCOD9485719
Probable space group: C M M M
;
_chemical_formula_sum "Si O2"
_cell_formula_units_Z 88
_cell_length_a 18.104815
_cell_length_b 9.092844
_cell_length_c 29.917321
_cell_angle_alpha 90.000000
_cell_angle_beta 90.000000
_cell_angle_gamma 90.000000
_cell_volume 4925.116784
_symmetry_space_group_name_H-M "C M M M"
_symmetry_group_IT_number 65
_symmetry_cell_setting 'orthorhombic'
loop_
_space_group_symop_operation_xyz
x,y,z
-x,-y,z
x,-y,-z
-x,y,-z
-x,-y,-z
x,y,-z
-x,y,z
x,-y,z
1/2+x,1/2+y,z
1/2-x,1/2-y,z
1/2+x,1/2-y,-z
1/2-x,1/2+y,-z
1/2-x,1/2-y,-z
1/2+x,1/2+y,-z
1/2-x,1/2+y,z
1/2+x,1/2-y,z
loop_
_atom_site_type_symbol
_atom_site_label
_atom_site_fract_x
_atom_site_fract_y
_atom_site_fract_z
Si Si1 0.909953 0.330624 0.818357
Si Si2 0.170419 0.822390 0.000000
Si Si3 0.910881 0.829689 0.272355
Si Si4 0.830929 0.323272 0.548016
Si Si5 0.331035 0.176655 0.645957
Si Si6 0.087842 0.174878 0.090798
O O1 0.887188 0.500000 0.814970
O O2 0.886271 0.240333 0.774745
O O3 0.885708 0.259318 0.865063
O O4 0.000000 0.326542 0.818754
O O5 0.250000 0.750000 0.000000
O O6 0.127401 0.779750 0.045131
O O7 0.175607 0.000000 0.000000
O O8 0.878730 0.740216 0.313815
O O9 0.000000 0.823380 0.273471
O O10 0.888397 0.000000 0.275053
O O11 0.866762 0.282725 0.500000
O O12 0.822569 0.500000 0.548029
O O13 0.750000 0.250000 0.547848
O O14 0.863924 0.285823 0.596548
O O15 0.250000 0.250000 0.648266
O O16 0.324981 0.000000 0.649406
O O17 0.000000 0.199354 0.085876
O O18 0.098635 0.000000 0.097372
#
# Coordination Sequence:
#
# PCOD9485719 Si02
#       6
#    16   8  16  16  16  16
#     4   9  17  30  50  76 101 124 157 203 250 292
#     4  10  21  35  51  73 103 136 164 194 236 286
#     4  10  20  34  52  73  99 132 168 205 247 296
#     4   8  14  25  42  65  92 122 157 197 241 288
#     4  10  19  31  49  73 101 130 162 203 248 295
#     4   9  17  32  54  76  97 125 164 204 239 279
#
# _framework density 17.867597
#
# number of rings (size 3 to 8) (size 9 to 14) (size 15 to 20)
#    0.000    2.727    0.000    1.909    0.000    5.818 
#    0.000    0.909    0.000    5.455    0.000    3.818 
#    0.000    0.000    0.000    0.000    0.000    0.000 
#
# Total GULP energy -245118.961494 kJ/mol
# GULP energy per Si atom -5570.885489 kJ/mol
# Density = 1.782693 g / cm^3
# Si number density = 17.867597 Si / 1000 Ang^3
#
#
#
# Elastic Constant Matrix: (Units=GPa)
#
#
# Indices 1 2 3 4 5 6 
#
# 1 13.3156 25.1420 35.4600 0.0000 0.0000 0.0000
# 2 25.1420 79.5648 81.2997 0.0000 0.0000 0.0000
# 3 35.4600 81.2997 213.9270 0.0000 0.0000 0.0000
# 4 0.0000 0.0000 0.0000 30.7414 0.0000 0.0000
# 5 0.0000 0.0000 0.0000 0.0000 24.5366 0.0000
# 6 0.0000 0.0000 0.0000 0.0000 0.0000 21.5455
#
#
#
# Elastic Compliance Matrix: (Units=1/GPa)
#
#
# Indices 1 2 3 4 5 6 
#
# 1 0.215449 -0.051644 -0.016086 0.000000 0.000000 0.000000
# 2 -0.051644 0.032927 -0.003953 0.000000 0.000000 0.000000
# 3 -0.016086 -0.003953 0.008843 0.000000 0.000000 0.000000
# 4 0.000000 0.000000 0.000000 0.032529 0.000000 0.000000
# 5 0.000000 0.000000 0.000000 0.000000 0.040755 0.000000
# 6 0.000000 0.000000 0.000000 0.000000 0.000000 0.046413
#
#
# Mechanical properties :
#
#
# Convention : Reuss Voigt Hill
#
# Bulk Modulus (GPa) = 8.78321 65.62341 37.20331
# Shear Modulus (GPa) = 8.95681 26.35843 17.65762
#
# Velocity S-wave (km/s) = 2.24138 3.84501 3.14705
# Velocity P-wave (km/s) = 3.40951 7.51794 5.83713
#
# Compressibility (1/GPa) = 0.11385362
#
# Stress axis : x y z
#
# Youngs Moduli (GPa) = 4.64146 30.37054 113.08320
#
# Poissons Ratio (x) = 1.56846 1.81903
# Poissons Ratio (y) = 0.23970 0.44700
# Poissons Ratio (z) = 0.07466 0.12005
#
# Static dielectric constant tensor:
#      x y z
#    x 1.590310 0.000000 0.000000 
#    y 0.000000 1.603180 0.000000 
#    z 0.000000 0.000000 1.638840 
# 
# From -- ./inp_files/77884.got.cif
#   From: 2010.05.17/outbox.cif.g08.bks.cpg/sg65_39_cif.got.tgz:77884.got - 2010.06.03 17:01:31.
