data_PCOD9485124
_publ_section_title
;
Structure prediction by ZEFSAII (Michael W. Deem and Ramdas Pophale) SiO2 
 PCOD9485124
Probable space group: C M M M
;
_chemical_formula_sum "Si O2"
_cell_formula_units_Z 88
_cell_length_a 8.989885
_cell_length_b 26.537404
_cell_length_c 20.998048
_cell_angle_alpha 90.000000
_cell_angle_beta 90.000000
_cell_angle_gamma 90.000000
_cell_volume 5009.466728
_symmetry_space_group_name_H-M "C M M M"
_symmetry_group_IT_number 65
_symmetry_cell_setting 'orthorhombic'
loop_
_space_group_symop_operation_xyz
x,y,z
-x,-y,z
x,-y,-z
-x,y,-z
-x,-y,-z
x,y,-z
-x,y,z
x,-y,z
1/2+x,1/2+y,z
1/2-x,1/2-y,z
1/2+x,1/2-y,-z
1/2-x,1/2+y,-z
1/2-x,1/2-y,-z
1/2+x,1/2+y,-z
1/2-x,1/2+y,z
1/2+x,1/2-y,z
loop_
_atom_site_type_symbol
_atom_site_label
_atom_site_fract_x
_atom_site_fract_y
_atom_site_fract_z
Si Si1 0.323915 0.695695 0.424593
Si Si2 0.676727 0.860887 0.316440
Si Si3 0.832266 0.125253 0.108651
Si Si4 0.835386 0.794536 0.780803
Si Si5 0.679705 0.192794 0.000000
Si Si6 0.178380 0.441446 0.208368
O O1 0.300311 0.687520 0.500000
O O2 0.500000 0.698881 0.412348
O O3 0.250000 0.750000 0.409018
O O4 0.254914 0.650132 0.383490
O O5 0.500000 0.862226 0.324234
O O6 0.730448 0.812896 0.275514
O O7 0.721249 0.908168 0.270985
O O8 0.848503 0.161259 0.169354
O O9 0.751839 0.078018 0.142453
O O10 0.000000 0.114017 0.084511
O O11 0.737755 0.158381 0.058949
O O12 0.750000 0.750000 0.815248
O O13 0.000000 0.780604 0.758515
O O14 0.750000 0.250000 0.000000
O O15 0.500000 0.197359 0.000000
O O16 0.212889 0.500000 0.218632
O O17 0.000000 0.435218 0.201985
#
# Coordination Sequence:
#
# PCOD9485124 Si02
#       6
#    16  16  16  16   8  16
#     4  10  20  33  49  71 103 141 177 212 252 303
#     4  10  19  31  50  74 100 131 168 211 257 307
#     4  10  21  36  54  78 106 137 175 216 259 310
#     4  10  19  30  46  69  99 132 166 206 251 301
#     4  12  24  38  57  80 111 148 180 213 255 307
#     4   9  19  37  59  81 105 134 171 218 271 319
#
# _framework density 17.566739999999999
#
# number of rings (size 3 to 8) (size 9 to 14) (size 15 to 20)
#    0.000    2.000    0.000    4.091    0.000    5.818 
#    0.000    0.455    0.000    3.273    0.000    3.818 
#    0.000    0.000    0.000    0.000    0.000    0.000 
#
# Total GULP energy -244989.052797 kJ/mol
# GULP energy per Si atom -5567.933018 kJ/mol
# Density = 1.752676 g / cm^3
# Si number density = 17.566740 Si / 1000 Ang^3
#
#
#
# Elastic Constant Matrix: (Units=GPa)
#
#
# Indices 1 2 3 4 5 6 
#
# 1 96.2639 58.9834 55.7403 0.0000 0.0000 0.0000
# 2 58.9834 97.9396 42.6010 0.0000 0.0000 0.0000
# 3 55.7403 42.6010 95.6540 0.0000 0.0000 0.0000
# 4 0.0000 0.0000 0.0000 25.5705 0.0000 0.0000
# 5 0.0000 0.0000 0.0000 0.0000 45.4908 0.0000
# 6 0.0000 0.0000 0.0000 0.0000 0.0000 22.2471
#
#
#
# Elastic Compliance Matrix: (Units=1/GPa)
#
#
# Indices 1 2 3 4 5 6 
#
# 1 0.020405 -0.008827 -0.007960 0.000000 0.000000 0.000000
# 2 -0.008827 0.016482 -0.002197 0.000000 0.000000 0.000000
# 3 -0.007960 -0.002197 0.016071 0.000000 0.000000 0.000000
# 4 0.000000 0.000000 0.000000 0.039108 0.000000 0.000000
# 5 0.000000 0.000000 0.000000 0.000000 0.021982 0.000000
# 6 0.000000 0.000000 0.000000 0.000000 0.000000 0.044950
#
#
# Mechanical properties :
#
#
# Convention : Reuss Voigt Hill
#
# Bulk Modulus (GPa) = 66.70336 67.16743 66.93539
# Shear Modulus (GPa) = 24.75714 27.49720 26.12717
#
# Velocity S-wave (km/s) = 3.75816 3.96068 3.86075
# Velocity P-wave (km/s) = 7.54225 7.69640 7.61971
#
# Compressibility (1/GPa) = 0.01499175
#
# Stress axis : x y z
#
# Youngs Moduli (GPa) = 49.00653 60.67302 62.22363
#
# Poissons Ratio (x) = 0.53555 0.49528
# Poissons Ratio (y) = 0.43257 0.13669
# Poissons Ratio (z) = 0.39008 0.13329
#
# Static dielectric constant tensor:
#      x y z
#    x 1.639990 0.000000 0.000000 
#    y 0.000000 1.610740 0.000000 
#    z 0.000000 0.000000 1.629090 
# 
# From -- ./inp_files/60176.got.cif
#   From: 2010.05.17/outbox.cif.g08.bks.cpg/sg65_31_cif.got.tgz:60176.got - 2010.06.03 17:01:31.
