data_PCOD9485206
_publ_section_title
;
Structure prediction by ZEFSAII (Michael W. Deem and Ramdas Pophale) SiO2 
 PCOD9485206
Probable space group: C M M M
;
_chemical_formula_sum "Si O2"
_cell_formula_units_Z 92
_cell_length_a 19.255172
_cell_length_b 7.865703
_cell_length_c 32.786123
_cell_angle_alpha 90.000000
_cell_angle_beta 90.000000
_cell_angle_gamma 90.000000
_cell_volume 4965.637477
_symmetry_space_group_name_H-M "C M M M"
_symmetry_group_IT_number 65
_symmetry_cell_setting 'orthorhombic'
loop_
_space_group_symop_operation_xyz
x,y,z
-x,-y,z
x,-y,-z
-x,y,-z
-x,-y,-z
x,y,-z
-x,y,z
x,-y,z
1/2+x,1/2+y,z
1/2-x,1/2-y,z
1/2+x,1/2-y,-z
1/2-x,1/2+y,-z
1/2-x,1/2-y,-z
1/2+x,1/2+y,-z
1/2-x,1/2+y,z
1/2+x,1/2-y,z
loop_
_atom_site_type_symbol
_atom_site_label
_atom_site_fract_x
_atom_site_fract_y
_atom_site_fract_z
Si Si1 0.078934 0.800130 0.350395
Si Si2 0.669041 0.795927 0.182405
Si Si3 0.582657 0.691765 0.104580
Si Si4 0.169575 0.297133 0.726377
Si Si5 0.084478 0.500000 0.953432
Si Si6 0.915710 0.692750 0.560515
Si Si7 0.378949 0.500000 0.500000
O O1 0.125070 0.772170 0.310798
O O2 0.102859 0.709337 0.391755
O O3 0.000000 0.742984 0.341879
O O4 0.077421 0.000000 0.359863
O O5 0.750000 0.750000 0.176809
O O6 0.623080 0.717975 0.146744
O O7 0.648759 0.737369 0.228128
O O8 0.662028 0.000000 0.180602
O O9 0.500000 0.714127 0.111615
O O10 0.593875 0.500000 0.089476
O O11 0.605318 0.833498 0.072058
O O12 0.163333 0.500000 0.726078
O O13 0.250000 0.250000 0.720901
O O14 0.000000 0.500000 0.954783
O O15 0.109311 0.500000 0.000000
O O16 0.898546 0.500000 0.547082
O O17 0.000000 0.712493 0.557016
O O18 0.883703 0.847428 0.535116
#
# Coordination Sequence:
#
# PCOD9485206 Si02
#       7
#    16  16  16  16   8  16   4
#     4  10  20  35  53  76 111 148 179 223 278 326
#     4  10  20  35  55  80 110 147 186 232 281 327
#     4  10  20  34  55  84 115 148 189 231 275 332
#     4  10  21  36  55  79 109 143 189 233 269 326
#     4   9  18  34  56  82 113 147 184 232 283 330
#     4  10  19  30  47  72 105 140 175 217 268 326
#     4  12  19  30  48  74 106 138 176 220 273 326
#
# _framework density 18.527329999999999
#
# number of rings (size 3 to 8) (size 9 to 14) (size 15 to 20)
#    0.000    2.000    1.739    2.609    0.000    4.870 
#    0.000    5.217    0.000    0.522    0.000    0.609 
#    0.000    0.000    0.000    0.000    0.000    0.000 
#
# Total GULP energy -256152.673988 kJ/mol
# GULP energy per Si atom -5568.536391 kJ/mol
# Density = 1.848516 g / cm^3
# Si number density = 18.527330 Si / 1000 Ang^3
#
#
#
# Elastic Constant Matrix: (Units=GPa)
#
#
# Indices 1 2 3 4 5 6 
#
# 1 21.9301 22.0706 48.7906 0.0000 0.0000 0.0000
# 2 22.0706 125.3494 64.8490 0.0000 0.0000 0.0000
# 3 48.7906 64.8490 169.9326 0.0000 0.0000 0.0000
# 4 0.0000 0.0000 0.0000 18.9673 0.0000 0.0000
# 5 0.0000 0.0000 0.0000 0.0000 -20.2915 0.0000
# 6 0.0000 0.0000 0.0000 0.0000 0.0000 20.0553
#
#
#
# Elastic Compliance Matrix: (Units=1/GPa)
#
#
# Indices 1 2 3 4 5 6 
#
# 1 0.128154 -0.004397 -0.035118 0.000000 0.000000 0.000000
# 2 -0.004397 0.010091 -0.002589 0.000000 0.000000 0.000000
# 3 -0.035118 -0.002589 0.016955 0.000000 0.000000 0.000000
# 4 0.000000 0.000000 0.000000 0.052722 0.000000 0.000000
# 5 0.000000 0.000000 0.000000 0.000000 -0.049282 0.000000
# 6 0.000000 0.000000 0.000000 0.000000 0.000000 0.049862
#
#
# Mechanical properties :
#
#
# Convention : Reuss Voigt Hill
#
# Bulk Modulus (GPa) = 14.08544 65.40362 39.74453
# Shear Modulus (GPa) = 15.80410 15.84634 15.82522
#
# Velocity S-wave (km/s) = 2.92381 2.92772 2.92576
# Velocity P-wave (km/s) = 4.36088 6.84153 5.73689
#
# Compressibility (1/GPa) = 0.07099527
#
# Stress axis : x y z
#
# Youngs Moduli (GPa) = 7.80310 99.09822 58.97837
#
# Poissons Ratio (x) = 0.43570 2.07117
# Poissons Ratio (y) = 0.03431 0.15267
# Poissons Ratio (z) = 0.27403 0.25652
#
# Static dielectric constant tensor:
#      x y z
#    x 1.611360 0.000000 0.000000 
#    y 0.000000 1.661480 0.000000 
#    z 0.000000 0.000000 1.632550 
# 
# From -- ./inp_files/75398.got.cif
#   From: 2010.05.17/outbox.cif.g08.bks.cpg/sg65_38_cif.got.tgz:75398.got - 2010.06.03 17:01:31.
