data_PCOD9485827
_publ_section_title
;
Structure prediction by ZEFSAII (Michael W. Deem and Ramdas Pophale) SiO2 
 PCOD9485827
Probable space group: C M M M
;
_chemical_formula_sum "Si O2"
_cell_formula_units_Z 88
_cell_length_a 7.939762
_cell_length_b 29.474846
_cell_length_c 19.874906
_cell_angle_alpha 90.000000
_cell_angle_beta 90.000000
_cell_angle_gamma 90.000000
_cell_volume 4651.190339
_symmetry_space_group_name_H-M "C M M M"
_symmetry_group_IT_number 65
_symmetry_cell_setting 'orthorhombic'
loop_
_space_group_symop_operation_xyz
x,y,z
-x,-y,z
x,-y,-z
-x,y,-z
-x,-y,-z
x,y,-z
-x,y,z
x,-y,z
1/2+x,1/2+y,z
1/2-x,1/2-y,z
1/2+x,1/2-y,-z
1/2-x,1/2+y,-z
1/2-x,1/2-y,-z
1/2+x,1/2+y,-z
1/2-x,1/2+y,z
1/2+x,1/2-y,z
loop_
_atom_site_type_symbol
_atom_site_label
_atom_site_fract_x
_atom_site_fract_y
_atom_site_fract_z
Si Si1 0.500000 0.946689 0.419451
Si Si2 0.204382 0.103045 0.658934
Si Si3 0.697351 0.199756 0.136350
Si Si4 0.298190 0.550912 0.796078
Si Si5 0.700001 0.700255 0.708043
Si Si6 0.203241 0.607314 0.074721
O O1 0.500000 0.943986 0.500000
O O2 0.330973 0.922588 0.391004
O O3 0.500000 0.000000 0.399877
O O4 0.244892 0.082446 0.732736
O O5 0.245145 0.156671 0.663559
O O6 0.000000 0.097372 0.646700
O O7 0.500000 0.197665 0.125862
O O8 0.750000 0.250000 0.114896
O O9 0.729753 0.195328 0.216267
O O10 0.771829 0.156698 0.097490
O O11 0.500000 0.548640 0.796099
O O12 0.230646 0.500000 0.787254
O O13 0.245486 0.572414 0.866486
O O14 0.500000 0.699425 0.715587
O O15 0.750000 0.750000 0.682045
O O16 0.000000 0.609571 0.072028
O O17 0.264022 0.595289 0.000000
#
# Coordination Sequence:
#
# PCOD9485827 Si02
#       6
#     8  16  16  16  16  16
#     4  11  26  44  68 102 133 169 209 243 301 373
#     4  10  22  40  65  96 129 165 206 256 305 363
#     4  10  19  31  50  74 107 145 189 243 297 359
#     4  10  21  37  57  81 109 145 194 247 299 355
#     4  10  19  31  55  90 121 154 199 251 307 361
#     4  10  22  37  51  72 106 148 194 246 305 363
#
# _framework density 18.919886999999999
#
# number of rings (size 3 to 8) (size 9 to 14) (size 15 to 20)
#    0.000    1.909    1.818    2.727    3.818    3.636 
#    0.000    2.727    0.000    0.545    0.000    0.000 
#    0.000    0.000    0.000    0.000    0.000    0.000 
#
# Total GULP energy -245463.038067 kJ/mol
# GULP energy per Si atom -5578.705411 kJ/mol
# Density = 1.887682 g / cm^3
# Si number density = 18.919887 Si / 1000 Ang^3
#
#
#
# Elastic Constant Matrix: (Units=GPa)
#
#
# Indices 1 2 3 4 5 6 
#
# 1 40.8372 31.6037 26.7659 0.0000 0.0000 0.0000
# 2 31.6037 144.1356 50.3180 0.0000 0.0000 0.0000
# 3 26.7659 50.3180 76.3939 0.0000 0.0000 0.0000
# 4 0.0000 0.0000 0.0000 20.5024 0.0000 0.0000
# 5 0.0000 0.0000 0.0000 0.0000 18.5487 0.0000
# 6 0.0000 0.0000 0.0000 0.0000 0.0000 30.3473
#
#
#
# Elastic Compliance Matrix: (Units=1/GPa)
#
#
# Indices 1 2 3 4 5 6 
#
# 1 0.033670 -0.004239 -0.009005 0.000000 0.000000 0.000000
# 2 -0.004239 0.009543 -0.004801 0.000000 0.000000 0.000000
# 3 -0.009005 -0.004801 0.019407 0.000000 0.000000 0.000000
# 4 0.000000 0.000000 0.000000 0.048775 0.000000 0.000000
# 5 0.000000 0.000000 0.000000 0.000000 0.053912 0.000000
# 6 0.000000 0.000000 0.000000 0.000000 0.000000 0.032952
#
#
# Mechanical properties :
#
#
# Convention : Reuss Voigt Hill
#
# Bulk Modulus (GPa) = 37.69100 53.19355 45.44227
# Shear Modulus (GPa) = 20.55989 24.05827 22.30908
#
# Velocity S-wave (km/s) = 3.30006 3.56980 3.43758
# Velocity P-wave (km/s) = 5.87241 6.72068 6.31081
#
# Compressibility (1/GPa) = 0.02653154
#
# Stress axis : x y z
#
# Youngs Moduli (GPa) = 29.69995 104.78574 51.52776
#
# Poissons Ratio (x) = 0.44419 0.46400
# Poissons Ratio (y) = 0.12590 0.24736
# Poissons Ratio (z) = 0.26744 0.50304
#
# Static dielectric constant tensor:
#      x y z
#    x 1.625960 0.000000 0.000000 
#    y 0.000000 1.710540 0.000000 
#    z 0.000000 0.000000 1.626520 
# 
# From -- ./inp_files/50367.got.cif
#   From: 2010.05.17/outbox.cif.g08.bks.cpg/sg65_26_cif.got.tgz:50367.got - 2010.06.03 17:01:31.
