data_PCOD9485345
_publ_section_title
;
Structure prediction by ZEFSAII (Michael W. Deem and Ramdas Pophale) SiO2 
 PCOD9485345
Probable space group: C M M M
;
_chemical_formula_sum "Si O2"
_cell_formula_units_Z 88
_cell_length_a 18.480959
_cell_length_b 7.555946
_cell_length_c 33.893338
_cell_angle_alpha 90.000000
_cell_angle_beta 90.000000
_cell_angle_gamma 90.000000
_cell_volume 4732.903958
_symmetry_space_group_name_H-M "C M M M"
_symmetry_group_IT_number 65
_symmetry_cell_setting 'orthorhombic'
loop_
_space_group_symop_operation_xyz
x,y,z
-x,-y,z
x,-y,-z
-x,y,-z
-x,-y,-z
x,y,-z
-x,y,z
x,-y,z
1/2+x,1/2+y,z
1/2-x,1/2-y,z
1/2+x,1/2-y,-z
1/2-x,1/2+y,-z
1/2-x,1/2-y,-z
1/2+x,1/2+y,-z
1/2-x,1/2+y,z
1/2+x,1/2-y,z
loop_
_atom_site_type_symbol
_atom_site_label
_atom_site_fract_x
_atom_site_fract_y
_atom_site_fract_z
Si Si1 0.088276 0.796991 0.164694
Si Si2 0.834305 0.788033 0.000000
Si Si3 0.583559 0.283817 0.922401
Si Si4 0.911942 0.500000 0.684376
Si Si5 0.086939 0.793155 0.377598
Si Si6 0.588386 0.000000 0.225476
Si Si7 0.164887 0.212008 0.456605
O O1 0.110534 0.730982 0.121104
O O2 0.110921 0.670472 0.200076
O O3 0.000000 0.796912 0.163552
O O4 0.111279 0.000000 0.170237
O O5 0.750000 0.750000 0.000000
O O6 0.871079 0.721511 0.040196
O O7 0.845129 0.000000 0.000000
O O8 0.500000 0.229706 0.927071
O O9 0.584116 0.500000 0.921734
O O10 0.890339 0.671702 0.659036
O O11 0.886436 0.500000 0.729428
O O12 0.000000 0.500000 0.685673
O O13 0.121913 0.725514 0.418328
O O14 0.000000 0.783106 0.381175
O O15 0.106154 0.000000 0.371828
O O16 0.500000 0.000000 0.226251
O O17 0.142491 0.280423 0.500000
O O18 0.250000 0.250000 0.452135
O O19 0.155087 0.000000 0.457452
#
# Coordination Sequence:
#
# PCOD9485345 Si02
#       7
#    16   8  16   8  16   8  16
#     4   8  14  25  42  66  93 119 152 193 236 281
#     4  10  19  31  45  65  97 124 156 192 226 280
#     4   8  14  27  48  68  88 121 160 194 229 270
#     4   9  18  30  45  68  98 130 160 192 238 292
#     4   9  18  32  48  68  98 132 165 197 235 285
#     4   9  16  26  42  68  98 122 148 191 243 288
#     4   9  18  31  48  71  97 125 161 202 242 282
#
# _framework density 18.593236000000001
#
# number of rings (size 3 to 8) (size 9 to 14) (size 15 to 20)
#    0.000    3.273    0.000    1.364    1.273    2.182 
#    1.636    5.455    0.000    2.182    0.000    1.273 
#    0.000    0.000    0.000    0.000    0.000    0.000 
#
# Total GULP energy -245166.409214 kJ/mol
# GULP energy per Si atom -5571.963846 kJ/mol
# Density = 1.855092 g / cm^3
# Si number density = 18.593236 Si / 1000 Ang^3
#
#
#
# Elastic Constant Matrix: (Units=GPa)
#
#
# Indices 1 2 3 4 5 6 
#
# 1 21.6513 14.2159 47.7977 0.0000 0.0000 0.0000
# 2 14.2159 80.9084 76.2554 0.0000 0.0000 0.0000
# 3 47.7977 76.2554 233.5662 0.0000 0.0000 0.0000
# 4 0.0000 0.0000 0.0000 40.4993 0.0000 0.0000
# 5 0.0000 0.0000 0.0000 0.0000 -5.4184 0.0000
# 6 0.0000 0.0000 0.0000 0.0000 0.0000 12.8476
#
#
#
# Elastic Compliance Matrix: (Units=1/GPa)
#
#
# Indices 1 2 3 4 5 6 
#
# 1 0.084492 0.002096 -0.017975 0.000000 0.000000 0.000000
# 2 0.002096 0.017905 -0.006275 0.000000 0.000000 0.000000
# 3 -0.017975 -0.006275 0.010008 0.000000 0.000000 0.000000
# 4 0.000000 0.000000 0.000000 0.024692 0.000000 0.000000
# 5 0.000000 0.000000 0.000000 0.000000 -0.184556 0.000000
# 6 0.000000 0.000000 0.000000 0.000000 0.000000 0.077835
#
#
# Mechanical properties :
#
#
# Convention : Reuss Voigt Hill
#
# Bulk Modulus (GPa) = 14.68471 68.07376 41.37923
# Shear Modulus (GPa) = 51.34320 22.77616 37.05968
#
# Velocity S-wave (km/s) = 5.26060 3.50375 4.46935
# Velocity P-wave (km/s) = 6.69429 7.28423 6.99548
#
# Compressibility (1/GPa) = 0.06809804
#
# Stress axis : x y z
#
# Youngs Moduli (GPa) = 11.83540 55.84970 99.91582
#
# Poissons Ratio (x) = -0.11704 1.79598
# Poissons Ratio (y) = -0.02480 0.62693
# Poissons Ratio (z) = 0.21274 0.35043
#
# Static dielectric constant tensor:
#      x y z
#    x 1.600330 0.000000 0.000000 
#    y 0.000000 1.687840 0.000000 
#    z 0.000000 0.000000 1.651640 
# 
# From -- ./inp_files/77989.got.cif
#   From: 2010.05.17/outbox.cif.g08.bks.cpg/sg65_39_cif.got.tgz:77989.got - 2010.06.03 17:01:31.
