data_PCOD9485138
_publ_section_title
;
Structure prediction by ZEFSAII (Michael W. Deem and Ramdas Pophale) SiO2 
 PCOD9485138
Probable space group: C M M M
;
_chemical_formula_sum "Si O2"
_cell_formula_units_Z 88
_cell_length_a 8.948428
_cell_length_b 27.765844
_cell_length_c 21.877683
_cell_angle_alpha 90.000000
_cell_angle_beta 90.000000
_cell_angle_gamma 90.000000
_cell_volume 5435.743468
_symmetry_space_group_name_H-M "C M M M"
_symmetry_group_IT_number 65
_symmetry_cell_setting 'orthorhombic'
loop_
_space_group_symop_operation_xyz
x,y,z
-x,-y,z
x,-y,-z
-x,y,-z
-x,-y,-z
x,y,-z
-x,y,z
x,-y,z
1/2+x,1/2+y,z
1/2-x,1/2-y,z
1/2+x,1/2-y,-z
1/2-x,1/2+y,-z
1/2-x,1/2-y,-z
1/2+x,1/2+y,-z
1/2-x,1/2+y,z
1/2+x,1/2-y,z
loop_
_atom_site_type_symbol
_atom_site_label
_atom_site_fract_x
_atom_site_fract_y
_atom_site_fract_z
Si Si1 0.178696 0.300535 0.690217
Si Si2 0.680222 0.145615 0.568757
Si Si3 0.679267 0.900872 0.751407
Si Si4 0.677231 0.442266 0.127308
Si Si5 0.178988 0.944964 0.631456
Si Si6 0.172403 0.441502 0.000000
O O1 0.250000 0.250000 0.707196
O O2 0.226283 0.317324 0.621952
O O3 0.216005 0.345565 0.733926
O O4 0.000000 0.295531 0.690036
O O5 0.720336 0.160204 0.500000
O O6 0.500000 0.140882 0.572465
O O7 0.751902 0.094374 0.585993
O O8 0.500000 0.906337 0.749176
O O9 0.742362 0.916432 0.816506
O O10 0.752761 0.932945 0.697977
O O11 0.500000 0.433726 0.128895
O O12 0.701143 0.500000 0.133366
O O13 0.744647 0.426767 0.062077
O O14 0.000000 0.939658 0.633797
O O15 0.214111 0.000000 0.614530
O O16 0.173880 0.500000 0.000000
O O17 0.000000 0.425942 0.000000
#
# Coordination Sequence:
#
# PCOD9485138 Si02
#       6
#    16  16  16  16  16   8
#     4   9  19  34  51  71  93 117 149 193 241 287
#     4   9  19  35  51  68  92 121 154 190 230 283
#     4  10  20  33  49  70  95 124 160 197 234 282
#     4  10  19  30  46  71 103 135 166 200 235 270
#     4  10  20  32  46  67  95 124 156 195 235 275
#     4   9  17  29  45  67  98 137 174 201 229 269
#
# _framework density 16.189139000000001
#
# number of rings (size 3 to 8) (size 9 to 14) (size 15 to 20)
#    0.000    2.455    0.000    3.545    0.000   10.545 
#    0.000    1.818    0.000    0.000    0.000    0.636 
#    0.000    0.000    0.000    0.000    0.000    0.000 
#
# Total GULP energy -245421.604179 kJ/mol
# GULP energy per Si atom -5577.763731 kJ/mol
# Density = 1.615229 g / cm^3
# Si number density = 16.189139 Si / 1000 Ang^3
#
#
#
# Elastic Constant Matrix: (Units=GPa)
#
#
# Indices 1 2 3 4 5 6 
#
# 1 37.7701 20.4426 25.4630 0.0000 0.0000 0.0000
# 2 20.4426 48.4114 4.8054 0.0000 0.0000 0.0000
# 3 25.4630 4.8054 88.6426 0.0000 0.0000 0.0000
# 4 0.0000 0.0000 0.0000 8.7272 0.0000 0.0000
# 5 0.0000 0.0000 0.0000 0.0000 17.8482 0.0000
# 6 0.0000 0.0000 0.0000 0.0000 0.0000 26.8800
#
#
#
# Elastic Compliance Matrix: (Units=1/GPa)
#
#
# Indices 1 2 3 4 5 6 
#
# 1 0.043651 -0.017281 -0.011602 0.000000 0.000000 0.000000
# 2 -0.017281 0.027609 0.003467 0.000000 0.000000 0.000000
# 3 -0.011602 0.003467 0.014426 0.000000 0.000000 0.000000
# 4 0.000000 0.000000 0.000000 0.114584 0.000000 0.000000
# 5 0.000000 0.000000 0.000000 0.000000 0.056028 0.000000
# 6 0.000000 0.000000 0.000000 0.000000 0.000000 0.037202
#
#
# Mechanical properties :
#
#
# Convention : Reuss Voigt Hill
#
# Bulk Modulus (GPa) = 28.69035 30.69401 29.69218
# Shear Modulus (GPa) = 14.04695 18.96530 16.50613
#
# Velocity S-wave (km/s) = 2.94883 3.42641 3.19655
# Velocity P-wave (km/s) = 5.41799 5.88680 5.65725
#
# Compressibility (1/GPa) = 0.03485493
#
# Stress axis : x y z
#
# Youngs Moduli (GPa) = 22.90924 36.21987 69.31916
#
# Poissons Ratio (x) = 0.62590 0.80424
# Poissons Ratio (y) = 0.39588 -0.24034
# Poissons Ratio (z) = 0.26579 -0.12558
#
# Static dielectric constant tensor:
#      x y z
#    x 1.541070 0.000000 0.000000 
#    y 0.000000 1.520470 0.000000 
#    z 0.000000 0.000000 1.536630 
# 
# From -- ./inp_files/59842.got.cif
#   From: 2010.05.17/outbox.cif.g08.bks.cpg/sg65_30_cif.got.tgz:59842.got - 2010.06.03 17:01:31.
