data_PCOD9485791
_publ_section_title
;
Structure prediction by ZEFSAII (Michael W. Deem and Ramdas Pophale) SiO2 
 PCOD9485791
Probable space group: C M M M
;
_chemical_formula_sum "Si O2"
_cell_formula_units_Z 96
_cell_length_a 24.256347
_cell_length_b 8.483748
_cell_length_c 26.882552
_cell_angle_alpha 90.000000
_cell_angle_beta 90.000000
_cell_angle_gamma 90.000000
_cell_volume 5532.018849
_symmetry_space_group_name_H-M "C M M M"
_symmetry_group_IT_number 65
_symmetry_cell_setting 'orthorhombic'
loop_
_space_group_symop_operation_xyz
x,y,z
-x,-y,z
x,-y,-z
-x,y,-z
-x,-y,-z
x,y,-z
-x,y,z
x,-y,z
1/2+x,1/2+y,z
1/2-x,1/2-y,z
1/2+x,1/2-y,-z
1/2-x,1/2+y,-z
1/2-x,1/2-y,-z
1/2+x,1/2+y,-z
1/2-x,1/2+y,z
1/2+x,1/2-y,z
loop_
_atom_site_type_symbol
_atom_site_label
_atom_site_fract_x
_atom_site_fract_y
_atom_site_fract_z
Si Si1 0.382520 0.688826 0.255372
Si Si2 0.687012 0.190295 0.053397
Si Si3 0.884924 0.809400 0.556077
Si Si4 0.187974 0.190392 0.351348
Si Si5 0.312939 0.810476 0.837241
Si Si6 0.500000 0.189147 0.598541
Si Si7 0.500000 0.188619 0.714274
O O1 0.383384 0.500000 0.255656
O O2 0.348420 0.742836 0.304182
O O3 0.350932 0.746934 0.206569
O O4 0.444516 0.750773 0.260084
O O5 0.750000 0.250000 0.053019
O O6 0.665527 0.239724 0.107674
O O7 0.687072 0.000000 0.053361
O O8 0.662089 0.242100 0.000000
O O9 0.871802 0.757095 0.500000
O O10 0.841518 0.755933 0.597813
O O11 0.945265 0.751662 0.572002
O O12 0.885368 0.000000 0.556611
O O13 0.250000 0.250000 0.347401
O O14 0.188602 0.000000 0.351203
O O15 0.250000 0.750000 0.831550
O O16 0.311741 0.000000 0.835247
O O17 0.500000 0.241739 0.656345
O O18 0.500000 0.000000 0.597331
O O19 0.500000 0.000000 0.714629
#
# Coordination Sequence:
#
# PCOD9485791 Si02
#       7
#    16  16  16  16  16   8   8
#     4  11  22  37  56  77 103 137 174 214 260 314
#     4   8  14  25  42  66  99 139 178 215 255 298
#     4  10  21  38  58  78 103 137 173 208 252 308
#     4  10  22  37  54  76 102 135 172 208 250 302
#     4  10  19  31  49  76 110 144 180 219 258 307
#     4  11  22  36  57  84 108 129 161 211 262 307
#     4  11  23  38  58  81 103 131 166 213 264 312
#
# _framework density 17.35352
#
# number of rings (size 3 to 8) (size 9 to 14) (size 15 to 20)
#    0.000    2.000    1.667    2.250    0.000    6.333 
#    0.000    0.000    0.000    0.000    0.000    0.583 
#    0.000    4.667    0.000    0.000    0.000    0.000 
#
# Total GULP energy -267764.611846 kJ/mol
# GULP energy per Si atom -5578.429413 kJ/mol
# Density = 1.731402 g / cm^3
# Si number density = 17.353520 Si / 1000 Ang^3
#
#
#
# Elastic Constant Matrix: (Units=GPa)
#
#
# Indices 1 2 3 4 5 6 
#
# 1 124.5982 20.6683 83.7567 0.0000 0.0000 0.0000
# 2 20.6683 22.7493 32.5294 0.0000 0.0000 0.0000
# 3 83.7567 32.5294 195.4943 0.0000 0.0000 0.0000
# 4 0.0000 0.0000 0.0000 21.0965 0.0000 0.0000
# 5 0.0000 0.0000 0.0000 0.0000 -12.2512 0.0000
# 6 0.0000 0.0000 0.0000 0.0000 0.0000 26.8432
#
#
#
# Elastic Compliance Matrix: (Units=1/GPa)
#
#
# Indices 1 2 3 4 5 6 
#
# 1 0.011614 -0.004510 -0.004226 0.000000 0.000000 0.000000
# 2 -0.004510 0.059433 -0.007957 0.000000 0.000000 0.000000
# 3 -0.004226 -0.007957 0.008250 0.000000 0.000000 0.000000
# 4 0.000000 0.000000 0.000000 0.047401 0.000000 0.000000
# 5 0.000000 0.000000 0.000000 0.000000 -0.081624 0.000000
# 6 0.000000 0.000000 0.000000 0.000000 0.000000 0.037253
#
#
# Mechanical properties :
#
#
# Convention : Reuss Voigt Hill
#
# Bulk Modulus (GPa) = 21.78092 68.52784 45.15438
# Shear Modulus (GPa) = 38.16323 20.86352 29.51337
#
# Velocity S-wave (km/s) = 4.69461 3.47113 4.12845
# Velocity P-wave (km/s) = 6.47799 7.45922 6.98586
#
# Compressibility (1/GPa) = 0.04591173
#
# Stress axis : x y z
#
# Youngs Moduli (GPa) = 86.10014 16.82572 121.21654
#
# Poissons Ratio (x) = 0.07588 0.51221
# Poissons Ratio (y) = 0.38829 0.96455
# Poissons Ratio (z) = 0.36383 0.13389
#
# Static dielectric constant tensor:
#      x y z
#    x 1.533010 0.000000 0.000000 
#    y 0.000000 1.597340 0.000000 
#    z 0.000000 0.000000 1.636010 
# 
# From -- ./inp_files/71476.got.cif
#   From: 2010.05.17/outbox.cif.g08.bks.cpg/sg65_36_cif.got.tgz:71476.got - 2010.06.03 17:01:31.
