data_PCOD9485724
_publ_section_title
;
Structure prediction by ZEFSAII (Michael W. Deem and Ramdas Pophale) SiO2 
 PCOD9485724
Probable space group: C M M M
;
_chemical_formula_sum "Si O2"
_cell_formula_units_Z 64
_cell_length_a 19.070396
_cell_length_b 7.938083
_cell_length_c 21.271110
_cell_angle_alpha 90.000000
_cell_angle_beta 90.000000
_cell_angle_gamma 90.000000
_cell_volume 3220.071391
_symmetry_space_group_name_H-M "C M M M"
_symmetry_group_IT_number 65
_symmetry_cell_setting 'orthorhombic'
loop_
_space_group_symop_operation_xyz
x,y,z
-x,-y,z
x,-y,-z
-x,y,-z
-x,-y,-z
x,y,-z
-x,y,z
x,-y,z
1/2+x,1/2+y,z
1/2-x,1/2-y,z
1/2+x,1/2-y,-z
1/2-x,1/2+y,-z
1/2-x,1/2-y,-z
1/2+x,1/2+y,-z
1/2-x,1/2+y,z
1/2+x,1/2-y,z
loop_
_atom_site_type_symbol
_atom_site_label
_atom_site_fract_x
_atom_site_fract_y
_atom_site_fract_z
Si Si1 0.581170 0.293169 0.000000
Si Si2 0.079898 0.297199 0.239880
Si Si3 0.668988 0.300251 0.120055
Si Si4 0.330841 0.796648 0.500000
Si Si5 0.580978 0.794533 0.381056
O O1 0.622699 0.233559 0.938148
O O2 0.581146 0.500000 0.000000
O O3 0.500000 0.240507 0.000000
O O4 0.077526 0.500000 0.241860
O O5 0.133226 0.248241 0.185685
O O6 0.099780 0.238952 0.310290
O O7 0.000000 0.238061 0.226405
O O8 0.666520 0.500000 0.115406
O O9 0.750000 0.250000 0.116172
O O10 0.250000 0.750000 0.500000
O O11 0.369616 0.734473 0.562974
O O12 0.336648 0.000000 0.500000
O O13 0.500000 0.747640 0.392767
O O14 0.583219 0.000000 0.381057
#
# Coordination Sequence:
#
# PCOD9485724 Si02
#       5
#     8  16  16   8  16
#     4   9  19  36  57  79 102 131 170 215 258 302
#     4   9  18  34  55  79 106 134 169 214 260 307
#     4  11  22  36  55  78 107 140 173 210 254 305
#     4  10  19  31  49  73 101 132 168 208 252 302
#     4   8  15  30  53  76  97 128 171 213 249 293
#
# _framework density 19.875336000000001
#
# number of rings (size 3 to 8) (size 9 to 14) (size 15 to 20)
#    0.000    2.625    0.000    3.750    0.000    4.000 
#    0.000    5.625    0.000    7.500    0.000    0.000 
#    0.000    0.000    0.000    0.000    0.000    0.000 
#
# Total GULP energy -178593.277869 kJ/mol
# GULP energy per Si atom -5581.039933 kJ/mol
# Density = 1.983010 g / cm^3
# Si number density = 19.875336 Si / 1000 Ang^3
#
#
#
# Elastic Constant Matrix: (Units=GPa)
#
#
# Indices 1 2 3 4 5 6 
#
# 1 184.3196 8.8140 153.3427 0.0000 0.0000 0.0000
# 2 8.8140 18.0139 12.8850 0.0000 0.0000 0.0000
# 3 153.3427 12.8850 207.7271 0.0000 0.0000 0.0000
# 4 0.0000 0.0000 0.0000 -38.7217 0.0000 0.0000
# 5 0.0000 0.0000 0.0000 0.0000 9.3647 0.0000
# 6 0.0000 0.0000 0.0000 0.0000 0.0000 10.3436
#
#
#
# Elastic Compliance Matrix: (Units=1/GPa)
#
#
# Indices 1 2 3 4 5 6 
#
# 1 0.014066 0.000570 -0.010419 0.000000 0.000000 0.000000
# 2 0.000570 0.058113 -0.004025 0.000000 0.000000 0.000000
# 3 -0.010419 -0.004025 0.012755 0.000000 0.000000 0.000000
# 4 0.000000 0.000000 0.000000 -0.025825 0.000000 0.000000
# 5 0.000000 0.000000 0.000000 0.000000 0.106784 0.000000
# 6 0.000000 0.000000 0.000000 0.000000 0.000000 0.096678
#
#
# Mechanical properties :
#
#
# Convention : Reuss Voigt Hill
#
# Bulk Modulus (GPa) = 17.48695 84.46044 50.97370
# Shear Modulus (GPa) = 16.16137 11.86526 14.01331
#
# Velocity S-wave (km/s) = 2.85465 2.44598 2.65818
# Velocity P-wave (km/s) = 4.43653 7.11087 5.92652
#
# Compressibility (1/GPa) = 0.05718550
#
# Stress axis : x y z
#
# Youngs Moduli (GPa) = 71.09478 17.20780 78.40292
#
# Poissons Ratio (x) = -0.00981 0.81685
# Poissons Ratio (y) = -0.04052 0.31561
# Poissons Ratio (z) = 0.74071 0.06927
#
# Static dielectric constant tensor:
#      x y z
#    x 1.602580 0.000000 0.000000 
#    y 0.000000 1.721900 0.000000 
#    z 0.000000 0.000000 1.710400 
# 
# From -- ./inp_files/58808.got.cif
#   From: 2010.05.17/outbox.cif.g08.bks.cpg/sg65_30_cif.got.tgz:58808.got - 2010.06.03 17:01:31.
