data_PCOD9485127
_publ_section_title
;
Structure prediction by ZEFSAII (Michael W. Deem and Ramdas Pophale) SiO2 
 PCOD9485127
Probable space group: C M M M
;
_chemical_formula_sum "Si O2"
_cell_formula_units_Z 104
_cell_length_a 24.135859
_cell_length_b 8.586259
_cell_length_c 29.014259
_cell_angle_alpha 90.000000
_cell_angle_beta 90.000000
_cell_angle_gamma 90.000000
_cell_volume 6012.820349
_symmetry_space_group_name_H-M "C M M M"
_symmetry_group_IT_number 65
_symmetry_cell_setting 'orthorhombic'
loop_
_space_group_symop_operation_xyz
x,y,z
-x,-y,z
x,-y,-z
-x,y,-z
-x,-y,-z
x,y,-z
-x,y,z
x,-y,z
1/2+x,1/2+y,z
1/2-x,1/2-y,z
1/2+x,1/2-y,-z
1/2-x,1/2+y,-z
1/2-x,1/2-y,-z
1/2+x,1/2+y,-z
1/2-x,1/2+y,z
1/2+x,1/2-y,z
loop_
_atom_site_type_symbol
_atom_site_label
_atom_site_fract_x
_atom_site_fract_y
_atom_site_fract_z
Si Si1 0.000000 0.319122 0.666047
Si Si2 0.812086 0.686362 0.640349
Si Si3 0.567466 0.819082 0.000000
Si Si4 0.000000 0.817897 0.567518
Si Si5 0.393804 0.315643 0.715281
Si Si6 0.567223 0.321994 0.903180
Si Si7 0.623620 0.311072 0.550931
Si Si8 0.065341 0.684407 0.805709
O O1 0.945824 0.278782 0.694839
O O2 0.000000 0.500000 0.652245
O O3 0.000000 0.208725 0.621936
O O4 0.812785 0.500000 0.643701
O O5 0.750000 0.750000 0.636896
O O6 0.841892 0.759561 0.685154
O O7 0.845119 0.738149 0.594281
O O8 0.586832 0.740891 0.047468
O O9 0.500000 0.809030 0.000000
O O10 0.582016 0.000000 0.000000
O O11 0.940622 0.756460 0.551308
O O12 0.000000 0.000000 0.555418
O O13 0.401532 0.500000 0.708848
O O14 0.396464 0.273668 0.769170
O O15 0.500000 0.319354 0.905267
O O16 0.584551 0.500000 0.896419
O O17 0.581682 0.222362 0.858216
O O18 0.647110 0.275441 0.500000
O O19 0.623997 0.500000 0.556415
O O20 0.068239 0.500000 0.797348
O O21 0.000000 0.731732 0.800038
#
# Coordination Sequence:
#
# PCOD9485127 Si02
#       8
#     8  16   8   8  16  16  16  16
#     4  12  22  33  53  83 111 140 173 212 257 311
#     4  12  26  44  63  82 106 137 177 220 262 313
#     4   9  15  23  35  51  77 119 170 217 260 303
#     4  10  19  34  58  86 117 147 173 207 253 308
#     4  12  23  37  57  80 107 139 173 215 266 318
#     4   9  16  25  37  56  85 123 169 215 260 308
#     4  10  21  38  61  88 116 145 176 212 257 308
#     4  10  19  30  46  70 101 133 170 215 262 312
#
# _framework density 17.296375000000001
#
# number of rings (size 3 to 8) (size 9 to 14) (size 15 to 20)
#    0.000    1.462    2.308    4.846    0.000    4.923 
#    0.000    0.000    0.000    1.385    0.000    0.000 
#    0.000    0.000    0.000    0.692    0.000    9.769 
#
# Total GULP energy -290189.099137 kJ/mol
# GULP energy per Si atom -5580.559599 kJ/mol
# Density = 1.725701 g / cm^3
# Si number density = 17.296375 Si / 1000 Ang^3
#
#
#
# Elastic Constant Matrix: (Units=GPa)
#
#
# Indices 1 2 3 4 5 6 
#
# 1 73.3388 19.7670 34.8719 0.0000 0.0000 0.0000
# 2 19.7670 67.5547 24.4128 0.0000 0.0000 0.0000
# 3 34.8719 24.4128 126.2771 0.0000 0.0000 0.0000
# 4 0.0000 0.0000 0.0000 26.4490 0.0000 0.0000
# 5 0.0000 0.0000 0.0000 0.0000 2.6850 0.0000
# 6 0.0000 0.0000 0.0000 0.0000 0.0000 16.1297
#
#
#
# Elastic Compliance Matrix: (Units=1/GPa)
#
#
# Indices 1 2 3 4 5 6 
#
# 1 0.016391 -0.003398 -0.003870 0.000000 0.000000 0.000000
# 2 -0.003398 0.016619 -0.002275 0.000000 0.000000 0.000000
# 3 -0.003870 -0.002275 0.009427 0.000000 0.000000 0.000000
# 4 0.000000 0.000000 0.000000 0.037809 0.000000 0.000000
# 5 0.000000 0.000000 0.000000 0.000000 0.372433 0.000000
# 6 0.000000 0.000000 0.000000 0.000000 0.000000 0.061997
#
#
# Mechanical properties :
#
#
# Convention : Reuss Voigt Hill
#
# Bulk Modulus (GPa) = 42.81990 47.25268 45.03629
# Shear Modulus (GPa) = 9.23284 21.59402 15.41343
#
# Velocity S-wave (km/s) = 2.31292 3.53720 2.98843
# Velocity P-wave (km/s) = 5.65183 6.63786 6.16459
#
# Compressibility (1/GPa) = 0.02335363
#
# Stress axis : x y z
#
# Youngs Moduli (GPa) = 61.00877 60.17202 106.07345
#
# Poissons Ratio (x) = 0.20445 0.41046
# Poissons Ratio (y) = 0.20729 0.24127
# Poissons Ratio (z) = 0.23608 0.13687
#
# Static dielectric constant tensor:
#      x y z
#    x 1.568670 0.000000 0.000000 
#    y 0.000000 1.589220 0.000000 
#    z 0.000000 0.000000 1.616200 
# 
# From -- ./inp_files/75846.got.cif
#   From: 2010.05.17/outbox.cif.g08.bks.cpg/sg65_38_cif.got.tgz:75846.got - 2010.06.03 17:01:31.
