data_PCOD9485869
_publ_section_title
;
Structure prediction by ZEFSAII (Michael W. Deem and Ramdas Pophale) SiO2 
 PCOD9485869
Probable space group: C M M M
;
_chemical_formula_sum "Si O2"
_cell_formula_units_Z 88
_cell_length_a 21.746206
_cell_length_b 24.065389
_cell_length_c 7.347866
_cell_angle_alpha 90.000000
_cell_angle_beta 90.000000
_cell_angle_gamma 90.000000
_cell_volume 3845.365376
_symmetry_space_group_name_H-M "C M M M"
_symmetry_group_IT_number 65
_symmetry_cell_setting 'orthorhombic'
loop_
_space_group_symop_operation_xyz
x,y,z
-x,-y,z
x,-y,-z
-x,y,-z
-x,-y,-z
x,y,-z
-x,y,z
x,-y,z
1/2+x,1/2+y,z
1/2-x,1/2-y,z
1/2+x,1/2-y,-z
1/2-x,1/2+y,-z
1/2-x,1/2-y,-z
1/2+x,1/2+y,-z
1/2-x,1/2+y,z
1/2+x,1/2-y,z
loop_
_atom_site_type_symbol
_atom_site_label
_atom_site_fract_x
_atom_site_fract_y
_atom_site_fract_z
Si Si1 0.500000 0.563822 0.218661
Si Si2 0.072192 0.559375 0.217601
Si Si3 0.741636 0.435189 0.277265
Si Si4 0.427589 0.252184 0.723335
Si Si5 0.121506 0.870695 0.292930
Si Si6 0.657606 0.846561 0.700688
O O1 0.500000 0.500000 0.269723
O O2 0.439546 0.592962 0.291055
O O3 0.500000 0.568541 0.000000
O O4 0.099070 0.500000 0.275701
O O5 0.101758 0.610587 0.313099
O O6 0.000000 0.558405 0.250911
O O7 0.080799 0.564315 0.000000
O O8 0.744871 0.437110 0.500000
O O9 0.749413 0.500000 0.218393
O O10 0.676436 0.408775 0.218535
O O11 0.791016 0.388048 0.217198
O O12 0.428843 0.250530 0.500000
O O13 0.500000 0.244578 0.778170
O O14 0.400474 0.311586 0.784404
O O15 0.377162 0.206442 0.784285
O O16 0.140812 0.858042 0.500000
O O17 0.680786 0.829462 0.500000
#
# Coordination Sequence:
#
# PCOD9485869 Si02
#       6
#     8  16  16  16  16  16
#     4  11  23  37  55  83 113 135 168 223 278 321
#     4   9  18  32  48  68  97 133 178 227 266 311
#     4   9  18  31  49  78 109 137 178 222 258 311
#     4   9  17  30  50  78 107 134 176 223 257 303
#     4  10  19  35  58  78 104 143 181 217 258 313
#     4  10  19  31  50  75 107 140 169 215 270 312
#
# _framework density 22.884692000000001
#
# number of rings (size 3 to 8) (size 9 to 14) (size 15 to 20)
#    0.000    2.455    0.909    2.455    0.000    4.364 
#    0.000    6.364    0.000    3.273    0.000    2.545 
#    0.000    0.000    0.000    0.000    0.000    0.000 
#
# Total GULP energy -245291.603113 kJ/mol
# GULP energy per Si atom -5574.809162 kJ/mol
# Density = 2.283261 g / cm^3
# Si number density = 22.884692 Si / 1000 Ang^3
#
#
#
# Elastic Constant Matrix: (Units=GPa)
#
#
# Indices 1 2 3 4 5 6 
#
# 1 153.7291 97.5679 6.2563 0.0000 0.0000 0.0000
# 2 97.5679 205.3329 4.9895 0.0000 0.0000 0.0000
# 3 6.2563 4.9895 71.6799 0.0000 0.0000 0.0000
# 4 0.0000 0.0000 0.0000 -9.8617 0.0000 0.0000
# 5 0.0000 0.0000 0.0000 0.0000 -8.9301 0.0000
# 6 0.0000 0.0000 0.0000 0.0000 0.0000 46.3840
#
#
#
# Elastic Compliance Matrix: (Units=1/GPa)
#
#
# Indices 1 2 3 4 5 6 
#
# 1 0.009332 -0.004422 -0.000507 0.000000 0.000000 0.000000
# 2 -0.004422 0.006974 -0.000099 0.000000 0.000000 0.000000
# 3 -0.000507 -0.000099 0.014002 0.000000 0.000000 0.000000
# 4 0.000000 0.000000 0.000000 -0.101403 0.000000 0.000000
# 5 0.000000 0.000000 0.000000 0.000000 -0.111981 0.000000
# 6 0.000000 0.000000 0.000000 0.000000 0.000000 0.021559
#
#
# Mechanical properties :
#
#
# Convention : Reuss Voigt Hill
#
# Bulk Modulus (GPa) = 49.37895 72.04104 60.71000
# Shear Modulus (GPa) = -34.55179 26.98035 -3.78572
#
# Velocity S-wave (km/s) = -3.88986 3.43734 -1.28758
# Velocity P-wave (km/s) = 1.20394 6.87765 4.93718
#
# Compressibility (1/GPa) = 0.02025154
#
# Stress axis : x y z
#
# Youngs Moduli (GPa) = 107.15687 143.39454 71.41803
#
# Poissons Ratio (x) = 0.63409 0.03619
# Poissons Ratio (y) = 0.47385 0.00710
# Poissons Ratio (z) = 0.05430 0.01426
#
# Static dielectric constant tensor:
#      x y z
#    x 1.842490 0.000000 0.000000 
#    y 0.000000 1.859990 0.000000 
#    z 0.000000 0.000000 1.939300 
# 
# From -- ./inp_files/11731.got.cif
#   From: 2010.05.17/outbox.cif.g08.bks.cpg/sg65_6_cif.got.tgz:11731.got - 2010.06.03 17:01:31.
