data_PCOD9485494
_publ_section_title
;
Structure prediction by ZEFSAII (Michael W. Deem and Ramdas Pophale) SiO2 
 PCOD9485494
Probable space group: C M M M
;
_chemical_formula_sum "Si O2"
_cell_formula_units_Z 104
_cell_length_a 8.709662
_cell_length_b 27.584296
_cell_length_c 22.046703
_cell_angle_alpha 90.000000
_cell_angle_beta 90.000000
_cell_angle_gamma 90.000000
_cell_volume 5296.718074
_symmetry_space_group_name_H-M "C M M M"
_symmetry_group_IT_number 65
_symmetry_cell_setting 'orthorhombic'
loop_
_space_group_symop_operation_xyz
x,y,z
-x,-y,z
x,-y,-z
-x,y,-z
-x,-y,-z
x,y,-z
-x,y,z
x,-y,z
1/2+x,1/2+y,z
1/2-x,1/2-y,z
1/2+x,1/2-y,-z
1/2-x,1/2+y,-z
1/2-x,1/2-y,-z
1/2+x,1/2+y,-z
1/2-x,1/2+y,z
1/2+x,1/2-y,z
loop_
_atom_site_type_symbol
_atom_site_label
_atom_site_fract_x
_atom_site_fract_y
_atom_site_fract_z
Si Si1 0.831150 0.797322 0.427878
Si Si2 0.315323 0.946907 0.178907
Si Si3 0.315964 0.302227 0.247256
Si Si4 0.815168 0.906124 0.698575
Si Si5 0.811933 0.093593 0.566800
Si Si6 0.814872 0.345961 0.876127
Si Si7 0.316476 0.696060 0.000000
O O1 0.848950 0.788640 0.500000
O O2 0.750000 0.750000 0.402999
O O3 0.758751 0.850392 0.426890
O O4 0.000000 0.801228 0.399676
O O5 0.500000 0.946885 0.180204
O O6 0.256322 0.935498 0.246289
O O7 0.269041 0.901587 0.137662
O O8 0.261844 0.000000 0.158996
O O9 0.500000 0.299584 0.243863
O O10 0.250000 0.250000 0.265659
O O11 0.275384 0.348947 0.289557
O O12 0.248678 0.315287 0.180817
O O13 0.768224 0.926689 0.632464
O O14 0.000000 0.908900 0.702134
O O15 0.763174 0.074989 0.500000
O O16 0.000000 0.093974 0.564910
O O17 0.000000 0.341985 0.877262
O O18 0.745412 0.329066 0.939249
O O19 0.250000 0.750000 0.000000
O O20 0.500000 0.696928 0.000000
#
# Coordination Sequence:
#
# PCOD9485494 Si02
#       7
#    16  16  16  16  16  16   8
#     4   8  13  21  33  49  72 106 147 188 229 277
#     4   9  19  37  60  82 104 133 170 216 269 319
#     4  10  19  31  47  70 102 138 177 220 265 310
#     4   9  18  31  49  74  99 127 169 218 264 315
#     4   8  14  26  43  62  88 123 160 201 254 313
#     4  10  20  36  57  81 109 142 182 221 258 304
#     4  12  24  38  57  84 121 159 190 217 249 290
#
# _framework density 19.634801
#
# number of rings (size 3 to 8) (size 9 to 14) (size 15 to 20)
#    0.000    2.769    0.000    3.000    0.000    2.154 
#    0.000    1.154    0.000    4.154    0.000    3.231 
#    0.000    0.000    0.000    0.000    0.000    0.000 
#
# Total GULP energy -289757.221338 kJ/mol
# GULP energy per Si atom -5572.254257 kJ/mol
# Density = 1.959011 g / cm^3
# Si number density = 19.634801 Si / 1000 Ang^3
#
#
#
# Elastic Constant Matrix: (Units=GPa)
#
#
# Indices 1 2 3 4 5 6 
#
# 1 33.8886 17.3096 28.3375 0.0000 0.0000 0.0000
# 2 17.3096 82.1591 40.9182 0.0000 0.0000 0.0000
# 3 28.3375 40.9182 165.5425 0.0000 0.0000 0.0000
# 4 0.0000 0.0000 0.0000 4.6362 0.0000 0.0000
# 5 0.0000 0.0000 0.0000 0.0000 12.1624 0.0000
# 6 0.0000 0.0000 0.0000 0.0000 0.0000 17.3643
#
#
#
# Elastic Compliance Matrix: (Units=1/GPa)
#
#
# Indices 1 2 3 4 5 6 
#
# 1 0.036280 -0.005189 -0.004928 0.000000 0.000000 0.000000
# 2 -0.005189 0.014622 -0.002726 0.000000 0.000000 0.000000
# 3 -0.004928 -0.002726 0.007558 0.000000 0.000000 0.000000
# 4 0.000000 0.000000 0.000000 0.215695 0.000000 0.000000
# 5 0.000000 0.000000 0.000000 0.000000 0.082221 0.000000
# 6 0.000000 0.000000 0.000000 0.000000 0.000000 0.057589
#
#
# Mechanical properties :
#
#
# Convention : Reuss Voigt Hill
#
# Bulk Modulus (GPa) = 30.51198 50.52454 40.51826
# Shear Modulus (GPa) = 11.09691 19.83423 15.46557
#
# Velocity S-wave (km/s) = 2.37990 3.18174 2.80958
# Velocity P-wave (km/s) = 4.80889 6.26785 5.58621
#
# Compressibility (1/GPa) = 0.03277401
#
# Stress axis : x y z
#
# Youngs Moduli (GPa) = 27.56376 68.38788 132.30910
#
# Poissons Ratio (x) = 0.35489 0.65197
# Poissons Ratio (y) = 0.14304 0.36068
# Poissons Ratio (z) = 0.13582 0.18643
#
# Static dielectric constant tensor:
#      x y z
#    x 1.681550 0.000000 0.000000 
#    y 0.000000 1.750130 0.000000 
#    z 0.000000 0.000000 1.703240 
# 
# From -- ./inp_files/60398.got.cif
#   From: 2010.05.17/outbox.cif.g08.bks.cpg/sg65_31_cif.got.tgz:60398.got - 2010.06.03 17:01:31.
