data_PCOD9485990
_publ_section_title
;
Structure prediction by ZEFSAII (Michael W. Deem and Ramdas Pophale) SiO2 
 PCOD9485990
Probable space group: C M M M
;
_chemical_formula_sum "Si O2"
_cell_formula_units_Z 72
_cell_length_a 8.057238
_cell_length_b 29.751998
_cell_length_c 14.172240
_cell_angle_alpha 90.000000
_cell_angle_beta 90.000000
_cell_angle_gamma 90.000000
_cell_volume 3397.354192
_symmetry_space_group_name_H-M "C M M M"
_symmetry_group_IT_number 65
_symmetry_cell_setting 'orthorhombic'
loop_
_space_group_symop_operation_xyz
x,y,z
-x,-y,z
x,-y,-z
-x,y,-z
-x,-y,-z
x,y,-z
-x,y,z
x,-y,z
1/2+x,1/2+y,z
1/2-x,1/2-y,z
1/2+x,1/2-y,-z
1/2-x,1/2+y,-z
1/2-x,1/2-y,-z
1/2+x,1/2+y,-z
1/2-x,1/2+y,z
1/2+x,1/2-y,z
loop_
_atom_site_type_symbol
_atom_site_label
_atom_site_fract_x
_atom_site_fract_y
_atom_site_fract_z
Si Si1 0.694388 0.049069 0.794751
Si Si2 0.814825 0.881055 0.334922
Si Si3 0.195759 0.447675 0.500000
Si Si4 0.298765 0.300581 0.789425
Si Si5 0.689698 0.324183 0.000000
Si Si6 0.690034 0.921388 0.000000
O O1 0.500000 0.058763 0.771875
O O2 0.811357 0.087282 0.756446
O O3 0.709126 0.049955 0.906634
O O4 0.733947 0.000000 0.755639
O O5 0.739443 0.915256 0.411664
O O6 0.736829 0.835508 0.291280
O O7 0.000000 0.870318 0.368235
O O8 0.264819 0.500000 0.500000
O O9 0.000000 0.453221 0.500000
O O10 0.500000 0.305721 0.791270
O O11 0.250000 0.250000 0.765342
O O12 0.237486 0.309901 0.897570
O O13 0.695473 0.377996 0.000000
O O14 0.500000 0.307235 0.000000
O O15 0.500000 0.903546 0.000000
#
# Coordination Sequence:
#
# PCOD9485990 Si02
#       6
#    16  16   8  16   8   8
#     4  10  20  34  53  80 116 157 199 242 289 346
#     4  11  23  40  62  89 119 151 193 246 300 356
#     4  11  25  45  68  93 120 153 194 241 294 355
#     4  10  22  38  60  88 121 159 200 246 294 347
#     4  10  19  36  56  82 122 161 200 248 294 341
#     4  10  19  31  51  79 113 157 202 240 284 343
#
# _framework density 21.192964
#
# number of rings (size 3 to 8) (size 9 to 14) (size 15 to 20)
#    0.000    1.667    2.222    2.333    0.000    8.000 
#    0.000    0.556    0.000    2.000    0.000    0.000 
#    0.000    0.000    0.000    0.000    0.000    0.000 
#
# Total GULP energy -200562.143594 kJ/mol
# GULP energy per Si atom -5571.170655 kJ/mol
# Density = 2.114473 g / cm^3
# Si number density = 21.192964 Si / 1000 Ang^3
#
#
#
# Elastic Constant Matrix: (Units=GPa)
#
#
# Indices 1 2 3 4 5 6 
#
# 1 15.3053 20.0137 15.8113 0.0000 0.0000 0.0000
# 2 20.0137 168.5786 57.0517 0.0000 0.0000 0.0000
# 3 15.8113 57.0517 107.7461 0.0000 0.0000 0.0000
# 4 0.0000 0.0000 0.0000 -1.8012 0.0000 0.0000
# 5 0.0000 0.0000 0.0000 0.0000 27.6641 0.0000
# 6 0.0000 0.0000 0.0000 0.0000 0.0000 17.9940
#
#
#
# Elastic Compliance Matrix: (Units=1/GPa)
#
#
# Indices 1 2 3 4 5 6 
#
# 1 0.083294 -0.007008 -0.008512 0.000000 0.000000 0.000000
# 2 -0.007008 0.007817 -0.003111 0.000000 0.000000 0.000000
# 3 -0.008512 -0.003111 0.012177 0.000000 0.000000 0.000000
# 4 0.000000 0.000000 0.000000 -0.555193 0.000000 0.000000
# 5 0.000000 0.000000 0.000000 0.000000 0.036148 0.000000
# 6 0.000000 0.000000 0.000000 0.000000 0.000000 0.055574
#
#
# Mechanical properties :
#
#
# Convention : Reuss Voigt Hill
#
# Bulk Modulus (GPa) = 15.14541 53.04259 34.09400
# Shear Modulus (GPa) = -16.61616 22.02161 2.70272
#
# Velocity S-wave (km/s) = -2.80311 3.22700 1.13051
# Velocity P-wave (km/s) = 1.82061 6.24239 4.22213
#
# Compressibility (1/GPa) = 0.06602663
#
# Stress axis : x y z
#
# Youngs Moduli (GPa) = 12.00562 127.93251 82.12022
#
# Poissons Ratio (x) = 0.89654 0.69904
# Poissons Ratio (y) = 0.08413 0.25544
# Poissons Ratio (z) = 0.10220 0.39794
#
# Static dielectric constant tensor:
#      x y z
#    x 1.825870 0.000000 0.000000 
#    y 0.000000 1.752700 0.000000 
#    z 0.000000 0.000000 1.842660 
# 
# From -- ./inp_files/36707.got.cif
#   From: 2010.05.17/outbox.cif.g08.bks.cpg/sg65_19_cif.got.tgz:36707.got - 2010.06.03 17:01:31.
