data_PCOD9485090
_publ_section_title
;
Structure prediction by ZEFSAII (Michael W. Deem and Ramdas Pophale) SiO2 
 PCOD9485090
Probable space group: C M M M
;
_chemical_formula_sum "Si O2"
_cell_formula_units_Z 88
_cell_length_a 18.640153
_cell_length_b 7.354919
_cell_length_c 29.906554
_cell_angle_alpha 90.000000
_cell_angle_beta 90.000000
_cell_angle_gamma 90.000000
_cell_volume 4100.093315
_symmetry_space_group_name_H-M "C M M M"
_symmetry_group_IT_number 65
_symmetry_cell_setting 'orthorhombic'
loop_
_space_group_symop_operation_xyz
x,y,z
-x,-y,z
x,-y,-z
-x,y,-z
-x,-y,-z
x,y,-z
-x,y,z
x,-y,z
1/2+x,1/2+y,z
1/2-x,1/2-y,z
1/2+x,1/2-y,-z
1/2-x,1/2+y,-z
1/2-x,1/2-y,-z
1/2+x,1/2+y,-z
1/2-x,1/2+y,z
1/2+x,1/2-y,z
loop_
_atom_site_type_symbol
_atom_site_label
_atom_site_fract_x
_atom_site_fract_y
_atom_site_fract_z
Si Si1 0.416794 0.222379 0.411243
Si Si2 0.165471 0.283041 0.322647
Si Si3 0.583506 0.221151 0.863869
Si Si4 0.334903 0.783105 0.500000
Si Si5 0.334788 0.782868 0.048941
Si Si6 0.083596 0.278475 0.764869
O O1 0.500000 0.276746 0.412401
O O2 0.376969 0.283996 0.366217
O O3 0.373595 0.283966 0.455074
O O4 0.415914 0.000000 0.411193
O O5 0.155192 0.500000 0.322173
O O6 0.250000 0.250000 0.325896
O O7 0.131589 0.214255 0.276300
O O8 0.500000 0.269597 0.868026
O O9 0.626469 0.288008 0.906860
O O10 0.608140 0.279988 0.814414
O O11 0.587278 0.000000 0.863914
O O12 0.250000 0.750000 0.500000
O O13 0.344638 0.000000 0.500000
O O14 0.250000 0.750000 0.052380
O O15 0.346343 0.000000 0.048306
O O16 0.358658 0.713478 0.000000
O O17 0.084822 0.500000 0.764961
O O18 0.000000 0.226996 0.758900
#
# Coordination Sequence:
#
# PCOD9485090 Si02
#       6
#    16  16  16   8  16  16
#     4   9  17  30  49  70  89 115 154 190 215 248
#     4  10  19  30  46  68  92 116 144 180 219 258
#     4   8  14  25  42  64  86 107 138 181 219 248
#     4  10  19  31  49  71  95 120 146 182 224 262
#     4   9  17  28  42  61  85 112 140 171 210 255
#     4   8  14  26  44  64  85 111 144 179 213 251
#
# _framework density 21.462926
#
# number of rings (size 3 to 8) (size 9 to 14) (size 15 to 20)
#    0.000    3.091    0.000    2.455    0.000    4.364 
#    0.000    1.818    0.000    4.909    0.000    5.091 
#    0.000    0.000    0.000    0.000    0.000    0.000 
#
# Total GULP energy -245615.872216 kJ/mol
# GULP energy per Si atom -5582.178914 kJ/mol
# Density = 2.141408 g / cm^3
# Si number density = 21.462926 Si / 1000 Ang^3
#
#
#
# Elastic Constant Matrix: (Units=GPa)
#
#
# Indices 1 2 3 4 5 6 
#
# 1 145.0691 -2.5803 145.7583 0.0000 0.0000 0.0000
# 2 -2.5803 80.4224 12.7075 0.0000 0.0000 0.0000
# 3 145.7583 12.7075 287.9021 0.0000 0.0000 0.0000
# 4 0.0000 0.0000 0.0000 -15.4477 0.0000 0.0000
# 5 0.0000 0.0000 0.0000 0.0000 22.4471 0.0000
# 6 0.0000 0.0000 0.0000 0.0000 0.0000 15.5818
#
#
#
# Elastic Compliance Matrix: (Units=1/GPa)
#
#
# Indices 1 2 3 4 5 6 
#
# 1 0.014233 0.001607 -0.007277 0.000000 0.000000 0.000000
# 2 0.001607 0.012703 -0.001374 0.000000 0.000000 0.000000
# 3 -0.007277 -0.001374 0.007218 0.000000 0.000000 0.000000
# 4 0.000000 0.000000 0.000000 -0.064734 0.000000 0.000000
# 5 0.000000 0.000000 0.000000 0.000000 0.044549 0.000000
# 6 0.000000 0.000000 0.000000 0.000000 0.000000 0.064177
#
#
# Mechanical properties :
#
#
# Convention : Reuss Voigt Hill
#
# Bulk Modulus (GPa) = 49.83645 91.68496 70.76071
# Shear Modulus (GPa) = 50.54385 28.35012 39.44698
#
# Velocity S-wave (km/s) = 4.85803 3.63834 4.29174
# Velocity P-wave (km/s) = 7.39848 7.77564 7.58941
#
# Compressibility (1/GPa) = 0.02006563
#
# Stress axis : x y z
#
# Youngs Moduli (GPa) = 70.25760 78.72155 138.53885
#
# Poissons Ratio (x) = -0.12647 1.00814
# Poissons Ratio (y) = -0.11287 0.19036
# Poissons Ratio (z) = 0.51126 0.10817
#
# Static dielectric constant tensor:
#      x y z
#    x 1.705890 0.000000 0.000000 
#    y 0.000000 1.872700 0.000000 
#    z 0.000000 0.000000 1.781770 
# 
# From -- ./inp_files/74237.got.cif
#   From: 2010.05.17/outbox.cif.g08.bks.cpg/sg65_38_cif.got.tgz:74237.got - 2010.06.03 17:01:31.
