data_PCOD9485005
_publ_section_title
;
Structure prediction by ZEFSAII (Michael W. Deem and Ramdas Pophale) SiO2 
 PCOD9485005
Probable space group: C M M M
;
_chemical_formula_sum "Si O2"
_cell_formula_units_Z 112
_cell_length_a 7.464012
_cell_length_b 18.912463
_cell_length_c 38.769267
_cell_angle_alpha 90.000000
_cell_angle_beta 90.000000
_cell_angle_gamma 90.000000
_cell_volume 5472.780252
_symmetry_space_group_name_H-M "C M M M"
_symmetry_group_IT_number 65
_symmetry_cell_setting 'orthorhombic'
loop_
_space_group_symop_operation_xyz
x,y,z
-x,-y,z
x,-y,-z
-x,y,-z
-x,-y,-z
x,y,-z
-x,y,z
x,-y,z
1/2+x,1/2+y,z
1/2-x,1/2-y,z
1/2+x,1/2-y,-z
1/2-x,1/2+y,-z
1/2-x,1/2-y,-z
1/2+x,1/2+y,-z
1/2-x,1/2+y,z
1/2+x,1/2-y,z
loop_
_atom_site_type_symbol
_atom_site_label
_atom_site_fract_x
_atom_site_fract_y
_atom_site_fract_z
Si Si1 0.218381 0.918060 0.461437
Si Si2 0.713912 0.418838 0.746589
Si Si3 0.781754 0.417133 0.895668
Si Si4 0.214659 0.333246 0.961984
Si Si5 0.718443 0.417180 0.328516
Si Si6 0.214539 0.832922 0.395182
Si Si7 0.213892 0.581230 0.820876
O O1 0.276221 0.896695 0.500000
O O2 0.282150 0.869475 0.430222
O O3 0.000000 0.916438 0.461548
O O4 0.269124 0.000000 0.455872
O O5 0.500000 0.422637 0.744287
O O6 0.783364 0.500000 0.748327
O O7 0.776460 0.390370 0.709510
O O8 0.750380 0.384274 0.783710
O O9 0.734751 0.500000 0.897850
O O10 0.715238 0.375157 0.928910
O O11 0.723196 0.389409 0.857809
O O12 0.000000 0.413620 0.896320
O O13 0.250000 0.250000 0.958112
O O14 0.000000 0.343148 0.962619
O O15 0.282701 0.355073 0.000000
O O16 0.500000 0.415367 0.329076
O O17 0.767934 0.500000 0.331833
O O18 0.783002 0.371832 0.360803
O O19 0.250000 0.750000 0.394522
O O20 0.000000 0.842768 0.395281
O O21 0.283448 0.500000 0.819164
O O22 0.000000 0.577189 0.823319
#
# Coordination Sequence:
#
# PCOD9485005 Si02
#       7
#    16  16  16  16  16  16  16
#     4   8  14  26  46  70  90 110 144 186 216 242
#     4   8  13  22  38  60  82 102 131 173 212 244
#     4   8  14  25  42  64  87 110 138 172 207 245
#     4   9  17  29  45  63  83 109 140 173 208 246
#     4   8  14  26  45  65  82 107 146 184 212 242
#     4  10  19  30  45  65  90 118 145 175 214 258
#     4   8  13  22  37  58  84 109 131 161 206 254
#
# _framework density 20.464918999999998
#
# number of rings (size 3 to 8) (size 9 to 14) (size 15 to 20)
#    0.000    3.571    0.000    2.571    0.000    2.286 
#    0.000    2.857    0.000    4.714    0.000    9.000 
#    0.000    0.000    0.000    0.000    0.000    0.000 
#
# Total GULP energy -311822.371114 kJ/mol
# GULP energy per Si atom -5568.256627 kJ/mol
# Density = 2.041834 g / cm^3
# Si number density = 20.464919 Si / 1000 Ang^3
#
#
#
# Elastic Constant Matrix: (Units=GPa)
#
#
# Indices 1 2 3 4 5 6 
#
# 1 58.6646 -1.6609 11.0467 0.0000 0.0000 0.0000
# 2 -1.6609 56.5617 99.0781 0.0000 0.0000 0.0000
# 3 11.0467 99.0781 291.2620 0.0000 0.0000 0.0000
# 4 0.0000 0.0000 0.0000 1.9121 0.0000 0.0000
# 5 0.0000 0.0000 0.0000 0.0000 7.1666 0.0000
# 6 0.0000 0.0000 0.0000 0.0000 0.0000 12.0237
#
#
#
# Elastic Compliance Matrix: (Units=1/GPa)
#
#
# Indices 1 2 3 4 5 6 
#
# 1 0.017556 0.004162 -0.002081 0.000000 0.000000 0.000000
# 2 0.004162 0.044734 -0.015375 0.000000 0.000000 0.000000
# 3 -0.002081 -0.015375 0.008742 0.000000 0.000000 0.000000
# 4 0.000000 0.000000 0.000000 0.522977 0.000000 0.000000
# 5 0.000000 0.000000 0.000000 0.000000 0.139535 0.000000
# 6 0.000000 0.000000 0.000000 0.000000 0.000000 0.083169
#
#
# Mechanical properties :
#
#
# Convention : Reuss Voigt Hill
#
# Bulk Modulus (GPa) = 22.50096 69.26847 45.88472
# Shear Modulus (GPa) = 5.82671 24.08878 14.95775
#
# Velocity S-wave (km/s) = 1.68919 3.43458 2.70644
# Velocity P-wave (km/s) = 3.85009 7.04623 5.67770
#
# Compressibility (1/GPa) = 0.04444254
#
# Stress axis : x y z
#
# Youngs Moduli (GPa) = 56.96113 22.35438 114.38590
#
# Poissons Ratio (x) = -0.09303 0.23809
# Poissons Ratio (y) = -0.23705 1.75867
# Poissons Ratio (z) = 0.11856 0.34370
#
# Static dielectric constant tensor:
#      x y z
#    x 1.753560 0.000000 0.000000 
#    y 0.000000 1.663170 0.000000 
#    z 0.000000 0.000000 1.799400 
# 
# From -- ./inp_files/77418.got.cif
#   From: 2010.05.17/outbox.cif.g08.bks.cpg/sg65_39_cif.got.tgz:77418.got - 2010.06.03 17:01:31.
