data_PCOD9485688
_publ_section_title
;
Structure prediction by ZEFSAII (Michael W. Deem and Ramdas Pophale) SiO2 
 PCOD9485688
Probable space group: C M M M
;
_chemical_formula_sum "Si O2"
_cell_formula_units_Z 88
_cell_length_a 16.792466
_cell_length_b 21.977403
_cell_length_c 14.069618
_cell_angle_alpha 90.000000
_cell_angle_beta 90.000000
_cell_angle_gamma 90.000000
_cell_volume 5192.459954
_symmetry_space_group_name_H-M "C M M M"
_symmetry_group_IT_number 65
_symmetry_cell_setting 'orthorhombic'
loop_
_space_group_symop_operation_xyz
x,y,z
-x,-y,z
x,-y,-z
-x,y,-z
-x,-y,-z
x,y,-z
-x,y,z
x,-y,z
1/2+x,1/2+y,z
1/2-x,1/2-y,z
1/2+x,1/2-y,-z
1/2-x,1/2+y,-z
1/2-x,1/2-y,-z
1/2+x,1/2+y,-z
1/2-x,1/2+y,z
1/2+x,1/2-y,z
loop_
_atom_site_type_symbol
_atom_site_label
_atom_site_fract_x
_atom_site_fract_y
_atom_site_fract_z
Si Si1 0.097248 0.190416 0.893216
Si Si2 0.172267 0.625986 0.389160
Si Si3 0.905145 0.742469 0.704350
Si Si4 0.592364 0.000000 0.615518
Si Si5 0.636950 0.369226 0.608095
Si Si6 0.406030 0.566957 0.201541
O O1 0.120281 0.237003 0.810242
O O2 0.125614 0.123298 0.860520
O O3 0.000000 0.189142 0.892072
O O4 0.122764 0.204923 0.000000
O O5 0.148349 0.633895 0.500000
O O6 0.139418 0.683038 0.331470
O O7 0.136339 0.561876 0.354597
O O8 0.267615 0.625082 0.386358
O O9 0.887045 0.800706 0.637616
O O10 0.000000 0.732097 0.703386
O O11 0.500000 0.000000 0.644454
O O12 0.594775 0.000000 0.500000
O O13 0.611802 0.382211 0.500000
O O14 0.602487 0.413443 0.688555
O O15 0.500000 0.563794 0.180464
O O16 0.371221 0.500000 0.184611
#
# Coordination Sequence:
#
# PCOD9485688 Si02
#       6
#    16  16  16   8  16  16
#     4   8  15  29  48  70  94 118 151 198 245 288
#     4  10  20  32  48  69  96 129 162 197 238 281
#     4  10  19  31  49  72  96 123 159 200 240 284
#     4   9  18  32  48  68  92 120 160 203 236 270
#     4  10  20  31  45  65  97 132 162 192 232 284
#     4   9  18  30  45  68  95 126 165 200 233 278
#
# _framework density 16.947649999999999
#
# number of rings (size 3 to 8) (size 9 to 14) (size 15 to 20)
#    0.000    2.636    0.000    3.273    1.273    5.455 
#    0.000    2.727    0.000    8.727    0.000    0.636 
#    0.000    3.636    0.000    0.000    0.000    0.000 
#
# Total GULP energy -245255.752078 kJ/mol
# GULP energy per Si atom -5573.994365 kJ/mol
# Density = 1.690908 g / cm^3
# Si number density = 16.947650 Si / 1000 Ang^3
#
#
#
# Elastic Constant Matrix: (Units=GPa)
#
#
# Indices 1 2 3 4 5 6 
#
# 1 17.4506 5.2407 0.1729 0.0000 0.0000 0.0000
# 2 5.2407 92.7005 19.5107 0.0000 0.0000 0.0000
# 3 0.1729 19.5107 70.8808 0.0000 0.0000 0.0000
# 4 0.0000 0.0000 0.0000 9.4795 0.0000 0.0000
# 5 0.0000 0.0000 0.0000 0.0000 5.2561 0.0000
# 6 0.0000 0.0000 0.0000 0.0000 0.0000 17.7780
#
#
#
# Elastic Compliance Matrix: (Units=1/GPa)
#
#
# Indices 1 2 3 4 5 6 
#
# 1 0.058338 -0.003469 0.000813 0.000000 0.000000 0.000000
# 2 -0.003469 0.011657 -0.003200 0.000000 0.000000 0.000000
# 3 0.000813 -0.003200 0.014987 0.000000 0.000000 0.000000
# 4 0.000000 0.000000 0.000000 0.105491 0.000000 0.000000
# 5 0.000000 0.000000 0.000000 0.000000 0.190255 0.000000
# 6 0.000000 0.000000 0.000000 0.000000 0.000000 0.056249
#
#
# Mechanical properties :
#
#
# Convention : Reuss Voigt Hill
#
# Bulk Modulus (GPa) = 13.64831 25.65339 19.65085
# Shear Modulus (GPa) = 10.56827 16.90990 13.73908
#
# Velocity S-wave (km/s) = 2.49987 3.16218 2.85033
# Velocity P-wave (km/s) = 4.05009 5.33875 4.73843
#
# Compressibility (1/GPa) = 0.07326913
#
# Stress axis : x y z
#
# Youngs Moduli (GPa) = 17.14134 85.78449 66.72398
#
# Poissons Ratio (x) = 0.29760 -0.05422
# Poissons Ratio (y) = 0.05947 0.21354
# Poissons Ratio (z) = -0.01393 0.27453
#
# Static dielectric constant tensor:
#      x y z
#    x 1.571460 0.000000 0.000000 
#    y 0.000000 1.575300 0.000000 
#    z 0.000000 0.000000 1.574720 
# 
# From -- ./inp_files/28703.got.cif
#   From: 2010.05.17/outbox.cif.g08.bks.cpg/sg65_15_cif.got.tgz:28703.got - 2010.06.03 17:01:31.
