data_PCOD9485593
_publ_section_title
;
Structure prediction by ZEFSAII (Michael W. Deem and Ramdas Pophale) SiO2 
 PCOD9485593
Probable space group: C M M M
;
_chemical_formula_sum "Si O2"
_cell_formula_units_Z 112
_cell_length_a 16.843457
_cell_length_b 19.071633
_cell_length_c 21.275798
_cell_angle_alpha 90.000000
_cell_angle_beta 90.000000
_cell_angle_gamma 90.000000
_cell_volume 6834.472044
_symmetry_space_group_name_H-M "C M M M"
_symmetry_group_IT_number 65
_symmetry_cell_setting 'orthorhombic'
loop_
_space_group_symop_operation_xyz
x,y,z
-x,-y,z
x,-y,-z
-x,y,-z
-x,-y,-z
x,y,-z
-x,y,z
x,-y,z
1/2+x,1/2+y,z
1/2-x,1/2-y,z
1/2+x,1/2-y,-z
1/2-x,1/2+y,-z
1/2-x,1/2-y,-z
1/2+x,1/2+y,-z
1/2-x,1/2+y,z
1/2+x,1/2-y,z
loop_
_atom_site_type_symbol
_atom_site_label
_atom_site_fract_x
_atom_site_fract_y
_atom_site_fract_z
Si Si1 0.690539 0.579102 0.266694
Si Si2 0.409188 0.343725 0.833333
Si Si3 0.266144 0.332966 0.925792
Si Si4 0.088239 0.699656 0.760135
Si Si5 0.908202 0.418973 0.575663
Si Si6 0.336679 0.079847 0.832742
Si Si7 0.212207 0.320417 0.350526
O O1 0.676310 0.500000 0.288592
O O2 0.618489 0.608831 0.225384
O O3 0.764190 0.577807 0.217501
O O4 0.718663 0.630446 0.321918
O O5 0.500000 0.357528 0.850828
O O6 0.347689 0.352222 0.890176
O O7 0.402104 0.264284 0.807729
O O8 0.250000 0.250000 0.915489
O O9 0.197814 0.378996 0.892738
O O10 0.270304 0.345502 0.000000
O O11 0.098451 0.627769 0.798655
O O12 0.156737 0.703010 0.708144
O O13 0.000000 0.703984 0.732240
O O14 0.903948 0.416128 0.500000
O O15 0.892328 0.500000 0.594952
O O16 0.845142 0.366660 0.605933
O O17 0.000000 0.403101 0.593488
O O18 0.360393 0.000000 0.846111
O O19 0.250000 0.250000 0.378957
#
# Coordination Sequence:
#
# PCOD9485593 Si02
#       7
#    16  16  16  16  16  16  16
#     4   9  18  31  48  72  98 129 163 196 242 297
#     4  10  19  32  50  70  96 128 160 200 249 296
#     4  10  19  32  51  70  90 123 164 205 249 300
#     4  10  19  31  48  72 101 132 163 200 248 300
#     4   9  19  36  55  75 104 142 179 215 254 294
#     4   9  18  31  49  70  94 124 157 200 251 299
#     4  11  19  30  51  79 107 136 166 208 252 297
#
# _framework density 16.387512999999998
#
# number of rings (size 3 to 8) (size 9 to 14) (size 15 to 20)
#    0.000    2.286    2.857    1.286    0.000    2.000 
#    0.000    0.000    0.000    0.429    0.000    5.000 
#    0.000    0.000    0.000    9.429    0.000    0.000 
#
# Total GULP energy -312116.911239 kJ/mol
# GULP energy per Si atom -5573.516272 kJ/mol
# Density = 1.635021 g / cm^3
# Si number density = 16.387513 Si / 1000 Ang^3
#
#
#
# Elastic Constant Matrix: (Units=GPa)
#
#
# Indices 1 2 3 4 5 6 
#
# 1 54.6432 17.6620 13.1119 0.0000 0.0000 0.0000
# 2 17.6620 106.9700 21.1738 0.0000 0.0000 0.0000
# 3 13.1119 21.1738 35.3067 0.0000 0.0000 0.0000
# 4 0.0000 0.0000 0.0000 21.2998 0.0000 0.0000
# 5 0.0000 0.0000 0.0000 0.0000 17.2688 0.0000
# 6 0.0000 0.0000 0.0000 0.0000 0.0000 18.9208
#
#
#
# Elastic Compliance Matrix: (Units=1/GPa)
#
#
# Indices 1 2 3 4 5 6 
#
# 1 0.020511 -0.002132 -0.006338 0.000000 0.000000 0.000000
# 2 -0.002132 0.010829 -0.005703 0.000000 0.000000 0.000000
# 3 -0.006338 -0.005703 0.034097 0.000000 0.000000 0.000000
# 4 0.000000 0.000000 0.000000 0.046949 0.000000 0.000000
# 5 0.000000 0.000000 0.000000 0.000000 0.057908 0.000000
# 6 0.000000 0.000000 0.000000 0.000000 0.000000 0.052852
#
#
# Mechanical properties :
#
#
# Convention : Reuss Voigt Hill
#
# Bulk Modulus (GPa) = 26.96088 33.42392 30.19240
# Shear Modulus (GPa) = 18.94978 21.16269 20.05623
#
# Velocity S-wave (km/s) = 3.40421 3.59749 3.50218
# Velocity P-wave (km/s) = 5.65149 6.13972 5.90066
#
# Compressibility (1/GPa) = 0.03709077
#
# Stress axis : x y z
#
# Youngs Moduli (GPa) = 48.75542 92.34287 29.32799
#
# Poissons Ratio (x) = 0.19686 0.18590
# Poissons Ratio (y) = 0.10394 0.16725
# Poissons Ratio (z) = 0.30904 0.52660
#
# Static dielectric constant tensor:
#      x y z
#    x 1.543060 0.000000 0.000000 
#    y 0.000000 1.568730 0.000000 
#    z 0.000000 0.000000 1.530000 
# 
# From -- ./inp_files/63916.got.cif
#   From: 2010.05.17/outbox.cif.g08.bks.cpg/sg65_32_cif.got.tgz:63916.got - 2010.06.03 17:01:31.
