data_PCOD9485759
_publ_section_title
;
Structure prediction by ZEFSAII (Michael W. Deem and Ramdas Pophale) SiO2 
 PCOD9485759
Probable space group: C M M M
;
_chemical_formula_sum "Si O2"
_cell_formula_units_Z 76
_cell_length_a 7.598650
_cell_length_b 24.541799
_cell_length_c 22.554182
_cell_angle_alpha 90.000000
_cell_angle_beta 90.000000
_cell_angle_gamma 90.000000
_cell_volume 4206.006277
_symmetry_space_group_name_H-M "C M M M"
_symmetry_group_IT_number 65
_symmetry_cell_setting 'orthorhombic'
loop_
_space_group_symop_operation_xyz
x,y,z
-x,-y,z
x,-y,-z
-x,y,-z
-x,-y,-z
x,y,-z
-x,y,z
x,-y,z
1/2+x,1/2+y,z
1/2-x,1/2-y,z
1/2+x,1/2-y,-z
1/2-x,1/2+y,-z
1/2-x,1/2-y,-z
1/2+x,1/2+y,-z
1/2-x,1/2+y,z
1/2+x,1/2-y,z
loop_
_atom_site_type_symbol
_atom_site_label
_atom_site_fract_x
_atom_site_fract_y
_atom_site_fract_z
Si Si1 0.717170 0.622136 0.500000
Si Si2 0.500000 0.433965 0.067367
Si Si3 0.250066 0.500000 0.500000
Si Si4 0.708322 0.686373 0.381477
Si Si5 0.282013 0.000000 0.368478
Si Si6 0.294457 0.100246 0.287811
Si Si7 0.292793 0.934418 0.161116
O O1 0.500000 0.614385 0.500000
O O2 0.809129 0.563453 0.500000
O O3 0.768540 0.655396 0.441107
O O4 0.500000 0.500000 0.064526
O O5 0.671923 0.419070 0.105568
O O6 0.500000 0.413440 0.000000
O O7 0.310532 0.500000 0.431776
O O8 0.500000 0.680112 0.380221
O O9 0.750000 0.750000 0.384120
O O10 0.776975 0.656583 0.322639
O O11 0.228091 0.052977 0.331399
O O12 0.500000 0.000000 0.377958
O O13 0.500000 0.087277 0.280800
O O14 0.225682 0.094715 0.221167
O O15 0.500000 0.922923 0.150807
O O16 0.277403 0.000000 0.170998
#
# Coordination Sequence:
#
# PCOD9485759 Si02
#       7
#     8   8   4  16   8  16  16
#     4  10  22  36  52  72 100 132 171 218 276 332
#     4   9  18  30  46  74 112 150 188 220 252 310
#     4  12  18  34  50  78 104 126 170 224 278 320
#     4  11  23  39  54  72  96 135 178 225 275 328
#     4  10  19  31  49  74 103 132 172 216 274 328
#     4  10  19  34  53  76 103 136 174 220 269 324
#     4   9  17  30  49  74 108 147 183 219 264 318
#
# _framework density 18.069399000000001
#
# number of rings (size 3 to 8) (size 9 to 14) (size 15 to 20)
#    0.000    2.000    3.158    1.263    1.474    0.421 
#    0.000    4.211    0.000    0.000    0.000    0.000 
#    0.000    0.842    0.421    0.000    0.000    0.000 
#
# Total GULP energy -211771.235671 kJ/mol
# GULP energy per Si atom -5572.927255 kJ/mol
# Density = 1.802827 g / cm^3
# Si number density = 18.069399 Si / 1000 Ang^3
#
#
#
# Elastic Constant Matrix: (Units=GPa)
#
#
# Indices 1 2 3 4 5 6 
#
# 1 69.8325 7.3064 49.6523 0.0000 0.0000 0.0000
# 2 7.3064 95.2150 50.4695 0.0000 0.0000 0.0000
# 3 49.6523 50.4695 189.4162 0.0000 0.0000 0.0000
# 4 0.0000 0.0000 0.0000 -18.2477 0.0000 0.0000
# 5 0.0000 0.0000 0.0000 0.0000 59.2375 0.0000
# 6 0.0000 0.0000 0.0000 0.0000 0.0000 -8.3417
#
#
#
# Elastic Compliance Matrix: (Units=1/GPa)
#
#
# Indices 1 2 3 4 5 6 
#
# 1 0.017734 0.001285 -0.004991 0.000000 0.000000 0.000000
# 2 0.001285 0.012323 -0.003620 0.000000 0.000000 0.000000
# 3 -0.004991 -0.003620 0.007552 0.000000 0.000000 0.000000
# 4 0.000000 0.000000 0.000000 -0.054801 0.000000 0.000000
# 5 0.000000 0.000000 0.000000 0.000000 0.016881 0.000000
# 6 0.000000 0.000000 0.000000 0.000000 0.000000 -0.119880
#
#
# Mechanical properties :
#
#
# Convention : Reuss Voigt Hill
#
# Bulk Modulus (GPa) = 43.56083 63.25779 53.40931
# Shear Modulus (GPa) = -51.07986 22.99867 -14.04060
#
# Velocity S-wave (km/s) = -5.32260 3.57150 -2.79056
# Velocity P-wave (km/s) = 3.68966 7.21746 4.38623
#
# Compressibility (1/GPa) = 0.02295641
#
# Stress axis : x y z
#
# Youngs Moduli (GPa) = 56.38785 81.14997 132.41024
#
# Poissons Ratio (x) = -0.10425 0.66087
# Poissons Ratio (y) = -0.07244 0.47935
# Poissons Ratio (z) = 0.28144 0.29378
#
# Static dielectric constant tensor:
#      x y z
#    x 1.705020 0.000000 0.000000 
#    y 0.000000 1.570710 0.000000 
#    z 0.000000 0.000000 1.628510 
# 
# From -- ./inp_files/50018.got.cif
#   From: 2010.05.17/outbox.cif.g08.bks.cpg/sg65_26_cif.got.tgz:50018.got - 2010.06.03 17:01:31.
