data_PCOD9485222
_publ_section_title
;
Structure prediction by ZEFSAII (Michael W. Deem and Ramdas Pophale) SiO2 
 PCOD9485222
Probable space group: C M M M
;
_chemical_formula_sum "Si O2"
_cell_formula_units_Z 112
_cell_length_a 14.581404
_cell_length_b 23.610813
_cell_length_c 16.081513
_cell_angle_alpha 90.000000
_cell_angle_beta 90.000000
_cell_angle_gamma 90.000000
_cell_volume 5536.524048
_symmetry_space_group_name_H-M "C M M M"
_symmetry_group_IT_number 65
_symmetry_cell_setting 'orthorhombic'
loop_
_space_group_symop_operation_xyz
x,y,z
-x,-y,z
x,-y,-z
-x,y,-z
-x,-y,-z
x,y,-z
-x,y,z
x,-y,z
1/2+x,1/2+y,z
1/2-x,1/2-y,z
1/2+x,1/2-y,-z
1/2-x,1/2+y,-z
1/2-x,1/2-y,-z
1/2+x,1/2+y,-z
1/2-x,1/2+y,z
1/2+x,1/2-y,z
loop_
_atom_site_type_symbol
_atom_site_label
_atom_site_fract_x
_atom_site_fract_y
_atom_site_fract_z
Si Si1 0.611710 0.753723 0.256258
Si Si2 0.153718 0.437356 0.862037
Si Si3 0.282925 0.935135 0.671692
Si Si4 0.365705 0.434515 0.092256
Si Si5 0.606069 0.186708 0.909594
Si Si6 0.104015 0.123250 0.735209
Si Si7 0.890242 0.664828 0.593892
O O1 0.500000 0.755437 0.253827
O O2 0.646619 0.782229 0.170981
O O3 0.636232 0.688237 0.265195
O O4 0.639111 0.790493 0.335869
O O5 0.114595 0.500000 0.880528
O O6 0.167827 0.432681 0.762490
O O7 0.255505 0.435439 0.900705
O O8 0.106136 0.380794 0.893606
O O9 0.179062 0.914399 0.688169
O O10 0.336173 0.892775 0.611953
O O11 0.284200 0.000000 0.643943
O O12 0.395029 0.500000 0.102761
O O13 0.398121 0.397479 0.169135
O O14 0.392061 0.415131 0.000000
O O15 0.500000 0.204894 0.913813
O O16 0.649236 0.198097 0.000000
O O17 0.000000 0.119288 0.702029
O O18 0.873436 0.684894 0.500000
O O19 0.000000 0.655414 0.602795
#
# Coordination Sequence:
#
# PCOD9485222 Si02
#       7
#    16  16  16  16  16  16  16
#     4   9  19  37  56  80 117 154 195 247 291 339
#     4   9  17  31  49  69 105 153 192 235 290 345
#     4  10  21  37  59  88 119 150 188 237 293 354
#     4   9  18  32  50  76 110 148 199 258 303 344
#     4  10  19  30  47  73 109 155 200 240 286 342
#     4  10  21  37  58  81 113 160 204 245 297 348
#     4  10  21  40  67  94 120 151 187 234 296 359
#
# _framework density 20.229298
#
# number of rings (size 3 to 8) (size 9 to 14) (size 15 to 20)
#    0.000    2.429    1.429    1.714    0.000    4.286 
#    0.000    6.429    0.000    3.857    0.000    1.000 
#    0.000    0.000    0.000    0.000    0.000    0.000 
#
# Total GULP energy -312592.093443 kJ/mol
# GULP energy per Si atom -5582.001669 kJ/mol
# Density = 2.018326 g / cm^3
# Si number density = 20.229298 Si / 1000 Ang^3
#
#
#
# Elastic Constant Matrix: (Units=GPa)
#
#
# Indices 1 2 3 4 5 6 
#
# 1 51.6687 15.5997 26.8541 0.0000 0.0000 0.0000
# 2 15.5997 101.6904 37.7322 0.0000 0.0000 0.0000
# 3 26.8541 37.7322 91.0983 0.0000 0.0000 0.0000
# 4 0.0000 0.0000 0.0000 3.9166 0.0000 0.0000
# 5 0.0000 0.0000 0.0000 0.0000 3.6738 0.0000
# 6 0.0000 0.0000 0.0000 0.0000 0.0000 25.1760
#
#
#
# Elastic Compliance Matrix: (Units=1/GPa)
#
#
# Indices 1 2 3 4 5 6 
#
# 1 0.022978 -0.001195 -0.006278 0.000000 0.000000 0.000000
# 2 -0.001195 0.011682 -0.004486 0.000000 0.000000 0.000000
# 3 -0.006278 -0.004486 0.014686 0.000000 0.000000 0.000000
# 4 0.000000 0.000000 0.000000 0.255327 0.000000 0.000000
# 5 0.000000 0.000000 0.000000 0.000000 0.272201 0.000000
# 6 0.000000 0.000000 0.000000 0.000000 0.000000 0.039720
#
#
# Mechanical properties :
#
#
# Convention : Reuss Voigt Hill
#
# Bulk Modulus (GPa) = 39.32965 44.98106 42.15536
# Shear Modulus (GPa) = 7.70429 17.50468 12.60448
#
# Velocity S-wave (km/s) = 1.95365 2.94481 2.49887
# Velocity P-wave (km/s) = 4.95713 5.81777 5.40461
#
# Compressibility (1/GPa) = 0.02542611
#
# Stress axis : x y z
#
# Youngs Moduli (GPa) = 43.51966 85.60391 68.09190
#
# Poissons Ratio (x) = 0.10232 0.42751
# Poissons Ratio (y) = 0.05202 0.30547
# Poissons Ratio (z) = 0.27324 0.38403
#
# Static dielectric constant tensor:
#      x y z
#    x 1.756790 0.000000 0.000000 
#    y 0.000000 1.696280 0.000000 
#    z 0.000000 0.000000 1.712610 
# 
# From -- ./inp_files/40862.got.cif
#   From: 2010.05.17/outbox.cif.g08.bks.cpg/sg65_21_cif.got.tgz:40862.got - 2010.06.03 17:01:31.
