data_PCOD9485037
_publ_section_title
;
Structure prediction by ZEFSAII (Michael W. Deem and Ramdas Pophale) SiO2 
 PCOD9485037
Probable space group: C M M M
;
_chemical_formula_sum "Si O2"
_cell_formula_units_Z 96
_cell_length_a 19.427195
_cell_length_b 8.787440
_cell_length_c 32.019373
_cell_angle_alpha 90.000000
_cell_angle_beta 90.000000
_cell_angle_gamma 90.000000
_cell_volume 5466.197201
_symmetry_space_group_name_H-M "C M M M"
_symmetry_group_IT_number 65
_symmetry_cell_setting 'orthorhombic'
loop_
_space_group_symop_operation_xyz
x,y,z
-x,-y,z
x,-y,-z
-x,y,-z
-x,-y,-z
x,y,-z
-x,y,z
x,-y,z
1/2+x,1/2+y,z
1/2-x,1/2-y,z
1/2+x,1/2-y,-z
1/2-x,1/2+y,-z
1/2-x,1/2-y,-z
1/2+x,1/2+y,-z
1/2-x,1/2+y,z
1/2+x,1/2-y,z
loop_
_atom_site_type_symbol
_atom_site_label
_atom_site_fract_x
_atom_site_fract_y
_atom_site_fract_z
Si Si1 0.919401 0.180982 0.119250
Si Si2 0.578880 0.185248 0.547399
Si Si3 0.326349 0.815449 0.376014
Si Si4 0.916354 0.675802 0.206109
Si Si5 0.920502 0.314325 0.701846
Si Si6 0.325890 0.181902 0.952690
O O1 0.894822 0.233056 0.165183
O O2 0.876501 0.256892 0.082501
O O3 0.000000 0.224507 0.115726
O O4 0.914349 0.000000 0.116041
O O5 0.595584 0.233540 0.500000
O O6 0.500000 0.231229 0.556887
O O7 0.632244 0.234784 0.582561
O O8 0.579090 0.000000 0.547620
O O9 0.250000 0.750000 0.374994
O O10 0.370787 0.768209 0.335549
O O11 0.323418 0.000000 0.376185
O O12 0.894708 0.500000 0.201617
O O13 0.895942 0.734817 0.251979
O O14 0.000000 0.677214 0.207284
O O15 0.921613 0.500000 0.702946
O O16 0.000000 0.266387 0.694974
O O17 0.250000 0.250000 0.946329
O O18 0.322182 0.000000 0.950422
O O19 0.348068 0.224234 0.000000
#
# Coordination Sequence:
#
# PCOD9485037 Si02
#       6
#    16  16  16  16  16  16
#     4  10  20  33  51  77 107 135 164 201 245 292
#     4   8  14  26  46  70  91 115 155 202 237 269
#     4  10  19  30  45  67  96 125 153 190 237 287
#     4   8  14  27  48  71  93 119 156 202 246 285
#     4   8  14  27  49  71  87 114 161 206 237 271
#     4  10  21  37  56  76 100 132 169 207 247 293
#
# _framework density 17.562484000000001
#
# number of rings (size 3 to 8) (size 9 to 14) (size 15 to 20)
#    0.000    3.000    0.000    3.000    0.000    4.667 
#    0.000    3.333    0.000    5.000    0.000    1.167 
#    0.000    0.000    0.000    0.000    0.000    0.000 
#
# Total GULP energy -267469.649190 kJ/mol
# GULP energy per Si atom -5572.284358 kJ/mol
# Density = 1.752251 g / cm^3
# Si number density = 17.562484 Si / 1000 Ang^3
#
#
#
# Elastic Constant Matrix: (Units=GPa)
#
#
# Indices 1 2 3 4 5 6 
#
# 1 96.1026 28.3128 107.3044 0.0000 0.0000 0.0000
# 2 28.3128 17.9331 42.4536 0.0000 0.0000 0.0000
# 3 107.3044 42.4536 194.2933 0.0000 0.0000 0.0000
# 4 0.0000 0.0000 0.0000 9.9191 0.0000 0.0000
# 5 0.0000 0.0000 0.0000 0.0000 -9.2084 0.0000
# 6 0.0000 0.0000 0.0000 0.0000 0.0000 26.0536
#
#
#
# Elastic Compliance Matrix: (Units=1/GPa)
#
#
# Indices 1 2 3 4 5 6 
#
# 1 0.029321 -0.016483 -0.012592 0.000000 0.000000 0.000000
# 2 -0.016483 0.124781 -0.018162 0.000000 0.000000 0.000000
# 3 -0.012592 -0.018162 0.016070 0.000000 0.000000 0.000000
# 4 0.000000 0.000000 0.000000 0.100815 0.000000 0.000000
# 5 0.000000 0.000000 0.000000 0.000000 -0.108597 0.000000
# 6 0.000000 0.000000 0.000000 0.000000 0.000000 0.038382
#
#
# Mechanical properties :
#
#
# Convention : Reuss Voigt Hill
#
# Bulk Modulus (GPa) = 13.21034 73.83007 43.52021
# Shear Modulus (GPa) = 15.60165 14.03676 14.81920
#
# Velocity S-wave (km/s) = 2.98376 2.83016 2.90797
# Velocity P-wave (km/s) = 4.40552 7.26702 6.00908
#
# Compressibility (1/GPa) = 0.07569826
#
# Stress axis : x y z
#
# Youngs Moduli (GPa) = 34.10481 8.01405 62.22947
#
# Poissons Ratio (x) = 0.13210 0.78359
# Poissons Ratio (y) = 0.56215 1.13019
# Poissons Ratio (z) = 0.42945 0.14555
#
# Static dielectric constant tensor:
#      x y z
#    x 1.569330 0.000000 0.000000 
#    y 0.000000 1.594820 0.000000 
#    z 0.000000 0.000000 1.616470 
# 
# From -- ./inp_files/75319.got.cif
#   From: 2010.05.17/outbox.cif.g08.bks.cpg/sg65_38_cif.got.tgz:75319.got - 2010.06.03 17:01:31.
