data_PCOD9485375
_publ_section_title
;
Structure prediction by ZEFSAII (Michael W. Deem and Ramdas Pophale) SiO2 
 PCOD9485375
Probable space group: C M M M
;
_chemical_formula_sum "Si O2"
_cell_formula_units_Z 80
_cell_length_a 26.178061
_cell_length_b 17.882759
_cell_length_c 12.061401
_cell_angle_alpha 90.000000
_cell_angle_beta 90.000000
_cell_angle_gamma 90.000000
_cell_volume 5646.375487
_symmetry_space_group_name_H-M "C M M M"
_symmetry_group_IT_number 65
_symmetry_cell_setting 'orthorhombic'
loop_
_space_group_symop_operation_xyz
x,y,z
-x,-y,z
x,-y,-z
-x,y,-z
-x,-y,-z
x,y,-z
-x,y,z
x,-y,z
1/2+x,1/2+y,z
1/2-x,1/2-y,z
1/2+x,1/2-y,-z
1/2-x,1/2+y,-z
1/2-x,1/2-y,-z
1/2+x,1/2+y,-z
1/2-x,1/2+y,z
1/2+x,1/2-y,z
loop_
_atom_site_type_symbol
_atom_site_label
_atom_site_fract_x
_atom_site_fract_y
_atom_site_fract_z
Si Si1 0.381037 0.588951 0.000000
Si Si2 0.254771 0.411619 0.766991
Si Si3 0.351738 0.348018 0.367060
Si Si4 0.226324 0.834002 0.000000
Si Si5 0.441568 0.588992 0.229457
Si Si6 0.698174 0.800470 0.373447
O O1 0.334717 0.648340 0.000000
O O2 0.414702 0.599852 0.889961
O O3 0.363305 0.500000 0.000000
O O4 0.249932 0.500000 0.773583
O O5 0.307050 0.391607 0.699743
O O6 0.209006 0.371034 0.702013
O O7 0.256473 0.374699 0.887731
O O8 0.345071 0.357717 0.500000
O O9 0.405786 0.375200 0.322561
O O10 0.344228 0.259958 0.341285
O O11 0.250000 0.750000 0.000000
O O12 0.500000 0.615792 0.229188
O O13 0.442194 0.500000 0.248321
O O14 0.690688 0.823827 0.500000
O O15 0.750000 0.750000 0.369188
#
# Coordination Sequence:
#
# PCOD9485375 Si02
#       6
#     8  16  16   8  16  16
#     4  10  19  34  50  65  88 123 157 184 221 270
#     4  11  20  30  45  67  92 119 153 188 225 271
#     4  10  19  31  46  64  91 125 156 187 225 269
#     4  12  22  31  47  68  91 122 154 184 224 270
#     4  10  20  32  47  66  89 119 157 198 230 259
#     4   8  16  30  45  62  87 120 153 182 219 270
#
# _framework density 14.168381
#
# number of rings (size 3 to 8) (size 9 to 14) (size 15 to 20)
#    0.000    2.000    2.000    5.400    0.000    4.400 
#    0.000    1.000    0.000    0.000    0.000    0.000 
#    0.000    0.800    0.000    6.200    0.000    0.000 
#
# Total GULP energy -222875.876400 kJ/mol
# GULP energy per Si atom -5571.896910 kJ/mol
# Density = 1.413613 g / cm^3
# Si number density = 14.168381 Si / 1000 Ang^3
#
#
#
# Elastic Constant Matrix: (Units=GPa)
#
#
# Indices 1 2 3 4 5 6 
#
# 1 68.7290 49.1315 34.6994 0.0000 0.0000 0.0000
# 2 49.1315 112.0833 66.5756 0.0000 0.0000 0.0000
# 3 34.6994 66.5756 89.5961 0.0000 0.0000 0.0000
# 4 0.0000 0.0000 0.0000 2.9852 0.0000 0.0000
# 5 0.0000 0.0000 0.0000 0.0000 8.1062 0.0000
# 6 0.0000 0.0000 0.0000 0.0000 0.0000 22.4098
#
#
#
# Elastic Compliance Matrix: (Units=1/GPa)
#
#
# Indices 1 2 3 4 5 6 
#
# 1 0.021466 -0.008005 -0.002366 0.000000 0.000000 0.000000
# 2 -0.008005 0.018956 -0.010985 0.000000 0.000000 0.000000
# 3 -0.002366 -0.010985 0.020240 0.000000 0.000000 0.000000
# 4 0.000000 0.000000 0.000000 0.334990 0.000000 0.000000
# 5 0.000000 0.000000 0.000000 0.000000 0.123362 0.000000
# 6 0.000000 0.000000 0.000000 0.000000 0.000000 0.044623
#
#
# Mechanical properties :
#
#
# Convention : Reuss Voigt Hill
#
# Bulk Modulus (GPa) = 55.70663 63.46903 59.58783
# Shear Modulus (GPa) = 8.16549 14.70036 11.43293
#
# Velocity S-wave (km/s) = 2.40327 3.22459 2.84374
# Velocity P-wave (km/s) = 6.86322 7.66534 7.27535
#
# Compressibility (1/GPa) = 0.01795118
#
# Stress axis : x y z
#
# Youngs Moduli (GPa) = 46.58439 52.75427 49.40655
#
# Poissons Ratio (x) = 0.42227 0.11689
# Poissons Ratio (y) = 0.37289 0.54275
# Poissons Ratio (z) = 0.11021 0.57952
#
# Static dielectric constant tensor:
#      x y z
#    x 1.468560 0.000000 0.000000 
#    y 0.000000 1.463420 0.000000 
#    z 0.000000 0.000000 1.489290 
# 
# From -- ./inp_files/27038.got.cif
#   From: 2010.05.17/outbox.cif.g08.bks.cpg/sg65_14_cif.got.tgz:27038.got - 2010.06.03 17:01:31.
