data_PCOD9485064
_publ_section_title
;
Structure prediction by ZEFSAII (Michael W. Deem and Ramdas Pophale) SiO2 
 PCOD9485064
Probable space group: C M M M
;
_chemical_formula_sum "Si O2"
_cell_formula_units_Z 104
_cell_length_a 26.299220
_cell_length_b 9.088987
_cell_length_c 26.497755
_cell_angle_alpha 90.000000
_cell_angle_beta 90.000000
_cell_angle_gamma 90.000000
_cell_volume 6333.844991
_symmetry_space_group_name_H-M "C M M M"
_symmetry_group_IT_number 65
_symmetry_cell_setting 'orthorhombic'
loop_
_space_group_symop_operation_xyz
x,y,z
-x,-y,z
x,-y,-z
-x,y,-z
-x,-y,-z
x,y,-z
-x,y,z
x,-y,z
1/2+x,1/2+y,z
1/2-x,1/2-y,z
1/2+x,1/2-y,-z
1/2-x,1/2+y,-z
1/2-x,1/2-y,-z
1/2+x,1/2+y,-z
1/2-x,1/2+y,z
1/2+x,1/2-y,z
loop_
_atom_site_type_symbol
_atom_site_label
_atom_site_fract_x
_atom_site_fract_y
_atom_site_fract_z
Si Si1 0.402310 0.176708 0.704451
Si Si2 0.197013 0.676373 0.885118
Si Si3 0.060619 0.824872 0.396179
Si Si4 0.438218 0.169637 0.500000
Si Si5 0.000000 0.824462 0.117309
Si Si6 0.593325 0.176057 0.940263
Si Si7 0.500000 0.824340 0.226057
Si Si8 0.696862 0.823218 0.767488
O O1 0.410936 0.256469 0.651542
O O2 0.450113 0.208978 0.740871
O O3 0.350508 0.220036 0.732748
O O4 0.401807 0.000000 0.696594
O O5 0.202627 0.500000 0.887879
O O6 0.250000 0.750000 0.900601
O O7 0.148550 0.718014 0.918520
O O8 0.187132 0.715621 0.826317
O O9 0.077345 0.751728 0.448828
O O10 0.000000 0.794429 0.389856
O O11 0.066998 0.000000 0.398468
O O12 0.500000 0.171565 0.500000
O O13 0.421866 0.000000 0.500000
O O14 0.049342 0.761342 0.088811
O O15 0.000000 0.763396 0.174172
O O16 0.000000 0.000000 0.116785
O O17 0.586824 0.000000 0.931692
O O18 0.590424 0.202365 0.000000
O O19 0.500000 0.000000 0.215186
O O20 0.750000 0.750000 0.752434
O O21 0.701582 0.000000 0.765184
#
# Coordination Sequence:
#
# PCOD9485064 Si02
#       8
#    16  16  16   8   8  16   8  16
#     4  10  19  32  52  75 100 134 174 211 248 296
#     4   9  18  34  55  78 103 129 163 205 254 306
#     4  10  19  30  45  70 106 139 169 210 261 305
#     4   9  17  29  47  67  94 137 184 217 245 294
#     4  12  25  37  52  75 103 133 168 213 258 299
#     4  10  21  38  58  76  98 133 172 205 245 305
#     4  10  20  35  55  75 101 135 170 207 249 307
#     4   9  18  32  50  72  98 130 167 206 247 296
#
# _framework density 16.419725
#
# number of rings (size 3 to 8) (size 9 to 14) (size 15 to 20)
#    0.000    2.231    0.769    2.538    0.000    7.385 
#    0.000    3.077    0.000    0.000    0.000    0.538 
#    0.000    0.000    0.000    0.000    0.000    0.000 
#
# Total GULP energy -290221.695982 kJ/mol
# GULP energy per Si atom -5581.186461 kJ/mol
# Density = 1.638235 g / cm^3
# Si number density = 16.419725 Si / 1000 Ang^3
#
#
#
# Elastic Constant Matrix: (Units=GPa)
#
#
# Indices 1 2 3 4 5 6 
#
# 1 109.4156 48.1419 75.0970 0.0000 0.0000 0.0000
# 2 48.1419 45.3022 63.3438 0.0000 0.0000 0.0000
# 3 75.0970 63.3438 131.9122 0.0000 0.0000 0.0000
# 4 0.0000 0.0000 0.0000 16.9572 0.0000 0.0000
# 5 0.0000 0.0000 0.0000 0.0000 -35.5473 0.0000
# 6 0.0000 0.0000 0.0000 0.0000 0.0000 27.1393
#
#
#
# Elastic Compliance Matrix: (Units=1/GPa)
#
#
# Indices 1 2 3 4 5 6 
#
# 1 0.017588 -0.014274 -0.003158 0.000000 0.000000 0.000000
# 2 -0.014274 0.078768 -0.029698 0.000000 0.000000 0.000000
# 3 -0.003158 -0.029698 0.023640 0.000000 0.000000 0.000000
# 4 0.000000 0.000000 0.000000 0.058972 0.000000 0.000000
# 5 0.000000 0.000000 0.000000 0.000000 -0.028132 0.000000
# 6 0.000000 0.000000 0.000000 0.000000 0.000000 0.036847
#
#
# Mechanical properties :
#
#
# Convention : Reuss Voigt Hill
#
# Bulk Modulus (GPa) = 38.85792 73.31059 56.08426
# Shear Modulus (GPa) = 17.21040 8.37965 12.79502
#
# Velocity S-wave (km/s) = 3.24103 2.26152 2.79453
# Velocity P-wave (km/s) = 6.14186 7.18082 6.68156
#
# Compressibility (1/GPa) = 0.02573478
#
# Stress axis : x y z
#
# Youngs Moduli (GPa) = 56.85853 12.69544 42.30192
#
# Poissons Ratio (x) = 0.18122 0.13359
# Poissons Ratio (y) = 0.81161 1.25629
# Poissons Ratio (z) = 0.17956 0.37703
#
# Static dielectric constant tensor:
#      x y z
#    x 1.527660 0.000000 0.000000 
#    y 0.000000 1.546830 0.000000 
#    z 0.000000 0.000000 1.532930 
# 
# From -- ./inp_files/68328.got.cif
#   From: 2010.05.17/outbox.cif.g08.bks.cpg/sg65_35_cif.got.tgz:68328.got - 2010.06.03 17:01:31.
