data_PCOD9485027
_publ_section_title
;
Structure prediction by ZEFSAII (Michael W. Deem and Ramdas Pophale) SiO2 
 PCOD9485027
Probable space group: C M M M
;
_chemical_formula_sum "Si O2"
_cell_formula_units_Z 104
_cell_length_a 20.751032
_cell_length_b 25.731830
_cell_length_c 7.433884
_cell_angle_alpha 90.000000
_cell_angle_beta 90.000000
_cell_angle_gamma 90.000000
_cell_volume 3969.411775
_symmetry_space_group_name_H-M "C M M M"
_symmetry_group_IT_number 65
_symmetry_cell_setting 'orthorhombic'
loop_
_space_group_symop_operation_xyz
x,y,z
-x,-y,z
x,-y,-z
-x,y,-z
-x,-y,-z
x,y,-z
-x,y,z
x,-y,z
1/2+x,1/2+y,z
1/2-x,1/2-y,z
1/2+x,1/2-y,-z
1/2-x,1/2+y,-z
1/2-x,1/2-y,-z
1/2+x,1/2+y,-z
1/2-x,1/2+y,z
1/2+x,1/2-y,z
loop_
_atom_site_type_symbol
_atom_site_label
_atom_site_fract_x
_atom_site_fract_y
_atom_site_fract_z
Si Si1 0.622266 0.223168 0.709106
Si Si2 0.904031 0.943637 0.710422
Si Si3 0.577070 0.888651 0.204593
Si Si4 0.249113 0.056701 0.216046
Si Si5 0.076161 0.500000 0.220497
Si Si6 0.604800 0.668187 0.719627
Si Si7 0.746556 0.171569 0.710785
O O1 0.633059 0.235264 0.500000
O O2 0.588784 0.167502 0.713815
O O3 0.583787 0.273777 0.776604
O O4 0.693044 0.210188 0.788652
O O5 0.922033 0.944807 0.500000
O O6 0.825835 0.942489 0.721944
O O7 0.923349 0.886899 0.785101
O O8 0.923695 0.000000 0.787888
O O9 0.500000 0.894326 0.197184
O O10 0.600765 0.943772 0.282593
O O11 0.601765 0.885530 0.000000
O O12 0.277547 0.111919 0.274925
O O13 0.274761 0.000000 0.273818
O O14 0.249929 0.057029 0.000000
O O15 0.000000 0.500000 0.262873
O O16 0.082271 0.500000 0.000000
O O17 0.599895 0.663731 0.500000
O O18 0.680295 0.670814 0.777178
O O19 0.751824 0.183377 0.500000
#
# Coordination Sequence:
#
# PCOD9485027 Si02
#       7
#    16  16  16  16   8  16  16
#     4  10  19  30  45  67  91 115 145 181 221 264
#     4   8  13  23  41  61  79 107 147 182 210 246
#     4   9  18  34  54  71  88 113 146 184 227 277
#     4   9  16  25  37  54  77 106 142 184 226 257
#     4   7  12  28  53  71  81 105 145 181 219 271
#     4   8  14  26  44  63  87 119 151 180 213 257
#     4   9  17  29  43  58  81 118 156 182 209 257
#
# _framework density 26.200354999999998
#
# number of rings (size 3 to 8) (size 9 to 14) (size 15 to 20)
#    0.000    3.308    0.000    2.769    0.000    3.692 
#    1.385    3.462    0.000    6.000    0.000    0.000 
#    0.000    0.615    0.000    7.692    0.000    1.385 
#
# Total GULP energy -289951.760842 kJ/mol
# GULP energy per Si atom -5575.995401 kJ/mol
# Density = 2.614072 g / cm^3
# Si number density = 26.200355 Si / 1000 Ang^3
#
#
#
# Elastic Constant Matrix: (Units=GPa)
#
#
# Indices 1 2 3 4 5 6 
#
# 1 65.3204 35.0463 -2.8131 0.0000 0.0000 0.0000
# 2 35.0463 326.7289 13.8998 0.0000 0.0000 0.0000
# 3 -2.8131 13.8998 83.8154 0.0000 0.0000 0.0000
# 4 0.0000 0.0000 0.0000 18.8218 0.0000 0.0000
# 5 0.0000 0.0000 0.0000 0.0000 9.5790 0.0000
# 6 0.0000 0.0000 0.0000 0.0000 0.0000 -841.6503
#
#
#
# Elastic Compliance Matrix: (Units=1/GPa)
#
#
# Indices 1 2 3 4 5 6 
#
# 1 0.016303 -0.001785 0.000843 0.000000 0.000000 0.000000
# 2 -0.001785 0.003278 -0.000603 0.000000 0.000000 0.000000
# 3 0.000843 -0.000603 0.012059 0.000000 0.000000 0.000000
# 4 0.000000 0.000000 0.000000 0.053130 0.000000 0.000000
# 5 0.000000 0.000000 0.000000 0.000000 0.104395 0.000000
# 6 0.000000 0.000000 0.000000 0.000000 0.000000 -0.001188
#
#
# Mechanical properties :
#
#
# Convention : Reuss Voigt Hill
#
# Bulk Modulus (GPa) = 35.02607 63.12565 49.07586
# Shear Modulus (GPa) = 24.92724 -134.00112 -54.53694
#
# Velocity S-wave (km/s) = 3.08784 -7.15932 -4.56733
# Velocity P-wave (km/s) = 5.10985 6.64796 3.00706
#
# Compressibility (1/GPa) = 0.02855016
#
# Stress axis : x y z
#
# Youngs Moduli (GPa) = 61.33861 305.08857 82.92318
#
# Poissons Ratio (x) = 0.54446 -0.06991
# Poissons Ratio (y) = 0.10946 0.05004
# Poissons Ratio (z) = -0.05172 0.18411
#
# Static dielectric constant tensor:
#      x y z
#    x 2.087510 0.000000 0.000000 
#    y 0.000000 2.152880 0.000000 
#    z 0.000000 0.000000 2.090200 
# 
# From -- ./inp_files/18901.got.cif
#   From: 2010.05.17/outbox.cif.g08.bks.cpg/sg65_10_cif.got.tgz:18901.got - 2010.06.03 17:01:31.
