data_PCOD9485273
_publ_section_title
;
Structure prediction by ZEFSAII (Michael W. Deem and Ramdas Pophale) SiO2 
 PCOD9485273
Probable space group: C M M M
;
_chemical_formula_sum "Si O2"
_cell_formula_units_Z 104
_cell_length_a 8.588687
_cell_length_b 21.355597
_cell_length_c 30.675039
_cell_angle_alpha 90.000000
_cell_angle_beta 90.000000
_cell_angle_gamma 90.000000
_cell_volume 5626.309467
_symmetry_space_group_name_H-M "C M M M"
_symmetry_group_IT_number 65
_symmetry_cell_setting 'orthorhombic'
loop_
_space_group_symop_operation_xyz
x,y,z
-x,-y,z
x,-y,-z
-x,y,-z
-x,-y,-z
x,y,-z
-x,y,z
x,-y,z
1/2+x,1/2+y,z
1/2-x,1/2-y,z
1/2+x,1/2-y,-z
1/2-x,1/2+y,-z
1/2-x,1/2-y,-z
1/2+x,1/2+y,-z
1/2-x,1/2+y,z
1/2+x,1/2-y,z
loop_
_atom_site_type_symbol
_atom_site_label
_atom_site_fract_x
_atom_site_fract_y
_atom_site_fract_z
Si Si1 0.687910 0.820978 0.546697
Si Si2 0.812036 0.929043 0.705896
Si Si3 0.312943 0.821183 0.643303
Si Si4 0.689524 0.430794 0.807585
Si Si5 0.814476 0.634026 0.050109
Si Si6 0.314525 0.314593 0.135619
Si Si7 0.824409 0.000000 0.947340
O O1 0.737747 0.850236 0.500000
O O2 0.500000 0.820341 0.546717
O O3 0.750000 0.750000 0.545891
O O4 0.736418 0.844288 0.594498
O O5 0.745072 0.872369 0.677690
O O6 0.768200 0.922267 0.756885
O O7 0.000000 0.926644 0.703609
O O8 0.764548 0.000000 0.692181
O O9 0.500000 0.817750 0.644757
O O10 0.250000 0.750000 0.649961
O O11 0.500000 0.430678 0.809259
O O12 0.741164 0.500000 0.822120
O O13 0.745407 0.374260 0.837391
O O14 0.738071 0.678061 0.085734
O O15 0.763647 0.563683 0.063212
O O16 0.000000 0.639469 0.051439
O O17 0.763109 0.645042 0.000000
O O18 0.500000 0.314037 0.137385
O O19 0.250000 0.250000 0.154004
O O20 0.000000 0.000000 0.928964
O O21 0.835580 0.000000 0.000000
#
# Coordination Sequence:
#
# PCOD9485273 Si02
#       7
#    16  16  16  16  16  16   8
#     4   8  14  25  41  63  94 132 172 215 262 309
#     4   9  18  35  57  78 104 138 174 213 264 321
#     4  10  19  30  48  76 107 137 175 221 266 315
#     4   8  17  36  60  82 102 132 175 218 262 313
#     4  10  21  37  56  80 112 145 178 218 261 305
#     4  11  23  38  58  82 111 142 176 217 263 317
#     4   9  17  31  53  81 109 139 177 215 253 299
#
# _framework density 18.484587000000001
#
# number of rings (size 3 to 8) (size 9 to 14) (size 15 to 20)
#    0.000    2.692    0.000    2.538    1.077    3.692 
#    0.000    3.077    0.000    2.308    0.000    3.231 
#    0.000    0.000    0.000    0.000    0.000    0.000 
#
# Total GULP energy -289769.378184 kJ/mol
# GULP energy per Si atom -5572.488042 kJ/mol
# Density = 1.844252 g / cm^3
# Si number density = 18.484587 Si / 1000 Ang^3
#
#
#
# Elastic Constant Matrix: (Units=GPa)
#
#
# Indices 1 2 3 4 5 6 
#
# 1 31.0686 26.6579 22.7353 0.0000 0.0000 0.0000
# 2 26.6579 134.7176 82.2286 0.0000 0.0000 0.0000
# 3 22.7353 82.2286 101.8433 0.0000 0.0000 0.0000
# 4 0.0000 0.0000 0.0000 21.6143 0.0000 0.0000
# 5 0.0000 0.0000 0.0000 0.0000 15.9805 0.0000
# 6 0.0000 0.0000 0.0000 0.0000 0.0000 28.3355
#
#
#
# Elastic Compliance Matrix: (Units=1/GPa)
#
#
# Indices 1 2 3 4 5 6 
#
# 1 0.040025 -0.004863 -0.005009 0.000000 0.000000 0.000000
# 2 -0.004863 0.015227 -0.011208 0.000000 0.000000 0.000000
# 3 -0.005009 -0.011208 0.019987 0.000000 0.000000 0.000000
# 4 0.000000 0.000000 0.000000 0.046266 0.000000 0.000000
# 5 0.000000 0.000000 0.000000 0.000000 0.062576 0.000000
# 6 0.000000 0.000000 0.000000 0.000000 0.000000 0.035291
#
#
# Mechanical properties :
#
#
# Convention : Reuss Voigt Hill
#
# Bulk Modulus (GPa) = 30.23153 58.98589 44.60871
# Shear Modulus (GPa) = 18.34477 22.25325 20.29901
#
# Velocity S-wave (km/s) = 3.15371 3.47346 3.31744
# Velocity P-wave (km/s) = 5.44534 6.93302 6.23372
#
# Compressibility (1/GPa) = 0.03307804
#
# Stress axis : x y z
#
# Youngs Moduli (GPa) = 24.98462 65.67479 50.03293
#
# Poissons Ratio (x) = 0.31937 0.25060
# Poissons Ratio (y) = 0.12150 0.56079
# Poissons Ratio (z) = 0.12514 0.73611
#
# Static dielectric constant tensor:
#      x y z
#    x 1.635210 0.000000 0.000000 
#    y 0.000000 1.599380 0.000000 
#    z 0.000000 0.000000 1.679250 
# 
# From -- ./inp_files/76932.got.cif
#   From: 2010.05.17/outbox.cif.g08.bks.cpg/sg65_39_cif.got.tgz:76932.got - 2010.06.03 17:01:31.
