data_PCOD9485983
_publ_section_title
;
Structure prediction by ZEFSAII (Michael W. Deem and Ramdas Pophale) SiO2 
 PCOD9485983
Probable space group: C M M M
;
_chemical_formula_sum "Si O2"
_cell_formula_units_Z 80
_cell_length_a 9.454180
_cell_length_b 17.453051
_cell_length_c 25.695066
_cell_angle_alpha 90.000000
_cell_angle_beta 90.000000
_cell_angle_gamma 90.000000
_cell_volume 4239.796011
_symmetry_space_group_name_H-M "C M M M"
_symmetry_group_IT_number 65
_symmetry_cell_setting 'orthorhombic'
loop_
_space_group_symop_operation_xyz
x,y,z
-x,-y,z
x,-y,-z
-x,y,-z
-x,-y,-z
x,y,-z
-x,y,z
x,-y,z
1/2+x,1/2+y,z
1/2-x,1/2-y,z
1/2+x,1/2-y,-z
1/2-x,1/2+y,-z
1/2-x,1/2-y,-z
1/2+x,1/2+y,-z
1/2-x,1/2+y,z
1/2+x,1/2-y,z
loop_
_atom_site_type_symbol
_atom_site_label
_atom_site_fract_x
_atom_site_fract_y
_atom_site_fract_z
Si Si1 0.775663 0.911981 0.120672
Si Si2 0.828345 0.168219 0.656084
Si Si3 0.000000 0.374310 0.061376
Si Si4 0.500000 0.309292 0.062109
Si Si5 0.666619 0.590163 0.765776
Si Si6 0.829944 0.332644 0.442151
O O1 0.632859 0.910630 0.089171
O O2 0.870757 0.851292 0.090159
O O3 0.756951 0.887156 0.180815
O O4 0.832524 0.000000 0.121578
O O5 0.750000 0.250000 0.659286
O O6 0.798627 0.129316 0.711394
O O7 0.751882 0.128830 0.606246
O O8 0.000000 0.173051 0.649158
O O9 0.000000 0.282001 0.069348
O O10 0.000000 0.388178 0.000000
O O11 0.500000 0.323872 0.000000
O O12 0.500000 0.603925 0.776077
O O13 0.688078 0.500000 0.758534
O O14 0.814391 0.367784 0.500000
O O15 0.750000 0.250000 0.445429
O O16 0.000000 0.324074 0.432711
#
# Coordination Sequence:
#
# PCOD9485983 Si02
#       6
#    16  16   8   8  16  16
#     4  11  22  40  62  84 111 148 194 234 274 335
#     4  10  19  31  51  79 108 138 176 222 269 321
#     4  11  25  41  57  85 125 149 172 229 298 341
#     4  11  23  39  61  87 113 149 188 227 278 339
#     4   9  19  38  58  77 104 139 181 227 269 313
#     4   9  16  27  45  71 106 143 178 220 266 313
#
# _framework density 18.868832000000001
#
# number of rings (size 3 to 8) (size 9 to 14) (size 15 to 20)
#    0.000    2.000    1.000    4.200    0.000    6.800 
#    3.600    0.000    0.000    0.600    0.000    4.200 
#    0.000    0.000    0.000    0.000    0.000    0.000 
#
# Total GULP energy -222812.042842 kJ/mol
# GULP energy per Si atom -5570.301071 kJ/mol
# Density = 1.882589 g / cm^3
# Si number density = 18.868832 Si / 1000 Ang^3
#
#
#
# Elastic Constant Matrix: (Units=GPa)
#
#
# Indices 1 2 3 4 5 6 
#
# 1 109.6857 16.2904 65.9880 0.0000 0.0000 0.0000
# 2 16.2904 33.3633 52.0093 0.0000 0.0000 0.0000
# 3 65.9880 52.0093 204.7872 0.0000 0.0000 0.0000
# 4 0.0000 0.0000 0.0000 58.7317 0.0000 0.0000
# 5 0.0000 0.0000 0.0000 0.0000 37.0779 0.0000
# 6 0.0000 0.0000 0.0000 0.0000 0.0000 18.5200
#
#
#
# Elastic Compliance Matrix: (Units=1/GPa)
#
#
# Indices 1 2 3 4 5 6 
#
# 1 0.011311 0.000263 -0.003711 0.000000 0.000000 0.000000
# 2 0.000263 0.049622 -0.012687 0.000000 0.000000 0.000000
# 3 -0.003711 -0.012687 0.009301 0.000000 0.000000 0.000000
# 4 0.000000 0.000000 0.000000 0.017027 0.000000 0.000000
# 5 0.000000 0.000000 0.000000 0.000000 0.026970 0.000000
# 6 0.000000 0.000000 0.000000 0.000000 0.000000 0.053996
#
#
# Mechanical properties :
#
#
# Convention : Reuss Voigt Hill
#
# Bulk Modulus (GPa) = 26.34148 68.49019 47.41583
# Shear Modulus (GPa) = 23.45737 37.10249 30.27993
#
# Velocity S-wave (km/s) = 3.52970 4.43915 4.01029
# Velocity P-wave (km/s) = 5.53194 7.91528 6.82839
#
# Compressibility (1/GPa) = 0.03796294
#
# Stress axis : x y z
#
# Youngs Moduli (GPa) = 88.41168 20.15215 107.51333
#
# Poissons Ratio (x) = -0.00530 0.39902
# Poissons Ratio (y) = -0.02324 1.36405
# Poissons Ratio (z) = 0.32813 0.25567
#
# Static dielectric constant tensor:
#      x y z
#    x 1.661430 0.000000 0.000000 
#    y 0.000000 1.646630 0.000000 
#    z 0.000000 0.000000 1.706470 
# 
# From -- ./inp_files/72917.got.cif
#   From: 2010.05.17/outbox.cif.g08.bks.cpg/sg65_37_cif.got.tgz:72917.got - 2010.06.03 17:01:31.
