data_PCOD9485202
_publ_section_title
;
Structure prediction by ZEFSAII (Michael W. Deem and Ramdas Pophale) SiO2 
 PCOD9485202
Probable space group: C M M M
;
_chemical_formula_sum "Si O2"
_cell_formula_units_Z 96
_cell_length_a 27.918838
_cell_length_b 8.226194
_cell_length_c 25.688821
_cell_angle_alpha 90.000000
_cell_angle_beta 90.000000
_cell_angle_gamma 90.000000
_cell_volume 5899.843052
_symmetry_space_group_name_H-M "C M M M"
_symmetry_group_IT_number 65
_symmetry_cell_setting 'orthorhombic'
loop_
_space_group_symop_operation_xyz
x,y,z
-x,-y,z
x,-y,-z
-x,y,-z
-x,-y,-z
x,y,-z
-x,y,z
x,-y,z
1/2+x,1/2+y,z
1/2-x,1/2-y,z
1/2+x,1/2-y,-z
1/2-x,1/2+y,-z
1/2-x,1/2-y,-z
1/2+x,1/2+y,-z
1/2-x,1/2+y,z
1/2+x,1/2-y,z
loop_
_atom_site_type_symbol
_atom_site_label
_atom_site_fract_x
_atom_site_fract_y
_atom_site_fract_z
Si Si1 0.398836 0.306734 0.767757
Si Si2 0.557772 0.816547 0.126277
Si Si3 0.058231 0.000000 0.940125
Si Si4 0.695079 0.192770 0.500000
Si Si5 0.353002 0.694561 0.393508
Si Si6 0.054232 0.305945 0.338543
Si Si7 0.303287 0.695401 0.287725
O O1 0.399287 0.500000 0.778523
O O2 0.419708 0.214100 0.817112
O O3 0.429928 0.274523 0.715930
O O4 0.345006 0.253757 0.752139
O O5 0.500000 0.808191 0.130980
O O6 0.572808 0.665897 0.089468
O O7 0.569615 0.000000 0.107807
O O8 0.000000 0.000000 0.940207
O O9 0.074218 0.000000 0.000000
O O10 0.750000 0.250000 0.500000
O O11 0.668489 0.253066 0.448217
O O12 0.694715 0.000000 0.500000
O O13 0.354346 0.500000 0.391371
O O14 0.406133 0.758030 0.380984
O O15 0.319701 0.752978 0.345267
O O16 0.055675 0.500000 0.331452
O O17 0.000000 0.258162 0.352073
O O18 0.304199 0.500000 0.288668
O O19 0.250000 0.750000 0.275189
#
# Coordination Sequence:
#
# PCOD9485202 Si02
#       7
#    16  16   8   8  16  16  16
#     4  10  19  31  47  70 101 136 170 208 249 299
#     4  10  19  30  47  72 100 135 176 213 251 296
#     4   9  18  32  48  68 100 140 174 211 257 295
#     4  12  24  38  57  78  99 124 158 205 249 297
#     4  10  21  37  54  74  98 127 165 202 247 297
#     4  10  20  33  50  74 102 131 166 205 248 300
#     4   9  19  32  48  70  97 129 160 197 246 303
#
# _framework density 16.271619999999999
#
# number of rings (size 3 to 8) (size 9 to 14) (size 15 to 20)
#    0.000    2.083    0.833    4.250    0.000    9.000 
#    0.000    2.083    0.000    2.500    0.000    0.000 
#    0.000    0.667    0.333    0.000    0.000    0.000 
#
# Total GULP energy -267784.482232 kJ/mol
# GULP energy per Si atom -5578.843380 kJ/mol
# Density = 1.623458 g / cm^3
# Si number density = 16.271620 Si / 1000 Ang^3
#
#
#
# Elastic Constant Matrix: (Units=GPa)
#
#
# Indices 1 2 3 4 5 6 
#
# 1 98.1901 33.4815 39.1945 0.0000 0.0000 0.0000
# 2 33.4815 81.5221 37.7060 0.0000 0.0000 0.0000
# 3 39.1945 37.7060 93.5306 0.0000 0.0000 0.0000
# 4 0.0000 0.0000 0.0000 15.7820 0.0000 0.0000
# 5 0.0000 0.0000 0.0000 0.0000 15.5429 0.0000
# 6 0.0000 0.0000 0.0000 0.0000 0.0000 24.5340
#
#
#
# Elastic Compliance Matrix: (Units=1/GPa)
#
#
# Indices 1 2 3 4 5 6 
#
# 1 0.012978 -0.003460 -0.004044 0.000000 0.000000 0.000000
# 2 -0.003460 0.016000 -0.005001 0.000000 0.000000 0.000000
# 3 -0.004044 -0.005001 0.014402 0.000000 0.000000 0.000000
# 4 0.000000 0.000000 0.000000 0.063363 0.000000 0.000000
# 5 0.000000 0.000000 0.000000 0.000000 0.064338 0.000000
# 6 0.000000 0.000000 0.000000 0.000000 0.000000 0.040760
#
#
# Mechanical properties :
#
#
# Convention : Reuss Voigt Hill
#
# Bulk Modulus (GPa) = 54.42929 54.88965 54.65947
# Shear Modulus (GPa) = 20.57828 22.02917 21.30372
#
# Velocity S-wave (km/s) = 3.56008 3.68345 3.62229
# Velocity P-wave (km/s) = 7.10084 7.20396 7.15259
#
# Compressibility (1/GPa) = 0.01837246
#
# Stress axis : x y z
#
# Youngs Moduli (GPa) = 77.05197 62.49805 69.43381
#
# Poissons Ratio (x) = 0.21624 0.28078
# Poissons Ratio (y) = 0.26659 0.34721
# Poissons Ratio (z) = 0.31158 0.31253
#
# Static dielectric constant tensor:
#      x y z
#    x 1.535020 0.000000 0.000000 
#    y 0.000000 1.572180 0.000000 
#    z 0.000000 0.000000 1.467760 
# 
# From -- ./inp_files/71716.got.cif
#   From: 2010.05.17/outbox.cif.g08.bks.cpg/sg65_36_cif.got.tgz:71716.got - 2010.06.03 17:01:31.
