data_PCOD9485374
_publ_section_title
;
Structure prediction by ZEFSAII (Michael W. Deem and Ramdas Pophale) SiO2 
 PCOD9485374
Probable space group: C M M M
;
_chemical_formula_sum "Si O2"
_cell_formula_units_Z 72
_cell_length_a 8.011843
_cell_length_b 20.241259
_cell_length_c 24.081138
_cell_angle_alpha 90.000000
_cell_angle_beta 90.000000
_cell_angle_gamma 90.000000
_cell_volume 3905.233074
_symmetry_space_group_name_H-M "C M M M"
_symmetry_group_IT_number 65
_symmetry_cell_setting 'orthorhombic'
loop_
_space_group_symop_operation_xyz
x,y,z
-x,-y,z
x,-y,-z
-x,y,-z
-x,-y,-z
x,y,-z
-x,y,z
x,-y,z
1/2+x,1/2+y,z
1/2-x,1/2-y,z
1/2+x,1/2-y,-z
1/2-x,1/2+y,-z
1/2-x,1/2-y,-z
1/2+x,1/2+y,-z
1/2-x,1/2+y,z
1/2+x,1/2-y,z
loop_
_atom_site_type_symbol
_atom_site_label
_atom_site_fract_x
_atom_site_fract_y
_atom_site_fract_z
Si Si1 0.198705 0.825862 0.282552
Si Si2 0.307025 0.580282 0.500000
Si Si3 0.705110 0.576574 0.621434
Si Si4 0.301186 0.825768 0.157593
Si Si5 0.703930 0.924026 0.062779
O O1 0.250000 0.750000 0.292233
O O2 0.263308 0.875536 0.329647
O O3 0.250015 0.844572 0.220061
O O4 0.000000 0.828285 0.284704
O O5 0.309071 0.500000 0.500000
O O6 0.500000 0.602684 0.500000
O O7 0.234986 0.598772 0.439975
O O8 0.500000 0.577427 0.619939
O O9 0.752702 0.500000 0.630529
O O10 0.500000 0.828316 0.155497
O O11 0.250000 0.750000 0.148069
O O12 0.234686 0.874536 0.110127
O O13 0.500000 0.922986 0.063337
O O14 0.753679 0.000000 0.073106
O O15 0.755264 0.905750 0.000000
#
# Coordination Sequence:
#
# PCOD9485374 Si02
#       5
#    16   8  16  16  16
#     4  10  19  31  46  64  91 122 149 181 221 264
#     4   7  10  20  39  62  87 111 140 181 222 260
#     4   8  14  25  43  66  88 113 147 185 223 261
#     4  10  19  31  48  68  90 118 151 184 219 260
#     4   8  15  29  48  69  92 117 146 181 220 262
#
# _framework density 18.436800000000002
#
# number of rings (size 3 to 8) (size 9 to 14) (size 15 to 20)
#    0.000    3.222    0.000    4.667    0.000    1.333 
#    0.000    0.556    0.000    6.000    0.000    8.556 
#    0.000   10.667    0.000    0.000    0.000    0.000 
#
# Total GULP energy -200525.171036 kJ/mol
# GULP energy per Si atom -5570.143640 kJ/mol
# Density = 1.839484 g / cm^3
# Si number density = 18.436800 Si / 1000 Ang^3
#
#
#
# Elastic Constant Matrix: (Units=GPa)
#
#
# Indices 1 2 3 4 5 6 
#
# 1 21.3038 7.1117 12.4150 0.0000 0.0000 0.0000
# 2 7.1117 93.7784 129.8631 0.0000 0.0000 0.0000
# 3 12.4150 129.8631 222.8302 0.0000 0.0000 0.0000
# 4 0.0000 0.0000 0.0000 15.5298 0.0000 0.0000
# 5 0.0000 0.0000 0.0000 0.0000 7.8719 0.0000
# 6 0.0000 0.0000 0.0000 0.0000 0.0000 7.7466
#
#
#
# Elastic Compliance Matrix: (Units=1/GPa)
#
#
# Indices 1 2 3 4 5 6 
#
# 1 0.048517 0.000332 -0.002896 0.000000 0.000000 0.000000
# 2 0.000332 0.055264 -0.032226 0.000000 0.000000 0.000000
# 3 -0.002896 -0.032226 0.023430 0.000000 0.000000 0.000000
# 4 0.000000 0.000000 0.000000 0.064392 0.000000 0.000000
# 5 0.000000 0.000000 0.000000 0.000000 0.127033 0.000000
# 6 0.000000 0.000000 0.000000 0.000000 0.000000 0.129088
#
#
# Mechanical properties :
#
#
# Convention : Reuss Voigt Hill
#
# Bulk Modulus (GPa) = 17.35203 70.74354 44.04779
# Shear Modulus (GPa) = 9.31937 18.79785 14.05861
#
# Velocity S-wave (km/s) = 2.25072 3.19656 2.76439
# Velocity P-wave (km/s) = 4.02323 7.21651 5.84228
#
# Compressibility (1/GPa) = 0.05763013
#
# Stress axis : x y z
#
# Youngs Moduli (GPa) = 20.61121 18.09491 42.68039
#
# Poissons Ratio (x) = -0.00600 0.12362
# Poissons Ratio (y) = -0.00683 1.37541
# Poissons Ratio (z) = 0.05970 0.58312
#
# Static dielectric constant tensor:
#      x y z
#    x 1.657840 0.000000 0.000000 
#    y 0.000000 1.616790 0.000000 
#    z 0.000000 0.000000 1.667220 
# 
# From -- ./inp_files/59540.got.cif
#   From: 2010.05.17/outbox.cif.g08.bks.cpg/sg65_30_cif.got.tgz:59540.got - 2010.06.03 17:01:31.
