data_PCOD9485938
_publ_section_title
;
Structure prediction by ZEFSAII (Michael W. Deem and Ramdas Pophale) SiO2 
 PCOD9485938
Probable space group: C M M M
;
_chemical_formula_sum "Si O2"
_cell_formula_units_Z 96
_cell_length_a 21.194907
_cell_length_b 14.806147
_cell_length_c 15.093092
_cell_angle_alpha 90.000000
_cell_angle_beta 90.000000
_cell_angle_gamma 90.000000
_cell_volume 4736.437288
_symmetry_space_group_name_H-M "C M M M"
_symmetry_group_IT_number 65
_symmetry_cell_setting 'orthorhombic'
loop_
_space_group_symop_operation_xyz
x,y,z
-x,-y,z
x,-y,-z
-x,y,-z
-x,-y,-z
x,y,-z
-x,y,z
x,-y,z
1/2+x,1/2+y,z
1/2-x,1/2-y,z
1/2+x,1/2-y,-z
1/2-x,1/2+y,-z
1/2-x,1/2-y,-z
1/2+x,1/2+y,-z
1/2-x,1/2+y,z
1/2+x,1/2-y,z
loop_
_atom_site_type_symbol
_atom_site_label
_atom_site_fract_x
_atom_site_fract_y
_atom_site_fract_z
Si Si1 0.196186 0.672823 0.903055
Si Si2 0.571254 0.110302 0.397629
Si Si3 0.927984 0.791629 0.097875
Si Si4 0.187234 0.889208 0.601256
Si Si5 0.429399 0.608577 0.719697
Si Si6 0.308751 0.106439 0.291800
O O1 0.250000 0.750000 0.900115
O O2 0.126877 0.717796 0.899993
O O3 0.201435 0.618681 0.812429
O O4 0.202827 0.627240 0.000000
O O5 0.585696 0.134802 0.500000
O O6 0.500000 0.140315 0.375816
O O7 0.625072 0.142578 0.330261
O O8 0.570033 0.000000 0.395395
O O9 0.917827 0.856597 0.180946
O O10 0.000000 0.755748 0.105059
O O11 0.923414 0.835915 0.000000
O O12 0.187933 0.859156 0.500000
O O13 0.124673 0.860471 0.653177
O O14 0.248930 0.857957 0.654014
O O15 0.187343 0.000000 0.600824
O O16 0.500000 0.636806 0.692631
O O17 0.428064 0.500000 0.721066
O O18 0.310531 0.000000 0.309929
#
# Coordination Sequence:
#
# PCOD9485938 Si02
#       6
#    16  16  16  16  16  16
#     4  10  21  36  52  70  95 128 162 194 236 293
#     4   8  14  26  46  73 102 128 156 193 236 280
#     4   9  18  33  52  72  96 129 164 195 234 286
#     4   9  17  29  46  70  99 127 156 193 237 285
#     4   9  17  29  48  75 101 125 159 201 239 274
#     4  10  19  31  51  76  97 121 158 202 242 277
#
# _framework density 20.268398999999999
#
# number of rings (size 3 to 8) (size 9 to 14) (size 15 to 20)
#    0.000    2.833    0.000    2.000    0.000    3.667 
#    0.000    3.333    0.000   15.000    0.000    4.667 
#    0.000    0.000    0.000    0.000    0.000    0.000 
#
# Total GULP energy -267706.723348 kJ/mol
# GULP energy per Si atom -5577.223403 kJ/mol
# Density = 2.022227 g / cm^3
# Si number density = 20.268399 Si / 1000 Ang^3
#
#
#
# Elastic Constant Matrix: (Units=GPa)
#
#
# Indices 1 2 3 4 5 6 
#
# 1 124.4628 8.8941 89.3097 0.0000 0.0000 0.0000
# 2 8.8941 29.3400 8.5417 0.0000 0.0000 0.0000
# 3 89.3097 8.5417 155.7465 0.0000 0.0000 0.0000
# 4 0.0000 0.0000 0.0000 56.6447 0.0000 0.0000
# 5 0.0000 0.0000 0.0000 0.0000 40.0705 0.0000
# 6 0.0000 0.0000 0.0000 0.0000 0.0000 2.0109
#
#
#
# Elastic Compliance Matrix: (Units=1/GPa)
#
#
# Indices 1 2 3 4 5 6 
#
# 1 0.013756 -0.001904 -0.007784 0.000000 0.000000 0.000000
# 2 -0.001904 0.034900 -0.000822 0.000000 0.000000 0.000000
# 3 -0.007784 -0.000822 0.010929 0.000000 0.000000 0.000000
# 4 0.000000 0.000000 0.000000 0.017654 0.000000 0.000000
# 5 0.000000 0.000000 0.000000 0.000000 0.024956 0.000000
# 6 0.000000 0.000000 0.000000 0.000000 0.000000 0.497295
#
#
# Mechanical properties :
#
#
# Convention : Reuss Voigt Hill
#
# Bulk Modulus (GPa) = 25.93018 58.11559 42.02288
# Shear Modulus (GPa) = 7.89436 33.26547 20.57991
#
# Velocity S-wave (km/s) = 1.97569 4.05563 3.18994
# Velocity P-wave (km/s) = 4.24566 7.11801 5.86053
#
# Compressibility (1/GPa) = 0.03856510
#
# Stress axis : x y z
#
# Youngs Moduli (GPa) = 72.69686 28.65355 91.49889
#
# Poissons Ratio (x) = 0.05455 0.71219
# Poissons Ratio (y) = 0.13841 0.07524
# Poissons Ratio (z) = 0.56584 0.02356
#
# Static dielectric constant tensor:
#      x y z
#    x 1.739870 0.000000 0.000000 
#    y 0.000000 1.725210 0.000000 
#    z 0.000000 0.000000 1.705520 
# 
# From -- ./inp_files/27121.got.cif
#   From: 2010.05.17/outbox.cif.g08.bks.cpg/sg65_14_cif.got.tgz:27121.got - 2010.06.03 17:01:31.
