data_PCOD9485010
_publ_section_title
;
Structure prediction by ZEFSAII (Michael W. Deem and Ramdas Pophale) SiO2 
 PCOD9485010
Probable space group: C M M M
;
_chemical_formula_sum "Si O2"
_cell_formula_units_Z 96
_cell_length_a 23.804095
_cell_length_b 15.926368
_cell_length_c 14.917895
_cell_angle_alpha 90.000000
_cell_angle_beta 90.000000
_cell_angle_gamma 90.000000
_cell_volume 5655.564599
_symmetry_space_group_name_H-M "C M M M"
_symmetry_group_IT_number 65
_symmetry_cell_setting 'orthorhombic'
loop_
_space_group_symop_operation_xyz
x,y,z
-x,-y,z
x,-y,-z
-x,y,-z
-x,-y,-z
x,y,-z
-x,y,z
x,-y,z
1/2+x,1/2+y,z
1/2-x,1/2-y,z
1/2+x,1/2-y,-z
1/2-x,1/2+y,-z
1/2-x,1/2-y,-z
1/2+x,1/2+y,-z
1/2-x,1/2+y,z
1/2+x,1/2-y,z
loop_
_atom_site_type_symbol
_atom_site_label
_atom_site_fract_x
_atom_site_fract_y
_atom_site_fract_z
Si Si1 0.931929 0.099113 0.000000
Si Si2 0.632922 0.125718 0.602322
Si Si3 0.062701 0.098699 0.500000
Si Si4 0.932624 0.592223 0.215715
Si Si5 0.263573 0.596919 0.396290
Si Si6 0.868962 0.816148 0.346288
Si Si7 0.432136 0.278057 0.835492
O O1 0.916121 0.157802 0.914975
O O2 0.000000 0.094824 0.000000
O O3 0.912927 0.000000 0.000000
O O4 0.619192 0.098407 0.500000
O O5 0.594063 0.096778 0.684504
O O6 0.697443 0.101634 0.622321
O O7 0.630774 0.225884 0.606933
O O8 0.097344 0.124236 0.412896
O O9 0.000000 0.137547 0.500000
O O10 0.057219 0.000000 0.500000
O O11 0.917180 0.500000 0.177166
O O12 0.917508 0.677519 0.160747
O O13 0.000000 0.594286 0.224501
O O14 0.270856 0.624463 0.500000
O O15 0.280909 0.500000 0.389685
O O16 0.305093 0.652497 0.337666
O O17 0.901471 0.809183 0.253594
O O18 0.500000 0.282153 0.826886
#
# Coordination Sequence:
#
# PCOD9485010 Si02
#       7
#     8  16   8  16  16  16  16
#     4   9  18  34  55  77 100 127 162 208 258 306
#     4  10  19  31  46  69  96 136 176 214 249 289
#     4  11  22  32  43  64  97 133 167 202 244 298
#     4   9  18  32  49  72 103 134 166 208 254 302
#     4  10  19  30  45  65  95 129 170 216 250 288
#     4  11  19  32  48  68  95 133 170 206 249 297
#     4   9  19  34  52  75 102 130 164 208 256 306
#
# _framework density 16.974432
#
# number of rings (size 3 to 8) (size 9 to 14) (size 15 to 20)
#    0.000    2.167    1.667    2.000    0.000    4.667 
#    0.000    2.917    0.000    2.500    0.000    9.333 
#    0.000    0.000    0.000    0.000    0.000    0.000 
#
# Total GULP energy -267311.177916 kJ/mol
# GULP energy per Si atom -5568.982873 kJ/mol
# Density = 1.693580 g / cm^3
# Si number density = 16.974432 Si / 1000 Ang^3
#
#
#
# Elastic Constant Matrix: (Units=GPa)
#
#
# Indices 1 2 3 4 5 6 
#
# 1 26.6958 21.7893 15.9782 0.0000 0.0000 0.0000
# 2 21.7893 131.3997 55.9957 0.0000 0.0000 0.0000
# 3 15.9782 55.9957 78.2496 0.0000 0.0000 0.0000
# 4 0.0000 0.0000 0.0000 -7.0601 0.0000 0.0000
# 5 0.0000 0.0000 0.0000 0.0000 11.4936 0.0000
# 6 0.0000 0.0000 0.0000 0.0000 0.0000 25.6466
#
#
#
# Elastic Compliance Matrix: (Units=1/GPa)
#
#
# Indices 1 2 3 4 5 6 
#
# 1 0.044926 -0.005094 -0.005528 0.000000 0.000000 0.000000
# 2 -0.005094 0.011527 -0.007209 0.000000 0.000000 0.000000
# 3 -0.005528 -0.007209 0.019067 0.000000 0.000000 0.000000
# 4 0.000000 0.000000 0.000000 -0.141641 0.000000 0.000000
# 5 0.000000 0.000000 0.000000 0.000000 0.087005 0.000000
# 6 0.000000 0.000000 0.000000 0.000000 0.000000 0.038992
#
#
# Mechanical properties :
#
#
# Convention : Reuss Voigt Hill
#
# Bulk Modulus (GPa) = 25.08917 47.09684 36.09300
# Shear Modulus (GPa) = 45.94607 15.52147 30.73377
#
# Velocity S-wave (km/s) = 5.20832 3.02719 4.25972
# Velocity P-wave (km/s) = 7.14013 6.32649 6.74559
#
# Compressibility (1/GPa) = 0.03985784
#
# Stress axis : x y z
#
# Youngs Moduli (GPa) = 22.25900 86.75292 52.44658
#
# Poissons Ratio (x) = 0.44191 0.28995
# Poissons Ratio (y) = 0.11338 0.37807
# Poissons Ratio (z) = 0.12306 0.62537
#
# Static dielectric constant tensor:
#      x y z
#    x 1.577910 0.000000 0.000000 
#    y 0.000000 1.629970 0.000000 
#    z 0.000000 0.000000 1.549850 
# 
# From -- ./inp_files/45703.got.cif
#   From: 2010.05.17/outbox.cif.g08.bks.cpg/sg65_23_cif.got.tgz:45703.got - 2010.06.03 17:01:31.
