data_PCOD9485528
_publ_section_title
;
Structure prediction by ZEFSAII (Michael W. Deem and Ramdas Pophale) SiO2 
 PCOD9485528
Probable space group: C M M M
;
_chemical_formula_sum "Si O2"
_cell_formula_units_Z 88
_cell_length_a 8.555273
_cell_length_b 18.906648
_cell_length_c 30.226801
_cell_angle_alpha 90.000000
_cell_angle_beta 90.000000
_cell_angle_gamma 90.000000
_cell_volume 4889.231465
_symmetry_space_group_name_H-M "C M M M"
_symmetry_group_IT_number 65
_symmetry_cell_setting 'orthorhombic'
loop_
_space_group_symop_operation_xyz
x,y,z
-x,-y,z
x,-y,-z
-x,y,-z
-x,-y,-z
x,y,-z
-x,y,z
x,-y,z
1/2+x,1/2+y,z
1/2-x,1/2-y,z
1/2+x,1/2-y,-z
1/2-x,1/2+y,-z
1/2-x,1/2-y,-z
1/2+x,1/2+y,-z
1/2-x,1/2+y,z
1/2+x,1/2-y,z
loop_
_atom_site_type_symbol
_atom_site_label
_atom_site_fract_x
_atom_site_fract_y
_atom_site_fract_z
Si Si1 0.808838 0.081222 0.000000
Si Si2 0.811836 0.418395 0.359043
Si Si3 0.187022 0.915437 0.451991
Si Si4 0.812583 0.669952 0.725880
Si Si5 0.311222 0.669957 0.084969
Si Si6 0.687317 0.330557 0.817760
O O1 0.757696 0.122429 0.955929
O O2 0.000000 0.081593 0.000000
O O3 0.758395 0.000000 0.000000
O O4 0.757208 0.500000 0.355582
O O5 0.758391 0.387994 0.406400
O O6 0.758406 0.374044 0.316713
O O7 0.000000 0.419167 0.358704
O O8 0.241947 0.887495 0.500000
O O9 0.000000 0.907348 0.450269
O O10 0.220128 0.000000 0.452312
O O11 0.500000 0.827979 0.726370
O O12 0.750000 0.750000 0.722719
O O13 0.755624 0.637883 0.772667
O O14 0.500000 0.672920 0.083952
O O15 0.250000 0.750000 0.080448
O O16 0.267450 0.640705 0.133763
O O17 0.500000 0.329949 0.814468
O O18 0.750000 0.250000 0.818472
#
# Coordination Sequence:
#
# PCOD9485528 Si02
#       6
#     8  16  16  16  16  16
#     4   9  17  30  47  67  94 125 152 180 220 269
#     4   9  18  31  46  66  91 118 149 184 222 266
#     4   8  14  25  42  65  91 117 146 182 224 266
#     4  10  19  31  48  68  91 120 152 185 223 268
#     4   9  17  29  48  71  90 114 150 189 225 261
#     4   9  16  27  44  67  91 114 147 187 224 263
#
# _framework density 17.998737999999999
#
# number of rings (size 3 to 8) (size 9 to 14) (size 15 to 20)
#    0.000    3.000    0.000    3.000    0.000    2.545 
#    0.000    2.727    0.000    2.727    0.000    0.000 
#    0.000    0.000    0.000    0.000    0.000    0.000 
#
# Total GULP energy -244953.757035 kJ/mol
# GULP energy per Si atom -5567.130842 kJ/mol
# Density = 1.795777 g / cm^3
# Si number density = 17.998738 Si / 1000 Ang^3
#
#
#
# Elastic Constant Matrix: (Units=GPa)
#
#
# Indices 1 2 3 4 5 6 
#
# 1 17.9265 9.0720 33.1380 0.0000 0.0000 0.0000
# 2 9.0720 44.3580 65.7900 0.0000 0.0000 0.0000
# 3 33.1380 65.7900 237.8183 0.0000 0.0000 0.0000
# 4 0.0000 0.0000 0.0000 111.8761 0.0000 0.0000
# 5 0.0000 0.0000 0.0000 0.0000 29.8200 0.0000
# 6 0.0000 0.0000 0.0000 0.0000 0.0000 11.6111
#
#
#
# Elastic Compliance Matrix: (Units=1/GPa)
#
#
# Indices 1 2 3 4 5 6 
#
# 1 0.075139 0.000274 -0.010546 0.000000 0.000000 0.000000
# 2 0.000274 0.038230 -0.010614 0.000000 0.000000 0.000000
# 3 -0.010546 -0.010614 0.008611 0.000000 0.000000 0.000000
# 4 0.000000 0.000000 0.000000 0.008938 0.000000 0.000000
# 5 0.000000 0.000000 0.000000 0.000000 0.033535 0.000000
# 6 0.000000 0.000000 0.000000 0.000000 0.000000 0.086124
#
#
# Mechanical properties :
#
#
# Convention : Reuss Voigt Hill
#
# Bulk Modulus (GPa) = 12.46763 57.34477 34.90620
# Shear Modulus (GPa) = 15.66978 43.46829 29.56904
#
# Velocity S-wave (km/s) = 2.95380 4.91967 4.05759
# Velocity P-wave (km/s) = 4.30990 8.01252 6.43334
#
# Compressibility (1/GPa) = 0.08020770
#
# Stress axis : x y z
#
# Youngs Moduli (GPa) = 13.30869 26.15720 116.13503
#
# Poissons Ratio (x) = -0.00716 1.22473
# Poissons Ratio (y) = -0.00364 1.23268
# Poissons Ratio (z) = 0.14035 0.27764
#
# Static dielectric constant tensor:
#      x y z
#    x 1.610990 0.000000 0.000000 
#    y 0.000000 1.583420 0.000000 
#    z 0.000000 0.000000 1.684250 
# 
# From -- ./inp_files/76563.got.cif
#   From: 2010.05.17/outbox.cif.g08.bks.cpg/sg65_39_cif.got.tgz:76563.got - 2010.06.03 17:01:31.
