data_PCOD9485586
_publ_section_title
;
Structure prediction by ZEFSAII (Michael W. Deem and Ramdas Pophale) SiO2 
 PCOD9485586
Probable space group: C M M M
;
_chemical_formula_sum "Si O2"
_cell_formula_units_Z 96
_cell_length_a 17.953296
_cell_length_b 24.901009
_cell_length_c 13.741881
_cell_angle_alpha 90.000000
_cell_angle_beta 90.000000
_cell_angle_gamma 90.000000
_cell_volume 6143.379156
_symmetry_space_group_name_H-M "C M M M"
_symmetry_group_IT_number 65
_symmetry_cell_setting 'orthorhombic'
loop_
_space_group_symop_operation_xyz
x,y,z
-x,-y,z
x,-y,-z
-x,y,-z
-x,-y,-z
x,y,-z
-x,y,z
x,-y,z
1/2+x,1/2+y,z
1/2-x,1/2-y,z
1/2+x,1/2-y,-z
1/2-x,1/2+y,-z
1/2-x,1/2-y,-z
1/2+x,1/2+y,-z
1/2-x,1/2+y,z
1/2+x,1/2-y,z
loop_
_atom_site_type_symbol
_atom_site_label
_atom_site_fract_x
_atom_site_fract_y
_atom_site_fract_z
Si Si1 0.300718 0.699584 0.253360
Si Si2 0.316400 0.138415 0.612350
Si Si3 0.088019 0.742687 0.609052
Si Si4 0.307703 0.600017 0.883782
Si Si5 0.153839 0.563985 0.212105
Si Si6 0.913294 0.000000 0.118092
Si Si7 0.500000 0.934555 0.887632
O O1 0.250000 0.750000 0.218366
O O2 0.252173 0.668879 0.335674
O O3 0.371633 0.723816 0.307737
O O4 0.320180 0.656339 0.171096
O O5 0.301410 0.125100 0.500000
O O6 0.383070 0.181671 0.615742
O O7 0.335801 0.088829 0.681242
O O8 0.110385 0.761592 0.500000
O O9 0.000000 0.745386 0.617121
O O10 0.224701 0.581580 0.852431
O O11 0.366456 0.553318 0.853335
O O12 0.311906 0.605722 0.000000
O O13 0.152705 0.500000 0.215938
O O14 0.075850 0.582894 0.165301
O O15 0.000000 0.000000 0.150600
O O16 0.914334 0.000000 0.000000
O O17 0.500000 0.000000 0.887026
O O18 0.500000 0.917428 0.000000
#
# Coordination Sequence:
#
# PCOD9485586 Si02
#       7
#    16  16  16  16  16   8   8
#     4   9  18  32  49  73  99 129 164 208 250 301
#     4   9  18  31  48  70  99 130 162 202 248 296
#     4   9  17  30  50  72  93 124 164 205 248 294
#     4  10  19  32  52  73  99 132 167 208 252 299
#     4  10  19  31  48  71  98 130 168 202 242 293
#     4   9  18  32  50  73  98 126 165 211 254 300
#     4   9  18  30  45  65  91 125 164 204 239 276
#
# _framework density 15.626579
#
# number of rings (size 3 to 8) (size 9 to 14) (size 15 to 20)
#    0.000    2.667    0.833    1.000    1.167    4.000 
#    0.000    0.000    0.000    1.500    0.000    0.000 
#    0.000    5.333    0.000    0.000    0.000    0.000 
#
# Total GULP energy -267375.681572 kJ/mol
# GULP energy per Si atom -5570.326699 kJ/mol
# Density = 1.559101 g / cm^3
# Si number density = 15.626579 Si / 1000 Ang^3
#
#
#
# Elastic Constant Matrix: (Units=GPa)
#
#
# Indices 1 2 3 4 5 6 
#
# 1 77.9118 17.6194 26.8014 0.0000 0.0000 0.0000
# 2 17.6194 54.0154 42.5503 0.0000 0.0000 0.0000
# 3 26.8014 42.5503 92.0392 0.0000 0.0000 0.0000
# 4 0.0000 0.0000 0.0000 21.0211 0.0000 0.0000
# 5 0.0000 0.0000 0.0000 0.0000 15.3060 0.0000
# 6 0.0000 0.0000 0.0000 0.0000 0.0000 9.0003
#
#
#
# Elastic Compliance Matrix: (Units=1/GPa)
#
#
# Indices 1 2 3 4 5 6 
#
# 1 0.014428 -0.002197 -0.003186 0.000000 0.000000 0.000000
# 2 -0.002197 0.029452 -0.012976 0.000000 0.000000 0.000000
# 3 -0.003186 -0.012976 0.017792 0.000000 0.000000 0.000000
# 4 0.000000 0.000000 0.000000 0.047571 0.000000 0.000000
# 5 0.000000 0.000000 0.000000 0.000000 0.065334 0.000000
# 6 0.000000 0.000000 0.000000 0.000000 0.000000 0.111107
#
#
# Mechanical properties :
#
#
# Convention : Reuss Voigt Hill
#
# Bulk Modulus (GPa) = 40.07380 44.21206 42.14293
# Shear Modulus (GPa) = 15.11863 18.19850 16.65856
#
# Velocity S-wave (km/s) = 3.11383 3.41631 3.26857
# Velocity P-wave (km/s) = 6.21516 6.62690 6.42433
#
# Compressibility (1/GPa) = 0.02495396
#
# Stress axis : x y z
#
# Youngs Moduli (GPa) = 69.31127 33.95408 56.20661
#
# Poissons Ratio (x) = 0.07458 0.17906
# Poissons Ratio (y) = 0.15225 0.72934
# Poissons Ratio (z) = 0.22081 0.44059
#
# Static dielectric constant tensor:
#      x y z
#    x 1.518220 0.000000 0.000000 
#    y 0.000000 1.512740 0.000000 
#    z 0.000000 0.000000 1.508280 
# 
# From -- ./inp_files/27201.got.cif
#   From: 2010.05.17/outbox.cif.g08.bks.cpg/sg65_14_cif.got.tgz:27201.got - 2010.06.03 17:01:31.
