data_PCOD9485784
_publ_section_title
;
Structure prediction by ZEFSAII (Michael W. Deem and Ramdas Pophale) SiO2 
 PCOD9485784
Probable space group: C M M M
;
_chemical_formula_sum "Si O2"
_cell_formula_units_Z 104
_cell_length_a 8.448015
_cell_length_b 23.895167
_cell_length_c 29.425238
_cell_angle_alpha 90.000000
_cell_angle_beta 90.000000
_cell_angle_gamma 90.000000
_cell_volume 5939.976552
_symmetry_space_group_name_H-M "C M M M"
_symmetry_group_IT_number 65
_symmetry_cell_setting 'orthorhombic'
loop_
_space_group_symop_operation_xyz
x,y,z
-x,-y,z
x,-y,-z
-x,y,-z
-x,-y,-z
x,y,-z
-x,y,z
x,-y,z
1/2+x,1/2+y,z
1/2-x,1/2-y,z
1/2+x,1/2-y,-z
1/2-x,1/2+y,-z
1/2-x,1/2-y,-z
1/2+x,1/2+y,-z
1/2-x,1/2+y,z
1/2+x,1/2-y,z
loop_
_atom_site_type_symbol
_atom_site_label
_atom_site_fract_x
_atom_site_fract_y
_atom_site_fract_z
Si Si1 0.308852 0.185950 0.451238
Si Si2 0.310419 0.382870 0.734244
Si Si3 0.189777 0.187022 0.822492
Si Si4 0.310489 0.000000 0.770269
Si Si5 0.190101 0.314039 0.648795
Si Si6 0.692040 0.185975 0.000000
Si Si7 0.190960 0.379581 0.090188
Si Si8 0.306743 0.000000 0.876444
O O1 0.256443 0.160656 0.500000
O O2 0.500000 0.185490 0.451258
O O3 0.250000 0.250000 0.451710
O O4 0.258130 0.164723 0.401578
O O5 0.500000 0.384049 0.733420
O O6 0.258393 0.344639 0.776822
O O7 0.248183 0.444716 0.744728
O O8 0.250553 0.354192 0.688313
O O9 0.250000 0.250000 0.821910
O O10 0.256767 0.155267 0.866077
O O11 0.000000 0.186379 0.824440
O O12 0.255642 0.000000 0.823360
O O13 0.500000 0.000000 0.771215
O O14 0.250000 0.250000 0.654908
O O15 0.000000 0.312376 0.650067
O O16 0.750000 0.250000 0.000000
O O17 0.745445 0.151981 0.044718
O O18 0.500000 0.187239 0.000000
O O19 0.245296 0.443422 0.098257
O O20 0.000000 0.380807 0.088502
O O21 0.500000 0.000000 0.876006
#
# Coordination Sequence:
#
# PCOD9485784 Si02
#       8
#    16  16  16   8  16   8  16   8
#     4   8  14  25  42  66  98 136 176 217 261 311
#     4  11  23  37  53  76 106 139 175 219 268 317
#     4  11  23  36  53  77 104 138 175 213 256 309
#     4  11  21  37  60  81 102 135 176 220 264 316
#     4  10  19  31  49  75 108 144 181 221 267 319
#     4  10  22  37  57  81 111 142 173 214 259 312
#     4  10  20  37  58  82 108 138 173 213 260 309
#     4   9  18  34  59  84 105 132 170 215 258 303
#
# _framework density 17.508486000000001
#
# number of rings (size 3 to 8) (size 9 to 14) (size 15 to 20)
#    0.000    2.000    1.538    2.538    0.000    5.846 
#    0.000    1.923    0.000    0.000    0.000    2.154 
#    0.000    4.308    0.000    0.000    0.000    0.000 
#
# Total GULP energy -290053.942847 kJ/mol
# GULP energy per Si atom -5577.960439 kJ/mol
# Density = 1.746864 g / cm^3
# Si number density = 17.508486 Si / 1000 Ang^3
#
#
#
# Elastic Constant Matrix: (Units=GPa)
#
#
# Indices 1 2 3 4 5 6 
#
# 1 19.7110 22.2792 28.6968 0.0000 0.0000 0.0000
# 2 22.2792 155.9271 99.5290 0.0000 0.0000 0.0000
# 3 28.6968 99.5290 205.5429 0.0000 0.0000 0.0000
# 4 0.0000 0.0000 0.0000 -4.4551 0.0000 0.0000
# 5 0.0000 0.0000 0.0000 0.0000 -4.9883 0.0000
# 6 0.0000 0.0000 0.0000 0.0000 0.0000 2.0479
#
#
#
# Elastic Compliance Matrix: (Units=1/GPa)
#
#
# Indices 1 2 3 4 5 6 
#
# 1 0.066436 -0.005170 -0.006772 0.000000 0.000000 0.000000
# 2 -0.005170 0.009685 -0.003968 0.000000 0.000000 0.000000
# 3 -0.006772 -0.003968 0.007732 0.000000 0.000000 0.000000
# 4 0.000000 0.000000 0.000000 -0.224461 0.000000 0.000000
# 5 0.000000 0.000000 0.000000 0.000000 -0.200470 0.000000
# 6 0.000000 0.000000 0.000000 0.000000 0.000000 0.488302
#
#
# Mechanical properties :
#
#
# Convention : Reuss Voigt Hill
#
# Bulk Modulus (GPa) = 19.21860 75.79901 47.50881
# Shear Modulus (GPa) = 25.45996 13.89930 19.67963
#
# Velocity S-wave (km/s) = 3.81747 2.82061 3.35626
# Velocity P-wave (km/s) = 5.51646 7.34810 6.49715
#
# Compressibility (1/GPa) = 0.05203292
#
# Stress axis : x y z
#
# Youngs Moduli (GPa) = 15.05215 103.25732 129.33429
#
# Poissons Ratio (x) = 0.53383 0.87586
# Poissons Ratio (y) = 0.07782 0.51316
# Poissons Ratio (z) = 0.10193 0.40969
#
# Static dielectric constant tensor:
#      x y z
#    x 1.601590 0.000000 0.000000 
#    y 0.000000 1.556630 0.000000 
#    z 0.000000 0.000000 1.624380 
# 
# From -- ./inp_files/76953.got.cif
#   From: 2010.05.17/outbox.cif.g08.bks.cpg/sg65_39_cif.got.tgz:76953.got - 2010.06.03 17:01:31.
