data_PCOD9485937
_publ_section_title
;
Structure prediction by ZEFSAII (Michael W. Deem and Ramdas Pophale) SiO2 
 PCOD9485937
Probable space group: C M M M
;
_chemical_formula_sum "Si O2"
_cell_formula_units_Z 88
_cell_length_a 23.513248
_cell_length_b 23.307641
_cell_length_c 7.359077
_cell_angle_alpha 90.000000
_cell_angle_beta 90.000000
_cell_angle_gamma 90.000000
_cell_volume 4033.056366
_symmetry_space_group_name_H-M "C M M M"
_symmetry_group_IT_number 65
_symmetry_cell_setting 'orthorhombic'
loop_
_space_group_symop_operation_xyz
x,y,z
-x,-y,z
x,-y,-z
-x,y,-z
-x,-y,-z
x,y,-z
-x,y,z
x,-y,z
1/2+x,1/2+y,z
1/2-x,1/2-y,z
1/2+x,1/2-y,-z
1/2-x,1/2+y,-z
1/2-x,1/2-y,-z
1/2+x,1/2+y,-z
1/2-x,1/2+y,z
1/2+x,1/2-y,z
loop_
_atom_site_type_symbol
_atom_site_label
_atom_site_fract_x
_atom_site_fract_y
_atom_site_fract_z
Si Si1 0.436518 0.268540 0.780589
Si Si2 0.435001 0.063467 0.221273
Si Si3 0.144058 0.333864 0.220105
Si Si4 0.874873 0.882568 0.710633
Si Si5 0.933384 0.000000 0.722677
Si Si6 0.731986 0.311807 0.290949
O O1 0.500000 0.250910 0.722300
O O2 0.386833 0.225097 0.720804
O O3 0.422292 0.332892 0.721512
O O4 0.436140 0.267478 0.000000
O O5 0.500000 0.072073 0.278154
O O6 0.395313 0.114311 0.281504
O O7 0.416436 0.000000 0.277205
O O8 0.435125 0.064390 0.000000
O O9 0.207657 0.342973 0.286918
O O10 0.145771 0.332922 0.000000
O O11 0.861102 0.894581 0.500000
O O12 0.900260 0.942230 0.783113
O O13 0.818530 0.850681 0.789138
O O14 0.934054 0.000000 0.500000
O O15 0.000000 0.000000 0.777896
O O16 0.714985 0.299821 0.500000
O O17 0.750000 0.250000 0.207445
#
# Coordination Sequence:
#
# PCOD9485937 Si02
#       6
#    16  16  16  16   8  16
#     4  10  20  32  49  77 108 132 160 205 260 310
#     4   8  14  27  48  73 101 132 166 205 248 294
#     4  10  19  31  51  76 102 132 169 209 249 299
#     4  10  20  36  56  75 100 134 173 213 254 301
#     4   9  18  34  57  81  99 125 174 223 254 294
#     4  10  20  35  52  72 101 134 167 205 251 304
#
# _framework density 21.819680000000002
#
# number of rings (size 3 to 8) (size 9 to 14) (size 15 to 20)
#    0.000    2.455    1.818    1.636    0.000    4.364 
#    1.636    0.455    0.000    3.273    0.000    1.273 
#    0.000    0.000    0.000    0.000    0.000    0.000 
#
# Total GULP energy -245579.047071 kJ/mol
# GULP energy per Si atom -5581.341979 kJ/mol
# Density = 2.177002 g / cm^3
# Si number density = 21.819680 Si / 1000 Ang^3
#
#
#
# Elastic Constant Matrix: (Units=GPa)
#
#
# Indices 1 2 3 4 5 6 
#
# 1 138.8021 83.7457 6.9348 0.0000 0.0000 0.0000
# 2 83.7457 154.3782 8.6636 0.0000 0.0000 0.0000
# 3 6.9348 8.6636 82.8539 0.0000 0.0000 0.0000
# 4 0.0000 0.0000 0.0000 19.8462 0.0000 0.0000
# 5 0.0000 0.0000 0.0000 0.0000 13.9306 0.0000
# 6 0.0000 0.0000 0.0000 0.0000 0.0000 39.7249
#
#
#
# Elastic Compliance Matrix: (Units=1/GPa)
#
#
# Indices 1 2 3 4 5 6 
#
# 1 0.010717 -0.005797 -0.000291 0.000000 0.000000 0.000000
# 2 -0.005797 0.009652 -0.000524 0.000000 0.000000 0.000000
# 3 -0.000291 -0.000524 0.012149 0.000000 0.000000 0.000000
# 4 0.000000 0.000000 0.000000 0.050387 0.000000 0.000000
# 5 0.000000 0.000000 0.000000 0.000000 0.071785 0.000000
# 6 0.000000 0.000000 0.000000 0.000000 0.000000 0.025173
#
#
# Mechanical properties :
#
#
# Convention : Reuss Voigt Hill
#
# Bulk Modulus (GPa) = 51.83201 63.85805 57.84503
# Shear Modulus (GPa) = 25.06048 33.14635 29.10342
#
# Velocity S-wave (km/s) = 3.39267 3.90180 3.65611
# Velocity P-wave (km/s) = 6.25725 7.04475 6.66265
#
# Compressibility (1/GPa) = 0.01929310
#
# Stress axis : x y z
#
# Youngs Moduli (GPa) = 93.31179 103.60733 82.31417
#
# Poissons Ratio (x) = 0.60063 0.02394
# Poissons Ratio (y) = 0.54095 0.04313
# Poissons Ratio (z) = 0.02713 0.05429
#
# Static dielectric constant tensor:
#      x y z
#    x 1.789050 0.000000 0.000000 
#    y 0.000000 1.787870 0.000000 
#    z 0.000000 0.000000 1.857730 
# 
# From -- ./inp_files/11830.got.cif
#   From: 2010.05.17/outbox.cif.g08.bks.cpg/sg65_6_cif.got.tgz:11830.got - 2010.06.03 17:01:31.
