data_PCOD9485024
_publ_section_title
;
Structure prediction by ZEFSAII (Michael W. Deem and Ramdas Pophale) SiO2 
 PCOD9485024
Probable space group: C M M M
;
_chemical_formula_sum "Si O2"
_cell_formula_units_Z 80
_cell_length_a 28.401856
_cell_length_b 8.363774
_cell_length_c 19.486451
_cell_angle_alpha 90.000000
_cell_angle_beta 90.000000
_cell_angle_gamma 90.000000
_cell_volume 4628.942223
_symmetry_space_group_name_H-M "C M M M"
_symmetry_group_IT_number 65
_symmetry_cell_setting 'orthorhombic'
loop_
_space_group_symop_operation_xyz
x,y,z
-x,-y,z
x,-y,-z
-x,y,-z
-x,-y,-z
x,y,-z
-x,y,z
x,-y,z
1/2+x,1/2+y,z
1/2-x,1/2-y,z
1/2+x,1/2-y,-z
1/2-x,1/2+y,-z
1/2-x,1/2-y,-z
1/2+x,1/2+y,-z
1/2-x,1/2+y,z
1/2+x,1/2-y,z
loop_
_atom_site_type_symbol
_atom_site_label
_atom_site_fract_x
_atom_site_fract_y
_atom_site_fract_z
Si Si1 0.302155 0.308792 0.345343
Si Si2 0.105042 0.805099 0.576628
Si Si3 0.947039 0.806713 0.286457
Si Si4 0.696785 0.193323 0.077251
Si Si5 0.355685 0.808582 0.211957
O O1 0.302150 0.500000 0.343544
O O2 0.250000 0.250000 0.361169
O O3 0.342389 0.257797 0.399447
O O4 0.319909 0.248002 0.271362
O O5 0.093991 0.748871 0.500000
O O6 0.070140 0.754309 0.637560
O O7 0.103864 0.000000 0.575589
O O8 0.907202 0.751089 0.233669
O O9 0.000000 0.751570 0.272002
O O10 0.946855 0.000000 0.286502
O O11 0.750000 0.250000 0.090911
O O12 0.662703 0.248837 0.138076
O O13 0.696724 0.000000 0.077623
O O14 0.683896 0.246499 0.000000
O O15 0.356008 0.000000 0.211856
#
# Coordination Sequence:
#
# PCOD9485024 Si02
#       5
#    16  16  16  16  16
#     4  10  19  30  45  66  93 124 157 191 226 268
#     4   8  15  28  45  66  91 118 150 188 230 276
#     4   9  18  32  50  71  93 118 150 191 236 278
#     4   9  18  31  47  70  98 125 153 184 220 264
#     4  10  19  31  49  70  93 122 154 190 229 271
#
# _framework density 17.282567
#
# number of rings (size 3 to 8) (size 9 to 14) (size 15 to 20)
#    0.000    2.800    0.000    3.000    0.000    4.400 
#    0.000    2.000    0.000   15.000    0.000    9.800 
#    0.000    0.000    0.000    0.000    0.000    0.000 
#
# Total GULP energy -222972.917956 kJ/mol
# GULP energy per Si atom -5574.322949 kJ/mol
# Density = 1.724323 g / cm^3
# Si number density = 17.282567 Si / 1000 Ang^3
#
#
#
# Elastic Constant Matrix: (Units=GPa)
#
#
# Indices 1 2 3 4 5 6 
#
# 1 87.3085 11.8648 51.0750 0.0000 0.0000 0.0000
# 2 11.8648 15.7735 12.2080 0.0000 0.0000 0.0000
# 3 51.0750 12.2080 130.7490 0.0000 0.0000 0.0000
# 4 0.0000 0.0000 0.0000 16.9971 0.0000 0.0000
# 5 0.0000 0.0000 0.0000 0.0000 18.8042 0.0000
# 6 0.0000 0.0000 0.0000 0.0000 0.0000 24.6062
#
#
#
# Elastic Compliance Matrix: (Units=1/GPa)
#
#
# Indices 1 2 3 4 5 6 
#
# 1 0.015646 -0.007587 -0.005403 0.000000 0.000000 0.000000
# 2 -0.007587 0.072014 -0.003760 0.000000 0.000000 0.000000
# 3 -0.005403 -0.003760 0.010110 0.000000 0.000000 0.000000
# 4 0.000000 0.000000 0.000000 0.058833 0.000000 0.000000
# 5 0.000000 0.000000 0.000000 0.000000 0.053180 0.000000
# 6 0.000000 0.000000 0.000000 0.000000 0.000000 0.040640
#
#
# Mechanical properties :
#
#
# Convention : Reuss Voigt Hill
#
# Bulk Modulus (GPa) = 15.55953 42.68073 29.12013
# Shear Modulus (GPa) = 16.37482 22.66038 19.51760
#
# Velocity S-wave (km/s) = 3.08145 3.62494 3.36419
# Velocity P-wave (km/s) = 4.65650 6.50151 5.65476
#
# Compressibility (1/GPa) = 0.06426931
#
# Stress axis : x y z
#
# Youngs Moduli (GPa) = 63.91598 13.88614 98.91123
#
# Poissons Ratio (x) = 0.10535 0.53445
# Poissons Ratio (y) = 0.48490 0.37194
# Poissons Ratio (z) = 0.34536 0.05222
#
# Static dielectric constant tensor:
#      x y z
#    x 1.515760 0.000000 0.000000 
#    y 0.000000 1.603750 0.000000 
#    z 0.000000 0.000000 1.594980 
# 
# From -- ./inp_files/49855.got.cif
#   From: 2010.05.17/outbox.cif.g08.bks.cpg/sg65_25_cif.got.tgz:49855.got - 2010.06.03 17:01:31.
