data_PCOD9485901
_publ_section_title
;
Structure prediction by ZEFSAII (Michael W. Deem and Ramdas Pophale) SiO2 
 PCOD9485901
Probable space group: C M M M
;
_chemical_formula_sum "Si O2"
_cell_formula_units_Z 80
_cell_length_a 20.213439
_cell_length_b 29.030999
_cell_length_c 7.840549
_cell_angle_alpha 90.000000
_cell_angle_beta 90.000000
_cell_angle_gamma 90.000000
_cell_volume 4600.962169
_symmetry_space_group_name_H-M "C M M M"
_symmetry_group_IT_number 65
_symmetry_cell_setting 'orthorhombic'
loop_
_space_group_symop_operation_xyz
x,y,z
-x,-y,z
x,-y,-z
-x,y,-z
-x,-y,-z
x,y,-z
-x,y,z
x,-y,z
1/2+x,1/2+y,z
1/2-x,1/2-y,z
1/2+x,1/2-y,-z
1/2-x,1/2+y,-z
1/2-x,1/2-y,-z
1/2+x,1/2+y,-z
1/2-x,1/2+y,z
1/2+x,1/2-y,z
loop_
_atom_site_type_symbol
_atom_site_label
_atom_site_fract_x
_atom_site_fract_y
_atom_site_fract_z
Si Si1 0.607494 0.899512 0.197659
Si Si2 0.257786 0.366553 0.187147
Si Si3 0.774273 0.302123 0.500000
Si Si4 0.921074 0.500000 0.195050
Si Si5 0.000000 0.944452 0.194087
Si Si6 0.073044 0.332092 0.500000
Si Si7 0.646272 0.553044 0.300524
O O1 0.684732 0.888263 0.189816
O O2 0.576026 0.863970 0.330408
O O3 0.599717 0.951194 0.268731
O O4 0.581968 0.897536 0.000000
O O5 0.255146 0.329128 0.336574
O O6 0.308513 0.408419 0.215542
O O7 0.269686 0.345852 0.000000
O O8 0.750000 0.250000 0.500000
O O9 0.855405 0.305824 0.500000
O O10 0.000000 0.500000 0.190461
O O11 0.894926 0.500000 0.000000
O O12 0.069413 0.932660 0.280390
O O13 0.000000 0.000000 0.190839
O O14 0.000000 0.927370 0.000000
O O15 0.000000 0.308472 0.500000
O O16 0.662987 0.552036 0.500000
O O17 0.653847 0.500000 0.234709
#
# Coordination Sequence:
#
# PCOD9485901 Si02
#       7
#    16  16   8   8   8   8  16
#     4   9  19  32  47  73 109 143 179 218 252 297
#     4  10  20  35  56  82 107 142 185 220 271 329
#     4  10  22  42  62  80 109 135 172 235 290 335
#     4   9  16  27  43  65 102 148 179 205 247 291
#     4   9  17  29  45  71 105 149 197 230 263 315
#     4  10  20  35  58  82 100 131 176 218 266 323
#     4  10  19  31  50  77 115 154 188 225 266 318
#
# _framework density 17.387667
#
# number of rings (size 3 to 8) (size 9 to 14) (size 15 to 20)
#    0.000    2.400    1.000    1.500    1.400    4.400 
#    0.000    1.000    2.200    0.000    0.000    0.000 
#    0.000    0.000    0.000    0.000    0.000    0.000 
#
# Total GULP energy -222780.893183 kJ/mol
# GULP energy per Si atom -5569.522330 kJ/mol
# Density = 1.734809 g / cm^3
# Si number density = 17.387667 Si / 1000 Ang^3
#
#
#
# Elastic Constant Matrix: (Units=GPa)
#
#
# Indices 1 2 3 4 5 6 
#
# 1 88.9107 42.5438 32.5220 0.0000 0.0000 0.0000
# 2 42.5438 97.5242 44.1677 0.0000 0.0000 0.0000
# 3 32.5220 44.1677 104.2869 0.0000 0.0000 0.0000
# 4 0.0000 0.0000 0.0000 -22.6503 0.0000 0.0000
# 5 0.0000 0.0000 0.0000 0.0000 -6.6857 0.0000
# 6 0.0000 0.0000 0.0000 0.0000 0.0000 9.1205
#
#
#
# Elastic Compliance Matrix: (Units=1/GPa)
#
#
# Indices 1 2 3 4 5 6 
#
# 1 0.014648 -0.005347 -0.002304 0.000000 0.000000 0.000000
# 2 -0.005347 0.014639 -0.004533 0.000000 0.000000 0.000000
# 3 -0.002304 -0.004533 0.012227 0.000000 0.000000 0.000000
# 4 0.000000 0.000000 0.000000 -0.044150 0.000000 0.000000
# 5 0.000000 0.000000 0.000000 0.000000 -0.149572 0.000000
# 6 0.000000 0.000000 0.000000 0.000000 0.000000 0.109643
#
#
# Mechanical properties :
#
#
# Convention : Reuss Voigt Hill
#
# Bulk Modulus (GPa) = 58.31459 58.79873 58.55666
# Shear Modulus (GPa) = -400.56826 7.38946 -196.58940
#
# Velocity S-wave (km/s) = -15.19457 2.06375 -10.64462
# Velocity P-wave (km/s) = 16.55967 6.29035 10.83176
#
# Compressibility (1/GPa) = 0.01714837
#
# Stress axis : x y z
#
# Youngs Moduli (GPa) = 68.26716 68.31011 81.78667
#
# Poissons Ratio (x) = 0.36525 0.18840
# Poissons Ratio (y) = 0.36502 0.37070
# Poissons Ratio (z) = 0.15726 0.30962
#
# Static dielectric constant tensor:
#      x y z
#    x 1.591460 0.000000 0.000000 
#    y 0.000000 0.686350 0.000000 
#    z 0.000000 0.000000 1.647730 
# 
# From -- ./inp_files/11661.got.cif
#   From: 2010.05.17/outbox.cif.g08.bks.cpg/sg65_6_cif.got.tgz:11661.got - 2010.06.03 17:01:31.
