data_PCOD9485398
_publ_section_title
;
Structure prediction by ZEFSAII (Michael W. Deem and Ramdas Pophale) SiO2 
 PCOD9485398
Probable space group: C M M M
;
_chemical_formula_sum "Si O2"
_cell_formula_units_Z 88
_cell_length_a 18.733666
_cell_length_b 31.151064
_cell_length_c 7.784949
_cell_angle_alpha 90.000000
_cell_angle_beta 90.000000
_cell_angle_gamma 90.000000
_cell_volume 4543.090936
_symmetry_space_group_name_H-M "C M M M"
_symmetry_group_IT_number 65
_symmetry_cell_setting 'orthorhombic'
loop_
_space_group_symop_operation_xyz
x,y,z
-x,-y,z
x,-y,-z
-x,y,-z
-x,-y,-z
x,y,-z
-x,y,z
x,-y,z
1/2+x,1/2+y,z
1/2-x,1/2-y,z
1/2+x,1/2-y,-z
1/2-x,1/2+y,-z
1/2-x,1/2-y,-z
1/2+x,1/2+y,-z
1/2-x,1/2+y,z
1/2+x,1/2-y,z
loop_
_atom_site_type_symbol
_atom_site_label
_atom_site_fract_x
_atom_site_fract_y
_atom_site_fract_z
Si Si1 0.917897 0.246968 0.706973
Si Si2 0.155853 0.548931 0.205869
Si Si3 0.215836 0.707051 0.200923
Si Si4 0.000000 0.450771 0.295314
Si Si5 0.581154 0.649371 0.706788
Si Si6 0.770949 0.116618 0.793639
O O1 0.911377 0.247909 0.500000
O O2 0.867431 0.282999 0.783634
O O3 0.899759 0.198127 0.765390
O O4 0.000000 0.253830 0.751368
O O5 0.158416 0.500000 0.274561
O O6 0.076685 0.567757 0.241298
O O7 0.220725 0.578268 0.271568
O O8 0.162488 0.546367 0.000000
O O9 0.250000 0.750000 0.281189
O O10 0.240662 0.661999 0.275629
O O11 0.236201 0.706149 0.000000
O O12 0.000000 0.500000 0.225681
O O13 0.000000 0.452219 0.500000
O O14 0.578758 0.650811 0.500000
O O15 0.500000 0.639672 0.765951
O O16 0.644583 0.617490 0.757208
O O17 0.762999 0.116484 0.000000
#
# Coordination Sequence:
#
# PCOD9485398 Si02
#       6
#    16  16  16   8  16  16
#     4   9  18  32  48  66  91 126 166 200 230 276
#     4   9  18  34  55  75  98 130 165 201 242 288
#     4  10  19  31  46  68  98 127 155 194 241 285
#     4   9  17  31  53  79 103 127 161 203 243 287
#     4   9  18  32  50  72  97 127 164 202 239 284
#     4  10  20  33  50  74  99 125 162 202 242 290
#
# _framework density 19.370073000000001
#
# number of rings (size 3 to 8) (size 9 to 14) (size 15 to 20)
#    0.000    2.636    1.818    1.364    0.000    3.636 
#    1.636    1.818    0.000    0.545    0.000    3.818 
#    0.000    0.000    0.000    0.000    0.000    0.000 
#
# Total GULP energy -245202.584232 kJ/mol
# GULP energy per Si atom -5572.786005 kJ/mol
# Density = 1.932599 g / cm^3
# Si number density = 19.370073 Si / 1000 Ang^3
#
#
#
# Elastic Constant Matrix: (Units=GPa)
#
#
# Indices 1 2 3 4 5 6 
#
# 1 149.4102 67.5407 0.8641 0.0000 0.0000 0.0000
# 2 67.5407 74.6619 9.4459 0.0000 0.0000 0.0000
# 3 0.8641 9.4459 25.3903 0.0000 0.0000 0.0000
# 4 0.0000 0.0000 0.0000 8.0942 0.0000 0.0000
# 5 0.0000 0.0000 0.0000 0.0000 30.9293 0.0000
# 6 0.0000 0.0000 0.0000 0.0000 0.0000 33.3809
#
#
#
# Elastic Compliance Matrix: (Units=1/GPa)
#
#
# Indices 1 2 3 4 5 6 
#
# 1 0.011645 -0.011002 0.003697 0.000000 0.000000 0.000000
# 2 -0.011002 0.024450 -0.008722 0.000000 0.000000 0.000000
# 3 0.003697 -0.008722 0.042504 0.000000 0.000000 0.000000
# 4 0.000000 0.000000 0.000000 0.123545 0.000000 0.000000
# 5 0.000000 0.000000 0.000000 0.000000 0.032332 0.000000
# 6 0.000000 0.000000 0.000000 0.000000 0.000000 0.029957
#
#
# Mechanical properties :
#
#
# Convention : Reuss Voigt Hill
#
# Bulk Modulus (GPa) = 21.48451 45.01818 33.25135
# Shear Modulus (GPa) = 16.02557 25.92166 20.97362
#
# Velocity S-wave (km/s) = 2.87947 3.66215 3.29414
# Velocity P-wave (km/s) = 4.70859 6.41665 5.62780
#
# Compressibility (1/GPa) = 0.04654516
#
# Stress axis : x y z
#
# Youngs Moduli (GPa) = 85.87322 40.90009 23.52716
#
# Poissons Ratio (x) = 0.44999 -0.08697
# Poissons Ratio (y) = 0.94478 0.20519
# Poissons Ratio (z) = -0.31745 0.35671
#
# Static dielectric constant tensor:
#      x y z
#    x 1.731610 0.000000 0.000000 
#    y 0.000000 1.688210 0.000000 
#    z 0.000000 0.000000 1.695700 
# 
# From -- ./inp_files/9998.got.cif
#   From: 2010.05.17/outbox.cif.g08.bks.cpg/sg65_5_cif.got.tgz:9998.got - 2010.06.03 17:01:31.
