data_PCOD9485953
_publ_section_title
;
Structure prediction by ZEFSAII (Michael W. Deem and Ramdas Pophale) SiO2 
 PCOD9485953
Probable space group: C M M M
;
_chemical_formula_sum "Si O2"
_cell_formula_units_Z 120
_cell_length_a 18.496850
_cell_length_b 18.873292
_cell_length_c 19.342937
_cell_angle_alpha 90.000000
_cell_angle_beta 90.000000
_cell_angle_gamma 90.000000
_cell_volume 6752.550661
_symmetry_space_group_name_H-M "C M M M"
_symmetry_group_IT_number 65
_symmetry_cell_setting 'orthorhombic'
loop_
_space_group_symop_operation_xyz
x,y,z
-x,-y,z
x,-y,-z
-x,y,-z
-x,-y,-z
x,y,-z
-x,y,z
x,-y,z
1/2+x,1/2+y,z
1/2-x,1/2-y,z
1/2+x,1/2-y,-z
1/2-x,1/2+y,-z
1/2-x,1/2-y,-z
1/2+x,1/2+y,-z
1/2-x,1/2+y,z
1/2+x,1/2-y,z
loop_
_atom_site_type_symbol
_atom_site_label
_atom_site_fract_x
_atom_site_fract_y
_atom_site_fract_z
Si Si1 0.581150 0.639514 0.802355
Si Si2 0.083125 0.749243 0.923078
Si Si3 0.360684 0.827990 0.582271
Si Si4 0.500000 0.080452 0.416061
Si Si5 0.776374 0.914406 0.635803
Si Si6 0.271896 0.577794 0.202964
Si Si7 0.719583 0.169763 0.923628
Si Si8 0.085965 0.179881 0.355988
O O1 0.500000 0.612984 0.812408
O O2 0.598384 0.694926 0.862984
O O3 0.641356 0.579973 0.802591
O O4 0.584737 0.677131 0.727575
O O5 0.134100 0.681869 0.918598
O O6 0.000000 0.729467 0.917209
O O7 0.094880 0.780969 0.000000
O O8 0.365232 0.816447 0.500000
O O9 0.427247 0.878688 0.604311
O O10 0.285139 0.868176 0.597487
O O11 0.377098 0.752592 0.618121
O O12 0.500000 0.078682 0.500000
O O13 0.500000 0.000000 0.390800
O O14 0.758367 0.902712 0.717280
O O15 0.857263 0.882677 0.622661
O O16 0.773468 0.000000 0.622358
O O17 0.242316 0.500000 0.190821
O O18 0.244579 0.628729 0.143353
O O19 0.750000 0.250000 0.921974
O O20 0.738039 0.139953 0.000000
O O21 0.000000 0.174275 0.377879
#
# Coordination Sequence:
#
# PCOD9485953 Si02
#       8
#    16  16  16   8  16  16  16  16
#     4   9  18  32  52  78 108 141 179 216 264 322
#     4   9  17  30  50  75 102 133 174 222 264 309
#     4  11  22  38  60  86 114 142 183 233 280 337
#     4   9  18  34  58  84 113 147 174 212 273 334
#     4  10  23  39  57  82 113 154 193 229 279 338
#     4  10  21  35  52  76 109 144 179 224 272 320
#     4  10  19  31  51  77 103 138 181 224 270 322
#     4  10  21  37  58  86 115 146 186 234 285 333
#
# _framework density 17.771062000000001
#
# number of rings (size 3 to 8) (size 9 to 14) (size 15 to 20)
#    0.000    2.200    2.000    0.800    1.867    2.667 
#    0.000    2.667    0.000    0.400    0.000    6.533 
#    0.000    0.000    0.000    0.000    0.000    0.000 
#
# Total GULP energy -334037.961524 kJ/mol
# GULP energy per Si atom -5567.299359 kJ/mol
# Density = 1.773061 g / cm^3
# Si number density = 17.771062 Si / 1000 Ang^3
#
#
#
# Elastic Constant Matrix: (Units=GPa)
#
#
# Indices 1 2 3 4 5 6 
#
# 1 94.7087 33.5102 23.6332 0.0000 0.0000 0.0000
# 2 33.5102 80.6167 30.8779 0.0000 0.0000 0.0000
# 3 23.6332 30.8779 44.3259 0.0000 0.0000 0.0000
# 4 0.0000 0.0000 0.0000 14.8832 0.0000 0.0000
# 5 0.0000 0.0000 0.0000 0.0000 26.2385 0.0000
# 6 0.0000 0.0000 0.0000 0.0000 0.0000 21.3754
#
#
#
# Elastic Compliance Matrix: (Units=1/GPa)
#
#
# Indices 1 2 3 4 5 6 
#
# 1 0.012955 -0.003736 -0.004304 0.000000 0.000000 0.000000
# 2 -0.003736 0.017996 -0.010544 0.000000 0.000000 0.000000
# 3 -0.004304 -0.010544 0.032200 0.000000 0.000000 0.000000
# 4 0.000000 0.000000 0.000000 0.067190 0.000000 0.000000
# 5 0.000000 0.000000 0.000000 0.000000 0.038112 0.000000
# 6 0.000000 0.000000 0.000000 0.000000 0.000000 0.046783
#
#
# Mechanical properties :
#
#
# Convention : Reuss Voigt Hill
#
# Bulk Modulus (GPa) = 38.48891 43.96599 41.22745
# Shear Modulus (GPa) = 19.15224 21.27474 20.21349
#
# Velocity S-wave (km/s) = 3.28643 3.46375 3.37625
# Velocity P-wave (km/s) = 6.00883 6.38676 6.20067
#
# Compressibility (1/GPa) = 0.02598151
#
# Stress axis : x y z
#
# Youngs Moduli (GPa) = 77.19161 55.56758 31.05558
#
# Poissons Ratio (x) = 0.20762 0.13367
# Poissons Ratio (y) = 0.28841 0.32746
# Poissons Ratio (z) = 0.33226 0.58592
#
# Static dielectric constant tensor:
#      x y z
#    x 1.661350 0.000000 0.000000 
#    y 0.000000 1.592680 0.000000 
#    z 0.000000 0.000000 1.615520 
# 
# From -- ./inp_files/56092.got.cif
#   From: 2010.05.17/outbox.cif.g08.bks.cpg/sg65_29_cif.got.tgz:56092.got - 2010.06.03 17:01:31.
