data_PCOD9485510
_publ_section_title
;
Structure prediction by ZEFSAII (Michael W. Deem and Ramdas Pophale) SiO2 
 PCOD9485510
Probable space group: C M M M
;
_chemical_formula_sum "Si O2"
_cell_formula_units_Z 104
_cell_length_a 24.444619
_cell_length_b 8.125274
_cell_length_c 29.255409
_cell_angle_alpha 90.000000
_cell_angle_beta 90.000000
_cell_angle_gamma 90.000000
_cell_volume 5810.686727
_symmetry_space_group_name_H-M "C M M M"
_symmetry_group_IT_number 65
_symmetry_cell_setting 'orthorhombic'
loop_
_space_group_symop_operation_xyz
x,y,z
-x,-y,z
x,-y,-z
-x,y,-z
-x,-y,-z
x,y,-z
-x,y,z
x,-y,z
1/2+x,1/2+y,z
1/2-x,1/2-y,z
1/2+x,1/2-y,-z
1/2-x,1/2+y,-z
1/2-x,1/2-y,-z
1/2+x,1/2+y,-z
1/2-x,1/2+y,z
1/2+x,1/2-y,z
loop_
_atom_site_type_symbol
_atom_site_label
_atom_site_fract_x
_atom_site_fract_y
_atom_site_fract_z
Si Si1 0.390706 0.805058 0.596190
Si Si2 0.935601 0.297849 0.500000
Si Si3 0.500000 0.308541 0.643680
Si Si4 0.313409 0.197761 0.851087
Si Si5 0.880069 0.195538 0.763061
Si Si6 0.000000 0.192101 0.753143
Si Si7 0.313736 0.801381 0.950890
Si Si8 0.687402 0.196045 0.673923
O O1 0.404284 0.740414 0.545578
O O2 0.446255 0.777572 0.624457
O O3 0.342146 0.736118 0.628011
O O4 0.381033 0.000000 0.590888
O O5 0.936258 0.500000 0.500000
O O6 0.000000 0.248803 0.500000
O O7 0.500000 0.500000 0.629377
O O8 0.500000 0.304269 0.698205
O O9 0.250000 0.250000 0.847486
O O10 0.346444 0.267930 0.808660
O O11 0.334902 0.254134 0.901262
O O12 0.315865 0.000000 0.849265
O O13 0.848021 0.258410 0.718486
O O14 0.941668 0.265609 0.767431
O O15 0.884879 0.000000 0.756622
O O16 0.000000 0.000000 0.768210
O O17 0.250000 0.750000 0.951016
O O18 0.316419 0.000000 0.950886
O O19 0.337069 0.743335 0.000000
O O20 0.750000 0.250000 0.678595
O O21 0.686890 0.000000 0.670760
#
# Coordination Sequence:
#
# PCOD9485510 Si02
#       8
#    16   8   8  16  16   8  16  16
#     4  10  20  35  55  79 103 132 168 203 243 295
#     4   9  16  30  55  80 104 130 160 202 249 294
#     4  11  19  32  54  79 106 131 159 202 254 296
#     4  10  19  31  47  72 103 135 170 205 246 292
#     4  11  21  36  54  73 100 131 165 202 249 299
#     4   9  20  35  52  74  98 129 160 199 252 298
#     4   8  14  25  42  64  93 128 164 203 245 289
#     4  11  23  37  54  75 100 132 170 205 242 290
#
# _framework density 17.898057000000001
#
# number of rings (size 3 to 8) (size 9 to 14) (size 15 to 20)
#    0.000    2.077    2.308    2.077    0.000    1.231 
#    0.000    2.692    0.000    0.000    0.000    0.538 
#    0.000    4.308    0.000    0.000    0.000    0.000 
#
# Total GULP energy -289798.707051 kJ/mol
# GULP energy per Si atom -5573.052059 kJ/mol
# Density = 1.785732 g / cm^3
# Si number density = 17.898057 Si / 1000 Ang^3
#
#
#
# Elastic Constant Matrix: (Units=GPa)
#
#
# Indices 1 2 3 4 5 6 
#
# 1 118.0425 7.6982 67.7258 0.0000 0.0000 0.0000
# 2 7.6982 19.8732 8.9904 0.0000 0.0000 0.0000
# 3 67.7258 8.9904 140.7715 0.0000 0.0000 0.0000
# 4 0.0000 0.0000 0.0000 4.0469 0.0000 0.0000
# 5 0.0000 0.0000 0.0000 0.0000 17.7315 0.0000
# 6 0.0000 0.0000 0.0000 0.0000 0.0000 2.2995
#
#
#
# Elastic Compliance Matrix: (Units=1/GPa)
#
#
# Indices 1 2 3 4 5 6 
#
# 1 0.011783 -0.002059 -0.005537 0.000000 0.000000 0.000000
# 2 -0.002059 0.052176 -0.002342 0.000000 0.000000 0.000000
# 3 -0.005537 -0.002342 0.009917 0.000000 0.000000 0.000000
# 4 0.000000 0.000000 0.000000 0.247103 0.000000 0.000000
# 5 0.000000 0.000000 0.000000 0.000000 0.056397 0.000000
# 6 0.000000 0.000000 0.000000 0.000000 0.000000 0.434872
#
#
# Mechanical properties :
#
#
# Convention : Reuss Voigt Hill
#
# Bulk Modulus (GPa) = 18.51856 49.72401 34.12128
# Shear Modulus (GPa) = 5.88150 17.76710 11.82430
#
# Velocity S-wave (km/s) = 1.81473 3.15411 2.57309
# Velocity P-wave (km/s) = 3.84189 6.41144 5.28520
#
# Compressibility (1/GPa) = 0.05399987
#
# Stress axis : x y z
#
# Youngs Moduli (GPa) = 84.86977 19.16595 100.83452
#
# Poissons Ratio (x) = 0.03947 0.55834
# Poissons Ratio (y) = 0.17477 0.23610
# Poissons Ratio (z) = 0.46994 0.04488
#
# Static dielectric constant tensor:
#      x y z
#    x 1.575950 0.000000 0.000000 
#    y 0.000000 1.626790 0.000000 
#    z 0.000000 0.000000 1.646880 
# 
# From -- ./inp_files/78400.got.cif
#   From: 2010.05.17/outbox.cif.g08.bks.cpg/sg65_40_cif.got.tgz:78400.got - 2010.06.03 17:01:31.
