data_PCOD9485139
_publ_section_title
;
Structure prediction by ZEFSAII (Michael W. Deem and Ramdas Pophale) SiO2 
 PCOD9485139
Probable space group: C M M M
;
_chemical_formula_sum "Si O2"
_cell_formula_units_Z 104
_cell_length_a 24.532612
_cell_length_b 8.056830
_cell_length_c 29.079887
_cell_angle_alpha 90.000000
_cell_angle_beta 90.000000
_cell_angle_gamma 90.000000
_cell_volume 5747.787518
_symmetry_space_group_name_H-M "C M M M"
_symmetry_group_IT_number 65
_symmetry_cell_setting 'orthorhombic'
loop_
_space_group_symop_operation_xyz
x,y,z
-x,-y,z
x,-y,-z
-x,y,-z
-x,-y,-z
x,y,-z
-x,y,z
x,-y,z
1/2+x,1/2+y,z
1/2-x,1/2-y,z
1/2+x,1/2-y,-z
1/2-x,1/2+y,-z
1/2-x,1/2-y,-z
1/2+x,1/2+y,-z
1/2-x,1/2+y,z
1/2+x,1/2-y,z
loop_
_atom_site_type_symbol
_atom_site_label
_atom_site_fract_x
_atom_site_fract_y
_atom_site_fract_z
Si Si1 0.686297 0.799747 0.950592
Si Si2 0.936324 0.698791 0.500000
Si Si3 0.619505 0.301541 0.238115
Si Si4 0.812791 0.800261 0.326897
Si Si5 0.686677 0.199279 0.850256
Si Si6 0.000000 0.189345 0.244962
Si Si7 0.500000 0.187911 0.343547
Si Si8 0.397362 0.301567 0.598672
O O1 0.750000 0.750000 0.950710
O O2 0.665413 0.742833 0.900684
O O3 0.683064 0.000000 0.950591
O O4 0.663277 0.740518 0.000000
O O5 0.938473 0.500000 0.500000
O O6 0.905012 0.756569 0.545591
O O7 0.000000 0.758679 0.500000
O O8 0.613785 0.500000 0.244941
O O9 0.651623 0.237788 0.283255
O O10 0.653982 0.269925 0.192565
O O11 0.558248 0.232448 0.232489
O O12 0.750000 0.750000 0.323883
O O13 0.842692 0.749285 0.374247
O O14 0.814047 0.000000 0.325098
O O15 0.750000 0.250000 0.846600
O O16 0.683649 0.000000 0.848667
O O17 0.000000 0.190778 0.300357
O O18 0.000000 0.000000 0.227082
O O19 0.552619 0.219185 0.374409
O O20 0.500000 0.000000 0.325990
O O21 0.402459 0.500000 0.603229
#
# Coordination Sequence:
#
# PCOD9485139 Si02
#       8
#    16   8  16  16  16   8   8  16
#     4   8  14  25  41  62  91 128 168 209 254 301
#     4  11  23  37  56  89 117 132 167 221 268 302
#     4  10  20  35  54  76 102 135 171 211 255 306
#     4  10  22  38  57  79 104 137 177 211 247 302
#     4  10  19  30  46  71 103 137 172 212 255 306
#     4  10  20  38  57  75 103 137 172 209 254 310
#     4  12  22  33  55  86 112 135 166 216 265 299
#     4  11  22  39  60  81 108 145 179 207 251 312
#
# _framework density 18.093917999999999
#
# number of rings (size 3 to 8) (size 9 to 14) (size 15 to 20)
#    0.000    1.923    2.308    2.308    0.000    4.615 
#    0.000    0.385    0.000    0.000    0.000    0.538 
#    0.000    4.308    0.000    0.000    0.000    0.000 
#
# Total GULP energy -289914.401973 kJ/mol
# GULP energy per Si atom -5575.276961 kJ/mol
# Density = 1.805273 g / cm^3
# Si number density = 18.093918 Si / 1000 Ang^3
#
#
#
# Elastic Constant Matrix: (Units=GPa)
#
#
# Indices 1 2 3 4 5 6 
#
# 1 123.6844 8.9769 65.0481 0.0000 0.0000 0.0000
# 2 8.9769 29.0377 0.8267 0.0000 0.0000 0.0000
# 3 65.0481 0.8267 142.1984 0.0000 0.0000 0.0000
# 4 0.0000 0.0000 0.0000 10.7773 0.0000 0.0000
# 5 0.0000 0.0000 0.0000 0.0000 52.9065 0.0000
# 6 0.0000 0.0000 0.0000 0.0000 0.0000 16.7577
#
#
#
# Elastic Compliance Matrix: (Units=1/GPa)
#
#
# Indices 1 2 3 4 5 6 
#
# 1 0.010943 -0.003241 -0.004987 0.000000 0.000000 0.000000
# 2 -0.003241 0.035404 0.001277 0.000000 0.000000 0.000000
# 3 -0.004987 0.001277 0.009306 0.000000 0.000000 0.000000
# 4 0.000000 0.000000 0.000000 0.092787 0.000000 0.000000
# 5 0.000000 0.000000 0.000000 0.000000 0.018901 0.000000
# 6 0.000000 0.000000 0.000000 0.000000 0.000000 0.059674
#
#
# Mechanical properties :
#
#
# Convention : Reuss Voigt Hill
#
# Bulk Modulus (GPa) = 23.95183 49.40264 36.67724
# Shear Modulus (GPa) = 19.62051 30.75955 25.19003
#
# Velocity S-wave (km/s) = 3.29655 4.12757 3.73524
# Velocity P-wave (km/s) = 5.26839 7.07662 6.23837
#
# Compressibility (1/GPa) = 0.04175046
#
# Stress axis : x y z
#
# Youngs Moduli (GPa) = 91.38159 28.24568 107.45389
#
# Poissons Ratio (x) = 0.09155 0.53588
# Poissons Ratio (y) = 0.29617 -0.13720
# Poissons Ratio (z) = 0.45572 -0.03606
#
# Static dielectric constant tensor:
#      x y z
#    x 1.602330 0.000000 0.000000 
#    y 0.000000 1.661750 0.000000 
#    z 0.000000 0.000000 1.644920 
# 
# From -- ./inp_files/75544.got.cif
#   From: 2010.05.17/outbox.cif.g08.bks.cpg/sg65_38_cif.got.tgz:75544.got - 2010.06.03 17:01:31.
