data_PCOD9485933
_publ_section_title
;
Structure prediction by ZEFSAII (Michael W. Deem and Ramdas Pophale) SiO2 
 PCOD9485933
Probable space group: C M M M
;
_chemical_formula_sum "Si O2"
_cell_formula_units_Z 88
_cell_length_a 18.921252
_cell_length_b 9.052615
_cell_length_c 29.245825
_cell_angle_alpha 90.000000
_cell_angle_beta 90.000000
_cell_angle_gamma 90.000000
_cell_volume 5009.424061
_symmetry_space_group_name_H-M "C M M M"
_symmetry_group_IT_number 65
_symmetry_cell_setting 'orthorhombic'
loop_
_space_group_symop_operation_xyz
x,y,z
-x,-y,z
x,-y,-z
-x,y,-z
-x,-y,-z
x,y,-z
-x,y,z
x,-y,z
1/2+x,1/2+y,z
1/2-x,1/2-y,z
1/2+x,1/2-y,-z
1/2-x,1/2+y,-z
1/2-x,1/2-y,-z
1/2+x,1/2+y,-z
1/2-x,1/2+y,z
1/2+x,1/2-y,z
loop_
_atom_site_type_symbol
_atom_site_label
_atom_site_fract_x
_atom_site_fract_y
_atom_site_fract_z
Si Si1 0.914145 0.672517 0.949383
Si Si2 0.585002 0.327523 0.143446
Si Si3 0.173565 0.323494 0.221926
Si Si4 0.672866 0.178861 0.500000
Si Si5 0.919206 0.679854 0.588117
Si Si6 0.673717 0.822356 0.673709
O O1 0.895217 0.500000 0.943834
O O2 0.890505 0.765388 0.905770
O O3 0.000000 0.679024 0.949786
O O4 0.890416 0.722390 0.000000
O O5 0.500000 0.311534 0.145480
O O6 0.602312 0.500000 0.147330
O O7 0.620384 0.238611 0.184453
O O8 0.179186 0.500000 0.218151
O O9 0.250000 0.250000 0.214758
O O10 0.151600 0.287208 0.274224
O O11 0.750000 0.250000 0.500000
O O12 0.628571 0.223079 0.455065
O O13 0.679294 0.000000 0.500000
O O14 0.921153 0.500000 0.588002
O O15 0.881747 0.725623 0.635242
O O16 0.000000 0.731378 0.584375
O O17 0.750000 0.750000 0.665386
O O18 0.681208 0.000000 0.670733
#
# Coordination Sequence:
#
# PCOD9485933 Si02
#       6
#    16  16  16   8  16  16
#     4   8  14  26  45  69  97 129 165 204 245 291
#     4  10  20  32  48  73 103 132 164 205 250 296
#     4  10  20  34  52  72  96 129 167 206 250 300
#     4  10  19  31  51  75  99 132 168 204 244 288
#     4   9  17  30  49  74 101 128 163 204 244 288
#     4   9  18  32  51  72  94 124 161 202 244 291
#
# _framework density 17.566889
#
# number of rings (size 3 to 8) (size 9 to 14) (size 15 to 20)
#    0.000    2.727    0.000    2.455    0.000    4.000 
#    0.000    3.636    0.000    3.273    0.000    0.000 
#    0.000    0.000    0.000    0.000    0.000    0.000 
#
# Total GULP energy -245290.426395 kJ/mol
# GULP energy per Si atom -5574.782418 kJ/mol
# Density = 1.752691 g / cm^3
# Si number density = 17.566889 Si / 1000 Ang^3
#
#
#
# Elastic Constant Matrix: (Units=GPa)
#
#
# Indices 1 2 3 4 5 6 
#
# 1 79.8996 36.3895 79.8119 0.0000 0.0000 0.0000
# 2 36.3895 46.7741 58.4547 0.0000 0.0000 0.0000
# 3 79.8119 58.4547 157.4845 0.0000 0.0000 0.0000
# 4 0.0000 0.0000 0.0000 14.6218 0.0000 0.0000
# 5 0.0000 0.0000 0.0000 0.0000 123.2324 0.0000
# 6 0.0000 0.0000 0.0000 0.0000 0.0000 25.3377
#
#
#
# Elastic Compliance Matrix: (Units=1/GPa)
#
#
# Indices 1 2 3 4 5 6 
#
# 1 0.026577 -0.007170 -0.010808 0.000000 0.000000 0.000000
# 2 -0.007170 0.041811 -0.011886 0.000000 0.000000 0.000000
# 3 -0.010808 -0.011886 0.016239 0.000000 0.000000 0.000000
# 4 0.000000 0.000000 0.000000 0.068391 0.000000 0.000000
# 5 0.000000 0.000000 0.000000 0.000000 0.008115 0.000000
# 6 0.000000 0.000000 0.000000 0.000000 0.000000 0.039467
#
#
# Mechanical properties :
#
#
# Convention : Reuss Voigt Hill
#
# Bulk Modulus (GPa) = 40.15990 70.38559 55.27274
# Shear Modulus (GPa) = 18.61320 39.93852 29.27586
#
# Velocity S-wave (km/s) = 3.25862 4.77331 4.08675
# Velocity P-wave (km/s) = 6.08842 8.39842 7.33493
#
# Compressibility (1/GPa) = 0.02490046
#
# Stress axis : x y z
#
# Youngs Moduli (GPa) = 37.62660 23.91701 61.58074
#
# Poissons Ratio (x) = 0.17148 0.66555
# Poissons Ratio (y) = 0.26977 0.73194
# Poissons Ratio (z) = 0.40666 0.28427
#
# Static dielectric constant tensor:
#      x y z
#    x 1.573520 0.000000 0.000000 
#    y 0.000000 1.586080 0.000000 
#    z 0.000000 0.000000 1.607850 
# 
# From -- ./inp_files/77864.got.cif
#   From: 2010.05.17/outbox.cif.g08.bks.cpg/sg65_39_cif.got.tgz:77864.got - 2010.06.03 17:01:31.
