data_PCOD9485013
_publ_section_title
;
Structure prediction by ZEFSAII (Michael W. Deem and Ramdas Pophale) SiO2 
 PCOD9485013
Probable space group: C M M M
;
_chemical_formula_sum "Si O2"
_cell_formula_units_Z 80
_cell_length_a 8.471007
_cell_length_b 23.973370
_cell_length_c 24.638745
_cell_angle_alpha 90.000000
_cell_angle_beta 90.000000
_cell_angle_gamma 90.000000
_cell_volume 5003.601473
_symmetry_space_group_name_H-M "C M M M"
_symmetry_group_IT_number 65
_symmetry_cell_setting 'orthorhombic'
loop_
_space_group_symop_operation_xyz
x,y,z
-x,-y,z
x,-y,-z
-x,y,-z
-x,-y,-z
x,y,-z
-x,y,z
x,-y,z
1/2+x,1/2+y,z
1/2-x,1/2-y,z
1/2+x,1/2-y,-z
1/2-x,1/2+y,-z
1/2-x,1/2-y,-z
1/2+x,1/2+y,-z
1/2-x,1/2+y,z
1/2+x,1/2-y,z
loop_
_atom_site_type_symbol
_atom_site_label
_atom_site_fract_x
_atom_site_fract_y
_atom_site_fract_z
Si Si1 0.811026 0.813679 0.209447
Si Si2 0.688881 0.000000 0.936788
Si Si3 0.190789 0.314009 0.558447
Si Si4 0.308972 0.617071 0.895365
Si Si5 0.189539 0.686094 0.324233
Si Si6 0.190257 0.187385 0.000000
O O1 0.750000 0.750000 0.202874
O O2 0.757230 0.852868 0.160066
O O3 0.756147 0.836834 0.267909
O O4 0.000000 0.810970 0.209058
O O5 0.747823 0.055218 0.906443
O O6 0.500000 0.000000 0.937979
O O7 0.745707 0.000000 0.000000
O O8 0.242167 0.338641 0.500000
O O9 0.250000 0.250000 0.558341
O O10 0.239434 0.338617 0.617040
O O11 0.000000 0.313318 0.558631
O O12 0.500000 0.615489 0.895062
O O13 0.256962 0.654738 0.946344
O O14 0.250000 0.750000 0.325073
O O15 0.000000 0.686007 0.321281
O O16 0.250000 0.250000 0.000000
O O17 0.000000 0.187830 0.000000
#
# Coordination Sequence:
#
# PCOD9485013 Si02
#       6
#    16   8  16  16  16   8
#     4  10  19  30  45  66  90 119 152 184 222 265
#     4  11  23  37  55  77  93 111 142 183 226 265
#     4   8  13  20  30  46  69 100 141 182 216 252
#     4  10  21  36  53  69  90 121 150 179 220 269
#     4   9  15  23  36  53  77 111 145 181 222 259
#     4  10  20  33  50  71  93 118 146 178 217 258
#
# _framework density 15.988484
#
# number of rings (size 3 to 8) (size 9 to 14) (size 15 to 20)
#    0.000    2.500    1.000    3.300    0.000    3.600 
#    0.000    0.000    0.000    0.000    0.000    0.000 
#    0.000    0.000    0.000    0.900    0.000   18.600 
#
# Total GULP energy -222681.877506 kJ/mol
# GULP energy per Si atom -5567.046938 kJ/mol
# Density = 1.595209 g / cm^3
# Si number density = 15.988484 Si / 1000 Ang^3
#
#
#
# Elastic Constant Matrix: (Units=GPa)
#
#
# Indices 1 2 3 4 5 6 
#
# 1 22.0988 12.4030 28.8508 0.0000 0.0000 0.0000
# 2 12.4030 77.8918 61.5268 0.0000 0.0000 0.0000
# 3 28.8508 61.5268 206.0547 0.0000 0.0000 0.0000
# 4 0.0000 0.0000 0.0000 1.4666 0.0000 0.0000
# 5 0.0000 0.0000 0.0000 0.0000 -0.8947 0.0000
# 6 0.0000 0.0000 0.0000 0.0000 0.0000 18.2217
#
#
#
# Elastic Compliance Matrix: (Units=1/GPa)
#
#
# Indices 1 2 3 4 5 6 
#
# 1 0.056123 -0.003572 -0.006791 0.000000 0.000000 0.000000
# 2 -0.003572 0.017028 -0.004584 0.000000 0.000000 0.000000
# 3 -0.006791 -0.004584 0.007173 0.000000 0.000000 0.000000
# 4 0.000000 0.000000 0.000000 0.681831 0.000000 0.000000
# 5 0.000000 0.000000 0.000000 0.000000 -1.117672 0.000000
# 6 0.000000 0.000000 0.000000 0.000000 0.000000 0.054880
#
#
# Mechanical properties :
#
#
# Convention : Reuss Voigt Hill
#
# Bulk Modulus (GPa) = 19.83025 56.84516 38.33771
# Shear Modulus (GPa) = -19.69024 17.30970 -1.19027
#
# Velocity S-wave (km/s) = -3.51312 3.29391 -0.86375
# Velocity P-wave (km/s) = 2.00655 7.07796 4.79954
#
# Compressibility (1/GPa) = 0.05042801
#
# Stress axis : x y z
#
# Youngs Moduli (GPa) = 17.81813 58.72548 139.41419
#
# Poissons Ratio (x) = 0.20977 0.94682
# Poissons Ratio (y) = 0.06365 0.63914
# Poissons Ratio (z) = 0.12101 0.26922
#
# Static dielectric constant tensor:
#      x y z
#    x 1.553270 0.000000 0.000000 
#    y 0.000000 1.482410 0.000000 
#    z 0.000000 0.000000 1.617330 
# 
# From -- ./inp_files/73015.got.cif
#   From: 2010.05.17/outbox.cif.g08.bks.cpg/sg65_37_cif.got.tgz:73015.got - 2010.06.03 17:01:31.
