data_PCOD9485608
_publ_section_title
;
Structure prediction by ZEFSAII (Michael W. Deem and Ramdas Pophale) SiO2 
 PCOD9485608
Probable space group: C M M M
;
_chemical_formula_sum "Si O2"
_cell_formula_units_Z 50
_cell_length_a 7.347531
_cell_length_b 19.060421
_cell_length_c 15.947777
_cell_angle_alpha 90.000000
_cell_angle_beta 90.000000
_cell_angle_gamma 90.000000
_cell_volume 2233.438870
_symmetry_space_group_name_H-M "C M M M"
_symmetry_group_IT_number 65
_symmetry_cell_setting 'orthorhombic'
loop_
_space_group_symop_operation_xyz
x,y,z
-x,-y,z
x,-y,-z
-x,y,-z
-x,-y,-z
x,y,-z
-x,y,z
x,-y,z
1/2+x,1/2+y,z
1/2-x,1/2-y,z
1/2+x,1/2-y,-z
1/2-x,1/2+y,-z
1/2-x,1/2-y,-z
1/2+x,1/2+y,-z
1/2-x,1/2+y,z
1/2+x,1/2-y,z
loop_
_atom_site_type_symbol
_atom_site_label
_atom_site_fract_x
_atom_site_fract_y
_atom_site_fract_z
Si Si1 0.717062 0.667082 0.000000
Si Si2 0.222719 0.919218 0.161724
Si Si3 0.798048 0.854878 0.500000
Si Si4 0.717185 0.671130 0.682960
Si Si5 0.000000 0.000000 0.500000
O O1 0.750000 0.750000 0.000000
O O2 0.783858 0.628137 0.083623
O O3 0.500000 0.657789 0.000000
O O4 0.283674 0.884402 0.248857
O O5 0.000000 0.918436 0.162216
O O6 0.277827 0.000000 0.153219
O O7 0.709670 0.836055 0.588534
O O8 0.000000 0.818750 0.500000
O O9 0.845092 0.937399 0.500000
O O10 0.500000 0.659099 0.676207
O O11 0.750000 0.750000 0.713844
#
# Coordination Sequence:
#
# PCOD9485608 Si02
#       5
#     8  16   8  16   2
#     4  10  19  33  51  73  97 124 154 194 240 284
#     4   9  18  30  50  73  95 121 161 202 235 271
#     4   8  17  27  47  71  97 117 156 200 239 264
#     4  10  19  31  48  72  98 127 158 195 239 282
#     4   8  16  28  48  76  94 114 166 208 238 264
#
# _framework density 22.387001000000001
#
# number of rings (size 3 to 8) (size 9 to 14) (size 15 to 20)
#    0.480    2.240    0.000    1.920    2.240    1.920 
#    0.000    0.000    0.000    4.800    0.000    1.120 
#    0.000    0.000    0.000    0.000    0.000    0.000 
#
# Total GULP energy -139280.307079 kJ/mol
# GULP energy per Si atom -5571.212283 kJ/mol
# Density = 2.233605 g / cm^3
# Si number density = 22.387001 Si / 1000 Ang^3
#
#
#
# Elastic Constant Matrix: (Units=GPa)
#
#
# Indices 1 2 3 4 5 6 
#
# 1 82.4220 -5.3966 14.8282 0.0000 0.0000 0.0000
# 2 -5.3966 196.6077 99.0107 0.0000 0.0000 0.0000
# 3 14.8282 99.0107 201.4889 0.0000 0.0000 0.0000
# 4 0.0000 0.0000 0.0000 -58.0270 0.0000 0.0000
# 5 0.0000 0.0000 0.0000 0.0000 21.1646 0.0000
# 6 0.0000 0.0000 0.0000 0.0000 0.0000 17.7829
#
#
#
# Elastic Compliance Matrix: (Units=1/GPa)
#
#
# Indices 1 2 3 4 5 6 
#
# 1 0.012462 0.001068 -0.001442 0.000000 0.000000 0.000000
# 2 0.001068 0.006850 -0.003445 0.000000 0.000000 0.000000
# 3 -0.001442 -0.003445 0.006762 0.000000 0.000000 0.000000
# 4 0.000000 0.000000 0.000000 -0.017233 0.000000 0.000000
# 5 0.000000 0.000000 0.000000 0.000000 0.047249 0.000000
# 6 0.000000 0.000000 0.000000 0.000000 0.000000 0.056234
#
#
# Mechanical properties :
#
#
# Convention : Reuss Voigt Hill
#
# Bulk Modulus (GPa) = 54.23839 77.48924 65.86381
# Shear Modulus (GPa) = 39.64900 20.98918 30.31909
#
# Velocity S-wave (km/s) = 4.21298 3.06528 3.68410
# Velocity P-wave (km/s) = 6.92429 6.87143 6.89791
#
# Compressibility (1/GPa) = 0.01843713
#
# Stress axis : x y z
#
# Youngs Moduli (GPa) = 80.24354 145.97636 147.88565
#
# Poissons Ratio (x) = -0.15594 0.21326
# Poissons Ratio (y) = -0.08572 0.50945
# Poissons Ratio (z) = 0.11572 0.50287
#
# Static dielectric constant tensor:
#      x y z
#    x 1.843530 0.000000 0.000000 
#    y 0.000000 1.755760 0.000000 
#    z 0.000000 0.000000 1.833080 
# 
# From -- ./inp_files/35328.got.cif
#   From: 2010.05.17/outbox.cif.g08.bks.cpg/sg65_18_cif.got.tgz:35328.got - 2010.06.03 17:01:31.
