data_PCOD9485253
_publ_section_title
;
Structure prediction by ZEFSAII (Michael W. Deem and Ramdas Pophale) SiO2 
 PCOD9485253
Probable space group: C M M M
;
_chemical_formula_sum "Si O2"
_cell_formula_units_Z 80
_cell_length_a 27.122413
_cell_length_b 15.332525
_cell_length_c 9.400453
_cell_angle_alpha 90.000000
_cell_angle_beta 90.000000
_cell_angle_gamma 90.000000
_cell_volume 3909.226091
_symmetry_space_group_name_H-M "C M M M"
_symmetry_group_IT_number 65
_symmetry_cell_setting 'orthorhombic'
loop_
_space_group_symop_operation_xyz
x,y,z
-x,-y,z
x,-y,-z
-x,y,-z
-x,-y,-z
x,y,-z
-x,y,z
x,-y,z
1/2+x,1/2+y,z
1/2-x,1/2-y,z
1/2+x,1/2-y,-z
1/2-x,1/2+y,-z
1/2-x,1/2-y,-z
1/2+x,1/2+y,-z
1/2-x,1/2+y,z
1/2+x,1/2-y,z
loop_
_atom_site_type_symbol
_atom_site_label
_atom_site_fract_x
_atom_site_fract_y
_atom_site_fract_z
Si Si1 0.944450 0.605378 0.835601
Si Si2 0.158824 0.855427 0.338010
Si Si3 0.347696 0.852068 0.660577
Si Si4 0.052562 0.895294 0.665421
Si Si5 0.253085 0.143022 0.836708
O O1 0.944127 0.500000 0.834190
O O2 0.900356 0.635522 0.735259
O O3 0.000000 0.633188 0.792995
O O4 0.936187 0.632787 0.000000
O O5 0.160073 0.891038 0.500000
O O6 0.162327 0.751220 0.349111
O O7 0.105094 0.871613 0.270409
O O8 0.204584 0.887743 0.246608
O O9 0.347703 0.887534 0.500000
O O10 0.302628 0.885998 0.756099
O O11 0.053944 0.864716 0.500000
O O12 0.000000 0.864879 0.727610
O O13 0.051165 0.000000 0.662331
O O14 0.250000 0.250000 0.836788
O O15 0.253665 0.115203 0.000000
#
# Coordination Sequence:
#
# PCOD9485253 Si02
#       5
#    16  16  16  16  16
#     4   9  19  36  54  70  93 127 162 195 235 285
#     4   9  17  29  47  72  99 124 156 201 244 279
#     4  10  19  30  48  74 100 124 154 196 243 288
#     4   8  14  26  45  68  94 125 158 190 228 275
#     4   9  17  30  48  68  93 127 163 196 235 285
#
# _framework density 20.464410000000001
#
# number of rings (size 3 to 8) (size 9 to 14) (size 15 to 20)
#    0.000    3.000    0.000    2.400    0.000    4.800 
#    0.000    4.000    0.000    4.800    0.000    1.400 
#    0.000    0.000    0.000    0.000    0.000    0.000 
#
# Total GULP energy -222939.538270 kJ/mol
# GULP energy per Si atom -5573.488457 kJ/mol
# Density = 2.041783 g / cm^3
# Si number density = 20.464410 Si / 1000 Ang^3
#
#
#
# Elastic Constant Matrix: (Units=GPa)
#
#
# Indices 1 2 3 4 5 6 
#
# 1 228.8982 0.0606 116.3006 0.0000 0.0000 0.0000
# 2 0.0606 24.6597 5.4545 0.0000 0.0000 0.0000
# 3 116.3006 5.4545 130.7533 0.0000 0.0000 0.0000
# 4 0.0000 0.0000 0.0000 -5.0314 0.0000 0.0000
# 5 0.0000 0.0000 0.0000 0.0000 31.3329 0.0000
# 6 0.0000 0.0000 0.0000 0.0000 0.0000 37.5025
#
#
#
# Elastic Compliance Matrix: (Units=1/GPa)
#
#
# Indices 1 2 3 4 5 6 
#
# 1 0.008031 0.001575 -0.007209 0.000000 0.000000 0.000000
# 2 0.001575 0.041238 -0.003121 0.000000 0.000000 0.000000
# 3 -0.007209 -0.003121 0.014191 0.000000 0.000000 0.000000
# 4 0.000000 0.000000 0.000000 -0.198751 0.000000 0.000000
# 5 0.000000 0.000000 0.000000 0.000000 0.031915 0.000000
# 6 0.000000 0.000000 0.000000 0.000000 0.000000 0.026665
#
#
# Mechanical properties :
#
#
# Convention : Reuss Voigt Hill
#
# Bulk Modulus (GPa) = 21.76311 69.77139 45.76725
# Shear Modulus (GPa) = -113.93776 30.26051 -41.83862
#
# Velocity S-wave (km/s) = -7.46973 3.84955 -4.52647
# Velocity P-wave (km/s) = 7.98362 7.34348 2.21489
#
# Compressibility (1/GPa) = 0.04594932
#
# Stress axis : x y z
#
# Youngs Moduli (GPa) = 124.51332 24.24925 70.46938
#
# Poissons Ratio (x) = -0.03819 0.50803
# Poissons Ratio (y) = -0.19609 0.21994
# Poissons Ratio (z) = 0.89765 0.07568
#
# Static dielectric constant tensor:
#      x y z
#    x 1.748400 0.000000 0.000000 
#    y 0.000000 1.756240 0.000000 
#    z 0.000000 0.000000 1.716570 
# 
# From -- ./inp_files/9637.got.cif
#   From: 2010.05.17/outbox.cif.g08.bks.cpg/sg65_5_cif.got.tgz:9637.got - 2010.06.03 17:01:31.
