data_PCOD9485401
_publ_section_title
;
Structure prediction by ZEFSAII (Michael W. Deem and Ramdas Pophale) SiO2 
 PCOD9485401
Probable space group: C M M M
;
_chemical_formula_sum "Si O2"
_cell_formula_units_Z 88
_cell_length_a 19.847949
_cell_length_b 31.086432
_cell_length_c 7.684482
_cell_angle_alpha 90.000000
_cell_angle_beta 90.000000
_cell_angle_gamma 90.000000
_cell_volume 4741.340125
_symmetry_space_group_name_H-M "C M M M"
_symmetry_group_IT_number 65
_symmetry_cell_setting 'orthorhombic'
loop_
_space_group_symop_operation_xyz
x,y,z
-x,-y,z
x,-y,-z
-x,y,-z
-x,-y,-z
x,y,-z
-x,y,z
x,-y,z
1/2+x,1/2+y,z
1/2-x,1/2-y,z
1/2+x,1/2-y,-z
1/2-x,1/2+y,-z
1/2-x,1/2-y,-z
1/2+x,1/2+y,-z
1/2-x,1/2+y,z
1/2+x,1/2-y,z
loop_
_atom_site_type_symbol
_atom_site_label
_atom_site_fract_x
_atom_site_fract_y
_atom_site_fract_z
Si Si1 0.923879 0.756993 0.710032
Si Si2 0.423601 0.552230 0.500000
Si Si3 0.681307 0.449026 0.206423
Si Si4 0.286034 0.878907 0.791983
Si Si5 0.924743 0.341138 0.708713
Si Si6 0.284769 0.706914 0.206462
O O1 0.923553 0.756713 0.500000
O O2 0.909212 0.707774 0.770276
O O3 0.864445 0.787973 0.768877
O O4 0.000000 0.767813 0.766430
O O5 0.426955 0.500000 0.500000
O O6 0.500000 0.568731 0.500000
O O7 0.381100 0.564203 0.328493
O O8 0.692756 0.500000 0.229741
O O9 0.746162 0.421395 0.263283
O O10 0.667929 0.441871 0.000000
O O11 0.364575 0.873057 0.752926
O O12 0.247584 0.836580 0.721126
O O13 0.280238 0.878447 0.000000
O O14 0.927689 0.338781 0.500000
O O15 0.000000 0.352551 0.771318
O O16 0.250000 0.750000 0.280445
O O17 0.271223 0.706562 0.000000
#
# Coordination Sequence:
#
# PCOD9485401 Si02
#       6
#    16   8  16  16  16  16
#     4   9  18  32  47  66  95 130 168 206 246 297
#     4   9  18  34  58  86 108 133 177 219 259 319
#     4   9  19  36  56  80 110 140 173 218 265 306
#     4  10  20  33  51  75  99 130 171 209 253 310
#     4   9  18  31  48  72 100 131 169 211 252 297
#     4  10  19  31  46  69  98 126 162 206 248 298
#
# _framework density 18.560154000000001
#
# number of rings (size 3 to 8) (size 9 to 14) (size 15 to 20)
#    0.000    2.636    1.818    1.091    1.273    2.182 
#    0.000    4.545    0.000    3.818    0.000    3.818 
#    0.000    0.000    0.000    0.000    0.000    0.000 
#
# Total GULP energy -245281.015088 kJ/mol
# GULP energy per Si atom -5574.568525 kJ/mol
# Density = 1.851791 g / cm^3
# Si number density = 18.560154 Si / 1000 Ang^3
#
#
#
# Elastic Constant Matrix: (Units=GPa)
#
#
# Indices 1 2 3 4 5 6 
#
# 1 152.6741 58.9157 18.9618 0.0000 0.0000 0.0000
# 2 58.9157 54.8373 27.4969 0.0000 0.0000 0.0000
# 3 18.9618 27.4969 41.7581 0.0000 0.0000 0.0000
# 4 0.0000 0.0000 0.0000 7.7444 0.0000 0.0000
# 5 0.0000 0.0000 0.0000 0.0000 28.1496 0.0000
# 6 0.0000 0.0000 0.0000 0.0000 0.0000 27.6805
#
#
#
# Elastic Compliance Matrix: (Units=1/GPa)
#
#
# Indices 1 2 3 4 5 6 
#
# 1 0.011713 -0.014806 0.004431 0.000000 0.000000 0.000000
# 2 -0.014806 0.045940 -0.023528 0.000000 0.000000 0.000000
# 3 0.004431 -0.023528 0.037428 0.000000 0.000000 0.000000
# 4 0.000000 0.000000 0.000000 0.129125 0.000000 0.000000
# 5 0.000000 0.000000 0.000000 0.000000 0.035524 0.000000
# 6 0.000000 0.000000 0.000000 0.000000 0.000000 0.036127
#
#
# Mechanical properties :
#
#
# Convention : Reuss Voigt Hill
#
# Bulk Modulus (GPa) = 36.66274 51.11315 43.88795
# Shear Modulus (GPa) = 13.41364 22.30791 17.86078
#
# Velocity S-wave (km/s) = 2.69125 3.47064 3.10549
# Velocity P-wave (km/s) = 5.42710 6.60753 6.04619
#
# Compressibility (1/GPa) = 0.02727564
#
# Stress axis : x y z
#
# Youngs Moduli (GPa) = 85.37446 21.76741 26.71795
#
# Poissons Ratio (x) = 0.32229 -0.11838
# Poissons Ratio (y) = 1.26405 0.62861
# Poissons Ratio (z) = -0.37826 0.51213
#
# Static dielectric constant tensor:
#      x y z
#    x 1.654600 0.000000 0.000000 
#    y 0.000000 1.638410 0.000000 
#    z 0.000000 0.000000 1.674050 
# 
# From -- ./inp_files/9997.got.cif
#   From: 2010.05.17/outbox.cif.g08.bks.cpg/sg65_5_cif.got.tgz:9997.got - 2010.06.03 17:01:31.
