data_PCOD9485250
_publ_section_title
;
Structure prediction by ZEFSAII (Michael W. Deem and Ramdas Pophale) SiO2 
 PCOD9485250
Probable space group: C M M M
;
_chemical_formula_sum "Si O2"
_cell_formula_units_Z 104
_cell_length_a 19.059870
_cell_length_b 8.572246
_cell_length_c 35.212223
_cell_angle_alpha 90.000000
_cell_angle_beta 90.000000
_cell_angle_gamma 90.000000
_cell_volume 5753.180548
_symmetry_space_group_name_H-M "C M M M"
_symmetry_group_IT_number 65
_symmetry_cell_setting 'orthorhombic'
loop_
_space_group_symop_operation_xyz
x,y,z
-x,-y,z
x,-y,-z
-x,y,-z
-x,-y,-z
x,y,-z
-x,y,z
x,-y,z
1/2+x,1/2+y,z
1/2-x,1/2-y,z
1/2+x,1/2-y,-z
1/2-x,1/2+y,-z
1/2-x,1/2-y,-z
1/2+x,1/2+y,-z
1/2-x,1/2+y,z
1/2+x,1/2-y,z
loop_
_atom_site_type_symbol
_atom_site_label
_atom_site_fract_x
_atom_site_fract_y
_atom_site_fract_z
Si Si1 0.918406 0.688053 0.806954
Si Si2 0.329998 0.686966 0.958665
Si Si3 0.170723 0.686991 0.879804
Si Si4 0.414638 0.180466 0.500000
Si Si5 0.171347 0.686999 0.344765
Si Si6 0.081630 0.186567 0.274976
Si Si7 0.418685 0.190897 0.417164
O O1 0.914442 0.500000 0.804265
O O2 0.873154 0.738152 0.843121
O O3 0.895029 0.758836 0.766844
O O4 0.000000 0.731110 0.812456
O O5 0.328201 0.500000 0.956164
O O6 0.250000 0.750000 0.959213
O O7 0.361019 0.754228 0.919820
O O8 0.361269 0.729989 0.000000
O O9 0.172851 0.500000 0.880781
O O10 0.250000 0.750000 0.876804
O O11 0.500000 0.178411 0.500000
O O12 0.394814 0.248259 0.458973
O O13 0.391022 0.000000 0.500000
O O14 0.172729 0.500000 0.345106
O O15 0.250000 0.750000 0.344240
O O16 0.128791 0.742730 0.307981
O O17 0.130098 0.740879 0.382612
O O18 0.000000 0.236500 0.279656
O O19 0.084190 0.000000 0.276937
O O20 0.500000 0.236548 0.410900
O O21 0.418255 0.000000 0.418487
#
# Coordination Sequence:
#
# PCOD9485250 Si02
#       7
#    16  16  16   8  16  16  16
#     4   9  19  36  55  74  98 130 166 201 241 292
#     4   9  16  26  42  65  94 127 162 200 240 283
#     4  10  19  30  48  73  99 127 159 199 244 289
#     4   7  10  20  41  70  99 123 158 209 252 289
#     4  11  22  35  51  73 104 138 171 208 252 300
#     4  10  21  37  57  79 100 126 164 207 251 301
#     4   8  14  26  47  73  98 128 167 209 252 297
#
# _framework density 18.076958000000001
#
# number of rings (size 3 to 8) (size 9 to 14) (size 15 to 20)
#    0.000    2.692    0.000    4.154    0.000    4.308 
#    0.000    1.923    0.000    0.462    0.000    4.846 
#    0.000    8.615    0.000    0.000    0.000    0.000 
#
# Total GULP energy -289816.666863 kJ/mol
# GULP energy per Si atom -5573.397440 kJ/mol
# Density = 1.803581 g / cm^3
# Si number density = 18.076958 Si / 1000 Ang^3
#
#
#
# Elastic Constant Matrix: (Units=GPa)
#
#
# Indices 1 2 3 4 5 6 
#
# 1 65.7891 20.9657 89.4127 0.0000 0.0000 0.0000
# 2 20.9657 31.4049 43.6860 0.0000 0.0000 0.0000
# 3 89.4127 43.6860 229.1970 0.0000 0.0000 0.0000
# 4 0.0000 0.0000 0.0000 9.2026 0.0000 0.0000
# 5 0.0000 0.0000 0.0000 0.0000 27.4379 0.0000
# 6 0.0000 0.0000 0.0000 0.0000 0.0000 14.0705
#
#
#
# Elastic Compliance Matrix: (Units=1/GPa)
#
#
# Indices 1 2 3 4 5 6 
#
# 1 0.033068 -0.005621 -0.011829 0.000000 0.000000 0.000000
# 2 -0.005621 0.044287 -0.006248 0.000000 0.000000 0.000000
# 3 -0.011829 -0.006248 0.010169 0.000000 0.000000 0.000000
# 4 0.000000 0.000000 0.000000 0.108665 0.000000 0.000000
# 5 0.000000 0.000000 0.000000 0.000000 0.036446 0.000000
# 6 0.000000 0.000000 0.000000 0.000000 0.000000 0.071071
#
#
# Mechanical properties :
#
#
# Convention : Reuss Voigt Hill
#
# Bulk Modulus (GPa) = 24.92141 70.50220 47.71181
# Shear Modulus (GPa) = 13.71831 21.63063 17.67447
#
# Velocity S-wave (km/s) = 2.75777 3.46292 3.13027
# Velocity P-wave (km/s) = 4.89455 7.42125 6.28616
#
# Compressibility (1/GPa) = 0.04012614
#
# Stress axis : x y z
#
# Youngs Moduli (GPa) = 30.24108 22.58021 98.34281
#
# Poissons Ratio (x) = 0.12693 1.16326
# Poissons Ratio (y) = 0.17000 0.61447
# Poissons Ratio (z) = 0.35771 0.14109
#
# Static dielectric constant tensor:
#      x y z
#    x 1.596590 0.000000 0.000000 
#    y 0.000000 1.643020 0.000000 
#    z 0.000000 0.000000 1.654980 
# 
# From -- ./inp_files/78173.got.cif
#   From: 2010.05.17/outbox.cif.g08.bks.cpg/sg65_40_cif.got.tgz:78173.got - 2010.06.03 17:01:31.
