data_PCOD9485293
_publ_section_title
;
Structure prediction by ZEFSAII (Michael W. Deem and Ramdas Pophale) SiO2 
 PCOD9485293
Probable space group: C M M M
;
_chemical_formula_sum "Si O2"
_cell_formula_units_Z 116
_cell_length_a 24.654146
_cell_length_b 30.186766
_cell_length_c 7.408834
_cell_angle_alpha 90.000000
_cell_angle_beta 90.000000
_cell_angle_gamma 90.000000
_cell_volume 5513.868647
_symmetry_space_group_name_H-M "C M M M"
_symmetry_group_IT_number 65
_symmetry_cell_setting 'orthorhombic'
loop_
_space_group_symop_operation_xyz
x,y,z
-x,-y,z
x,-y,-z
-x,y,-z
-x,-y,-z
x,y,-z
-x,y,z
x,-y,z
1/2+x,1/2+y,z
1/2-x,1/2-y,z
1/2+x,1/2-y,-z
1/2-x,1/2+y,-z
1/2-x,1/2-y,-z
1/2+x,1/2+y,-z
1/2-x,1/2+y,z
1/2+x,1/2-y,z
loop_
_atom_site_type_symbol
_atom_site_label
_atom_site_fract_x
_atom_site_fract_y
_atom_site_fract_z
Si Si1 0.418767 0.185760 0.789617
Si Si2 0.777290 0.548916 0.288372
Si Si3 0.500000 0.151705 0.500000
Si Si4 0.713636 0.292205 0.717855
Si Si5 0.059983 0.881237 0.220591
Si Si6 0.911675 0.784922 0.206348
Si Si7 0.849360 0.050031 0.217989
Si Si8 0.694914 0.857141 0.281024
O O1 0.453001 0.155016 0.658609
O O2 0.426088 0.236496 0.719849
O O3 0.355714 0.172173 0.779065
O O4 0.434617 0.183574 0.000000
O O5 0.790885 0.546735 0.500000
O O6 0.787888 0.500000 0.210188
O O7 0.712667 0.557282 0.275445
O O8 0.807006 0.592292 0.215309
O O9 0.708597 0.292139 0.500000
O O10 0.750000 0.250000 0.768415
O O11 0.653431 0.289211 0.791904
O O12 0.748330 0.334792 0.774204
O O13 0.066644 0.830693 0.286096
O O14 0.108467 0.913010 0.281954
O O15 0.000000 0.897773 0.268254
O O16 0.063017 0.880029 0.000000
O O17 0.930946 0.783762 0.000000
O O18 0.864741 0.000000 0.274330
O O19 0.849651 0.050864 0.000000
O O20 0.694519 0.856836 0.500000
#
# Coordination Sequence:
#
# PCOD9485293 Si02
#       8
#    16  16   4  16  16  16  16  16
#     4  11  24  40  62  88 112 154 200 235 289 346
#     4   9  18  32  54  82 114 151 183 218 280 351
#     4  12  26  44  64  80 121 154 191 248 282 328
#     4  10  19  30  50  74 108 149 183 222 285 347
#     4   9  18  32  48  68 100 141 187 246 297 334
#     4  10  21  34  50  75 107 143 192 240 288 349
#     4   9  17  30  50  76 104 139 187 239 292 345
#     4  10  19  35  55  82 118 152 188 237 286 342
#
# _framework density 21.037859000000001
#
# number of rings (size 3 to 8) (size 9 to 14) (size 15 to 20)
#    0.000    2.207    2.069    1.034    1.931    1.655 
#    0.000    1.379    0.000    1.241    0.000    2.897 
#    0.000    1.103    0.000    0.000    0.000    0.000 
#
# Total GULP energy -323410.467035 kJ/mol
# GULP energy per Si atom -5576.042535 kJ/mol
# Density = 2.098998 g / cm^3
# Si number density = 21.037859 Si / 1000 Ang^3
#
#
#
# Elastic Constant Matrix: (Units=GPa)
#
#
# Indices 1 2 3 4 5 6 
#
# 1 44.2855 -2.6841 -2.5826 0.0000 0.0000 0.0000
# 2 -2.6841 100.8771 3.9342 0.0000 0.0000 0.0000
# 3 -2.5826 3.9342 89.1650 0.0000 0.0000 0.0000
# 4 0.0000 0.0000 0.0000 0.8415 0.0000 0.0000
# 5 0.0000 0.0000 0.0000 0.0000 0.1668 0.0000
# 6 0.0000 0.0000 0.0000 0.0000 0.0000 -75.0889
#
#
#
# Elastic Compliance Matrix: (Units=1/GPa)
#
#
# Indices 1 2 3 4 5 6 
#
# 1 0.022653 0.000578 0.000631 0.000000 0.000000 0.000000
# 2 0.000578 0.009945 -0.000422 0.000000 0.000000 0.000000
# 3 0.000631 -0.000422 0.011252 0.000000 0.000000 0.000000
# 4 0.000000 0.000000 0.000000 1.188344 0.000000 0.000000
# 5 0.000000 0.000000 0.000000 0.000000 5.994716 0.000000
# 6 0.000000 0.000000 0.000000 0.000000 0.000000 -0.013318
#
#
# Mechanical properties :
#
#
# Convention : Reuss Voigt Hill
#
# Bulk Modulus (GPa) = 22.01533 25.74029 23.87781
# Shear Modulus (GPa) = 0.69183 0.89455 0.79319
#
# Velocity S-wave (km/s) = 0.57408 0.65279 0.61469
# Velocity P-wave (km/s) = 3.30557 3.58189 3.44650
#
# Compressibility (1/GPa) = 0.04542290
#
# Stress axis : x y z
#
# Youngs Moduli (GPa) = 44.14511 100.55408 88.87270
#
# Poissons Ratio (x) = -0.05813 -0.05604
# Poissons Ratio (y) = -0.02552 0.03751
# Poissons Ratio (z) = -0.02784 0.04244
#
# Static dielectric constant tensor:
#      x y z
#    x 1.722900 0.000000 0.000000 
#    y 0.000000 1.784760 0.000000 
#    z 0.000000 0.000000 1.781050 
# 
# From -- ./inp_files/15145.got.cif
#   From: 2010.05.17/outbox.cif.g08.bks.cpg/sg65_8_cif.got.tgz:15145.got - 2010.06.03 17:01:31.
