data_PCOD9485461
_publ_section_title
;
Structure prediction by ZEFSAII (Michael W. Deem and Ramdas Pophale) SiO2 
 PCOD9485461
Probable space group: C M M M
;
_chemical_formula_sum "Si O2"
_cell_formula_units_Z 88
_cell_length_a 9.175713
_cell_length_b 14.688400
_cell_length_c 30.346417
_cell_angle_alpha 90.000000
_cell_angle_beta 90.000000
_cell_angle_gamma 90.000000
_cell_volume 4089.985171
_symmetry_space_group_name_H-M "C M M M"
_symmetry_group_IT_number 65
_symmetry_cell_setting 'orthorhombic'
loop_
_space_group_symop_operation_xyz
x,y,z
-x,-y,z
x,-y,-z
-x,y,-z
-x,-y,-z
x,y,-z
-x,y,z
x,-y,z
1/2+x,1/2+y,z
1/2-x,1/2-y,z
1/2+x,1/2-y,-z
1/2-x,1/2+y,-z
1/2-x,1/2-y,-z
1/2+x,1/2+y,-z
1/2-x,1/2+y,z
1/2+x,1/2-y,z
loop_
_atom_site_type_symbol
_atom_site_label
_atom_site_fract_x
_atom_site_fract_y
_atom_site_fract_z
Si Si1 0.668754 0.389025 0.951193
Si Si2 0.325018 0.151510 0.690475
Si Si3 0.675498 0.150625 0.404982
Si Si4 0.165960 0.388231 0.136305
Si Si5 0.675997 0.849731 0.500000
Si Si6 0.161398 0.893399 0.221425
O O1 0.500000 0.361538 0.945940
O O2 0.669866 0.500000 0.950831
O O3 0.763611 0.359352 0.909844
O O4 0.720360 0.361129 0.000000
O O5 0.500000 0.155634 0.694422
O O6 0.250000 0.250000 0.688316
O O7 0.289075 0.107568 0.642604
O O8 0.256672 0.111277 0.734500
O O9 0.500000 0.161392 0.404733
O O10 0.750000 0.250000 0.405307
O O11 0.714821 0.107512 0.452436
O O12 0.165267 0.500000 0.136489
O O13 0.257812 0.356424 0.178442
O O14 0.000000 0.357841 0.139994
O O15 0.500000 0.840738 0.500000
O O16 0.750000 0.750000 0.500000
O O17 0.000000 0.852778 0.228269
O O18 0.143778 0.000000 0.212216
#
# Coordination Sequence:
#
# PCOD9485461 Si02
#       6
#    16  16  16  16   8  16
#     4   8  13  21  33  50  75 108 142 174 212 260
#     4  10  19  31  47  68  94 121 150 185 226 269
#     4   8  14  23  37  58  84 113 141 173 213 258
#     4   9  16  25  38  57  81 109 142 181 223 266
#     4   8  12  20  34  54  81 110 139 169 207 255
#     4  10  20  33  48  65  87 118 155 192 230 272
#
# _framework density 21.515972000000001
#
# number of rings (size 3 to 8) (size 9 to 14) (size 15 to 20)
#    0.000    3.091    0.000    2.182    0.000    4.364 
#    0.000    1.818    0.000    0.000    0.000    0.636 
#    0.000    5.818    0.000    2.727    0.000    6.727 
#
# Total GULP energy -245136.714950 kJ/mol
# GULP energy per Si atom -5571.288976 kJ/mol
# Density = 2.146700 g / cm^3
# Si number density = 21.515972 Si / 1000 Ang^3
#
#
#
# Elastic Constant Matrix: (Units=GPa)
#
#
# Indices 1 2 3 4 5 6 
#
# 1 104.6128 9.4794 103.5299 0.0000 0.0000 0.0000
# 2 9.4794 50.3803 10.4216 0.0000 0.0000 0.0000
# 3 103.5299 10.4216 256.4279 0.0000 0.0000 0.0000
# 4 0.0000 0.0000 0.0000 -2.9914 0.0000 0.0000
# 5 0.0000 0.0000 0.0000 0.0000 37.0616 0.0000
# 6 0.0000 0.0000 0.0000 0.0000 0.0000 5.5956
#
#
#
# Elastic Compliance Matrix: (Units=1/GPa)
#
#
# Indices 1 2 3 4 5 6 
#
# 1 0.016062 -0.001695 -0.006416 0.000000 0.000000 0.000000
# 2 -0.001695 0.020196 -0.000136 0.000000 0.000000 0.000000
# 3 -0.006416 -0.000136 0.006496 0.000000 0.000000 0.000000
# 4 0.000000 0.000000 0.000000 -0.334287 0.000000 0.000000
# 5 0.000000 0.000000 0.000000 0.000000 0.026982 0.000000
# 6 0.000000 0.000000 0.000000 0.000000 0.000000 0.178712
#
#
# Mechanical properties :
#
#
# Convention : Reuss Voigt Hill
#
# Bulk Modulus (GPa) = 38.08203 73.14253 55.61228
# Shear Modulus (GPa) = -82.52066 27.13248 -27.69409
#
# Velocity S-wave (km/s) = -6.19972 3.55496 -3.59157
# Velocity P-wave (km/s) = 5.78885 7.13573 2.95025
#
# Compressibility (1/GPa) = 0.02625911
#
# Stress axis : x y z
#
# Youngs Moduli (GPa) = 62.25744 49.51427 153.94780
#
# Poissons Ratio (x) = 0.08393 0.98774
# Poissons Ratio (y) = 0.10553 0.02101
# Poissons Ratio (z) = 0.39945 0.00676
#
# Static dielectric constant tensor:
#      x y z
#    x 1.743520 0.000000 0.000000 
#    y 0.000000 1.868380 0.000000 
#    z 0.000000 0.000000 1.829180 
# 
# From -- ./inp_files/73202.got.cif
#   From: 2010.05.17/outbox.cif.g08.bks.cpg/sg65_37_cif.got.tgz:73202.got - 2010.06.03 17:01:31.
