data_PCOD9485321
_publ_section_title
;
Structure prediction by ZEFSAII (Michael W. Deem and Ramdas Pophale) SiO2 
 PCOD9485321
Probable space group: C M M M
;
_chemical_formula_sum "Si O2"
_cell_formula_units_Z 66
_cell_length_a 15.400447
_cell_length_b 24.798420
_cell_length_c 9.011914
_cell_angle_alpha 90.000000
_cell_angle_beta 90.000000
_cell_angle_gamma 90.000000
_cell_volume 3441.710813
_symmetry_space_group_name_H-M "C M M M"
_symmetry_group_IT_number 65
_symmetry_cell_setting 'orthorhombic'
loop_
_space_group_symop_operation_xyz
x,y,z
-x,-y,z
x,-y,-z
-x,y,-z
-x,-y,-z
x,y,-z
-x,y,z
x,-y,z
1/2+x,1/2+y,z
1/2-x,1/2-y,z
1/2+x,1/2-y,-z
1/2-x,1/2+y,-z
1/2-x,1/2-y,-z
1/2+x,1/2+y,-z
1/2-x,1/2+y,z
1/2+x,1/2-y,z
loop_
_atom_site_type_symbol
_atom_site_label
_atom_site_fract_x
_atom_site_fract_y
_atom_site_fract_z
Si Si1 0.144238 0.000000 0.669217
Si Si2 0.653760 0.000000 0.257032
Si Si3 0.000000 0.500000 0.500000
Si Si4 0.145156 0.118923 0.679160
Si Si5 0.670990 0.119808 0.830212
Si Si6 0.500000 0.181706 0.820029
Si Si7 0.500000 0.307644 0.178541
O O1 0.249543 0.000000 0.671338
O O2 0.118896 0.941807 0.733041
O O3 0.113162 0.000000 0.500000
O O4 0.649732 0.943819 0.170021
O O5 0.576423 0.000000 0.372889
O O6 0.139518 0.120055 0.500000
O O7 0.243785 0.128093 0.731463
O O8 0.082876 0.162439 0.752472
O O9 0.587385 0.151658 0.770095
O O10 0.688776 0.136973 0.000000
O O11 0.500000 0.244489 0.781664
O O12 0.500000 0.177340 0.000000
O O13 0.500000 0.312124 0.000000
#
# Coordination Sequence:
#
# PCOD9485321 Si02
#       7
#     8   8   2  16  16   8   8
#     4   8  16  34  54  80 114 147 177 217 282 356
#     4  10  19  30  55  86 122 150 191 228 285 341
#     4  12  20  28  50  84 124 166 194 220 284 350
#     4  10  21  38  62  87 118 149 189 238 301 356
#     4  10  20  38  60  88 118 154 196 243 288 344
#     4   9  21  39  58  80 115 156 201 240 288 346
#     4  11  23  41  60  81 110 155 202 248 291 346
#
# _framework density 19.17651
#
# number of rings (size 3 to 8) (size 9 to 14) (size 15 to 20)
#    0.000    2.182    0.606    2.182    1.697    1.455 
#    0.000   13.939    0.000    0.000    0.000    0.000 
#    0.000    0.000    0.000    0.000    0.000    0.000 
#
# Total GULP energy -183808.795792 kJ/mol
# GULP energy per Si atom -5569.963509 kJ/mol
# Density = 1.913286 g / cm^3
# Si number density = 19.176510 Si / 1000 Ang^3
#
#
#
# Elastic Constant Matrix: (Units=GPa)
#
#
# Indices 1 2 3 4 5 6 
#
# 1 117.4685 86.4228 35.1819 0.0000 0.0000 0.0000
# 2 86.4228 156.8940 29.3119 0.0000 0.0000 0.0000
# 3 35.1819 29.3119 65.9208 0.0000 0.0000 0.0000
# 4 0.0000 0.0000 0.0000 20.2146 0.0000 0.0000
# 5 0.0000 0.0000 0.0000 0.0000 30.2001 0.0000
# 6 0.0000 0.0000 0.0000 0.0000 0.0000-1151.7713
#
#
#
# Elastic Compliance Matrix: (Units=1/GPa)
#
#
# Indices 1 2 3 4 5 6 
#
# 1 0.015657 -0.007703 -0.004931 0.000000 0.000000 0.000000
# 2 -0.007703 0.010741 -0.000665 0.000000 0.000000 0.000000
# 3 -0.004931 -0.000665 0.018097 0.000000 0.000000 0.000000
# 4 0.000000 0.000000 0.000000 0.049469 0.000000 0.000000
# 5 0.000000 0.000000 0.000000 0.000000 0.033112 0.000000
# 6 0.000000 0.000000 0.000000 0.000000 0.000000 -0.000868
#
#
# Mechanical properties :
#
#
# Convention : Reuss Voigt Hill
#
# Bulk Modulus (GPa) = 55.87473 71.34629 63.61051
# Shear Modulus (GPa) = 31.49161 -207.64686 -88.07763
#
# Velocity S-wave (km/s) = 4.05680 -10.41715 -6.78452
# Velocity P-wave (km/s) = 7.15149 10.36356 5.30376
#
# Compressibility (1/GPa) = 0.01789718
#
# Stress axis : x y z
#
# Youngs Moduli (GPa) = 63.86872 93.09958 55.25779
#
# Poissons Ratio (x) = 0.71717 0.27247
# Poissons Ratio (y) = 0.49200 0.03674
# Poissons Ratio (z) = 0.31493 0.06190
#
# Static dielectric constant tensor:
#      x y z
#    x 1.657870 0.000000 0.000000 
#    y 0.000000 1.675910 0.000000 
#    z 0.000000 0.000000 1.661950 
# 
# From -- ./inp_files/7173.got.cif
#   From: 2010.05.17/outbox.cif.g08.bks.cpg/sg65_4_cif.got.tgz:7173.got - 2010.06.03 17:01:31.
