data_PCOD9485757
_publ_section_title
;
Structure prediction by ZEFSAII (Michael W. Deem and Ramdas Pophale) SiO2 
 PCOD9485757
Probable space group: C M M M
;
_chemical_formula_sum "Si O2"
_cell_formula_units_Z 120
_cell_length_a 24.057501
_cell_length_b 19.289918
_cell_length_c 15.511252
_cell_angle_alpha 90.000000
_cell_angle_beta 90.000000
_cell_angle_gamma 90.000000
_cell_volume 7198.263619
_symmetry_space_group_name_H-M "C M M M"
_symmetry_group_IT_number 65
_symmetry_cell_setting 'orthorhombic'
loop_
_space_group_symop_operation_xyz
x,y,z
-x,-y,z
x,-y,-z
-x,y,-z
-x,-y,-z
x,y,-z
-x,y,z
x,-y,z
1/2+x,1/2+y,z
1/2-x,1/2-y,z
1/2+x,1/2-y,-z
1/2-x,1/2+y,-z
1/2-x,1/2-y,-z
1/2+x,1/2+y,-z
1/2-x,1/2+y,z
1/2+x,1/2-y,z
loop_
_atom_site_type_symbol
_atom_site_label
_atom_site_fract_x
_atom_site_fract_y
_atom_site_fract_z
Si Si1 0.345244 0.746525 0.097200
Si Si2 0.241460 0.080302 0.717590
Si Si3 0.935337 0.208361 0.237100
Si Si4 0.754242 0.364978 0.902682
Si Si5 0.841921 0.581647 0.600765
Si Si6 0.383158 0.583442 0.317246
Si Si7 0.062787 0.083620 0.500000
Si Si8 0.934897 0.303917 0.402247
O O1 0.393270 0.738200 0.166549
O O2 0.299957 0.684607 0.103567
O O3 0.308128 0.815668 0.106456
O O4 0.368073 0.745181 0.000000
O O5 0.251988 0.086868 0.819407
O O6 0.292526 0.109089 0.661983
O O7 0.180348 0.108127 0.695472
O O8 0.239008 0.000000 0.692288
O O9 0.920948 0.127745 0.252847
O O10 0.925094 0.248022 0.327612
O O11 0.000000 0.217184 0.214442
O O12 0.754730 0.395061 0.000000
O O13 0.824992 0.585561 0.500000
O O14 0.853116 0.500000 0.619593
O O15 0.895776 0.629606 0.611691
O O16 0.386566 0.500000 0.303752
O O17 0.404548 0.599872 0.413108
O O18 0.000000 0.113124 0.500000
O O19 0.057727 0.000000 0.500000
O O20 0.924118 0.277525 0.500000
O O21 0.000000 0.323190 0.398181
#
# Coordination Sequence:
#
# PCOD9485757 Si02
#       8
#    16  16  16  16  16  16   8  16
#     4   9  18  33  52  73  94 122 163 203 245 297
#     4  10  19  31  49  74 103 129 161 207 250 294
#     4  11  21  33  52  73 100 132 162 210 256 289
#     4   9  17  32  53  72  94 124 160 203 245 294
#     4   9  18  32  51  74 102 135 165 196 240 297
#     4  10  21  34  49  70  97 134 174 210 250 294
#     4   9  18  32  48  64  85 122 174 216 241 284
#     4   9  19  34  50  73 103 131 164 204 245 292
#
# _framework density 16.670687000000001
#
# number of rings (size 3 to 8) (size 9 to 14) (size 15 to 20)
#    0.000    2.467    1.333    2.000    1.867    1.600 
#    0.000    1.333    0.000    2.000    0.000    0.933 
#    0.000    0.000    0.000   24.800    0.000    0.267 
#
# Total GULP energy -334271.146219 kJ/mol
# GULP energy per Si atom -5571.185770 kJ/mol
# Density = 1.663274 g / cm^3
# Si number density = 16.670687 Si / 1000 Ang^3
#
#
#
# Elastic Constant Matrix: (Units=GPa)
#
#
# Indices 1 2 3 4 5 6 
#
# 1 106.2700 31.0607 75.4755 0.0000 0.0000 0.0000
# 2 31.0607 31.5314 20.7186 0.0000 0.0000 0.0000
# 3 75.4755 20.7186 100.5586 0.0000 0.0000 0.0000
# 4 0.0000 0.0000 0.0000 21.7556 0.0000 0.0000
# 5 0.0000 0.0000 0.0000 0.0000 32.2704 0.0000
# 6 0.0000 0.0000 0.0000 0.0000 0.0000 17.2407
#
#
#
# Elastic Compliance Matrix: (Units=1/GPa)
#
#
# Indices 1 2 3 4 5 6 
#
# 1 0.024512 -0.013945 -0.015524 0.000000 0.000000 0.000000
# 2 -0.013945 0.044614 0.001275 0.000000 0.000000 0.000000
# 3 -0.015524 0.001275 0.021334 0.000000 0.000000 0.000000
# 4 0.000000 0.000000 0.000000 0.045965 0.000000 0.000000
# 5 0.000000 0.000000 0.000000 0.000000 0.030988 0.000000
# 6 0.000000 0.000000 0.000000 0.000000 0.000000 0.058002
#
#
# Mechanical properties :
#
#
# Convention : Reuss Voigt Hill
#
# Bulk Modulus (GPa) = 29.35161 54.76329 42.05745
# Shear Modulus (GPa) = 17.05549 21.66034 19.35792
#
# Velocity S-wave (km/s) = 3.20204 3.60850 3.41133
# Velocity P-wave (km/s) = 5.59604 7.09106 6.38744
#
# Compressibility (1/GPa) = 0.03406969
#
# Stress axis : x y z
#
# Youngs Moduli (GPa) = 40.79708 22.41464 46.87398
#
# Poissons Ratio (x) = 0.31257 0.72769
# Poissons Ratio (y) = 0.56891 -0.05974
# Poissons Ratio (z) = 0.63335 -0.02857
#
# Static dielectric constant tensor:
#      x y z
#    x 1.557910 0.000000 0.000000 
#    y 0.000000 1.569720 0.000000 
#    z 0.000000 0.000000 1.559020 
# 
# From -- ./inp_files/44686.got.cif
#   From: 2010.05.17/outbox.cif.g08.bks.cpg/sg65_23_cif.got.tgz:44686.got - 2010.06.03 17:01:31.
