data_PCOD9485146
_publ_section_title
;
Structure prediction by ZEFSAII (Michael W. Deem and Ramdas Pophale) SiO2 
 PCOD9485146
Probable space group: C M M M
;
_chemical_formula_sum "Si O2"
_cell_formula_units_Z 116
_cell_length_a 9.123355
_cell_length_b 30.518688
_cell_length_c 24.937366
_cell_angle_alpha 90.000000
_cell_angle_beta 90.000000
_cell_angle_gamma 90.000000
_cell_volume 6943.381257
_symmetry_space_group_name_H-M "C M M M"
_symmetry_group_IT_number 65
_symmetry_cell_setting 'orthorhombic'
loop_
_space_group_symop_operation_xyz
x,y,z
-x,-y,z
x,-y,-z
-x,y,-z
-x,-y,-z
x,y,-z
-x,y,z
x,-y,z
1/2+x,1/2+y,z
1/2-x,1/2-y,z
1/2+x,1/2-y,-z
1/2-x,1/2+y,-z
1/2-x,1/2-y,-z
1/2+x,1/2+y,-z
1/2-x,1/2+y,z
1/2+x,1/2-y,z
loop_
_atom_site_type_symbol
_atom_site_label
_atom_site_fract_x
_atom_site_fract_y
_atom_site_fract_z
Si Si1 0.323718 0.450852 0.739650
Si Si2 0.827842 0.295450 0.908930
Si Si3 0.500000 0.686123 0.500000
Si Si4 0.172611 0.551387 0.145086
Si Si5 0.839207 0.205440 0.392193
Si Si6 0.328154 0.795452 0.779834
Si Si7 0.823082 0.859454 0.699085
Si Si8 0.827140 0.884696 0.061283
O O1 0.500000 0.449848 0.747358
O O2 0.284907 0.500000 0.720919
O O3 0.246630 0.443366 0.796782
O O4 0.282998 0.410673 0.701109
O O5 0.750000 0.250000 0.924360
O O6 0.815306 0.299801 0.844117
O O7 0.747541 0.337255 0.933364
O O8 0.000000 0.294578 0.922580
O O9 0.374471 0.688685 0.451969
O O10 0.187872 0.500000 0.130386
O O11 0.250570 0.582365 0.102377
O O12 0.000000 0.561846 0.148255
O O13 0.750000 0.250000 0.393398
O O14 0.778191 0.167449 0.353905
O O15 0.000000 0.217170 0.369023
O O16 0.500000 0.794061 0.766396
O O17 0.250000 0.750000 0.763981
O O18 0.248988 0.834770 0.749252
O O19 0.000000 0.857605 0.703376
O O20 0.000000 0.881108 0.073298
O O21 0.810384 0.900149 0.000000
#
# Coordination Sequence:
#
# PCOD9485146 Si02
#       8
#    16  16   4  16  16  16  16  16
#     4   9  18  33  53  75 101 134 166 201 248 306
#     4  10  21  37  56  76  99 134 173 208 255 312
#     4   8  18  32  50  64  99 140 175 216 248 290
#     4  10  21  37  57  80 104 132 166 204 254 317
#     4   9  18  30  47  69  96 134 173 210 250 291
#     4  10  20  32  48  71 102 133 161 198 247 304
#     4  10  19  30  46  73 102 130 167 208 252 297
#     4  11  24  39  55  76 101 130 168 215 261 304
#
# _framework density 16.706558000000001
#
# number of rings (size 3 to 8) (size 9 to 14) (size 15 to 20)
#    0.414    1.793    0.000    3.103    0.000    8.552 
#    0.000    1.379    0.000    0.000    0.000    0.966 
#    0.000    0.000    0.000    0.621    0.000    0.414 
#
# Total GULP energy -322900.316274 kJ/mol
# GULP energy per Si atom -5567.246832 kJ/mol
# Density = 1.666853 g / cm^3
# Si number density = 16.706558 Si / 1000 Ang^3
#
#
#
# Elastic Constant Matrix: (Units=GPa)
#
#
# Indices 1 2 3 4 5 6 
#
# 1 42.9958 31.0382 26.6965 0.0000 0.0000 0.0000
# 2 31.0382 84.4279 43.4786 0.0000 0.0000 0.0000
# 3 26.6965 43.4786 49.8613 0.0000 0.0000 0.0000
# 4 0.0000 0.0000 0.0000 17.5440 0.0000 0.0000
# 5 0.0000 0.0000 0.0000 0.0000 18.3113 0.0000
# 6 0.0000 0.0000 0.0000 0.0000 0.0000 23.9519
#
#
#
# Elastic Compliance Matrix: (Units=1/GPa)
#
#
# Indices 1 2 3 4 5 6 
#
# 1 0.036486 -0.006086 -0.014228 0.000000 0.000000 0.000000
# 2 -0.006086 0.022514 -0.016373 0.000000 0.000000 0.000000
# 3 -0.014228 -0.016373 0.041951 0.000000 0.000000 0.000000
# 4 0.000000 0.000000 0.000000 0.057000 0.000000 0.000000
# 5 0.000000 0.000000 0.000000 0.000000 0.054611 0.000000
# 6 0.000000 0.000000 0.000000 0.000000 0.000000 0.041750
#
#
# Mechanical properties :
#
#
# Convention : Reuss Voigt Hill
#
# Bulk Modulus (GPa) = 36.26378 42.19019 39.22699
# Shear Modulus (GPa) = 14.84217 17.03287 15.93752
#
# Velocity S-wave (km/s) = 2.98384 3.19648 3.09199
# Velocity P-wave (km/s) = 5.79867 6.23953 6.02313
#
# Compressibility (1/GPa) = 0.02757572
#
# Stress axis : x y z
#
# Youngs Moduli (GPa) = 27.40783 44.41737 23.83749
#
# Poissons Ratio (x) = 0.27033 0.33916
# Poissons Ratio (y) = 0.16681 0.39029
# Poissons Ratio (z) = 0.38996 0.72725
#
# Static dielectric constant tensor:
#      x y z
#    x 1.569390 0.000000 0.000000 
#    y 0.000000 1.571440 0.000000 
#    z 0.000000 0.000000 1.546430 
# 
# From -- ./inp_files/72247.got.cif
#   From: 2010.05.17/outbox.cif.g08.bks.cpg/sg65_37_cif.got.tgz:72247.got - 2010.06.03 17:01:31.
