data_PCOD9485456
_publ_section_title
;
Structure prediction by ZEFSAII (Michael W. Deem and Ramdas Pophale) SiO2 
 PCOD9485456
Probable space group: C M M M
;
_chemical_formula_sum "Si O2"
_cell_formula_units_Z 104
_cell_length_a 15.064137
_cell_length_b 18.115179
_cell_length_c 22.587482
_cell_angle_alpha 90.000000
_cell_angle_beta 90.000000
_cell_angle_gamma 90.000000
_cell_volume 6163.887533
_symmetry_space_group_name_H-M "C M M M"
_symmetry_group_IT_number 65
_symmetry_cell_setting 'orthorhombic'
loop_
_space_group_symop_operation_xyz
x,y,z
-x,-y,z
x,-y,-z
-x,y,-z
-x,-y,-z
x,y,-z
-x,y,z
x,-y,z
1/2+x,1/2+y,z
1/2-x,1/2-y,z
1/2+x,1/2-y,-z
1/2-x,1/2+y,-z
1/2-x,1/2-y,-z
1/2+x,1/2+y,-z
1/2-x,1/2+y,z
1/2+x,1/2-y,z
loop_
_atom_site_type_symbol
_atom_site_label
_atom_site_fract_x
_atom_site_fract_y
_atom_site_fract_z
Si Si1 0.285720 0.409918 0.615342
Si Si2 0.265239 0.080672 0.930075
Si Si3 0.602419 0.409971 0.500000
Si Si4 0.901489 0.589767 0.569415
Si Si5 0.603059 0.411793 0.728869
Si Si6 0.397019 0.787090 0.068941
Si Si7 0.602417 0.363817 0.860768
O O1 0.285633 0.500000 0.614988
O O2 0.344676 0.386933 0.558821
O O3 0.184287 0.385066 0.605778
O O4 0.332042 0.387728 0.676376
O O5 0.331739 0.146715 0.914920
O O6 0.174759 0.087686 0.894084
O O7 0.305934 0.000000 0.919594
O O8 0.245930 0.086900 0.000000
O O9 0.601889 0.500000 0.500000
O O10 0.500000 0.385769 0.500000
O O11 0.889603 0.608831 0.500000
O O12 0.901906 0.500000 0.571706
O O13 0.000000 0.614699 0.588411
O O14 0.500000 0.402261 0.710485
O O15 0.615381 0.500000 0.739461
O O16 0.617034 0.370151 0.790625
O O17 0.500000 0.810605 0.071699
O O18 0.385883 0.717562 0.111740
O O19 0.379302 0.765417 0.000000
O O20 0.500000 0.386484 0.871858
#
# Coordination Sequence:
#
# PCOD9485456 Si02
#       7
#    16  16   8  16  16  16  16
#     4   9  14  21  32  48  72 105 146 192 240 286
#     4  10  20  32  49  75 103 128 156 197 250 299
#     4   9  14  18  27  45  69  99 139 186 232 280
#     4   8  12  18  29  46  68  95 133 184 240 292
#     4   9  17  27  38  54  80 117 159 200 242 290
#     4   9  18  33  53  75  98 127 164 204 244 288
#     4  10  19  31  47  67  95 132 170 204 240 288
#
# _framework density 16.872468000000001
#
# number of rings (size 3 to 8) (size 9 to 14) (size 15 to 20)
#    0.000    2.846    0.769    2.308    0.000    5.231 
#    0.000    2.308    0.000    0.923    0.000    2.154 
#    0.000    0.000    0.000    2.769    0.000    9.231 
#
# Total GULP energy -289671.415111 kJ/mol
# GULP energy per Si atom -5570.604137 kJ/mol
# Density = 1.683407 g / cm^3
# Si number density = 16.872468 Si / 1000 Ang^3
#
#
#
# Elastic Constant Matrix: (Units=GPa)
#
#
# Indices 1 2 3 4 5 6 
#
# 1 124.2081 39.8560 71.2655 0.0000 0.0000 0.0000
# 2 39.8560 31.2049 37.1257 0.0000 0.0000 0.0000
# 3 71.2655 37.1257 85.7091 0.0000 0.0000 0.0000
# 4 0.0000 0.0000 0.0000 19.0759 0.0000 0.0000
# 5 0.0000 0.0000 0.0000 0.0000 25.8070 0.0000
# 6 0.0000 0.0000 0.0000 0.0000 0.0000 5.4163
#
#
#
# Elastic Compliance Matrix: (Units=1/GPa)
#
#
# Indices 1 2 3 4 5 6 
#
# 1 0.016775 -0.009968 -0.009630 0.000000 0.000000 0.000000
# 2 -0.009968 0.072045 -0.022919 0.000000 0.000000 0.000000
# 3 -0.009630 -0.022919 0.029602 0.000000 0.000000 0.000000
# 4 0.000000 0.000000 0.000000 0.052422 0.000000 0.000000
# 5 0.000000 0.000000 0.000000 0.000000 0.038749 0.000000
# 6 0.000000 0.000000 0.000000 0.000000 0.000000 0.184628
#
#
# Mechanical properties :
#
#
# Convention : Reuss Voigt Hill
#
# Bulk Modulus (GPa) = 29.95072 59.73517 44.84294
# Shear Modulus (GPa) = 10.19603 16.25151 13.22377
#
# Velocity S-wave (km/s) = 2.46092 3.10691 2.80259
# Velocity P-wave (km/s) = 5.08572 6.95351 6.09163
#
# Compressibility (1/GPa) = 0.03338818
#
# Stress axis : x y z
#
# Youngs Moduli (GPa) = 59.61205 13.88013 33.78098
#
# Poissons Ratio (x) = 0.13836 0.32533
# Poissons Ratio (y) = 0.59422 0.77422
# Poissons Ratio (z) = 0.57409 0.31812
#
# Static dielectric constant tensor:
#      x y z
#    x 1.585530 0.000000 0.000000 
#    y 0.000000 1.564340 0.000000 
#    z 0.000000 0.000000 1.550350 
# 
# From -- ./inp_files/70116.got.cif
#   From: 2010.05.17/outbox.cif.g08.bks.cpg/sg65_36_cif.got.tgz:70116.got - 2010.06.03 17:01:31.
