data_PCOD9485546
_publ_section_title
;
Structure prediction by ZEFSAII (Michael W. Deem and Ramdas Pophale) SiO2 
 PCOD9485546
Probable space group: C M M M
;
_chemical_formula_sum "Si O2"
_cell_formula_units_Z 80
_cell_length_a 19.654008
_cell_length_b 27.039101
_cell_length_c 7.988142
_cell_angle_alpha 90.000000
_cell_angle_beta 90.000000
_cell_angle_gamma 90.000000
_cell_volume 4245.112001
_symmetry_space_group_name_H-M "C M M M"
_symmetry_group_IT_number 65
_symmetry_cell_setting 'orthorhombic'
loop_
_space_group_symop_operation_xyz
x,y,z
-x,-y,z
x,-y,-z
-x,y,-z
-x,-y,-z
x,y,-z
-x,y,z
x,-y,z
1/2+x,1/2+y,z
1/2-x,1/2-y,z
1/2+x,1/2-y,-z
1/2-x,1/2+y,-z
1/2-x,1/2-y,-z
1/2+x,1/2+y,-z
1/2-x,1/2+y,z
1/2+x,1/2-y,z
loop_
_atom_site_type_symbol
_atom_site_label
_atom_site_fract_x
_atom_site_fract_y
_atom_site_fract_z
Si Si1 0.582822 0.500000 0.195065
Si Si2 0.077917 0.393096 0.299163
Si Si3 0.679099 0.808510 0.303071
Si Si4 0.578354 0.000000 0.199816
Si Si5 0.420955 0.392378 0.794717
Si Si6 0.167298 0.800163 0.803907
O O1 0.500000 0.500000 0.196719
O O2 0.603125 0.446635 0.266385
O O3 0.603901 0.500000 0.000000
O O4 0.074185 0.388783 0.500000
O O5 0.126047 0.349068 0.237695
O O6 0.107041 0.447501 0.258331
O O7 0.000000 0.389895 0.233574
O O8 0.690249 0.817318 0.500000
O O9 0.752567 0.810898 0.216826
O O10 0.652989 0.752473 0.280941
O O11 0.500000 0.000000 0.264033
O O12 0.577628 0.000000 0.000000
O O13 0.500000 0.385732 0.748608
O O14 0.375822 0.346429 0.738373
O O15 0.418677 0.393886 0.000000
O O16 0.152048 0.794237 0.000000
#
# Coordination Sequence:
#
# PCOD9485546 Si02
#       6
#     8  16  16   8  16  16
#     4   7  10  20  39  62  90 120 146 175 216 266
#     4   9  18  33  52  71  92 123 162 198 232 278
#     4  10  20  34  50  66  90 125 161 194 233 282
#     4   9  17  29  48  75 102 124 148 187 240 287
#     4   8  14  25  43  68  95 122 152 186 225 270
#     4  10  19  31  48  69  95 124 155 194 239 283
#
# _framework density 18.845203000000001
#
# number of rings (size 3 to 8) (size 9 to 14) (size 15 to 20)
#    0.000    3.000    0.000    3.900    0.000    3.600 
#    0.000    1.000    0.000    3.000    0.000    2.100 
#    0.000    9.600    0.000    0.000    0.000    0.000 
#
# Total GULP energy -222822.183484 kJ/mol
# GULP energy per Si atom -5570.554587 kJ/mol
# Density = 1.880231 g / cm^3
# Si number density = 18.845203 Si / 1000 Ang^3
#
#
#
# Elastic Constant Matrix: (Units=GPa)
#
#
# Indices 1 2 3 4 5 6 
#
# 1 50.4562 80.6570 -3.2308 0.0000 0.0000 0.0000
# 2 80.6570 195.3207 -7.5347 0.0000 0.0000 0.0000
# 3 -3.2308 -7.5347 13.3582 0.0000 0.0000 0.0000
# 4 0.0000 0.0000 0.0000 5.9429 0.0000 0.0000
# 5 0.0000 0.0000 0.0000 0.0000 2.1401 0.0000
# 6 0.0000 0.0000 0.0000 0.0000 0.0000 -32.6945
#
#
#
# Elastic Compliance Matrix: (Units=1/GPa)
#
#
# Indices 1 2 3 4 5 6 
#
# 1 0.058316 -0.024061 0.000533 0.000000 0.000000 0.000000
# 2 -0.024061 0.015161 0.002732 0.000000 0.000000 0.000000
# 3 0.000533 0.002732 0.076530 0.000000 0.000000 0.000000
# 4 0.000000 0.000000 0.000000 0.168267 0.000000 0.000000
# 5 0.000000 0.000000 0.000000 0.000000 0.467278 0.000000
# 6 0.000000 0.000000 0.000000 0.000000 0.000000 -0.030586
#
#
# Mechanical properties :
#
#
# Convention : Reuss Voigt Hill
#
# Bulk Modulus (GPa) = 9.22378 44.32423 26.77401
# Shear Modulus (GPa) = 6.00459 7.69393 6.84926
#
# Velocity S-wave (km/s) = 1.78695 2.02276 1.90850
# Velocity P-wave (km/s) = 3.02700 5.38764 4.36975
#
# Compressibility (1/GPa) = 0.10841544
#
# Stress axis : x y z
#
# Youngs Moduli (GPa) = 17.14804 65.95880 13.06672
#
# Poissons Ratio (x) = 1.58702 -0.00696
# Poissons Ratio (y) = 0.41259 -0.03570
# Poissons Ratio (z) = -0.00913 -0.18022
#
# Static dielectric constant tensor:
#      x y z
#    x 1.633650 0.000000 0.000000 
#    y 0.000000 1.686410 0.000000 
#    z 0.000000 0.000000 1.655450 
# 
# From -- ./inp_files/12111.got.cif
#   From: 2010.05.17/outbox.cif.g08.bks.cpg/sg65_7_cif.got.tgz:12111.got - 2010.06.03 17:01:31.
