data_PCOD9485076
_publ_section_title
;
Structure prediction by ZEFSAII (Michael W. Deem and Ramdas Pophale) SiO2 
 PCOD9485076
Probable space group: C M M M
;
_chemical_formula_sum "Si O2"
_cell_formula_units_Z 72
_cell_length_a 7.366764
_cell_length_b 18.660389
_cell_length_c 24.558933
_cell_angle_alpha 90.000000
_cell_angle_beta 90.000000
_cell_angle_gamma 90.000000
_cell_volume 3376.035031
_symmetry_space_group_name_H-M "C M M M"
_symmetry_group_IT_number 65
_symmetry_cell_setting 'orthorhombic'
loop_
_space_group_symop_operation_xyz
x,y,z
-x,-y,z
x,-y,-z
-x,y,-z
-x,-y,-z
x,y,-z
-x,y,z
x,-y,z
1/2+x,1/2+y,z
1/2-x,1/2-y,z
1/2+x,1/2-y,-z
1/2-x,1/2+y,-z
1/2-x,1/2-y,-z
1/2+x,1/2+y,-z
1/2-x,1/2+y,z
1/2+x,1/2-y,z
loop_
_atom_site_type_symbol
_atom_site_label
_atom_site_fract_x
_atom_site_fract_y
_atom_site_fract_z
Si Si1 0.217166 0.335122 0.881514
Si Si2 0.278946 0.083200 0.439251
Si Si3 0.783392 0.665751 0.666802
Si Si4 0.716541 0.835544 0.000000
Si Si5 0.777917 0.417150 0.774211
O O1 0.250000 0.250000 0.875405
O O2 0.286769 0.360055 0.941009
O O3 0.284498 0.378064 0.829274
O O4 0.000000 0.344358 0.882849
O O5 0.220249 0.105365 0.500000
O O6 0.500000 0.085024 0.439511
O O7 0.214315 0.131613 0.389476
O O8 0.228115 0.000000 0.430914
O O9 0.750000 0.750000 0.669987
O O10 0.716019 0.624991 0.720495
O O11 0.000000 0.655021 0.666288
O O12 0.750000 0.750000 0.000000
O O13 0.500000 0.847856 0.000000
O O14 0.724408 0.500000 0.772580
O O15 0.000000 0.415330 0.774436
#
# Coordination Sequence:
#
# PCOD9485076 Si02
#       5
#    16  16  16   8  16
#     4   9  16  27  44  64  86 111 140 174 210 250
#     4   8  14  26  45  67  88 112 145 180 209 243
#     4  10  19  30  46  67  89 113 142 177 215 253
#     4   8  14  24  39  61  85 109 137 168 206 250
#     4   9  17  29  45  64  85 111 144 179 213 250
#
# _framework density 21.326792999999999
#
# number of rings (size 3 to 8) (size 9 to 14) (size 15 to 20)
#    0.000    3.111    0.000    2.000    0.000    3.111 
#    0.000    0.556    0.000    8.000    0.000    1.556 
#    0.000    8.889    0.000    0.000    0.000    0.000 
#
# Total GULP energy -200876.776863 kJ/mol
# GULP energy per Si atom -5579.910468 kJ/mol
# Density = 2.127825 g / cm^3
# Si number density = 21.326793 Si / 1000 Ang^3
#
#
#
# Elastic Constant Matrix: (Units=GPa)
#
#
# Indices 1 2 3 4 5 6 
#
# 1 79.3546 -2.4776 12.5834 0.0000 0.0000 0.0000
# 2 -2.4776 136.8538 145.3841 0.0000 0.0000 0.0000
# 3 12.5834 145.3841 289.1584 0.0000 0.0000 0.0000
# 4 0.0000 0.0000 0.0000 -222.9507 0.0000 0.0000
# 5 0.0000 0.0000 0.0000 0.0000 92.9642 0.0000
# 6 0.0000 0.0000 0.0000 0.0000 0.0000 15.2770
#
#
#
# Elastic Compliance Matrix: (Units=1/GPa)
#
#
# Indices 1 2 3 4 5 6 
#
# 1 0.012888 0.001780 -0.001456 0.000000 0.000000 0.000000
# 2 0.001780 0.015930 -0.008087 0.000000 0.000000 0.000000
# 3 -0.001456 -0.008087 0.007588 0.000000 0.000000 0.000000
# 4 0.000000 0.000000 0.000000 -0.004485 0.000000 0.000000
# 5 0.000000 0.000000 0.000000 0.000000 0.010757 0.000000
# 6 0.000000 0.000000 0.000000 0.000000 0.000000 0.065458
#
#
# Mechanical properties :
#
#
# Convention : Reuss Voigt Hill
#
# Bulk Modulus (GPa) = 47.89213 90.70518 69.29865
# Shear Modulus (GPa) = 38.27861 0.38321 19.33091
#
# Velocity S-wave (km/s) = 4.24117 0.42435 3.01394
# Velocity P-wave (km/s) = 6.81825 6.54702 6.68401
#
# Compressibility (1/GPa) = 0.02088026
#
# Stress axis : x y z
#
# Youngs Moduli (GPa) = 77.59113 62.77339 131.79311
#
# Poissons Ratio (x) = -0.11172 0.19185
# Poissons Ratio (y) = -0.13809 1.06580
# Poissons Ratio (z) = 0.11295 0.50765
#
# Static dielectric constant tensor:
#      x y z
#    x 1.820630 0.000000 0.000000 
#    y 0.000000 1.700900 0.000000 
#    z 0.000000 0.000000 1.790300 
# 
# From -- ./inp_files/59222.got.cif
#   From: 2010.05.17/outbox.cif.g08.bks.cpg/sg65_30_cif.got.tgz:59222.got - 2010.06.03 17:01:31.
