data_PCOD9485497
_publ_section_title
;
Structure prediction by ZEFSAII (Michael W. Deem and Ramdas Pophale) SiO2 
 PCOD9485497
Probable space group: C M M M
;
_chemical_formula_sum "Si O2"
_cell_formula_units_Z 104
_cell_length_a 8.865009
_cell_length_b 27.490384
_cell_length_c 24.809371
_cell_angle_alpha 90.000000
_cell_angle_beta 90.000000
_cell_angle_gamma 90.000000
_cell_volume 6046.105775
_symmetry_space_group_name_H-M "C M M M"
_symmetry_group_IT_number 65
_symmetry_cell_setting 'orthorhombic'
loop_
_space_group_symop_operation_xyz
x,y,z
-x,-y,z
x,-y,-z
-x,y,-z
-x,-y,-z
x,y,-z
-x,y,z
x,-y,z
1/2+x,1/2+y,z
1/2-x,1/2-y,z
1/2+x,1/2-y,-z
1/2-x,1/2+y,-z
1/2-x,1/2-y,-z
1/2+x,1/2+y,-z
1/2-x,1/2+y,z
1/2+x,1/2-y,z
loop_
_atom_site_type_symbol
_atom_site_label
_atom_site_fract_x
_atom_site_fract_y
_atom_site_fract_z
Si Si1 0.180340 0.105000 0.663283
Si Si2 0.681627 0.056252 0.439033
Si Si3 0.183564 0.500000 0.062488
Si Si4 0.681115 0.699074 0.270618
Si Si5 0.821168 0.402001 0.875600
Si Si6 0.673207 0.443024 0.772910
Si Si7 0.819323 0.802065 0.143816
O O1 0.255331 0.090047 0.607723
O O2 0.230430 0.155505 0.690607
O O3 0.211534 0.066185 0.710760
O O4 0.000000 0.106698 0.655540
O O5 0.728960 0.069612 0.500000
O O6 0.500000 0.057299 0.437684
O O7 0.728513 0.000000 0.429585
O O8 0.232937 0.449424 0.090576
O O9 0.000000 0.500000 0.066101
O O10 0.226461 0.500000 0.000000
O O11 0.500000 0.701088 0.272271
O O12 0.750000 0.750000 0.288089
O O13 0.722003 0.691801 0.207562
O O14 0.781481 0.416200 0.814170
O O15 0.743249 0.349996 0.886029
O O16 0.000000 0.396966 0.883143
O O17 0.500000 0.424765 0.780943
O O18 0.676423 0.500000 0.784487
O O19 0.750000 0.750000 0.126691
O O20 0.000000 0.800198 0.139706
#
# Coordination Sequence:
#
# PCOD9485497 Si02
#       7
#    16  16   8  16  16  16  16
#     4  10  19  32  49  72  99 131 168 205 253 309
#     4   9  19  35  51  69  96 129 165 208 256 301
#     4   9  20  38  57  79 111 149 188 229 268 309
#     4   9  18  31  47  69 100 133 165 201 248 303
#     4  11  20  32  53  80 107 141 182 221 264 317
#     4  10  19  31  47  70 106 143 167 204 265 316
#     4  10  19  34  53  77 110 145 178 218 268 321
#
# _framework density 17.201155
#
# number of rings (size 3 to 8) (size 9 to 14) (size 15 to 20)
#    0.000    2.231    2.308    1.846    0.000    3.077 
#    0.000    0.769    0.000    4.615    0.000    0.000 
#    0.000    0.000    0.000    0.000    0.000    0.000 
#
# Total GULP energy -289901.069068 kJ/mol
# GULP energy per Si atom -5575.020559 kJ/mol
# Density = 1.716200 g / cm^3
# Si number density = 17.201155 Si / 1000 Ang^3
#
#
#
# Elastic Constant Matrix: (Units=GPa)
#
#
# Indices 1 2 3 4 5 6 
#
# 1 26.8360 40.2279 17.8639 0.0000 0.0000 0.0000
# 2 40.2279 139.8096 44.5786 0.0000 0.0000 0.0000
# 3 17.8639 44.5786 62.2238 0.0000 0.0000 0.0000
# 4 0.0000 0.0000 0.0000 15.5024 0.0000 0.0000
# 5 0.0000 0.0000 0.0000 0.0000 -52.3813 0.0000
# 6 0.0000 0.0000 0.0000 0.0000 0.0000 29.9609
#
#
#
# Elastic Compliance Matrix: (Units=1/GPa)
#
#
# Indices 1 2 3 4 5 6 
#
# 1 0.067877 -0.017260 -0.007122 0.000000 0.000000 0.000000
# 2 -0.017260 0.013659 -0.004831 0.000000 0.000000 0.000000
# 3 -0.007122 -0.004831 0.021576 0.000000 0.000000 0.000000
# 4 0.000000 0.000000 0.000000 0.064506 0.000000 0.000000
# 5 0.000000 0.000000 0.000000 0.000000 -0.019091 0.000000
# 6 0.000000 0.000000 0.000000 0.000000 0.000000 0.033377
#
#
# Mechanical properties :
#
#
# Convention : Reuss Voigt Hill
#
# Bulk Modulus (GPa) = 22.37716 48.24559 35.31137
# Shear Modulus (GPa) = 19.59064 7.02967 13.31015
#
# Velocity S-wave (km/s) = 3.37844 2.02376 2.78473
# Velocity P-wave (km/s) = 5.31562 5.79393 5.55992
#
# Compressibility (1/GPa) = 0.04468843
#
# Stress axis : x y z
#
# Youngs Moduli (GPa) = 14.73260 73.21176 46.34722
#
# Poissons Ratio (x) = 1.26361 0.33006
# Poissons Ratio (y) = 0.25428 0.22388
# Poissons Ratio (z) = 0.10492 0.35365
#
# Static dielectric constant tensor:
#      x y z
#    x 1.588610 0.000000 0.000000 
#    y 0.000000 1.607410 0.000000 
#    z 0.000000 0.000000 1.562550 
# 
# From -- ./inp_files/68280.got.cif
#   From: 2010.05.17/outbox.cif.g08.bks.cpg/sg65_35_cif.got.tgz:68280.got - 2010.06.03 17:01:31.
