data_PCOD9485491
_publ_section_title
;
Structure prediction by ZEFSAII (Michael W. Deem and Ramdas Pophale) SiO2 
 PCOD9485491
Probable space group: C M M M
;
_chemical_formula_sum "Si O2"
_cell_formula_units_Z 104
_cell_length_a 23.786945
_cell_length_b 25.415590
_cell_length_c 7.807310
_cell_angle_alpha 90.000000
_cell_angle_beta 90.000000
_cell_angle_gamma 90.000000
_cell_volume 4719.981412
_symmetry_space_group_name_H-M "C M M M"
_symmetry_group_IT_number 65
_symmetry_cell_setting 'orthorhombic'
loop_
_space_group_symop_operation_xyz
x,y,z
-x,-y,z
x,-y,-z
-x,y,-z
-x,-y,-z
x,y,-z
-x,y,z
x,-y,z
1/2+x,1/2+y,z
1/2-x,1/2-y,z
1/2+x,1/2-y,-z
1/2-x,1/2+y,-z
1/2-x,1/2-y,-z
1/2+x,1/2+y,-z
1/2-x,1/2+y,z
1/2+x,1/2-y,z
loop_
_atom_site_type_symbol
_atom_site_label
_atom_site_fract_x
_atom_site_fract_y
_atom_site_fract_z
Si Si1 0.642473 0.557922 0.290885
Si Si2 0.500000 0.939629 0.208896
Si Si3 0.115758 0.384632 0.206660
Si Si4 0.599523 0.333282 0.691849
Si Si5 0.282578 0.700489 0.195721
Si Si6 0.735098 0.902874 0.702045
Si Si7 0.938107 0.280693 0.203601
O O1 0.640006 0.559784 0.500000
O O2 0.623611 0.500000 0.235711
O O3 0.605657 0.608011 0.228717
O O4 0.708965 0.564731 0.245310
O O5 0.557447 0.911371 0.261808
O O6 0.500000 0.000000 0.263047
O O7 0.500000 0.938003 0.000000
O O8 0.170256 0.416842 0.269367
O O9 0.108513 0.323034 0.264860
O O10 0.118860 0.385664 0.000000
O O11 0.577166 0.338992 0.500000
O O12 0.664665 0.316079 0.693638
O O13 0.571342 0.281542 0.769890
O O14 0.250000 0.750000 0.264457
O O15 0.241266 0.651462 0.196712
O O16 0.301570 0.711801 0.000000
O O17 0.741889 0.894030 0.500000
O O18 0.000000 0.293957 0.273966
O O19 0.939902 0.288640 0.000000
#
# Coordination Sequence:
#
# PCOD9485491 Si02
#       7
#    16   8  16  16  16  16  16
#     4   8  16  33  53  72 100 137 170 201 249 316
#     4   9  18  34  55  75  97 131 180 231 266 298
#     4  10  19  34  53  74 101 137 178 216 260 312
#     4  10  20  32  51  79 104 129 167 216 266 310
#     4  10  19  31  47  69  99 136 169 198 243 307
#     4  10  20  31  48  75 102 130 166 210 255 299
#     4  10  20  35  54  74 101 140 180 214 256 316
#
# _framework density 22.033985000000001
#
# number of rings (size 3 to 8) (size 9 to 14) (size 15 to 20)
#    0.000    2.385    0.769    3.231    0.000    6.462 
#    0.000    0.385    0.000   17.077    0.000    3.231 
#    0.000    0.000    0.000    0.000    0.000    0.000 
#
# Total GULP energy -289673.460089 kJ/mol
# GULP energy per Si atom -5570.643463 kJ/mol
# Density = 2.198383 g / cm^3
# Si number density = 22.033985 Si / 1000 Ang^3
#
#
#
# Elastic Constant Matrix: (Units=GPa)
#
#
# Indices 1 2 3 4 5 6 
#
# 1 39.1237 -11.0614 -0.5768 0.0000 0.0000 0.0000
# 2 -11.0614 112.1793 1.8064 0.0000 0.0000 0.0000
# 3 -0.5768 1.8064 34.6299 0.0000 0.0000 0.0000
# 4 0.0000 0.0000 0.0000 11.0761 0.0000 0.0000
# 5 0.0000 0.0000 0.0000 0.0000 21.2946 0.0000
# 6 0.0000 0.0000 0.0000 0.0000 0.0000 21.1084
#
#
#
# Elastic Compliance Matrix: (Units=1/GPa)
#
#
# Indices 1 2 3 4 5 6 
#
# 1 0.026296 0.002588 0.000303 0.000000 0.000000 0.000000
# 2 0.002588 0.009177 -0.000436 0.000000 0.000000 0.000000
# 3 0.000303 -0.000436 0.028905 0.000000 0.000000 0.000000
# 4 0.000000 0.000000 0.000000 0.090284 0.000000 0.000000
# 5 0.000000 0.000000 0.000000 0.000000 0.046960 0.000000
# 6 0.000000 0.000000 0.000000 0.000000 0.000000 0.047375
#
#
# Mechanical properties :
#
#
# Convention : Reuss Voigt Hill
#
# Bulk Modulus (GPa) = 14.43249 18.47437 16.45343
# Shear Modulus (GPa) = 18.71386 23.74679 21.23033
#
# Velocity S-wave (km/s) = 2.91747 3.28645 3.10744
# Velocity P-wave (km/s) = 4.23239 4.77532 4.51203
#
# Compressibility (1/GPa) = 0.06928812
#
# Stress axis : x y z
#
# Youngs Moduli (GPa) = 38.02835 108.97392 34.59660
#
# Poissons Ratio (x) = -0.28203 -0.01048
# Poissons Ratio (y) = -0.09842 0.01507
# Poissons Ratio (z) = -0.01152 0.04747
#
# Static dielectric constant tensor:
#      x y z
#    x 1.861010 0.000000 0.000000 
#    y 0.000000 1.852150 0.000000 
#    z 0.000000 0.000000 1.807100 
# 
# From -- ./inp_files/14754.got.cif
#   From: 2010.05.17/outbox.cif.g08.bks.cpg/sg65_8_cif.got.tgz:14754.got - 2010.06.03 17:01:31.
