data_PCOD9485714
_publ_section_title
;
Structure prediction by ZEFSAII (Michael W. Deem and Ramdas Pophale) SiO2 
 PCOD9485714
Probable space group: C M M M
;
_chemical_formula_sum "Si O2"
_cell_formula_units_Z 88
_cell_length_a 19.354307
_cell_length_b 8.732173
_cell_length_c 29.916068
_cell_angle_alpha 90.000000
_cell_angle_beta 90.000000
_cell_angle_gamma 90.000000
_cell_volume 5055.969770
_symmetry_space_group_name_H-M "C M M M"
_symmetry_group_IT_number 65
_symmetry_cell_setting 'orthorhombic'
loop_
_space_group_symop_operation_xyz
x,y,z
-x,-y,z
x,-y,-z
-x,y,-z
-x,-y,-z
x,y,-z
-x,y,z
x,-y,z
1/2+x,1/2+y,z
1/2-x,1/2-y,z
1/2+x,1/2-y,-z
1/2-x,1/2+y,-z
1/2-x,1/2-y,-z
1/2+x,1/2+y,-z
1/2-x,1/2+y,z
1/2+x,1/2-y,z
loop_
_atom_site_type_symbol
_atom_site_label
_atom_site_fract_x
_atom_site_fract_y
_atom_site_fract_z
Si Si1 0.828123 0.816738 0.451170
Si Si2 0.172059 0.683268 0.360951
Si Si3 0.672871 0.182893 0.262449
Si Si4 0.581150 0.316112 0.816249
Si Si5 0.579487 0.313479 0.917010
Si Si6 0.826845 0.814227 0.000000
O O1 0.859196 0.778180 0.500000
O O2 0.750000 0.750000 0.452151
O O3 0.861364 0.750491 0.405992
O O4 0.824215 0.000000 0.447613
O O5 0.175040 0.500000 0.364896
O O6 0.250000 0.750000 0.359884
O O7 0.143327 0.724033 0.311893
O O8 0.750000 0.250000 0.258708
O O9 0.626383 0.242348 0.222268
O O10 0.677688 0.000000 0.260815
O O11 0.500000 0.281206 0.810271
O O12 0.588903 0.500000 0.814159
O O13 0.600101 0.266236 0.866800
O O14 0.500000 0.265703 0.925336
O O15 0.578875 0.500000 0.917128
O O16 0.630739 0.264178 0.956017
O O17 0.750000 0.750000 0.000000
O O18 0.824612 0.000000 0.000000
#
# Coordination Sequence:
#
# PCOD9485714 Si02
#       6
#    16  16  16  16  16   8
#     4   9  15  21  31  49  74 106 143 181 222 269
#     4   9  16  25  37  54  78 110 147 185 225 271
#     4  10  20  32  47  68  94 125 160 196 237 285
#     4   9  18  33  52  73  96 122 156 198 240 283
#     4   8  15  30  52  73  91 119 160 196 226 269
#     4  10  19  31  49  73 101 128 154 190 232 272
#
# _framework density 17.405168
#
# number of rings (size 3 to 8) (size 9 to 14) (size 15 to 20)
#    0.000    2.909    0.000    4.091    0.000    5.455 
#    0.000    2.727    0.000    2.182    0.000    0.000 
#    0.000    0.727    0.000    8.000    0.000    8.909 
#
# Total GULP energy -244973.601234 kJ/mol
# GULP energy per Si atom -5567.581846 kJ/mol
# Density = 1.736555 g / cm^3
# Si number density = 17.405168 Si / 1000 Ang^3
#
#
#
# Elastic Constant Matrix: (Units=GPa)
#
#
# Indices 1 2 3 4 5 6 
#
# 1 47.1205 24.2230 83.2965 0.0000 0.0000 0.0000
# 2 24.2230 35.9511 53.2988 0.0000 0.0000 0.0000
# 3 83.2965 53.2988 227.4389 0.0000 0.0000 0.0000
# 4 0.0000 0.0000 0.0000 16.7545 0.0000 0.0000
# 5 0.0000 0.0000 0.0000 0.0000 -19.8008 0.0000
# 6 0.0000 0.0000 0.0000 0.0000 0.0000 19.5877
#
#
#
# Elastic Compliance Matrix: (Units=1/GPa)
#
#
# Indices 1 2 3 4 5 6 
#
# 1 0.063810 -0.012792 -0.020372 0.000000 0.000000 0.000000
# 2 -0.012792 0.045188 -0.005905 0.000000 0.000000 0.000000
# 3 -0.020372 -0.005905 0.013242 0.000000 0.000000 0.000000
# 4 0.000000 0.000000 0.000000 0.059685 0.000000 0.000000
# 5 0.000000 0.000000 0.000000 0.000000 -0.050503 0.000000
# 6 0.000000 0.000000 0.000000 0.000000 0.000000 0.051052
#
#
# Mechanical properties :
#
#
# Convention : Reuss Voigt Hill
#
# Bulk Modulus (GPa) = 22.67411 70.23859 46.45635
# Shear Modulus (GPa) = 18.16116 13.28777 15.72446
#
# Velocity S-wave (km/s) = 3.23373 2.76604 3.00898
# Velocity P-wave (km/s) = 5.19598 7.11645 6.23065
#
# Compressibility (1/GPa) = 0.04410317
#
# Stress axis : x y z
#
# Youngs Moduli (GPa) = 15.67146 22.12961 75.51992
#
# Poissons Ratio (x) = 0.28307 1.53850
# Poissons Ratio (y) = 0.20046 0.44593
# Poissons Ratio (z) = 0.31926 0.13067
#
# Static dielectric constant tensor:
#      x y z
#    x 1.553230 0.000000 0.000000 
#    y 0.000000 1.584880 0.000000 
#    z 0.000000 0.000000 1.658020 
# 
# From -- ./inp_files/77788.got.cif
#   From: 2010.05.17/outbox.cif.g08.bks.cpg/sg65_39_cif.got.tgz:77788.got - 2010.06.03 17:01:31.
