data_PCOD9485178
_publ_section_title
;
Structure prediction by ZEFSAII (Michael W. Deem and Ramdas Pophale) SiO2 
 PCOD9485178
Probable space group: C M M M
;
_chemical_formula_sum "Si O2"
_cell_formula_units_Z 120
_cell_length_a 7.567322
_cell_length_b 29.989934
_cell_length_c 28.507712
_cell_angle_alpha 90.000000
_cell_angle_beta 90.000000
_cell_angle_gamma 90.000000
_cell_volume 6469.639577
_symmetry_space_group_name_H-M "C M M M"
_symmetry_group_IT_number 65
_symmetry_cell_setting 'orthorhombic'
loop_
_space_group_symop_operation_xyz
x,y,z
-x,-y,z
x,-y,-z
-x,y,-z
-x,-y,-z
x,y,-z
-x,y,z
x,-y,z
1/2+x,1/2+y,z
1/2-x,1/2-y,z
1/2+x,1/2-y,-z
1/2-x,1/2+y,-z
1/2-x,1/2-y,-z
1/2+x,1/2+y,-z
1/2-x,1/2+y,z
1/2+x,1/2-y,z
loop_
_atom_site_type_symbol
_atom_site_label
_atom_site_fract_x
_atom_site_fract_y
_atom_site_fract_z
Si Si1 0.283129 0.642300 0.050944
Si Si2 0.289737 0.946913 0.628553
Si Si3 0.500000 0.446093 0.553126
Si Si4 0.207727 0.605754 0.720062
Si Si5 0.293702 0.549212 0.916321
Si Si6 0.209865 0.801412 0.244490
Si Si7 0.288457 0.698475 0.860826
Si Si8 0.786978 0.551396 0.808661
O O1 0.500000 0.642474 0.052357
O O2 0.221228 0.591379 0.056339
O O3 0.220372 0.669039 0.096411
O O4 0.231451 0.660470 0.000000
O O5 0.500000 0.939762 0.621012
O O6 0.172858 0.934389 0.583542
O O7 0.226180 0.918545 0.673406
O O8 0.265732 0.000000 0.637849
O O9 0.500000 0.500000 0.550307
O O10 0.500000 0.428697 0.500000
O O11 0.227572 0.658921 0.722129
O O12 0.280243 0.584187 0.768169
O O13 0.000000 0.595044 0.720733
O O14 0.500000 0.546294 0.929049
O O15 0.214717 0.500000 0.923404
O O16 0.283964 0.559882 0.860744
O O17 0.250000 0.750000 0.256836
O O18 0.281952 0.810486 0.191680
O O19 0.000000 0.804900 0.242520
O O20 0.500000 0.692282 0.858848
O O21 0.250000 0.750000 0.870697
O O22 0.744640 0.500000 0.796220
O O23 0.000000 0.554862 0.812151
#
# Coordination Sequence:
#
# PCOD9485178 Si02
#       8
#    16  16   8  16  16  16  16  16
#     4   9  17  29  45  64  85 108 136 177 230 283
#     4   9  18  32  49  73 108 146 182 223 265 306
#     4   9  18  32  50  74 106 146 192 232 263 303
#     4  10  19  30  47  70  98 132 164 201 243 296
#     4   9  17  29  44  63  85 108 143 187 222 268
#     4  10  20  33  49  68  93 125 158 196 239 293
#     4   9  18  32  48  65  85 111 144 181 227 282
#     4   9  17  29  45  65  91 124 157 186 227 283
#
# _framework density 18.548172999999998
#
# number of rings (size 3 to 8) (size 9 to 14) (size 15 to 20)
#    0.000    2.733    0.000    1.600    0.933    4.533 
#    0.000    3.333    0.000    1.200    0.000    1.867 
#    0.000    0.533    0.267    0.000    0.000    0.000 
#
# Total GULP energy -334654.787734 kJ/mol
# GULP energy per Si atom -5577.579796 kJ/mol
# Density = 1.850596 g / cm^3
# Si number density = 18.548173 Si / 1000 Ang^3
#
#
#
# Elastic Constant Matrix: (Units=GPa)
#
#
# Indices 1 2 3 4 5 6 
#
# 1 50.1958 5.9025 10.1180 0.0000 0.0000 0.0000
# 2 5.9025 68.7863 56.0202 0.0000 0.0000 0.0000
# 3 10.1180 56.0202 67.7975 0.0000 0.0000 0.0000
# 4 0.0000 0.0000 0.0000 16.1720 0.0000 0.0000
# 5 0.0000 0.0000 0.0000 0.0000 18.1908 0.0000
# 6 0.0000 0.0000 0.0000 0.0000 0.0000 14.1580
#
#
#
# Elastic Compliance Matrix: (Units=1/GPa)
#
#
# Indices 1 2 3 4 5 6 
#
# 1 0.020654 0.002256 -0.004947 0.000000 0.000000 0.000000
# 2 0.002256 0.044696 -0.037268 0.000000 0.000000 0.000000
# 3 -0.004947 -0.037268 0.046282 0.000000 0.000000 0.000000
# 4 0.000000 0.000000 0.000000 0.061835 0.000000 0.000000
# 5 0.000000 0.000000 0.000000 0.000000 0.054973 0.000000
# 6 0.000000 0.000000 0.000000 0.000000 0.000000 0.070631
#
#
# Mechanical properties :
#
#
# Convention : Reuss Voigt Hill
#
# Bulk Modulus (GPa) = 31.53120 36.76233 34.14677
# Shear Modulus (GPa) = 12.83498 17.35341 15.09420
#
# Velocity S-wave (km/s) = 2.63341 3.06205 2.85578
# Velocity P-wave (km/s) = 5.12669 5.68898 5.41514
#
# Compressibility (1/GPa) = 0.03171461
#
# Stress axis : x y z
#
# Youngs Moduli (GPa) = 48.41732 22.37346 21.60651
#
# Poissons Ratio (x) = -0.05048 0.10688
# Poissons Ratio (y) = -0.10925 0.80524
# Poissons Ratio (z) = 0.23951 0.83382
#
# Static dielectric constant tensor:
#      x y z
#    x 1.684040 0.000000 0.000000 
#    y 0.000000 1.642030 0.000000 
#    z 0.000000 0.000000 1.637280 
# 
# From -- ./inp_files/73873.got.cif
#   From: 2010.05.17/outbox.cif.g08.bks.cpg/sg65_37_cif.got.tgz:73873.got - 2010.06.03 17:01:31.
