data_PCOD9485475
_publ_section_title
;
Structure prediction by ZEFSAII (Michael W. Deem and Ramdas Pophale) SiO2 
 PCOD9485475
Probable space group: C M M M
;
_chemical_formula_sum "Si O2"
_cell_formula_units_Z 104
_cell_length_a 7.960109
_cell_length_b 26.543405
_cell_length_c 27.130318
_cell_angle_alpha 90.000000
_cell_angle_beta 90.000000
_cell_angle_gamma 90.000000
_cell_volume 5732.321401
_symmetry_space_group_name_H-M "C M M M"
_symmetry_group_IT_number 65
_symmetry_cell_setting 'orthorhombic'
loop_
_space_group_symop_operation_xyz
x,y,z
-x,-y,z
x,-y,-z
-x,y,-z
-x,-y,-z
x,y,-z
-x,y,z
x,-y,z
1/2+x,1/2+y,z
1/2-x,1/2-y,z
1/2+x,1/2-y,-z
1/2-x,1/2+y,-z
1/2-x,1/2-y,-z
1/2+x,1/2+y,-z
1/2-x,1/2+y,z
1/2+x,1/2-y,z
loop_
_atom_site_type_symbol
_atom_site_label
_atom_site_fract_x
_atom_site_fract_y
_atom_site_fract_z
Si Si1 0.702469 0.806266 0.272602
Si Si2 0.298768 0.595266 0.444204
Si Si3 0.797457 0.400696 0.210023
Si Si4 0.703449 0.500000 0.619000
Si Si5 0.194574 0.938735 0.000000
Si Si6 0.200525 0.693650 0.385378
Si Si7 0.797972 0.500000 0.733118
Si Si8 0.297002 0.442045 0.892809
O O1 0.500000 0.809024 0.274142
O O2 0.750000 0.750000 0.256875
O O3 0.764402 0.850076 0.236546
O O4 0.763980 0.813495 0.329005
O O5 0.232493 0.591939 0.500000
O O6 0.500000 0.589415 0.446793
O O7 0.235860 0.549933 0.409579
O O8 0.263308 0.649175 0.420023
O O9 0.734537 0.449774 0.239761
O O10 0.751606 0.407989 0.153141
O O11 0.000000 0.400503 0.213253
O O12 0.500000 0.500000 0.618089
O O13 0.756408 0.500000 0.675653
O O14 0.267823 0.924807 0.053322
O O15 0.000000 0.921769 0.000000
O O16 0.192807 0.000000 0.000000
O O17 0.250000 0.750000 0.401328
O O18 0.000000 0.690961 0.384257
O O19 0.000000 0.500000 0.737817
O O20 0.500000 0.443694 0.895859
O O21 0.239538 0.500000 0.883807
#
# Coordination Sequence:
#
# PCOD9485475 Si02
#       8
#    16  16  16   8   8  16   8  16
#     4   9  19  34  51  71  95 126 161 197 238 286
#     4  10  21  37  55  75 100 129 161 199 244 290
#     4  10  19  31  47  69 100 132 159 193 242 290
#     4  10  21  36  54  74  97 129 168 205 237 279
#     4   7  12  24  41  61  90 129 164 199 238 276
#     4  10  20  36  57  78 100 126 160 200 245 295
#     4  10  20  33  49  70 101 134 159 191 240 295
#     4   9  16  27  44  67  96 129 167 202 235 278
#
# _framework density 18.142737
#
# number of rings (size 3 to 8) (size 9 to 14) (size 15 to 20)
#    0.000    2.538    0.769    2.538    0.000    5.231 
#    0.000    0.385    0.000    2.769    0.000    0.538 
#    0.000    0.000    0.000    0.000    0.000    0.000 
#
# Total GULP energy -290034.973591 kJ/mol
# GULP energy per Si atom -5577.595646 kJ/mol
# Density = 1.810144 g / cm^3
# Si number density = 18.142737 Si / 1000 Ang^3
#
#
#
# Elastic Constant Matrix: (Units=GPa)
#
#
# Indices 1 2 3 4 5 6 
#
# 1 12.7292 0.4870 0.1566 0.0000 0.0000 0.0000
# 2 0.4870 101.2170 78.4650 0.0000 0.0000 0.0000
# 3 0.1566 78.4650 150.2555 0.0000 0.0000 0.0000
# 4 0.0000 0.0000 0.0000 24.1188 0.0000 0.0000
# 5 0.0000 0.0000 0.0000 0.0000 -93.8141 0.0000
# 6 0.0000 0.0000 0.0000 0.0000 0.0000 18.8826
#
#
#
# Elastic Compliance Matrix: (Units=1/GPa)
#
#
# Indices 1 2 3 4 5 6 
#
# 1 0.078577 -0.000529 0.000194 0.000000 0.000000 0.000000
# 2 -0.000529 0.016603 -0.008670 0.000000 0.000000 0.000000
# 3 0.000194 -0.008670 0.011183 0.000000 0.000000 0.000000
# 4 0.000000 0.000000 0.000000 0.041461 0.000000 0.000000
# 5 0.000000 0.000000 0.000000 0.000000 -0.010659 0.000000
# 6 0.000000 0.000000 0.000000 0.000000 0.000000 0.052959
#
#
# Mechanical properties :
#
#
# Convention : Reuss Voigt Hill
#
# Bulk Modulus (GPa) = 11.31805 46.93541 29.12673
# Shear Modulus (GPa) = 21.04519 2.17702 11.61110
#
# Velocity S-wave (km/s) = 3.40954 1.09661 2.53254
# Velocity P-wave (km/s) = 4.66389 5.24687 4.96394
#
# Compressibility (1/GPa) = 0.08835447
#
# Stress axis : x y z
#
# Youngs Moduli (GPa) = 12.72636 60.22887 89.42439
#
# Poissons Ratio (x) = 0.03183 -0.01736
# Poissons Ratio (y) = 0.00673 0.77530
# Poissons Ratio (z) = -0.00247 0.52218
#
# Static dielectric constant tensor:
#      x y z
#    x 1.658180 0.000000 0.000000 
#    y 0.000000 1.607460 0.000000 
#    z 0.000000 0.000000 1.635150 
# 
# From -- ./inp_files/73649.got.cif
#   From: 2010.05.17/outbox.cif.g08.bks.cpg/sg65_37_cif.got.tgz:73649.got - 2010.06.03 17:01:31.
