data_PCOD9485753
_publ_section_title
;
Structure prediction by ZEFSAII (Michael W. Deem and Ramdas Pophale) SiO2 
 PCOD9485753
Probable space group: C M M M
;
_chemical_formula_sum "Si O2"
_cell_formula_units_Z 96
_cell_length_a 25.630287
_cell_length_b 9.015831
_cell_length_c 22.246551
_cell_angle_alpha 90.000000
_cell_angle_beta 90.000000
_cell_angle_gamma 90.000000
_cell_volume 5140.695988
_symmetry_space_group_name_H-M "C M M M"
_symmetry_group_IT_number 65
_symmetry_cell_setting 'orthorhombic'
loop_
_space_group_symop_operation_xyz
x,y,z
-x,-y,z
x,-y,-z
-x,y,-z
-x,-y,-z
x,y,-z
-x,y,z
x,-y,z
1/2+x,1/2+y,z
1/2-x,1/2-y,z
1/2+x,1/2-y,-z
1/2-x,1/2+y,-z
1/2-x,1/2-y,-z
1/2+x,1/2+y,-z
1/2-x,1/2+y,z
1/2+x,1/2-y,z
loop_
_atom_site_type_symbol
_atom_site_label
_atom_site_fract_x
_atom_site_fract_y
_atom_site_fract_z
Si Si1 0.417712 0.821100 0.567244
Si Si2 0.802926 0.327068 0.403612
Si Si3 0.885220 0.179359 0.827378
Si Si4 0.805138 0.821764 0.930344
Si Si5 0.500000 0.322000 0.345544
Si Si6 0.195771 0.673858 0.740909
Si Si7 0.500000 0.319875 0.205333
O O1 0.437756 0.790539 0.500000
O O2 0.357533 0.772331 0.570537
O O3 0.450716 0.742652 0.618603
O O4 0.419639 0.000000 0.576242
O O5 0.798800 0.500000 0.418374
O O6 0.750000 0.250000 0.423583
O O7 0.807160 0.312245 0.331223
O O8 0.852463 0.221739 0.886723
O O9 0.852810 0.247145 0.772194
O O10 0.945542 0.228081 0.824763
O O11 0.884257 0.000000 0.822836
O O12 0.750000 0.750000 0.912125
O O13 0.799848 0.000000 0.927215
O O14 0.814940 0.781027 0.000000
O O15 0.500000 0.500000 0.348010
O O16 0.500000 0.276707 0.275664
O O17 0.196691 0.500000 0.756134
O O18 0.250000 0.750000 0.760268
O O19 0.500000 0.500000 0.203645
#
# Coordination Sequence:
#
# PCOD9485753 Si02
#       7
#    16  16  16  16   8  16   8
#     4  10  21  37  55  74  99 132 167 204 251 304
#     4   9  19  34  51  73 101 132 164 201 249 304
#     4  10  19  33  52  73 101 135 171 208 249 299
#     4   9  18  32  51  76 104 134 168 206 247 290
#     4  11  22  36  55  77 100 127 166 213 256 298
#     4  10  19  31  49  74 102 130 164 207 254 302
#     4   9  20  36  53  75 103 135 166 205 258 302
#
# _framework density 18.674513000000001
#
# number of rings (size 3 to 8) (size 9 to 14) (size 15 to 20)
#    0.000    2.333    0.000    2.500    0.000    5.000 
#    0.000    1.667    0.000    2.500    0.000    0.000 
#    0.000    4.000    0.000    0.000    0.000    0.000 
#
# Total GULP energy -267931.428362 kJ/mol
# GULP energy per Si atom -5581.904758 kJ/mol
# Density = 1.863201 g / cm^3
# Si number density = 18.674513 Si / 1000 Ang^3
#
#
#
# Elastic Constant Matrix: (Units=GPa)
#
#
# Indices 1 2 3 4 5 6 
#
# 1 185.6818 34.7351 68.7794 0.0000 0.0000 0.0000
# 2 34.7351 21.6960 30.6079 0.0000 0.0000 0.0000
# 3 68.7794 30.6079 81.9236 0.0000 0.0000 0.0000
# 4 0.0000 0.0000 0.0000 15.5058 0.0000 0.0000
# 5 0.0000 0.0000 0.0000 0.0000 11.2940 0.0000
# 6 0.0000 0.0000 0.0000 0.0000 0.0000 31.0358
#
#
#
# Elastic Compliance Matrix: (Units=1/GPa)
#
#
# Indices 1 2 3 4 5 6 
#
# 1 0.008335 -0.007342 -0.004255 0.000000 0.000000 0.000000
# 2 -0.007342 0.103929 -0.032665 0.000000 0.000000 0.000000
# 3 -0.004255 -0.032665 0.027983 0.000000 0.000000 0.000000
# 4 0.000000 0.000000 0.000000 0.064492 0.000000 0.000000
# 5 0.000000 0.000000 0.000000 0.000000 0.088542 0.000000
# 6 0.000000 0.000000 0.000000 0.000000 0.000000 0.032221
#
#
# Mechanical properties :
#
#
# Convention : Reuss Voigt Hill
#
# Bulk Modulus (GPa) = 19.33387 61.94958 40.64172
# Shear Modulus (GPa) = 11.59376 21.91241 16.75309
#
# Velocity S-wave (km/s) = 2.49436 3.42919 2.99843
# Velocity P-wave (km/s) = 4.32103 6.99460 5.81359
#
# Compressibility (1/GPa) = 0.05172271
#
# Stress axis : x y z
#
# Youngs Moduli (GPa) = 119.97636 9.62196 35.73634
#
# Poissons Ratio (x) = 0.07064 0.15204
# Poissons Ratio (y) = 0.88086 1.16734
# Poissons Ratio (z) = 0.51045 0.31430
#
# Static dielectric constant tensor:
#      x y z
#    x 1.647460 0.000000 0.000000 
#    y 0.000000 1.626750 0.000000 
#    z 0.000000 0.000000 1.649190 
# 
# From -- ./inp_files/71480.got.cif
#   From: 2010.05.17/outbox.cif.g08.bks.cpg/sg65_36_cif.got.tgz:71480.got - 2010.06.03 17:01:31.
