data_PCOD9485434
_publ_section_title
;
Structure prediction by ZEFSAII (Michael W. Deem and Ramdas Pophale) SiO2 
 PCOD9485434
Probable space group: C M M M
;
_chemical_formula_sum "Si O2"
_cell_formula_units_Z 72
_cell_length_a 8.793168
_cell_length_b 34.634643
_cell_length_c 16.059289
_cell_angle_alpha 90.000000
_cell_angle_beta 90.000000
_cell_angle_gamma 90.000000
_cell_volume 4890.828113
_symmetry_space_group_name_H-M "C M M M"
_symmetry_group_IT_number 65
_symmetry_cell_setting 'orthorhombic'
loop_
_space_group_symop_operation_xyz
x,y,z
-x,-y,z
x,-y,-z
-x,y,-z
-x,-y,-z
x,y,-z
-x,y,z
x,-y,z
1/2+x,1/2+y,z
1/2-x,1/2-y,z
1/2+x,1/2-y,-z
1/2-x,1/2+y,-z
1/2-x,1/2-y,-z
1/2+x,1/2+y,-z
1/2-x,1/2+y,z
1/2+x,1/2-y,z
loop_
_atom_site_type_symbol
_atom_site_label
_atom_site_fract_x
_atom_site_fract_y
_atom_site_fract_z
Si Si1 0.324505 0.500000 0.101055
Si Si2 0.683223 0.793456 0.316698
Si Si3 0.318177 0.081370 0.901608
Si Si4 0.817585 0.292881 0.500000
Si Si5 0.682958 0.707343 0.000000
Si Si6 0.682693 0.659179 0.836044
O O1 0.500000 0.500000 0.127438
O O2 0.242066 0.539503 0.126235
O O3 0.321367 0.500000 0.000000
O O4 0.500000 0.791387 0.310349
O O5 0.750000 0.750000 0.308461
O O6 0.725433 0.809168 0.409380
O O7 0.749238 0.820290 0.244807
O O8 0.500000 0.082707 0.895296
O O9 0.243959 0.116185 0.850945
O O10 0.277594 0.086204 0.000000
O O11 0.750000 0.250000 0.500000
O O12 0.000000 0.290460 0.500000
O O13 0.750000 0.750000 0.000000
O O14 0.729077 0.684082 0.917409
O O15 0.500000 0.709817 0.000000
O O16 0.500000 0.658882 0.831646
#
# Coordination Sequence:
#
# PCOD9485434 Si02
#       6
#     8  16  16   8   8  16
#     4   9  17  29  47  67  89 118 149 186 229 275
#     4  10  19  32  48  68  90 118 153 192 235 279
#     4  10  19  31  47  67  90 119 154 192 229 270
#     4   8  16  30  48  66  88 113 144 187 236 282
#     4  10  22  34  44  57  82 119 158 192 225 262
#     4  11  21  33  46  64  90 123 157 193 230 271
#
# _framework density 14.721432999999999
#
# number of rings (size 3 to 8) (size 9 to 14) (size 15 to 20)
#    0.000    2.111    1.111    3.000    0.000    6.667 
#    0.000    0.000    0.000    0.000    0.000    0.000 
#    0.000    0.889    0.000    9.556    0.000    4.222 
#
# Total GULP energy -200730.645918 kJ/mol
# GULP energy per Si atom -5575.851275 kJ/mol
# Density = 1.468793 g / cm^3
# Si number density = 14.721433 Si / 1000 Ang^3
#
#
#
# Elastic Constant Matrix: (Units=GPa)
#
#
# Indices 1 2 3 4 5 6 
#
# 1 51.3457 42.4597 43.3952 0.0000 0.0000 0.0000
# 2 42.4597 123.4170 66.4379 0.0000 0.0000 0.0000
# 3 43.3952 66.4379 125.5326 0.0000 0.0000 0.0000
# 4 0.0000 0.0000 0.0000 4.2436 0.0000 0.0000
# 5 0.0000 0.0000 0.0000 0.0000 17.1931 0.0000
# 6 0.0000 0.0000 0.0000 0.0000 0.0000 29.1960
#
#
#
# Elastic Compliance Matrix: (Units=1/GPa)
#
#
# Indices 1 2 3 4 5 6 
#
# 1 0.031212 -0.006894 -0.007141 0.000000 0.000000 0.000000
# 2 -0.006894 0.012853 -0.004420 0.000000 0.000000 0.000000
# 3 -0.007141 -0.004420 0.012774 0.000000 0.000000 0.000000
# 4 0.000000 0.000000 0.000000 0.235647 0.000000 0.000000
# 5 0.000000 0.000000 0.000000 0.000000 0.058163 0.000000
# 6 0.000000 0.000000 0.000000 0.000000 0.000000 0.034251
#
#
# Mechanical properties :
#
#
# Convention : Reuss Voigt Hill
#
# Bulk Modulus (GPa) = 50.17512 67.20898 58.69205
# Shear Modulus (GPa) = 11.66991 19.99337 15.83164
#
# Velocity S-wave (km/s) = 2.81857 3.68926 3.28291
# Velocity P-wave (km/s) = 6.68951 7.99377 7.37055
#
# Compressibility (1/GPa) = 0.01993020
#
# Stress axis : x y z
#
# Youngs Moduli (GPa) = 32.03911 77.80007 78.28590
#
# Poissons Ratio (x) = 0.53634 0.55904
# Poissons Ratio (y) = 0.22087 0.34599
# Poissons Ratio (z) = 0.22879 0.34384
#
# Static dielectric constant tensor:
#      x y z
#    x 1.492940 0.000000 0.000000 
#    y 0.000000 1.459050 0.000000 
#    z 0.000000 0.000000 1.496710 
# 
# From -- ./inp_files/37031.got.cif
#   From: 2010.05.17/outbox.cif.g08.bks.cpg/sg65_19_cif.got.tgz:37031.got - 2010.06.03 17:01:31.
