data_PCOD9485225
_publ_section_title
;
Structure prediction by ZEFSAII (Michael W. Deem and Ramdas Pophale) SiO2 
 PCOD9485225
Probable space group: C M M M
;
_chemical_formula_sum "Si O2"
_cell_formula_units_Z 104
_cell_length_a 27.190729
_cell_length_b 8.708194
_cell_length_c 22.604957
_cell_angle_alpha 90.000000
_cell_angle_beta 90.000000
_cell_angle_gamma 90.000000
_cell_volume 5352.450164
_symmetry_space_group_name_H-M "C M M M"
_symmetry_group_IT_number 65
_symmetry_cell_setting 'orthorhombic'
loop_
_space_group_symop_operation_xyz
x,y,z
-x,-y,z
x,-y,-z
-x,y,-z
-x,-y,-z
x,y,-z
-x,y,z
x,-y,z
1/2+x,1/2+y,z
1/2-x,1/2-y,z
1/2+x,1/2-y,-z
1/2-x,1/2+y,-z
1/2-x,1/2-y,-z
1/2+x,1/2+y,-z
1/2-x,1/2+y,z
1/2+x,1/2-y,z
loop_
_atom_site_type_symbol
_atom_site_label
_atom_site_fract_x
_atom_site_fract_y
_atom_site_fract_z
Si Si1 0.653362 0.182625 0.063633
Si Si2 0.695635 0.316829 0.184389
Si Si3 0.500000 0.813102 0.431072
Si Si4 0.944100 0.681540 0.879823
Si Si5 0.194684 0.183772 0.681465
Si Si6 0.402977 0.180258 0.360290
Si Si7 0.559170 0.326488 0.244626
O O1 0.672593 0.253842 0.124160
O O2 0.594710 0.205094 0.068575
O O3 0.663270 0.000000 0.065625
O O4 0.671747 0.241950 0.000000
O O5 0.695001 0.500000 0.181696
O O6 0.750000 0.250000 0.183636
O O7 0.678137 0.273431 0.250853
O O8 0.500000 0.773150 0.500000
O O9 0.551266 0.760636 0.400580
O O10 0.500000 0.000000 0.425608
O O11 0.942912 0.500000 0.864421
O O12 0.928501 0.774948 0.821597
O O13 0.000000 0.722122 0.895077
O O14 0.250000 0.250000 0.671556
O O15 0.151027 0.242333 0.638636
O O16 0.198028 0.000000 0.678346
O O17 0.422475 0.211108 0.294129
O O18 0.396870 0.000000 0.371923
O O19 0.500000 0.328211 0.247424
O O20 0.577306 0.500000 0.256448
#
# Coordination Sequence:
#
# PCOD9485225 Si02
#       7
#    16  16   8  16  16  16  16
#     4  10  21  35  50  70  97 131 173 220 269 324
#     4  10  21  37  57  78 102 133 170 215 272 330
#     4   9  20  38  59  87 123 163 204 239 274 319
#     4   9  18  32  50  71  97 131 172 218 268 326
#     4  10  21  37  58  87 119 149 185 232 288 345
#     4  11  20  33  57  85 116 154 194 236 279 330
#     4  10  19  30  47  74 108 140 175 223 280 337
#
# _framework density 19.430353
#
# number of rings (size 3 to 8) (size 9 to 14) (size 15 to 20)
#    0.000    2.077    0.769    2.769    0.000    6.462 
#    0.000    1.538    0.000    4.154    0.000    3.231 
#    0.000    0.000    0.000    0.000    0.000    0.000 
#
# Total GULP energy -289895.716993 kJ/mol
# GULP energy per Si atom -5574.917634 kJ/mol
# Density = 1.938613 g / cm^3
# Si number density = 19.430353 Si / 1000 Ang^3
#
#
#
# Elastic Constant Matrix: (Units=GPa)
#
#
# Indices 1 2 3 4 5 6 
#
# 1 112.1578 31.6742 68.9790 0.0000 0.0000 0.0000
# 2 31.6742 32.3073 23.2901 0.0000 0.0000 0.0000
# 3 68.9790 23.2901 76.3247 0.0000 0.0000 0.0000
# 4 0.0000 0.0000 0.0000 9.2474 0.0000 0.0000
# 5 0.0000 0.0000 0.0000 0.0000 -3.1482 0.0000
# 6 0.0000 0.0000 0.0000 0.0000 0.0000 25.8595
#
#
#
# Elastic Compliance Matrix: (Units=1/GPa)
#
#
# Indices 1 2 3 4 5 6 
#
# 1 0.022057 -0.009300 -0.017096 0.000000 0.000000 0.000000
# 2 -0.009300 0.043603 -0.004900 0.000000 0.000000 0.000000
# 3 -0.017096 -0.004900 0.030048 0.000000 0.000000 0.000000
# 4 0.000000 0.000000 0.000000 0.108139 0.000000 0.000000
# 5 0.000000 0.000000 0.000000 0.000000 -0.317643 0.000000
# 6 0.000000 0.000000 0.000000 0.000000 0.000000 0.038671
#
#
# Mechanical properties :
#
#
# Convention : Reuss Voigt Hill
#
# Bulk Modulus (GPa) = 30.19781 52.07515 41.13648
# Shear Modulus (GPa) = -3345.31777 12.84817 -1666.23480
#
# Velocity S-wave (km/s) = -41.53835 2.57425 -29.31559
# Velocity P-wave (km/s) = 47.80172 5.97451 33.53587
#
# Compressibility (1/GPa) = 0.03311498
#
# Stress axis : x y z
#
# Youngs Moduli (GPa) = 45.33734 22.93411 33.28015
#
# Poissons Ratio (x) = 0.21329 0.56896
# Poissons Ratio (y) = 0.42164 0.16308
# Poissons Ratio (z) = 0.77509 0.11238
#
# Static dielectric constant tensor:
#      x y z
#    x 1.740250 0.000000 0.000000 
#    y 0.000000 1.669080 0.000000 
#    z 0.000000 0.000000 1.661780 
# 
# From -- ./inp_files/71806.got.cif
#   From: 2010.05.17/outbox.cif.g08.bks.cpg/sg65_36_cif.got.tgz:71806.got - 2010.06.03 17:01:31.
