data_PCOD9485658
_publ_section_title
;
Structure prediction by ZEFSAII (Michael W. Deem and Ramdas Pophale) SiO2 
 PCOD9485658
Probable space group: C M M M
;
_chemical_formula_sum "Si O2"
_cell_formula_units_Z 80
_cell_length_a 19.929696
_cell_length_b 8.408088
_cell_length_c 26.933637
_cell_angle_alpha 90.000000
_cell_angle_beta 90.000000
_cell_angle_gamma 90.000000
_cell_volume 4513.286730
_symmetry_space_group_name_H-M "C M M M"
_symmetry_group_IT_number 65
_symmetry_cell_setting 'orthorhombic'
loop_
_space_group_symop_operation_xyz
x,y,z
-x,-y,z
x,-y,-z
-x,y,-z
-x,-y,-z
x,y,-z
-x,y,z
x,-y,z
1/2+x,1/2+y,z
1/2-x,1/2-y,z
1/2+x,1/2-y,-z
1/2-x,1/2+y,-z
1/2-x,1/2-y,-z
1/2+x,1/2+y,-z
1/2-x,1/2+y,z
1/2+x,1/2-y,z
loop_
_atom_site_type_symbol
_atom_site_label
_atom_site_fract_x
_atom_site_fract_y
_atom_site_fract_z
Si Si1 0.922771 0.808772 0.340434
Si Si2 0.674246 0.191027 0.856393
Si Si3 0.825908 0.809007 0.747537
Si Si4 0.077308 0.693876 0.944198
Si Si5 0.580127 0.809634 0.553793
O O1 0.875748 0.752236 0.295719
O O2 0.894931 0.761792 0.394640
O O3 0.000000 0.750189 0.335773
O O4 0.925015 0.000000 0.338247
O O5 0.750000 0.250000 0.864502
O O6 0.652632 0.250498 0.802046
O O7 0.626004 0.248190 0.900512
O O8 0.674378 0.000000 0.855833
O O9 0.750000 0.750000 0.739126
O O10 0.825244 0.000000 0.747750
O O11 0.078285 0.500000 0.943867
O O12 0.000000 0.741829 0.936003
O O13 0.097353 0.743856 0.000000
O O14 0.606844 0.753355 0.500000
O O15 0.500000 0.776257 0.553317
O O16 0.588019 0.000000 0.555588
#
# Coordination Sequence:
#
# PCOD9485658 Si02
#       5
#    16  16  16  16  16
#     4   9  18  31  47  69  94 120 152 189 231 277
#     4  10  19  31  49  71  93 120 155 192 230 273
#     4  10  20  34  50  67  92 125 157 191 231 275
#     4   8  15  29  48  70  96 124 154 189 228 270
#     4   8  14  25  42  66  95 123 150 184 227 271
#
# _framework density 17.725441
#
# number of rings (size 3 to 8) (size 9 to 14) (size 15 to 20)
#    0.000    3.000    0.000    3.600    0.000    3.200 
#    0.000    2.000    0.000    4.200    0.000    5.600 
#    0.000    0.000    0.000    0.000    0.000    0.000 
#
# Total GULP energy -222802.079103 kJ/mol
# GULP energy per Si atom -5570.051978 kJ/mol
# Density = 1.768510 g / cm^3
# Si number density = 17.725441 Si / 1000 Ang^3
#
#
#
# Elastic Constant Matrix: (Units=GPa)
#
#
# Indices 1 2 3 4 5 6 
#
# 1 59.4558 12.1672 99.1152 0.0000 0.0000 0.0000
# 2 12.1672 19.6726 24.1336 0.0000 0.0000 0.0000
# 3 99.1152 24.1336 217.8422 0.0000 0.0000 0.0000
# 4 0.0000 0.0000 0.0000 20.9057 0.0000 0.0000
# 5 0.0000 0.0000 0.0000 0.0000 40.3604 0.0000
# 6 0.0000 0.0000 0.0000 0.0000 0.0000 13.7201
#
#
#
# Elastic Compliance Matrix: (Units=1/GPa)
#
#
# Indices 1 2 3 4 5 6 
#
# 1 0.070043 -0.004890 -0.031327 0.000000 0.000000 0.000000
# 2 -0.004890 0.059168 -0.004330 0.000000 0.000000 0.000000
# 3 -0.031327 -0.004330 0.019323 0.000000 0.000000 0.000000
# 4 0.000000 0.000000 0.000000 0.047834 0.000000 0.000000
# 5 0.000000 0.000000 0.000000 0.000000 0.024777 0.000000
# 6 0.000000 0.000000 0.000000 0.000000 0.000000 0.072886
#
#
# Mechanical properties :
#
#
# Convention : Reuss Voigt Hill
#
# Bulk Modulus (GPa) = 14.82776 63.08918 38.95847
# Shear Modulus (GPa) = 12.57527 25.76755 19.17141
#
# Velocity S-wave (km/s) = 2.66643 3.81688 3.29230
# Velocity P-wave (km/s) = 4.22649 7.42257 6.03977
#
# Compressibility (1/GPa) = 0.06744107
#
# Stress axis : x y z
#
# Youngs Moduli (GPa) = 14.27693 16.90089 51.75053
#
# Poissons Ratio (x) = 0.08265 1.62118
# Poissons Ratio (y) = 0.06981 0.22408
# Poissons Ratio (z) = 0.44725 0.07318
#
# Static dielectric constant tensor:
#      x y z
#    x 1.584900 0.000000 0.000000 
#    y 0.000000 1.609430 0.000000 
#    z 0.000000 0.000000 1.618780 
# 
# From -- ./inp_files/75031.got.cif
#   From: 2010.05.17/outbox.cif.g08.bks.cpg/sg65_38_cif.got.tgz:75031.got - 2010.06.03 17:01:31.
