data_PCOD9485963
_publ_section_title
;
Structure prediction by ZEFSAII (Michael W. Deem and Ramdas Pophale) SiO2 
 PCOD9485963
Probable space group: C M M M
;
_chemical_formula_sum "Si O2"
_cell_formula_units_Z 72
_cell_length_a 16.201470
_cell_length_b 8.465630
_cell_length_c 26.727648
_cell_angle_alpha 90.000000
_cell_angle_beta 90.000000
_cell_angle_gamma 90.000000
_cell_volume 3665.847947
_symmetry_space_group_name_H-M "C M M M"
_symmetry_group_IT_number 65
_symmetry_cell_setting 'orthorhombic'
loop_
_space_group_symop_operation_xyz
x,y,z
-x,-y,z
x,-y,-z
-x,y,-z
-x,-y,-z
x,y,-z
-x,y,z
x,-y,z
1/2+x,1/2+y,z
1/2-x,1/2-y,z
1/2+x,1/2-y,-z
1/2-x,1/2+y,-z
1/2-x,1/2-y,-z
1/2+x,1/2+y,-z
1/2-x,1/2+y,z
1/2+x,1/2-y,z
loop_
_atom_site_type_symbol
_atom_site_label
_atom_site_fract_x
_atom_site_fract_y
_atom_site_fract_z
Si Si1 0.000000 0.310426 0.267714
Si Si2 0.157070 0.191380 0.000000
Si Si3 0.337690 0.689286 0.788981
Si Si4 0.160488 0.810782 0.558198
Si Si5 0.406474 0.307804 0.892498
Si Si6 0.000000 0.689186 0.383733
O O1 0.082659 0.247797 0.241155
O O2 0.000000 0.500000 0.265081
O O3 0.000000 0.261081 0.325760
O O4 0.250000 0.250000 0.000000
O O5 0.116520 0.246588 0.948104
O O6 0.153672 0.000000 0.000000
O O7 0.337715 0.500000 0.788435
O O8 0.250000 0.750000 0.769475
O O9 0.349493 0.744871 0.846739
O O10 0.151587 0.759810 0.500000
O O11 0.250000 0.750000 0.576082
O O12 0.082582 0.749807 0.589162
O O13 0.160923 0.000000 0.559542
O O14 0.500000 0.261263 0.880675
O O15 0.403698 0.500000 0.893472
O O16 0.000000 0.500000 0.385692
#
# Coordination Sequence:
#
# PCOD9485963 Si02
#       6
#     8   8  16  16  16   8
#     4  11  25  44  62  86 117 154 203 254 303 354
#     4  10  19  31  51  77 111 146 182 228 280 346
#     4  11  22  39  63  88 116 152 196 245 299 360
#     4  10  21  38  62  93 128 165 204 244 290 348
#     4   9  17  32  55  82 109 144 189 233 284 349
#     4  11  24  40  61  88 121 159 202 252 303 354
#
# _framework density 19.640749
#
# number of rings (size 3 to 8) (size 9 to 14) (size 15 to 20)
#    0.000    1.778    1.111    3.333    0.000    6.667 
#    0.000    1.111    0.000    0.667    0.000    0.000 
#    0.000    0.000    0.000    0.000    0.000    0.000 
#
# Total GULP energy -201077.304871 kJ/mol
# GULP energy per Si atom -5585.480691 kJ/mol
# Density = 1.959605 g / cm^3
# Si number density = 19.640749 Si / 1000 Ang^3
#
#
#
# Elastic Constant Matrix: (Units=GPa)
#
#
# Indices 1 2 3 4 5 6 
#
# 1 190.9104 33.8011 87.7871 0.0000 0.0000 0.0000
# 2 33.8011 34.2735 33.2550 0.0000 0.0000 0.0000
# 3 87.7871 33.2550 121.7016 0.0000 0.0000 0.0000
# 4 0.0000 0.0000 0.0000 19.7477 0.0000 0.0000
# 5 0.0000 0.0000 0.0000 0.0000 1.9841 0.0000
# 6 0.0000 0.0000 0.0000 0.0000 0.0000 37.6915
#
#
#
# Elastic Compliance Matrix: (Units=1/GPa)
#
#
# Indices 1 2 3 4 5 6 
#
# 1 0.008080 -0.003148 -0.004968 0.000000 0.000000 0.000000
# 2 -0.003148 0.040930 -0.008913 0.000000 0.000000 0.000000
# 3 -0.004968 -0.008913 0.014236 0.000000 0.000000 0.000000
# 4 0.000000 0.000000 0.000000 0.050639 0.000000 0.000000
# 5 0.000000 0.000000 0.000000 0.000000 0.504010 0.000000
# 6 0.000000 0.000000 0.000000 0.000000 0.000000 0.026531
#
#
# Mechanical properties :
#
#
# Convention : Reuss Voigt Hill
#
# Bulk Modulus (GPa) = 34.26175 72.95246 53.60711
# Shear Modulus (GPa) = 7.26518 24.68748 15.97633
#
# Velocity S-wave (km/s) = 1.92537 3.54920 2.85516
# Velocity P-wave (km/s) = 4.73549 7.34982 6.18242
#
# Compressibility (1/GPa) = 0.02918706
#
# Stress axis : x y z
#
# Youngs Moduli (GPa) = 123.76338 24.43181 70.24429
#
# Poissons Ratio (x) = 0.07691 0.34898
# Poissons Ratio (y) = 0.38962 0.62611
# Poissons Ratio (z) = 0.61487 0.21777
#
# Static dielectric constant tensor:
#      x y z
#    x 1.661080 0.000000 0.000000 
#    y 0.000000 1.666320 0.000000 
#    z 0.000000 0.000000 1.712930 
# 
# From -- ./inp_files/74674.got.cif
#   From: 2010.05.17/outbox.cif.g08.bks.cpg/sg65_38_cif.got.tgz:74674.got - 2010.06.03 17:01:31.
