data_PCOD9485125
_publ_section_title
;
Structure prediction by ZEFSAII (Michael W. Deem and Ramdas Pophale) SiO2 
 PCOD9485125
Probable space group: C M M M
;
_chemical_formula_sum "Si O2"
_cell_formula_units_Z 96
_cell_length_a 27.102794
_cell_length_b 15.804136
_cell_length_c 14.605442
_cell_angle_alpha 90.000000
_cell_angle_beta 90.000000
_cell_angle_gamma 90.000000
_cell_volume 6256.040144
_symmetry_space_group_name_H-M "C M M M"
_symmetry_group_IT_number 65
_symmetry_cell_setting 'orthorhombic'
loop_
_space_group_symop_operation_xyz
x,y,z
-x,-y,z
x,-y,-z
-x,y,-z
-x,-y,-z
x,y,-z
-x,y,z
x,-y,z
1/2+x,1/2+y,z
1/2-x,1/2-y,z
1/2+x,1/2-y,-z
1/2-x,1/2+y,-z
1/2-x,1/2-y,-z
1/2+x,1/2+y,-z
1/2-x,1/2+y,z
1/2+x,1/2-y,z
loop_
_atom_site_type_symbol
_atom_site_label
_atom_site_fract_x
_atom_site_fract_y
_atom_site_fract_z
Si Si1 0.631208 0.642736 0.893659
Si Si2 0.444542 0.500000 0.888868
Si Si3 0.309973 0.253865 0.395466
Si Si4 0.391489 0.158838 0.107971
Si Si5 0.203685 0.902961 0.261549
Si Si6 0.678535 0.097175 0.731392
Si Si7 0.000000 0.596974 0.110724
O O1 0.586274 0.582887 0.862706
O O2 0.617929 0.740983 0.885817
O O3 0.678015 0.619591 0.833487
O O4 0.640725 0.623943 0.000000
O O5 0.500000 0.500000 0.853282
O O6 0.447254 0.500000 0.000000
O O7 0.327501 0.258928 0.500000
O O8 0.250000 0.250000 0.398563
O O9 0.318197 0.337698 0.335432
O O10 0.330658 0.170992 0.343376
O O11 0.353542 0.114483 0.177572
O O12 0.447978 0.139165 0.136282
O O13 0.385183 0.133928 0.000000
O O14 0.262682 0.894198 0.251050
O O15 0.193537 0.000000 0.286907
O O16 0.669772 0.000000 0.700575
O O17 0.000000 0.500000 0.142372
O O18 0.000000 0.597316 0.000000
#
# Coordination Sequence:
#
# PCOD9485125 Si02
#       7
#    16   8  16  16  16  16   8
#     4  10  19  30  46  69  99 133 163 195 236 283
#     4   9  18  30  46  68  97 131 167 202 235 273
#     4   9  18  33  50  69  96 126 158 201 249 291
#     4  10  20  32  48  70  98 131 166 201 238 282
#     4  10  19  32  49  71 100 130 162 198 237 290
#     4  10  20  32  49  72  98 129 164 199 238 288
#     4   9  18  32  48  65  92 126 161 203 244 278
#
# _framework density 15.345171000000001
#
# number of rings (size 3 to 8) (size 9 to 14) (size 15 to 20)
#    0.000    2.333    2.500    0.500    1.167    2.333 
#    0.000    6.667    0.000    0.000    0.000    0.583 
#    0.000    2.667    0.000    0.000    0.000    0.000 
#
# Total GULP energy -267301.757486 kJ/mol
# GULP energy per Si atom -5568.786614 kJ/mol
# Density = 1.531024 g / cm^3
# Si number density = 15.345171 Si / 1000 Ang^3
#
#
#
# Elastic Constant Matrix: (Units=GPa)
#
#
# Indices 1 2 3 4 5 6 
#
# 1 50.8543 43.0429 40.2690 0.0000 0.0000 0.0000
# 2 43.0429 115.3591 57.3037 0.0000 0.0000 0.0000
# 3 40.2690 57.3037 82.7452 0.0000 0.0000 0.0000
# 4 0.0000 0.0000 0.0000 11.5481 0.0000 0.0000
# 5 0.0000 0.0000 0.0000 0.0000 0.6586 0.0000
# 6 0.0000 0.0000 0.0000 0.0000 0.0000 18.3296
#
#
#
# Elastic Compliance Matrix: (Units=1/GPa)
#
#
# Indices 1 2 3 4 5 6 
#
# 1 0.035434 -0.007096 -0.012330 0.000000 0.000000 0.000000
# 2 -0.007096 0.014636 -0.006682 0.000000 0.000000 0.000000
# 3 -0.012330 -0.006682 0.022713 0.000000 0.000000 0.000000
# 4 0.000000 0.000000 0.000000 0.086594 0.000000 0.000000
# 5 0.000000 0.000000 0.000000 0.000000 1.518391 0.000000
# 6 0.000000 0.000000 0.000000 0.000000 0.000000 0.054557
#
#
# Mechanical properties :
#
#
# Convention : Reuss Voigt Hill
#
# Bulk Modulus (GPa) = 48.62368 58.90998 53.76683
# Shear Modulus (GPa) = 2.79112 13.33012 8.06062
#
# Velocity S-wave (km/s) = 1.35013 2.95054 2.29440
# Velocity P-wave (km/s) = 5.84687 7.07678 6.49102
#
# Compressibility (1/GPa) = 0.02056611
#
# Stress axis : x y z
#
# Youngs Moduli (GPa) = 28.22174 68.32626 44.02684
#
# Poissons Ratio (x) = 0.48486 0.54285
# Poissons Ratio (y) = 0.20027 0.29419
# Poissons Ratio (z) = 0.34797 0.45657
#
# Static dielectric constant tensor:
#      x y z
#    x 1.497620 0.000000 0.000000 
#    y 0.000000 1.535220 0.000000 
#    z 0.000000 0.000000 1.496530 
# 
# From -- ./inp_files/33874.got.cif
#   From: 2010.05.17/outbox.cif.g08.bks.cpg/sg65_17_cif.got.tgz:33874.got - 2010.06.03 17:01:31.
