data_PCOD9485091
_publ_section_title
;
Structure prediction by ZEFSAII (Michael W. Deem and Ramdas Pophale) SiO2 
 PCOD9485091
Probable space group: C M M M
;
_chemical_formula_sum "Si O2"
_cell_formula_units_Z 96
_cell_length_a 25.907383
_cell_length_b 8.863624
_cell_length_c 26.172413
_cell_angle_alpha 90.000000
_cell_angle_beta 90.000000
_cell_angle_gamma 90.000000
_cell_volume 6010.057612
_symmetry_space_group_name_H-M "C M M M"
_symmetry_group_IT_number 65
_symmetry_cell_setting 'orthorhombic'
loop_
_space_group_symop_operation_xyz
x,y,z
-x,-y,z
x,-y,-z
-x,y,-z
-x,-y,-z
x,y,-z
-x,y,z
x,-y,z
1/2+x,1/2+y,z
1/2-x,1/2-y,z
1/2+x,1/2-y,-z
1/2-x,1/2+y,-z
1/2-x,1/2-y,-z
1/2+x,1/2+y,-z
1/2-x,1/2+y,z
1/2+x,1/2-y,z
loop_
_atom_site_type_symbol
_atom_site_label
_atom_site_fract_x
_atom_site_fract_y
_atom_site_fract_z
Si Si1 0.692610 0.818618 0.357907
Si Si2 0.892122 0.681509 0.440991
Si Si3 0.000000 0.173826 0.562032
Si Si4 0.307543 0.319100 0.746314
Si Si5 0.192948 0.818534 0.859747
Si Si6 0.392081 0.318020 0.940777
Si Si7 0.000000 0.326703 0.937968
O O1 0.750000 0.750000 0.364459
O O2 0.655025 0.775679 0.404333
O O3 0.669669 0.755479 0.304522
O O4 0.696654 0.000000 0.355205
O O5 0.883669 0.729730 0.500000
O O6 0.895766 0.500000 0.440781
O O7 0.946774 0.747031 0.422330
O O8 0.000000 0.180543 0.500000
O O9 0.000000 0.000000 0.577713
O O10 0.305508 0.500000 0.740208
O O11 0.250000 0.250000 0.748058
O O12 0.328801 0.284030 0.802816
O O13 0.250000 0.750000 0.865227
O O14 0.154003 0.767774 0.903850
O O15 0.197913 0.000000 0.862557
O O16 0.394255 0.500000 0.939658
O O17 0.447155 0.254729 0.922746
O O18 0.383617 0.272359 0.000000
O O19 0.000000 0.500000 0.921507
O O20 0.000000 0.323030 0.000000
#
# Coordination Sequence:
#
# PCOD9485091 Si02
#       7
#    16  16   8  16  16  16   8
#     4  10  19  30  46  68  92 119 151 184 220 263
#     4   9  18  32  48  66  91 122 150 178 219 269
#     4   9  17  29  47  70  91 114 149 188 220 255
#     4   9  16  28  45  63  86 116 151 187 220 257
#     4   9  18  30  45  67  92 119 150 182 219 264
#     4   9  17  30  47  66  90 120 150 180 219 267
#     4   9  17  29  45  66  89 114 149 188 222 259
#
# _framework density 15.973224999999999
#
# number of rings (size 3 to 8) (size 9 to 14) (size 15 to 20)
#    0.000    2.833    0.000    2.500    0.000    5.333 
#    0.000    0.000    0.000    1.000    0.000    1.167 
#    0.000    0.000    0.000    0.000    0.000    0.000 
#
# Total GULP energy -267224.533090 kJ/mol
# GULP energy per Si atom -5567.177773 kJ/mol
# Density = 1.593687 g / cm^3
# Si number density = 15.973225 Si / 1000 Ang^3
#
#
#
# Elastic Constant Matrix: (Units=GPa)
#
#
# Indices 1 2 3 4 5 6 
#
# 1 108.0129 31.8168 73.5720 0.0000 0.0000 0.0000
# 2 31.8168 32.9457 33.6525 0.0000 0.0000 0.0000
# 3 73.5720 33.6525 107.7457 0.0000 0.0000 0.0000
# 4 0.0000 0.0000 0.0000 17.6373 0.0000 0.0000
# 5 0.0000 0.0000 0.0000 0.0000 -1.0764 0.0000
# 6 0.0000 0.0000 0.0000 0.0000 0.0000 18.4070
#
#
#
# Elastic Compliance Matrix: (Units=1/GPa)
#
#
# Indices 1 2 3 4 5 6 
#
# 1 0.018418 -0.007256 -0.010310 0.000000 0.000000 0.000000
# 2 -0.007256 0.047432 -0.009860 0.000000 0.000000 0.000000
# 3 -0.010310 -0.009860 0.019401 0.000000 0.000000 0.000000
# 4 0.000000 0.000000 0.000000 0.056698 0.000000 0.000000
# 5 0.000000 0.000000 0.000000 0.000000 -0.929042 0.000000
# 6 0.000000 0.000000 0.000000 0.000000 0.000000 0.054327
#
#
# Mechanical properties :
#
#
# Convention : Reuss Voigt Hill
#
# Bulk Modulus (GPa) = 32.89613 58.53188 45.71401
# Shear Modulus (GPa) = -7.48749 14.30444 3.40848
#
# Velocity S-wave (km/s) = -2.16742 2.99578 1.46236
# Velocity P-wave (km/s) = 3.79152 6.97779 5.61539
#
# Compressibility (1/GPa) = 0.03039871
#
# Stress axis : x y z
#
# Youngs Moduli (GPa) = 54.29416 21.08298 51.54378
#
# Poissons Ratio (x) = 0.15297 0.53143
# Poissons Ratio (y) = 0.39393 0.50823
# Poissons Ratio (z) = 0.55979 0.20788
#
# Static dielectric constant tensor:
#      x y z
#    x 1.510300 0.000000 0.000000 
#    y 0.000000 1.537810 0.000000 
#    z 0.000000 0.000000 1.565480 
# 
# From -- ./inp_files/75723.got.cif
#   From: 2010.05.17/outbox.cif.g08.bks.cpg/sg65_38_cif.got.tgz:75723.got - 2010.06.03 17:01:31.
