data_PCOD9485800
_publ_section_title
;
Structure prediction by ZEFSAII (Michael W. Deem and Ramdas Pophale) SiO2 
 PCOD9485800
Probable space group: C M M M
;
_chemical_formula_sum "Si O2"
_cell_formula_units_Z 72
_cell_length_a 7.730739
_cell_length_b 25.930043
_cell_length_c 17.753902
_cell_angle_alpha 90.000000
_cell_angle_beta 90.000000
_cell_angle_gamma 90.000000
_cell_volume 3558.918694
_symmetry_space_group_name_H-M "C M M M"
_symmetry_group_IT_number 65
_symmetry_cell_setting 'orthorhombic'
loop_
_space_group_symop_operation_xyz
x,y,z
-x,-y,z
x,-y,-z
-x,y,-z
-x,-y,-z
x,y,-z
-x,y,z
x,-y,z
1/2+x,1/2+y,z
1/2-x,1/2-y,z
1/2+x,1/2-y,-z
1/2-x,1/2+y,-z
1/2-x,1/2-y,-z
1/2+x,1/2+y,-z
1/2-x,1/2+y,z
1/2+x,1/2-y,z
loop_
_atom_site_type_symbol
_atom_site_label
_atom_site_fract_x
_atom_site_fract_y
_atom_site_fract_z
Si Si1 0.806288 0.057866 0.409113
Si Si2 0.000000 0.444584 0.801057
Si Si3 0.299208 0.695878 0.144322
Si Si4 0.000000 0.362785 0.410968
Si Si5 0.201965 0.082783 0.914385
Si Si6 0.000000 0.329925 0.258266
O O1 0.815140 0.055064 0.500000
O O2 0.667392 0.101654 0.395022
O O3 0.000000 0.069448 0.380689
O O4 0.758077 0.000000 0.383372
O O5 0.167906 0.441228 0.854756
O O6 0.000000 0.500000 0.761573
O O7 0.000000 0.392185 0.753453
O O8 0.500000 0.697137 0.167069
O O9 0.250000 0.750000 0.106074
O O10 0.275967 0.644770 0.094362
O O11 0.168704 0.690232 0.214533
O O12 0.000000 0.348626 0.500000
O O13 0.000000 0.319199 0.347106
O O14 0.000000 0.071013 0.899281
O O15 0.241650 0.067533 0.000000
#
# Coordination Sequence:
#
# PCOD9485800 Si02
#       6
#    16   8  16   8  16   8
#     4   8  14  25  42  66  96 129 164 204 256 315
#     4  10  21  36  52  73 110 157 193 217 249 301
#     4  10  19  35  58  81 105 137 174 214 274 329
#     4  10  19  31  50  73 100 132 172 223 279 323
#     4   9  19  34  52  80 114 142 178 224 261 304
#     4  10  22  37  54  79 107 138 181 226 264 330
#
# _framework density 20.230862999999999
#
# number of rings (size 3 to 8) (size 9 to 14) (size 15 to 20)
#    0.000    2.667    1.111    1.333    0.000    4.889 
#    0.000    1.111    0.000    0.667    0.000    0.000 
#    0.000    0.000    0.000    0.000    0.000    0.000 
#
# Total GULP energy -200770.929492 kJ/mol
# GULP energy per Si atom -5576.970264 kJ/mol
# Density = 2.018482 g / cm^3
# Si number density = 20.230863 Si / 1000 Ang^3
#
#
#
# Elastic Constant Matrix: (Units=GPa)
#
#
# Indices 1 2 3 4 5 6 
#
# 1 85.9636 4.4196 31.5676 0.0000 0.0000 0.0000
# 2 4.4196 66.3659 -7.6422 0.0000 0.0000 0.0000
# 3 31.5676 -7.6422 67.8591 0.0000 0.0000 0.0000
# 4 0.0000 0.0000 0.0000 -2.7582 0.0000 0.0000
# 5 0.0000 0.0000 0.0000 0.0000 18.5071 0.0000
# 6 0.0000 0.0000 0.0000 0.0000 0.0000 12.3724
#
#
#
# Elastic Compliance Matrix: (Units=1/GPa)
#
#
# Indices 1 2 3 4 5 6 
#
# 1 0.014223 -0.001732 -0.006812 0.000000 0.000000 0.000000
# 2 -0.001732 0.015477 0.002548 0.000000 0.000000 0.000000
# 3 -0.006812 0.002548 0.018192 0.000000 0.000000 0.000000
# 4 0.000000 0.000000 0.000000 -0.362554 0.000000 0.000000
# 5 0.000000 0.000000 0.000000 0.000000 0.054033 0.000000
# 6 0.000000 0.000000 0.000000 0.000000 0.000000 0.080825
#
#
# Mechanical properties :
#
#
# Convention : Reuss Voigt Hill
#
# Bulk Modulus (GPa) = 27.85296 30.76429 29.30863
# Shear Modulus (GPa) = -32.08289 18.41383 -6.83453
#
# Velocity S-wave (km/s) = -3.98658 3.02020 -1.84000
# Velocity P-wave (km/s) = 2.71900 5.23467 3.16297
#
# Compressibility (1/GPa) = 0.03590282
#
# Stress axis : x y z
#
# Youngs Moduli (GPa) = 70.30770 64.61299 54.96894
#
# Poissons Ratio (x) = 0.11188 0.37442
# Poissons Ratio (y) = 0.12174 -0.14009
# Poissons Ratio (z) = 0.47890 -0.16467
#
# Static dielectric constant tensor:
#      x y z
#    x 1.720860 0.000000 0.000000 
#    y 0.000000 1.743770 0.000000 
#    z 0.000000 0.000000 1.698290 
# 
# From -- ./inp_files/36657.got.cif
#   From: 2010.05.17/outbox.cif.g08.bks.cpg/sg65_19_cif.got.tgz:36657.got - 2010.06.03 17:01:31.
