data_PCOD9485737
_publ_section_title
;
Structure prediction by ZEFSAII (Michael W. Deem and Ramdas Pophale) SiO2 
 PCOD9485737
Probable space group: C M M M
;
_chemical_formula_sum "Si O2"
_cell_formula_units_Z 72
_cell_length_a 15.326666
_cell_length_b 8.954898
_cell_length_c 26.361608
_cell_angle_alpha 90.000000
_cell_angle_beta 90.000000
_cell_angle_gamma 90.000000
_cell_volume 3618.097237
_symmetry_space_group_name_H-M "C M M M"
_symmetry_group_IT_number 65
_symmetry_cell_setting 'orthorhombic'
loop_
_space_group_symop_operation_xyz
x,y,z
-x,-y,z
x,-y,-z
-x,y,-z
-x,-y,-z
x,y,-z
-x,y,z
x,-y,z
1/2+x,1/2+y,z
1/2-x,1/2-y,z
1/2+x,1/2-y,-z
1/2-x,1/2+y,-z
1/2-x,1/2-y,-z
1/2+x,1/2+y,-z
1/2-x,1/2+y,z
1/2+x,1/2-y,z
loop_
_atom_site_type_symbol
_atom_site_label
_atom_site_fract_x
_atom_site_fract_y
_atom_site_fract_z
Si Si1 0.000000 0.681931 0.442037
Si Si2 0.105832 0.829005 0.732308
Si Si3 0.893212 0.325730 0.164374
Si Si4 0.104204 0.680748 0.054419
Si Si5 0.159617 0.321697 0.371522
O O1 0.916097 0.728235 0.409770
O O2 0.000000 0.500000 0.443078
O O3 0.000000 0.734170 0.500000
O O4 0.135203 0.765872 0.786638
O O5 0.138254 0.732241 0.685299
O O6 0.000000 0.824731 0.731888
O O7 0.133972 0.000000 0.725800
O O8 0.869063 0.500000 0.169788
O O9 0.862756 0.266350 0.109257
O O10 0.000000 0.321821 0.163358
O O11 0.112846 0.500000 0.055171
O O12 0.000000 0.710816 0.053704
O O13 0.139732 0.735600 0.000000
O O14 0.164285 0.500000 0.372093
O O15 0.250000 0.250000 0.387506
#
# Coordination Sequence:
#
# PCOD9485737 Si02
#       5
#     8  16  16  16  16
#     4   9  20  40  65  91 121 157 192 227 272 327
#     4  10  19  31  49  73 105 142 184 233 282 333
#     4   8  13  21  36  59  87 124 172 221 274 334
#     4   7   9  14  26  47  77 114 159 213 268 322
#     4  11  22  38  61  88 118 153 192 233 279 331
#
# _framework density 19.899963
#
# number of rings (size 3 to 8) (size 9 to 14) (size 15 to 20)
#    0.000    3.000    1.111    3.333    0.000    1.333 
#    0.000    0.000    0.000    5.333    0.000    4.667 
#    0.000    0.889    0.000    2.444    0.000    6.222 
#
# Total GULP energy -200721.995226 kJ/mol
# GULP energy per Si atom -5575.610979 kJ/mol
# Density = 1.985467 g / cm^3
# Si number density = 19.899963 Si / 1000 Ang^3
#
#
#
# Elastic Constant Matrix: (Units=GPa)
#
#
# Indices 1 2 3 4 5 6 
#
# 1 74.1618 27.6599 62.5681 0.0000 0.0000 0.0000
# 2 27.6599 54.3552 43.9448 0.0000 0.0000 0.0000
# 3 62.5681 43.9448 196.8287 0.0000 0.0000 0.0000
# 4 0.0000 0.0000 0.0000 -1.0028 0.0000 0.0000
# 5 0.0000 0.0000 0.0000 0.0000 -16.8937 0.0000
# 6 0.0000 0.0000 0.0000 0.0000 0.0000 15.6351
#
#
#
# Elastic Compliance Matrix: (Units=1/GPa)
#
#
# Indices 1 2 3 4 5 6 
#
# 1 0.019974 -0.006139 -0.004979 0.000000 0.000000 0.000000
# 2 -0.006139 0.024337 -0.003482 0.000000 0.000000 0.000000
# 3 -0.004979 -0.003482 0.007441 0.000000 0.000000 0.000000
# 4 0.000000 0.000000 0.000000 -0.997226 0.000000 0.000000
# 5 0.000000 0.000000 0.000000 0.000000 -0.059194 0.000000
# 6 0.000000 0.000000 0.000000 0.000000 0.000000 0.063959
#
#
# Mechanical properties :
#
#
# Convention : Reuss Voigt Hill
#
# Bulk Modulus (GPa) = 44.34260 65.96569 55.15415
# Shear Modulus (GPa) = -5.53102 12.29260 3.38079
#
# Velocity S-wave (km/s) = -1.66897 2.48809 1.30483
# Velocity P-wave (km/s) = 4.31477 6.44009 5.48142
#
# Compressibility (1/GPa) = 0.02255168
#
# Stress axis : x y z
#
# Youngs Moduli (GPa) = 50.06475 41.09038 134.39740
#
# Poissons Ratio (x) = 0.25226 0.66913
# Poissons Ratio (y) = 0.30735 0.46797
# Poissons Ratio (z) = 0.24926 0.14308
#
# Static dielectric constant tensor:
#      x y z
#    x 1.751750 0.000000 0.000000 
#    y 0.000000 1.661950 0.000000 
#    z 0.000000 0.000000 1.719320 
# 
# From -- ./inp_files/70335.got.cif
#   From: 2010.05.17/outbox.cif.g08.bks.cpg/sg65_36_cif.got.tgz:70335.got - 2010.06.03 17:01:31.
