data_PCOD9485673
_publ_section_title
;
Structure prediction by ZEFSAII (Michael W. Deem and Ramdas Pophale) SiO2 
 PCOD9485673
Probable space group: C M M M
;
_chemical_formula_sum "Si O2"
_cell_formula_units_Z 80
_cell_length_a 15.958107
_cell_length_b 29.139193
_cell_length_c 7.490449
_cell_angle_alpha 90.000000
_cell_angle_beta 90.000000
_cell_angle_gamma 90.000000
_cell_volume 3483.106423
_symmetry_space_group_name_H-M "C M M M"
_symmetry_group_IT_number 65
_symmetry_cell_setting 'orthorhombic'
loop_
_space_group_symop_operation_xyz
x,y,z
-x,-y,z
x,-y,-z
-x,y,-z
-x,-y,-z
x,y,-z
-x,y,z
x,-y,z
1/2+x,1/2+y,z
1/2-x,1/2-y,z
1/2+x,1/2-y,-z
1/2-x,1/2+y,-z
1/2-x,1/2-y,-z
1/2+x,1/2+y,-z
1/2-x,1/2+y,z
1/2+x,1/2-y,z
loop_
_atom_site_type_symbol
_atom_site_label
_atom_site_fract_x
_atom_site_fract_y
_atom_site_fract_z
Si Si1 0.903500 0.629823 0.781380
Si Si2 0.330926 0.773761 0.796328
Si Si3 0.401860 0.318364 0.699215
Si Si4 0.595869 0.419273 0.794669
Si Si5 0.773990 0.449133 0.218056
O O1 0.870611 0.680062 0.721270
O O2 0.837914 0.590702 0.724580
O O3 0.000000 0.622604 0.725065
O O4 0.904862 0.630068 0.000000
O O5 0.250000 0.750000 0.710088
O O6 0.390889 0.729994 0.794768
O O7 0.306911 0.786038 0.000000
O O8 0.364874 0.317067 0.500000
O O9 0.500000 0.324299 0.681815
O O10 0.376176 0.365515 0.792276
O O11 0.500000 0.424481 0.720337
O O12 0.677916 0.443471 0.716076
O O13 0.589215 0.434123 0.000000
O O14 0.804530 0.500000 0.264939
O O15 0.770494 0.446343 0.000000
#
# Coordination Sequence:
#
# PCOD9485673 Si02
#       5
#    16  16  16  16  16
#     4   9  17  28  43  66  96 129 163 198 240 291
#     4  10  19  31  49  71  97 131 168 204 243 291
#     4  10  20  32  47  70 100 131 162 197 239 290
#     4   9  17  30  49  72  99 131 163 196 240 294
#     4   9  17  29  46  69  95 122 158 205 249 289
#
# _framework density 22.968001999999998
#
# number of rings (size 3 to 8) (size 9 to 14) (size 15 to 20)
#    0.000    2.600    0.000    2.400    0.000    6.400 
#    0.000    4.000    0.000    0.600    0.000    2.800 
#    0.000    0.000    0.000    8.600    0.000    8.800 
#
# Total GULP energy -222844.890675 kJ/mol
# GULP energy per Si atom -5571.122267 kJ/mol
# Density = 2.291573 g / cm^3
# Si number density = 22.968002 Si / 1000 Ang^3
#
#
#
# Elastic Constant Matrix: (Units=GPa)
#
#
# Indices 1 2 3 4 5 6 
#
# 1 142.0069 66.7637 9.3061 0.0000 0.0000 0.0000
# 2 66.7637 126.8617 -6.1494 0.0000 0.0000 0.0000
# 3 9.3061 -6.1494 62.6552 0.0000 0.0000 0.0000
# 4 0.0000 0.0000 0.0000 -136.6717 0.0000 0.0000
# 5 0.0000 0.0000 0.0000 0.0000 -16.2604 0.0000
# 6 0.0000 0.0000 0.0000 0.0000 0.0000 27.1818
#
#
#
# Elastic Compliance Matrix: (Units=1/GPa)
#
#
# Indices 1 2 3 4 5 6 
#
# 1 0.009583 -0.005137 -0.001928 0.000000 0.000000 0.000000
# 2 -0.005137 0.010674 0.001811 0.000000 0.000000 0.000000
# 3 -0.001928 0.001811 0.016424 0.000000 0.000000 0.000000
# 4 0.000000 0.000000 0.000000 -0.007317 0.000000 0.000000
# 5 0.000000 0.000000 0.000000 0.000000 -0.061499 0.000000
# 6 0.000000 0.000000 0.000000 0.000000 0.000000 0.036789
#
#
# Mechanical properties :
#
#
# Convention : Reuss Voigt Hill
#
# Bulk Modulus (GPa) = 38.20631 52.37387 45.29009
# Shear Modulus (GPa) = 209.31821 -7.70985 100.80418
#
# Velocity S-wave (km/s) = 9.55681 -1.83414 6.63206
# Velocity P-wave (km/s) = 11.76637 4.28568 8.85479
#
# Compressibility (1/GPa) = 0.02617369
#
# Stress axis : x y z
#
# Youngs Moduli (GPa) = 104.34824 93.68784 60.88519
#
# Poissons Ratio (x) = 0.48126 0.11736
# Poissons Ratio (y) = 0.53602 -0.11024
# Poissons Ratio (z) = 0.20114 -0.16963
#
# Static dielectric constant tensor:
#      x y z
#    x 2.031280 0.000000 0.000000 
#    y 0.000000 1.908880 0.000000 
#    z 0.000000 0.000000 1.949380 
# 
# From -- ./inp_files/9633.got.cif
#   From: 2010.05.17/outbox.cif.g08.bks.cpg/sg65_5_cif.got.tgz:9633.got - 2010.06.03 17:01:31.
