data_PCOD9485545
_publ_section_title
;
Structure prediction by ZEFSAII (Michael W. Deem and Ramdas Pophale) SiO2 
 PCOD9485545
Probable space group: C M M M
;
_chemical_formula_sum "Si O2"
_cell_formula_units_Z 88
_cell_length_a 31.658497
_cell_length_b 7.839304
_cell_length_c 17.956618
_cell_angle_alpha 90.000000
_cell_angle_beta 90.000000
_cell_angle_gamma 90.000000
_cell_volume 4456.483909
_symmetry_space_group_name_H-M "C M M M"
_symmetry_group_IT_number 65
_symmetry_cell_setting 'orthorhombic'
loop_
_space_group_symop_operation_xyz
x,y,z
-x,-y,z
x,-y,-z
-x,y,-z
-x,-y,-z
x,y,-z
-x,y,z
x,-y,z
1/2+x,1/2+y,z
1/2-x,1/2-y,z
1/2+x,1/2-y,-z
1/2-x,1/2+y,-z
1/2-x,1/2-y,-z
1/2+x,1/2+y,-z
1/2-x,1/2+y,z
1/2+x,1/2-y,z
loop_
_atom_site_type_symbol
_atom_site_label
_atom_site_fract_x
_atom_site_fract_y
_atom_site_fract_z
Si Si1 0.795756 0.295681 0.743473
Si Si2 0.047433 0.205954 0.914235
Si Si3 0.910019 0.197333 0.628653
Si Si4 0.500000 0.695607 0.411676
Si Si5 0.181117 0.700129 0.580971
Si Si6 0.114063 0.702496 0.789999
O O1 0.797682 0.500000 0.737948
O O2 0.750000 0.250000 0.773673
O O3 0.800546 0.225882 0.658307
O O4 0.836620 0.242924 0.791435
O O5 0.084873 0.263664 0.860673
O O6 0.000000 0.261850 0.890399
O O7 0.047229 0.000000 0.913624
O O8 0.053487 0.260947 0.000000
O O9 0.955589 0.275241 0.611179
O O10 0.869482 0.284477 0.591689
O O11 0.904214 0.206488 0.717158
O O12 0.909730 0.000000 0.603163
O O13 0.500000 0.500000 0.380486
O O14 0.500000 0.685151 0.500000
O O15 0.193069 0.774496 0.500000
O O16 0.192150 0.500000 0.579280
O O17 0.113288 0.500000 0.775047
#
# Coordination Sequence:
#
# PCOD9485545 Si02
#       6
#    16  16  16   8  16  16
#     4   9  19  34  51  73 101 133 173 219 266 314
#     4   9  19  36  58  85 115 143 172 207 247 295
#     4  10  19  31  48  69  94 130 175 219 259 305
#     4   9  18  30  43  63  92 125 166 217 261 294
#     4   9  18  33  49  67  97 131 164 214 275 325
#     4  10  21  36  53  77 108 139 171 211 258 309
#
# _framework density 19.746509
#
# number of rings (size 3 to 8) (size 9 to 14) (size 15 to 20)
#    0.000    2.636    0.000    3.273    1.273    5.818 
#    0.000    2.273    0.000    3.818    0.000    0.000 
#    0.000    0.000    0.000    0.000    0.000    0.000 
#
# Total GULP energy -245316.082296 kJ/mol
# GULP energy per Si atom -5575.365507 kJ/mol
# Density = 1.970157 g / cm^3
# Si number density = 19.746509 Si / 1000 Ang^3
#
#
#
# Elastic Constant Matrix: (Units=GPa)
#
#
# Indices 1 2 3 4 5 6 
#
# 1 155.5788 1.0106 55.4571 0.0000 0.0000 0.0000
# 2 1.0106 30.8382 4.4675 0.0000 0.0000 0.0000
# 3 55.4571 4.4675 74.5162 0.0000 0.0000 0.0000
# 4 0.0000 0.0000 0.0000 1.6854 0.0000 0.0000
# 5 0.0000 0.0000 0.0000 0.0000 2.6938 0.0000
# 6 0.0000 0.0000 0.0000 0.0000 0.0000 -69.5747
#
#
#
# Elastic Compliance Matrix: (Units=1/GPa)
#
#
# Indices 1 2 3 4 5 6 
#
# 1 0.008762 0.000663 -0.006561 0.000000 0.000000 0.000000
# 2 0.000663 0.032762 -0.002458 0.000000 0.000000 0.000000
# 3 -0.006561 -0.002458 0.018450 0.000000 0.000000 0.000000
# 4 0.000000 0.000000 0.000000 0.593332 0.000000 0.000000
# 5 0.000000 0.000000 0.000000 0.000000 0.371226 0.000000
# 6 0.000000 0.000000 0.000000 0.000000 0.000000 -0.014373
#
#
# Mechanical properties :
#
#
# Convention : Reuss Voigt Hill
#
# Bulk Modulus (GPa) = 23.11440 42.53374 32.82407
# Shear Modulus (GPa) = 4.80173 0.29410 2.54791
#
# Velocity S-wave (km/s) = 1.56108 0.38634 1.13715
# Velocity P-wave (km/s) = 3.87043 4.66751 4.28754
#
# Compressibility (1/GPa) = 0.04326307
#
# Stress axis : x y z
#
# Youngs Moduli (GPa) = 114.13085 30.52352 54.20104
#
# Poissons Ratio (x) = -0.02025 0.35559
# Poissons Ratio (y) = -0.07570 0.13322
# Poissons Ratio (z) = 0.74877 0.07502
#
# Static dielectric constant tensor:
#      x y z
#    x 1.728750 0.000000 0.000000 
#    y 0.000000 1.739680 0.000000 
#    z 0.000000 0.000000 1.677980 
# 
# From -- ./inp_files/50384.got.cif
#   From: 2010.05.17/outbox.cif.g08.bks.cpg/sg65_26_cif.got.tgz:50384.got - 2010.06.03 17:01:31.
