data_PCOD9485905
_publ_section_title
;
Structure prediction by ZEFSAII (Michael W. Deem and Ramdas Pophale) SiO2 
 PCOD9485905
Probable space group: C M M M
;
_chemical_formula_sum "Si O2"
_cell_formula_units_Z 104
_cell_length_a 24.456525
_cell_length_b 8.121973
_cell_length_c 26.792956
_cell_angle_alpha 90.000000
_cell_angle_beta 90.000000
_cell_angle_gamma 90.000000
_cell_volume 5322.025131
_symmetry_space_group_name_H-M "C M M M"
_symmetry_group_IT_number 65
_symmetry_cell_setting 'orthorhombic'
loop_
_space_group_symop_operation_xyz
x,y,z
-x,-y,z
x,-y,-z
-x,y,-z
-x,-y,-z
x,y,-z
-x,y,z
x,-y,z
1/2+x,1/2+y,z
1/2-x,1/2-y,z
1/2+x,1/2-y,-z
1/2-x,1/2+y,-z
1/2-x,1/2-y,-z
1/2+x,1/2+y,-z
1/2-x,1/2+y,z
1/2+x,1/2-y,z
loop_
_atom_site_type_symbol
_atom_site_label
_atom_site_fract_x
_atom_site_fract_y
_atom_site_fract_z
Si Si1 0.380130 0.692863 0.444141
Si Si2 0.117216 0.301686 0.852047
Si Si3 0.000000 0.300452 0.184284
Si Si4 0.187336 0.696981 0.757414
Si Si5 0.000000 0.685255 0.559086
Si Si6 0.000000 0.801619 0.700051
Si Si7 0.310841 0.303575 0.056669
Si Si8 0.381632 0.698860 0.338122
O O1 0.369031 0.764007 0.500000
O O2 0.366329 0.500000 0.447260
O O3 0.444904 0.713150 0.433064
O O4 0.358101 0.761788 0.391546
O O5 0.116417 0.500000 0.849725
O O6 0.154874 0.241075 0.806246
O O7 0.144266 0.253782 0.904116
O O8 0.055436 0.243297 0.842497
O O9 0.000000 0.500000 0.184312
O O10 0.000000 0.245470 0.241832
O O11 0.184864 0.500000 0.757792
O O12 0.250000 0.750000 0.758725
O O13 0.156950 0.757167 0.707814
O O14 0.000000 0.500000 0.581377
O O15 0.000000 0.661298 0.500000
O O16 0.943335 0.741161 0.675193
O O17 0.000000 0.000000 0.696147
O O18 0.311637 0.500000 0.055103
O O19 0.250000 0.250000 0.072948
O O20 0.319257 0.240104 0.000000
O O21 0.384393 0.500000 0.341791
#
# Coordination Sequence:
#
# PCOD9485905 Si02
#       8
#    16  16   8  16   8   8  16  16
#     4   9  17  30  48  69  98 137 176 217 267 325
#     4  10  21  37  59  85 114 149 187 226 272 327
#     4  10  20  37  56  80 114 148 186 226 267 324
#     4  11  23  38  57  81 109 141 179 226 279 328
#     4   9  16  25  39  64  97 130 167 210 254 305
#     4  10  19  31  50  78 110 145 180 218 267 322
#     4  10  21  37  59  87 118 152 192 237 281 323
#     4  10  20  34  53  79 109 140 180 223 269 329
#
# _framework density 19.541433000000001
#
# number of rings (size 3 to 8) (size 9 to 14) (size 15 to 20)
#    0.000    2.077    1.538    2.077    0.000    6.769 
#    0.000    1.154    0.000    2.769    0.000    0.000 
#    0.000    0.000    0.000    0.000    0.000    0.000 
#
# Total GULP energy -289968.861507 kJ/mol
# GULP energy per Si atom -5576.324260 kJ/mol
# Density = 1.949696 g / cm^3
# Si number density = 19.541433 Si / 1000 Ang^3
#
#
#
# Elastic Constant Matrix: (Units=GPa)
#
#
# Indices 1 2 3 4 5 6 
#
# 1 126.0401 12.5180 83.6203 0.0000 0.0000 0.0000
# 2 12.5180 18.2074 11.5187 0.0000 0.0000 0.0000
# 3 83.6203 11.5187 155.2430 0.0000 0.0000 0.0000
# 4 0.0000 0.0000 0.0000 18.5532 0.0000 0.0000
# 5 0.0000 0.0000 0.0000 0.0000 -4.2433 0.0000
# 6 0.0000 0.0000 0.0000 0.0000 0.0000 -14.6685
#
#
#
# Elastic Compliance Matrix: (Units=1/GPa)
#
#
# Indices 1 2 3 4 5 6 
#
# 1 0.012706 -0.004623 -0.006501 0.000000 0.000000 0.000000
# 2 -0.004623 0.059310 -0.001911 0.000000 0.000000 0.000000
# 3 -0.006501 -0.001911 0.010085 0.000000 0.000000 0.000000
# 4 0.000000 0.000000 0.000000 0.053899 0.000000 0.000000
# 5 0.000000 0.000000 0.000000 0.000000 -0.235666 0.000000
# 6 0.000000 0.000000 0.000000 0.000000 0.000000 -0.068174
#
#
# Mechanical properties :
#
#
# Convention : Reuss Voigt Hill
#
# Bulk Modulus (GPa) = 17.84699 57.20049 37.52374
# Shear Modulus (GPa) = -40.61964 12.71718 -13.95123
#
# Velocity S-wave (km/s) = -4.56416 2.55381 -2.67485
# Velocity P-wave (km/s) = 4.31540 6.16692 3.11514
#
# Compressibility (1/GPa) = 0.05603185
#
# Stress axis : x y z
#
# Youngs Moduli (GPa) = 78.70169 16.86063 99.15690
#
# Poissons Ratio (x) = 0.07795 0.64463
# Poissons Ratio (y) = 0.36383 0.18945
# Poissons Ratio (z) = 0.51165 0.03221
#
# Static dielectric constant tensor:
#      x y z
#    x 1.616550 0.000000 0.000000 
#    y 0.000000 1.698980 0.000000 
#    z 0.000000 0.000000 1.724140 
# 
# From -- ./inp_files/71909.got.cif
#   From: 2010.05.17/outbox.cif.g08.bks.cpg/sg65_36_cif.got.tgz:71909.got - 2010.06.03 17:01:31.
