data_PCOD9485817
_publ_section_title
;
Structure prediction by ZEFSAII (Michael W. Deem and Ramdas Pophale) SiO2 
 PCOD9485817
Probable space group: C M M M
;
_chemical_formula_sum "Si O2"
_cell_formula_units_Z 96
_cell_length_a 15.318025
_cell_length_b 14.989370
_cell_length_c 19.624882
_cell_angle_alpha 90.000000
_cell_angle_beta 90.000000
_cell_angle_gamma 90.000000
_cell_volume 4506.020965
_symmetry_space_group_name_H-M "C M M M"
_symmetry_group_IT_number 65
_symmetry_cell_setting 'orthorhombic'
loop_
_space_group_symop_operation_xyz
x,y,z
-x,-y,z
x,-y,-z
-x,y,-z
-x,-y,-z
x,y,-z
-x,y,z
x,-y,z
1/2+x,1/2+y,z
1/2-x,1/2-y,z
1/2+x,1/2-y,-z
1/2-x,1/2+y,-z
1/2-x,1/2-y,-z
1/2+x,1/2+y,-z
1/2-x,1/2+y,z
1/2+x,1/2-y,z
loop_
_atom_site_type_symbol
_atom_site_label
_atom_site_fract_x
_atom_site_fract_y
_atom_site_fract_z
Si Si1 0.901648 0.108261 0.080278
Si Si2 0.593036 0.627962 0.282764
Si Si3 0.852620 0.644024 0.424510
Si Si4 0.645778 0.359754 0.572640
Si Si5 0.403397 0.157371 0.272504
Si Si6 0.743783 0.401200 0.180737
O O1 0.818457 0.143261 0.123068
O O2 0.000000 0.140025 0.099879
O O3 0.902219 0.000000 0.089093
O O4 0.891104 0.125906 0.000000
O O5 0.500000 0.599757 0.254070
O O6 0.600368 0.603383 0.361335
O O7 0.597514 0.735488 0.280161
O O8 0.674595 0.593327 0.242060
O O9 0.885367 0.612273 0.500000
O O10 0.749523 0.623452 0.422816
O O11 0.863337 0.751694 0.426578
O O12 0.887817 0.618320 0.349388
O O13 0.613329 0.391860 0.500000
O O14 0.500000 0.129210 0.250187
O O15 0.329317 0.137858 0.216729
O O16 0.767675 0.500000 0.155750
#
# Coordination Sequence:
#
# PCOD9485817 Si02
#       6
#    16  16  16  16  16  16
#     4   8  15  30  53  80 105 127 158 201 244 287
#     4  10  19  31  50  74 100 131 166 207 252 303
#     4   8  13  24  44  67  90 120 166 222 262 284
#     4   8  13  23  42  67  93 121 158 210 260 296
#     4  10  20  33  50  72 100 136 174 211 250 293
#     4  11  21  33  52  76 104 133 159 199 249 298
#
# _framework density 21.304827
#
# number of rings (size 3 to 8) (size 9 to 14) (size 15 to 20)
#    0.000    2.833    1.667    2.500    0.000    2.000 
#    0.000    3.333    0.000    4.500    0.000    7.000 
#    0.000    0.000    0.000    0.000    0.000    0.000 
#
# Total GULP energy -267457.556874 kJ/mol
# GULP energy per Si atom -5572.032435 kJ/mol
# Density = 2.125634 g / cm^3
# Si number density = 21.304827 Si / 1000 Ang^3
#
#
#
# Elastic Constant Matrix: (Units=GPa)
#
#
# Indices 1 2 3 4 5 6 
#
# 1 149.8799 20.1644 75.5561 0.0000 0.0000 0.0000
# 2 20.1644 38.3282 7.4995 0.0000 0.0000 0.0000
# 3 75.5561 7.4995 136.2378 0.0000 0.0000 0.0000
# 4 0.0000 0.0000 0.0000 14.3686 0.0000 0.0000
# 5 0.0000 0.0000 0.0000 0.0000 81.8147 0.0000
# 6 0.0000 0.0000 0.0000 0.0000 0.0000 -47.0946
#
#
#
# Elastic Compliance Matrix: (Units=1/GPa)
#
#
# Indices 1 2 3 4 5 6 
#
# 1 0.009879 -0.004170 -0.005249 0.000000 0.000000 0.000000
# 2 -0.004170 0.028135 0.000764 0.000000 0.000000 0.000000
# 3 -0.005249 0.000764 0.010209 0.000000 0.000000 0.000000
# 4 0.000000 0.000000 0.000000 0.069596 0.000000 0.000000
# 5 0.000000 0.000000 0.000000 0.000000 0.012223 0.000000
# 6 0.000000 0.000000 0.000000 0.000000 0.000000 -0.021234
#
#
# Mechanical properties :
#
#
# Convention : Reuss Voigt Hill
#
# Bulk Modulus (GPa) = 32.34961 58.98732 45.66847
# Shear Modulus (GPa) = 36.65034 24.56614 30.60824
#
# Velocity S-wave (km/s) = 4.15213 3.39938 3.79447
# Velocity P-wave (km/s) = 6.18094 6.56926 6.37806
#
# Compressibility (1/GPa) = 0.03091227
#
# Stress axis : x y z
#
# Youngs Moduli (GPa) = 101.22099 35.54291 97.94968
#
# Poissons Ratio (x) = 0.14823 0.51418
# Poissons Ratio (y) = 0.42213 -0.07484
# Poissons Ratio (z) = 0.53135 -0.02716
#
# Static dielectric constant tensor:
#      x y z
#    x 1.766460 0.000000 0.000000 
#    y 0.000000 1.836630 0.000000 
#    z 0.000000 0.000000 1.797210 
# 
# From -- ./inp_files/62960.got.cif
#   From: 2010.05.17/outbox.cif.g08.bks.cpg/sg65_32_cif.got.tgz:62960.got - 2010.06.03 17:01:31.
