data_PCOD9485765
_publ_section_title
;
Structure prediction by ZEFSAII (Michael W. Deem and Ramdas Pophale) SiO2 
 PCOD9485765
Probable space group: C M M M
;
_chemical_formula_sum "Si O2"
_cell_formula_units_Z 72
_cell_length_a 14.849853
_cell_length_b 18.473083
_cell_length_c 12.034611
_cell_angle_alpha 90.000000
_cell_angle_beta 90.000000
_cell_angle_gamma 90.000000
_cell_volume 3301.365382
_symmetry_space_group_name_H-M "C M M M"
_symmetry_group_IT_number 65
_symmetry_cell_setting 'orthorhombic'
loop_
_space_group_symop_operation_xyz
x,y,z
-x,-y,z
x,-y,-z
-x,y,-z
-x,-y,-z
x,y,-z
-x,y,z
x,-y,z
1/2+x,1/2+y,z
1/2-x,1/2-y,z
1/2+x,1/2-y,-z
1/2-x,1/2+y,-z
1/2-x,1/2-y,-z
1/2+x,1/2+y,-z
1/2-x,1/2+y,z
1/2+x,1/2-y,z
loop_
_atom_site_type_symbol
_atom_site_label
_atom_site_fract_x
_atom_site_fract_y
_atom_site_fract_z
Si Si1 0.889466 0.000000 0.371778
Si Si2 0.638563 0.082259 0.000000
Si Si3 0.389435 0.780702 0.627498
Si Si4 0.892906 0.858822 0.240972
Si Si5 0.647181 0.583645 0.000000
Si Si6 0.394352 0.918044 0.245084
O O1 0.857853 0.071493 0.307839
O O2 0.862518 0.000000 0.500000
O O3 0.000000 0.000000 0.369147
O O4 0.745499 0.079252 0.000000
O O5 0.611192 0.112891 0.880832
O O6 0.601874 0.000000 0.000000
O O7 0.364202 0.767260 0.500000
O O8 0.500000 0.782418 0.631004
O O9 0.358335 0.716028 0.707869
O O10 0.356515 0.858347 0.671799
O O11 0.879206 0.874330 0.111312
O O12 0.000000 0.857393 0.259789
O O13 0.612277 0.500000 0.000000
O O14 0.500000 0.925171 0.270868
O O15 0.355500 0.000000 0.247409
#
# Coordination Sequence:
#
# PCOD9485765 Si02
#       6
#     8   8  16  16   8  16
#     4   9  16  27  47  71  95 130 173 210 244 289
#     4   9  19  34  53  76 102 133 165 211 260 308
#     4   9  18  32  51  78 108 133 164 212 260 300
#     4  10  19  31  49  74 105 137 172 211 251 295
#     4  11  21  34  51  74 103 139 175 216 258 295
#     4   9  17  32  56  81 102 129 165 206 255 314
#
# _framework density 21.809159000000001
#
# number of rings (size 3 to 8) (size 9 to 14) (size 15 to 20)
#    0.000    2.556    1.111    1.333    0.000    5.778 
#    0.000    7.778    0.000    4.000    0.000    0.000 
#    0.000    0.000    0.000    0.000    0.000    0.000 
#
# Total GULP energy -200942.630504 kJ/mol
# GULP energy per Si atom -5581.739736 kJ/mol
# Density = 2.175952 g / cm^3
# Si number density = 21.809159 Si / 1000 Ang^3
#
#
#
# Elastic Constant Matrix: (Units=GPa)
#
#
# Indices 1 2 3 4 5 6 
#
# 1 39.5244 15.0869 -17.7941 0.0000 0.0000 0.0000
# 2 15.0869 156.2020 102.7091 0.0000 0.0000 0.0000
# 3 -17.7941 102.7091 168.3508 0.0000 0.0000 0.0000
# 4 0.0000 0.0000 0.0000 46.1083 0.0000 0.0000
# 5 0.0000 0.0000 0.0000 0.0000 -372.5268 0.0000
# 6 0.0000 0.0000 0.0000 0.0000 0.0000 11.9006
#
#
#
# Elastic Compliance Matrix: (Units=1/GPa)
#
#
# Indices 1 2 3 4 5 6 
#
# 1 0.032842 -0.009109 0.009028 0.000000 0.000000 0.000000
# 2 -0.009109 0.013217 -0.009026 0.000000 0.000000 0.000000
# 3 0.009028 -0.009026 0.012401 0.000000 0.000000 0.000000
# 4 0.000000 0.000000 0.000000 0.021688 0.000000 0.000000
# 5 0.000000 0.000000 0.000000 0.000000 -0.002684 0.000000
# 6 0.000000 0.000000 0.000000 0.000000 0.000000 0.084029
#
#
# Mechanical properties :
#
#
# Convention : Reuss Voigt Hill
#
# Bulk Modulus (GPa) = 24.84640 62.67568 43.76104
# Shear Modulus (GPa) = 25.89041 -45.29856 -9.70408
#
# Velocity S-wave (km/s) = 3.44922 -4.56240 -2.11168
# Velocity P-wave (km/s) = 5.22305 1.02303 3.76343
#
# Compressibility (1/GPa) = 0.04024728
#
# Stress axis : x y z
#
# Youngs Moduli (GPa) = 30.44855 75.66121 80.63843
#
# Poissons Ratio (x) = 0.68917 -0.72804
# Poissons Ratio (y) = 0.27734 0.72786
# Poissons Ratio (z) = -0.27490 0.68293
#
# Static dielectric constant tensor:
#      x y z
#    x 1.813130 0.000000 0.000000 
#    y 0.000000 1.802810 0.000000 
#    z 0.000000 0.000000 1.787860 
# 
# From -- ./inp_files/26375.got.cif
#   From: 2010.05.17/outbox.cif.g08.bks.cpg/sg65_14_cif.got.tgz:26375.got - 2010.06.03 17:01:31.
