data_PCOD9485708
_publ_section_title
;
Structure prediction by ZEFSAII (Michael W. Deem and Ramdas Pophale) SiO2 
 PCOD9485708
Probable space group: C M M M
;
_chemical_formula_sum "Si O2"
_cell_formula_units_Z 104
_cell_length_a 19.218668
_cell_length_b 7.656589
_cell_length_c 35.131437
_cell_angle_alpha 90.000000
_cell_angle_beta 90.000000
_cell_angle_gamma 90.000000
_cell_volume 5169.571351
_symmetry_space_group_name_H-M "C M M M"
_symmetry_group_IT_number 65
_symmetry_cell_setting 'orthorhombic'
loop_
_space_group_symop_operation_xyz
x,y,z
-x,-y,z
x,-y,-z
-x,y,-z
-x,-y,-z
x,y,-z
-x,y,z
x,-y,z
1/2+x,1/2+y,z
1/2-x,1/2-y,z
1/2+x,1/2-y,-z
1/2-x,1/2+y,-z
1/2-x,1/2-y,-z
1/2+x,1/2+y,-z
1/2-x,1/2+y,z
1/2+x,1/2-y,z
loop_
_atom_site_type_symbol
_atom_site_label
_atom_site_fract_x
_atom_site_fract_y
_atom_site_fract_z
Si Si1 0.668298 0.209919 0.573473
Si Si2 0.578033 0.208300 0.270035
Si Si3 0.580854 0.713153 0.042168
Si Si4 0.669004 0.293419 0.802718
Si Si5 0.918904 0.286842 0.645462
Si Si6 0.168506 0.210254 0.113753
Si Si7 0.419103 0.786081 0.500000
O O1 0.750000 0.250000 0.570716
O O2 0.632214 0.275151 0.612314
O O3 0.623452 0.271645 0.537283
O O4 0.662487 0.000000 0.573637
O O5 0.500000 0.276758 0.263002
O O6 0.626347 0.239694 0.234122
O O7 0.601358 0.271958 0.311848
O O8 0.573163 0.000000 0.273893
O O9 0.500000 0.762154 0.046309
O O10 0.583131 0.500000 0.042328
O O11 0.625524 0.777260 0.077739
O O12 0.605012 0.769040 0.000000
O O13 0.662440 0.500000 0.805214
O O14 0.750000 0.250000 0.797822
O O15 0.646677 0.222191 0.844304
O O16 0.917254 0.500000 0.644757
O O17 0.000000 0.238318 0.638905
O O18 0.250000 0.250000 0.109358
O O19 0.160487 0.000000 0.114007
O O20 0.500000 0.731476 0.500000
O O21 0.419636 0.000000 0.500000
#
# Coordination Sequence:
#
# PCOD9485708 Si02
#       7
#    16  16  16  16  16  16   8
#     4  10  19  31  49  73 100 126 155 194 236 278
#     4   9  18  33  52  73  97 125 159 199 242 288
#     4   8  14  26  45  68  92 118 150 187 225 268
#     4  10  20  33  49  69  96 128 161 199 241 285
#     4   8  15  30  51  71  92 123 161 196 230 273
#     4   9  18  31  47  68  93 121 153 190 231 275
#     4   9  17  30  51  75  94 121 164 202 228 267
#
# _framework density 20.117721
#
# number of rings (size 3 to 8) (size 9 to 14) (size 15 to 20)
#    0.000    3.000    0.000    2.538    0.000    4.308 
#    0.000    3.846    0.000    3.692    0.000    1.077 
#    0.000    0.000    0.000    0.000    0.000    0.000 
#
# Total GULP energy -289937.000192 kJ/mol
# GULP energy per Si atom -5575.711542 kJ/mol
# Density = 2.007193 g / cm^3
# Si number density = 20.117721 Si / 1000 Ang^3
#
#
#
# Elastic Constant Matrix: (Units=GPa)
#
#
# Indices 1 2 3 4 5 6 
#
# 1 120.5831 0.1956 137.6308 0.0000 0.0000 0.0000
# 2 0.1956 34.8485 11.5826 0.0000 0.0000 0.0000
# 3 137.6308 11.5826 255.9473 0.0000 0.0000 0.0000
# 4 0.0000 0.0000 0.0000 -0.8917 0.0000 0.0000
# 5 0.0000 0.0000 0.0000 0.0000 48.2011 0.0000
# 6 0.0000 0.0000 0.0000 0.0000 0.0000 14.4182
#
#
#
# Elastic Compliance Matrix: (Units=1/GPa)
#
#
# Indices 1 2 3 4 5 6 
#
# 1 0.021971 0.003862 -0.011989 0.000000 0.000000 0.000000
# 2 0.003862 0.029813 -0.003426 0.000000 0.000000 0.000000
# 3 -0.011989 -0.003426 0.010509 0.000000 0.000000 0.000000
# 4 0.000000 0.000000 0.000000 -1.121453 0.000000 0.000000
# 5 0.000000 0.000000 0.000000 0.000000 0.020746 0.000000
# 6 0.000000 0.000000 0.000000 0.000000 0.000000 0.069357
#
#
# Mechanical properties :
#
#
# Convention : Reuss Voigt Hill
#
# Bulk Modulus (GPa) = 25.51928 78.91076 52.21502
# Shear Modulus (GPa) = -5.35970 29.81018 12.22524
#
# Velocity S-wave (km/s) = -1.63400 3.85357 2.46780
# Velocity P-wave (km/s) = 3.02532 7.68828 5.84219
#
# Compressibility (1/GPa) = 0.03918606
#
# Stress axis : x y z
#
# Youngs Moduli (GPa) = 45.51443 33.54289 95.15582
#
# Poissons Ratio (x) = -0.12953 1.14085
# Poissons Ratio (y) = -0.17576 0.32597
# Poissons Ratio (z) = 0.54568 0.11491
#
# Static dielectric constant tensor:
#      x y z
#    x 1.659290 0.000000 0.000000 
#    y 0.000000 1.770860 0.000000 
#    z 0.000000 0.000000 1.745910 
# 
# From -- ./inp_files/75491.got.cif
#   From: 2010.05.17/outbox.cif.g08.bks.cpg/sg65_38_cif.got.tgz:75491.got - 2010.06.03 17:01:31.
