data_PCOD9485887
_publ_section_title
;
Structure prediction by ZEFSAII (Michael W. Deem and Ramdas Pophale) SiO2 
 PCOD9485887
Probable space group: C M M M
;
_chemical_formula_sum "Si O2"
_cell_formula_units_Z 96
_cell_length_a 27.617059
_cell_length_b 8.113758
_cell_length_c 23.118441
_cell_angle_alpha 90.000000
_cell_angle_beta 90.000000
_cell_angle_gamma 90.000000
_cell_volume 5180.337106
_symmetry_space_group_name_H-M "C M M M"
_symmetry_group_IT_number 65
_symmetry_cell_setting 'orthorhombic'
loop_
_space_group_symop_operation_xyz
x,y,z
-x,-y,z
x,-y,-z
-x,y,-z
-x,-y,-z
x,y,-z
-x,y,z
x,-y,z
1/2+x,1/2+y,z
1/2-x,1/2-y,z
1/2+x,1/2-y,-z
1/2-x,1/2+y,-z
1/2-x,1/2-y,-z
1/2+x,1/2+y,-z
1/2-x,1/2+y,z
1/2+x,1/2-y,z
loop_
_atom_site_type_symbol
_atom_site_label
_atom_site_fract_x
_atom_site_fract_y
_atom_site_fract_z
Si Si1 0.803282 0.302865 0.792898
Si Si2 0.946451 0.194297 0.750265
Si Si3 0.500000 0.186322 0.429877
Si Si4 0.607012 0.695156 0.434717
Si Si5 0.145123 0.303461 0.320045
Si Si6 0.600744 0.192369 0.136607
Si Si7 0.443122 0.500000 0.930719
O O1 0.804269 0.500000 0.791121
O O2 0.750000 0.250000 0.810809
O O3 0.815982 0.242185 0.727602
O O4 0.846785 0.257483 0.836516
O O5 0.905193 0.235383 0.704935
O O6 0.934675 0.295359 0.808011
O O7 0.000000 0.230695 0.728149
O O8 0.943830 0.000000 0.764881
O O9 0.500000 0.184596 0.500000
O O10 0.448396 0.266432 0.415484
O O11 0.500000 0.000000 0.407820
O O12 0.613591 0.763472 0.500000
O O13 0.611280 0.500000 0.437560
O O14 0.645073 0.756358 0.387084
O O15 0.144468 0.500000 0.316755
O O16 0.582286 0.333420 0.093174
O O17 0.602209 0.000000 0.116627
O O18 0.500000 0.500000 0.912654
O O19 0.441254 0.500000 0.000000
#
# Coordination Sequence:
#
# PCOD9485887 Si02
#       7
#    16  16   8  16  16  16   8
#     4   9  20  36  60  91 114 145 190 242 308 363
#     4  10  19  31  50  76 108 147 186 229 287 345
#     4   9  17  29  45  63  85 125 179 225 269 330
#     4  10  20  33  48  66  94 137 184 230 284 347
#     4  10  21  34  48  75 109 136 179 232 286 353
#     4  10  21  38  59  89 124 160 205 252 296 351
#     4  11  24  40  62  94 130 174 217 245 284 340
#
# _framework density 18.531611999999999
#
# number of rings (size 3 to 8) (size 9 to 14) (size 15 to 20)
#    0.000    2.167    0.833    3.250    2.333    6.000 
#    0.000    0.833    0.000    1.000    0.000    0.000 
#    0.000    0.000    0.000    0.000    0.000    0.000 
#
# Total GULP energy -267584.644943 kJ/mol
# GULP energy per Si atom -5574.680103 kJ/mol
# Density = 1.848943 g / cm^3
# Si number density = 18.531612 Si / 1000 Ang^3
#
#
#
# Elastic Constant Matrix: (Units=GPa)
#
#
# Indices 1 2 3 4 5 6 
#
# 1 62.5350 30.5301 38.1460 0.0000 0.0000 0.0000
# 2 30.5301 76.6143 35.7583 0.0000 0.0000 0.0000
# 3 38.1460 35.7583 79.2124 0.0000 0.0000 0.0000
# 4 0.0000 0.0000 0.0000 23.2310 0.0000 0.0000
# 5 0.0000 0.0000 0.0000 0.0000 16.1238 0.0000
# 6 0.0000 0.0000 0.0000 0.0000 0.0000 23.9134
#
#
#
# Elastic Compliance Matrix: (Units=1/GPa)
#
#
# Indices 1 2 3 4 5 6 
#
# 1 0.024251 -0.005338 -0.009269 0.000000 0.000000 0.000000
# 2 -0.005338 0.017711 -0.005425 0.000000 0.000000 0.000000
# 3 -0.009269 -0.005425 0.019537 0.000000 0.000000 0.000000
# 4 0.000000 0.000000 0.000000 0.043046 0.000000 0.000000
# 5 0.000000 0.000000 0.000000 0.000000 0.062020 0.000000
# 6 0.000000 0.000000 0.000000 0.000000 0.000000 0.041818
#
#
# Mechanical properties :
#
#
# Convention : Reuss Voigt Hill
#
# Bulk Modulus (GPa) = 46.65006 47.47006 47.06006
# Shear Modulus (GPa) = 19.56250 20.24878 19.90564
#
# Velocity S-wave (km/s) = 3.25257 3.30913 3.28097
# Velocity P-wave (km/s) = 6.27164 6.34600 6.30893
#
# Compressibility (1/GPa) = 0.02143620
#
# Stress axis : x y z
#
# Youngs Moduli (GPa) = 41.23562 56.46086 51.18552
#
# Poissons Ratio (x) = 0.30137 0.47443
# Poissons Ratio (y) = 0.22010 0.27768
# Poissons Ratio (z) = 0.38221 0.30629
#
# Static dielectric constant tensor:
#      x y z
#    x 1.607810 0.000000 0.000000 
#    y 0.000000 1.649410 0.000000 
#    z 0.000000 0.000000 1.676110 
# 
# From -- ./inp_files/71760.got.cif
#   From: 2010.05.17/outbox.cif.g08.bks.cpg/sg65_36_cif.got.tgz:71760.got - 2010.06.03 17:01:31.
