data_PCOD9485262
_publ_section_title
;
Structure prediction by ZEFSAII (Michael W. Deem and Ramdas Pophale) SiO2 
 PCOD9485262
Probable space group: C M M M
;
_chemical_formula_sum "Si O2"
_cell_formula_units_Z 88
_cell_length_a 8.054383
_cell_length_b 27.748213
_cell_length_c 23.389701
_cell_angle_alpha 90.000000
_cell_angle_beta 90.000000
_cell_angle_gamma 90.000000
_cell_volume 5227.475028
_symmetry_space_group_name_H-M "C M M M"
_symmetry_group_IT_number 65
_symmetry_cell_setting 'orthorhombic'
loop_
_space_group_symop_operation_xyz
x,y,z
-x,-y,z
x,-y,-z
-x,y,-z
-x,-y,-z
x,y,-z
-x,y,z
x,-y,z
1/2+x,1/2+y,z
1/2-x,1/2-y,z
1/2+x,1/2-y,-z
1/2-x,1/2+y,-z
1/2-x,1/2-y,-z
1/2+x,1/2+y,-z
1/2-x,1/2+y,z
1/2+x,1/2-y,z
loop_
_atom_site_type_symbol
_atom_site_label
_atom_site_fract_x
_atom_site_fract_y
_atom_site_fract_z
Si Si1 0.798991 0.446620 0.119894
Si Si2 0.200172 0.652168 0.936778
Si Si3 0.199085 0.900841 0.237848
Si Si4 0.000000 0.941384 0.434406
Si Si5 0.186951 0.441970 0.357578
Si Si6 0.803019 0.197073 0.819882
O O1 0.744087 0.500000 0.102022
O O2 0.742976 0.401806 0.080921
O O3 0.740490 0.435085 0.184154
O O4 0.000000 0.446132 0.119616
O O5 0.249926 0.686831 0.885134
O O6 0.000000 0.651436 0.938245
O O7 0.261046 0.665305 0.000000
O O8 0.282006 0.918901 0.295685
O O9 0.259341 0.847709 0.218210
O O10 0.000000 0.900404 0.245954
O O11 0.834057 0.926682 0.400311
O O12 0.000000 0.924895 0.500000
O O13 0.000000 0.000000 0.435267
O O14 0.198588 0.500000 0.351383
O O15 0.000000 0.430766 0.377758
O O16 0.750000 0.250000 0.801288
O O17 0.000000 0.194432 0.818157
#
# Coordination Sequence:
#
# PCOD9485262 Si02
#       6
#    16  16  16   8  16  16
#     4   9  17  28  43  65  91 119 154 194 239 288
#     4   9  18  32  48  65  87 117 154 193 237 292
#     4  10  19  31  47  68  95 125 157 199 245 297
#     4   9  18  32  48  70 106 146 179 213 243 271
#     4  10  19  30  48  74 103 140 178 208 242 284
#     4  10  21  35  51  69  90 118 150 194 251 302
#
# _framework density 16.834130999999999
#
# number of rings (size 3 to 8) (size 9 to 14) (size 15 to 20)
#    0.000    2.455    0.909    1.636    0.000    6.182 
#    0.000    3.636    0.000    0.000    0.000    5.091 
#    0.000    0.727    0.364    0.000    0.000    0.000 
#
# Total GULP energy -245369.780032 kJ/mol
# GULP energy per Si atom -5576.585910 kJ/mol
# Density = 1.679582 g / cm^3
# Si number density = 16.834131 Si / 1000 Ang^3
#
#
#
# Elastic Constant Matrix: (Units=GPa)
#
#
# Indices 1 2 3 4 5 6 
#
# 1 63.5641 11.1027 34.0183 0.0000 0.0000 0.0000
# 2 11.1027 45.8729 -5.0829 0.0000 0.0000 0.0000
# 3 34.0183 -5.0829 77.2010 0.0000 0.0000 0.0000
# 4 0.0000 0.0000 0.0000 9.0499 0.0000 0.0000
# 5 0.0000 0.0000 0.0000 0.0000 16.2001 0.0000
# 6 0.0000 0.0000 0.0000 0.0000 0.0000 16.5311
#
#
#
# Elastic Compliance Matrix: (Units=1/GPa)
#
#
# Indices 1 2 3 4 5 6 
#
# 1 0.022389 -0.006560 -0.010298 0.000000 0.000000 0.000000
# 2 -0.006560 0.023882 0.004463 0.000000 0.000000 0.000000
# 3 -0.010298 0.004463 0.017785 0.000000 0.000000 0.000000
# 4 0.000000 0.000000 0.000000 0.110499 0.000000 0.000000
# 5 0.000000 0.000000 0.000000 0.000000 0.061728 0.000000
# 6 0.000000 0.000000 0.000000 0.000000 0.000000 0.060492
#
#
# Mechanical properties :
#
#
# Convention : Reuss Voigt Hill
#
# Bulk Modulus (GPa) = 25.46715 29.63493 27.55104
# Shear Modulus (GPa) = 14.94090 18.12953 16.53522
#
# Velocity S-wave (km/s) = 2.98239 3.28525 3.13748
# Velocity P-wave (km/s) = 5.19814 5.65975 5.43385
#
# Compressibility (1/GPa) = 0.03926626
#
# Stress axis : x y z
#
# Youngs Moduli (GPa) = 44.66478 41.87330 56.22838
#
# Poissons Ratio (x) = 0.27468 0.57901
# Poissons Ratio (y) = 0.29300 -0.25094
# Poissons Ratio (z) = 0.45994 -0.18688
#
# Static dielectric constant tensor:
#      x y z
#    x 1.594670 0.000000 0.000000 
#    y 0.000000 1.584650 0.000000 
#    z 0.000000 0.000000 1.543150 
# 
# From -- ./inp_files/60296.got.cif
#   From: 2010.05.17/outbox.cif.g08.bks.cpg/sg65_31_cif.got.tgz:60296.got - 2010.06.03 17:01:31.
