data_PCOD9485897
_publ_section_title
;
Structure prediction by ZEFSAII (Michael W. Deem and Ramdas Pophale) SiO2 
 PCOD9485897
Probable space group: C M M M
;
_chemical_formula_sum "Si O2"
_cell_formula_units_Z 88
_cell_length_a 17.470700
_cell_length_b 29.296647
_cell_length_c 7.470004
_cell_angle_alpha 90.000000
_cell_angle_beta 90.000000
_cell_angle_gamma 90.000000
_cell_volume 3823.394040
_symmetry_space_group_name_H-M "C M M M"
_symmetry_group_IT_number 65
_symmetry_cell_setting 'orthorhombic'
loop_
_space_group_symop_operation_xyz
x,y,z
-x,-y,z
x,-y,-z
-x,y,-z
-x,-y,-z
x,y,-z
-x,y,z
x,-y,z
1/2+x,1/2+y,z
1/2-x,1/2-y,z
1/2+x,1/2-y,-z
1/2-x,1/2+y,-z
1/2-x,1/2-y,-z
1/2+x,1/2+y,-z
1/2-x,1/2+y,z
1/2+x,1/2-y,z
loop_
_atom_site_type_symbol
_atom_site_label
_atom_site_fract_x
_atom_site_fract_y
_atom_site_fract_z
Si Si1 0.828669 0.726705 0.781892
Si Si2 0.841998 0.904773 0.710402
Si Si3 0.000000 0.053193 0.717904
Si Si4 0.815477 0.448176 0.284373
Si Si5 0.584403 0.314524 0.784932
Si Si6 0.913777 0.361575 0.786674
O O1 0.750000 0.750000 0.719250
O O2 0.894074 0.763302 0.734418
O O3 0.854383 0.676822 0.718108
O O4 0.822950 0.724684 0.000000
O O5 0.841980 0.915783 0.500000
O O6 0.764740 0.926739 0.784052
O O7 0.851038 0.850527 0.729458
O O8 0.921450 0.924634 0.785666
O O9 0.000000 0.057780 0.500000
O O10 0.000000 0.000000 0.759818
O O11 0.811046 0.450153 0.500000
O O12 0.826536 0.500000 0.220023
O O13 0.881498 0.412121 0.242137
O O14 0.500000 0.327590 0.716420
O O15 0.582385 0.315960 0.000000
O O16 0.000000 0.356052 0.715890
O O17 0.917844 0.354439 0.000000
#
# Coordination Sequence:
#
# PCOD9485897 Si02
#       6
#    16  16   8  16  16  16
#     4   9  17  31  53  80 109 143 180 217 264 323
#     4  10  19  33  53  78 107 141 185 230 272 323
#     4   9  16  28  49  73  99 137 183 225 264 313
#     4  10  22  39  58  81 109 142 182 230 284 336
#     4  10  19  31  50  77 110 145 178 216 267 323
#     4  10  21  38  60  85 112 143 184 229 270 321
#
# _framework density 23.016200000000001
#
# number of rings (size 3 to 8) (size 9 to 14) (size 15 to 20)
#    0.000    2.273    0.909    2.182    0.000    7.636 
#    0.000    2.727    0.000    7.636    0.000    0.000 
#    0.000    0.000    0.000    0.000    0.000    0.000 
#
# Total GULP energy -245822.532701 kJ/mol
# GULP energy per Si atom -5586.875743 kJ/mol
# Density = 2.296381 g / cm^3
# Si number density = 23.016200 Si / 1000 Ang^3
#
#
#
# Elastic Constant Matrix: (Units=GPa)
#
#
# Indices 1 2 3 4 5 6 
#
# 1 129.9807 67.5067 8.4833 0.0000 0.0000 0.0000
# 2 67.5067 157.6695 -5.3097 0.0000 0.0000 0.0000
# 3 8.4833 -5.3097 66.0381 0.0000 0.0000 0.0000
# 4 0.0000 0.0000 0.0000 17.5916 0.0000 0.0000
# 5 0.0000 0.0000 0.0000 0.0000 8.7614 0.0000
# 6 0.0000 0.0000 0.0000 0.0000 0.0000 27.7310
#
#
#
# Elastic Compliance Matrix: (Units=1/GPa)
#
#
# Indices 1 2 3 4 5 6 
#
# 1 0.010068 -0.004366 -0.001644 0.000000 0.000000 0.000000
# 2 -0.004366 0.008253 0.001224 0.000000 0.000000 0.000000
# 3 -0.001644 0.001224 0.015452 0.000000 0.000000 0.000000
# 4 0.000000 0.000000 0.000000 0.056845 0.000000 0.000000
# 5 0.000000 0.000000 0.000000 0.000000 0.114137 0.000000
# 6 0.000000 0.000000 0.000000 0.000000 0.000000 0.036061
#
#
# Mechanical properties :
#
#
# Convention : Reuss Voigt Hill
#
# Bulk Modulus (GPa) = 41.31974 55.00543 48.16258
# Shear Modulus (GPa) = 19.34561 29.68401 24.51481
#
# Velocity S-wave (km/s) = 2.90232 3.59514 3.26714
# Velocity P-wave (km/s) = 5.40580 6.41746 5.93323
#
# Compressibility (1/GPa) = 0.02420151
#
# Stress axis : x y z
#
# Youngs Moduli (GPa) = 99.32060 121.16777 64.71458
#
# Poissons Ratio (x) = 0.52904 0.10642
# Poissons Ratio (y) = 0.43365 -0.07924
# Poissons Ratio (z) = 0.16333 -0.14836
#
# Static dielectric constant tensor:
#      x y z
#    x 1.854170 0.000000 0.000000 
#    y 0.000000 1.841660 0.000000 
#    z 0.000000 0.000000 1.912830 
# 
# From -- ./inp_files/24808.got.cif
#   From: 2010.05.17/outbox.cif.g08.bks.cpg/sg65_13_cif.got.tgz:24808.got - 2010.06.03 17:01:31.
