data_PCOD9485824
_publ_section_title
;
Structure prediction by ZEFSAII (Michael W. Deem and Ramdas Pophale) SiO2 
 PCOD9485824
Probable space group: C M M M
;
_chemical_formula_sum "Si O2"
_cell_formula_units_Z 72
_cell_length_a 18.416634
_cell_length_b 8.617527
_cell_length_c 24.274708
_cell_angle_alpha 90.000000
_cell_angle_beta 90.000000
_cell_angle_gamma 90.000000
_cell_volume 3852.537942
_symmetry_space_group_name_H-M "C M M M"
_symmetry_group_IT_number 65
_symmetry_cell_setting 'orthorhombic'
loop_
_space_group_symop_operation_xyz
x,y,z
-x,-y,z
x,-y,-z
-x,y,-z
-x,-y,-z
x,y,-z
-x,y,z
x,-y,z
1/2+x,1/2+y,z
1/2-x,1/2-y,z
1/2+x,1/2-y,-z
1/2-x,1/2+y,-z
1/2-x,1/2-y,-z
1/2+x,1/2+y,-z
1/2-x,1/2+y,z
1/2+x,1/2-y,z
loop_
_atom_site_type_symbol
_atom_site_label
_atom_site_fract_x
_atom_site_fract_y
_atom_site_fract_z
Si Si1 0.084102 0.187572 0.784635
Si Si2 0.168619 0.313749 0.890265
Si Si3 0.667961 0.314072 0.674116
Si Si4 0.916532 0.310868 0.000000
Si Si5 0.667423 0.813995 0.440020
O O1 0.127414 0.256078 0.836013
O O2 0.121498 0.233784 0.727108
O O3 0.000000 0.235025 0.786337
O O4 0.087169 0.000000 0.787709
O O5 0.170721 0.500000 0.890072
O O6 0.250000 0.250000 0.891208
O O7 0.125397 0.261578 0.944943
O O8 0.671558 0.500000 0.671991
O O9 0.750000 0.250000 0.679720
O O10 0.635538 0.253745 0.616243
O O11 0.917267 0.500000 0.000000
O O12 0.000000 0.258436 0.000000
O O13 0.634864 0.772232 0.500000
O O14 0.750000 0.750000 0.440859
O O15 0.669627 0.000000 0.436178
#
# Coordination Sequence:
#
# PCOD9485824 Si02
#       5
#    16  16  16   8  16
#     4  10  22  39  56  77 107 140 177 223 271 319
#     4  11  22  37  59  84 111 144 181 221 266 314
#     4  10  19  31  50  74 101 134 170 212 261 312
#     4   9  19  36  57  83 114 145 180 221 262 310
#     4   9  16  26  43  69 100 131 165 209 258 307
#
# _framework density 18.688977999999999
#
# number of rings (size 3 to 8) (size 9 to 14) (size 15 to 20)
#    0.000    2.111    0.000    5.000    0.000    6.222 
#    0.000    1.667    0.000    4.667    0.000    4.667 
#    0.000    0.000    0.000    0.000    0.000    0.000 
#
# Total GULP energy -200919.812415 kJ/mol
# GULP energy per Si atom -5581.105900 kJ/mol
# Density = 1.864644 g / cm^3
# Si number density = 18.688978 Si / 1000 Ang^3
#
#
#
# Elastic Constant Matrix: (Units=GPa)
#
#
# Indices 1 2 3 4 5 6 
#
# 1 129.7786 30.5754 103.8976 0.0000 0.0000 0.0000
# 2 30.5754 37.9176 49.9234 0.0000 0.0000 0.0000
# 3 103.8976 49.9234 239.7690 0.0000 0.0000 0.0000
# 4 0.0000 0.0000 0.0000 -134.9834 0.0000 0.0000
# 5 0.0000 0.0000 0.0000 0.0000 -9.6505 0.0000
# 6 0.0000 0.0000 0.0000 0.0000 0.0000 8.5404
#
#
#
# Elastic Compliance Matrix: (Units=1/GPa)
#
#
# Indices 1 2 3 4 5 6 
#
# 1 0.012217 -0.003969 -0.004468 0.000000 0.000000 0.000000
# 2 -0.003969 0.037623 -0.006114 0.000000 0.000000 0.000000
# 3 -0.004468 -0.006114 0.007379 0.000000 0.000000 0.000000
# 4 0.000000 0.000000 0.000000 -0.007408 0.000000 0.000000
# 5 0.000000 0.000000 0.000000 0.000000 -0.103621 0.000000
# 6 0.000000 0.000000 0.000000 0.000000 0.000000 0.117091
#
#
# Mechanical properties :
#
#
# Convention : Reuss Voigt Hill
#
# Bulk Modulus (GPa) = 35.56357 86.25088 60.90722
# Shear Modulus (GPa) = 49.13741 -12.34745 18.39498
#
# Velocity S-wave (km/s) = 5.13315 -2.57316 3.14071
# Velocity P-wave (km/s) = 7.36226 6.11741 6.76851
#
# Compressibility (1/GPa) = 0.02811866
#
# Stress axis : x y z
#
# Youngs Moduli (GPa) = 81.85183 26.57940 135.51058
#
# Poissons Ratio (x) = 0.10551 0.60539
# Poissons Ratio (y) = 0.32491 0.82846
# Poissons Ratio (z) = 0.36567 0.16250
#
# Static dielectric constant tensor:
#      x y z
#    x 1.611670 0.000000 0.000000 
#    y 0.000000 1.611610 0.000000 
#    z 0.000000 0.000000 1.669020 
# 
# From -- ./inp_files/66981.got.cif
#   From: 2010.05.17/outbox.cif.g08.bks.cpg/sg65_34_cif.got.tgz:66981.got - 2010.06.03 17:01:31.
