data_PCOD9485271
_publ_section_title
;
Structure prediction by ZEFSAII (Michael W. Deem and Ramdas Pophale) SiO2 
 PCOD9485271
Probable space group: C M M M
;
_chemical_formula_sum "Si O2"
_cell_formula_units_Z 72
_cell_length_a 17.188523
_cell_length_b 21.960378
_cell_length_c 11.936550
_cell_angle_alpha 90.000000
_cell_angle_beta 90.000000
_cell_angle_gamma 90.000000
_cell_volume 4505.647301
_symmetry_space_group_name_H-M "C M M M"
_symmetry_group_IT_number 65
_symmetry_cell_setting 'orthorhombic'
loop_
_space_group_symop_operation_xyz
x,y,z
-x,-y,z
x,-y,-z
-x,y,-z
-x,-y,-z
x,y,-z
-x,y,z
x,-y,z
1/2+x,1/2+y,z
1/2-x,1/2-y,z
1/2+x,1/2-y,-z
1/2-x,1/2+y,-z
1/2-x,1/2-y,-z
1/2+x,1/2+y,-z
1/2-x,1/2+y,z
1/2+x,1/2-y,z
loop_
_atom_site_type_symbol
_atom_site_label
_atom_site_fract_x
_atom_site_fract_y
_atom_site_fract_z
Si Si1 0.408315 0.856263 0.500000
Si Si2 0.155958 0.381500 0.741114
Si Si3 0.304947 0.691409 0.287460
Si Si4 0.092514 0.791009 0.500000
Si Si5 0.909561 0.263964 0.868318
Si Si6 0.593480 0.000000 0.865737
O O1 0.500000 0.867848 0.500000
O O2 0.371808 0.882995 0.387313
O O3 0.397367 0.782755 0.500000
O O4 0.246926 0.363746 0.737770
O O5 0.112593 0.324735 0.800715
O O6 0.131883 0.441068 0.808675
O O7 0.250000 0.750000 0.315510
O O8 0.363626 0.683826 0.390659
O O9 0.354683 0.711517 0.180147
O O10 0.000000 0.802868 0.500000
O O11 0.000000 0.249949 0.848411
O O12 0.897367 0.273594 0.000000
O O13 0.500000 0.000000 0.845609
O O14 0.604925 0.000000 0.000000
#
# Coordination Sequence:
#
# PCOD9485271 Si02
#       6
#     8  16  16   8  16   8
#     4  11  19  30  52  76 105 137 168 205 251 306
#     4  11  22  34  52  74 104 137 174 216 254 298
#     4  10  19  30  48  75 105 135 169 208 258 311
#     4  11  18  30  52  79 110 140 167 200 254 323
#     4  10  19  31  48  72 102 134 169 212 262 312
#     4  11  24  41  57  73  99 141 186 216 246 294
#
# _framework density 15.979946999999999
#
# number of rings (size 3 to 8) (size 9 to 14) (size 15 to 20)
#    0.000    1.444    4.444    4.333    0.000    7.111 
#    0.000    1.111    0.000    0.000    0.000    3.889 
#    0.000    5.333    0.000    0.000    0.000    0.000 
#
# Total GULP energy -200954.740968 kJ/mol
# GULP energy per Si atom -5582.076138 kJ/mol
# Density = 1.594358 g / cm^3
# Si number density = 15.979947 Si / 1000 Ang^3
#
#
#
# Elastic Constant Matrix: (Units=GPa)
#
#
# Indices 1 2 3 4 5 6 
#
# 1 113.1616 47.2793 75.5868 0.0000 0.0000 0.0000
# 2 47.2793 75.6477 49.7434 0.0000 0.0000 0.0000
# 3 75.5868 49.7434 126.3786 0.0000 0.0000 0.0000
# 4 0.0000 0.0000 0.0000 17.7500 0.0000 0.0000
# 5 0.0000 0.0000 0.0000 0.0000 164.9685 0.0000
# 6 0.0000 0.0000 0.0000 0.0000 0.0000 -17.4067
#
#
#
# Elastic Compliance Matrix: (Units=1/GPa)
#
#
# Indices 1 2 3 4 5 6 
#
# 1 0.016007 -0.005004 -0.007604 0.000000 0.000000 0.000000
# 2 -0.005004 0.019400 -0.004643 0.000000 0.000000 0.000000
# 3 -0.007604 -0.004643 0.014288 0.000000 0.000000 0.000000
# 4 0.000000 0.000000 0.000000 0.056338 0.000000 0.000000
# 5 0.000000 0.000000 0.000000 0.000000 0.006062 0.000000
# 6 0.000000 0.000000 0.000000 0.000000 0.000000 -0.057449
#
#
# Mechanical properties :
#
#
# Convention : Reuss Voigt Hill
#
# Bulk Modulus (GPa) = 65.82105 73.37853 69.59979
# Shear Modulus (GPa) = 53.07232 42.56760 47.81996
#
# Velocity S-wave (km/s) = 5.76922 5.16681 5.47631
# Velocity P-wave (km/s) = 9.25515 9.03402 9.14525
#
# Compressibility (1/GPa) = 0.01519271
#
# Stress axis : x y z
#
# Youngs Moduli (GPa) = 62.47378 51.54722 69.98794
#
# Poissons Ratio (x) = 0.25794 0.53219
# Poissons Ratio (y) = 0.31262 0.32495
# Poissons Ratio (z) = 0.47505 0.23933
#
# Static dielectric constant tensor:
#      x y z
#    x 1.541970 0.000000 0.000000 
#    y 0.000000 1.517060 0.000000 
#    z 0.000000 0.000000 1.539420 
# 
# From -- ./inp_files/26379.got.cif
#   From: 2010.05.17/outbox.cif.g08.bks.cpg/sg65_14_cif.got.tgz:26379.got - 2010.06.03 17:01:31.
