data_PCOD9485109
_publ_section_title
;
Structure prediction by ZEFSAII (Michael W. Deem and Ramdas Pophale) SiO2 
 PCOD9485109
Probable space group: C M M M
;
_chemical_formula_sum "Si O2"
_cell_formula_units_Z 96
_cell_length_a 18.071781
_cell_length_b 21.601846
_cell_length_c 13.996324
_cell_angle_alpha 90.000000
_cell_angle_beta 90.000000
_cell_angle_gamma 90.000000
_cell_volume 5463.938571
_symmetry_space_group_name_H-M "C M M M"
_symmetry_group_IT_number 65
_symmetry_cell_setting 'orthorhombic'
loop_
_space_group_symop_operation_xyz
x,y,z
-x,-y,z
x,-y,-z
-x,y,-z
-x,-y,-z
x,y,-z
-x,y,z
x,-y,z
1/2+x,1/2+y,z
1/2-x,1/2-y,z
1/2+x,1/2-y,-z
1/2-x,1/2+y,-z
1/2-x,1/2-y,-z
1/2+x,1/2+y,-z
1/2-x,1/2+y,z
1/2+x,1/2-y,z
loop_
_atom_site_type_symbol
_atom_site_label
_atom_site_fract_x
_atom_site_fract_y
_atom_site_fract_z
Si Si1 0.771766 0.068270 0.792772
Si Si2 0.699870 0.878039 0.610957
Si Si3 0.702159 0.811865 0.887291
Si Si4 0.912255 0.301032 0.277063
Si Si5 0.585898 0.430401 0.677048
Si Si6 0.348379 0.691761 0.604749
O O1 0.730225 0.074028 0.689636
O O2 0.745586 0.126308 0.854667
O O3 0.858442 0.073736 0.766720
O O4 0.757083 0.000000 0.833451
O O5 0.698285 0.897486 0.500000
O O6 0.623194 0.850805 0.649573
O O7 0.761689 0.823166 0.618761
O O8 0.750000 0.750000 0.865744
O O9 0.628273 0.810653 0.823815
O O10 0.687878 0.813013 0.000000
O O11 0.884989 0.235007 0.317213
O O12 0.000000 0.304451 0.272301
O O13 0.500000 0.422764 0.701368
O O14 0.595453 0.500000 0.636632
O O15 0.612339 0.375162 0.609488
O O16 0.358814 0.719927 0.500000
#
# Coordination Sequence:
#
# PCOD9485109 Si02
#       6
#    16  16  16  16  16  16
#     4   9  18  33  54  79 103 132 174 213 244 290
#     4   9  18  32  49  71 103 139 171 204 243 288
#     4  10  21  38  58  77  99 129 165 207 258 311
#     4  11  21  32  50  75 101 128 163 210 261 309
#     4   9  17  28  43  67 103 143 174 202 239 281
#     4  10  19  30  46  69 100 140 180 210 238 282
#
# _framework density 17.569742999999999
#
# number of rings (size 3 to 8) (size 9 to 14) (size 15 to 20)
#    0.000    2.333    0.000    4.500    0.000    5.000 
#    0.000    4.167    0.000    9.500    0.000   11.667 
#    0.000    0.000    0.000    0.000    0.000    0.167 
#
# Total GULP energy -267599.821538 kJ/mol
# GULP energy per Si atom -5574.996282 kJ/mol
# Density = 1.752975 g / cm^3
# Si number density = 17.569743 Si / 1000 Ang^3
#
#
#
# Elastic Constant Matrix: (Units=GPa)
#
#
# Indices 1 2 3 4 5 6 
#
# 1 121.9818 28.4558 40.8392 0.0000 0.0000 0.0000
# 2 28.4558 82.4590 26.2566 0.0000 0.0000 0.0000
# 3 40.8392 26.2566 76.2470 0.0000 0.0000 0.0000
# 4 0.0000 0.0000 0.0000 12.1681 0.0000 0.0000
# 5 0.0000 0.0000 0.0000 0.0000 8.2553 0.0000
# 6 0.0000 0.0000 0.0000 0.0000 0.0000 17.1845
#
#
#
# Elastic Compliance Matrix: (Units=1/GPa)
#
#
# Indices 1 2 3 4 5 6 
#
# 1 0.010279 -0.002015 -0.004812 0.000000 0.000000 0.000000
# 2 -0.002015 0.014016 -0.003747 0.000000 0.000000 0.000000
# 3 -0.004812 -0.003747 0.016983 0.000000 0.000000 0.000000
# 4 0.000000 0.000000 0.000000 0.082182 0.000000 0.000000
# 5 0.000000 0.000000 0.000000 0.000000 0.121134 0.000000
# 6 0.000000 0.000000 0.000000 0.000000 0.000000 0.058192
#
#
# Mechanical properties :
#
#
# Convention : Reuss Voigt Hill
#
# Bulk Modulus (GPa) = 49.67770 52.42123 51.04947
# Shear Modulus (GPa) = 15.12201 19.86399 17.49300
#
# Velocity S-wave (km/s) = 2.93693 3.36606 3.15879
# Velocity P-wave (km/s) = 6.31163 6.70880 6.51324
#
# Compressibility (1/GPa) = 0.02012976
#
# Stress axis : x y z
#
# Youngs Moduli (GPa) = 97.28631 71.34808 58.88286
#
# Poissons Ratio (x) = 0.14377 0.28332
# Poissons Ratio (y) = 0.19604 0.22065
# Poissons Ratio (z) = 0.46811 0.26736
#
# Static dielectric constant tensor:
#      x y z
#    x 1.587490 0.000000 0.000000 
#    y 0.000000 1.636310 0.000000 
#    z 0.000000 0.000000 1.600280 
# 
# From -- ./inp_files/40367.got.cif
#   From: 2010.05.17/outbox.cif.g08.bks.cpg/sg65_21_cif.got.tgz:40367.got - 2010.06.03 17:01:31.
