data_PCOD9485369
_publ_section_title
;
Structure prediction by ZEFSAII (Michael W. Deem and Ramdas Pophale) SiO2 
 PCOD9485369
Probable space group: C M M M
;
_chemical_formula_sum "Si O2"
_cell_formula_units_Z 96
_cell_length_a 28.008259
_cell_length_b 8.151028
_cell_length_c 25.096546
_cell_angle_alpha 90.000000
_cell_angle_beta 90.000000
_cell_angle_gamma 90.000000
_cell_volume 5729.443659
_symmetry_space_group_name_H-M "C M M M"
_symmetry_group_IT_number 65
_symmetry_cell_setting 'orthorhombic'
loop_
_space_group_symop_operation_xyz
x,y,z
-x,-y,z
x,-y,-z
-x,y,-z
-x,-y,-z
x,y,-z
-x,y,z
x,-y,z
1/2+x,1/2+y,z
1/2-x,1/2-y,z
1/2+x,1/2-y,-z
1/2-x,1/2+y,-z
1/2-x,1/2-y,-z
1/2+x,1/2+y,-z
1/2-x,1/2+y,z
1/2+x,1/2-y,z
loop_
_atom_site_type_symbol
_atom_site_label
_atom_site_fract_x
_atom_site_fract_y
_atom_site_fract_z
Si Si1 0.650915 0.299538 0.059022
Si Si2 0.899639 0.304345 0.218839
Si Si3 0.943980 0.802651 0.442430
Si Si4 0.554965 0.197218 0.671537
Si Si5 0.302867 0.303805 0.831727
Si Si6 0.552989 0.303685 0.110321
O O1 0.650997 0.500000 0.058946
O O2 0.684311 0.246692 0.107941
O O3 0.596987 0.245064 0.073902
O O4 0.664720 0.244176 0.000000
O O5 0.905784 0.500000 0.216920
O O6 0.916478 0.244210 0.276694
O O7 0.844975 0.262573 0.205557
O O8 0.931429 0.231084 0.171070
O O9 0.923994 0.747012 0.500000
O O10 0.923966 0.743538 0.386115
O O11 0.000000 0.752378 0.442077
O O12 0.942735 0.000000 0.442133
O O13 0.500000 0.258069 0.674628
O O14 0.553423 0.000000 0.673674
O O15 0.305834 0.500000 0.831149
O O16 0.250000 0.250000 0.816840
O O17 0.500000 0.237325 0.099321
O O18 0.551203 0.500000 0.103393
#
# Coordination Sequence:
#
# PCOD9485369 Si02
#       6
#    16  16  16  16  16  16
#     4   8  15  28  45  66  90 113 140 175 213 258
#     4  10  19  31  46  64  88 116 147 184 222 261
#     4   8  14  24  37  55  82 117 154 187 217 248
#     4   9  17  27  40  61  88 119 153 184 215 251
#     4  10  20  34  51  69  87 109 138 174 221 272
#     4   9  17  28  43  64  89 118 150 181 215 256
#
# _framework density 16.755552999999999
#
# number of rings (size 3 to 8) (size 9 to 14) (size 15 to 20)
#    0.000    3.000    0.000    3.000    0.000    3.333 
#    0.000    5.000    0.000   12.000    0.000    4.667 
#    0.000    0.667    0.000    2.167    0.000    3.167 
#
# Total GULP energy -267329.067537 kJ/mol
# GULP energy per Si atom -5569.355574 kJ/mol
# Density = 1.671742 g / cm^3
# Si number density = 16.755553 Si / 1000 Ang^3
#
#
#
# Elastic Constant Matrix: (Units=GPa)
#
#
# Indices 1 2 3 4 5 6 
#
# 1 47.3669 -6.5976 8.7182 0.0000 0.0000 0.0000
# 2 -6.5976 4.4015 -3.2247 0.0000 0.0000 0.0000
# 3 8.7182 -3.2247 112.4329 0.0000 0.0000 0.0000
# 4 0.0000 0.0000 0.0000 37.6872 0.0000 0.0000
# 5 0.0000 0.0000 0.0000 0.0000 11.4629 0.0000
# 6 0.0000 0.0000 0.0000 0.0000 0.0000 14.0063
#
#
#
# Elastic Compliance Matrix: (Units=1/GPa)
#
#
# Indices 1 2 3 4 5 6 
#
# 1 0.026781 0.039450 -0.000945 0.000000 0.000000 0.000000
# 2 0.039450 0.290185 0.005264 0.000000 0.000000 0.000000
# 3 -0.000945 0.005264 0.009118 0.000000 0.000000 0.000000
# 4 0.000000 0.000000 0.000000 0.026534 0.000000 0.000000
# 5 0.000000 0.000000 0.000000 0.000000 0.087238 0.000000
# 6 0.000000 0.000000 0.000000 0.000000 0.000000 0.071396
#
#
# Mechanical properties :
#
#
# Convention : Reuss Voigt Hill
#
# Bulk Modulus (GPa) = 2.41766 17.99923 10.20845
# Shear Modulus (GPa) = 8.90331 23.65165 16.27748
#
# Velocity S-wave (km/s) = 2.30764 3.76116 3.12022
# Velocity P-wave (km/s) = 2.92340 5.44310 4.36885
#
# Compressibility (1/GPa) = 0.41362227
#
# Stress axis : x y z
#
# Youngs Moduli (GPa) = 37.34040 3.44607 109.66771
#
# Poissons Ratio (x) = -0.13595 0.10365
# Poissons Ratio (y) = -1.47309 -0.57728
# Poissons Ratio (z) = 0.03529 -0.01814
#
# Static dielectric constant tensor:
#      x y z
#    x 1.549160 0.000000 0.000000 
#    y 0.000000 1.590730 0.000000 
#    z 0.000000 0.000000 1.594060 
# 
# From -- ./inp_files/68028.got.cif
#   From: 2010.05.17/outbox.cif.g08.bks.cpg/sg65_35_cif.got.tgz:68028.got - 2010.06.03 17:01:31.
