data_PCOD9485832
_publ_section_title
;
Structure prediction by ZEFSAII (Michael W. Deem and Ramdas Pophale) SiO2 
 PCOD9485832
Probable space group: C M M M
;
_chemical_formula_sum "Si O2"
_cell_formula_units_Z 88
_cell_length_a 7.691792
_cell_length_b 19.350788
_cell_length_c 29.657706
_cell_angle_alpha 90.000000
_cell_angle_beta 90.000000
_cell_angle_gamma 90.000000
_cell_volume 4414.319286
_symmetry_space_group_name_H-M "C M M M"
_symmetry_group_IT_number 65
_symmetry_cell_setting 'orthorhombic'
loop_
_space_group_symop_operation_xyz
x,y,z
-x,-y,z
x,-y,-z
-x,y,-z
-x,-y,-z
x,y,-z
-x,y,z
x,-y,z
1/2+x,1/2+y,z
1/2-x,1/2-y,z
1/2+x,1/2-y,-z
1/2-x,1/2+y,-z
1/2-x,1/2-y,-z
1/2+x,1/2+y,-z
1/2-x,1/2+y,z
1/2+x,1/2-y,z
loop_
_atom_site_type_symbol
_atom_site_label
_atom_site_fract_x
_atom_site_fract_y
_atom_site_fract_z
Si Si1 0.292869 0.922170 0.732951
Si Si2 0.786701 0.579493 0.000000
Si Si3 0.792812 0.831196 0.646716
Si Si4 0.290578 0.170393 0.814687
Si Si5 0.209140 0.831875 0.451591
Si Si6 0.791109 0.670430 0.083721
O O1 0.500000 0.927404 0.739586
O O2 0.267561 0.877475 0.688019
O O3 0.222548 0.880502 0.776178
O O4 0.222920 0.000000 0.728962
O O5 0.727494 0.619865 0.044687
O O6 0.733173 0.500000 0.000000
O O7 0.000000 0.580816 0.000000
O O8 0.750000 0.750000 0.653019
O O9 0.724882 0.855571 0.597388
O O10 0.000000 0.835982 0.645290
O O11 0.500000 0.164438 0.815899
O O12 0.250000 0.250000 0.803469
O O13 0.225279 0.156389 0.865511
O O14 0.274412 0.859857 0.500000
O O15 0.250000 0.750000 0.451850
O O16 0.000000 0.840203 0.451716
O O17 0.750000 0.750000 0.072688
O O18 0.000000 0.663886 0.085124
#
# Coordination Sequence:
#
# PCOD9485832 Si02
#       6
#    16   8  16  16  16  16
#     4  10  21  35  49  67  94 127 161 198 240 284
#     4   9  17  28  45  71  98 123 154 192 230 269
#     4  10  19  31  50  74  98 125 158 195 235 281
#     4   9  18  32  50  71  93 120 155 194 236 281
#     4   8  14  25  42  66  94 120 148 186 231 276
#     4   9  17  30  49  71  94 121 154 192 232 276
#
# _framework density 19.935124999999999
#
# number of rings (size 3 to 8) (size 9 to 14) (size 15 to 20)
#    0.000    2.818    0.000    1.364    0.000    4.000 
#    0.000    3.636    0.000    1.636    0.000    8.909 
#    0.000    0.000    0.000    0.000    0.000    0.000 
#
# Total GULP energy -245266.817783 kJ/mol
# GULP energy per Si atom -5574.245859 kJ/mol
# Density = 1.988975 g / cm^3
# Si number density = 19.935125 Si / 1000 Ang^3
#
#
#
# Elastic Constant Matrix: (Units=GPa)
#
#
# Indices 1 2 3 4 5 6 
#
# 1 36.0264 1.6968 5.4323 0.0000 0.0000 0.0000
# 2 1.6968 124.5975 132.0093 0.0000 0.0000 0.0000
# 3 5.4323 132.0093 207.3643 0.0000 0.0000 0.0000
# 4 0.0000 0.0000 0.0000 -6.3752 0.0000 0.0000
# 5 0.0000 0.0000 0.0000 0.0000 12.8429 0.0000
# 6 0.0000 0.0000 0.0000 0.0000 0.0000 17.2326
#
#
#
# Elastic Compliance Matrix: (Units=1/GPa)
#
#
# Indices 1 2 3 4 5 6 
#
# 1 0.027927 0.001213 -0.001504 0.000000 0.000000 0.000000
# 2 0.001213 0.024708 -0.015761 0.000000 0.000000 0.000000
# 3 -0.001504 -0.015761 0.014895 0.000000 0.000000 0.000000
# 4 0.000000 0.000000 0.000000 -0.156858 0.000000 0.000000
# 5 0.000000 0.000000 0.000000 0.000000 0.077864 0.000000
# 6 0.000000 0.000000 0.000000 0.000000 0.000000 0.058030
#
#
# Mechanical properties :
#
#
# Convention : Reuss Voigt Hill
#
# Bulk Modulus (GPa) = 28.22741 71.80723 50.01732
# Shear Modulus (GPa) = 55.26208 19.99672 37.62940
#
# Velocity S-wave (km/s) = 5.27078 3.17060 4.34936
# Velocity P-wave (km/s) = 7.15765 7.03578 7.09698
#
# Compressibility (1/GPa) = 0.03542656
#
# Stress axis : x y z
#
# Youngs Moduli (GPa) = 35.80762 40.47318 67.13540
#
# Poissons Ratio (x) = -0.04909 0.10095
# Poissons Ratio (y) = -0.04343 1.05811
# Poissons Ratio (z) = 0.05384 0.63789
#
# Static dielectric constant tensor:
#      x y z
#    x 1.723080 0.000000 0.000000 
#    y 0.000000 1.647500 0.000000 
#    z 0.000000 0.000000 1.755250 
# 
# From -- ./inp_files/76505.got.cif
#   From: 2010.05.17/outbox.cif.g08.bks.cpg/sg65_39_cif.got.tgz:76505.got - 2010.06.03 17:01:31.
