data_PCOD9485286
_publ_section_title
;
Structure prediction by ZEFSAII (Michael W. Deem and Ramdas Pophale) SiO2 
 PCOD9485286
Probable space group: C M M M
;
_chemical_formula_sum "Si O2"
_cell_formula_units_Z 72
_cell_length_a 7.621586
_cell_length_b 18.220581
_cell_length_c 26.189906
_cell_angle_alpha 90.000000
_cell_angle_beta 90.000000
_cell_angle_gamma 90.000000
_cell_volume 3636.985046
_symmetry_space_group_name_H-M "C M M M"
_symmetry_group_IT_number 65
_symmetry_cell_setting 'orthorhombic'
loop_
_space_group_symop_operation_xyz
x,y,z
-x,-y,z
x,-y,-z
-x,y,-z
-x,-y,-z
x,y,-z
-x,y,z
x,-y,z
1/2+x,1/2+y,z
1/2-x,1/2-y,z
1/2+x,1/2-y,-z
1/2-x,1/2+y,-z
1/2-x,1/2-y,-z
1/2+x,1/2+y,-z
1/2-x,1/2+y,z
1/2+x,1/2-y,z
loop_
_atom_site_type_symbol
_atom_site_label
_atom_site_fract_x
_atom_site_fract_y
_atom_site_fract_z
Si Si1 0.208483 0.663601 0.665568
Si Si2 0.207908 0.917795 0.230331
Si Si3 0.789025 0.337299 0.554869
Si Si4 0.000000 0.412854 0.939422
Si Si5 0.790059 0.163783 0.127964
O O1 0.250000 0.750000 0.671322
O O2 0.266747 0.619362 0.714892
O O3 0.278361 0.636746 0.610144
O O4 0.000000 0.657134 0.663366
O O5 0.268558 0.868022 0.183190
O O6 0.000000 0.923748 0.222997
O O7 0.283410 0.000000 0.228827
O O8 0.722650 0.366396 0.500000
O O9 0.750000 0.250000 0.554863
O O10 0.000000 0.346675 0.554596
O O11 0.171894 0.377192 0.913744
O O12 0.000000 0.500000 0.929905
O O13 0.000000 0.400090 0.000000
O O14 0.750000 0.250000 0.126230
O O15 0.000000 0.152497 0.121145
#
# Coordination Sequence:
#
# PCOD9485286 Si02
#       5
#    16  16  16   8  16
#     4  10  19  30  49  77 105 141 183 231 289 350
#     4  10  22  38  57  81 113 151 192 242 300 359
#     4   8  14  25  41  64  96 131 173 225 281 341
#     4  11  26  46  70 102 137 175 216 260 313 368
#     4  11  23  43  68  99 130 169 214 264 316 369
#
# _framework density 19.796617999999999
#
# number of rings (size 3 to 8) (size 9 to 14) (size 15 to 20)
#    0.000    2.111    1.111    2.000    1.556    5.333 
#    0.000    1.111    0.000    0.667    0.000    4.667 
#    0.000    0.000    0.000    0.000    0.000    0.000 
#
# Total GULP energy -200763.851776 kJ/mol
# GULP energy per Si atom -5576.773660 kJ/mol
# Density = 1.975156 g / cm^3
# Si number density = 19.796618 Si / 1000 Ang^3
#
#
#
# Elastic Constant Matrix: (Units=GPa)
#
#
# Indices 1 2 3 4 5 6 
#
# 1 82.9941 29.1455 45.9835 0.0000 0.0000 0.0000
# 2 29.1455 108.8283 99.3877 0.0000 0.0000 0.0000
# 3 45.9835 99.3877 198.3531 0.0000 0.0000 0.0000
# 4 0.0000 0.0000 0.0000 490.2740 0.0000 0.0000
# 5 0.0000 0.0000 0.0000 0.0000 -59.6355 0.0000
# 6 0.0000 0.0000 0.0000 0.0000 0.0000 1.4458
#
#
#
# Elastic Compliance Matrix: (Units=1/GPa)
#
#
# Indices 1 2 3 4 5 6 
#
# 1 0.013947 -0.001442 -0.002510 0.000000 0.000000 0.000000
# 2 -0.001442 0.017090 -0.008229 0.000000 0.000000 0.000000
# 3 -0.002510 -0.008229 0.009747 0.000000 0.000000 0.000000
# 4 0.000000 0.000000 0.000000 0.002040 0.000000 0.000000
# 5 0.000000 0.000000 0.000000 0.000000 -0.016769 0.000000
# 6 0.000000 0.000000 0.000000 0.000000 0.000000 0.691638
#
#
# Mechanical properties :
#
#
# Convention : Reuss Voigt Hill
#
# Bulk Modulus (GPa) = 60.90154 82.13432 71.51793
# Shear Modulus (GPa) = 6.68870 100.79411 53.74141
#
# Velocity S-wave (km/s) = 1.84012 7.14320 5.21591
# Velocity P-wave (km/s) = 5.94518 10.46962 8.51346
#
# Compressibility (1/GPa) = 0.01641995
#
# Stress axis : x y z
#
# Youngs Moduli (GPa) = 71.70257 58.51342 102.59881
#
# Poissons Ratio (x) = 0.08440 0.25757
# Poissons Ratio (y) = 0.10342 0.84427
# Poissons Ratio (z) = 0.18001 0.48150
#
# Static dielectric constant tensor:
#      x y z
#    x 1.722570 0.000000 0.000000 
#    y 0.000000 1.659610 0.000000 
#    z 0.000000 0.000000 1.736730 
# 
# From -- ./inp_files/72552.got.cif
#   From: 2010.05.17/outbox.cif.g08.bks.cpg/sg65_37_cif.got.tgz:72552.got - 2010.06.03 17:01:31.
