data_PCOD9485893
_publ_section_title
;
Structure prediction by ZEFSAII (Michael W. Deem and Ramdas Pophale) SiO2 
 PCOD9485893
Probable space group: C M M M
;
_chemical_formula_sum "Si O2"
_cell_formula_units_Z 88
_cell_length_a 17.245548
_cell_length_b 29.612721
_cell_length_c 7.444629
_cell_angle_alpha 90.000000
_cell_angle_beta 90.000000
_cell_angle_gamma 90.000000
_cell_volume 3801.879727
_symmetry_space_group_name_H-M "C M M M"
_symmetry_group_IT_number 65
_symmetry_cell_setting 'orthorhombic'
loop_
_space_group_symop_operation_xyz
x,y,z
-x,-y,z
x,-y,-z
-x,y,-z
-x,-y,-z
x,y,-z
-x,y,z
x,-y,z
1/2+x,1/2+y,z
1/2-x,1/2-y,z
1/2+x,1/2-y,-z
1/2-x,1/2+y,-z
1/2-x,1/2-y,-z
1/2+x,1/2+y,-z
1/2-x,1/2+y,z
1/2+x,1/2-y,z
loop_
_atom_site_type_symbol
_atom_site_label
_atom_site_fract_x
_atom_site_fract_y
_atom_site_fract_z
Si Si1 0.161715 0.408596 0.791264
Si Si2 0.332710 0.269435 0.281007
Si Si3 0.500000 0.947245 0.782573
Si Si4 0.174541 0.949355 0.707552
Si Si5 0.585876 0.180215 0.283573
Si Si6 0.910530 0.861232 0.280066
O O1 0.237633 0.430522 0.708971
O O2 0.151986 0.354756 0.775153
O O3 0.080281 0.426594 0.714218
O O4 0.165163 0.421128 0.000000
O O5 0.330393 0.271063 0.500000
O O6 0.250000 0.250000 0.221740
O O7 0.394732 0.231134 0.230140
O O8 0.358221 0.318938 0.220554
O O9 0.500000 0.000000 0.745445
O O10 0.500000 0.940904 0.000000
O O11 0.150543 0.953268 0.500000
O O12 0.122600 0.909097 0.785859
O O13 0.170758 0.000000 0.785428
O O14 0.585152 0.178878 0.500000
O O15 0.500000 0.166732 0.218213
O O16 0.907402 0.861538 0.500000
O O17 0.000000 0.854752 0.229991
#
# Coordination Sequence:
#
# PCOD9485893 Si02
#       6
#    16  16   8  16  16  16
#     4  11  21  35  54  76 106 144 185 223 268 327
#     4   9  16  27  47  77 111 145 178 215 263 318
#     4   9  18  32  49  69  95 131 177 221 256 305
#     4  10  21  36  55  81 110 138 175 229 285 327
#     4  10  19  31  50  77 109 141 176 221 268 312
#     4   9  17  31  53  81 112 145 183 224 268 324
#
# _framework density 23.146446000000001
#
# number of rings (size 3 to 8) (size 9 to 14) (size 15 to 20)
#    0.000    2.273    0.909    2.727    0.000    6.545 
#    0.000    1.818    0.000    7.636    0.000    1.273 
#    0.000    0.000    0.000    0.000    0.000    0.000 
#
# Total GULP energy -245861.390997 kJ/mol
# GULP energy per Si atom -5587.758886 kJ/mol
# Density = 2.309376 g / cm^3
# Si number density = 23.146446 Si / 1000 Ang^3
#
#
#
# Elastic Constant Matrix: (Units=GPa)
#
#
# Indices 1 2 3 4 5 6 
#
# 1 124.1249 81.7224 -1.4241 0.0000 0.0000 0.0000
# 2 81.7224 204.3346 1.4260 0.0000 0.0000 0.0000
# 3 -1.4241 1.4260 71.0471 0.0000 0.0000 0.0000
# 4 0.0000 0.0000 0.0000 -54.0991 0.0000 0.0000
# 5 0.0000 0.0000 0.0000 0.0000 -25.0761 0.0000
# 6 0.0000 0.0000 0.0000 0.0000 0.0000 31.8583
#
#
#
# Elastic Compliance Matrix: (Units=1/GPa)
#
#
# Indices 1 2 3 4 5 6 
#
# 1 0.010943 -0.004379 0.000307 0.000000 0.000000 0.000000
# 2 -0.004379 0.006647 -0.000221 0.000000 0.000000 0.000000
# 3 0.000307 -0.000221 0.014086 0.000000 0.000000 0.000000
# 4 0.000000 0.000000 0.000000 -0.018485 0.000000 0.000000
# 5 0.000000 0.000000 0.000000 0.000000 -0.039879 0.000000
# 6 0.000000 0.000000 0.000000 0.000000 0.000000 0.031389
#
#
# Mechanical properties :
#
#
# Convention : Reuss Voigt Hill
#
# Bulk Modulus (GPa) = 43.30872 62.55057 52.92964
# Shear Modulus (GPa) = 238.29035 11.72212 125.00623
#
# Velocity S-wave (km/s) = 10.15739 2.25285 7.35690
# Velocity P-wave (km/s) = 12.50259 5.81804 9.75101
#
# Compressibility (1/GPa) = 0.02309004
#
# Stress axis : x y z
#
# Youngs Moduli (GPa) = 91.38459 150.45093 70.99370
#
# Poissons Ratio (x) = 0.65877 -0.02181
# Poissons Ratio (y) = 0.40014 0.01570
# Poissons Ratio (z) = -0.02808 0.03328
#
# Static dielectric constant tensor:
#      x y z
#    x 1.833710 0.000000 0.000000 
#    y 0.000000 1.866870 0.000000 
#    z 0.000000 0.000000 1.877590 
# 
# From -- ./inp_files/10073.got.cif
#   From: 2010.05.17/outbox.cif.g08.bks.cpg/sg65_6_cif.got.tgz:10073.got - 2010.06.03 17:01:31.
