data_PCOD9485866
_publ_section_title
;
Structure prediction by ZEFSAII (Michael W. Deem and Ramdas Pophale) SiO2 
 PCOD9485866
Probable space group: C M M M
;
_chemical_formula_sum "Si O2"
_cell_formula_units_Z 72
_cell_length_a 9.081119
_cell_length_b 15.054331
_cell_length_c 27.855892
_cell_angle_alpha 90.000000
_cell_angle_beta 90.000000
_cell_angle_gamma 90.000000
_cell_volume 3808.183766
_symmetry_space_group_name_H-M "C M M M"
_symmetry_group_IT_number 65
_symmetry_cell_setting 'orthorhombic'
loop_
_space_group_symop_operation_xyz
x,y,z
-x,-y,z
x,-y,-z
-x,y,-z
-x,-y,-z
x,y,-z
-x,y,z
x,-y,z
1/2+x,1/2+y,z
1/2-x,1/2-y,z
1/2+x,1/2-y,-z
1/2-x,1/2+y,-z
1/2-x,1/2-y,-z
1/2+x,1/2+y,-z
1/2-x,1/2+y,z
1/2+x,1/2-y,z
loop_
_atom_site_type_symbol
_atom_site_label
_atom_site_fract_x
_atom_site_fract_y
_atom_site_fract_z
Si Si1 0.323915 0.158899 0.746705
Si Si2 0.178964 0.500000 0.074447
Si Si3 0.171097 0.391610 0.553260
Si Si4 0.821644 0.652328 0.000000
Si Si5 0.321072 0.000000 0.183843
Si Si6 0.832703 0.107611 0.648939
O O1 0.500000 0.164205 0.746027
O O2 0.250000 0.250000 0.761445
O O3 0.266593 0.135984 0.693525
O O4 0.277176 0.084393 0.784667
O O5 0.220687 0.589248 0.045290
O O6 0.232038 0.500000 0.129172
O O7 0.000000 0.500000 0.074515
O O8 0.221351 0.363657 0.500000
O O9 0.174236 0.500000 0.553536
O O10 0.267801 0.361545 0.598034
O O11 0.000000 0.366134 0.559386
O O12 0.750000 0.750000 0.000000
O O13 0.000000 0.661721 0.000000
O O14 0.500000 0.000000 0.181923
O O15 0.000000 0.139082 0.655683
O O16 0.834031 0.000000 0.648178
#
# Coordination Sequence:
#
# PCOD9485866 Si02
#       6
#    16   8  16   8   8  16
#     4  11  22  37  56  79 105 141 184 229 279 333
#     4   8  16  33  54  80 112 153 193 225 270 331
#     4   8  14  25  43  69 100 134 173 216 264 324
#     4   9  17  31  56  84 116 153 191 231 272 322
#     4   9  19  36  58  80 109 147 190 231 274 330
#     4  10  19  31  50  75 104 138 176 223 273 327
#
# _framework density 18.906651
#
# number of rings (size 3 to 8) (size 9 to 14) (size 15 to 20)
#    0.000    2.667    1.111    2.667    0.000    2.222 
#    0.000    3.333    0.000    4.667    0.000    0.000 
#    0.000    0.000    0.000    0.000    0.000    0.000 
#
# Total GULP energy -200846.650759 kJ/mol
# GULP energy per Si atom -5579.073632 kJ/mol
# Density = 1.886362 g / cm^3
# Si number density = 18.906651 Si / 1000 Ang^3
#
#
#
# Elastic Constant Matrix: (Units=GPa)
#
#
# Indices 1 2 3 4 5 6 
#
# 1 64.8882 42.3576 55.0640 0.0000 0.0000 0.0000
# 2 42.3576 121.0056 76.4090 0.0000 0.0000 0.0000
# 3 55.0640 76.4090 179.3714 0.0000 0.0000 0.0000
# 4 0.0000 0.0000 0.0000 -82.1939 0.0000 0.0000
# 5 0.0000 0.0000 0.0000 0.0000 7.9691 0.0000
# 6 0.0000 0.0000 0.0000 0.0000 0.0000 25.2254
#
#
#
# Elastic Compliance Matrix: (Units=1/GPa)
#
#
# Indices 1 2 3 4 5 6 
#
# 1 0.022755 -0.004862 -0.004914 0.000000 0.000000 0.000000
# 2 -0.004862 0.012344 -0.003766 0.000000 0.000000 0.000000
# 3 -0.004914 -0.003766 0.008688 0.000000 0.000000 0.000000
# 4 0.000000 0.000000 0.000000 -0.012166 0.000000 0.000000
# 5 0.000000 0.000000 0.000000 0.000000 0.125484 0.000000
# 6 0.000000 0.000000 0.000000 0.000000 0.000000 0.039643
#
#
# Mechanical properties :
#
#
# Convention : Reuss Voigt Hill
#
# Bulk Modulus (GPa) = 59.87103 79.21407 69.54255
# Shear Modulus (GPa) = 21.79602 2.96244 12.37923
#
# Velocity S-wave (km/s) = 3.39901 1.25311 2.56159
# Velocity P-wave (km/s) = 6.86584 6.63944 6.75359
#
# Compressibility (1/GPa) = 0.01670257
#
# Stress axis : x y z
#
# Youngs Moduli (GPa) = 43.94563 81.01133 115.10509
#
# Poissons Ratio (x) = 0.39391 0.56566
# Poissons Ratio (y) = 0.21368 0.43344
# Poissons Ratio (z) = 0.21596 0.30506
#
# Static dielectric constant tensor:
#      x y z
#    x 1.635800 0.000000 0.000000 
#    y 0.000000 1.692650 0.000000 
#    z 0.000000 0.000000 1.645810 
# 
# From -- ./inp_files/76382.got.cif
#   From: 2010.05.17/outbox.cif.g08.bks.cpg/sg65_39_cif.got.tgz:76382.got - 2010.06.03 17:01:31.
