data_PCOD9485233
_publ_section_title
;
Structure prediction by ZEFSAII (Michael W. Deem and Ramdas Pophale) SiO2 
 PCOD9485233
Probable space group: C M M M
;
_chemical_formula_sum "Si O2"
_cell_formula_units_Z 88
_cell_length_a 18.507552
_cell_length_b 31.023009
_cell_length_c 7.981849
_cell_angle_alpha 90.000000
_cell_angle_beta 90.000000
_cell_angle_gamma 90.000000
_cell_volume 4582.858041
_symmetry_space_group_name_H-M "C M M M"
_symmetry_group_IT_number 65
_symmetry_cell_setting 'orthorhombic'
loop_
_space_group_symop_operation_xyz
x,y,z
-x,-y,z
x,-y,-z
-x,y,-z
-x,-y,-z
x,y,-z
-x,y,z
x,-y,z
1/2+x,1/2+y,z
1/2-x,1/2-y,z
1/2+x,1/2-y,-z
1/2-x,1/2+y,-z
1/2-x,1/2-y,-z
1/2+x,1/2+y,-z
1/2-x,1/2+y,z
1/2+x,1/2-y,z
loop_
_atom_site_type_symbol
_atom_site_label
_atom_site_fract_x
_atom_site_fract_y
_atom_site_fract_z
Si Si1 0.086105 0.080441 0.000000
Si Si2 0.666516 0.085754 0.701598
Si Si3 0.916587 0.500000 0.295228
Si Si4 0.083154 0.670496 0.802643
Si Si5 0.178410 0.949384 0.693491
Si Si6 0.411961 0.263868 0.683816
Si Si7 0.411978 0.319097 0.000000
O O1 0.118426 0.059468 0.832279
O O2 0.107184 0.130910 0.000000
O O3 0.000000 0.076977 0.000000
O O4 0.659727 0.087206 0.500000
O O5 0.622989 0.043504 0.761429
O O6 0.632340 0.129266 0.770914
O O7 0.750546 0.077991 0.738412
O O8 0.913833 0.500000 0.500000
O O9 0.000000 0.500000 0.244944
O O10 0.108370 0.714058 0.712234
O O11 0.000000 0.661009 0.749685
O O12 0.081591 0.680437 0.000000
O O13 0.157024 0.939770 0.500000
O O14 0.198737 0.000000 0.697488
O O15 0.388958 0.278777 0.500000
O O16 0.500000 0.264245 0.688615
O O17 0.386596 0.294047 0.834449
O O18 0.500000 0.317145 0.000000
#
# Coordination Sequence:
#
# PCOD9485233 Si02
#       7
#     8  16   8  16  16  16   8
#     4  11  25  42  66  96 119 141 177 234 306 368
#     4  10  19  33  53  78 111 157 206 244 284 336
#     4   9  16  28  49  77 111 152 200 253 292 318
#     4  10  19  30  47  79 121 160 204 253 288 320
#     4  10  22  42  65  88 118 157 197 233 282 354
#     4   9  16  29  52  79 112 156 195 232 285 340
#     4   9  18  35  55  83 117 140 174 232 291 359
#
# _framework density 19.201991
#
# number of rings (size 3 to 8) (size 9 to 14) (size 15 to 20)
#    0.000    2.273    1.818    1.364    1.273    3.636 
#    0.000    3.182    0.000    3.818    0.000    3.818 
#    0.000    0.000    0.000    0.000    0.000    0.000 
#
# Total GULP energy -245587.909985 kJ/mol
# GULP energy per Si atom -5581.543409 kJ/mol
# Density = 1.915829 g / cm^3
# Si number density = 19.201991 Si / 1000 Ang^3
#
#
#
# Elastic Constant Matrix: (Units=GPa)
#
#
# Indices 1 2 3 4 5 6 
#
# 1 50.7092 9.7556 35.1423 0.0000 0.0000 0.0000
# 2 9.7556 52.1872 27.2300 0.0000 0.0000 0.0000
# 3 35.1423 27.2300 88.6253 0.0000 0.0000 0.0000
# 4 0.0000 0.0000 0.0000 45.3763 0.0000 0.0000
# 5 0.0000 0.0000 0.0000 0.0000 13.4131 0.0000
# 6 0.0000 0.0000 0.0000 0.0000 0.0000 -57.1743
#
#
#
# Elastic Compliance Matrix: (Units=1/GPa)
#
#
# Indices 1 2 3 4 5 6 
#
# 1 0.027211 0.000647 -0.010989 0.000000 0.000000 0.000000
# 2 0.000647 0.022836 -0.007273 0.000000 0.000000 0.000000
# 3 -0.010989 -0.007273 0.017875 0.000000 0.000000 0.000000
# 4 0.000000 0.000000 0.000000 0.022038 0.000000 0.000000
# 5 0.000000 0.000000 0.000000 0.000000 0.074554 0.000000
# 6 0.000000 0.000000 0.000000 0.000000 0.000000 -0.017490
#
#
# Mechanical properties :
#
#
# Convention : Reuss Voigt Hill
#
# Bulk Modulus (GPa) = 30.58752 37.30859 33.94806
# Shear Modulus (GPa) = 25.88655 8.28260 17.08458
#
# Velocity S-wave (km/s) = 3.67566 2.07913 2.98607
# Velocity P-wave (km/s) = 5.82905 5.02349 5.44120
#
# Compressibility (1/GPa) = 0.03269307
#
# Stress axis : x y z
#
# Youngs Moduli (GPa) = 36.74958 43.79132 55.94311
#
# Poissons Ratio (x) = -0.02833 0.61474
# Poissons Ratio (y) = -0.02377 0.40686
# Poissons Ratio (z) = 0.40383 0.31848
#
# Static dielectric constant tensor:
#      x y z
#    x 1.643410 0.000000 0.000000 
#    y 0.000000 1.644040 0.000000 
#    z 0.000000 0.000000 1.677870 
# 
# From -- ./inp_files/10211.got.cif
#   From: 2010.05.17/outbox.cif.g08.bks.cpg/sg65_6_cif.got.tgz:10211.got - 2010.06.03 17:01:31.
