data_PCOD9485482
_publ_section_title
;
Structure prediction by ZEFSAII (Michael W. Deem and Ramdas Pophale) SiO2 
 PCOD9485482
Probable space group: C M M M
;
_chemical_formula_sum "Si O2"
_cell_formula_units_Z 80
_cell_length_a 28.248938
_cell_length_b 15.007529
_cell_length_c 11.865022
_cell_angle_alpha 90.000000
_cell_angle_beta 90.000000
_cell_angle_gamma 90.000000
_cell_volume 5030.137590
_symmetry_space_group_name_H-M "C M M M"
_symmetry_group_IT_number 65
_symmetry_cell_setting 'orthorhombic'
loop_
_space_group_symop_operation_xyz
x,y,z
-x,-y,z
x,-y,-z
-x,y,-z
-x,-y,-z
x,y,-z
-x,y,z
x,-y,z
1/2+x,1/2+y,z
1/2-x,1/2-y,z
1/2+x,1/2-y,-z
1/2-x,1/2+y,-z
1/2-x,1/2-y,-z
1/2+x,1/2+y,-z
1/2-x,1/2+y,z
1/2+x,1/2-y,z
loop_
_atom_site_type_symbol
_atom_site_label
_atom_site_fract_x
_atom_site_fract_y
_atom_site_fract_z
Si Si1 0.089219 0.607676 0.500000
Si Si2 0.360721 0.793598 0.134687
Si Si3 0.824833 0.902909 0.134618
Si Si4 0.231806 0.349805 0.745743
Si Si5 0.802934 0.394170 0.500000
Si Si6 0.945058 0.393589 0.747463
O O1 0.090828 0.500000 0.500000
O O2 0.143265 0.642479 0.500000
O O3 0.063687 0.631432 0.616298
O O4 0.352386 0.688645 0.165791
O O5 0.318349 0.851415 0.190369
O O6 0.409440 0.834635 0.179453
O O7 0.357835 0.799908 0.000000
O O8 0.774230 0.903200 0.196891
O O9 0.848029 0.000000 0.157009
O O10 0.816696 0.896916 0.000000
O O11 0.250000 0.250000 0.757697
O O12 0.223276 0.368948 0.614746
O O13 0.807138 0.500000 0.500000
O O14 0.934526 0.500000 0.759593
O O15 0.000000 0.380556 0.776340
#
# Coordination Sequence:
#
# PCOD9485482 Si02
#       6
#     8  16  16  16   8  16
#     4   9  17  31  50  70  93 124 161 195 232 283
#     4  10  20  33  49  71  99 128 160 199 241 285
#     4   9  18  33  52  71  94 128 167 202 235 278
#     4  10  19  31  47  69  97 129 161 197 236 282
#     4  11  19  28  45  67  96 129 160 196 236 276
#     4  10  20  34  52  73  97 126 159 196 240 289
#
# _framework density 15.904139000000001
#
# number of rings (size 3 to 8) (size 9 to 14) (size 15 to 20)
#    0.000    2.200    2.000    1.800    0.000    5.200 
#    0.000    1.000    0.000    0.600    0.000    2.800 
#    0.000    1.600    0.000    0.000    0.000    0.000 
#
# Total GULP energy -222772.736557 kJ/mol
# GULP energy per Si atom -5569.318414 kJ/mol
# Density = 1.586794 g / cm^3
# Si number density = 15.904139 Si / 1000 Ang^3
#
#
#
# Elastic Constant Matrix: (Units=GPa)
#
#
# Indices 1 2 3 4 5 6 
#
# 1 84.3082 31.1800 24.6162 0.0000 0.0000 0.0000
# 2 31.1800 63.7557 16.9917 0.0000 0.0000 0.0000
# 3 24.6162 16.9917 59.9434 0.0000 0.0000 0.0000
# 4 0.0000 0.0000 0.0000 18.3052 0.0000 0.0000
# 5 0.0000 0.0000 0.0000 0.0000 13.2319 0.0000
# 6 0.0000 0.0000 0.0000 0.0000 0.0000 29.5376
#
#
#
# Elastic Compliance Matrix: (Units=1/GPa)
#
#
# Indices 1 2 3 4 5 6 
#
# 1 0.015562 -0.006390 -0.004579 0.000000 0.000000 0.000000
# 2 -0.006390 0.019591 -0.002929 0.000000 0.000000 0.000000
# 3 -0.004579 -0.002929 0.019393 0.000000 0.000000 0.000000
# 4 0.000000 0.000000 0.000000 0.054629 0.000000 0.000000
# 5 0.000000 0.000000 0.000000 0.000000 0.075575 0.000000
# 6 0.000000 0.000000 0.000000 0.000000 0.000000 0.033855
#
#
# Mechanical properties :
#
#
# Convention : Reuss Voigt Hill
#
# Bulk Modulus (GPa) = 37.38489 39.28700 38.33595
# Shear Modulus (GPa) = 19.58349 21.22957 20.40653
#
# Velocity S-wave (km/s) = 3.51286 3.65752 3.58592
# Velocity P-wave (km/s) = 6.32542 6.52630 6.42665
#
# Compressibility (1/GPa) = 0.02674877
#
# Stress axis : x y z
#
# Youngs Moduli (GPa) = 64.26114 51.04489 51.56462
#
# Poissons Ratio (x) = 0.32618 0.23612
# Poissons Ratio (y) = 0.41063 0.15104
# Poissons Ratio (z) = 0.29426 0.14952
#
# Static dielectric constant tensor:
#      x y z
#    x 1.530420 0.000000 0.000000 
#    y 0.000000 1.554930 0.000000 
#    z 0.000000 0.000000 1.513840 
# 
# From -- ./inp_files/24707.got.cif
#   From: 2010.05.17/outbox.cif.g08.bks.cpg/sg65_13_cif.got.tgz:24707.got - 2010.06.03 17:01:31.
