data_PCOD9485818
_publ_section_title
;
Structure prediction by ZEFSAII (Michael W. Deem and Ramdas Pophale) SiO2 
 PCOD9485818
Probable space group: C M M M
;
_chemical_formula_sum "Si O2"
_cell_formula_units_Z 88
_cell_length_a 18.589211
_cell_length_b 7.719666
_cell_length_c 29.346046
_cell_angle_alpha 90.000000
_cell_angle_beta 90.000000
_cell_angle_gamma 90.000000
_cell_volume 4211.230970
_symmetry_space_group_name_H-M "C M M M"
_symmetry_group_IT_number 65
_symmetry_cell_setting 'orthorhombic'
loop_
_space_group_symop_operation_xyz
x,y,z
-x,-y,z
x,-y,-z
-x,y,-z
-x,-y,-z
x,y,-z
-x,y,z
x,-y,z
1/2+x,1/2+y,z
1/2-x,1/2-y,z
1/2+x,1/2-y,-z
1/2-x,1/2+y,-z
1/2-x,1/2-y,-z
1/2+x,1/2+y,-z
1/2-x,1/2+y,z
1/2+x,1/2-y,z
loop_
_atom_site_type_symbol
_atom_site_label
_atom_site_fract_x
_atom_site_fract_y
_atom_site_fract_z
Si Si1 0.666093 0.208442 0.228362
Si Si2 0.583440 0.212230 0.500000
Si Si3 0.416693 0.212180 0.681194
Si Si4 0.833383 0.206238 0.949256
Si Si5 0.580884 0.206269 0.859429
Si Si6 0.334246 0.791800 0.409343
O O1 0.750000 0.250000 0.230771
O O2 0.623119 0.270488 0.272854
O O3 0.630050 0.275202 0.181732
O O4 0.660291 0.000000 0.228295
O O5 0.500000 0.265008 0.500000
O O6 0.625189 0.270784 0.454723
O O7 0.584017 0.000000 0.500000
O O8 0.500000 0.265209 0.680050
O O9 0.373460 0.270870 0.636500
O O10 0.416101 0.000000 0.681191
O O11 0.750000 0.250000 0.940162
O O12 0.882687 0.268286 0.908287
O O13 0.839694 0.000000 0.950735
O O14 0.851274 0.275065 0.000000
O O15 0.500000 0.277669 0.858080
O O16 0.575913 0.000000 0.852444
O O17 0.250000 0.750000 0.409822
O O18 0.340706 0.000000 0.409305
#
# Coordination Sequence:
#
# PCOD9485818 Si02
#       6
#    16   8  16  16  16  16
#     4  10  20  34  53  76 102 132 168 210 253 301
#     4   9  17  30  49  73  98 127 170 216 250 289
#     4   9  17  31  52  75  98 129 170 210 248 295
#     4  10  21  37  57  80 106 137 173 212 254 302
#     4  10  21  36  54  77 105 137 172 211 256 304
#     4  10  19  31  50  74 100 131 166 207 253 300
#
# _framework density 20.896502999999999
#
# number of rings (size 3 to 8) (size 9 to 14) (size 15 to 20)
#    0.000    2.273    0.000    3.000    0.000    8.364 
#    0.000    1.818    0.000    5.455    0.000    0.000 
#    0.000    0.000    0.000    0.000    0.000    0.000 
#
# Total GULP energy -245820.645238 kJ/mol
# GULP energy per Si atom -5586.832846 kJ/mol
# Density = 2.084894 g / cm^3
# Si number density = 20.896503 Si / 1000 Ang^3
#
#
#
# Elastic Constant Matrix: (Units=GPa)
#
#
# Indices 1 2 3 4 5 6 
#
# 1 220.6360 -0.0218 148.4744 0.0000 0.0000 0.0000
# 2 -0.0218 32.7164 7.9027 0.0000 0.0000 0.0000
# 3 148.4744 7.9027 210.0996 0.0000 0.0000 0.0000
# 4 0.0000 0.0000 0.0000 -29.6155 0.0000 0.0000
# 5 0.0000 0.0000 0.0000 0.0000 15.8565 0.0000
# 6 0.0000 0.0000 0.0000 0.0000 0.0000 26.7853
#
#
#
# Elastic Compliance Matrix: (Units=1/GPa)
#
#
# Indices 1 2 3 4 5 6 
#
# 1 0.008715 0.001507 -0.006216 0.000000 0.000000 0.000000
# 2 0.001507 0.031107 -0.002235 0.000000 0.000000 0.000000
# 3 -0.006216 -0.002235 0.009236 0.000000 0.000000 0.000000
# 4 0.000000 0.000000 0.000000 -0.033766 0.000000 0.000000
# 5 0.000000 0.000000 0.000000 0.000000 0.063066 0.000000
# 6 0.000000 0.000000 0.000000 0.000000 0.000000 0.037334
#
#
# Mechanical properties :
#
#
# Convention : Reuss Voigt Hill
#
# Bulk Modulus (GPa) = 28.43263 86.24030 57.33646
# Shear Modulus (GPa) = 35.38509 23.07836 29.23173
#
# Velocity S-wave (km/s) = 4.11950 3.32688 3.74422
# Velocity P-wave (km/s) = 6.02187 7.49115 6.79633
#
# Compressibility (1/GPa) = 0.03517086
#
# Stress axis : x y z
#
# Youngs Moduli (GPa) = 114.74166 32.14754 108.26951
#
# Poissons Ratio (x) = -0.04845 0.67296
# Poissons Ratio (y) = -0.17294 0.24200
# Poissons Ratio (z) = 0.71319 0.07186
#
# Static dielectric constant tensor:
#      x y z
#    x 1.694230 0.000000 0.000000 
#    y 0.000000 1.789250 0.000000 
#    z 0.000000 0.000000 1.739270 
# 
# From -- ./inp_files/76712.got.cif
#   From: 2010.05.17/outbox.cif.g08.bks.cpg/sg65_39_cif.got.tgz:76712.got - 2010.06.03 17:01:31.
