data_PCOD9485604
_publ_section_title
;
Structure prediction by ZEFSAII (Michael W. Deem and Ramdas Pophale) SiO2 
 PCOD9485604
Probable space group: C M M M
;
_chemical_formula_sum "Si O2"
_cell_formula_units_Z 104
_cell_length_a 8.883912
_cell_length_b 22.476589
_cell_length_c 29.830806
_cell_angle_alpha 90.000000
_cell_angle_beta 90.000000
_cell_angle_gamma 90.000000
_cell_volume 5956.616498
_symmetry_space_group_name_H-M "C M M M"
_symmetry_group_IT_number 65
_symmetry_cell_setting 'orthorhombic'
loop_
_space_group_symop_operation_xyz
x,y,z
-x,-y,z
x,-y,-z
-x,y,-z
-x,-y,-z
x,y,-z
-x,y,z
x,-y,z
1/2+x,1/2+y,z
1/2-x,1/2-y,z
1/2+x,1/2-y,-z
1/2-x,1/2+y,-z
1/2-x,1/2-y,-z
1/2+x,1/2+y,-z
1/2-x,1/2+y,z
1/2+x,1/2-y,z
loop_
_atom_site_type_symbol
_atom_site_label
_atom_site_fract_x
_atom_site_fract_y
_atom_site_fract_z
Si Si1 0.319794 0.894663 0.382006
Si Si2 0.670750 0.071690 0.196372
Si Si3 0.180055 0.814504 0.548132
Si Si4 0.177469 0.686112 0.946061
Si Si5 0.680277 0.569884 0.100995
Si Si6 0.682711 0.000000 0.551034
Si Si7 0.825220 0.927933 0.288088
O O1 0.500000 0.893574 0.379528
O O2 0.252106 0.838453 0.406632
O O3 0.272860 0.944911 0.418013
O O4 0.254148 0.906100 0.333136
O O5 0.500000 0.093884 0.190595
O O6 0.769154 0.082171 0.152194
O O7 0.744271 0.093199 0.242625
O O8 0.662963 0.000000 0.200331
O O9 0.219246 0.845922 0.500000
O O10 0.250000 0.750000 0.543942
O O11 0.000000 0.813863 0.551287
O O12 0.250000 0.750000 0.931460
O O13 0.249855 0.624886 0.927021
O O14 0.000000 0.686760 0.934899
O O15 0.193209 0.684026 0.000000
O O16 0.500000 0.571514 0.096833
O O17 0.726751 0.500000 0.090399
O O18 0.500000 0.000000 0.548513
O O19 0.739728 0.000000 0.500000
O O20 0.000000 0.910824 0.287609
O O21 0.818138 0.000000 0.288757
#
# Coordination Sequence:
#
# PCOD9485604 Si02
#       7
#    16  16  16  16  16   8  16
#     4  11  20  32  51  74 102 133 167 205 249 301
#     4   9  17  30  50  75 104 138 178 222 268 316
#     4  10  21  37  55  74  95 123 162 206 251 300
#     4  10  21  37  57  81 112 152 196 239 284 337
#     4  10  20  34  54  82 115 149 188 235 287 336
#     4   9  18  30  45  69 101 133 163 197 242 297
#     4  10  19  31  48  72 105 139 173 212 258 311
#
# _framework density 17.459575999999998
#
# number of rings (size 3 to 8) (size 9 to 14) (size 15 to 20)
#    0.000    2.077    0.769    3.231    0.000    6.154 
#    0.000    1.538    0.000    2.769    0.000    6.462 
#    0.000    0.000    0.000    0.000    0.000    0.000 
#
# Total GULP energy -289595.920317 kJ/mol
# GULP energy per Si atom -5569.152314 kJ/mol
# Density = 1.741984 g / cm^3
# Si number density = 17.459576 Si / 1000 Ang^3
#
#
#
# Elastic Constant Matrix: (Units=GPa)
#
#
# Indices 1 2 3 4 5 6 
#
# 1 90.5128 44.2800 47.7520 0.0000 0.0000 0.0000
# 2 44.2800 84.2045 47.0558 0.0000 0.0000 0.0000
# 3 47.7520 47.0558 86.6050 0.0000 0.0000 0.0000
# 4 0.0000 0.0000 0.0000 30.6665 0.0000 0.0000
# 5 0.0000 0.0000 0.0000 0.0000 31.1622 0.0000
# 6 0.0000 0.0000 0.0000 0.0000 0.0000 23.6438
#
#
#
# Elastic Compliance Matrix: (Units=1/GPa)
#
#
# Indices 1 2 3 4 5 6 
#
# 1 0.017108 -0.005349 -0.006527 0.000000 0.000000 0.000000
# 2 -0.005349 0.018727 -0.007225 0.000000 0.000000 0.000000
# 3 -0.006527 -0.007225 0.019071 0.000000 0.000000 0.000000
# 4 0.000000 0.000000 0.000000 0.032609 0.000000 0.000000
# 5 0.000000 0.000000 0.000000 0.000000 0.032090 0.000000
# 6 0.000000 0.000000 0.000000 0.000000 0.000000 0.042294
#
#
# Mechanical properties :
#
#
# Convention : Reuss Voigt Hill
#
# Bulk Modulus (GPa) = 59.86818 59.94421 59.90620
# Shear Modulus (GPa) = 24.31076 25.24347 24.77712
#
# Velocity S-wave (km/s) = 3.73554 3.80652 3.77120
# Velocity P-wave (km/s) = 7.27803 7.32988 7.30400
#
# Compressibility (1/GPa) = 0.01670336
#
# Stress axis : x y z
#
# Youngs Moduli (GPa) = 58.45066 53.39987 52.43521
#
# Poissons Ratio (x) = 0.28566 0.34223
# Poissons Ratio (y) = 0.31268 0.37886
# Poissons Ratio (z) = 0.38149 0.38583
#
# Static dielectric constant tensor:
#      x y z
#    x 1.596180 0.000000 0.000000 
#    y 0.000000 1.663020 0.000000 
#    z 0.000000 0.000000 1.585060 
# 
# From -- ./inp_files/73350.got.cif
#   From: 2010.05.17/outbox.cif.g08.bks.cpg/sg65_37_cif.got.tgz:73350.got - 2010.06.03 17:01:31.
