data_PCOD9485754
_publ_section_title
;
Structure prediction by ZEFSAII (Michael W. Deem and Ramdas Pophale) SiO2 
 PCOD9485754
Probable space group: C M M M
;
_chemical_formula_sum "Si O2"
_cell_formula_units_Z 96
_cell_length_a 25.700526
_cell_length_b 7.652638
_cell_length_c 22.760769
_cell_angle_alpha 90.000000
_cell_angle_beta 90.000000
_cell_angle_gamma 90.000000
_cell_volume 4476.515711
_symmetry_space_group_name_H-M "C M M M"
_symmetry_group_IT_number 65
_symmetry_cell_setting 'orthorhombic'
loop_
_space_group_symop_operation_xyz
x,y,z
-x,-y,z
x,-y,-z
-x,y,-z
-x,-y,-z
x,y,-z
-x,y,z
x,-y,z
1/2+x,1/2+y,z
1/2-x,1/2-y,z
1/2+x,1/2-y,-z
1/2-x,1/2+y,-z
1/2-x,1/2-y,-z
1/2+x,1/2+y,-z
1/2-x,1/2+y,z
1/2+x,1/2-y,z
loop_
_atom_site_type_symbol
_atom_site_label
_atom_site_fract_x
_atom_site_fract_y
_atom_site_fract_z
Si Si1 0.191158 0.710368 0.932907
Si Si2 0.000000 0.708637 0.203688
Si Si3 0.582900 0.713735 0.435999
Si Si4 0.610916 0.795209 0.162909
Si Si5 0.500000 0.288783 0.658734
Si Si6 0.807789 0.791671 0.260700
Si Si7 0.806733 0.790739 0.604810
O O1 0.187080 0.500000 0.934013
O O2 0.250000 0.750000 0.912754
O O3 0.146620 0.779598 0.889473
O O4 0.185853 0.774713 0.000000
O O5 0.946229 0.779726 0.176198
O O6 0.000000 0.733254 0.273980
O O7 0.000000 0.500000 0.194230
O O8 0.562799 0.768249 0.500000
O O9 0.581420 0.500000 0.435581
O O10 0.549385 0.769777 0.380016
O O11 0.642477 0.770943 0.428918
O O12 0.646619 0.782243 0.220818
O O13 0.603514 0.000000 0.149508
O O14 0.500000 0.500000 0.659534
O O15 0.750000 0.750000 0.237383
O O16 0.809250 0.724908 0.327801
O O17 0.814114 0.000000 0.261606
O O18 0.750000 0.750000 0.579949
O O19 0.810285 0.000000 0.607400
#
# Coordination Sequence:
#
# PCOD9485754 Si02
#       7
#    16   8  16  16   8  16  16
#     4   9  18  33  53  77 104 133 166 205 247 290
#     4  10  22  37  52  73 104 138 167 204 256 302
#     4   9  17  30  50  74  96 120 156 203 249 292
#     4  10  20  34  51  73 102 135 171 208 249 298
#     4  10  19  34  56  77  95 121 163 210 252 298
#     4  10  19  31  49  74 102 131 165 207 254 302
#     4   9  18  31  46  67  96 127 158 194 240 295
#
# _framework density 21.445250999999999
#
# number of rings (size 3 to 8) (size 9 to 14) (size 15 to 20)
#    0.000    2.500    0.000    2.250    0.000    6.000 
#    0.000    1.250    0.000    4.500    0.000    0.000 
#    0.000    4.667    0.000    0.000    0.000    0.000 
#
# Total GULP energy -267972.072667 kJ/mol
# GULP energy per Si atom -5582.751514 kJ/mol
# Density = 2.139644 g / cm^3
# Si number density = 21.445251 Si / 1000 Ang^3
#
#
#
# Elastic Constant Matrix: (Units=GPa)
#
#
# Indices 1 2 3 4 5 6 
#
# 1 200.7798 3.6126 85.0054 0.0000 0.0000 0.0000
# 2 3.6126 40.2928 3.7599 0.0000 0.0000 0.0000
# 3 85.0054 3.7599 110.1641 0.0000 0.0000 0.0000
# 4 0.0000 0.0000 0.0000 11.7900 0.0000 0.0000
# 5 0.0000 0.0000 0.0000 0.0000 34.3948 0.0000
# 6 0.0000 0.0000 0.0000 0.0000 0.0000 17.4089
#
#
#
# Elastic Compliance Matrix: (Units=1/GPa)
#
#
# Indices 1 2 3 4 5 6 
#
# 1 0.007398 -0.000131 -0.005704 0.000000 0.000000 0.000000
# 2 -0.000131 0.024900 -0.000749 0.000000 0.000000 0.000000
# 3 -0.005704 -0.000749 0.013504 0.000000 0.000000 0.000000
# 4 0.000000 0.000000 0.000000 0.084818 0.000000 0.000000
# 5 0.000000 0.000000 0.000000 0.000000 0.029074 0.000000
# 6 0.000000 0.000000 0.000000 0.000000 0.000000 0.057442
#
#
# Mechanical properties :
#
#
# Convention : Reuss Voigt Hill
#
# Bulk Modulus (GPa) = 30.64227 59.55473 45.09850
# Shear Modulus (GPa) = 20.73132 29.97600 25.35366
#
# Velocity S-wave (km/s) = 3.11257 3.74276 3.44212
# Velocity P-wave (km/s) = 5.21891 6.81972 6.07230
#
# Compressibility (1/GPa) = 0.03263465
#
# Stress axis : x y z
#
# Youngs Moduli (GPa) = 135.17501 40.16074 74.05124
#
# Poissons Ratio (x) = 0.00526 0.42238
# Poissons Ratio (y) = 0.01771 0.05545
# Poissons Ratio (z) = 0.77102 0.03007
#
# Static dielectric constant tensor:
#      x y z
#    x 1.785600 0.000000 0.000000 
#    y 0.000000 1.813990 0.000000 
#    z 0.000000 0.000000 1.767220 
# 
# From -- ./inp_files/71454.got.cif
#   From: 2010.05.17/outbox.cif.g08.bks.cpg/sg65_36_cif.got.tgz:71454.got - 2010.06.03 17:01:31.
