data_PCOD9485144
_publ_section_title
;
Structure prediction by ZEFSAII (Michael W. Deem and Ramdas Pophale) SiO2 
 PCOD9485144
Probable space group: C M M M
;
_chemical_formula_sum "Si O2"
_cell_formula_units_Z 80
_cell_length_a 14.883707
_cell_length_b 18.400569
_cell_length_c 14.571373
_cell_angle_alpha 90.000000
_cell_angle_beta 90.000000
_cell_angle_gamma 90.000000
_cell_volume 3990.642655
_symmetry_space_group_name_H-M "C M M M"
_symmetry_group_IT_number 65
_symmetry_cell_setting 'orthorhombic'
loop_
_space_group_symop_operation_xyz
x,y,z
-x,-y,z
x,-y,-z
-x,y,-z
-x,-y,-z
x,y,-z
-x,y,z
x,-y,z
1/2+x,1/2+y,z
1/2-x,1/2-y,z
1/2+x,1/2-y,-z
1/2-x,1/2+y,-z
1/2-x,1/2-y,-z
1/2+x,1/2+y,-z
1/2-x,1/2+y,z
1/2+x,1/2-y,z
loop_
_atom_site_type_symbol
_atom_site_label
_atom_site_fract_x
_atom_site_fract_y
_atom_site_fract_z
Si Si1 0.783376 0.081152 0.109278
Si Si2 0.403721 0.874248 0.198300
Si Si3 0.657910 0.913274 0.396681
Si Si4 0.176300 0.184847 0.598951
Si Si5 0.647766 0.718641 0.793681
O O1 0.684418 0.090429 0.154069
O O2 0.845263 0.146077 0.146989
O O3 0.816472 0.000000 0.131534
O O4 0.774978 0.087949 0.000000
O O5 0.500000 0.906978 0.173255
O O6 0.391477 0.879549 0.308941
O O7 0.403311 0.789195 0.171586
O O8 0.626865 0.891745 0.500000
O O9 0.760966 0.886215 0.389759
O O10 0.650951 0.000000 0.389957
O O11 0.130124 0.183029 0.500000
O O12 0.250000 0.250000 0.595106
O O13 0.120382 0.197811 0.690269
O O14 0.750000 0.750000 0.788338
#
# Coordination Sequence:
#
# PCOD9485144 Si02
#       5
#    16  16  16  16  16
#     4  10  21  37  57  78  98 125 166 214 261 306
#     4  11  22  34  49  74 109 142 170 201 244 302
#     4  10  19  30  46  72 106 140 172 206 247 294
#     4   9  14  25  47  70  93 126 170 215 248 278
#     4   9  17  32  51  74  96 132 171 210 247 291
#
# _framework density 20.046896
#
# number of rings (size 3 to 8) (size 9 to 14) (size 15 to 20)
#    0.000    2.200    6.000    0.600    0.000    6.000 
#    0.000    2.000    0.000    0.600    0.000    1.400 
#    0.000    0.000    0.000    8.600    0.000    0.000 
#
# Total GULP energy -222863.535641 kJ/mol
# GULP energy per Si atom -5571.588391 kJ/mol
# Density = 2.000127 g / cm^3
# Si number density = 20.046896 Si / 1000 Ang^3
#
#
#
# Elastic Constant Matrix: (Units=GPa)
#
#
# Indices 1 2 3 4 5 6 
#
# 1 15.6244 5.6231 -7.5807 0.0000 0.0000 0.0000
# 2 5.6231 122.4597 43.2805 0.0000 0.0000 0.0000
# 3 -7.5807 43.2805 77.3014 0.0000 0.0000 0.0000
# 4 0.0000 0.0000 0.0000 27.7743 0.0000 0.0000
# 5 0.0000 0.0000 0.0000 0.0000 412.3207 0.0000
# 6 0.0000 0.0000 0.0000 0.0000 0.0000 1.8705
#
#
#
# Elastic Compliance Matrix: (Units=1/GPa)
#
#
# Indices 1 2 3 4 5 6 
#
# 1 0.071995 -0.007232 0.011110 0.000000 0.000000 0.000000
# 2 -0.007232 0.010907 -0.006816 0.000000 0.000000 0.000000
# 3 0.011110 -0.006816 0.017842 0.000000 0.000000 0.000000
# 4 0.000000 0.000000 0.000000 0.036004 0.000000 0.000000
# 5 0.000000 0.000000 0.000000 0.000000 0.002425 0.000000
# 6 0.000000 0.000000 0.000000 0.000000 0.000000 0.534607
#
#
# Mechanical properties :
#
#
# Convention : Reuss Voigt Hill
#
# Bulk Modulus (GPa) = 10.54106 33.11459 21.82783
# Shear Modulus (GPa) = 7.02957 99.99728 53.51343
#
# Velocity S-wave (km/s) = 1.87461 7.07036 5.17224
# Velocity P-wave (km/s) = 3.15518 9.12183 6.82506
#
# Compressibility (1/GPa) = 0.09486711
#
# Stress axis : x y z
#
# Youngs Moduli (GPa) = 13.88978 91.68422 56.04725
#
# Poissons Ratio (x) = 0.66309 -0.62267
# Poissons Ratio (y) = 0.10046 0.38202
# Poissons Ratio (z) = -0.15431 0.62492
#
# Static dielectric constant tensor:
#      x y z
#    x 1.727660 0.000000 0.000000 
#    y 0.000000 1.739140 0.000000 
#    z 0.000000 0.000000 1.736270 
# 
# From -- ./inp_files/42348.got.cif
#   From: 2010.05.17/outbox.cif.g08.bks.cpg/sg65_22_cif.got.tgz:42348.got - 2010.06.03 17:01:31.
