data_PCOD9485594
_publ_section_title
;
Structure prediction by ZEFSAII (Michael W. Deem and Ramdas Pophale) SiO2 
 PCOD9485594
Probable space group: C M M M
;
_chemical_formula_sum "Si O2"
_cell_formula_units_Z 104
_cell_length_a 21.710305
_cell_length_b 14.252719
_cell_length_c 17.562321
_cell_angle_alpha 90.000000
_cell_angle_beta 90.000000
_cell_angle_gamma 90.000000
_cell_volume 5434.324382
_symmetry_space_group_name_H-M "C M M M"
_symmetry_group_IT_number 65
_symmetry_cell_setting 'orthorhombic'
loop_
_space_group_symop_operation_xyz
x,y,z
-x,-y,z
x,-y,-z
-x,y,-z
-x,-y,-z
x,y,-z
-x,y,z
x,-y,z
1/2+x,1/2+y,z
1/2-x,1/2-y,z
1/2+x,1/2-y,-z
1/2-x,1/2+y,-z
1/2-x,1/2-y,-z
1/2+x,1/2+y,-z
1/2-x,1/2+y,z
1/2+x,1/2-y,z
loop_
_atom_site_type_symbol
_atom_site_label
_atom_site_fract_x
_atom_site_fract_y
_atom_site_fract_z
Si Si1 0.609603 0.605909 0.203667
Si Si2 0.069583 0.699816 0.261000
Si Si3 0.787781 0.113947 0.086276
Si Si4 0.000000 0.899510 0.409758
Si Si5 0.286681 0.607092 0.664298
Si Si6 0.809279 0.387400 0.787670
Si Si7 0.882409 0.230588 0.411851
O O1 0.583555 0.500000 0.197062
O O2 0.568774 0.692521 0.230862
O O3 0.647008 0.632299 0.127235
O O4 0.663115 0.601262 0.267781
O O5 0.121523 0.649022 0.211330
O O6 0.097943 0.696186 0.346764
O O7 0.000000 0.663267 0.259660
O O8 0.732206 0.145596 0.141352
O O9 0.783513 0.000000 0.084749
O O10 0.784252 0.148078 0.000000
O O11 0.063068 0.845220 0.396965
O O12 0.000000 0.911314 0.500000
O O13 0.000000 0.000000 0.370192
O O14 0.278555 0.500000 0.634605
O O15 0.225885 0.640180 0.709153
O O16 0.317982 0.678209 0.605302
O O17 0.808602 0.500000 0.787654
O O18 0.885296 0.261113 0.500000
#
# Coordination Sequence:
#
# PCOD9485594 Si02
#       7
#    16  16  16   8  16  16  16
#     4   8  16  30  48  75 108 135 159 195 244 308
#     4  11  22  35  51  72  98 140 184 216 253 306
#     4   8  14  29  57  87 108 130 164 209 262 311
#     4   9  16  26  42  68 101 133 160 191 241 303
#     4   8  15  29  48  71  99 129 159 201 259 313
#     4   9  19  36  55  75 101 130 171 225 267 302
#     4  10  19  31  48  72 101 133 166 211 262 306
#
# _framework density 19.137613999999999
#
# number of rings (size 3 to 8) (size 9 to 14) (size 15 to 20)
#    0.000    3.000    0.769    2.308    0.000    7.692 
#    0.000    3.077    0.000    3.231    0.000    5.385 
#    0.000    0.000    0.000    0.000    0.000    0.000 
#
# Total GULP energy -289620.514264 kJ/mol
# GULP energy per Si atom -5569.625274 kJ/mol
# Density = 1.909406 g / cm^3
# Si number density = 19.137614 Si / 1000 Ang^3
#
#
#
# Elastic Constant Matrix: (Units=GPa)
#
#
# Indices 1 2 3 4 5 6 
#
# 1 99.6356 14.2985 35.8773 0.0000 0.0000 0.0000
# 2 14.2985 31.6326 12.0544 0.0000 0.0000 0.0000
# 3 35.8773 12.0544 102.8516 0.0000 0.0000 0.0000
# 4 0.0000 0.0000 0.0000 11.2162 0.0000 0.0000
# 5 0.0000 0.0000 0.0000 0.0000 13.6673 0.0000
# 6 0.0000 0.0000 0.0000 0.0000 0.0000 99.8184
#
#
#
# Elastic Compliance Matrix: (Units=1/GPa)
#
#
# Indices 1 2 3 4 5 6 
#
# 1 0.011940 -0.003988 -0.003698 0.000000 0.000000 0.000000
# 2 -0.003988 0.034423 -0.002643 0.000000 0.000000 0.000000
# 3 -0.003698 -0.002643 0.011322 0.000000 0.000000 0.000000
# 4 0.000000 0.000000 0.000000 0.089156 0.000000 0.000000
# 5 0.000000 0.000000 0.000000 0.000000 0.073167 0.000000
# 6 0.000000 0.000000 0.000000 0.000000 0.000000 0.010018
#
#
# Mechanical properties :
#
#
# Convention : Reuss Voigt Hill
#
# Bulk Modulus (GPa) = 27.00696 39.84223 33.42459
# Shear Modulus (GPa) = 19.00935 36.39969 27.70452
#
# Velocity S-wave (km/s) = 3.15508 4.36592 3.80892
# Velocity P-wave (km/s) = 5.23597 6.80287 6.07019
#
# Compressibility (1/GPa) = 0.03702750
#
# Stress axis : x y z
#
# Youngs Moduli (GPa) = 83.74932 29.05041 88.32056
#
# Poissons Ratio (x) = 0.11586 0.32658
# Poissons Ratio (y) = 0.33401 0.23345
# Poissons Ratio (z) = 0.30968 0.07679
#
# Static dielectric constant tensor:
#      x y z
#    x 1.736380 0.000000 0.000000 
#    y 0.000000 1.761660 0.000000 
#    z 0.000000 0.000000 1.685690 
# 
# From -- ./inp_files/56829.got.cif
#   From: 2010.05.17/outbox.cif.g08.bks.cpg/sg65_29_cif.got.tgz:56829.got - 2010.06.03 17:01:31.
