data_PCOD9485910
_publ_section_title
;
Structure prediction by ZEFSAII (Michael W. Deem and Ramdas Pophale) SiO2 
 PCOD9485910
Probable space group: C M M M
;
_chemical_formula_sum "Si O2"
_cell_formula_units_Z 84
_cell_length_a 26.726221
_cell_length_b 11.547546
_cell_length_c 15.691444
_cell_angle_alpha 90.000000
_cell_angle_beta 90.000000
_cell_angle_gamma 90.000000
_cell_volume 4842.729010
_symmetry_space_group_name_H-M "C M M M"
_symmetry_group_IT_number 65
_symmetry_cell_setting 'orthorhombic'
loop_
_space_group_symop_operation_xyz
x,y,z
-x,-y,z
x,-y,-z
-x,y,-z
-x,-y,-z
x,y,-z
-x,y,z
x,-y,z
1/2+x,1/2+y,z
1/2-x,1/2-y,z
1/2+x,1/2-y,-z
1/2-x,1/2+y,-z
1/2-x,1/2-y,-z
1/2+x,1/2+y,-z
1/2-x,1/2+y,z
1/2+x,1/2-y,z
loop_
_atom_site_type_symbol
_atom_site_label
_atom_site_fract_x
_atom_site_fract_y
_atom_site_fract_z
Si Si1 0.340117 0.861709 0.677071
Si Si2 0.000000 0.141381 0.897563
Si Si3 0.750000 0.250000 0.215604
Si Si4 0.311469 0.255268 0.500000
Si Si5 0.819517 0.865653 0.904040
Si Si6 0.439161 0.500000 0.333800
Si Si7 0.868442 0.000000 0.500000
Si Si8 0.091172 0.214449 0.213813
O O1 0.293237 0.805026 0.727181
O O2 0.333838 0.808472 0.582989
O O3 0.390467 0.819871 0.726307
O O4 0.336818 0.000000 0.675453
O O5 0.046041 0.206633 0.853074
O O6 0.000000 0.000000 0.878509
O O7 0.000000 0.150286 0.000000
O O8 0.770266 0.152464 0.151594
O O9 0.250000 0.250000 0.500000
O O10 0.332683 0.386760 0.500000
O O11 0.862124 0.808316 0.847823
O O12 0.832141 0.000000 0.909631
O O13 0.815202 0.819220 0.000000
O O14 0.500000 0.500000 0.346396
O O15 0.405805 0.500000 0.419050
O O16 0.422204 0.388960 0.278964
#
# Coordination Sequence:
#
# PCOD9485910 Si02
#       8
#    16   8   8   8  16   8   4  16
#     4  11  24  40  58  83 120 164 204 245 302 364
#     4  11  20  34  63  99 126 151 196 262 318 361
#     4  10  21  35  56  76 108 156 204 249 289 356
#     4  12  25  39  62  93 120 160 195 257 302 373
#     4  10  19  31  50  79 113 147 187 241 299 353
#     4  12  21  40  64  92 122 162 200 253 319 362
#     4  12  27  42  64  96 130 152 201 256 324 360
#     4  11  20  36  59  86 121 155 195 247 303 364
#
# _framework density 17.345592
#
# number of rings (size 3 to 8) (size 9 to 14) (size 15 to 20)
#    0.000    1.048    5.714    1.857    1.333    1.524 
#    0.000    0.476    0.000   12.000    0.000    2.667 
#    0.000    0.000    0.000    0.000    0.000    0.000 
#
# Total GULP energy -233945.723481 kJ/mol
# GULP energy per Si atom -5570.136273 kJ/mol
# Density = 1.730611 g / cm^3
# Si number density = 17.345592 Si / 1000 Ang^3
#
#
#
# Elastic Constant Matrix: (Units=GPa)
#
#
# Indices 1 2 3 4 5 6 
#
# 1 69.5444 27.4713 59.6879 0.0000 0.0000 0.0000
# 2 27.4713 108.4301 52.9782 0.0000 0.0000 0.0000
# 3 59.6879 52.9782 161.3004 0.0000 0.0000 0.0000
# 4 0.0000 0.0000 0.0000 19.9152 0.0000 0.0000
# 5 0.0000 0.0000 0.0000 0.0000 27.1589 0.0000
# 6 0.0000 0.0000 0.0000 0.0000 0.0000 20.3085
#
#
#
# Elastic Compliance Matrix: (Units=1/GPa)
#
#
# Indices 1 2 3 4 5 6 
#
# 1 0.021378 -0.001848 -0.007304 0.000000 0.000000 0.000000
# 2 -0.001848 0.011145 -0.002977 0.000000 0.000000 0.000000
# 3 -0.007304 -0.002977 0.009880 0.000000 0.000000 0.000000
# 4 0.000000 0.000000 0.000000 0.050213 0.000000 0.000000
# 5 0.000000 0.000000 0.000000 0.000000 0.036820 0.000000
# 6 0.000000 0.000000 0.000000 0.000000 0.000000 0.049240
#
#
# Mechanical properties :
#
#
# Convention : Reuss Voigt Hill
#
# Bulk Modulus (GPa) = 55.10733 68.83887 61.97310
# Shear Modulus (GPa) = 23.92550 26.75235 25.33893
#
# Velocity S-wave (km/s) = 3.71798 3.93149 3.82622
# Velocity P-wave (km/s) = 7.09016 7.77056 7.43814
#
# Compressibility (1/GPa) = 0.01814641
#
# Stress axis : x y z
#
# Youngs Moduli (GPa) = 46.77751 89.72553 101.21365
#
# Poissons Ratio (x) = 0.16577 0.73925
# Poissons Ratio (y) = 0.08642 0.30130
# Poissons Ratio (z) = 0.34166 0.26710
#
# Static dielectric constant tensor:
#      x y z
#    x 1.635440 0.000000 0.000000 
#    y 0.000000 1.624970 0.000000 
#    z 0.000000 0.000000 1.612760 
# 
# From -- ./inp_files/45483.got.cif
#   From: 2010.05.17/outbox.cif.g08.bks.cpg/sg65_23_cif.got.tgz:45483.got - 2010.06.03 17:01:31.
