data_PCOD9485668
_publ_section_title
;
Structure prediction by ZEFSAII (Michael W. Deem and Ramdas Pophale) SiO2 
 PCOD9485668
Probable space group: C M M M
;
_chemical_formula_sum "Si O2"
_cell_formula_units_Z 80
_cell_length_a 7.638232
_cell_length_b 18.952055
_cell_length_c 27.120003
_cell_angle_alpha 90.000000
_cell_angle_beta 90.000000
_cell_angle_gamma 90.000000
_cell_volume 3925.896868
_symmetry_space_group_name_H-M "C M M M"
_symmetry_group_IT_number 65
_symmetry_cell_setting 'orthorhombic'
loop_
_space_group_symop_operation_xyz
x,y,z
-x,-y,z
x,-y,-z
-x,y,-z
-x,-y,-z
x,y,-z
-x,y,z
x,-y,z
1/2+x,1/2+y,z
1/2-x,1/2-y,z
1/2+x,1/2-y,-z
1/2-x,1/2+y,-z
1/2-x,1/2-y,-z
1/2+x,1/2+y,-z
1/2-x,1/2+y,z
1/2+x,1/2-y,z
loop_
_atom_site_type_symbol
_atom_site_label
_atom_site_fract_x
_atom_site_fract_y
_atom_site_fract_z
Si Si1 0.210113 0.332872 0.000000
Si Si2 0.709237 0.919750 0.393392
Si Si3 0.207596 0.919600 0.500000
Si Si4 0.789481 0.332156 0.300659
Si Si5 0.285409 0.918429 0.096035
Si Si6 0.289612 0.167510 0.190896
O O1 0.250000 0.250000 0.000000
O O2 0.273446 0.372671 0.049102
O O3 0.000000 0.339514 0.000000
O O4 0.500000 0.923727 0.388013
O O5 0.741380 0.887205 0.447501
O O6 0.778747 0.876902 0.346690
O O7 0.779123 0.000000 0.393610
O O8 0.000000 0.924315 0.500000
O O9 0.283285 0.000000 0.500000
O O10 0.750000 0.250000 0.308180
O O11 0.723589 0.351346 0.245797
O O12 0.000000 0.340280 0.299555
O O13 0.500000 0.917710 0.096129
O O14 0.225657 0.881250 0.146499
O O15 0.232046 0.000000 0.092551
O O16 0.500000 0.160776 0.191947
O O17 0.250000 0.250000 0.181780
#
# Coordination Sequence:
#
# PCOD9485668 Si02
#       6
#     8  16   8  16  16  16
#     4  10  19  31  49  71  95 126 162 196 232 278
#     4   9  17  30  48  68  90 117 150 188 228 270
#     4   9  17  29  46  69  94 119 149 185 226 273
#     4   9  18  31  47  68  93 121 152 187 229 275
#     4   9  17  29  47  71  96 122 156 198 237 272
#     4   9  17  30  48  68  91 121 155 190 229 275
#
# _framework density 20.377509
#
# number of rings (size 3 to 8) (size 9 to 14) (size 15 to 20)
#    0.000    2.900    0.000    1.200    0.000    4.000 
#    0.000    4.500    0.000    3.000    0.000    5.600 
#    0.000    0.000    0.000    0.000    0.000    0.000 
#
# Total GULP energy -223075.452158 kJ/mol
# GULP energy per Si atom -5576.886304 kJ/mol
# Density = 2.033113 g / cm^3
# Si number density = 20.377509 Si / 1000 Ang^3
#
#
#
# Elastic Constant Matrix: (Units=GPa)
#
#
# Indices 1 2 3 4 5 6 
#
# 1 41.1416 -0.3578 8.7613 0.0000 0.0000 0.0000
# 2 -0.3578 113.7888 127.8218 0.0000 0.0000 0.0000
# 3 8.7613 127.8218 246.5212 0.0000 0.0000 0.0000
# 4 0.0000 0.0000 0.0000 37.8366 0.0000 0.0000
# 5 0.0000 0.0000 0.0000 0.0000 -12.8914 0.0000
# 6 0.0000 0.0000 0.0000 0.0000 0.0000 19.2316
#
#
#
# Elastic Compliance Matrix: (Units=1/GPa)
#
#
# Indices 1 2 3 4 5 6 
#
# 1 0.024799 0.002558 -0.002208 0.000000 0.000000 0.000000
# 2 0.002558 0.021311 -0.011141 0.000000 0.000000 0.000000
# 3 -0.002208 -0.011141 0.009911 0.000000 0.000000 0.000000
# 4 0.000000 0.000000 0.000000 0.026429 0.000000 0.000000
# 5 0.000000 0.000000 0.000000 0.000000 -0.077571 0.000000
# 6 0.000000 0.000000 0.000000 0.000000 0.000000 0.051998
#
#
# Mechanical properties :
#
#
# Convention : Reuss Voigt Hill
#
# Bulk Modulus (GPa) = 29.03602 74.87804 51.95703
# Shear Modulus (GPa) = 55.59419 26.51711 41.05565
#
# Velocity S-wave (km/s) = 5.22890 3.61126 4.49347
# Velocity P-wave (km/s) = 7.12286 7.36298 7.24391
#
# Compressibility (1/GPa) = 0.03443999
#
# Stress axis : x y z
#
# Youngs Moduli (GPa) = 40.32479 46.92471 100.89480
#
# Poissons Ratio (x) = -0.12002 0.22273
# Poissons Ratio (y) = -0.10314 1.12403
# Poissons Ratio (z) = 0.08902 0.52277
#
# Static dielectric constant tensor:
#      x y z
#    x 1.756430 0.000000 0.000000 
#    y 0.000000 1.682350 0.000000 
#    z 0.000000 0.000000 1.752270 
# 
# From -- ./inp_files/72859.got.cif
#   From: 2010.05.17/outbox.cif.g08.bks.cpg/sg65_37_cif.got.tgz:72859.got - 2010.06.03 17:01:31.
