data_PCOD9485745
_publ_section_title
;
Structure prediction by ZEFSAII (Michael W. Deem and Ramdas Pophale) SiO2 
 PCOD9485745
Probable space group: C M M M
;
_chemical_formula_sum "Si O2"
_cell_formula_units_Z 56
_cell_length_a 8.260989
_cell_length_b 19.792238
_cell_length_c 18.542878
_cell_angle_alpha 90.000000
_cell_angle_beta 90.000000
_cell_angle_gamma 90.000000
_cell_volume 3031.824719
_symmetry_space_group_name_H-M "C M M M"
_symmetry_group_IT_number 65
_symmetry_cell_setting 'orthorhombic'
loop_
_space_group_symop_operation_xyz
x,y,z
-x,-y,z
x,-y,-z
-x,y,-z
-x,-y,-z
x,y,-z
-x,y,z
x,-y,z
1/2+x,1/2+y,z
1/2-x,1/2-y,z
1/2+x,1/2-y,-z
1/2-x,1/2+y,-z
1/2-x,1/2-y,-z
1/2+x,1/2+y,-z
1/2-x,1/2+y,z
1/2+x,1/2-y,z
loop_
_atom_site_type_symbol
_atom_site_label
_atom_site_fract_x
_atom_site_fract_y
_atom_site_fract_z
Si Si1 0.198128 0.421986 0.000000
Si Si2 0.193554 0.326793 0.130439
Si Si3 0.806096 0.826468 0.709089
Si Si4 0.802523 0.078062 0.580633
O O1 0.250781 0.379691 0.070260
O O2 0.251055 0.500000 0.000000
O O3 0.000000 0.422532 0.000000
O O4 0.250000 0.250000 0.115408
O O5 0.248861 0.345842 0.210860
O O6 0.000000 0.326018 0.129272
O O7 0.750000 0.750000 0.696090
O O8 0.745262 0.875041 0.645578
O O9 0.000000 0.827812 0.709073
O O10 0.751811 0.099753 0.500000
O O11 0.000000 0.079401 0.581259
O O12 0.754547 0.000000 0.590731
#
# Coordination Sequence:
#
# PCOD9485745 Si02
#       4
#     8  16  16  16
#     4   9  19  34  51  73  98 125 158 194 236 285
#     4  10  19  33  53  72  95 127 160 195 234 281
#     4  10  19  31  49  73  99 125 157 197 238 281
#     4   8  15  29  48  69  94 126 162 197 235 280
#
# _framework density 18.470725999999999
#
# number of rings (size 3 to 8) (size 9 to 14) (size 15 to 20)
#    0.000    2.714    0.000    4.714    0.000    1.714 
#    0.000    2.143    0.000   11.143    0.000    8.000 
#    0.000    0.000    0.000    0.000    0.000    0.000 
#
# Total GULP energy -156160.066535 kJ/mol
# GULP energy per Si atom -5577.145233 kJ/mol
# Density = 1.842869 g / cm^3
# Si number density = 18.470726 Si / 1000 Ang^3
#
#
#
# Elastic Constant Matrix: (Units=GPa)
#
#
# Indices 1 2 3 4 5 6 
#
# 1 29.3830 15.0426 20.4172 0.0000 0.0000 0.0000
# 2 15.0426 124.9777 144.6039 0.0000 0.0000 0.0000
# 3 20.4172 144.6039 210.1889 0.0000 0.0000 0.0000
# 4 0.0000 0.0000 0.0000 28.7213 0.0000 0.0000
# 5 0.0000 0.0000 0.0000 0.0000 0.6680 0.0000
# 6 0.0000 0.0000 0.0000 0.0000 0.0000 15.3697
#
#
#
# Elastic Compliance Matrix: (Units=1/GPa)
#
#
# Indices 1 2 3 4 5 6 
#
# 1 0.036549 -0.001428 -0.002568 0.000000 0.000000 0.000000
# 2 -0.001428 0.039280 -0.026885 0.000000 0.000000 0.000000
# 3 -0.002568 -0.026885 0.023503 0.000000 0.000000 0.000000
# 4 0.000000 0.000000 0.000000 0.034817 0.000000 0.000000
# 5 0.000000 0.000000 0.000000 0.000000 1.496944 0.000000
# 6 0.000000 0.000000 0.000000 0.000000 0.000000 0.065063
#
#
# Mechanical properties :
#
#
# Convention : Reuss Voigt Hill
#
# Bulk Modulus (GPa) = 26.61672 80.51967 53.56820
# Shear Modulus (GPa) = 2.82416 21.25086 12.03751
#
# Velocity S-wave (km/s) = 1.23786 3.39560 2.55563
# Velocity P-wave (km/s) = 4.06012 7.68513 6.14597
#
# Compressibility (1/GPa) = 0.03757037
#
# Stress axis : x y z
#
# Youngs Moduli (GPa) = 27.36080 25.45819 42.54767
#
# Poissons Ratio (x) = 0.03636 0.10925
# Poissons Ratio (y) = 0.03907 1.14389
# Poissons Ratio (z) = 0.07026 0.68444
#
# Static dielectric constant tensor:
#      x y z
#    x 1.643030 0.000000 0.000000 
#    y 0.000000 1.613520 0.000000 
#    z 0.000000 0.000000 1.642280 
# 
# From -- ./inp_files/48786.got.cif
#   From: 2010.05.17/outbox.cif.g08.bks.cpg/sg65_25_cif.got.tgz:48786.got - 2010.06.03 17:01:31.
