data_PCOD9485825
_publ_section_title
;
Structure prediction by ZEFSAII (Michael W. Deem and Ramdas Pophale) SiO2 
 PCOD9485825
Probable space group: C M M M
;
_chemical_formula_sum "Si O2"
_cell_formula_units_Z 64
_cell_length_a 8.025730
_cell_length_b 38.092926
_cell_length_c 12.830103
_cell_angle_alpha 90.000000
_cell_angle_beta 90.000000
_cell_angle_gamma 90.000000
_cell_volume 3922.464495
_symmetry_space_group_name_H-M "C M M M"
_symmetry_group_IT_number 65
_symmetry_cell_setting 'orthorhombic'
loop_
_space_group_symop_operation_xyz
x,y,z
-x,-y,z
x,-y,-z
-x,y,-z
-x,-y,-z
x,y,-z
-x,y,z
x,-y,z
1/2+x,1/2+y,z
1/2-x,1/2-y,z
1/2+x,1/2-y,-z
1/2-x,1/2+y,-z
1/2-x,1/2-y,-z
1/2+x,1/2+y,-z
1/2-x,1/2+y,z
1/2+x,1/2-y,z
loop_
_atom_site_type_symbol
_atom_site_label
_atom_site_fract_x
_atom_site_fract_y
_atom_site_fract_z
Si Si1 0.700382 0.790427 0.500000
Si Si2 0.688078 0.411891 0.375058
Si Si3 0.802874 0.662510 0.693791
Si Si4 0.800430 0.789403 0.120112
Si Si5 0.000000 0.459851 0.373421
O O1 0.500000 0.791425 0.500000
O O2 0.750000 0.750000 0.500000
O O3 0.757937 0.811272 0.602513
O O4 0.706964 0.405636 0.500000
O O5 0.500000 0.425058 0.357586
O O6 0.714090 0.374719 0.318929
O O7 0.833603 0.438674 0.343028
O O8 0.773681 0.681960 0.802523
O O9 0.000000 0.656371 0.678018
O O10 0.750000 0.750000 0.153293
O O11 0.000000 0.791844 0.123187
O O12 0.744813 0.793818 0.000000
O O13 0.000000 0.500000 0.336412
O O14 0.000000 0.460806 0.500000
#
# Coordination Sequence:
#
# PCOD9485825 Si02
#       5
#     8  16  16  16   8
#     4  10  22  32  44  66  96 129 166 213 255 301
#     4  10  19  31  50  74 102 138 174 208 257 307
#     4  11  20  33  51  70  99 134 171 215 259 311
#     4  10  21  36  51  69  95 129 174 224 271 314
#     4   9  18  32  50  72 105 139 173 213 250 307
#
# _framework density 16.316271
#
# number of rings (size 3 to 8) (size 9 to 14) (size 15 to 20)
#    0.000    1.875    2.500    2.250    0.000    6.000 
#    0.000    2.500    0.000    0.000    0.000    0.000 
#    0.000    2.000    0.000    5.250    0.000    0.250 
#
# Total GULP energy -178608.901188 kJ/mol
# GULP energy per Si atom -5581.528162 kJ/mol
# Density = 1.627913 g / cm^3
# Si number density = 16.316271 Si / 1000 Ang^3
#
#
#
# Elastic Constant Matrix: (Units=GPa)
#
#
# Indices 1 2 3 4 5 6 
#
# 1 84.0867 47.9107 17.5035 0.0000 0.0000 0.0000
# 2 47.9107 124.9742 32.8394 0.0000 0.0000 0.0000
# 3 17.5035 32.8394 42.5224 0.0000 0.0000 0.0000
# 4 0.0000 0.0000 0.0000 12.2669 0.0000 0.0000
# 5 0.0000 0.0000 0.0000 0.0000 18.1068 0.0000
# 6 0.0000 0.0000 0.0000 0.0000 0.0000 20.1532
#
#
#
# Elastic Compliance Matrix: (Units=1/GPa)
#
#
# Indices 1 2 3 4 5 6 
#
# 1 0.015383 -0.005311 -0.002230 0.000000 0.000000 0.000000
# 2 -0.005311 0.011873 -0.006983 0.000000 0.000000 0.000000
# 3 -0.002230 -0.006983 0.029828 0.000000 0.000000 0.000000
# 4 0.000000 0.000000 0.000000 0.081521 0.000000 0.000000
# 5 0.000000 0.000000 0.000000 0.000000 0.055228 0.000000
# 6 0.000000 0.000000 0.000000 0.000000 0.000000 0.049620
#
#
# Mechanical properties :
#
#
# Convention : Reuss Voigt Hill
#
# Bulk Modulus (GPa) = 35.67006 49.78784 42.72895
# Shear Modulus (GPa) = 17.74023 20.32735 19.03379
#
# Velocity S-wave (km/s) = 3.30096 3.53347 3.41919
# Velocity P-wave (km/s) = 6.03635 6.87224 6.46781
#
# Compressibility (1/GPa) = 0.02803471
#
# Stress axis : x y z
#
# Youngs Moduli (GPa) = 65.00693 84.22716 33.52578
#
# Poissons Ratio (x) = 0.44735 0.07477
# Poissons Ratio (y) = 0.34527 0.23410
# Poissons Ratio (z) = 0.14499 0.58814
#
# Static dielectric constant tensor:
#      x y z
#    x 1.581770 0.000000 0.000000 
#    y 0.000000 1.519290 0.000000 
#    z 0.000000 0.000000 1.537550 
# 
# From -- ./inp_files/36874.got.cif
#   From: 2010.05.17/outbox.cif.g08.bks.cpg/sg65_19_cif.got.tgz:36874.got - 2010.06.03 17:01:31.
