data_PCOD9485804
_publ_section_title
;
Structure prediction by ZEFSAII (Michael W. Deem and Ramdas Pophale) SiO2 
 PCOD9485804
Probable space group: C M M M
;
_chemical_formula_sum "Si O2"
_cell_formula_units_Z 96
_cell_length_a 27.166195
_cell_length_b 20.893704
_cell_length_c 7.415126
_cell_angle_alpha 90.000000
_cell_angle_beta 90.000000
_cell_angle_gamma 90.000000
_cell_volume 4208.843589
_symmetry_space_group_name_H-M "C M M M"
_symmetry_group_IT_number 65
_symmetry_cell_setting 'orthorhombic'
loop_
_space_group_symop_operation_xyz
x,y,z
-x,-y,z
x,-y,-z
-x,y,-z
-x,-y,-z
x,y,-z
-x,y,z
x,-y,z
1/2+x,1/2+y,z
1/2-x,1/2-y,z
1/2+x,1/2-y,-z
1/2-x,1/2+y,-z
1/2-x,1/2-y,-z
1/2+x,1/2+y,-z
1/2-x,1/2+y,z
1/2+x,1/2-y,z
loop_
_atom_site_type_symbol
_atom_site_label
_atom_site_fract_x
_atom_site_fract_y
_atom_site_fract_z
Si Si1 0.859503 0.572574 0.280681
Si Si2 0.093787 0.796654 0.706574
Si Si3 0.295903 0.708933 0.208517
Si Si4 0.945678 0.665364 0.721055
Si Si5 0.746859 0.427320 0.718185
Si Si6 0.558305 0.430277 0.718438
O O1 0.858839 0.574637 0.500000
O O2 0.871630 0.500000 0.228409
O O3 0.900808 0.621253 0.217865
O O4 0.803376 0.585472 0.224270
O O5 0.076500 0.801859 0.500000
O O6 0.151212 0.778852 0.705821
O O7 0.063846 0.737589 0.785154
O O8 0.085311 0.866906 0.786620
O O9 0.250000 0.750000 0.283795
O O10 0.284557 0.633314 0.221681
O O11 0.300846 0.727297 0.000000
O O12 0.944066 0.665665 0.500000
O O13 0.000000 0.642924 0.772944
O O14 0.745307 0.427616 0.500000
O O15 0.733344 0.500000 0.775539
O O16 0.563787 0.432384 0.500000
O O17 0.500000 0.424444 0.755906
O O18 0.575368 0.500000 0.784769
#
# Coordination Sequence:
#
# PCOD9485804 Si02
#       6
#    16  16  16  16  16  16
#     4   8  14  25  42  66  96 127 157 192 238 292
#     4  10  19  31  50  73  96 126 165 207 249 293
#     4  11  24  38  51  71 101 136 174 215 258 304
#     4   9  16  25  41  68  98 126 159 199 241 287
#     4   9  18  34  56  79 102 131 169 210 252 302
#     4   8  14  26  46  73 102 127 153 191 239 291
#
# _framework density 22.809116
#
# number of rings (size 3 to 8) (size 9 to 14) (size 15 to 20)
#    0.000    2.833    0.000    3.500    0.000    6.000 
#    0.000    3.333    0.000    2.000    0.000    1.167 
#    0.000    0.000    0.000   14.333    0.000   11.667 
#
# Total GULP energy -268029.089225 kJ/mol
# GULP energy per Si atom -5583.939359 kJ/mol
# Density = 2.275720 g / cm^3
# Si number density = 22.809116 Si / 1000 Ang^3
#
#
#
# Elastic Constant Matrix: (Units=GPa)
#
#
# Indices 1 2 3 4 5 6 
#
# 1 34.0467 8.7327 -8.4756 0.0000 0.0000 0.0000
# 2 8.7327 53.3780 -3.7765 0.0000 0.0000 0.0000
# 3 -8.4756 -3.7765 72.7849 0.0000 0.0000 0.0000
# 4 0.0000 0.0000 0.0000 -751.1152 0.0000 0.0000
# 5 0.0000 0.0000 0.0000 0.0000 56.2895 0.0000
# 6 0.0000 0.0000 0.0000 0.0000 0.0000 40.6751
#
#
#
# Elastic Compliance Matrix: (Units=1/GPa)
#
#
# Indices 1 2 3 4 5 6 
#
# 1 0.031480 -0.004909 0.003411 0.000000 0.000000 0.000000
# 2 -0.004909 0.019569 0.000444 0.000000 0.000000 0.000000
# 3 0.003411 0.000444 0.014159 0.000000 0.000000 0.000000
# 4 0.000000 0.000000 0.000000 -0.001331 0.000000 0.000000
# 5 0.000000 0.000000 0.000000 0.000000 0.017765 0.000000
# 6 0.000000 0.000000 0.000000 0.000000 0.000000 0.024585
#
#
# Mechanical properties :
#
#
# Convention : Reuss Voigt Hill
#
# Bulk Modulus (GPa) = 15.84796 17.01899 16.43347
# Shear Modulus (GPa) = 38.64943 -119.91486 -40.63272
#
# Velocity S-wave (km/s) = 4.12086 -7.25861 -4.22527
# Velocity P-wave (km/s) = 5.44106 7.92289 4.07228
#
# Compressibility (1/GPa) = 0.06309962
#
# Stress axis : x y z
#
# Youngs Moduli (GPa) = 31.76662 51.10180 70.62474
#
# Poissons Ratio (x) = 0.25085 -0.24090
# Poissons Ratio (y) = 0.15594 -0.03134
# Poissons Ratio (z) = -0.10836 -0.02268
#
# Static dielectric constant tensor:
#      x y z
#    x 1.811050 0.000000 0.000000 
#    y 0.000000 1.849890 0.000000 
#    z 0.000000 0.000000 1.934040 
# 
# From -- ./inp_files/12242.got.cif
#   From: 2010.05.17/outbox.cif.g08.bks.cpg/sg65_7_cif.got.tgz:12242.got - 2010.06.03 17:01:31.
