data_PCOD9485251
_publ_section_title
;
Structure prediction by ZEFSAII (Michael W. Deem and Ramdas Pophale) SiO2 
 PCOD9485251
Probable space group: C M M M
;
_chemical_formula_sum "Si O2"
_cell_formula_units_Z 88
_cell_length_a 18.711737
_cell_length_b 8.697533
_cell_length_c 29.591029
_cell_angle_alpha 90.000000
_cell_angle_beta 90.000000
_cell_angle_gamma 90.000000
_cell_volume 4815.820127
_symmetry_space_group_name_H-M "C M M M"
_symmetry_group_IT_number 65
_symmetry_cell_setting 'orthorhombic'
loop_
_space_group_symop_operation_xyz
x,y,z
-x,-y,z
x,-y,-z
-x,y,-z
-x,-y,-z
x,y,-z
-x,y,z
x,-y,z
1/2+x,1/2+y,z
1/2-x,1/2-y,z
1/2+x,1/2-y,-z
1/2-x,1/2+y,-z
1/2-x,1/2-y,-z
1/2+x,1/2+y,-z
1/2-x,1/2+y,z
1/2+x,1/2-y,z
loop_
_atom_site_type_symbol
_atom_site_label
_atom_site_fract_x
_atom_site_fract_y
_atom_site_fract_z
Si Si1 0.170301 0.315483 0.911452
Si Si2 0.330927 0.315721 0.549344
Si Si3 0.082159 0.312712 0.000000
Si Si4 0.416225 0.316362 0.172531
Si Si5 0.169856 0.315491 0.358014
Si Si6 0.416283 0.184451 0.268919
O O1 0.173353 0.500000 0.911510
O O2 0.250000 0.250000 0.913871
O O3 0.124419 0.264531 0.955112
O O4 0.130625 0.259075 0.866463
O O5 0.363129 0.277009 0.500000
O O6 0.327859 0.500000 0.553091
O O7 0.250000 0.250000 0.548417
O O8 0.363306 0.246652 0.595050
O O9 0.080866 0.500000 0.000000
O O10 0.000000 0.259857 0.000000
O O11 0.500000 0.271029 0.167363
O O12 0.411753 0.500000 0.169324
O O13 0.392562 0.262821 0.222364
O O14 0.172558 0.500000 0.360233
O O15 0.250000 0.250000 0.354610
O O16 0.126799 0.268682 0.313392
O O17 0.500000 0.220425 0.275204
O O18 0.409479 0.000000 0.263835
#
# Coordination Sequence:
#
# PCOD9485251 Si02
#       6
#    16  16   8  16  16  16
#     4  11  22  37  58  83 114 147 179 220 267 313
#     4   9  16  26  42  65  94 127 162 201 246 298
#     4   9  19  36  59  85 110 143 186 223 260 312
#     4  10  21  37  57  81 107 137 177 220 262 314
#     4  10  19  30  48  73  99 127 161 206 255 303
#     4   9  19  36  55  74  99 135 176 213 254 306
#
# _framework density 18.273108000000001
#
# number of rings (size 3 to 8) (size 9 to 14) (size 15 to 20)
#    0.000    2.273    0.000    4.091    0.000    5.091 
#    0.000    3.182    0.000    3.818    0.000    3.818 
#    0.000    0.000    0.000    0.000    0.000    0.000 
#
# Total GULP energy -245483.565679 kJ/mol
# GULP energy per Si atom -5579.171947 kJ/mol
# Density = 1.823152 g / cm^3
# Si number density = 18.273108 Si / 1000 Ang^3
#
#
#
# Elastic Constant Matrix: (Units=GPa)
#
#
# Indices 1 2 3 4 5 6 
#
# 1 82.6731 33.0067 91.2108 0.0000 0.0000 0.0000
# 2 33.0067 48.8203 59.4086 0.0000 0.0000 0.0000
# 3 91.2108 59.4086 217.8392 0.0000 0.0000 0.0000
# 4 0.0000 0.0000 0.0000 21.0986 0.0000 0.0000
# 5 0.0000 0.0000 0.0000 0.0000 29.2643 0.0000
# 6 0.0000 0.0000 0.0000 0.0000 0.0000 19.0845
#
#
#
# Elastic Compliance Matrix: (Units=1/GPa)
#
#
# Indices 1 2 3 4 5 6 
#
# 1 0.023554 -0.005872 -0.008261 0.000000 0.000000 0.000000
# 2 -0.005872 0.032121 -0.006301 0.000000 0.000000 0.000000
# 3 -0.008261 -0.006301 0.009768 0.000000 0.000000 0.000000
# 4 0.000000 0.000000 0.000000 0.047397 0.000000 0.000000
# 5 0.000000 0.000000 0.000000 0.000000 0.034171 0.000000
# 6 0.000000 0.000000 0.000000 0.000000 0.000000 0.052398
#
#
# Mechanical properties :
#
#
# Convention : Reuss Voigt Hill
#
# Bulk Modulus (GPa) = 40.69213 79.62052 60.15633
# Shear Modulus (GPa) = 20.12313 24.93658 22.52986
#
# Velocity S-wave (km/s) = 3.32210 3.69814 3.51515
# Velocity P-wave (km/s) = 6.08542 7.86779 7.03329
#
# Compressibility (1/GPa) = 0.02457478
#
# Stress axis : x y z
#
# Youngs Moduli (GPa) = 42.45521 31.13189 102.37585
#
# Poissons Ratio (x) = 0.18281 0.84571
# Poissons Ratio (y) = 0.24930 0.64511
# Poissons Ratio (z) = 0.35072 0.19617
#
# Static dielectric constant tensor:
#      x y z
#    x 1.605280 0.000000 0.000000 
#    y 0.000000 1.620990 0.000000 
#    z 0.000000 0.000000 1.645760 
# 
# From -- ./inp_files/77953.got.cif
#   From: 2010.05.17/outbox.cif.g08.bks.cpg/sg65_39_cif.got.tgz:77953.got - 2010.06.03 17:01:31.
