data_PCOD9485640
_publ_section_title
;
Structure prediction by ZEFSAII (Michael W. Deem and Ramdas Pophale) SiO2 
 PCOD9485640
Probable space group: C M M M
;
_chemical_formula_sum "Si O2"
_cell_formula_units_Z 88
_cell_length_a 7.365960
_cell_length_b 18.203555
_cell_length_c 30.609433
_cell_angle_alpha 90.000000
_cell_angle_beta 90.000000
_cell_angle_gamma 90.000000
_cell_volume 4104.316574
_symmetry_space_group_name_H-M "C M M M"
_symmetry_group_IT_number 65
_symmetry_cell_setting 'orthorhombic'
loop_
_space_group_symop_operation_xyz
x,y,z
-x,-y,z
x,-y,-z
-x,y,-z
-x,-y,-z
x,y,-z
-x,y,z
x,-y,z
1/2+x,1/2+y,z
1/2-x,1/2-y,z
1/2+x,1/2-y,-z
1/2-x,1/2+y,-z
1/2-x,1/2-y,-z
1/2+x,1/2+y,-z
1/2-x,1/2+y,z
1/2+x,1/2-y,z
loop_
_atom_site_type_symbol
_atom_site_label
_atom_site_fract_x
_atom_site_fract_y
_atom_site_fract_z
Si Si1 0.278066 0.915112 0.176035
Si Si2 0.221963 0.415000 0.000000
Si Si3 0.283040 0.837962 0.358867
Si Si4 0.782919 0.662777 0.263950
Si Si5 0.217240 0.338133 0.547067
Si Si6 0.783557 0.663572 0.088097
O O1 0.500000 0.912267 0.176401
O O2 0.214678 0.878358 0.221094
O O3 0.215249 0.871924 0.133045
O O4 0.226203 0.000000 0.173576
O O5 0.284764 0.374762 0.043997
O O6 0.274551 0.500000 0.000000
O O7 0.000000 0.412689 0.000000
O O8 0.500000 0.849567 0.359090
O O9 0.250000 0.750000 0.358798
O O10 0.213400 0.863418 0.311550
O O11 0.213324 0.865977 0.405878
O O12 0.750000 0.750000 0.259876
O O13 0.000000 0.652506 0.264952
O O14 0.286580 0.365922 0.500000
O O15 0.250000 0.250000 0.547100
O O16 0.000000 0.349057 0.547029
O O17 0.750000 0.750000 0.087102
O O18 0.000000 0.651952 0.088252
#
# Coordination Sequence:
#
# PCOD9485640 Si02
#       6
#    16   8  16  16  16  16
#     4   9  17  29  45  64  84 108 140 174 205 239
#     4   9  17  30  49  71  92 117 150 180 204 237
#     4   8  13  20  30  46  67  91 120 152 188 229
#     4   9  16  26  41  59  79 103 131 165 202 241
#     4   8  12  17  25  38  59  87 116 145 179 222
#     4  10  19  31  49  70  91 115 143 176 210 245
#
# _framework density 21.440840000000001
#
# number of rings (size 3 to 8) (size 9 to 14) (size 15 to 20)
#    0.000    3.182    0.000    1.364    0.000    2.182 
#    0.000    0.000    0.000    4.364    0.000    0.000 
#    0.000    0.727    0.000   10.182    0.000    3.455 
#
# Total GULP energy -245254.785805 kJ/mol
# GULP energy per Si atom -5573.972405 kJ/mol
# Density = 2.139204 g / cm^3
# Si number density = 21.440840 Si / 1000 Ang^3
#
#
#
# Elastic Constant Matrix: (Units=GPa)
#
#
# Indices 1 2 3 4 5 6 
#
# 1 82.9107 -4.4454 14.5582 0.0000 0.0000 0.0000
# 2 -4.4454 92.9248 106.5314 0.0000 0.0000 0.0000
# 3 14.5582 106.5314 318.4238 0.0000 0.0000 0.0000
# 4 0.0000 0.0000 0.0000 -9.5278 0.0000 0.0000
# 5 0.0000 0.0000 0.0000 0.0000 -9.0071 0.0000
# 6 0.0000 0.0000 0.0000 0.0000 0.0000 10.4051
#
#
#
# Elastic Compliance Matrix: (Units=1/GPa)
#
#
# Indices 1 2 3 4 5 6 
#
# 1 0.012387 0.002014 -0.001240 0.000000 0.000000 0.000000
# 2 0.002014 0.017785 -0.006042 0.000000 0.000000 0.000000
# 3 -0.001240 -0.006042 0.005219 0.000000 0.000000 0.000000
# 4 0.000000 0.000000 0.000000 -0.104956 0.000000 0.000000
# 5 0.000000 0.000000 0.000000 0.000000 -0.111023 0.000000
# 6 0.000000 0.000000 0.000000 0.000000 0.000000 0.096107
#
#
# Mechanical properties :
#
#
# Convention : Reuss Voigt Hill
#
# Bulk Modulus (GPa) = 40.23445 80.83864 60.53655
# Shear Modulus (GPa) = -76.14794 23.54837 -26.29979
#
# Velocity S-wave (km/s) = -5.96594 3.31765 -3.50611
# Velocity P-wave (km/s) = 5.35262 7.24298 3.45037
#
# Compressibility (1/GPa) = 0.02485432
#
# Stress axis : x y z
#
# Youngs Moduli (GPa) = 80.73009 56.22861 191.62226
#
# Poissons Ratio (x) = -0.11327 0.23767
# Poissons Ratio (y) = -0.16263 1.15780
# Poissons Ratio (z) = 0.10013 0.33974
#
# Static dielectric constant tensor:
#      x y z
#    x 1.801460 0.000000 0.000000 
#    y 0.000000 1.719300 0.000000 
#    z 0.000000 0.000000 1.839080 
# 
# From -- ./inp_files/77292.got.cif
#   From: 2010.05.17/outbox.cif.g08.bks.cpg/sg65_39_cif.got.tgz:77292.got - 2010.06.03 17:01:31.
