data_PCOD9485741
_publ_section_title
;
Structure prediction by ZEFSAII (Michael W. Deem and Ramdas Pophale) SiO2 
 PCOD9485741
Probable space group: C M M M
;
_chemical_formula_sum "Si O2"
_cell_formula_units_Z 88
_cell_length_a 18.601471
_cell_length_b 8.416683
_cell_length_c 30.474018
_cell_angle_alpha 90.000000
_cell_angle_beta 90.000000
_cell_angle_gamma 90.000000
_cell_volume 4771.094073
_symmetry_space_group_name_H-M "C M M M"
_symmetry_group_IT_number 65
_symmetry_cell_setting 'orthorhombic'
loop_
_space_group_symop_operation_xyz
x,y,z
-x,-y,z
x,-y,-z
-x,y,-z
-x,-y,-z
x,y,-z
-x,y,z
x,-y,z
1/2+x,1/2+y,z
1/2-x,1/2-y,z
1/2+x,1/2-y,-z
1/2-x,1/2+y,-z
1/2-x,1/2-y,-z
1/2+x,1/2+y,-z
1/2-x,1/2+y,z
1/2+x,1/2-y,z
loop_
_atom_site_type_symbol
_atom_site_label
_atom_site_fract_x
_atom_site_fract_y
_atom_site_fract_z
Si Si1 0.167325 0.190323 0.452416
Si Si2 0.167004 0.192418 0.000000
Si Si3 0.667820 0.309220 0.809781
Si Si4 0.667371 0.308037 0.094388
Si Si5 0.582173 0.191992 0.274428
Si Si6 0.668007 0.809956 0.360179
O O1 0.135879 0.238639 0.500000
O O2 0.250000 0.250000 0.452685
O O3 0.136150 0.255162 0.406994
O O4 0.167637 0.000000 0.450419
O O5 0.250000 0.250000 0.000000
O O6 0.135500 0.244810 0.047246
O O7 0.166636 0.000000 0.000000
O O8 0.668235 0.500000 0.808500
O O9 0.750000 0.250000 0.806030
O O10 0.638413 0.257240 0.857972
O O11 0.622372 0.245804 0.769345
O O12 0.666713 0.500000 0.094314
O O13 0.750000 0.250000 0.094274
O O14 0.500000 0.247219 0.274527
O O15 0.623612 0.247257 0.318110
O O16 0.582394 0.000000 0.275370
O O17 0.750000 0.750000 0.356782
O O18 0.669623 0.000000 0.360089
#
# Coordination Sequence:
#
# PCOD9485741 Si02
#       6
#    16   8  16  16  16  16
#     4   9  16  26  43  69  99 126 152 185 225 269
#     4   8  12  20  34  54  85 120 147 177 221 269
#     4  10  19  31  49  73  98 125 159 197 237 283
#     4   8  14  23  37  60  89 119 150 184 224 272
#     4  10  22  38  52  68  93 125 161 202 247 290
#     4  10  19  31  50  73  96 123 155 192 232 277
#
# _framework density 18.444406000000001
#
# number of rings (size 3 to 8) (size 9 to 14) (size 15 to 20)
#    0.000    2.727    0.000    3.273    0.000    5.091 
#    0.000    0.000    0.000    0.545    0.000    4.455 
#    0.000    5.091    0.000    0.000    0.000    0.364 
#
# Total GULP energy -244936.541370 kJ/mol
# GULP energy per Si atom -5566.739577 kJ/mol
# Density = 1.840243 g / cm^3
# Si number density = 18.444406 Si / 1000 Ang^3
#
#
#
# Elastic Constant Matrix: (Units=GPa)
#
#
# Indices 1 2 3 4 5 6 
#
# 1 46.2177 9.7767 64.4209 0.0000 0.0000 0.0000
# 2 9.7767 21.7816 26.8850 0.0000 0.0000 0.0000
# 3 64.4209 26.8850 254.0786 0.0000 0.0000 0.0000
# 4 0.0000 0.0000 0.0000 107.4927 0.0000 0.0000
# 5 0.0000 0.0000 0.0000 0.0000 -4.2558 0.0000
# 6 0.0000 0.0000 0.0000 0.0000 0.0000 11.1548
#
#
#
# Elastic Compliance Matrix: (Units=1/GPa)
#
#
# Indices 1 2 3 4 5 6 
#
# 1 0.033989 -0.005313 -0.008056 0.000000 0.000000 0.000000
# 2 -0.005313 0.053638 -0.004328 0.000000 0.000000 0.000000
# 3 -0.008056 -0.004328 0.006436 0.000000 0.000000 0.000000
# 4 0.000000 0.000000 0.000000 0.009303 0.000000 0.000000
# 5 0.000000 0.000000 0.000000 0.000000 -0.234972 0.000000
# 6 0.000000 0.000000 0.000000 0.000000 0.000000 0.089648
#
#
# Mechanical properties :
#
#
# Convention : Reuss Voigt Hill
#
# Bulk Modulus (GPa) = 17.04485 58.24925 37.64705
# Shear Modulus (GPa) = 384.84217 37.61134 211.22675
#
# Velocity S-wave (km/s) = 14.46039 4.52062 10.71305
# Velocity P-wave (km/s) = 16.97248 7.67447 13.17123
#
# Compressibility (1/GPa) = 0.05866873
#
# Stress axis : x y z
#
# Youngs Moduli (GPa) = 29.42126 18.64357 155.36906
#
# Poissons Ratio (x) = 0.09905 1.25160
# Poissons Ratio (y) = 0.15632 0.67251
# Poissons Ratio (z) = 0.23701 0.08070
#
# Static dielectric constant tensor:
#      x y z
#    x 1.602270 0.000000 0.000000 
#    y 0.000000 1.636460 0.000000 
#    z 0.000000 0.000000 1.725440 
# 
# From -- ./inp_files/76634.got.cif
#   From: 2010.05.17/outbox.cif.g08.bks.cpg/sg65_39_cif.got.tgz:76634.got - 2010.06.03 17:01:31.
