data_PCOD9485944
_publ_section_title
;
Structure prediction by ZEFSAII (Michael W. Deem and Ramdas Pophale) SiO2 
 PCOD9485944
Probable space group: C M M M
;
_chemical_formula_sum "Si O2"
_cell_formula_units_Z 96
_cell_length_a 18.227670
_cell_length_b 21.606613
_cell_length_c 13.347788
_cell_angle_alpha 90.000000
_cell_angle_beta 90.000000
_cell_angle_gamma 90.000000
_cell_volume 5256.868954
_symmetry_space_group_name_H-M "C M M M"
_symmetry_group_IT_number 65
_symmetry_cell_setting 'orthorhombic'
loop_
_space_group_symop_operation_xyz
x,y,z
-x,-y,z
x,-y,-z
-x,y,-z
-x,-y,-z
x,y,-z
-x,y,z
x,-y,z
1/2+x,1/2+y,z
1/2-x,1/2-y,z
1/2+x,1/2-y,-z
1/2-x,1/2+y,-z
1/2-x,1/2-y,-z
1/2+x,1/2+y,-z
1/2-x,1/2+y,z
1/2+x,1/2-y,z
loop_
_atom_site_type_symbol
_atom_site_label
_atom_site_fract_x
_atom_site_fract_y
_atom_site_fract_z
Si Si1 0.724857 0.431357 0.760968
Si Si2 0.270771 0.821626 0.383400
Si Si3 0.915904 0.329481 0.274337
Si Si4 0.913272 0.238664 0.892481
Si Si5 0.584059 0.590704 0.115256
Si Si6 0.870044 0.572378 0.884453
O O1 0.740657 0.500000 0.716535
O O2 0.732400 0.373768 0.685569
O O3 0.645201 0.432814 0.810358
O O4 0.785169 0.422068 0.849226
O O5 0.253063 0.831123 0.500000
O O6 0.250000 0.750000 0.359521
O O7 0.357351 0.833331 0.362672
O O8 0.885407 0.274269 0.203489
O O9 0.912355 0.387600 0.198236
O O10 0.000000 0.318926 0.305498
O O11 0.909264 0.165281 0.883147
O O12 0.000000 0.254581 0.895722
O O13 0.880123 0.256746 0.000000
O O14 0.500000 0.574943 0.140831
O O15 0.596921 0.571565 0.000000
O O16 0.890012 0.500000 0.878896
O O17 0.880638 0.592335 0.000000
#
# Coordination Sequence:
#
# PCOD9485944 Si02
#       6
#    16  16  16  16  16  16
#     4  10  20  34  53  76 104 139 176 212 253 304
#     4  10  22  40  59  77  98 128 170 218 266 315
#     4  10  19  31  51  77 102 130 167 212 260 306
#     4   8  14  25  42  68 103 137 165 195 236 289
#     4   9  17  29  48  77 111 143 173 206 245 292
#     4   9  18  31  46  69 105 145 178 206 241 294
#
# _framework density 18.261821999999999
#
# number of rings (size 3 to 8) (size 9 to 14) (size 15 to 20)
#    0.000    2.667    0.000    3.000    0.000    3.333 
#    0.000    1.667    0.000    9.500    0.000    5.833 
#    0.000    0.000    0.000    0.000    0.000    0.000 
#
# Total GULP energy -267429.944729 kJ/mol
# GULP energy per Si atom -5571.457182 kJ/mol
# Density = 1.822026 g / cm^3
# Si number density = 18.261822 Si / 1000 Ang^3
#
#
#
# Elastic Constant Matrix: (Units=GPa)
#
#
# Indices 1 2 3 4 5 6 
#
# 1 79.9481 19.7430 25.9723 0.0000 0.0000 0.0000
# 2 19.7430 92.4646 26.5561 0.0000 0.0000 0.0000
# 3 25.9723 26.5561 49.2302 0.0000 0.0000 0.0000
# 4 0.0000 0.0000 0.0000 9.8254 0.0000 0.0000
# 5 0.0000 0.0000 0.0000 0.0000 12.6955 0.0000
# 6 0.0000 0.0000 0.0000 0.0000 0.0000 15.3434
#
#
#
# Elastic Compliance Matrix: (Units=1/GPa)
#
#
# Indices 1 2 3 4 5 6 
#
# 1 0.015192 -0.001115 -0.007413 0.000000 0.000000 0.000000
# 2 -0.001115 0.012879 -0.006359 0.000000 0.000000 0.000000
# 3 -0.007413 -0.006359 0.027654 0.000000 0.000000 0.000000
# 4 0.000000 0.000000 0.000000 0.101777 0.000000 0.000000
# 5 0.000000 0.000000 0.000000 0.000000 0.078768 0.000000
# 6 0.000000 0.000000 0.000000 0.000000 0.000000 0.065175
#
#
# Mechanical properties :
#
#
# Convention : Reuss Voigt Hill
#
# Bulk Modulus (GPa) = 38.53499 40.68730 39.61115
# Shear Modulus (GPa) = 14.71150 17.53096 16.12123
#
# Velocity S-wave (km/s) = 2.84137 3.10171 2.97439
# Velocity P-wave (km/s) = 5.64904 5.92924 5.79084
#
# Compressibility (1/GPa) = 0.02595044
#
# Stress axis : x y z
#
# Youngs Moduli (GPa) = 65.82537 77.64344 36.16078
#
# Poissons Ratio (x) = 0.08654 0.26808
# Poissons Ratio (y) = 0.07337 0.22996
# Poissons Ratio (z) = 0.48799 0.49377
#
# Static dielectric constant tensor:
#      x y z
#    x 1.628120 0.000000 0.000000 
#    y 0.000000 1.666510 0.000000 
#    z 0.000000 0.000000 1.612200 
# 
# From -- ./inp_files/27132.got.cif
#   From: 2010.05.17/outbox.cif.g08.bks.cpg/sg65_14_cif.got.tgz:27132.got - 2010.06.03 17:01:31.
