data_PCOD9485771
_publ_section_title
;
Structure prediction by ZEFSAII (Michael W. Deem and Ramdas Pophale) SiO2 
 PCOD9485771
Probable space group: C M M M
;
_chemical_formula_sum "Si O2"
_cell_formula_units_Z 80
_cell_length_a 14.164047
_cell_length_b 20.218672
_cell_length_c 13.962416
_cell_angle_alpha 90.000000
_cell_angle_beta 90.000000
_cell_angle_gamma 90.000000
_cell_volume 3998.531848
_symmetry_space_group_name_H-M "C M M M"
_symmetry_group_IT_number 65
_symmetry_cell_setting 'orthorhombic'
loop_
_space_group_symop_operation_xyz
x,y,z
-x,-y,z
x,-y,-z
-x,y,-z
-x,-y,-z
x,y,-z
-x,y,z
x,-y,z
1/2+x,1/2+y,z
1/2-x,1/2-y,z
1/2+x,1/2-y,-z
1/2-x,1/2+y,-z
1/2-x,1/2-y,-z
1/2+x,1/2+y,-z
1/2-x,1/2+y,z
1/2+x,1/2-y,z
loop_
_atom_site_type_symbol
_atom_site_label
_atom_site_fract_x
_atom_site_fract_y
_atom_site_fract_z
Si Si1 0.111150 0.427035 0.201565
Si Si2 0.105283 0.265418 0.607234
Si Si3 0.107427 0.132147 0.723695
Si Si4 0.784585 0.397890 0.389111
Si Si5 0.759545 0.828377 0.886551
O O1 0.133324 0.500000 0.160472
O O2 0.143942 0.428268 0.312344
O O3 0.168545 0.368801 0.150326
O O4 0.000000 0.415982 0.194721
O O5 0.112353 0.236338 0.500000
O O6 0.107740 0.206679 0.681795
O O7 0.185384 0.320287 0.616219
O O8 0.000000 0.297114 0.613827
O O9 0.180261 0.093599 0.654750
O O10 0.154460 0.139243 0.827579
O O11 0.000000 0.107889 0.723765
O O12 0.792206 0.417811 0.500000
O O13 0.750000 0.750000 0.864803
O O14 0.770517 0.835225 0.000000
#
# Coordination Sequence:
#
# PCOD9485771 Si02
#       5
#    16  16  16  16  16
#     4  10  22  40  62  90 124 159 193 233 289 357
#     4   9  16  26  44  73 109 149 191 234 284 343
#     4  10  19  31  49  74 107 147 192 241 291 343
#     4  10  19  31  49  76 113 154 194 235 279 332
#     4  10  22  39  59  85 115 148 192 248 305 357
#
# _framework density 20.007342999999999
#
# number of rings (size 3 to 8) (size 9 to 14) (size 15 to 20)
#    0.000    2.200    0.000    4.200    0.000    8.000 
#    0.000    4.000    0.000    9.600    0.000   11.200 
#    0.000    0.000    0.000    0.000    0.000    0.000 
#
# Total GULP energy -223231.229851 kJ/mol
# GULP energy per Si atom -5580.780746 kJ/mol
# Density = 1.996181 g / cm^3
# Si number density = 20.007343 Si / 1000 Ang^3
#
#
#
# Elastic Constant Matrix: (Units=GPa)
#
#
# Indices 1 2 3 4 5 6 
#
# 1 129.7013 26.5939 27.2723 0.0000 0.0000 0.0000
# 2 26.5939 72.8514 22.8306 0.0000 0.0000 0.0000
# 3 27.2723 22.8306 90.4526 0.0000 0.0000 0.0000
# 4 0.0000 0.0000 0.0000 -6.9807 0.0000 0.0000
# 5 0.0000 0.0000 0.0000 0.0000 12.0633 0.0000
# 6 0.0000 0.0000 0.0000 0.0000 0.0000 15.0973
#
#
#
# Elastic Compliance Matrix: (Units=1/GPa)
#
#
# Indices 1 2 3 4 5 6 
#
# 1 0.008644 -0.002540 -0.001965 0.000000 0.000000 0.000000
# 2 -0.002540 0.015652 -0.003185 0.000000 0.000000 0.000000
# 3 -0.001965 -0.003185 0.012452 0.000000 0.000000 0.000000
# 4 0.000000 0.000000 0.000000 -0.143252 0.000000 0.000000
# 5 0.000000 0.000000 0.000000 0.000000 0.082896 0.000000
# 6 0.000000 0.000000 0.000000 0.000000 0.000000 0.066237
#
#
# Mechanical properties :
#
#
# Convention : Reuss Voigt Hill
#
# Bulk Modulus (GPa) = 46.79828 49.59987 48.19907
# Shear Modulus (GPa) = 76.76902 18.45655 47.61278
#
# Velocity S-wave (km/s) = 6.20111 3.04054 4.88358
# Velocity P-wave (km/s) = 8.64367 6.09682 7.47944
#
# Compressibility (1/GPa) = 0.02136831
#
# Stress axis : x y z
#
# Youngs Moduli (GPa) = 115.68767 63.89083 80.30886
#
# Poissons Ratio (x) = 0.16225 0.15783
# Poissons Ratio (y) = 0.29379 0.25577
# Poissons Ratio (z) = 0.22735 0.20348
#
# Static dielectric constant tensor:
#      x y z
#    x 1.730790 0.000000 0.000000 
#    y 0.000000 1.978840 0.000000 
#    z 0.000000 0.000000 1.698980 
# 
# From -- ./inp_files/40004.got.cif
#   From: 2010.05.17/outbox.cif.g08.bks.cpg/sg65_21_cif.got.tgz:40004.got - 2010.06.03 17:01:31.
