data_PCOD9485956
_publ_section_title
;
Structure prediction by ZEFSAII (Michael W. Deem and Ramdas Pophale) SiO2 
 PCOD9485956
Probable space group: C M M M
;
_chemical_formula_sum "Si O2"
_cell_formula_units_Z 80
_cell_length_a 18.603924
_cell_length_b 8.847581
_cell_length_c 26.574142
_cell_angle_alpha 90.000000
_cell_angle_beta 90.000000
_cell_angle_gamma 90.000000
_cell_volume 4374.096452
_symmetry_space_group_name_H-M "C M M M"
_symmetry_group_IT_number 65
_symmetry_cell_setting 'orthorhombic'
loop_
_space_group_symop_operation_xyz
x,y,z
-x,-y,z
x,-y,-z
-x,y,-z
-x,-y,-z
x,y,-z
-x,y,z
x,-y,z
1/2+x,1/2+y,z
1/2-x,1/2-y,z
1/2+x,1/2-y,-z
1/2-x,1/2+y,-z
1/2-x,1/2-y,-z
1/2+x,1/2+y,-z
1/2-x,1/2+y,z
1/2+x,1/2-y,z
loop_
_atom_site_type_symbol
_atom_site_label
_atom_site_fract_x
_atom_site_fract_y
_atom_site_fract_z
Si Si1 0.329951 0.318985 0.657220
Si Si2 0.583974 0.318510 0.758501
Si Si3 0.330577 0.181169 0.555069
Si Si4 0.171074 0.320500 0.850818
Si Si5 0.084448 0.818968 0.058204
O O1 0.324041 0.500000 0.652751
O O2 0.250000 0.250000 0.663544
O O3 0.377259 0.281899 0.705888
O O4 0.362765 0.252347 0.605547
O O5 0.500000 0.278968 0.757062
O O6 0.589570 0.500000 0.765727
O O7 0.623616 0.238026 0.804326
O O8 0.363445 0.215585 0.500000
O O9 0.250000 0.250000 0.553779
O O10 0.326403 0.000000 0.560017
O O11 0.176110 0.500000 0.849658
O O12 0.250000 0.250000 0.846976
O O13 0.133389 0.265947 0.902096
O O14 0.000000 0.785588 0.067041
O O15 0.093370 0.000000 0.064218
O O16 0.100740 0.781630 0.000000
#
# Coordination Sequence:
#
# PCOD9485956 Si02
#       5
#    16  16  16  16  16
#     4  10  19  31  51  77 104 136 173 216 265 315
#     4  10  22  40  59  79 107 142 179 222 273 328
#     4   9  16  26  43  69 101 135 170 211 260 312
#     4  12  25  39  58  84 113 146 184 227 274 321
#     4   9  19  38  63  88 116 151 186 221 267 321
#
# _framework density 18.289491999999999
#
# number of rings (size 3 to 8) (size 9 to 14) (size 15 to 20)
#    0.000    2.000    0.000    6.000    0.000    8.400 
#    0.000    1.000    0.000    0.600    0.000    4.200 
#    0.000    0.000    0.000    0.000    0.000    0.000 
#
# Total GULP energy -223310.277295 kJ/mol
# GULP energy per Si atom -5582.756932 kJ/mol
# Density = 1.824786 g / cm^3
# Si number density = 18.289492 Si / 1000 Ang^3
#
#
#
# Elastic Constant Matrix: (Units=GPa)
#
#
# Indices 1 2 3 4 5 6 
#
# 1 107.3655 62.6119 99.9779 0.0000 0.0000 0.0000
# 2 62.6119 79.3018 86.1944 0.0000 0.0000 0.0000
# 3 99.9779 86.1944 174.4258 0.0000 0.0000 0.0000
# 4 0.0000 0.0000 0.0000 85.9082 0.0000 0.0000
# 5 0.0000 0.0000 0.0000 0.0000 361.1216 0.0000
# 6 0.0000 0.0000 0.0000 0.0000 0.0000 22.8032
#
#
#
# Elastic Compliance Matrix: (Units=1/GPa)
#
#
# Indices 1 2 3 4 5 6 
#
# 1 0.022071 -0.007941 -0.008727 0.000000 0.000000 0.000000
# 2 -0.007941 0.030099 -0.010322 0.000000 0.000000 0.000000
# 3 -0.008727 -0.010322 0.015836 0.000000 0.000000 0.000000
# 4 0.000000 0.000000 0.000000 0.011640 0.000000 0.000000
# 5 0.000000 0.000000 0.000000 0.000000 0.002769 0.000000
# 6 0.000000 0.000000 0.000000 0.000000 0.000000 0.043854
#
#
# Mechanical properties :
#
#
# Convention : Reuss Voigt Hill
#
# Bulk Modulus (GPa) = 71.29331 95.40683 83.35007
# Shear Modulus (GPa) = 27.03815 101.45385 64.24600
#
# Velocity S-wave (km/s) = 3.84909 7.45597 5.93326
# Velocity P-wave (km/s) = 7.66936 11.24278 9.62339
#
# Compressibility (1/GPa) = 0.01402656
#
# Stress axis : x y z
#
# Youngs Moduli (GPa) = 45.30841 33.22370 63.14729
#
# Poissons Ratio (x) = 0.26382 0.55107
# Poissons Ratio (y) = 0.35978 0.65183
# Poissons Ratio (z) = 0.39539 0.34295
#
# Static dielectric constant tensor:
#      x y z
#    x 1.598920 0.000000 0.000000 
#    y 0.000000 1.613370 0.000000 
#    z 0.000000 0.000000 1.649750 
# 
# From -- ./inp_files/72744.got.cif
#   From: 2010.05.17/outbox.cif.g08.bks.cpg/sg65_37_cif.got.tgz:72744.got - 2010.06.03 17:01:31.
