data_PCOD9485270
_publ_section_title
;
Structure prediction by ZEFSAII (Michael W. Deem and Ramdas Pophale) SiO2 
 PCOD9485270
Probable space group: C M M M
;
_chemical_formula_sum "Si O2"
_cell_formula_units_Z 120
_cell_length_a 8.948753
_cell_length_b 29.787722
_cell_length_c 26.275016
_cell_angle_alpha 90.000000
_cell_angle_beta 90.000000
_cell_angle_gamma 90.000000
_cell_volume 7003.946213
_symmetry_space_group_name_H-M "C M M M"
_symmetry_group_IT_number 65
_symmetry_cell_setting 'orthorhombic'
loop_
_space_group_symop_operation_xyz
x,y,z
-x,-y,z
x,-y,-z
-x,y,-z
-x,-y,-z
x,y,-z
-x,y,z
x,-y,z
1/2+x,1/2+y,z
1/2-x,1/2-y,z
1/2+x,1/2-y,-z
1/2-x,1/2+y,-z
1/2-x,1/2-y,-z
1/2+x,1/2+y,-z
1/2-x,1/2+y,z
1/2+x,1/2-y,z
loop_
_atom_site_type_symbol
_atom_site_label
_atom_site_fract_x
_atom_site_fract_y
_atom_site_fract_z
Si Si1 0.178579 0.701564 0.859049
Si Si2 0.819895 0.052227 0.394000
Si Si3 0.821326 0.701489 0.259229
Si Si4 0.828590 0.554455 0.500000
Si Si5 0.677752 0.361159 0.943465
Si Si6 0.322992 0.948164 0.093231
Si Si7 0.675317 0.447715 0.798106
Si Si8 0.680076 0.613380 0.701378
O O1 0.250000 0.750000 0.869887
O O2 0.215766 0.690602 0.800147
O O3 0.243183 0.666231 0.898764
O O4 0.000000 0.703806 0.863368
O O5 0.753103 0.067520 0.447904
O O6 0.774475 0.084533 0.347883
O O7 0.000000 0.052735 0.397085
O O8 0.775642 0.000000 0.384645
O O9 0.750000 0.750000 0.270468
O O10 0.755967 0.661620 0.293227
O O11 0.000000 0.704096 0.263628
O O12 0.826603 0.500000 0.500000
O O13 0.000000 0.569391 0.500000
O O14 0.500000 0.358708 0.936978
O O15 0.732437 0.412260 0.938931
O O16 0.715818 0.343792 0.000000
O O17 0.500000 0.941079 0.087483
O O18 0.274609 0.941071 0.151978
O O19 0.289028 0.000000 0.080556
O O20 0.500000 0.439923 0.811208
O O21 0.688060 0.500000 0.782389
O O22 0.716556 0.415704 0.751661
O O23 0.500000 0.618499 0.700136
#
# Coordination Sequence:
#
# PCOD9485270 Si02
#       8
#    16  16  16   8  16  16  16  16
#     4  10  21  38  60  82 104 131 162 198 244 300
#     4   9  17  30  48  71 102 141 181 215 249 293
#     4  10  21  36  54  76 101 130 165 203 246 297
#     4   9  17  29  45  67  98 137 180 223 261 293
#     4  11  24  39  55  76 100 127 162 204 249 297
#     4  10  21  36  53  73  98 130 167 205 247 296
#     4   9  17  30  49  73 102 135 167 199 239 292
#     4  10  19  30  48  75 105 135 168 208 251 294
#
# _framework density 17.133199000000001
#
# number of rings (size 3 to 8) (size 9 to 14) (size 15 to 20)
#    0.000    2.200    0.000    3.000    0.000    9.600 
#    0.000    1.333    0.000    4.000    0.000    0.467 
#    0.000    0.000    0.000    0.000    0.000    0.000 
#
# Total GULP energy -334952.629596 kJ/mol
# GULP energy per Si atom -5582.543827 kJ/mol
# Density = 1.709420 g / cm^3
# Si number density = 17.133199 Si / 1000 Ang^3
#
#
#
# Elastic Constant Matrix: (Units=GPa)
#
#
# Indices 1 2 3 4 5 6 
#
# 1 35.2048 35.9303 30.3589 0.0000 0.0000 0.0000
# 2 35.9303 89.6601 62.3345 0.0000 0.0000 0.0000
# 3 30.3589 62.3345 71.7588 0.0000 0.0000 0.0000
# 4 0.0000 0.0000 0.0000 17.1974 0.0000 0.0000
# 5 0.0000 0.0000 0.0000 0.0000 15.8592 0.0000
# 6 0.0000 0.0000 0.0000 0.0000 0.0000 29.9518
#
#
#
# Elastic Compliance Matrix: (Units=1/GPa)
#
#
# Indices 1 2 3 4 5 6 
#
# 1 0.050535 -0.013602 -0.009564 0.000000 0.000000 0.000000
# 2 -0.013602 0.031821 -0.021887 0.000000 0.000000 0.000000
# 3 -0.009564 -0.021887 0.036994 0.000000 0.000000 0.000000
# 4 0.000000 0.000000 0.000000 0.058148 0.000000 0.000000
# 5 0.000000 0.000000 0.000000 0.000000 0.063055 0.000000
# 6 0.000000 0.000000 0.000000 0.000000 0.000000 0.033387
#
#
# Mechanical properties :
#
#
# Convention : Reuss Voigt Hill
#
# Bulk Modulus (GPa) = 34.19528 50.43014 42.31271
# Shear Modulus (GPa) = 13.37634 17.13503 15.25569
#
# Velocity S-wave (km/s) = 2.79718 3.16588 2.98722
# Velocity P-wave (km/s) = 5.51671 6.54689 6.05375
#
# Compressibility (1/GPa) = 0.02924380
#
# Stress axis : x y z
#
# Youngs Moduli (GPa) = 19.78812 31.42626 27.03126
#
# Poissons Ratio (x) = 0.42747 0.25853
# Poissons Ratio (y) = 0.26916 0.59163
# Poissons Ratio (z) = 0.18926 0.68782
#
# Static dielectric constant tensor:
#      x y z
#    x 1.572190 0.000000 0.000000 
#    y 0.000000 1.573050 0.000000 
#    z 0.000000 0.000000 1.570010 
# 
# From -- ./inp_files/73959.got.cif
#   From: 2010.05.17/outbox.cif.g08.bks.cpg/sg65_37_cif.got.tgz:73959.got - 2010.06.03 17:01:31.
