data_PCOD9485258
_publ_section_title
;
Structure prediction by ZEFSAII (Michael W. Deem and Ramdas Pophale) SiO2 
 PCOD9485258
Probable space group: C M M M
;
_chemical_formula_sum "Si O2"
_cell_formula_units_Z 72
_cell_length_a 19.398436
_cell_length_b 8.768429
_cell_length_c 24.178953
_cell_angle_alpha 90.000000
_cell_angle_beta 90.000000
_cell_angle_gamma 90.000000
_cell_volume 4112.690208
_symmetry_space_group_name_H-M "C M M M"
_symmetry_group_IT_number 65
_symmetry_cell_setting 'orthorhombic'
loop_
_space_group_symop_operation_xyz
x,y,z
-x,-y,z
x,-y,-z
-x,y,-z
-x,-y,-z
x,y,-z
-x,y,z
x,-y,z
1/2+x,1/2+y,z
1/2-x,1/2-y,z
1/2+x,1/2-y,-z
1/2-x,1/2+y,-z
1/2-x,1/2-y,-z
1/2+x,1/2+y,-z
1/2-x,1/2+y,z
1/2+x,1/2-y,z
loop_
_atom_site_type_symbol
_atom_site_label
_atom_site_fract_x
_atom_site_fract_y
_atom_site_fract_z
Si Si1 0.673020 0.682798 0.819662
Si Si2 0.826568 0.818583 0.500000
Si Si3 0.420009 0.183391 0.723539
Si Si4 0.827517 0.815960 0.940580
Si Si5 0.419346 0.816147 0.596641
O O1 0.676920 0.500000 0.817626
O O2 0.750000 0.750000 0.815604
O O3 0.627573 0.742580 0.769490
O O4 0.643252 0.728527 0.880517
O O5 0.750000 0.750000 0.500000
O O6 0.869194 0.761463 0.446780
O O7 0.822325 0.000000 0.500000
O O8 0.500000 0.224480 0.732620
O O9 0.402597 0.225686 0.660165
O O10 0.414575 0.000000 0.727064
O O11 0.750000 0.750000 0.940761
O O12 0.824095 0.000000 0.940676
O O13 0.859582 0.769237 0.000000
O O14 0.500000 0.777718 0.586355
O O15 0.413771 0.000000 0.591636
#
# Coordination Sequence:
#
# PCOD9485258 Si02
#       5
#    16   8  16  16  16
#     4  10  19  30  48  74 102 132 166 208 256 302
#     4  12  25  38  55  81 111 139 167 204 249 292
#     4   9  19  36  56  76 100 133 170 207 249 297
#     4   8  14  25  41  63  92 125 162 203 247 296
#     4   9  19  38  61  80 101 133 170 206 248 299
#
# _framework density 17.506789000000001
#
# number of rings (size 3 to 8) (size 9 to 14) (size 15 to 20)
#    0.000    2.667    0.000    3.333    0.000    4.889 
#    0.000    2.222    0.000    0.667    0.000    4.667 
#    0.000    0.000    0.000    0.000    0.000    0.000 
#
# Total GULP energy -200571.877892 kJ/mol
# GULP energy per Si atom -5571.441053 kJ/mol
# Density = 1.746694 g / cm^3
# Si number density = 17.506789 Si / 1000 Ang^3
#
#
#
# Elastic Constant Matrix: (Units=GPa)
#
#
# Indices 1 2 3 4 5 6 
#
# 1 79.5542 40.7918 108.4425 0.0000 0.0000 0.0000
# 2 40.7918 38.8795 64.1823 0.0000 0.0000 0.0000
# 3 108.4425 64.1823 207.9595 0.0000 0.0000 0.0000
# 4 0.0000 0.0000 0.0000 22.6861 0.0000 0.0000
# 5 0.0000 0.0000 0.0000 0.0000 67.1650 0.0000
# 6 0.0000 0.0000 0.0000 0.0000 0.0000 26.4046
#
#
#
# Elastic Compliance Matrix: (Units=1/GPa)
#
#
# Indices 1 2 3 4 5 6 
#
# 1 0.049520 -0.019016 -0.019954 0.000000 0.000000 0.000000
# 2 -0.019016 0.059738 -0.008521 0.000000 0.000000 0.000000
# 3 -0.019954 -0.008521 0.017844 0.000000 0.000000 0.000000
# 4 0.000000 0.000000 0.000000 0.044080 0.000000 0.000000
# 5 0.000000 0.000000 0.000000 0.000000 0.014889 0.000000
# 6 0.000000 0.000000 0.000000 0.000000 0.000000 0.037872
#
#
# Mechanical properties :
#
#
# Convention : Reuss Voigt Hill
#
# Bulk Modulus (GPa) = 31.13289 83.69182 57.41235
# Shear Modulus (GPa) = 15.16849 30.78292 22.97571
#
# Velocity S-wave (km/s) = 2.94672 4.19781 3.62662
# Velocity P-wave (km/s) = 5.42213 8.45012 7.09944
#
# Compressibility (1/GPa) = 0.03212037
#
# Stress axis : x y z
#
# Youngs Moduli (GPa) = 20.19369 16.73984 56.04245
#
# Poissons Ratio (x) = 0.31832 1.11827
# Poissons Ratio (y) = 0.38400 0.47753
# Poissons Ratio (z) = 0.40295 0.14264
#
# Static dielectric constant tensor:
#      x y z
#    x 1.563940 0.000000 0.000000 
#    y 0.000000 1.593770 0.000000 
#    z 0.000000 0.000000 1.639700 
# 
# From -- ./inp_files/64316.got.cif
#   From: 2010.05.17/outbox.cif.g08.bks.cpg/sg65_33_cif.got.tgz:64316.got - 2010.06.03 17:01:31.
