data_PCOD9485465
_publ_section_title
;
Structure prediction by ZEFSAII (Michael W. Deem and Ramdas Pophale) SiO2 
 PCOD9485465
Probable space group: C M M M
;
_chemical_formula_sum "Si O2"
_cell_formula_units_Z 88
_cell_length_a 8.511009
_cell_length_b 28.168905
_cell_length_c 22.240298
_cell_angle_alpha 90.000000
_cell_angle_beta 90.000000
_cell_angle_gamma 90.000000
_cell_volume 5332.018125
_symmetry_space_group_name_H-M "C M M M"
_symmetry_group_IT_number 65
_symmetry_cell_setting 'orthorhombic'
loop_
_space_group_symop_operation_xyz
x,y,z
-x,-y,z
x,-y,-z
-x,y,-z
-x,-y,-z
x,y,-z
-x,y,z
x,-y,z
1/2+x,1/2+y,z
1/2-x,1/2-y,z
1/2+x,1/2-y,-z
1/2-x,1/2+y,-z
1/2-x,1/2-y,-z
1/2+x,1/2+y,-z
1/2-x,1/2+y,z
1/2+x,1/2-y,z
loop_
_atom_site_type_symbol
_atom_site_label
_atom_site_fract_x
_atom_site_fract_y
_atom_site_fract_z
Si Si1 0.310223 0.053958 0.370745
Si Si2 0.682164 0.557695 0.000000
Si Si3 0.687946 0.106427 0.248458
Si Si4 0.310642 0.645968 0.566708
Si Si5 0.188275 0.802336 0.687216
Si Si6 0.190416 0.944914 0.868737
O O1 0.500000 0.055253 0.374352
O O2 0.265214 0.071555 0.303684
O O3 0.242542 0.092891 0.416080
O O4 0.258427 0.000000 0.381442
O O5 0.749568 0.571221 0.065058
O O6 0.680878 0.500000 0.000000
O O7 0.500000 0.573286 0.000000
O O8 0.500000 0.107741 0.246740
O O9 0.751767 0.158055 0.266402
O O10 0.751572 0.086643 0.185986
O O11 0.254517 0.659081 0.500000
O O12 0.500000 0.647189 0.566688
O O13 0.256119 0.679878 0.620987
O O14 0.250000 0.750000 0.699770
O O15 0.000000 0.802299 0.687544
O O16 0.000000 0.944320 0.870440
O O17 0.238233 0.000000 0.859459
#
# Coordination Sequence:
#
# PCOD9485465 Si02
#       6
#    16   8  16  16  16  16
#     4   9  18  31  45  63  90 123 156 189 225 266
#     4   7  12  24  41  63  94 131 166 195 223 261
#     4  10  19  31  47  68  94 123 156 194 234 275
#     4   9  19  34  49  67  91 117 147 184 226 275
#     4  10  20  35  53  71  91 115 146 187 235 284
#     4   9  16  27  45  69  98 132 166 196 227 265
#
# _framework density 16.504069999999999
#
# number of rings (size 3 to 8) (size 9 to 14) (size 15 to 20)
#    0.000    2.818    0.000    2.727    0.000    4.000 
#    0.000    2.273    0.000    1.636    0.000    0.636 
#    0.000    0.000    0.000    0.000    0.000    0.000 
#
# Total GULP energy -245211.178674 kJ/mol
# GULP energy per Si atom -5572.981334 kJ/mol
# Density = 1.646651 g / cm^3
# Si number density = 16.504070 Si / 1000 Ang^3
#
#
#
# Elastic Constant Matrix: (Units=GPa)
#
#
# Indices 1 2 3 4 5 6 
#
# 1 15.3597 15.9732 21.5014 0.0000 0.0000 0.0000
# 2 15.9732 87.4771 43.8366 0.0000 0.0000 0.0000
# 3 21.5014 43.8366 132.1058 0.0000 0.0000 0.0000
# 4 0.0000 0.0000 0.0000 10.8511 0.0000 0.0000
# 5 0.0000 0.0000 0.0000 0.0000 14.7829 0.0000
# 6 0.0000 0.0000 0.0000 0.0000 0.0000 23.8148
#
#
#
# Elastic Compliance Matrix: (Units=1/GPa)
#
#
# Indices 1 2 3 4 5 6 
#
# 1 0.092686 -0.011233 -0.011358 0.000000 0.000000 0.000000
# 2 -0.011233 0.015073 -0.003173 0.000000 0.000000 0.000000
# 3 -0.011358 -0.003173 0.010471 0.000000 0.000000 0.000000
# 4 0.000000 0.000000 0.000000 0.092157 0.000000 0.000000
# 5 0.000000 0.000000 0.000000 0.000000 0.067646 0.000000
# 6 0.000000 0.000000 0.000000 0.000000 0.000000 0.041991
#
#
# Mechanical properties :
#
#
# Convention : Reuss Voigt Hill
#
# Bulk Modulus (GPa) = 14.99202 44.17389 29.58296
# Shear Modulus (GPa) = 12.69724 20.13186 16.41455
#
# Velocity S-wave (km/s) = 2.77671 3.49637 3.15711
# Velocity P-wave (km/s) = 4.40269 6.56681 5.59047
#
# Compressibility (1/GPa) = 0.06670216
#
# Stress axis : x y z
#
# Youngs Moduli (GPa) = 10.78907 66.34424 95.49841
#
# Poissons Ratio (x) = 0.74522 1.08469
# Poissons Ratio (y) = 0.12119 0.30306
# Poissons Ratio (z) = 0.12254 0.21054
#
# Static dielectric constant tensor:
#      x y z
#    x 1.562030 0.000000 0.000000 
#    y 0.000000 1.523760 0.000000 
#    z 0.000000 0.000000 1.577020 
# 
# From -- ./inp_files/59781.got.cif
#   From: 2010.05.17/outbox.cif.g08.bks.cpg/sg65_30_cif.got.tgz:59781.got - 2010.06.03 17:01:31.
