data_PCOD9485851
_publ_section_title
;
Structure prediction by ZEFSAII (Michael W. Deem and Ramdas Pophale) SiO2 
 PCOD9485851
Probable space group: C M M M
;
_chemical_formula_sum "Si O2"
_cell_formula_units_Z 88
_cell_length_a 19.391646
_cell_length_b 8.417614
_cell_length_c 29.355409
_cell_angle_alpha 90.000000
_cell_angle_beta 90.000000
_cell_angle_gamma 90.000000
_cell_volume 4791.724240
_symmetry_space_group_name_H-M "C M M M"
_symmetry_group_IT_number 65
_symmetry_cell_setting 'orthorhombic'
loop_
_space_group_symop_operation_xyz
x,y,z
-x,-y,z
x,-y,-z
-x,y,-z
-x,-y,-z
x,y,-z
-x,y,z
x,-y,z
1/2+x,1/2+y,z
1/2-x,1/2-y,z
1/2+x,1/2-y,-z
1/2-x,1/2+y,-z
1/2-x,1/2-y,-z
1/2+x,1/2+y,-z
1/2-x,1/2+y,z
1/2+x,1/2-y,z
loop_
_atom_site_type_symbol
_atom_site_label
_atom_site_fract_x
_atom_site_fract_y
_atom_site_fract_z
Si Si1 0.078606 0.809978 0.500000
Si Si2 0.670855 0.308140 0.048876
Si Si3 0.921039 0.307904 0.767800
Si Si4 0.673328 0.190355 0.580881
Si Si5 0.826634 0.308174 0.315165
Si Si6 0.828947 0.809083 0.148931
O O1 0.119068 0.752307 0.544541
O O2 0.000000 0.751374 0.500000
O O3 0.078242 0.000000 0.500000
O O4 0.670077 0.500000 0.048837
O O5 0.750000 0.250000 0.048523
O O6 0.644194 0.257309 0.098531
O O7 0.639874 0.255256 0.000000
O O8 0.921812 0.500000 0.767034
O O9 0.881850 0.253547 0.721995
O O10 0.876958 0.254299 0.811146
O O11 0.000000 0.252020 0.769725
O O12 0.750000 0.250000 0.569059
O O13 0.658599 0.243608 0.632905
O O14 0.673426 0.000000 0.579974
O O15 0.825992 0.500000 0.314988
O O16 0.750000 0.250000 0.302916
O O17 0.750000 0.750000 0.154231
O O18 0.827947 0.000000 0.150417
#
# Coordination Sequence:
#
# PCOD9485851 Si02
#       6
#     8  16  16  16  16  16
#     4  11  24  39  54  77 111 145 176 213 256 299
#     4   8  14  25  42  66  95 124 156 199 249 296
#     4  10  21  36  52  72 102 137 170 208 255 302
#     4  10  20  36  59  83 107 136 172 212 253 301
#     4   9  19  35  56  80 103 131 168 210 254 301
#     4  10  19  31  50  75 101 130 167 208 250 301
#
# _framework density 18.364996999999999
#
# number of rings (size 3 to 8) (size 9 to 14) (size 15 to 20)
#    0.000    2.455    0.000    2.182    0.000    5.455 
#    0.000    1.818    0.000    0.545    0.000    3.818 
#    0.000    0.000    0.000    0.000    0.000    0.000 
#
# Total GULP energy -245322.902745 kJ/mol
# GULP energy per Si atom -5575.520517 kJ/mol
# Density = 1.832320 g / cm^3
# Si number density = 18.364997 Si / 1000 Ang^3
#
#
#
# Elastic Constant Matrix: (Units=GPa)
#
#
# Indices 1 2 3 4 5 6 
#
# 1 128.6909 20.6300 117.1803 0.0000 0.0000 0.0000
# 2 20.6300 18.5644 23.7337 0.0000 0.0000 0.0000
# 3 117.1803 23.7337 167.2685 0.0000 0.0000 0.0000
# 4 0.0000 0.0000 0.0000 -8.2084 0.0000 0.0000
# 5 0.0000 0.0000 0.0000 0.0000 -5.4708 0.0000
# 6 0.0000 0.0000 0.0000 0.0000 0.0000 20.4663
#
#
#
# Elastic Compliance Matrix: (Units=1/GPa)
#
#
# Indices 1 2 3 4 5 6 
#
# 1 0.021956 -0.005784 -0.014561 0.000000 0.000000 0.000000
# 2 -0.005784 0.067327 -0.005501 0.000000 0.000000 0.000000
# 3 -0.014561 -0.005501 0.016959 0.000000 0.000000 0.000000
# 4 0.000000 0.000000 0.000000 -0.121827 0.000000 0.000000
# 5 0.000000 0.000000 0.000000 0.000000 -0.182789 0.000000
# 6 0.000000 0.000000 0.000000 0.000000 0.000000 0.048861
#
#
# Mechanical properties :
#
#
# Convention : Reuss Voigt Hill
#
# Bulk Modulus (GPa) = 18.33144 70.84574 44.58859
# Shear Modulus (GPa) = -62.78401 11.55610 -25.61396
#
# Velocity S-wave (km/s) = -5.85329 2.51120 -3.73864
# Velocity P-wave (km/s) = 5.97310 6.86064 2.38647
#
# Compressibility (1/GPa) = 0.05455108
#
# Stress axis : x y z
#
# Youngs Moduli (GPa) = 45.54538 14.85291 58.96406
#
# Poissons Ratio (x) = 0.08591 0.85856
# Poissons Ratio (y) = 0.26343 0.32436
# Poissons Ratio (z) = 0.66317 0.08171
#
# Static dielectric constant tensor:
#      x y z
#    x 1.735880 0.000000 0.000000 
#    y 0.000000 1.648160 0.000000 
#    z 0.000000 0.000000 1.674240 
# 
# From -- ./inp_files/77790.got.cif
#   From: 2010.05.17/outbox.cif.g08.bks.cpg/sg65_39_cif.got.tgz:77790.got - 2010.06.03 17:01:31.
