data_PCOD9485479
_publ_section_title
;
Structure prediction by ZEFSAII (Michael W. Deem and Ramdas Pophale) SiO2 
 PCOD9485479
Probable space group: C M M M
;
_chemical_formula_sum "Si O2"
_cell_formula_units_Z 100
_cell_length_a 16.191374
_cell_length_b 15.175478
_cell_length_c 20.209302
_cell_angle_alpha 90.000000
_cell_angle_beta 90.000000
_cell_angle_gamma 90.000000
_cell_volume 4965.664778
_symmetry_space_group_name_H-M "C M M M"
_symmetry_group_IT_number 65
_symmetry_cell_setting 'orthorhombic'
loop_
_space_group_symop_operation_xyz
x,y,z
-x,-y,z
x,-y,-z
-x,y,-z
-x,-y,-z
x,y,-z
-x,y,z
x,-y,z
1/2+x,1/2+y,z
1/2-x,1/2-y,z
1/2+x,1/2-y,-z
1/2-x,1/2+y,-z
1/2-x,1/2-y,-z
1/2+x,1/2+y,-z
1/2-x,1/2+y,z
1/2+x,1/2-y,z
loop_
_atom_site_type_symbol
_atom_site_label
_atom_site_fract_x
_atom_site_fract_y
_atom_site_fract_z
Si Si1 0.329969 0.900105 0.248438
Si Si2 0.500000 0.177406 0.000000
Si Si3 0.094302 0.763153 0.316596
Si Si4 0.399496 0.401738 0.576994
Si Si5 0.702788 0.341341 0.925360
Si Si6 0.137115 0.898880 0.793082
Si Si7 0.877761 0.402247 0.899584
O O1 0.354202 0.822891 0.297877
O O2 0.233464 0.895632 0.229392
O O3 0.378380 0.886022 0.178965
O O4 0.347454 0.000000 0.271319
O O5 0.571863 0.166916 0.942287
O O6 0.128991 0.822978 0.376277
O O7 0.093468 0.829511 0.254121
O O8 0.000000 0.737047 0.331822
O O9 0.377307 0.390963 0.500000
O O10 0.500000 0.401804 0.580508
O O11 0.372431 0.500000 0.599212
O O12 0.750000 0.250000 0.909317
O O13 0.638512 0.368184 0.869300
O O14 0.782093 0.404468 0.920629
O O15 0.670219 0.339918 0.000000
O O16 0.108565 0.000000 0.786620
O O17 0.911456 0.500000 0.913587
#
# Coordination Sequence:
#
# PCOD9485479 Si02
#       7
#    16   4  16  16  16  16  16
#     4   9  20  36  52  72 105 148 183 209 254 324
#     4  12  21  28  46  72  98 120 153 228 299 314
#     4  11  21  33  55  83 110 134 169 218 265 310
#     4   8  15  30  53  82 112 137 165 209 264 311
#     4  10  19  32  49  66  92 128 177 219 254 308
#     4  10  20  35  55  74  99 139 181 220 264 315
#     4  10  19  31  47  69  91 122 166 217 270 309
#
# _framework density 20.138290999999999
#
# number of rings (size 3 to 8) (size 9 to 14) (size 15 to 20)
#    0.000    2.240    0.800    5.520    1.120    2.240 
#    0.000    0.000    0.000    2.880    0.000    5.600 
#    0.000    0.000    0.000    0.000    0.000    0.000 
#
# Total GULP energy -278620.260786 kJ/mol
# GULP energy per Si atom -5572.405216 kJ/mol
# Density = 2.009246 g / cm^3
# Si number density = 20.138291 Si / 1000 Ang^3
#
#
#
# Elastic Constant Matrix: (Units=GPa)
#
#
# Indices 1 2 3 4 5 6 
#
# 1 26.1701 9.8896 6.2916 0.0000 0.0000 0.0000
# 2 9.8896 137.8767 57.4136 0.0000 0.0000 0.0000
# 3 6.2916 57.4136 82.8078 0.0000 0.0000 0.0000
# 4 0.0000 0.0000 0.0000 7.6072 0.0000 0.0000
# 5 0.0000 0.0000 0.0000 0.0000 19.8509 0.0000
# 6 0.0000 0.0000 0.0000 0.0000 0.0000 3.9947
#
#
#
# Elastic Compliance Matrix: (Units=1/GPa)
#
#
# Indices 1 2 3 4 5 6 
#
# 1 0.039400 -0.002221 -0.001454 0.000000 0.000000 0.000000
# 2 -0.002221 0.010322 -0.006988 0.000000 0.000000 0.000000
# 3 -0.001454 -0.006988 0.017032 0.000000 0.000000 0.000000
# 4 0.000000 0.000000 0.000000 0.131454 0.000000 0.000000
# 5 0.000000 0.000000 0.000000 0.000000 0.050375 0.000000
# 6 0.000000 0.000000 0.000000 0.000000 0.000000 0.250331
#
#
# Mechanical properties :
#
#
# Convention : Reuss Voigt Hill
#
# Bulk Modulus (GPa) = 22.01240 43.78268 32.89754
# Shear Modulus (GPa) = 9.33912 17.84122 13.59017
#
# Velocity S-wave (km/s) = 2.15582 2.97970 2.60059
# Velocity P-wave (km/s) = 4.14139 5.79882 5.03872
#
# Compressibility (1/GPa) = 0.04542894
#
# Stress axis : x y z
#
# Youngs Moduli (GPa) = 25.38054 96.88060 58.71452
#
# Poissons Ratio (x) = 0.21514 0.08536
# Poissons Ratio (y) = 0.05636 0.41029
# Poissons Ratio (z) = 0.03690 0.67699
#
# Static dielectric constant tensor:
#      x y z
#    x 1.734080 0.000000 0.000000 
#    y 0.000000 1.778340 0.000000 
#    z 0.000000 0.000000 1.720010 
# 
# From -- ./inp_files/63812.got.cif
#   From: 2010.05.17/outbox.cif.g08.bks.cpg/sg65_32_cif.got.tgz:63812.got - 2010.06.03 17:01:31.
