data_PCOD9485259
_publ_section_title
;
Structure prediction by ZEFSAII (Michael W. Deem and Ramdas Pophale) SiO2 
 PCOD9485259
Probable space group: C M M M
;
_chemical_formula_sum "Si O2"
_cell_formula_units_Z 88
_cell_length_a 18.698981
_cell_length_b 8.717918
_cell_length_c 29.662434
_cell_angle_alpha 90.000000
_cell_angle_beta 90.000000
_cell_angle_gamma 90.000000
_cell_volume 4835.456770
_symmetry_space_group_name_H-M "C M M M"
_symmetry_group_IT_number 65
_symmetry_cell_setting 'orthorhombic'
loop_
_space_group_symop_operation_xyz
x,y,z
-x,-y,z
x,-y,-z
-x,y,-z
-x,-y,-z
x,y,-z
-x,y,z
x,-y,z
1/2+x,1/2+y,z
1/2-x,1/2-y,z
1/2+x,1/2-y,-z
1/2-x,1/2+y,-z
1/2-x,1/2-y,-z
1/2+x,1/2+y,-z
1/2-x,1/2+y,z
1/2+x,1/2-y,z
loop_
_atom_site_type_symbol
_atom_site_label
_atom_site_fract_x
_atom_site_fract_y
_atom_site_fract_z
Si Si1 0.169184 0.314721 0.048466
Si Si2 0.670065 0.816369 0.146538
Si Si3 0.415164 0.684738 0.331636
Si Si4 0.416002 0.684377 0.500000
Si Si5 0.416340 0.684096 0.770297
Si Si6 0.829868 0.682853 0.415258
O O1 0.172156 0.500000 0.048379
O O2 0.250000 0.250000 0.048416
O O3 0.138294 0.269151 0.097286
O O4 0.136315 0.267156 0.000000
O O5 0.750000 0.750000 0.148880
O O6 0.626661 0.757652 0.189165
O O7 0.673366 0.000000 0.147745
O O8 0.500000 0.717632 0.337489
O O9 0.407202 0.500000 0.335881
O O10 0.394215 0.729240 0.280516
O O11 0.368117 0.766730 0.369026
O O12 0.410745 0.500000 0.500000
O O13 0.500000 0.725511 0.500000
O O14 0.376641 0.749785 0.543868
O O15 0.500000 0.722239 0.774697
O O16 0.409477 0.500000 0.772813
O O17 0.826875 0.500000 0.418695
O O18 0.750000 0.750000 0.417331
#
# Coordination Sequence:
#
# PCOD9485259 Si02
#       6
#    16  16  16   8  16  16
#     4   8  14  25  41  63  92 125 162 205 254 307
#     4  10  19  30  48  74 102 132 168 213 262 313
#     4   9  19  38  61  82 106 139 179 220 266 320
#     4  11  24  43  66  89 117 153 188 223 266 317
#     4   9  19  36  56  76 102 138 176 216 263 315
#     4  12  25  40  60  87 119 150 183 225 270 314
#
# _framework density 18.198900999999999
#
# number of rings (size 3 to 8) (size 9 to 14) (size 15 to 20)
#    0.000    2.273    0.000    4.364    0.000    5.818 
#    0.000    1.818    0.000    0.545    0.000    3.818 
#    0.000    0.000    0.000    0.000    0.000    0.000 
#
# Total GULP energy -245382.385248 kJ/mol
# GULP energy per Si atom -5576.872392 kJ/mol
# Density = 1.815748 g / cm^3
# Si number density = 18.198901 Si / 1000 Ang^3
#
#
#
# Elastic Constant Matrix: (Units=GPa)
#
#
# Indices 1 2 3 4 5 6 
#
# 1 85.7807 48.5808 99.0887 0.0000 0.0000 0.0000
# 2 48.5808 53.4265 65.3294 0.0000 0.0000 0.0000
# 3 99.0887 65.3294 222.0093 0.0000 0.0000 0.0000
# 4 0.0000 0.0000 0.0000 25.0775 0.0000 0.0000
# 5 0.0000 0.0000 0.0000 0.0000 35.7383 0.0000
# 6 0.0000 0.0000 0.0000 0.0000 0.0000 25.5088
#
#
#
# Elastic Compliance Matrix: (Units=1/GPa)
#
#
# Indices 1 2 3 4 5 6 
#
# 1 0.032760 -0.018603 -0.009147 0.000000 0.000000 0.000000
# 2 -0.018603 0.039802 -0.003409 0.000000 0.000000 0.000000
# 3 -0.009147 -0.003409 0.009590 0.000000 0.000000 0.000000
# 4 0.000000 0.000000 0.000000 0.039876 0.000000 0.000000
# 5 0.000000 0.000000 0.000000 0.000000 0.027981 0.000000
# 6 0.000000 0.000000 0.000000 0.000000 0.000000 0.039202
#
#
# Mechanical properties :
#
#
# Convention : Reuss Voigt Hill
#
# Bulk Modulus (GPa) = 50.42233 87.46825 68.94529
# Shear Modulus (GPa) = 19.36922 27.14611 23.25766
#
# Velocity S-wave (km/s) = 3.26591 3.86636 3.57875
# Velocity P-wave (km/s) = 6.47981 8.25217 7.41911
#
# Compressibility (1/GPa) = 0.01983248
#
# Stress axis : x y z
#
# Youngs Moduli (GPa) = 30.52536 25.12438 104.27347
#
# Poissons Ratio (x) = 0.46739 0.95381
# Poissons Ratio (y) = 0.56787 0.35549
# Poissons Ratio (z) = 0.27922 0.08565
#
# Static dielectric constant tensor:
#      x y z
#    x 1.595980 0.000000 0.000000 
#    y 0.000000 1.618250 0.000000 
#    z 0.000000 0.000000 1.661750 
# 
# From -- ./inp_files/77858.got.cif
#   From: 2010.05.17/outbox.cif.g08.bks.cpg/sg65_39_cif.got.tgz:77858.got - 2010.06.03 17:01:31.
