data_PCOD9485855
_publ_section_title
;
Structure prediction by ZEFSAII (Michael W. Deem and Ramdas Pophale) SiO2 
 PCOD9485855
Probable space group: C M M M
;
_chemical_formula_sum "Si O2"
_cell_formula_units_Z 88
_cell_length_a 18.830753
_cell_length_b 8.271307
_cell_length_c 29.958570
_cell_angle_alpha 90.000000
_cell_angle_beta 90.000000
_cell_angle_gamma 90.000000
_cell_volume 4666.195246
_symmetry_space_group_name_H-M "C M M M"
_symmetry_group_IT_number 65
_symmetry_cell_setting 'orthorhombic'
loop_
_space_group_symop_operation_xyz
x,y,z
-x,-y,z
x,-y,-z
-x,y,-z
-x,-y,-z
x,y,-z
-x,y,z
x,-y,z
1/2+x,1/2+y,z
1/2-x,1/2-y,z
1/2+x,1/2-y,-z
1/2-x,1/2+y,-z
1/2-x,1/2-y,-z
1/2+x,1/2+y,-z
1/2-x,1/2+y,z
1/2+x,1/2-y,z
loop_
_atom_site_type_symbol
_atom_site_label
_atom_site_fract_x
_atom_site_fract_y
_atom_site_fract_z
Si Si1 0.081988 0.302399 0.500000
Si Si2 0.418855 0.307175 0.769964
Si Si3 0.581905 0.194673 0.673451
Si Si4 0.832329 0.695425 0.952032
Si Si5 0.831508 0.693695 0.145026
Si Si6 0.331134 0.195573 0.587398
O O1 0.081323 0.500000 0.500000
O O2 0.123968 0.250459 0.544272
O O3 0.000000 0.249908 0.500000
O O4 0.500000 0.246301 0.774360
O O5 0.420084 0.500000 0.767882
O O6 0.391239 0.244229 0.722343
O O7 0.374481 0.255586 0.812741
O O8 0.500000 0.252364 0.668818
O O9 0.630449 0.252569 0.632743
O O10 0.580177 0.000000 0.671551
O O11 0.834538 0.500000 0.952119
O O12 0.750000 0.750000 0.952090
O O13 0.860850 0.749553 0.903703
O O14 0.863162 0.750826 0.000000
O O15 0.832838 0.500000 0.145523
O O16 0.750000 0.750000 0.148169
O O17 0.250000 0.250000 0.584855
O O18 0.332331 0.000000 0.587584
#
# Coordination Sequence:
#
# PCOD9485855 Si02
#       6
#     8  16  16  16  16  16
#     4   9  17  32  55  79 102 133 174 210 238 279
#     4  10  21  36  53  73  99 132 169 210 255 302
#     4   9  18  34  54  73  94 126 170 210 244 291
#     4   8  14  25  42  66  95 125 158 197 242 292
#     4  10  19  31  50  75 102 131 164 205 251 299
#     4  10  20  33  52  78 106 134 163 202 250 295
#
# _framework density 18.859048999999999
#
# number of rings (size 3 to 8) (size 9 to 14) (size 15 to 20)
#    0.000    2.636    0.000    1.909    0.000    5.455 
#    0.000    1.818    0.000    2.727    0.000    3.818 
#    0.000    0.000    0.000    0.000    0.000    0.000 
#
# Total GULP energy -245248.428132 kJ/mol
# GULP energy per Si atom -5573.827912 kJ/mol
# Density = 1.881612 g / cm^3
# Si number density = 18.859049 Si / 1000 Ang^3
#
#
#
# Elastic Constant Matrix: (Units=GPa)
#
#
# Indices 1 2 3 4 5 6 
#
# 1 84.3573 7.8810 96.4487 0.0000 0.0000 0.0000
# 2 7.8810 12.4600 19.8439 0.0000 0.0000 0.0000
# 3 96.4487 19.8439 243.3517 0.0000 0.0000 0.0000
# 4 0.0000 0.0000 0.0000 10.9511 0.0000 0.0000
# 5 0.0000 0.0000 0.0000 0.0000 99.1987 0.0000
# 6 0.0000 0.0000 0.0000 0.0000 0.0000 22.5422
#
#
#
# Elastic Compliance Matrix: (Units=1/GPa)
#
#
# Indices 1 2 3 4 5 6 
#
# 1 0.021677 -0.000032 -0.008589 0.000000 0.000000 0.000000
# 2 -0.000032 0.092235 -0.007508 0.000000 0.000000 0.000000
# 3 -0.008589 -0.007508 0.008126 0.000000 0.000000 0.000000
# 4 0.000000 0.000000 0.000000 0.091315 0.000000 0.000000
# 5 0.000000 0.000000 0.000000 0.000000 0.010081 0.000000
# 6 0.000000 0.000000 0.000000 0.000000 0.000000 0.044361
#
#
# Mechanical properties :
#
#
# Convention : Reuss Voigt Hill
#
# Bulk Modulus (GPa) = 11.13850 65.39071 38.26460
# Shear Modulus (GPa) = 15.15244 40.93811 28.04528
#
# Velocity S-wave (km/s) = 2.83761 4.66418 3.86048
# Velocity P-wave (km/s) = 4.08106 7.98465 6.34073
#
# Compressibility (1/GPa) = 0.08977871
#
# Stress axis : x y z
#
# Youngs Moduli (GPa) = 46.13132 10.84187 123.06803
#
# Poissons Ratio (x) = 0.00035 1.05701
# Poissons Ratio (y) = 0.00149 0.92404
# Poissons Ratio (z) = 0.39621 0.08141
#
# Static dielectric constant tensor:
#      x y z
#    x 1.620480 0.000000 0.000000 
#    y 0.000000 1.657150 0.000000 
#    z 0.000000 0.000000 1.689040 
# 
# From -- ./inp_files/76701.got.cif
#   From: 2010.05.17/outbox.cif.g08.bks.cpg/sg65_39_cif.got.tgz:76701.got - 2010.06.03 17:01:31.
