data_PCOD9485667
_publ_section_title
;
Structure prediction by ZEFSAII (Michael W. Deem and Ramdas Pophale) SiO2 
 PCOD9485667
Probable space group: C M M M
;
_chemical_formula_sum "Si O2"
_cell_formula_units_Z 104
_cell_length_a 18.980888
_cell_length_b 7.628374
_cell_length_c 34.603318
_cell_angle_alpha 90.000000
_cell_angle_beta 90.000000
_cell_angle_gamma 90.000000
_cell_volume 5010.329037
_symmetry_space_group_name_H-M "C M M M"
_symmetry_group_IT_number 65
_symmetry_cell_setting 'orthorhombic'
loop_
_space_group_symop_operation_xyz
x,y,z
-x,-y,z
x,-y,-z
-x,y,-z
-x,-y,-z
x,y,-z
-x,y,z
x,-y,z
1/2+x,1/2+y,z
1/2-x,1/2-y,z
1/2+x,1/2-y,-z
1/2-x,1/2+y,-z
1/2-x,1/2-y,-z
1/2+x,1/2+y,-z
1/2-x,1/2+y,z
1/2+x,1/2-y,z
loop_
_atom_site_type_symbol
_atom_site_label
_atom_site_fract_x
_atom_site_fract_y
_atom_site_fract_z
Si Si1 0.668346 0.210502 0.351326
Si Si2 0.167826 0.792047 0.883364
Si Si3 0.579161 0.209003 0.192565
Si Si4 0.331569 0.789070 0.264518
Si Si5 0.081457 0.213940 0.043427
Si Si6 0.418689 0.214866 0.424985
Si Si7 0.832708 0.710337 0.500000
O O1 0.750000 0.250000 0.360302
O O2 0.653317 0.277345 0.307938
O O3 0.617581 0.274569 0.385195
O O4 0.661292 0.000000 0.350138
O O5 0.250000 0.750000 0.880980
O O6 0.125819 0.735314 0.845401
O O7 0.131469 0.721254 0.922408
O O8 0.161146 0.000000 0.885068
O O9 0.500000 0.279175 0.187779
O O10 0.618551 0.279558 0.230611
O O11 0.573799 0.000000 0.197895
O O12 0.250000 0.750000 0.255654
O O13 0.338510 0.000000 0.265651
O O14 0.000000 0.264039 0.050517
O O15 0.083010 0.000000 0.043279
O O16 0.101276 0.270482 0.000000
O O17 0.500000 0.268397 0.428161
O O18 0.372384 0.273861 0.461512
O O19 0.417922 0.000000 0.424893
O O20 0.839516 0.500000 0.500000
O O21 0.750000 0.750000 0.500000
#
# Coordination Sequence:
#
# PCOD9485667 Si02
#       7
#    16  16  16  16  16  16   8
#     4   9  17  30  49  71  95 125 161 199 238 284
#     4  11  22  35  53  77 104 135 171 208 247 293
#     4  10  21  36  53  74 101 131 164 206 254 300
#     4   9  18  32  50  72  97 127 162 200 243 290
#     4   8  15  30  52  76 101 130 165 204 245 290
#     4   9  17  29  47  71  96 123 158 199 239 281
#     4  10  19  31  49  71  95 124 158 196 238 286
#
# _framework density 20.75712
#
# number of rings (size 3 to 8) (size 9 to 14) (size 15 to 20)
#    0.000    2.615    0.000    2.538    0.000    4.615 
#    0.000    3.077    0.000    3.692    0.000    9.692 
#    0.000    0.000    0.000    0.000    0.000    0.000 
#
# Total GULP energy -290326.586273 kJ/mol
# GULP energy per Si atom -5583.203582 kJ/mol
# Density = 2.070988 g / cm^3
# Si number density = 20.757120 Si / 1000 Ang^3
#
#
#
# Elastic Constant Matrix: (Units=GPa)
#
#
# Indices 1 2 3 4 5 6 
#
# 1 192.9914 -0.1154 155.3480 0.0000 0.0000 0.0000
# 2 -0.1154 42.0154 6.0130 0.0000 0.0000 0.0000
# 3 155.3480 6.0130 201.2583 0.0000 0.0000 0.0000
# 4 0.0000 0.0000 0.0000 7.0236 0.0000 0.0000
# 5 0.0000 0.0000 0.0000 0.0000 -82.6639 0.0000
# 6 0.0000 0.0000 0.0000 0.0000 0.0000 12.0231
#
#
#
# Elastic Compliance Matrix: (Units=1/GPa)
#
#
# Indices 1 2 3 4 5 6 
#
# 1 0.013785 0.001567 -0.010688 0.000000 0.000000 0.000000
# 2 0.001567 0.024081 -0.001929 0.000000 0.000000 0.000000
# 3 -0.010688 -0.001929 0.013276 0.000000 0.000000 0.000000
# 4 0.000000 0.000000 0.000000 0.142376 0.000000 0.000000
# 5 0.000000 0.000000 0.000000 0.000000 -0.012097 0.000000
# 6 0.000000 0.000000 0.000000 0.000000 0.000000 0.083173
#
#
# Mechanical properties :
#
#
# Convention : Reuss Voigt Hill
#
# Bulk Modulus (GPa) = 34.43099 84.30625 59.36862
# Shear Modulus (GPa) = 16.87049 5.61119 11.24084
#
# Velocity S-wave (km/s) = 2.85398 1.64594 2.32963
# Velocity P-wave (km/s) = 5.24250 6.65702 5.99165
#
# Compressibility (1/GPa) = 0.02904361
#
# Stress axis : x y z
#
# Youngs Moduli (GPa) = 72.54003 41.52612 75.32396
#
# Poissons Ratio (x) = -0.06509 0.80503
# Poissons Ratio (y) = -0.11370 0.14533
# Poissons Ratio (z) = 0.77528 0.08012
#
# Static dielectric constant tensor:
#      x y z
#    x 1.690060 0.000000 0.000000 
#    y 0.000000 1.796400 0.000000 
#    z 0.000000 0.000000 1.744710 
# 
# From -- ./inp_files/78215.got.cif
#   From: 2010.05.17/outbox.cif.g08.bks.cpg/sg65_40_cif.got.tgz:78215.got - 2010.06.03 17:01:31.
