data_PCOD9485318
_publ_section_title
;
Structure prediction by ZEFSAII (Michael W. Deem and Ramdas Pophale) SiO2 
 PCOD9485318
Probable space group: C M M M
;
_chemical_formula_sum "Si O2"
_cell_formula_units_Z 104
_cell_length_a 20.002429
_cell_length_b 15.903417
_cell_length_c 18.010894
_cell_angle_alpha 90.000000
_cell_angle_beta 90.000000
_cell_angle_gamma 90.000000
_cell_volume 5729.390907
_symmetry_space_group_name_H-M "C M M M"
_symmetry_group_IT_number 65
_symmetry_cell_setting 'orthorhombic'
loop_
_space_group_symop_operation_xyz
x,y,z
-x,-y,z
x,-y,-z
-x,y,-z
-x,-y,-z
x,y,-z
-x,y,z
x,-y,z
1/2+x,1/2+y,z
1/2-x,1/2-y,z
1/2+x,1/2-y,-z
1/2-x,1/2+y,-z
1/2-x,1/2-y,-z
1/2+x,1/2+y,-z
1/2-x,1/2+y,z
1/2+x,1/2-y,z
loop_
_atom_site_type_symbol
_atom_site_label
_atom_site_fract_x
_atom_site_fract_y
_atom_site_fract_z
Si Si1 0.423984 0.399738 0.000000
Si Si2 0.313732 0.163591 0.086885
Si Si3 0.171680 0.851617 0.864626
Si Si4 0.839968 0.598460 0.321706
Si Si5 0.679670 0.403152 0.698626
Si Si6 0.330917 0.742732 0.584010
Si Si7 0.925998 0.599485 0.178231
O O1 0.382427 0.374369 0.073155
O O2 0.427735 0.500000 0.000000
O O3 0.500000 0.365618 0.000000
O O4 0.246032 0.117035 0.112106
O O5 0.320780 0.251048 0.131019
O O6 0.381014 0.115792 0.106571
O O7 0.307935 0.182146 0.000000
O O8 0.156366 0.882799 0.782223
O O9 0.853312 0.500000 0.340393
O O10 0.760983 0.603882 0.302117
O O11 0.854347 0.666983 0.384964
O O12 0.883167 0.624709 0.250251
O O13 0.663347 0.500000 0.679330
O O14 0.653779 0.333614 0.640421
O O15 0.353948 0.726831 0.500000
O O16 0.250000 0.750000 0.582225
O O17 0.932638 0.500000 0.185571
O O18 0.000000 0.637766 0.175197
#
# Coordination Sequence:
#
# PCOD9485318 Si02
#       7
#     8  16  16  16  16  16  16
#     4  11  24  39  54  76 108 141 176 229 284 326
#     4  11  21  35  55  79 101 142 187 228 284 333
#     4  11  20  37  56  77 106 138 186 236 276 329
#     4   9  17  31  51  77 106 143 186 220 264 328
#     4  10  19  30  53  80 103 142 186 223 272 335
#     4   9  18  31  49  77 112 142 171 224 280 322
#     4  10  21  35  51  76 111 146 183 230 274 320
#
# _framework density 18.152016
#
# number of rings (size 3 to 8) (size 9 to 14) (size 15 to 20)
#    0.000    1.923    3.077    1.846    4.308    2.462 
#    0.000    3.846    0.000    0.462    0.000    2.154 
#    0.000    0.000    0.000    6.615    0.000    2.000 
#
# Total GULP energy -289864.313742 kJ/mol
# GULP energy per Si atom -5574.313726 kJ/mol
# Density = 1.811070 g / cm^3
# Si number density = 18.152016 Si / 1000 Ang^3
#
#
#
# Elastic Constant Matrix: (Units=GPa)
#
#
# Indices 1 2 3 4 5 6 
#
# 1 71.5172 24.4222 34.7178 0.0000 0.0000 0.0000
# 2 24.4222 76.7537 64.8638 0.0000 0.0000 0.0000
# 3 34.7178 64.8638 130.3487 0.0000 0.0000 0.0000
# 4 0.0000 0.0000 0.0000 17.4746 0.0000 0.0000
# 5 0.0000 0.0000 0.0000 0.0000 12.3226 0.0000
# 6 0.0000 0.0000 0.0000 0.0000 0.0000 14.1156
#
#
#
# Elastic Compliance Matrix: (Units=1/GPa)
#
#
# Indices 1 2 3 4 5 6 
#
# 1 0.016361 -0.002629 -0.003050 0.000000 0.000000 0.000000
# 2 -0.002629 0.022906 -0.010698 0.000000 0.000000 0.000000
# 3 -0.003050 -0.010698 0.013808 0.000000 0.000000 0.000000
# 4 0.000000 0.000000 0.000000 0.057226 0.000000 0.000000
# 5 0.000000 0.000000 0.000000 0.000000 0.081152 0.000000
# 6 0.000000 0.000000 0.000000 0.000000 0.000000 0.070843
#
#
# Mechanical properties :
#
#
# Convention : Reuss Voigt Hill
#
# Bulk Modulus (GPa) = 49.20923 58.51413 53.86168
# Shear Modulus (GPa) = 16.56599 19.09026 17.82813
#
# Velocity S-wave (km/s) = 3.02425 3.24649 3.13734
# Velocity P-wave (km/s) = 6.27400 6.80871 6.54682
#
# Compressibility (1/GPa) = 0.02032139
#
# Stress axis : x y z
#
# Youngs Moduli (GPa) = 61.12209 43.65620 72.42339
#
# Poissons Ratio (x) = 0.11476 0.22086
# Poissons Ratio (y) = 0.16067 0.77482
# Poissons Ratio (z) = 0.18639 0.46705
#
# Static dielectric constant tensor:
#      x y z
#    x 1.659500 0.000000 0.000000 
#    y 0.000000 1.658090 0.000000 
#    z 0.000000 0.000000 1.620520 
# 
# From -- ./inp_files/55844.got.cif
#   From: 2010.05.17/outbox.cif.g08.bks.cpg/sg65_28_cif.got.tgz:55844.got - 2010.06.03 17:01:31.
