data_PCOD9485173
_publ_section_title
;
Structure prediction by ZEFSAII (Michael W. Deem and Ramdas Pophale) SiO2 
 PCOD9485173
Probable space group: C M M M
;
_chemical_formula_sum "Si O2"
_cell_formula_units_Z 96
_cell_length_a 19.297326
_cell_length_b 8.859561
_cell_length_c 32.539285
_cell_angle_alpha 90.000000
_cell_angle_beta 90.000000
_cell_angle_gamma 90.000000
_cell_volume 5563.106090
_symmetry_space_group_name_H-M "C M M M"
_symmetry_group_IT_number 65
_symmetry_cell_setting 'orthorhombic'
loop_
_space_group_symop_operation_xyz
x,y,z
-x,-y,z
x,-y,-z
-x,y,-z
-x,-y,-z
x,y,-z
-x,y,z
x,-y,z
1/2+x,1/2+y,z
1/2-x,1/2-y,z
1/2+x,1/2-y,-z
1/2-x,1/2+y,-z
1/2-x,1/2-y,-z
1/2+x,1/2+y,-z
1/2-x,1/2+y,z
1/2+x,1/2-y,z
loop_
_atom_site_type_symbol
_atom_site_label
_atom_site_fract_x
_atom_site_fract_y
_atom_site_fract_z
Si Si1 0.173705 0.182176 0.046060
Si Si2 0.580453 0.681450 0.706802
Si Si3 0.080567 0.818130 0.122421
Si Si4 0.584143 0.824838 0.207702
Si Si5 0.327155 0.318421 0.628592
Si Si6 0.172409 0.680975 0.545053
O O1 0.250000 0.250000 0.051233
O O2 0.124219 0.232025 0.082983
O O3 0.177953 0.000000 0.047555
O O4 0.148819 0.223326 0.000000
O O5 0.500000 0.727932 0.700966
O O6 0.581454 0.500000 0.710095
O O7 0.606930 0.748984 0.749779
O O8 0.626634 0.724337 0.667779
O O9 0.107586 0.753502 0.165620
O O10 0.000000 0.773453 0.117657
O O11 0.082731 0.000000 0.124532
O O12 0.500000 0.812148 0.207675
O O13 0.602721 0.000000 0.207341
O O14 0.322655 0.500000 0.626029
O O15 0.250000 0.250000 0.633042
O O16 0.358672 0.254075 0.586022
O O17 0.140654 0.713736 0.500000
O O18 0.176506 0.500000 0.549547
O O19 0.250000 0.750000 0.543757
#
# Coordination Sequence:
#
# PCOD9485173 Si02
#       6
#    16  16  16  16  16  16
#     4   9  18  32  49  69  94 125 158 189 225 272
#     4   9  18  33  51  69  91 122 158 190 224 272
#     4   9  17  30  49  71  94 120 151 190 232 270
#     4   9  17  29  47  71  95 119 150 189 231 273
#     4  10  19  30  47  70  95 121 149 188 233 273
#     4   9  16  26  42  64  90 120 153 188 226 270
#
# _framework density 17.256547000000001
#
# number of rings (size 3 to 8) (size 9 to 14) (size 15 to 20)
#    0.000    2.833    0.000    2.500    0.000    5.333 
#    0.000    2.500    0.000    0.500    0.000    8.167 
#    0.000    0.000    0.000    0.000    0.000    0.000 
#
# Total GULP energy -267349.901914 kJ/mol
# GULP energy per Si atom -5569.789623 kJ/mol
# Density = 1.721727 g / cm^3
# Si number density = 17.256547 Si / 1000 Ang^3
#
#
#
# Elastic Constant Matrix: (Units=GPa)
#
#
# Indices 1 2 3 4 5 6 
#
# 1 36.0482 19.3763 66.6824 0.0000 0.0000 0.0000
# 2 19.3763 35.2614 55.4124 0.0000 0.0000 0.0000
# 3 66.6824 55.4124 224.2610 0.0000 0.0000 0.0000
# 4 0.0000 0.0000 0.0000 25.3430 0.0000 0.0000
# 5 0.0000 0.0000 0.0000 0.0000 30.3693 0.0000
# 6 0.0000 0.0000 0.0000 0.0000 0.0000 15.7936
#
#
#
# Elastic Compliance Matrix: (Units=1/GPa)
#
#
# Indices 1 2 3 4 5 6 
#
# 1 0.063168 -0.008492 -0.016684 0.000000 0.000000 0.000000
# 2 -0.008492 0.047503 -0.009212 0.000000 0.000000 0.000000
# 3 -0.016684 -0.009212 0.011696 0.000000 0.000000 0.000000
# 4 0.000000 0.000000 0.000000 0.039459 0.000000 0.000000
# 5 0.000000 0.000000 0.000000 0.000000 0.032928 0.000000
# 6 0.000000 0.000000 0.000000 0.000000 0.000000 0.063317
#
#
# Mechanical properties :
#
#
# Convention : Reuss Voigt Hill
#
# Bulk Modulus (GPa) = 18.66024 64.27919 41.46971
# Shear Modulus (GPa) = 14.50486 24.57448 19.53967
#
# Velocity S-wave (km/s) = 2.90236 3.77778 3.36862
# Velocity P-wave (km/s) = 4.69771 7.50725 6.26208
#
# Compressibility (1/GPa) = 0.05358988
#
# Stress axis : x y z
#
# Youngs Moduli (GPa) = 15.83077 21.05121 85.49692
#
# Poissons Ratio (x) = 0.17877 1.42645
# Poissons Ratio (y) = 0.13444 0.78763
# Poissons Ratio (z) = 0.26412 0.19393
#
# Static dielectric constant tensor:
#      x y z
#    x 1.567460 0.000000 0.000000 
#    y 0.000000 1.582210 0.000000 
#    z 0.000000 0.000000 1.616270 
# 
# From -- ./inp_files/75669.got.cif
#   From: 2010.05.17/outbox.cif.g08.bks.cpg/sg65_38_cif.got.tgz:75669.got - 2010.06.03 17:01:31.
