data_PCOD9485155
_publ_section_title
;
Structure prediction by ZEFSAII (Michael W. Deem and Ramdas Pophale) SiO2 
 PCOD9485155
Probable space group: C M M M
;
_chemical_formula_sum "Si O2"
_cell_formula_units_Z 96
_cell_length_a 14.610587
_cell_length_b 9.179229
_cell_length_c 33.233279
_cell_angle_alpha 90.000000
_cell_angle_beta 90.000000
_cell_angle_gamma 90.000000
_cell_volume 4457.045451
_symmetry_space_group_name_H-M "C M M M"
_symmetry_group_IT_number 65
_symmetry_cell_setting 'orthorhombic'
loop_
_space_group_symop_operation_xyz
x,y,z
-x,-y,z
x,-y,-z
-x,y,-z
-x,-y,-z
x,y,-z
-x,y,z
x,-y,z
1/2+x,1/2+y,z
1/2-x,1/2-y,z
1/2+x,1/2-y,-z
1/2-x,1/2+y,-z
1/2-x,1/2-y,-z
1/2+x,1/2+y,-z
1/2-x,1/2+y,z
1/2+x,1/2-y,z
loop_
_atom_site_type_symbol
_atom_site_label
_atom_site_fract_x
_atom_site_fract_y
_atom_site_fract_z
Si Si1 0.888188 0.831263 0.630129
Si Si2 0.850446 0.325370 0.044528
Si Si3 0.889817 0.174969 0.456827
Si Si4 0.607538 0.661363 0.786960
Si Si5 0.612264 0.164225 0.710069
Si Si6 0.849460 0.175997 0.877459
O O1 0.858299 0.768139 0.586665
O O2 0.859058 0.748780 0.670065
O O3 0.000000 0.829302 0.629824
O O4 0.860713 0.000000 0.632676
O O5 0.842460 0.500000 0.050789
O O6 0.750000 0.250000 0.042286
O O7 0.894945 0.248840 0.083277
O O8 0.891902 0.303361 0.000000
O O9 0.855831 0.233321 0.500000
O O10 0.000000 0.193486 0.457305
O O11 0.874086 0.000000 0.456379
O O12 0.500000 0.647391 0.778332
O O13 0.649969 0.500000 0.784917
O O14 0.643156 0.763388 0.751764
O O15 0.612848 0.710758 0.833199
O O16 0.500000 0.162688 0.709969
O O17 0.644689 0.000000 0.708064
O O18 0.750000 0.250000 0.876421
O O19 0.847643 0.000000 0.881969
#
# Coordination Sequence:
#
# PCOD9485155 Si02
#       6
#    16  16  16  16  16  16
#     4   8  12  18  29  43  60  85 117 155 197 238
#     4   9  16  26  42  64  89 115 142 172 204 240
#     4   7   9  13  22  37  55  76 108 150 191 230
#     4   9  18  32  47  62  82 110 144 177 208 245
#     4   9  16  24  35  52  72  95 126 165 206 244
#     4  10  19  30  47  69  91 114 139 172 211 249
#
# _framework density 21.538931999999999
#
# number of rings (size 3 to 8) (size 9 to 14) (size 15 to 20)
#    0.000    3.333    0.000    4.000    0.000    4.333 
#    0.000    0.000    0.000    1.000    0.000    7.000 
#    0.000    0.000    0.000    0.000    0.000    0.833 
#
# Total GULP energy -267314.331582 kJ/mol
# GULP energy per Si atom -5569.048575 kJ/mol
# Density = 2.148991 g / cm^3
# Si number density = 21.538932 Si / 1000 Ang^3
#
#
#
# Elastic Constant Matrix: (Units=GPa)
#
#
# Indices 1 2 3 4 5 6 
#
# 1 51.8106 8.6418 4.4871 0.0000 0.0000 0.0000
# 2 8.6418 93.3133 113.1785 0.0000 0.0000 0.0000
# 3 4.4871 113.1785 273.1013 0.0000 0.0000 0.0000
# 4 0.0000 0.0000 0.0000 -86.9991 0.0000 0.0000
# 5 0.0000 0.0000 0.0000 0.0000 11.0748 0.0000
# 6 0.0000 0.0000 0.0000 0.0000 0.0000 -1.1825
#
#
#
# Elastic Compliance Matrix: (Units=1/GPa)
#
#
# Indices 1 2 3 4 5 6 
#
# 1 0.019706 -0.002880 0.000870 0.000000 0.000000 0.000000
# 2 -0.002880 0.021968 -0.009057 0.000000 0.000000 0.000000
# 3 0.000870 -0.009057 0.007401 0.000000 0.000000 0.000000
# 4 0.000000 0.000000 0.000000 -0.011494 0.000000 0.000000
# 5 0.000000 0.000000 0.000000 0.000000 0.090295 0.000000
# 6 0.000000 0.000000 0.000000 0.000000 0.000000 -0.845695
#
#
# Mechanical properties :
#
#
# Convention : Reuss Voigt Hill
#
# Bulk Modulus (GPa) = 37.11801 74.53777 55.82789
# Shear Modulus (GPa) = -7.28114 4.03982 -1.62066
#
# Velocity S-wave (km/s) = -1.84060 1.37101 -0.86837
# Velocity P-wave (km/s) = 3.57118 6.09815 4.99704
#
# Compressibility (1/GPa) = 0.02694110
#
# Stress axis : x y z
#
# Youngs Moduli (GPa) = 50.74573 45.52083 135.12414
#
# Poissons Ratio (x) = 0.13109 -0.11751
# Poissons Ratio (y) = 0.14614 1.22377
# Poissons Ratio (z) = -0.04413 0.41227
#
# Static dielectric constant tensor:
#      x y z
#    x 1.971400 0.000000 0.000000 
#    y 0.000000 1.739740 0.000000 
#    z 0.000000 0.000000 1.856980 
# 
# From -- ./inp_files/75702.got.cif
#   From: 2010.05.17/outbox.cif.g08.bks.cpg/sg65_38_cif.got.tgz:75702.got - 2010.06.03 17:01:31.
