data_PCOD9485630
_publ_section_title
;
Structure prediction by ZEFSAII (Michael W. Deem and Ramdas Pophale) SiO2 
 PCOD9485630
Probable space group: C M M M
;
_chemical_formula_sum "Si O2"
_cell_formula_units_Z 80
_cell_length_a 7.380874
_cell_length_b 18.488748
_cell_length_c 27.570710
_cell_angle_alpha 90.000000
_cell_angle_beta 90.000000
_cell_angle_gamma 90.000000
_cell_volume 3762.385091
_symmetry_space_group_name_H-M "C M M M"
_symmetry_group_IT_number 65
_symmetry_cell_setting 'orthorhombic'
loop_
_space_group_symop_operation_xyz
x,y,z
-x,-y,z
x,-y,-z
-x,y,-z
-x,-y,-z
x,y,-z
-x,y,z
x,-y,z
1/2+x,1/2+y,z
1/2-x,1/2-y,z
1/2+x,1/2-y,-z
1/2-x,1/2+y,-z
1/2-x,1/2-y,-z
1/2+x,1/2+y,-z
1/2-x,1/2+y,z
1/2+x,1/2-y,z
loop_
_atom_site_type_symbol
_atom_site_label
_atom_site_fract_x
_atom_site_fract_y
_atom_site_fract_z
Si Si1 0.221639 0.916470 0.500000
Si Si2 0.221645 0.916358 0.096545
Si Si3 0.283257 0.664190 0.403758
Si Si4 0.216163 0.835230 0.000000
Si Si5 0.216814 0.164108 0.192934
Si Si6 0.716279 0.663631 0.701565
O O1 0.284669 0.876773 0.451158
O O2 0.000000 0.913372 0.500000
O O3 0.273458 0.000000 0.500000
O O4 0.283704 0.872895 0.049092
O O5 0.284234 0.878585 0.146145
O O6 0.000000 0.914349 0.096836
O O7 0.274604 0.000000 0.094112
O O8 0.500000 0.654318 0.402702
O O9 0.250000 0.750000 0.408302
O O10 0.213834 0.638308 0.350904
O O11 0.250000 0.750000 0.000000
O O12 0.000000 0.845786 0.000000
O O13 0.250000 0.250000 0.187705
O O14 0.286266 0.138794 0.245894
O O15 0.000000 0.154726 0.194077
O O16 0.500000 0.651531 0.701584
O O17 0.750000 0.750000 0.701489
#
# Coordination Sequence:
#
# PCOD9485630 Si02
#       6
#     8  16  16   8  16  16
#     4   9  17  28  41  59  84 111 136 166 208 253
#     4   9  17  29  45  65  88 114 143 173 206 246
#     4   9  16  27  44  63  82 106 138 173 206 244
#     4  10  19  31  49  69  87 110 142 178 212 248
#     4   9  16  27  44  64  86 111 139 172 207 244
#     4   8  14  24  39  61  84 105 133 169 207 242
#
# _framework density 21.263107999999999
#
# number of rings (size 3 to 8) (size 9 to 14) (size 15 to 20)
#    0.000    3.100    0.000    1.200    0.000    1.200 
#    0.000    1.000    0.000   10.200    0.000    0.000 
#    0.000   16.000    0.000    0.000    0.000    0.000 
#
# Total GULP energy -223069.671346 kJ/mol
# GULP energy per Si atom -5576.741784 kJ/mol
# Density = 2.121471 g / cm^3
# Si number density = 21.263108 Si / 1000 Ang^3
#
#
#
# Elastic Constant Matrix: (Units=GPa)
#
#
# Indices 1 2 3 4 5 6 
#
# 1 78.9585 -3.4069 14.3963 0.0000 0.0000 0.0000
# 2 -3.4069 110.1413 123.3448 0.0000 0.0000 0.0000
# 3 14.3963 123.3448 308.4450 0.0000 0.0000 0.0000
# 4 0.0000 0.0000 0.0000 -14.8417 0.0000 0.0000
# 5 0.0000 0.0000 0.0000 0.0000 -49.8805 0.0000
# 6 0.0000 0.0000 0.0000 0.0000 0.0000 13.0271
#
#
#
# Elastic Compliance Matrix: (Units=1/GPa)
#
#
# Indices 1 2 3 4 5 6 
#
# 1 0.013003 0.001959 -0.001390 0.000000 0.000000 0.000000
# 2 0.001959 0.016738 -0.006785 0.000000 0.000000 0.000000
# 3 -0.001390 -0.006785 0.006020 0.000000 0.000000 0.000000
# 4 0.000000 0.000000 0.000000 -0.067378 0.000000 0.000000
# 5 0.000000 0.000000 0.000000 0.000000 -0.020048 0.000000
# 6 0.000000 0.000000 0.000000 0.000000 0.000000 0.076763
#
#
# Mechanical properties :
#
#
# Convention : Reuss Voigt Hill
#
# Bulk Modulus (GPa) = 42.86473 85.13481 63.99977
# Shear Modulus (GPa) = 110.35850 13.87503 62.11676
#
# Velocity S-wave (km/s) = 7.21208 2.55726 5.41081
# Velocity P-wave (km/s) = 9.46335 6.98893 8.31866
#
# Compressibility (1/GPa) = 0.02332920
#
# Stress axis : x y z
#
# Youngs Moduli (GPa) = 76.90580 59.74399 166.10785
#
# Poissons Ratio (x) = -0.11706 0.23096
# Poissons Ratio (y) = -0.15068 1.12702
# Poissons Ratio (z) = 0.10693 0.40536
#
# Static dielectric constant tensor:
#      x y z
#    x 1.799150 0.000000 0.000000 
#    y 0.000000 1.689710 0.000000 
#    z 0.000000 0.000000 1.809940 
# 
# From -- ./inp_files/72877.got.cif
#   From: 2010.05.17/outbox.cif.g08.bks.cpg/sg65_37_cif.got.tgz:72877.got - 2010.06.03 17:01:31.
