data_PCOD9485437
_publ_section_title
;
Structure prediction by ZEFSAII (Michael W. Deem and Ramdas Pophale) SiO2 
 PCOD9485437
Probable space group: C M M M
;
_chemical_formula_sum "Si O2"
_cell_formula_units_Z 80
_cell_length_a 25.604316
_cell_length_b 21.815985
_cell_length_c 7.498426
_cell_angle_alpha 90.000000
_cell_angle_beta 90.000000
_cell_angle_gamma 90.000000
_cell_volume 4188.496093
_symmetry_space_group_name_H-M "C M M M"
_symmetry_group_IT_number 65
_symmetry_cell_setting 'orthorhombic'
loop_
_space_group_symop_operation_xyz
x,y,z
-x,-y,z
x,-y,-z
-x,y,-z
-x,-y,-z
x,y,-z
-x,y,z
x,-y,z
1/2+x,1/2+y,z
1/2-x,1/2-y,z
1/2+x,1/2-y,-z
1/2-x,1/2+y,-z
1/2-x,1/2-y,-z
1/2+x,1/2+y,-z
1/2-x,1/2+y,z
1/2+x,1/2-y,z
loop_
_atom_site_type_symbol
_atom_site_label
_atom_site_fract_x
_atom_site_fract_y
_atom_site_fract_z
Si Si1 0.886705 0.743582 0.715914
Si Si2 0.613880 0.614490 0.283865
Si Si3 0.500000 0.607388 0.707128
Si Si4 0.722206 0.189483 0.210127
Si Si5 0.773421 0.933560 0.210564
Si Si6 0.500000 0.243306 0.292194
O O1 0.888231 0.744674 0.500000
O O2 0.878070 0.814434 0.773171
O O3 0.839224 0.700939 0.771491
O O4 0.944066 0.724150 0.782818
O O5 0.611322 0.614650 0.500000
O O6 0.557120 0.590906 0.218588
O O7 0.664594 0.577302 0.229232
O O8 0.500000 0.587470 0.500000
O O9 0.500000 0.682089 0.710254
O O10 0.750000 0.250000 0.287873
O O11 0.744051 0.126010 0.286279
O O12 0.735416 0.188397 0.000000
O O13 0.759604 0.000000 0.287156
O O14 0.761425 0.935647 0.000000
O O15 0.500000 0.225020 0.500000
#
# Coordination Sequence:
#
# PCOD9485437 Si02
#       6
#    16  16   8  16  16   8
#     4   9  16  27  47  72  95 119 147 182 224 268
#     4   9  16  28  47  68  90 117 152 189 222 260
#     4   7  12  24  42  64  89 117 147 183 223 258
#     4  10  19  31  47  67  91 118 151 190 227 264
#     4  10  21  35  47  61  88 124 154 184 228 273
#     4   7  12  24  41  66  97 120 140 174 223 270
#
# _framework density 19.099936
#
# number of rings (size 3 to 8) (size 9 to 14) (size 15 to 20)
#    0.000    3.000    2.000    2.400    0.000    1.600 
#    0.000    1.500    0.000    6.600    0.000    0.700 
#    0.000    5.600    0.000    0.000    0.000    0.000 
#
# Total GULP energy -222921.939413 kJ/mol
# GULP energy per Si atom -5573.048485 kJ/mol
# Density = 1.905646 g / cm^3
# Si number density = 19.099936 Si / 1000 Ang^3
#
#
#
# Elastic Constant Matrix: (Units=GPa)
#
#
# Indices 1 2 3 4 5 6 
#
# 1 114.5969 67.4644 -9.9999 0.0000 0.0000 0.0000
# 2 67.4644 121.0645 11.5083 0.0000 0.0000 0.0000
# 3 -9.9999 11.5083 51.5818 0.0000 0.0000 0.0000
# 4 0.0000 0.0000 0.0000 1.5390 0.0000 0.0000
# 5 0.0000 0.0000 0.0000 0.0000 23.5260 0.0000
# 6 0.0000 0.0000 0.0000 0.0000 0.0000 7.4577
#
#
#
# Elastic Compliance Matrix: (Units=1/GPa)
#
#
# Indices 1 2 3 4 5 6 
#
# 1 0.013954 -0.008207 0.004536 0.000000 0.000000 0.000000
# 2 -0.008207 0.013266 -0.004551 0.000000 0.000000 0.000000
# 3 0.004536 -0.004551 0.021281 0.000000 0.000000 0.000000
# 4 0.000000 0.000000 0.000000 0.649793 0.000000 0.000000
# 5 0.000000 0.000000 0.000000 0.000000 0.042506 0.000000
# 6 0.000000 0.000000 0.000000 0.000000 0.000000 0.134089
#
#
# Mechanical properties :
#
#
# Convention : Reuss Voigt Hill
#
# Bulk Modulus (GPa) = 31.19366 47.24320 39.21843
# Shear Modulus (GPa) = 5.54313 21.05590 13.29951
#
# Velocity S-wave (km/s) = 1.70542 3.32385 2.64164
# Velocity P-wave (km/s) = 4.49947 6.28642 5.46646
#
# Compressibility (1/GPa) = 0.03205780
#
# Stress axis : x y z
#
# Youngs Moduli (GPa) = 71.66595 75.38012 46.98941
#
# Poissons Ratio (x) = 0.61865 -0.21315
# Poissons Ratio (y) = 0.58816 0.21384
# Poissons Ratio (z) = -0.32509 0.34304
#
# Static dielectric constant tensor:
#      x y z
#    x 1.697720 0.000000 0.000000 
#    y 0.000000 1.667640 0.000000 
#    z 0.000000 0.000000 1.712010 
# 
# From -- ./inp_files/12103.got.cif
#   From: 2010.05.17/outbox.cif.g08.bks.cpg/sg65_7_cif.got.tgz:12103.got - 2010.06.03 17:01:31.
