data_PCOD9485232
_publ_section_title
;
Structure prediction by ZEFSAII (Michael W. Deem and Ramdas Pophale) SiO2 
 PCOD9485232
Probable space group: C M M M
;
_chemical_formula_sum "Si O2"
_cell_formula_units_Z 104
_cell_length_a 9.424533
_cell_length_b 27.302863
_cell_length_c 25.684959
_cell_angle_alpha 90.000000
_cell_angle_beta 90.000000
_cell_angle_gamma 90.000000
_cell_volume 6609.169746
_symmetry_space_group_name_H-M "C M M M"
_symmetry_group_IT_number 65
_symmetry_cell_setting 'orthorhombic'
loop_
_space_group_symop_operation_xyz
x,y,z
-x,-y,z
x,-y,-z
-x,y,-z
-x,-y,-z
x,y,-z
-x,y,z
x,-y,z
1/2+x,1/2+y,z
1/2-x,1/2-y,z
1/2+x,1/2-y,-z
1/2-x,1/2+y,-z
1/2-x,1/2-y,-z
1/2+x,1/2+y,-z
1/2-x,1/2+y,z
1/2+x,1/2-y,z
loop_
_atom_site_type_symbol
_atom_site_label
_atom_site_fract_x
_atom_site_fract_y
_atom_site_fract_z
Si Si1 0.000000 0.287079 0.938265
Si Si2 0.164916 0.940261 0.500000
Si Si3 0.328639 0.608912 0.279569
Si Si4 0.500000 0.671098 0.062840
Si Si5 0.327313 0.198785 0.233951
Si Si6 0.827482 0.056170 0.612774
Si Si7 0.337040 0.056780 0.811771
Si Si8 0.723757 0.149595 0.877177
O O1 0.870852 0.317237 0.914777
O O2 0.000000 0.229600 0.924446
O O3 0.000000 0.289304 0.000000
O O4 0.225905 0.925441 0.556243
O O5 0.000000 0.924721 0.500000
O O6 0.165714 0.000000 0.500000
O O7 0.500000 0.615400 0.274769
O O8 0.240555 0.658687 0.272140
O O9 0.294626 0.586493 0.335903
O O10 0.270947 0.573660 0.233444
O O11 0.631661 0.647103 0.091783
O O12 0.500000 0.666102 0.000000
O O13 0.500000 0.201022 0.235599
O O14 0.250000 0.250000 0.243309
O O15 0.279481 0.179570 0.176933
O O16 0.000000 0.055101 0.609253
O O17 0.780359 0.000000 0.619796
O O18 0.500000 0.061643 0.792284
O O19 0.323626 0.095418 0.859195
O O20 0.313952 0.000000 0.825894
#
# Coordination Sequence:
#
# PCOD9485232 Si02
#       8
#     8   8  16   8  16  16  16  16
#     4  11  20  36  57  77 101 129 160 197 245 296
#     4   7  10  18  34  58  92 133 168 201 244 289
#     4  10  19  30  47  76 105 131 166 207 251 300
#     4  11  24  36  53  81 107 131 158 195 249 304
#     4  11  22  35  53  75 101 133 165 200 248 301
#     4   8  13  22  38  64  99 134 168 205 244 288
#     4  10  21  37  54  72  98 134 175 212 250 295
#     4  11  21  36  54  78 102 129 160 201 243 302
#
# _framework density 15.735713000000001
#
# number of rings (size 3 to 8) (size 9 to 14) (size 15 to 20)
#    0.000    2.077    1.538    5.077    5.385    2.154 
#    0.000    0.000    0.000    2.769    0.000    2.692 
#    0.000    8.615    0.000    0.000    0.000    0.000 
#
# Total GULP energy -289489.893198 kJ/mol
# GULP energy per Si atom -5567.113331 kJ/mol
# Density = 1.569990 g / cm^3
# Si number density = 15.735713 Si / 1000 Ang^3
#
#
#
# Elastic Constant Matrix: (Units=GPa)
#
#
# Indices 1 2 3 4 5 6 
#
# 1 73.6560 21.2994 34.1721 0.0000 0.0000 0.0000
# 2 21.2994 102.9936 49.0173 0.0000 0.0000 0.0000
# 3 34.1721 49.0173 95.2958 0.0000 0.0000 0.0000
# 4 0.0000 0.0000 0.0000 18.3491 0.0000 0.0000
# 5 0.0000 0.0000 0.0000 0.0000 12.3330 0.0000
# 6 0.0000 0.0000 0.0000 0.0000 0.0000 28.3813
#
#
#
# Elastic Compliance Matrix: (Units=1/GPa)
#
#
# Indices 1 2 3 4 5 6 
#
# 1 0.016333 -0.000782 -0.005455 0.000000 0.000000 0.000000
# 2 -0.000782 0.012894 -0.006352 0.000000 0.000000 0.000000
# 3 -0.005455 -0.006352 0.015717 0.000000 0.000000 0.000000
# 4 0.000000 0.000000 0.000000 0.054499 0.000000 0.000000
# 5 0.000000 0.000000 0.000000 0.000000 0.081083 0.000000
# 6 0.000000 0.000000 0.000000 0.000000 0.000000 0.035235
#
#
# Mechanical properties :
#
#
# Convention : Reuss Voigt Hill
#
# Bulk Modulus (GPa) = 50.58863 53.43587 52.01225
# Shear Modulus (GPa) = 20.19982 22.97646 21.58814
#
# Velocity S-wave (km/s) = 3.58675 3.82533 3.70796
# Velocity P-wave (km/s) = 7.02651 7.31731 7.17338
#
# Compressibility (1/GPa) = 0.01976729
#
# Stress axis : x y z
#
# Youngs Moduli (GPa) = 61.22406 77.55494 63.62527
#
# Poissons Ratio (x) = 0.06062 0.34707
# Poissons Ratio (y) = 0.04786 0.40415
# Poissons Ratio (z) = 0.33397 0.49263
#
# Static dielectric constant tensor:
#      x y z
#    x 1.456190 0.000000 0.000000 
#    y 0.000000 1.524840 0.000000 
#    z 0.000000 0.000000 1.539340 
# 
# From -- ./inp_files/73817.got.cif
#   From: 2010.05.17/outbox.cif.g08.bks.cpg/sg65_37_cif.got.tgz:73817.got - 2010.06.03 17:01:31.
