data_PCOD9485350
_publ_section_title
;
Structure prediction by ZEFSAII (Michael W. Deem and Ramdas Pophale) SiO2 
 PCOD9485350
Probable space group: C M M M
;
_chemical_formula_sum "Si O2"
_cell_formula_units_Z 80
_cell_length_a 24.610003
_cell_length_b 26.807430
_cell_length_c 8.655177
_cell_angle_alpha 90.000000
_cell_angle_beta 90.000000
_cell_angle_gamma 90.000000
_cell_volume 5710.087995
_symmetry_space_group_name_H-M "C M M M"
_symmetry_group_IT_number 65
_symmetry_cell_setting 'orthorhombic'
loop_
_space_group_symop_operation_xyz
x,y,z
-x,-y,z
x,-y,-z
-x,y,-z
-x,-y,-z
x,y,-z
-x,y,z
x,-y,z
1/2+x,1/2+y,z
1/2-x,1/2-y,z
1/2+x,1/2-y,-z
1/2-x,1/2+y,-z
1/2-x,1/2-y,-z
1/2+x,1/2+y,-z
1/2-x,1/2+y,z
1/2+x,1/2-y,z
loop_
_atom_site_type_symbol
_atom_site_label
_atom_site_fract_x
_atom_site_fract_y
_atom_site_fract_z
Si Si1 0.500000 0.720713 0.188195
Si Si2 0.218554 0.303311 0.178861
Si Si3 0.380888 0.256559 0.187437
Si Si4 0.500000 0.395097 0.188021
Si Si5 0.114553 0.942622 0.186952
Si Si6 0.681226 0.353067 0.317308
O O1 0.556520 0.745658 0.237096
O O2 0.500000 0.662660 0.237242
O O3 0.500000 0.720601 0.000000
O O4 0.250000 0.250000 0.181327
O O5 0.158731 0.288405 0.237901
O O6 0.256723 0.340853 0.270972
O O7 0.215634 0.319315 0.000000
O O8 0.355360 0.308732 0.244139
O O9 0.378606 0.257406 0.000000
O O10 0.555056 0.422680 0.236726
O O11 0.500000 0.395161 0.000000
O O12 0.159189 0.905021 0.252363
O O13 0.121922 0.000000 0.233395
O O14 0.115991 0.940293 0.000000
O O15 0.675257 0.351353 0.500000
#
# Coordination Sequence:
#
# PCOD9485350 Si02
#       6
#     8  16  16   8  16  16
#     4   9  14  23  44  64  81 103 132 171 204 233
#     4   8  15  27  43  59  76  99 131 166 199 238
#     4   9  16  28  44  61  79 103 134 166 199 239
#     4   9  15  26  45  62  76  98 136 179 209 237
#     4  10  19  31  46  60  75 101 139 177 210 243
#     4  11  20  28  40  57  80 105 132 168 208 245
#
# _framework density 14.010291
#
# number of rings (size 3 to 8) (size 9 to 14) (size 15 to 20)
#    0.000    2.600    2.000    3.300    0.000    5.200 
#    0.000    2.000    0.000    1.200    0.000    0.000 
#    0.000    0.000    0.000    0.900    0.000   20.600 
#
# Total GULP energy -222809.825982 kJ/mol
# GULP energy per Si atom -5570.245650 kJ/mol
# Density = 1.397840 g / cm^3
# Si number density = 14.010291 Si / 1000 Ang^3
#
#
#
# Elastic Constant Matrix: (Units=GPa)
#
#
# Indices 1 2 3 4 5 6 
#
# 1 129.0442 62.4661 20.5442 0.0000 0.0000 0.0000
# 2 62.4661 63.8670 17.3058 0.0000 0.0000 0.0000
# 3 20.5442 17.3058 16.3635 0.0000 0.0000 0.0000
# 4 0.0000 0.0000 0.0000 0.4714 0.0000 0.0000
# 5 0.0000 0.0000 0.0000 0.0000 -0.8993 0.0000
# 6 0.0000 0.0000 0.0000 0.0000 0.0000 15.8599
#
#
#
# Elastic Compliance Matrix: (Units=1/GPa)
#
#
# Indices 1 2 3 4 5 6 
#
# 1 0.014964 -0.013379 -0.004638 0.000000 0.000000 0.000000
# 2 -0.013379 0.033909 -0.019064 0.000000 0.000000 0.000000
# 3 -0.004638 -0.019064 0.087096 0.000000 0.000000 0.000000
# 4 0.000000 0.000000 0.000000 2.121318 0.000000 0.000000
# 5 0.000000 0.000000 0.000000 0.000000 -1.111999 0.000000
# 6 0.000000 0.000000 0.000000 0.000000 0.000000 0.063052
#
#
# Mechanical properties :
#
#
# Convention : Reuss Voigt Hill
#
# Bulk Modulus (GPa) = 16.17933 45.54523 30.86228
# Shear Modulus (GPa) = 3.83699 10.35032 7.09366
#
# Velocity S-wave (km/s) = 1.65670 2.72097 2.25259
# Velocity P-wave (km/s) = 3.90292 6.51541 5.37044
#
# Compressibility (1/GPa) = 0.06180725
#
# Stress axis : x y z
#
# Youngs Moduli (GPa) = 66.82708 29.49068 11.48153
#
# Poissons Ratio (x) = 0.39456 0.05325
# Poissons Ratio (y) = 0.89409 0.21889
# Poissons Ratio (z) = 0.30991 0.56222
#
# Static dielectric constant tensor:
#      x y z
#    x 1.494580 0.000000 0.000000 
#    y 0.000000 1.432730 0.000000 
#    z 0.000000 0.000000 1.465010 
# 
# From -- ./inp_files/14539.got.cif
#   From: 2010.05.17/outbox.cif.g08.bks.cpg/sg65_8_cif.got.tgz:14539.got - 2010.06.03 17:01:31.
