data_PCOD9485472
_publ_section_title
;
Structure prediction by ZEFSAII (Michael W. Deem and Ramdas Pophale) SiO2 
 PCOD9485472
Probable space group: C M M M
;
_chemical_formula_sum "Si O2"
_cell_formula_units_Z 88
_cell_length_a 29.001073
_cell_length_b 8.700196
_cell_length_c 21.811016
_cell_angle_alpha 90.000000
_cell_angle_beta 90.000000
_cell_angle_gamma 90.000000
_cell_volume 5503.246923
_symmetry_space_group_name_H-M "C M M M"
_symmetry_group_IT_number 65
_symmetry_cell_setting 'orthorhombic'
loop_
_space_group_symop_operation_xyz
x,y,z
-x,-y,z
x,-y,-z
-x,y,-z
-x,-y,-z
x,y,-z
-x,y,z
x,-y,z
1/2+x,1/2+y,z
1/2-x,1/2-y,z
1/2+x,1/2-y,-z
1/2-x,1/2+y,-z
1/2-x,1/2-y,-z
1/2+x,1/2+y,-z
1/2-x,1/2+y,z
1/2+x,1/2-y,z
loop_
_atom_site_type_symbol
_atom_site_label
_atom_site_fract_x
_atom_site_fract_y
_atom_site_fract_z
Si Si1 0.198046 0.685325 0.565823
Si Si2 0.555937 0.326134 0.000000
Si Si3 0.802044 0.315031 0.700864
Si Si4 0.946478 0.316474 0.869493
Si Si5 0.140242 0.815745 0.813226
Si Si6 0.301604 0.685458 0.931852
O O1 0.176634 0.733282 0.500000
O O2 0.199897 0.500000 0.565776
O O3 0.250000 0.750000 0.565399
O O4 0.179428 0.730080 0.632789
O O5 0.574540 0.500000 0.000000
O O6 0.500000 0.333199 0.000000
O O7 0.568027 0.242308 0.062908
O O8 0.800015 0.500000 0.704675
O O9 0.750000 0.250000 0.707184
O O10 0.833766 0.250185 0.754438
O O11 0.943784 0.500000 0.867946
O O12 0.911622 0.243841 0.821135
O O13 0.000000 0.271430 0.860061
O O14 0.167562 0.764245 0.874719
O O15 0.140796 0.000000 0.811294
O O16 0.299626 0.500000 0.930556
O O17 0.250000 0.750000 0.925046
O O18 0.318687 0.731316 0.000000
#
# Coordination Sequence:
#
# PCOD9485472 Si02
#       6
#    16   8  16  16  16  16
#     4   8  14  25  42  64  90 123 159 192 228 270
#     4   9  17  31  51  71  90 113 142 181 233 289
#     4  10  19  31  47  68  98 130 162 199 235 276
#     4  10  21  36  52  71  94 118 150 195 244 293
#     4  11  22  33  49  69  92 123 159 197 238 290
#     4   9  19  34  48  63  84 113 151 193 231 268
#
# _framework density 15.99056
#
# number of rings (size 3 to 8) (size 9 to 14) (size 15 to 20)
#    0.000    2.455    0.000    2.455    1.273    5.818 
#    0.000    0.000    0.000    0.000    0.000    0.000 
#    0.000    0.727    0.000    8.364    0.000    2.364 
#
# Total GULP energy -245258.906663 kJ/mol
# GULP energy per Si atom -5574.066061 kJ/mol
# Density = 1.595416 g / cm^3
# Si number density = 15.990560 Si / 1000 Ang^3
#
#
#
# Elastic Constant Matrix: (Units=GPa)
#
#
# Indices 1 2 3 4 5 6 
#
# 1 68.4985 25.7284 68.1385 0.0000 0.0000 0.0000
# 2 25.7284 36.6365 39.1250 0.0000 0.0000 0.0000
# 3 68.1385 39.1250 157.3668 0.0000 0.0000 0.0000
# 4 0.0000 0.0000 0.0000 16.4804 0.0000 0.0000
# 5 0.0000 0.0000 0.0000 0.0000 12.4930 0.0000
# 6 0.0000 0.0000 0.0000 0.0000 0.0000 20.9354
#
#
#
# Elastic Compliance Matrix: (Units=1/GPa)
#
#
# Indices 1 2 3 4 5 6 
#
# 1 0.027681 -0.009040 -0.009738 0.000000 0.000000 0.000000
# 2 -0.009040 0.040114 -0.006059 0.000000 0.000000 0.000000
# 3 -0.009738 -0.006059 0.012078 0.000000 0.000000 0.000000
# 4 0.000000 0.000000 0.000000 0.060678 0.000000 0.000000
# 5 0.000000 0.000000 0.000000 0.000000 0.080045 0.000000
# 6 0.000000 0.000000 0.000000 0.000000 0.000000 0.047766
#
#
# Mechanical properties :
#
#
# Convention : Reuss Voigt Hill
#
# Bulk Modulus (GPa) = 33.11397 58.72064 45.91730
# Shear Modulus (GPa) = 15.23912 18.61576 16.92744
#
# Velocity S-wave (km/s) = 3.09043 3.41570 3.25713
# Velocity P-wave (km/s) = 5.78686 7.23587 6.55155
#
# Compressibility (1/GPa) = 0.03019874
#
# Stress axis : x y z
#
# Youngs Moduli (GPa) = 36.12540 24.92878 82.79768
#
# Poissons Ratio (x) = 0.22535 0.80631
# Poissons Ratio (y) = 0.32657 0.50169
# Poissons Ratio (z) = 0.35180 0.15105
#
# Static dielectric constant tensor:
#      x y z
#    x 1.523800 0.000000 0.000000 
#    y 0.000000 1.541090 0.000000 
#    z 0.000000 0.000000 1.570450 
# 
# From -- ./inp_files/60643.got.cif
#   From: 2010.05.17/outbox.cif.g08.bks.cpg/sg65_31_cif.got.tgz:60643.got - 2010.06.03 17:01:31.
