data_PCOD9485162
_publ_section_title
;
Structure prediction by ZEFSAII (Michael W. Deem and Ramdas Pophale) SiO2 
 PCOD9485162
Probable space group: C M M M
;
_chemical_formula_sum "Si O2"
_cell_formula_units_Z 96
_cell_length_a 27.427778
_cell_length_b 10.091465
_cell_length_c 23.091527
_cell_angle_alpha 90.000000
_cell_angle_beta 90.000000
_cell_angle_gamma 90.000000
_cell_volume 6391.422054
_symmetry_space_group_name_H-M "C M M M"
_symmetry_group_IT_number 65
_symmetry_cell_setting 'orthorhombic'
loop_
_space_group_symop_operation_xyz
x,y,z
-x,-y,z
x,-y,-z
-x,y,-z
-x,-y,-z
x,y,-z
-x,y,z
x,-y,z
1/2+x,1/2+y,z
1/2-x,1/2-y,z
1/2+x,1/2-y,-z
1/2-x,1/2+y,-z
1/2-x,1/2-y,-z
1/2+x,1/2+y,-z
1/2-x,1/2+y,z
1/2+x,1/2-y,z
loop_
_atom_site_type_symbol
_atom_site_label
_atom_site_fract_x
_atom_site_fract_y
_atom_site_fract_z
Si Si1 0.203466 0.660323 0.744767
Si Si2 0.312413 0.500000 0.070490
Si Si3 0.802937 0.500000 0.068315
Si Si4 0.442741 0.838952 0.435811
Si Si5 0.104021 0.659135 0.681913
Si Si6 0.348432 0.240457 0.864646
Si Si7 0.556435 0.839489 0.802265
O O1 0.212307 0.500000 0.749056
O O2 0.250000 0.750000 0.730705
O O3 0.160056 0.682397 0.698706
O O4 0.182211 0.713892 0.805778
O O5 0.254393 0.500000 0.083773
O O6 0.335813 0.625817 0.102148
O O7 0.318261 0.500000 0.000000
O O8 0.830513 0.374576 0.093372
O O9 0.805041 0.500000 0.000000
O O10 0.426957 0.793541 0.500000
O O11 0.500000 0.807510 0.428666
O O12 0.413179 0.788897 0.380224
O O13 0.439505 0.000000 0.436347
O O14 0.097823 0.500000 0.679815
O O15 0.071418 0.702364 0.736884
O O16 0.404604 0.224527 0.845666
O O17 0.500000 0.809681 0.813714
O O18 0.562955 0.000000 0.805448
#
# Coordination Sequence:
#
# PCOD9485162 Si02
#       7
#    16   8   8  16  16  16  16
#     4  10  19  30  47  69  94 123 154 192 236 280
#     4  11  24  36  51  73  97 127 153 182 236 288
#     4  11  20  34  53  71  95 121 151 192 228 272
#     4   8  12  18  32  57  90 125 155 187 232 280
#     4   8  14  24  38  63  93 121 155 192 233 277
#     4  11  20  34  50  74  96 120 154 191 233 283
#     4   9  16  29  50  71  92 121 157 198 238 276
#
# _framework density 15.020132
#
# number of rings (size 3 to 8) (size 9 to 14) (size 15 to 20)
#    0.000    2.500    1.667    4.000    1.167    3.333 
#    0.000    0.417    0.000    3.500    0.000    0.000 
#    0.000    0.000    0.000    1.833    3.333    1.667 
#
# Total GULP energy -267239.062366 kJ/mol
# GULP energy per Si atom -5567.480466 kJ/mol
# Density = 1.498595 g / cm^3
# Si number density = 15.020132 Si / 1000 Ang^3
#
#
#
# Elastic Constant Matrix: (Units=GPa)
#
#
# Indices 1 2 3 4 5 6 
#
# 1 118.0285 48.2256 75.3284 0.0000 0.0000 0.0000
# 2 48.2256 77.7642 46.0721 0.0000 0.0000 0.0000
# 3 75.3284 46.0721 109.4692 0.0000 0.0000 0.0000
# 4 0.0000 0.0000 0.0000 12.3482 0.0000 0.0000
# 5 0.0000 0.0000 0.0000 0.0000 23.2681 0.0000
# 6 0.0000 0.0000 0.0000 0.0000 0.0000 3.5878
#
#
#
# Elastic Compliance Matrix: (Units=1/GPa)
#
#
# Indices 1 2 3 4 5 6 
#
# 1 0.016256 -0.004601 -0.009250 0.000000 0.000000 0.000000
# 2 -0.004601 0.018433 -0.004592 0.000000 0.000000 0.000000
# 3 -0.009250 -0.004592 0.017432 0.000000 0.000000 0.000000
# 4 0.000000 0.000000 0.000000 0.080983 0.000000 0.000000
# 5 0.000000 0.000000 0.000000 0.000000 0.042977 0.000000
# 6 0.000000 0.000000 0.000000 0.000000 0.000000 0.278724
#
#
# Mechanical properties :
#
#
# Convention : Reuss Voigt Hill
#
# Bulk Modulus (GPa) = 65.63205 71.61269 68.62237
# Shear Modulus (GPa) = 10.06501 16.88319 13.47410
#
# Velocity S-wave (km/s) = 2.59144 3.35630 2.99836
# Velocity P-wave (km/s) = 7.26258 7.92471 7.60086
#
# Compressibility (1/GPa) = 0.01523646
#
# Stress axis : x y z
#
# Youngs Moduli (GPa) = 61.51665 54.24980 57.36442
#
# Poissons Ratio (x) = 0.24961 0.53059
# Poissons Ratio (y) = 0.28304 0.26341
# Poissons Ratio (z) = 0.56900 0.24911
#
# Static dielectric constant tensor:
#      x y z
#    x 1.497210 0.000000 0.000000 
#    y 0.000000 1.491680 0.000000 
#    z 0.000000 0.000000 1.512570 
# 
# From -- ./inp_files/71749.got.cif
#   From: 2010.05.17/outbox.cif.g08.bks.cpg/sg65_36_cif.got.tgz:71749.got - 2010.06.03 17:01:31.
