data_PCOD9485671
_publ_section_title
;
Structure prediction by ZEFSAII (Michael W. Deem and Ramdas Pophale) SiO2 
 PCOD9485671
Probable space group: C M M M
;
_chemical_formula_sum "Si O2"
_cell_formula_units_Z 80
_cell_length_a 8.676823
_cell_length_b 16.827107
_cell_length_c 28.546142
_cell_angle_alpha 90.000000
_cell_angle_beta 90.000000
_cell_angle_gamma 90.000000
_cell_volume 4167.903129
_symmetry_space_group_name_H-M "C M M M"
_symmetry_group_IT_number 65
_symmetry_cell_setting 'orthorhombic'
loop_
_space_group_symop_operation_xyz
x,y,z
-x,-y,z
x,-y,-z
-x,y,-z
-x,-y,-z
x,y,-z
-x,y,z
x,-y,z
1/2+x,1/2+y,z
1/2-x,1/2-y,z
1/2+x,1/2-y,-z
1/2-x,1/2+y,-z
1/2-x,1/2-y,-z
1/2+x,1/2+y,-z
1/2-x,1/2+y,z
1/2+x,1/2-y,z
loop_
_atom_site_type_symbol
_atom_site_label
_atom_site_fract_x
_atom_site_fract_y
_atom_site_fract_z
Si Si1 0.325689 0.905242 0.301083
Si Si2 0.811852 0.408430 0.401152
Si Si3 0.817385 0.835962 0.211108
Si Si4 0.313573 0.837166 0.500000
Si Si5 0.682633 0.000000 0.944067
Si Si6 0.686285 0.660347 0.103755
O O1 0.500000 0.874249 0.294637
O O2 0.260889 0.873222 0.350812
O O3 0.234737 0.890185 0.253760
O O4 0.335298 0.000000 0.307525
O O5 0.765383 0.500000 0.402553
O O6 0.760926 0.373439 0.450546
O O7 0.000000 0.405028 0.399678
O O8 0.750000 0.750000 0.221994
O O9 0.766744 0.855814 0.158096
O O10 0.000000 0.832835 0.209789
O O11 0.500000 0.841480 0.500000
O O12 0.250000 0.750000 0.500000
O O13 0.754003 0.083008 0.924482
O O14 0.500000 0.000000 0.933282
O O15 0.702830 0.000000 0.000000
O O16 0.500000 0.663704 0.100264
O O17 0.750000 0.750000 0.091629
#
# Coordination Sequence:
#
# PCOD9485671 Si02
#       6
#    16  16  16   8   8  16
#     4   9  18  32  51  77 106 137 174 219 271 328
#     4   8  15  30  51  72  94 126 173 217 257 313
#     4  10  21  36  55  80 111 146 186 227 274 332
#     4  10  19  31  49  71  95 126 164 214 266 316
#     4  11  25  43  65  95 127 163 207 250 299 358
#     4  10  22  41  64  91 124 163 206 254 303 357
#
# _framework density 19.194305
#
# number of rings (size 3 to 8) (size 9 to 14) (size 15 to 20)
#    0.000    2.500    0.000    3.000    1.400    6.000 
#    0.000    3.000    0.000    2.400    0.000    0.000 
#    0.000    0.000    0.000    0.000    0.000    0.000 
#
# Total GULP energy -222700.521842 kJ/mol
# GULP energy per Si atom -5567.513046 kJ/mol
# Density = 1.915062 g / cm^3
# Si number density = 19.194305 Si / 1000 Ang^3
#
#
#
# Elastic Constant Matrix: (Units=GPa)
#
#
# Indices 1 2 3 4 5 6 
#
# 1 38.6461 35.4577 39.8973 0.0000 0.0000 0.0000
# 2 35.4577 98.5155 75.6803 0.0000 0.0000 0.0000
# 3 39.8973 75.6803 114.3254 0.0000 0.0000 0.0000
# 4 0.0000 0.0000 0.0000 447.8299 0.0000 0.0000
# 5 0.0000 0.0000 0.0000 0.0000 -20.5685 0.0000
# 6 0.0000 0.0000 0.0000 0.0000 0.0000 29.1340
#
#
#
# Elastic Compliance Matrix: (Units=1/GPa)
#
#
# Indices 1 2 3 4 5 6 
#
# 1 0.043417 -0.008113 -0.009781 0.000000 0.000000 0.000000
# 2 -0.008113 0.022170 -0.011845 0.000000 0.000000 0.000000
# 3 -0.009781 -0.011845 0.020001 0.000000 0.000000 0.000000
# 4 0.000000 0.000000 0.000000 0.002233 0.000000 0.000000
# 5 0.000000 0.000000 0.000000 0.000000 -0.048618 0.000000
# 6 0.000000 0.000000 0.000000 0.000000 0.000000 0.034324
#
#
# Mechanical properties :
#
#
# Convention : Reuss Voigt Hill
#
# Bulk Modulus (GPa) = 38.29809 61.50640 49.90224
# Shear Modulus (GPa) = 35.28383 97.97585 66.62984
#
# Velocity S-wave (km/s) = 4.29213 7.15228 5.89819
# Velocity P-wave (km/s) = 6.67527 10.01601 8.51116
#
# Compressibility (1/GPa) = 0.02611096
#
# Stress axis : x y z
#
# Youngs Moduli (GPa) = 23.03237 45.10670 49.99677
#
# Poissons Ratio (x) = 0.36593 0.48904
# Poissons Ratio (y) = 0.18685 0.59219
# Poissons Ratio (z) = 0.22529 0.53427
#
# Static dielectric constant tensor:
#      x y z
#    x 1.677120 0.000000 0.000000 
#    y 0.000000 1.662150 0.000000 
#    z 0.000000 0.000000 1.738760 
# 
# From -- ./inp_files/72967.got.cif
#   From: 2010.05.17/outbox.cif.g08.bks.cpg/sg65_37_cif.got.tgz:72967.got - 2010.06.03 17:01:31.
