data_PCOD9485219
_publ_section_title
;
Structure prediction by ZEFSAII (Michael W. Deem and Ramdas Pophale) SiO2 
 PCOD9485219
Probable space group: C M M M
;
_chemical_formula_sum "Si O2"
_cell_formula_units_Z 96
_cell_length_a 28.818891
_cell_length_b 14.753928
_cell_length_c 12.182643
_cell_angle_alpha 90.000000
_cell_angle_beta 90.000000
_cell_angle_gamma 90.000000
_cell_volume 5179.960428
_symmetry_space_group_name_H-M "C M M M"
_symmetry_group_IT_number 65
_symmetry_cell_setting 'orthorhombic'
loop_
_space_group_symop_operation_xyz
x,y,z
-x,-y,z
x,-y,-z
-x,y,-z
-x,-y,-z
x,y,-z
-x,y,z
x,-y,z
1/2+x,1/2+y,z
1/2-x,1/2-y,z
1/2+x,1/2-y,-z
1/2-x,1/2+y,-z
1/2-x,1/2-y,-z
1/2+x,1/2+y,-z
1/2-x,1/2+y,z
1/2+x,1/2-y,z
loop_
_atom_site_type_symbol
_atom_site_label
_atom_site_fract_x
_atom_site_fract_y
_atom_site_fract_z
Si Si1 0.758391 0.642911 0.500000
Si Si2 0.401867 0.889910 0.736457
Si Si3 0.270081 0.648078 0.737888
Si Si4 0.131344 0.608446 0.500000
Si Si5 0.447645 0.741655 0.128246
Si Si6 0.815039 0.604490 0.119847
Si Si7 0.137972 0.891891 0.129416
O O1 0.750000 0.750000 0.500000
O O2 0.736733 0.608931 0.385016
O O3 0.813899 0.629989 0.500000
O O4 0.393942 0.861990 0.610695
O O5 0.440037 0.830380 0.797374
O O6 0.354305 0.861145 0.798584
O O7 0.408379 0.000000 0.742001
O O8 0.250000 0.750000 0.732773
O O9 0.234737 0.604638 0.824321
O O10 0.320865 0.639429 0.789402
O O11 0.129548 0.500000 0.500000
O O12 0.500000 0.706554 0.142724
O O13 0.408484 0.666159 0.151052
O O14 0.442128 0.768027 0.000000
O O15 0.828011 0.500000 0.106262
O O16 0.814975 0.649359 0.000000
O O17 0.130793 0.000000 0.143687
O O18 0.150690 0.877935 0.000000
#
# Coordination Sequence:
#
# PCOD9485219 Si02
#       7
#     8  16  16   8  16  16  16
#     4  10  22  34  50  78 113 158 196 231 272 318
#     4  10  20  35  57  85 117 151 187 230 281 344
#     4  11  21  33  51  78 113 150 188 232 275 331
#     4  10  20  36  57  79 111 157 197 227 268 334
#     4  10  22  40  62  86 111 144 187 238 299 355
#     4  10  19  30  47  73 107 145 179 212 262 327
#     4  10  22  39  58  83 115 151 195 243 287 336
#
# _framework density 18.532959000000002
#
# number of rings (size 3 to 8) (size 9 to 14) (size 15 to 20)
#    0.000    1.833    1.667    2.500    2.333    6.333 
#    0.000    2.917    0.000    1.500    0.000    0.000 
#    0.000    2.667    0.000    0.000    0.000    0.000 
#
# Total GULP energy -267643.061611 kJ/mol
# GULP energy per Si atom -5575.897117 kJ/mol
# Density = 1.849078 g / cm^3
# Si number density = 18.532959 Si / 1000 Ang^3
#
#
#
# Elastic Constant Matrix: (Units=GPa)
#
#
# Indices 1 2 3 4 5 6 
#
# 1 107.1815 37.5570 53.0438 0.0000 0.0000 0.0000
# 2 37.5570 75.8752 46.3818 0.0000 0.0000 0.0000
# 3 53.0438 46.3818 130.0681 0.0000 0.0000 0.0000
# 4 0.0000 0.0000 0.0000 19.7569 0.0000 0.0000
# 5 0.0000 0.0000 0.0000 0.0000 -15.2515 0.0000
# 6 0.0000 0.0000 0.0000 0.0000 0.0000 20.8402
#
#
#
# Elastic Compliance Matrix: (Units=1/GPa)
#
#
# Indices 1 2 3 4 5 6 
#
# 1 0.012548 -0.003942 -0.003712 0.000000 0.000000 0.000000
# 2 -0.003942 0.018092 -0.004844 0.000000 0.000000 0.000000
# 3 -0.003712 -0.004844 0.010929 0.000000 0.000000 0.000000
# 4 0.000000 0.000000 0.000000 0.050615 0.000000 0.000000
# 5 0.000000 0.000000 0.000000 0.000000 -0.065567 0.000000
# 6 0.000000 0.000000 0.000000 0.000000 0.000000 0.047984
#
#
# Mechanical properties :
#
#
# Convention : Reuss Voigt Hill
#
# Bulk Modulus (GPa) = 60.33544 65.23223 62.78384
# Shear Modulus (GPa) = 47.56410 16.81193 32.18801
#
# Velocity S-wave (km/s) = 5.07152 3.01514 4.17201
# Velocity P-wave (km/s) = 8.18048 6.88446 7.56029
#
# Compressibility (1/GPa) = 0.01657401
#
# Stress axis : x y z
#
# Youngs Moduli (GPa) = 79.69264 55.27341 91.49837
#
# Poissons Ratio (x) = 0.21791 0.33960
# Poissons Ratio (y) = 0.31418 0.44320
# Poissons Ratio (z) = 0.29578 0.26773
#
# Static dielectric constant tensor:
#      x y z
#    x 1.611230 0.000000 0.000000 
#    y 0.000000 1.482770 0.000000 
#    z 0.000000 0.000000 1.687420 
# 
# From -- ./inp_files/33886.got.cif
#   From: 2010.05.17/outbox.cif.g08.bks.cpg/sg65_17_cif.got.tgz:33886.got - 2010.06.03 17:01:31.
