data_PCOD9485420
_publ_section_title
;
Structure prediction by ZEFSAII (Michael W. Deem and Ramdas Pophale) SiO2 
 PCOD9485420
Probable space group: C M M M
;
_chemical_formula_sum "Si O2"
_cell_formula_units_Z 104
_cell_length_a 27.826682
_cell_length_b 9.143371
_cell_length_c 27.299254
_cell_angle_alpha 90.000000
_cell_angle_beta 90.000000
_cell_angle_gamma 90.000000
_cell_volume 6945.740384
_symmetry_space_group_name_H-M "C M M M"
_symmetry_group_IT_number 65
_symmetry_cell_setting 'orthorhombic'
loop_
_space_group_symop_operation_xyz
x,y,z
-x,-y,z
x,-y,-z
-x,y,-z
-x,-y,-z
x,y,-z
-x,y,z
x,-y,z
1/2+x,1/2+y,z
1/2-x,1/2-y,z
1/2+x,1/2-y,-z
1/2-x,1/2+y,-z
1/2-x,1/2-y,-z
1/2+x,1/2+y,-z
1/2-x,1/2+y,z
1/2+x,1/2-y,z
loop_
_atom_site_type_symbol
_atom_site_label
_atom_site_fract_x
_atom_site_fract_y
_atom_site_fract_z
Si Si1 0.109737 0.175833 0.747882
Si Si2 0.556099 0.675727 0.847108
Si Si3 0.698801 0.825269 0.699749
Si Si4 0.856575 0.674723 0.599308
Si Si5 0.802139 0.323171 0.500000
Si Si6 0.945038 0.824533 0.647600
Si Si7 0.941793 0.328040 0.946165
O O1 0.086217 0.218860 0.799389
O O2 0.158944 0.258446 0.735920
O O3 0.073497 0.207894 0.702775
O O4 0.117504 0.000000 0.747976
O O5 0.500000 0.718440 0.840447
O O6 0.557310 0.500000 0.850628
O O7 0.574542 0.743311 0.897969
O O8 0.750000 0.750000 0.706590
O O9 0.678733 0.792942 0.645000
O O10 0.702192 0.000000 0.705122
O O11 0.864053 0.500000 0.598354
O O12 0.831667 0.718704 0.548645
O O13 0.906887 0.752000 0.611141
O O14 0.796735 0.500000 0.500000
O O15 0.750000 0.250000 0.500000
O O16 0.000000 0.776129 0.640980
O O17 0.943399 0.000000 0.641927
O O18 0.930536 0.500000 0.942009
O O19 0.000000 0.315552 0.946603
O O20 0.925039 0.275974 0.000000
#
# Coordination Sequence:
#
# PCOD9485420 Si02
#       7
#    16  16  16  16   8  16  16
#     4   9  17  29  44  63  88 115 143 177 216 256
#     4   9  16  25  39  60  85 113 145 180 215 250
#     4  10  19  31  47  66  87 111 140 173 212 258
#     4   9  19  33  48  68  91 114 142 175 212 258
#     4  10  20  34  51  70  91 113 140 177 221 264
#     4   9  17  30  48  67  88 117 150 180 211 250
#     4   8  14  24  36  51  76 112 149 181 214 251
#
# _framework density 14.973205999999999
#
# number of rings (size 3 to 8) (size 9 to 14) (size 15 to 20)
#    0.000    2.923    0.000    1.846    0.000    4.308 
#    0.000    1.923    0.000    5.077    0.000    0.000 
#    0.000    0.615    0.000    2.000    0.000    2.923 
#
# Total GULP energy -289680.043406 kJ/mol
# GULP energy per Si atom -5570.770065 kJ/mol
# Density = 1.493913 g / cm^3
# Si number density = 14.973206 Si / 1000 Ang^3
#
#
#
# Elastic Constant Matrix: (Units=GPa)
#
#
# Indices 1 2 3 4 5 6 
#
# 1 122.6703 43.7606 73.9608 0.0000 0.0000 0.0000
# 2 43.7606 24.9054 44.2710 0.0000 0.0000 0.0000
# 3 73.9608 44.2710 145.8657 0.0000 0.0000 0.0000
# 4 0.0000 0.0000 0.0000 24.1592 0.0000 0.0000
# 5 0.0000 0.0000 0.0000 0.0000 15.5575 0.0000
# 6 0.0000 0.0000 0.0000 0.0000 0.0000 24.4883
#
#
#
# Elastic Compliance Matrix: (Units=1/GPa)
#
#
# Indices 1 2 3 4 5 6 
#
# 1 0.021948 -0.040787 0.001250 0.000000 0.000000 0.000000
# 2 -0.040787 0.162987 -0.028787 0.000000 0.000000 0.000000
# 3 0.001250 -0.028787 0.014959 0.000000 0.000000 0.000000
# 4 0.000000 0.000000 0.000000 0.041392 0.000000 0.000000
# 5 0.000000 0.000000 0.000000 0.000000 0.064278 0.000000
# 6 0.000000 0.000000 0.000000 0.000000 0.000000 0.040836
#
#
# Mechanical properties :
#
#
# Convention : Reuss Voigt Hill
#
# Bulk Modulus (GPa) = 15.81086 68.60291 42.20688
# Shear Modulus (GPa) = 9.91810 21.60427 15.76119
#
# Velocity S-wave (km/s) = 2.57649 3.80262 3.24794
# Velocity P-wave (km/s) = 4.40833 8.07444 6.50499
#
# Compressibility (1/GPa) = 0.06324768
#
# Stress axis : x y z
#
# Youngs Moduli (GPa) = 45.56187 6.13544 66.85144
#
# Poissons Ratio (x) = 0.25025 -0.08358
# Poissons Ratio (y) = 1.85833 1.92442
# Poissons Ratio (z) = -0.05696 0.17662
#
# Static dielectric constant tensor:
#      x y z
#    x 1.468880 0.000000 0.000000 
#    y 0.000000 1.498790 0.000000 
#    z 0.000000 0.000000 1.500180 
# 
# From -- ./inp_files/75787.got.cif
#   From: 2010.05.17/outbox.cif.g08.bks.cpg/sg65_38_cif.got.tgz:75787.got - 2010.06.03 17:01:31.
