data_PCOD9485548
_publ_section_title
;
Structure prediction by ZEFSAII (Michael W. Deem and Ramdas Pophale) SiO2 
 PCOD9485548
Probable space group: C M M M
;
_chemical_formula_sum "Si O2"
_cell_formula_units_Z 88
_cell_length_a 7.721618
_cell_length_b 18.792293
_cell_length_c 29.637058
_cell_angle_alpha 90.000000
_cell_angle_beta 90.000000
_cell_angle_gamma 90.000000
_cell_volume 4300.541845
_symmetry_space_group_name_H-M "C M M M"
_symmetry_group_IT_number 65
_symmetry_cell_setting 'orthorhombic'
loop_
_space_group_symop_operation_xyz
x,y,z
-x,-y,z
x,-y,-z
-x,y,-z
-x,-y,-z
x,y,-z
-x,y,z
x,-y,z
1/2+x,1/2+y,z
1/2-x,1/2-y,z
1/2+x,1/2-y,-z
1/2-x,1/2+y,-z
1/2-x,1/2-y,-z
1/2+x,1/2+y,-z
1/2-x,1/2+y,z
1/2+x,1/2-y,z
loop_
_atom_site_type_symbol
_atom_site_label
_atom_site_fract_x
_atom_site_fract_y
_atom_site_fract_z
Si Si1 0.291940 0.332970 0.186068
Si Si2 0.787415 0.082218 0.725379
Si Si3 0.292099 0.919339 0.449647
Si Si4 0.287605 0.582815 0.901649
Si Si5 0.298485 0.586565 0.000000
Si Si6 0.295789 0.667452 0.638524
O O1 0.500000 0.339944 0.185633
O O2 0.250000 0.250000 0.188633
O O3 0.229821 0.375313 0.230183
O O4 0.228354 0.369164 0.139848
O O5 0.723354 0.121769 0.680291
O O6 0.000000 0.082706 0.725391
O O7 0.734277 0.000000 0.726306
O O8 0.229962 0.898997 0.500000
O O9 0.500000 0.922506 0.451754
O O10 0.249269 0.866288 0.409606
O O11 0.229419 0.000000 0.439943
O O12 0.500000 0.584027 0.902966
O O13 0.239520 0.500000 0.894763
O O14 0.224895 0.607399 0.951249
O O15 0.296471 0.500000 0.000000
O O16 0.500000 0.608767 0.000000
O O17 0.500000 0.662427 0.642810
O O18 0.250000 0.750000 0.641467
#
# Coordination Sequence:
#
# PCOD9485548 Si02
#       6
#    16  16  16  16   8  16
#     4  10  19  31  48  69  96 127 157 193 239 291
#     4   9  18  33  53  75  96 122 162 208 247 287
#     4   9  19  37  59  81 106 136 170 209 251 294
#     4   8  13  23  42  66  89 118 158 200 239 278
#     4   7  10  18  35  62  91 113 146 201 246 272
#     4  11  22  35  53  77 106 137 168 205 249 297
#
# _framework density 20.462537999999999
#
# number of rings (size 3 to 8) (size 9 to 14) (size 15 to 20)
#    0.000    2.818    0.000    3.818    0.000    4.000 
#    0.000    2.273    0.000    4.364    0.000    0.000 
#    0.000    2.182    0.000    0.000    0.000    0.000 
#
# Total GULP energy -245479.995837 kJ/mol
# GULP energy per Si atom -5579.090814 kJ/mol
# Density = 2.041596 g / cm^3
# Si number density = 20.462538 Si / 1000 Ang^3
#
#
#
# Elastic Constant Matrix: (Units=GPa)
#
#
# Indices 1 2 3 4 5 6 
#
# 1 30.9923 2.9709 10.4533 0.0000 0.0000 0.0000
# 2 2.9709 166.4151 138.3905 0.0000 0.0000 0.0000
# 3 10.4533 138.3905 226.8502 0.0000 0.0000 0.0000
# 4 0.0000 0.0000 0.0000 -2.9358 0.0000 0.0000
# 5 0.0000 0.0000 0.0000 0.0000 25.4148 0.0000
# 6 0.0000 0.0000 0.0000 0.0000 0.0000 -14.9284
#
#
#
# Elastic Compliance Matrix: (Units=1/GPa)
#
#
# Indices 1 2 3 4 5 6 
#
# 1 0.032928 0.001368 -0.002352 0.000000 0.000000 0.000000
# 2 0.001368 0.012253 -0.007538 0.000000 0.000000 0.000000
# 3 -0.002352 -0.007538 0.009115 0.000000 0.000000 0.000000
# 4 0.000000 0.000000 0.000000 -0.340626 0.000000 0.000000
# 5 0.000000 0.000000 0.000000 0.000000 0.039347 0.000000
# 6 0.000000 0.000000 0.000000 0.000000 0.000000 -0.066986
#
#
# Mechanical properties :
#
#
# Convention : Reuss Voigt Hill
#
# Bulk Modulus (GPa) = 26.84376 80.87633 53.86005
# Shear Modulus (GPa) = -17.57431 19.67298 1.04933
#
# Velocity S-wave (km/s) = -2.93380 3.10403 0.71688
# Velocity P-wave (km/s) = 1.29257 7.24269 5.20227
#
# Compressibility (1/GPa) = 0.03725260
#
# Stress axis : x y z
#
# Youngs Moduli (GPa) = 30.36910 81.60941 109.70535
#
# Poissons Ratio (x) = -0.11164 0.25801
# Poissons Ratio (y) = -0.04154 0.82699
# Poissons Ratio (z) = 0.07142 0.61520
#
# Static dielectric constant tensor:
#      x y z
#    x 1.775300 0.000000 0.000000 
#    y 0.000000 1.652900 0.000000 
#    z 0.000000 0.000000 1.760280 
# 
# From -- ./inp_files/76435.got.cif
#   From: 2010.05.17/outbox.cif.g08.bks.cpg/sg65_39_cif.got.tgz:76435.got - 2010.06.03 17:01:31.
