data_PCOD9485099
_publ_section_title
;
Structure prediction by ZEFSAII (Michael W. Deem and Ramdas Pophale) SiO2 
 PCOD9485099
Probable space group: C M M M
;
_chemical_formula_sum "Si O2"
_cell_formula_units_Z 120
_cell_length_a 30.402886
_cell_length_b 7.985365
_cell_length_c 25.779625
_cell_angle_alpha 90.000000
_cell_angle_beta 90.000000
_cell_angle_gamma 90.000000
_cell_volume 6258.729453
_symmetry_space_group_name_H-M "C M M M"
_symmetry_group_IT_number 65
_symmetry_cell_setting 'orthorhombic'
loop_
_space_group_symop_operation_xyz
x,y,z
-x,-y,z
x,-y,-z
-x,y,-z
-x,-y,-z
x,y,-z
-x,y,z
x,-y,z
1/2+x,1/2+y,z
1/2-x,1/2-y,z
1/2+x,1/2-y,-z
1/2-x,1/2+y,-z
1/2-x,1/2-y,-z
1/2+x,1/2+y,-z
1/2-x,1/2+y,z
1/2+x,1/2-y,z
loop_
_atom_site_type_symbol
_atom_site_label
_atom_site_fract_x
_atom_site_fract_y
_atom_site_fract_z
Si Si1 0.799449 0.200174 0.246513
Si Si2 0.391550 0.297797 0.598634
Si Si3 0.639836 0.200832 0.151785
Si Si4 0.550041 0.297956 0.305915
Si Si5 0.550304 0.800910 0.500000
Si Si6 0.300091 0.202228 0.058640
Si Si7 0.951383 0.300334 0.812356
Si Si8 0.700882 0.298272 0.365770
O O1 0.750000 0.250000 0.230648
O O2 0.833978 0.266187 0.204956
O O3 0.805470 0.260803 0.305942
O O4 0.802960 0.000000 0.247181
O O5 0.390854 0.500000 0.599863
O O6 0.415601 0.239607 0.651233
O O7 0.421426 0.249417 0.550161
O O8 0.340758 0.240016 0.600357
O O9 0.667326 0.266710 0.102927
O O10 0.590376 0.268527 0.156904
O O11 0.637037 0.000000 0.145980
O O12 0.500000 0.255356 0.321940
O O13 0.552907 0.500000 0.302394
O O14 0.557291 0.227788 0.248688
O O15 0.500000 0.731904 0.500000
O O16 0.546789 0.000000 0.500000
O O17 0.250000 0.250000 0.071089
O O18 0.302448 0.000000 0.058201
O O19 0.309797 0.261526 0.000000
O O20 0.953175 0.500000 0.820976
O O21 0.000000 0.230301 0.823868
O O22 0.699756 0.500000 0.364553
O O23 0.750000 0.250000 0.382799
#
# Coordination Sequence:
#
# PCOD9485099 Si02
#       8
#    16  16  16  16   8  16  16  16
#     4  10  19  31  48  73 105 134 160 194 237 285
#     4  10  20  36  57  77  98 129 167 201 237 283
#     4  10  19  30  46  68  94 127 165 201 241 289
#     4   9  17  30  50  75 100 126 159 199 241 287
#     4  11  25  41  56  79 106 127 154 197 246 291
#     4   9  18  32  48  66  90 120 155 197 242 287
#     4   9  18  31  46  67  97 130 161 196 240 288
#     4   9  19  34  52  75 102 132 165 199 235 280
#
# _framework density 19.173221000000002
#
# number of rings (size 3 to 8) (size 9 to 14) (size 15 to 20)
#    0.000    2.467    0.000    2.200    0.000    5.867 
#    0.000    1.667    0.000    0.400    0.000    2.800 
#    0.000    0.000    0.000    7.867    0.000    8.267 
#
# Total GULP energy -334749.384950 kJ/mol
# GULP energy per Si atom -5579.156416 kJ/mol
# Density = 1.912958 g / cm^3
# Si number density = 19.173221 Si / 1000 Ang^3
#
#
#
# Elastic Constant Matrix: (Units=GPa)
#
#
# Indices 1 2 3 4 5 6 
#
# 1 194.3772 14.0933 93.5797 0.0000 0.0000 0.0000
# 2 14.0933 14.8155 6.9219 0.0000 0.0000 0.0000
# 3 93.5797 6.9219 68.1712 0.0000 0.0000 0.0000
# 4 0.0000 0.0000 0.0000 17.8404 0.0000 0.0000
# 5 0.0000 0.0000 0.0000 0.0000 63.6335 0.0000
# 6 0.0000 0.0000 0.0000 0.0000 0.0000 18.3487
#
#
#
# Elastic Compliance Matrix: (Units=1/GPa)
#
#
# Indices 1 2 3 4 5 6 
#
# 1 0.015522 -0.005050 -0.020794 0.000000 0.000000 0.000000
# 2 -0.005050 0.072501 -0.000429 0.000000 0.000000 0.000000
# 3 -0.020794 -0.000429 0.043257 0.000000 0.000000 0.000000
# 4 0.000000 0.000000 0.000000 0.056053 0.000000 0.000000
# 5 0.000000 0.000000 0.000000 0.000000 0.015715 0.000000
# 6 0.000000 0.000000 0.000000 0.000000 0.000000 0.054500
#
#
# Mechanical properties :
#
#
# Convention : Reuss Voigt Hill
#
# Bulk Modulus (GPa) = 12.70120 56.28374 34.49247
# Shear Modulus (GPa) = 14.86594 30.81578 22.84086
#
# Velocity S-wave (km/s) = 2.78753 4.01338 3.45525
# Velocity P-wave (km/s) = 4.12302 7.13410 5.82643
#
# Compressibility (1/GPa) = 0.07873274
#
# Stress axis : x y z
#
# Youngs Moduli (GPa) = 64.42518 13.79290 23.11750
#
# Poissons Ratio (x) = 0.06965 0.48071
# Poissons Ratio (y) = 0.32534 0.00993
# Poissons Ratio (z) = 1.33968 0.00592
#
# Static dielectric constant tensor:
#      x y z
#    x 1.696800 0.000000 0.000000 
#    y 0.000000 1.697340 0.000000 
#    z 0.000000 0.000000 1.648600 
# 
# From -- ./inp_files/76166.got.cif
#   From: 2010.05.17/outbox.cif.g08.bks.cpg/sg65_39_cif.got.tgz:76166.got - 2010.06.03 17:01:31.
