data_PCOD9485603
_publ_section_title
;
Structure prediction by ZEFSAII (Michael W. Deem and Ramdas Pophale) SiO2 
 PCOD9485603
Probable space group: C M M M
;
_chemical_formula_sum "Si O2"
_cell_formula_units_Z 104
_cell_length_a 8.558875
_cell_length_b 24.041766
_cell_length_c 29.105844
_cell_angle_alpha 90.000000
_cell_angle_beta 90.000000
_cell_angle_gamma 90.000000
_cell_volume 5989.123199
_symmetry_space_group_name_H-M "C M M M"
_symmetry_group_IT_number 65
_symmetry_cell_setting 'orthorhombic'
loop_
_space_group_symop_operation_xyz
x,y,z
-x,-y,z
x,-y,-z
-x,y,-z
-x,-y,-z
x,y,-z
-x,y,z
x,-y,z
1/2+x,1/2+y,z
1/2-x,1/2-y,z
1/2+x,1/2-y,-z
1/2-x,1/2+y,-z
1/2-x,1/2-y,-z
1/2+x,1/2+y,-z
1/2-x,1/2+y,z
1/2+x,1/2-y,z
loop_
_atom_site_type_symbol
_atom_site_label
_atom_site_fract_x
_atom_site_fract_y
_atom_site_fract_z
Si Si1 0.312856 0.186554 0.449970
Si Si2 0.311632 0.380111 0.734926
Si Si3 0.187976 0.187427 0.826158
Si Si4 0.312795 0.000000 0.746861
Si Si5 0.313056 0.312651 0.645046
Si Si6 0.812384 0.066051 0.000000
Si Si7 0.188218 0.389344 0.095435
Si Si8 0.310684 0.000000 0.851672
O O1 0.269133 0.161940 0.500000
O O2 0.500000 0.188078 0.447099
O O3 0.250000 0.250000 0.450571
O O4 0.246644 0.161401 0.402966
O O5 0.500000 0.381416 0.736282
O O6 0.259466 0.351582 0.783069
O O7 0.249434 0.442138 0.727754
O O8 0.262232 0.343957 0.691058
O O9 0.250000 0.250000 0.819761
O O10 0.248555 0.161549 0.874123
O O11 0.000000 0.188134 0.826467
O O12 0.500000 0.000000 0.745506
O O13 0.257218 0.000000 0.799730
O O14 0.500000 0.311222 0.643687
O O15 0.250000 0.250000 0.647491
O O16 0.751049 0.099080 0.955474
O O17 0.000000 0.065424 0.000000
O O18 0.760498 0.000000 0.000000
O O19 0.240152 0.444641 0.122843
O O20 0.000000 0.386542 0.094272
O O21 0.500000 0.000000 0.851847
#
# Coordination Sequence:
#
# PCOD9485603 Si02
#       8
#    16  16  16   8  16   8  16   8
#     4   9  16  26  42  66  97 133 173 217 264 312
#     4  10  22  37  53  77 109 142 176 217 265 313
#     4  11  23  39  58  81 109 145 182 218 261 313
#     4  11  21  35  56  82 106 137 177 218 263 311
#     4  10  19  31  48  72 104 141 179 217 261 312
#     4  11  23  37  56  87 118 143 177 218 264 316
#     4  11  21  38  60  84 113 143 178 220 265 313
#     4   9  18  32  54  83 110 135 170 215 262 307
#
# _framework density 17.364812000000001
#
# number of rings (size 3 to 8) (size 9 to 14) (size 15 to 20)
#    0.000    1.769    2.308    3.692    0.000    3.077 
#    0.000    0.385    0.000    0.000    0.000    0.538 
#    0.000    4.308    0.000    0.000    0.000    0.000 
#
# Total GULP energy -290015.321253 kJ/mol
# GULP energy per Si atom -5577.217716 kJ/mol
# Density = 1.732529 g / cm^3
# Si number density = 17.364812 Si / 1000 Ang^3
#
#
#
# Elastic Constant Matrix: (Units=GPa)
#
#
# Indices 1 2 3 4 5 6 
#
# 1 47.3109 22.7086 36.1266 0.0000 0.0000 0.0000
# 2 22.7086 94.6842 51.6545 0.0000 0.0000 0.0000
# 3 36.1266 51.6545 150.2250 0.0000 0.0000 0.0000
# 4 0.0000 0.0000 0.0000 16.4378 0.0000 0.0000
# 5 0.0000 0.0000 0.0000 0.0000 26.0672 0.0000
# 6 0.0000 0.0000 0.0000 0.0000 0.0000 22.8437
#
#
#
# Elastic Compliance Matrix: (Units=1/GPa)
#
#
# Indices 1 2 3 4 5 6 
#
# 1 0.026847 -0.003590 -0.005222 0.000000 0.000000 0.000000
# 2 -0.003590 0.013480 -0.003772 0.000000 0.000000 0.000000
# 3 -0.005222 -0.003772 0.009209 0.000000 0.000000 0.000000
# 4 0.000000 0.000000 0.000000 0.060835 0.000000 0.000000
# 5 0.000000 0.000000 0.000000 0.000000 0.038362 0.000000
# 6 0.000000 0.000000 0.000000 0.000000 0.000000 0.043776
#
#
# Mechanical properties :
#
#
# Convention : Reuss Voigt Hill
#
# Bulk Modulus (GPa) = 41.03517 57.02214 49.02865
# Shear Modulus (GPa) = 22.14339 25.18512 23.66426
#
# Velocity S-wave (km/s) = 3.57485 3.81248 3.69558
# Velocity P-wave (km/s) = 6.38137 7.23112 6.81949
#
# Compressibility (1/GPa) = 0.02436934
#
# Stress axis : x y z
#
# Youngs Moduli (GPa) = 37.24747 74.18331 108.58524
#
# Poissons Ratio (x) = 0.26633 0.56702
# Poissons Ratio (y) = 0.13373 0.40955
# Poissons Ratio (z) = 0.19450 0.27980
#
# Static dielectric constant tensor:
#      x y z
#    x 1.586570 0.000000 0.000000 
#    y 0.000000 1.573700 0.000000 
#    z 0.000000 0.000000 1.624520 
# 
# From -- ./inp_files/76952.got.cif
#   From: 2010.05.17/outbox.cif.g08.bks.cpg/sg65_39_cif.got.tgz:76952.got - 2010.06.03 17:01:31.
