data_PCOD9485359
_publ_section_title
;
Structure prediction by ZEFSAII (Michael W. Deem and Ramdas Pophale) SiO2 
 PCOD9485359
Probable space group: C M M M
;
_chemical_formula_sum "Si O2"
_cell_formula_units_Z 104
_cell_length_a 27.781819
_cell_length_b 7.583080
_cell_length_c 28.044896
_cell_angle_alpha 90.000000
_cell_angle_beta 90.000000
_cell_angle_gamma 90.000000
_cell_volume 5908.267488
_symmetry_space_group_name_H-M "C M M M"
_symmetry_group_IT_number 65
_symmetry_cell_setting 'orthorhombic'
loop_
_space_group_symop_operation_xyz
x,y,z
-x,-y,z
x,-y,-z
-x,y,-z
-x,-y,-z
x,y,-z
-x,y,z
x,-y,z
1/2+x,1/2+y,z
1/2-x,1/2-y,z
1/2+x,1/2-y,-z
1/2-x,1/2+y,-z
1/2-x,1/2-y,-z
1/2+x,1/2+y,-z
1/2-x,1/2+y,z
1/2+x,1/2-y,z
loop_
_atom_site_type_symbol
_atom_site_label
_atom_site_fract_x
_atom_site_fract_y
_atom_site_fract_z
Si Si1 0.306646 0.212170 0.500000
Si Si2 0.400675 0.706301 0.253018
Si Si3 0.057706 0.787488 0.948684
Si Si4 0.694921 0.790328 0.302010
Si Si5 0.945779 0.786640 0.351861
Si Si6 0.651539 0.790880 0.599175
Si Si7 0.556455 0.284552 0.154966
O O1 0.250000 0.250000 0.500000
O O2 0.330669 0.281337 0.548698
O O3 0.312930 0.000000 0.500000
O O4 0.413798 0.500000 0.251495
O O5 0.344371 0.720837 0.264883
O O6 0.428301 0.779016 0.299650
O O7 0.415932 0.779634 0.201864
O O8 0.075018 0.722941 0.896978
O O9 0.000000 0.757411 0.948280
O O10 0.064173 0.000000 0.949210
O O11 0.076122 0.720083 0.000000
O O12 0.750000 0.750000 0.291251
O O13 0.680181 0.719432 0.354589
O O14 0.688760 0.000000 0.302908
O O15 0.904684 0.734910 0.389323
O O16 0.000000 0.727256 0.362170
O O17 0.945945 0.000000 0.350437
O O18 0.660967 0.000000 0.598136
O O19 0.500000 0.239067 0.159636
O O20 0.558737 0.500000 0.153737
#
# Coordination Sequence:
#
# PCOD9485359 Si02
#       7
#     8  16  16  16  16  16  16
#     4  10  20  34  51  70  89 107 132 167 207 248
#     4   9  16  26  41  61  84 109 138 171 204 238
#     4   7   9  13  22  40  70 106 138 166 197 231
#     4  10  19  31  46  63  83 106 132 162 200 245
#     4   9  17  29  45  64  86 113 144 174 201 232
#     4   9  19  33  48  67  88 109 134 164 199 243
#     4   8  12  18  31  52  78 109 142 171 198 231
#
# _framework density 17.602453000000001
#
# number of rings (size 3 to 8) (size 9 to 14) (size 15 to 20)
#    0.000    3.231    0.000    2.769    0.000    3.385 
#    0.000    0.385    0.000    3.692    0.000    0.000 
#    0.000    1.231    0.000    4.923    0.000    4.615 
#
# Total GULP energy -289600.624797 kJ/mol
# GULP energy per Si atom -5569.242785 kJ/mol
# Density = 1.756239 g / cm^3
# Si number density = 17.602453 Si / 1000 Ang^3
#
#
#
# Elastic Constant Matrix: (Units=GPa)
#
#
# Indices 1 2 3 4 5 6 
#
# 1 85.0390 -16.3590 71.6500 0.0000 0.0000 0.0000
# 2 -16.3590 35.2599 4.2133 0.0000 0.0000 0.0000
# 3 71.6500 4.2133 186.4875 0.0000 0.0000 0.0000
# 4 0.0000 0.0000 0.0000 -22.5892 0.0000 0.0000
# 5 0.0000 0.0000 0.0000 0.0000 18.1686 0.0000
# 6 0.0000 0.0000 0.0000 0.0000 0.0000 10.1913
#
#
#
# Elastic Compliance Matrix: (Units=1/GPa)
#
#
# Indices 1 2 3 4 5 6 
#
# 1 0.020696 0.010581 -0.008190 0.000000 0.000000 0.000000
# 2 0.010581 0.033847 -0.004830 0.000000 0.000000 0.000000
# 3 -0.008190 -0.004830 0.008618 0.000000 0.000000 0.000000
# 4 0.000000 0.000000 0.000000 -0.044269 0.000000 0.000000
# 5 0.000000 0.000000 0.000000 0.000000 0.055040 0.000000
# 6 0.000000 0.000000 0.000000 0.000000 0.000000 0.098123
#
#
# Mechanical properties :
#
#
# Convention : Reuss Voigt Hill
#
# Bulk Modulus (GPa) = 17.15820 47.31056 32.23438
# Shear Modulus (GPa) = 25.46328 17.63962 21.55145
#
# Velocity S-wave (km/s) = 3.80751 3.16905 3.50286
# Velocity P-wave (km/s) = 5.39429 6.35028 5.89171
#
# Compressibility (1/GPa) = 0.05828118
#
# Stress axis : x y z
#
# Youngs Moduli (GPa) = 48.31946 29.54485 116.03280
#
# Poissons Ratio (x) = -0.31260 0.95036
# Poissons Ratio (y) = -0.51125 0.56042
# Poissons Ratio (z) = 0.39576 0.14270
#
# Static dielectric constant tensor:
#      x y z
#    x 1.567920 0.000000 0.000000 
#    y 0.000000 1.708400 0.000000 
#    z 0.000000 0.000000 1.652380 
# 
# From -- ./inp_files/76242.got.cif
#   From: 2010.05.17/outbox.cif.g08.bks.cpg/sg65_39_cif.got.tgz:76242.got - 2010.06.03 17:01:31.
