data_PCOD9485111
_publ_section_title
;
Structure prediction by ZEFSAII (Michael W. Deem and Ramdas Pophale) SiO2 
 PCOD9485111
Probable space group: C M M M
;
_chemical_formula_sum "Si O2"
_cell_formula_units_Z 104
_cell_length_a 27.828754
_cell_length_b 8.074404
_cell_length_c 29.147587
_cell_angle_alpha 90.000000
_cell_angle_beta 90.000000
_cell_angle_gamma 90.000000
_cell_volume 6549.480364
_symmetry_space_group_name_H-M "C M M M"
_symmetry_group_IT_number 65
_symmetry_cell_setting 'orthorhombic'
loop_
_space_group_symop_operation_xyz
x,y,z
-x,-y,z
x,-y,-z
-x,y,-z
-x,-y,-z
x,y,-z
-x,y,z
x,-y,z
1/2+x,1/2+y,z
1/2-x,1/2-y,z
1/2+x,1/2-y,-z
1/2-x,1/2+y,-z
1/2-x,1/2-y,-z
1/2+x,1/2+y,-z
1/2-x,1/2+y,z
1/2+x,1/2-y,z
loop_
_atom_site_type_symbol
_atom_site_label
_atom_site_fract_x
_atom_site_fract_y
_atom_site_fract_z
Si Si1 0.900211 0.693540 0.689940
Si Si2 0.652697 0.200708 0.448847
Si Si3 0.058549 0.500000 0.052955
Si Si4 0.945840 0.197490 0.217328
Si Si5 0.553555 0.202325 0.404020
Si Si6 0.441484 0.692022 0.884495
Si Si7 0.696494 0.305892 0.354529
O O1 0.910537 0.500000 0.692719
O O2 0.913507 0.765958 0.738935
O O3 0.932159 0.759858 0.647328
O O4 0.845347 0.718800 0.674535
O O5 0.665892 0.254933 0.500000
O O6 0.597714 0.250347 0.436724
O O7 0.685503 0.266415 0.407879
O O8 0.654632 0.000000 0.447253
O O9 0.073673 0.331835 0.079258
O O10 0.000000 0.500000 0.053633
O O11 0.073763 0.500000 0.000000
O O12 0.927732 0.249627 0.167041
O O13 0.000000 0.265006 0.224985
O O14 0.949773 0.000000 0.213412
O O15 0.500000 0.257147 0.416713
O O16 0.553352 0.000000 0.403695
O O17 0.500000 0.688258 0.884378
O O18 0.426138 0.500000 0.892965
O O19 0.691546 0.500000 0.347117
O O20 0.750000 0.250000 0.342933
#
# Coordination Sequence:
#
# PCOD9485111 Si02
#       7
#    16  16   8  16  16  16  16
#     4  10  19  30  46  69  91 114 147 181 217 269
#     4   9  18  32  49  70  93 114 141 176 213 257
#     4   9  16  24  36  54  76 110 160 206 241 279
#     4   9  17  28  42  63  92 123 153 189 231 270
#     4   8  14  25  41  64  92 116 140 171 207 247
#     4   8  15  26  37  53  81 114 151 198 242 277
#     4  11  22  37  54  68  86 110 138 178 221 267
#
# _framework density 15.879122000000001
#
# number of rings (size 3 to 8) (size 9 to 14) (size 15 to 20)
#    0.000    2.846    0.000    4.154    1.077    2.154 
#    0.000    3.077    0.000    4.154    0.000    4.308 
#    0.000    0.000    0.000    0.000    0.000    0.769 
#
# Total GULP energy -289678.111327 kJ/mol
# GULP energy per Si atom -5570.732910 kJ/mol
# Density = 1.584298 g / cm^3
# Si number density = 15.879122 Si / 1000 Ang^3
#
#
#
# Elastic Constant Matrix: (Units=GPa)
#
#
# Indices 1 2 3 4 5 6 
#
# 1 30.1413 -14.0344 -1.3286 0.0000 0.0000 0.0000
# 2 -14.0344 26.6547 18.6088 0.0000 0.0000 0.0000
# 3 -1.3286 18.6088 98.6824 0.0000 0.0000 0.0000
# 4 0.0000 0.0000 0.0000 21.5732 0.0000 0.0000
# 5 0.0000 0.0000 0.0000 0.0000 10.6459 0.0000
# 6 0.0000 0.0000 0.0000 0.0000 0.0000 11.9168
#
#
#
# Elastic Compliance Matrix: (Units=1/GPa)
#
#
# Indices 1 2 3 4 5 6 
#
# 1 0.045631 0.027175 -0.004510 0.000000 0.000000 0.000000
# 2 0.027175 0.059388 -0.010833 0.000000 0.000000 0.000000
# 3 -0.004510 -0.010833 0.012116 0.000000 0.000000 0.000000
# 4 0.000000 0.000000 0.000000 0.046354 0.000000 0.000000
# 5 0.000000 0.000000 0.000000 0.000000 0.093933 0.000000
# 6 0.000000 0.000000 0.000000 0.000000 0.000000 0.083915
#
#
# Mechanical properties :
#
#
# Convention : Reuss Voigt Hill
#
# Bulk Modulus (GPa) = 7.10235 17.99666 12.54950
# Shear Modulus (GPa) = 13.71342 18.97603 16.34473
#
# Velocity S-wave (km/s) = 2.94192 3.46067 3.21179
# Velocity P-wave (km/s) = 4.00279 5.22747 4.65558
#
# Compressibility (1/GPa) = 0.14079853
#
# Stress axis : x y z
#
# Youngs Moduli (GPa) = 21.91472 16.83839 82.53815
#
# Poissons Ratio (x) = -0.45758 0.37225
# Poissons Ratio (y) = -0.59553 0.89414
# Poissons Ratio (z) = 0.09884 0.18241
#
# Static dielectric constant tensor:
#      x y z
#    x 1.502650 0.000000 0.000000 
#    y 0.000000 1.564880 0.000000 
#    z 0.000000 0.000000 1.542990 
# 
# From -- ./inp_files/78462.got.cif
#   From: 2010.05.17/outbox.cif.g08.bks.cpg/sg65_40_cif.got.tgz:78462.got - 2010.06.03 17:01:31.
