data_PCOD9485821
_publ_section_title
;
Structure prediction by ZEFSAII (Michael W. Deem and Ramdas Pophale) SiO2 
 PCOD9485821
Probable space group: C M M M
;
_chemical_formula_sum "Si O2"
_cell_formula_units_Z 80
_cell_length_a 18.429888
_cell_length_b 7.622466
_cell_length_c 27.075606
_cell_angle_alpha 90.000000
_cell_angle_beta 90.000000
_cell_angle_gamma 90.000000
_cell_volume 3803.613477
_symmetry_space_group_name_H-M "C M M M"
_symmetry_group_IT_number 65
_symmetry_cell_setting 'orthorhombic'
loop_
_space_group_symop_operation_xyz
x,y,z
-x,-y,z
x,-y,-z
-x,y,-z
-x,-y,-z
x,y,-z
-x,y,z
x,-y,z
1/2+x,1/2+y,z
1/2-x,1/2-y,z
1/2+x,1/2-y,-z
1/2-x,1/2+y,-z
1/2-x,1/2-y,-z
1/2+x,1/2+y,-z
1/2-x,1/2+y,z
1/2+x,1/2-y,z
loop_
_atom_site_type_symbol
_atom_site_label
_atom_site_fract_x
_atom_site_fract_y
_atom_site_fract_z
Si Si1 0.917384 0.708062 0.500000
Si Si2 0.084071 0.214904 0.000000
Si Si3 0.083972 0.214867 0.197548
Si Si4 0.665212 0.710752 0.296218
Si Si5 0.335069 0.289520 0.098827
Si Si6 0.083001 0.790649 0.392811
O O1 0.922116 0.500000 0.500000
O O2 0.884627 0.759049 0.552695
O O3 0.000000 0.783511 0.500000
O O4 0.125292 0.274869 0.950681
O O5 0.000000 0.267517 0.000000
O O6 0.085231 0.000000 0.000000
O O7 0.123342 0.274724 0.247542
O O8 0.126615 0.274915 0.148810
O O9 0.000000 0.267628 0.196344
O O10 0.085156 0.000000 0.197592
O O11 0.657480 0.500000 0.296396
O O12 0.750000 0.750000 0.293646
O O13 0.629331 0.778102 0.346932
O O14 0.343075 0.500000 0.098879
O O15 0.250000 0.250000 0.098310
O O16 0.000000 0.720918 0.391776
O O17 0.078222 0.000000 0.387209
#
# Coordination Sequence:
#
# PCOD9485821 Si02
#       6
#     8   8  16  16  16  16
#     4   9  17  29  48  75 102 125 153 195 244 287
#     4   9  17  30  49  73  98 129 174 216 244 281
#     4   9  17  31  52  75  96 124 166 208 242 283
#     4  10  20  33  50  72  98 127 159 198 243 290
#     4  10  19  31  50  74 101 132 164 204 251 296
#     4   9  17  31  51  72  94 124 162 199 234 279
#
# _framework density 21.032630999999999
#
# number of rings (size 3 to 8) (size 9 to 14) (size 15 to 20)
#    0.000    2.600    0.000    2.400    0.000    6.800 
#    0.000    0.500    0.000    6.000    0.000    0.000 
#    0.000    0.000    0.000    0.000    0.000    0.000 
#
# Total GULP energy -223328.109932 kJ/mol
# GULP energy per Si atom -5583.202748 kJ/mol
# Density = 2.098476 g / cm^3
# Si number density = 21.032631 Si / 1000 Ang^3
#
#
#
# Elastic Constant Matrix: (Units=GPa)
#
#
# Indices 1 2 3 4 5 6 
#
# 1 173.9363 -2.2157 138.7189 0.0000 0.0000 0.0000
# 2 -2.2157 43.0973 9.6759 0.0000 0.0000 0.0000
# 3 138.7189 9.6759 270.4579 0.0000 0.0000 0.0000
# 4 0.0000 0.0000 0.0000 1.4474 0.0000 0.0000
# 5 0.0000 0.0000 0.0000 0.0000 34.6404 0.0000
# 6 0.0000 0.0000 0.0000 0.0000 0.0000 23.5534
#
#
#
# Elastic Compliance Matrix: (Units=1/GPa)
#
#
# Indices 1 2 3 4 5 6 
#
# 1 0.009844 0.001653 -0.005108 0.000000 0.000000 0.000000
# 2 0.001653 0.023669 -0.001695 0.000000 0.000000 0.000000
# 3 -0.005108 -0.001695 0.006378 0.000000 0.000000 0.000000
# 4 0.000000 0.000000 0.000000 0.690909 0.000000 0.000000
# 5 0.000000 0.000000 0.000000 0.000000 0.028868 0.000000
# 6 0.000000 0.000000 0.000000 0.000000 0.000000 0.042457
#
#
# Mechanical properties :
#
#
# Convention : Reuss Voigt Hill
#
# Bulk Modulus (GPa) = 33.79369 86.64996 60.22182
# Shear Modulus (GPa) = 6.08059 34.68241 20.38150
#
# Velocity S-wave (km/s) = 1.70215 4.06517 3.11632
# Velocity P-wave (km/s) = 4.46825 7.95748 6.45316
#
# Compressibility (1/GPa) = 0.02959133
#
# Stress axis : x y z
#
# Youngs Moduli (GPa) = 101.58145 42.24983 156.78552
#
# Poissons Ratio (x) = -0.06984 0.80091
# Poissons Ratio (y) = -0.16791 0.26569
# Poissons Ratio (z) = 0.51891 0.07160
#
# Static dielectric constant tensor:
#      x y z
#    x 1.702820 0.000000 0.000000 
#    y 0.000000 1.792080 0.000000 
#    z 0.000000 0.000000 1.760510 
# 
# From -- ./inp_files/72864.got.cif
#   From: 2010.05.17/outbox.cif.g08.bks.cpg/sg65_37_cif.got.tgz:72864.got - 2010.06.03 17:01:31.
