data_PCOD9485522
_publ_section_title
;
Structure prediction by ZEFSAII (Michael W. Deem and Ramdas Pophale) SiO2 
 PCOD9485522
Probable space group: C M M M
;
_chemical_formula_sum "Si O2"
_cell_formula_units_Z 120
_cell_length_a 27.676140
_cell_length_b 28.758200
_cell_length_c 7.443752
_cell_angle_alpha 90.000000
_cell_angle_beta 90.000000
_cell_angle_gamma 90.000000
_cell_volume 5924.601089
_symmetry_space_group_name_H-M "C M M M"
_symmetry_group_IT_number 65
_symmetry_cell_setting 'orthorhombic'
loop_
_space_group_symop_operation_xyz
x,y,z
-x,-y,z
x,-y,-z
-x,y,-z
-x,-y,-z
x,y,-z
-x,y,z
x,-y,z
1/2+x,1/2+y,z
1/2-x,1/2-y,z
1/2+x,1/2-y,-z
1/2-x,1/2+y,-z
1/2-x,1/2-y,-z
1/2+x,1/2+y,-z
1/2-x,1/2+y,z
1/2+x,1/2-y,z
loop_
_atom_site_type_symbol
_atom_site_label
_atom_site_fract_x
_atom_site_fract_y
_atom_site_fract_z
Si Si1 0.444964 0.697525 0.719306
Si Si2 0.146637 0.142408 0.283971
Si Si3 0.000000 0.554377 0.781178
Si Si4 0.944092 0.303029 0.283212
Si Si5 0.256828 0.698036 0.786113
Si Si6 0.299962 0.448127 0.714443
Si Si7 0.796760 0.606693 0.216496
Si Si8 0.402247 0.899109 0.206072
O O1 0.445194 0.697284 0.500000
O O2 0.500000 0.687881 0.776140
O O3 0.404444 0.661744 0.781650
O O4 0.432093 0.750461 0.772327
O O5 0.143492 0.139139 0.500000
O O6 0.189167 0.179024 0.243534
O O7 0.164768 0.092421 0.215120
O O8 0.049366 0.578200 0.714044
O O9 0.000000 0.500000 0.739781
O O10 0.000000 0.559708 0.000000
O O11 0.941744 0.304982 0.500000
O O12 0.911136 0.343734 0.208845
O O13 0.000000 0.311881 0.231085
O O14 0.250000 0.750000 0.713447
O O15 0.221501 0.657231 0.716269
O O16 0.248562 0.700287 0.000000
O O17 0.307138 0.450067 0.500000
O O18 0.306898 0.500000 0.786381
O O19 0.245653 0.429653 0.744150
O O20 0.849426 0.592528 0.286314
O O21 0.800510 0.610126 0.000000
O O22 0.400315 0.915830 0.000000
#
# Coordination Sequence:
#
# PCOD9485522 Si02
#       8
#    16  16   8  16  16  16  16  16
#     4   8  15  28  46  70  98 127 158 189 223 269
#     4   9  17  30  49  71  93 122 161 195 225 274
#     4   9  18  32  47  63  85 113 145 187 236 275
#     4   9  17  29  45  65  91 123 154 183 222 271
#     4   9  18  31  44  63  96 130 152 184 237 282
#     4   9  18  33  51  70  93 120 153 197 243 278
#     4   9  19  32  46  68  93 120 157 193 229 279
#     4  10  19  31  48  68  89 115 152 195 234 276
#
# _framework density 20.254529000000002
#
# number of rings (size 3 to 8) (size 9 to 14) (size 15 to 20)
#    0.000    3.000    0.667    0.800    1.867    1.600 
#    0.000    1.333    0.000    2.400    0.000    2.800 
#    0.000    0.000    0.000    6.667    0.000    6.933 
#
# Total GULP energy -334712.997499 kJ/mol
# GULP energy per Si atom -5578.549958 kJ/mol
# Density = 2.020843 g / cm^3
# Si number density = 20.254529 Si / 1000 Ang^3
#
#
#
# Elastic Constant Matrix: (Units=GPa)
#
#
# Indices 1 2 3 4 5 6 
#
# 1 104.8928 71.2857 -10.9524 0.0000 0.0000 0.0000
# 2 71.2857 141.9448 -3.3249 0.0000 0.0000 0.0000
# 3 -10.9524 -3.3249 61.0340 0.0000 0.0000 0.0000
# 4 0.0000 0.0000 0.0000 16.7073 0.0000 0.0000
# 5 0.0000 0.0000 0.0000 0.0000 12.3862 0.0000
# 6 0.0000 0.0000 0.0000 0.0000 0.0000 10.8271
#
#
#
# Elastic Compliance Matrix: (Units=1/GPa)
#
#
# Indices 1 2 3 4 5 6 
#
# 1 0.014776 -0.007368 0.002250 0.000000 0.000000 0.000000
# 2 -0.007368 0.010728 -0.000738 0.000000 0.000000 0.000000
# 3 0.002250 -0.000738 0.016748 0.000000 0.000000 0.000000
# 4 0.000000 0.000000 0.000000 0.059854 0.000000 0.000000
# 5 0.000000 0.000000 0.000000 0.000000 0.080735 0.000000
# 6 0.000000 0.000000 0.000000 0.000000 0.000000 0.092361
#
#
# Mechanical properties :
#
#
# Convention : Reuss Voigt Hill
#
# Bulk Modulus (GPa) = 32.74320 46.87648 39.80984
# Shear Modulus (GPa) = 16.82978 24.70832 20.76905
#
# Velocity S-wave (km/s) = 2.88569 3.49648 3.20566
# Velocity P-wave (km/s) = 5.22531 6.28446 5.77920
#
# Compressibility (1/GPa) = 0.03054069
#
# Stress axis : x y z
#
# Youngs Moduli (GPa) = 67.67894 93.21537 59.70894
#
# Poissons Ratio (x) = 0.68679 -0.13435
# Poissons Ratio (y) = 0.49864 0.04405
# Poissons Ratio (z) = -0.15228 0.06877
#
# Static dielectric constant tensor:
#      x y z
#    x 1.710610 0.000000 0.000000 
#    y 0.000000 1.708340 0.000000 
#    z 0.000000 0.000000 1.809930 
# 
# From -- ./inp_files/17103.got.cif
#   From: 2010.05.17/outbox.cif.g08.bks.cpg/sg65_9_cif.got.tgz:17103.got - 2010.06.03 17:01:31.
