data_PCOD9485357
_publ_section_title
;
Structure prediction by ZEFSAII (Michael W. Deem and Ramdas Pophale) SiO2 
 PCOD9485357
Probable space group: C M M M
;
_chemical_formula_sum "Si O2"
_cell_formula_units_Z 96
_cell_length_a 9.013569
_cell_length_b 25.894439
_cell_length_c 27.889002
_cell_angle_alpha 90.000000
_cell_angle_beta 90.000000
_cell_angle_gamma 90.000000
_cell_volume 6509.329675
_symmetry_space_group_name_H-M "C M M M"
_symmetry_group_IT_number 65
_symmetry_cell_setting 'orthorhombic'
loop_
_space_group_symop_operation_xyz
x,y,z
-x,-y,z
x,-y,-z
-x,y,-z
-x,-y,-z
x,y,-z
-x,y,z
x,-y,z
1/2+x,1/2+y,z
1/2-x,1/2-y,z
1/2+x,1/2-y,-z
1/2-x,1/2+y,-z
1/2-x,1/2-y,-z
1/2+x,1/2+y,-z
1/2-x,1/2+y,z
1/2+x,1/2-y,z
loop_
_atom_site_type_symbol
_atom_site_label
_atom_site_fract_x
_atom_site_fract_y
_atom_site_fract_z
Si Si1 0.322358 0.902206 0.108758
Si Si2 0.828688 0.437074 0.500000
Si Si3 0.176095 0.805495 0.056940
Si Si4 0.829461 0.562793 0.695919
Si Si5 0.825114 0.062213 0.795033
Si Si6 0.828639 0.937047 0.401834
Si Si7 0.825814 0.000000 0.057489
O O1 0.500000 0.902961 0.106218
O O2 0.256509 0.849857 0.086842
O O3 0.266356 0.910816 0.162928
O O4 0.253474 0.949684 0.078667
O O5 0.825603 0.500000 0.500000
O O6 0.747781 0.420312 0.548695
O O7 0.000000 0.421371 0.500000
O O8 0.250000 0.750000 0.066384
O O9 0.000000 0.804418 0.066976
O O10 0.194202 0.816344 0.000000
O O11 0.829402 0.500000 0.694834
O O12 0.735451 0.577331 0.742696
O O13 0.757229 0.580009 0.645897
O O14 0.000000 0.579507 0.700035
O O15 0.000000 0.073009 0.799432
O O16 0.805612 0.000000 0.800092
O O17 0.000000 0.921425 0.400195
O O18 0.825561 0.000000 0.401803
O O19 0.000000 0.000000 0.071679
O O20 0.818054 0.000000 0.000000
#
# Coordination Sequence:
#
# PCOD9485357 Si02
#       7
#    16   8  16  16  16  16   8
#     4  12  23  34  51  73  97 122 151 185 224 269
#     4   9  15  21  29  41  59  83 115 159 210 253
#     4  10  21  38  58  77  97 121 150 184 222 265
#     4   9  16  25  37  52  72  97 130 169 210 255
#     4  10  19  31  46  62  85 115 146 179 219 264
#     4   9  15  22  31  44  62  87 121 160 206 255
#     4  11  23  37  51  69  95 125 153 182 221 268
#
# _framework density 14.748061999999999
#
# number of rings (size 3 to 8) (size 9 to 14) (size 15 to 20)
#    0.000    2.000    0.833    4.500    0.000    9.333 
#    0.000    0.000    0.000    0.000    0.000    0.000 
#    0.000    0.000    0.000    0.000    0.000    0.000 
#
# Total GULP energy -267798.587741 kJ/mol
# GULP energy per Si atom -5579.137245 kJ/mol
# Density = 1.471450 g / cm^3
# Si number density = 14.748062 Si / 1000 Ang^3
#
#
#
# Elastic Constant Matrix: (Units=GPa)
#
#
# Indices 1 2 3 4 5 6 
#
# 1 151.9018 44.0114 80.0202 0.0000 0.0000 0.0000
# 2 44.0114 49.1734 44.9475 0.0000 0.0000 0.0000
# 3 80.0202 44.9475 122.6762 0.0000 0.0000 0.0000
# 4 0.0000 0.0000 0.0000 17.5897 0.0000 0.0000
# 5 0.0000 0.0000 0.0000 0.0000 29.2103 0.0000
# 6 0.0000 0.0000 0.0000 0.0000 0.0000 16.3232
#
#
#
# Elastic Compliance Matrix: (Units=1/GPa)
#
#
# Indices 1 2 3 4 5 6 
#
# 1 0.010741 -0.004825 -0.005238 0.000000 0.000000 0.000000
# 2 -0.004825 0.032744 -0.008850 0.000000 0.000000 0.000000
# 3 -0.005238 -0.008850 0.014811 0.000000 0.000000 0.000000
# 4 0.000000 0.000000 0.000000 0.056851 0.000000 0.000000
# 5 0.000000 0.000000 0.000000 0.000000 0.034235 0.000000
# 6 0.000000 0.000000 0.000000 0.000000 0.000000 0.061263
#
#
# Mechanical properties :
#
#
# Convention : Reuss Voigt Hill
#
# Bulk Modulus (GPa) = 48.85330 73.52328 61.18829
# Shear Modulus (GPa) = 19.58535 22.94279 21.26407
#
# Velocity S-wave (km/s) = 3.64812 3.94845 3.80125
# Velocity P-wave (km/s) = 7.13738 8.41119 7.80033
#
# Compressibility (1/GPa) = 0.02046945
#
# Stress axis : x y z
#
# Youngs Moduli (GPa) = 93.10496 30.53984 67.51866
#
# Poissons Ratio (x) = 0.14736 0.35366
# Poissons Ratio (y) = 0.44925 0.59752
# Poissons Ratio (z) = 0.48769 0.27027
#
# Static dielectric constant tensor:
#      x y z
#    x 1.491180 0.000000 0.000000 
#    y 0.000000 1.448990 0.000000 
#    z 0.000000 0.000000 1.490900 
# 
# From -- ./inp_files/73518.got.cif
#   From: 2010.05.17/outbox.cif.g08.bks.cpg/sg65_37_cif.got.tgz:73518.got - 2010.06.03 17:01:31.
