data_PCOD9485577
_publ_section_title
;
Structure prediction by ZEFSAII (Michael W. Deem and Ramdas Pophale) SiO2 
 PCOD9485577
Probable space group: C M M M
;
_chemical_formula_sum "Si O2"
_cell_formula_units_Z 64
_cell_length_a 7.229228
_cell_length_b 31.494455
_cell_length_c 11.879642
_cell_angle_alpha 90.000000
_cell_angle_beta 90.000000
_cell_angle_gamma 90.000000
_cell_volume 2704.763970
_symmetry_space_group_name_H-M "C M M M"
_symmetry_group_IT_number 65
_symmetry_cell_setting 'orthorhombic'
loop_
_space_group_symop_operation_xyz
x,y,z
-x,-y,z
x,-y,-z
-x,y,-z
-x,-y,-z
x,y,-z
-x,y,z
x,-y,z
1/2+x,1/2+y,z
1/2-x,1/2-y,z
1/2+x,1/2-y,-z
1/2-x,1/2+y,-z
1/2-x,1/2-y,-z
1/2+x,1/2+y,-z
1/2-x,1/2+y,z
1/2+x,1/2-y,z
loop_
_atom_site_type_symbol
_atom_site_label
_atom_site_fract_x
_atom_site_fract_y
_atom_site_fract_z
Si Si1 0.726628 0.194251 0.000000
Si Si2 0.274333 0.585657 0.248786
Si Si3 0.725106 0.500000 0.628271
Si Si4 0.774942 0.174242 0.367367
Si Si5 0.750000 0.750000 0.789722
Si Si6 0.287157 0.594675 0.000000
O O1 0.805887 0.215920 0.112297
O O2 0.500000 0.198809 0.000000
O O3 0.777431 0.145514 0.000000
O O4 0.500000 0.586857 0.247251
O O5 0.216671 0.543611 0.313919
O O6 0.220948 0.629737 0.308941
O O7 0.208638 0.582018 0.120356
O O8 0.500000 0.500000 0.631307
O O9 0.783037 0.500000 0.500000
O O10 0.730624 0.173994 0.500000
O O11 0.691328 0.214067 0.300560
O O12 0.000000 0.178875 0.357634
O O13 0.500000 0.580037 0.000000
#
# Coordination Sequence:
#
# PCOD9485577 Si02
#       6
#     8  16   8  16   8   8
#     4  11  23  35  53  76 102 139 184 224 261 312
#     4   9  17  29  47  72 102 137 168 205 260 315
#     4   9  16  27  45  73 107 135 164 208 261 318
#     4  10  19  31  48  71 101 136 172 210 257 312
#     4  11  21  34  50  70 101 135 178 220 266 305
#     4  10  19  34  54  74 105 140 173 217 267 313
#
# _framework density 23.661954999999999
#
# number of rings (size 3 to 8) (size 9 to 14) (size 15 to 20)
#    0.000    2.125    2.500    1.875    0.000    5.500 
#    0.000    2.500    0.000    0.000    0.000    1.750 
#    0.000    1.000    0.000    0.000    0.000    0.000 
#
# Total GULP energy -178302.009543 kJ/mol
# GULP energy per Si atom -5571.937798 kJ/mol
# Density = 2.360810 g / cm^3
# Si number density = 23.661955 Si / 1000 Ang^3
#
#
#
# Elastic Constant Matrix: (Units=GPa)
#
#
# Indices 1 2 3 4 5 6 
#
# 1 132.1901 4.5396 20.9056 0.0000 0.0000 0.0000
# 2 4.5396 208.6148 133.2018 0.0000 0.0000 0.0000
# 3 20.9056 133.2018 289.8719 0.0000 0.0000 0.0000
# 4 0.0000 0.0000 0.0000 89.7547 0.0000 0.0000
# 5 0.0000 0.0000 0.0000 0.0000 -29.5795 0.0000
# 6 0.0000 0.0000 0.0000 0.0000 0.0000 -39.5370
#
#
#
# Elastic Compliance Matrix: (Units=1/GPa)
#
#
# Indices 1 2 3 4 5 6 
#
# 1 0.007662 0.000263 -0.000674 0.000000 0.000000 0.000000
# 2 0.000263 0.006793 -0.003141 0.000000 0.000000 0.000000
# 3 -0.000674 -0.003141 0.004942 0.000000 0.000000 0.000000
# 4 0.000000 0.000000 0.000000 0.011141 0.000000 0.000000
# 5 0.000000 0.000000 0.000000 0.000000 -0.033807 0.000000
# 6 0.000000 0.000000 0.000000 0.000000 0.000000 -0.025293
#
#
# Mechanical properties :
#
#
# Convention : Reuss Voigt Hill
#
# Bulk Modulus (GPa) = 81.33163 105.33010 93.33086
# Shear Modulus (GPa) = -287.99210 35.59629 -126.19791
#
# Velocity S-wave (km/s) = -11.04424 3.88283 -7.31091
# Velocity P-wave (km/s) = 11.32196 8.04444 5.63355
#
# Compressibility (1/GPa) = 0.01229534
#
# Stress axis : x y z
#
# Youngs Moduli (GPa) = 130.50817 147.20956 202.36706
#
# Poissons Ratio (x) = -0.03877 0.13632
# Poissons Ratio (y) = -0.03437 0.63554
# Poissons Ratio (z) = 0.08792 0.46232
#
# Static dielectric constant tensor:
#      x y z
#    x 2.130640 0.000000 0.000000 
#    y 0.000000 1.799850 0.000000 
#    z 0.000000 0.000000 1.835340 
# 
# From -- ./inp_files/21066.got.cif
#   From: 2010.05.17/outbox.cif.g08.bks.cpg/sg65_11_cif.got.tgz:21066.got - 2010.06.03 17:01:31.
