data_PCOD9485967
_publ_section_title
;
Structure prediction by ZEFSAII (Michael W. Deem and Ramdas Pophale) SiO2 
 PCOD9485967
Probable space group: C M M M
;
_chemical_formula_sum "Si O2"
_cell_formula_units_Z 80
_cell_length_a 8.482183
_cell_length_b 18.835532
_cell_length_c 26.958641
_cell_angle_alpha 90.000000
_cell_angle_beta 90.000000
_cell_angle_gamma 90.000000
_cell_volume 4307.085812
_symmetry_space_group_name_H-M "C M M M"
_symmetry_group_IT_number 65
_symmetry_cell_setting 'orthorhombic'
loop_
_space_group_symop_operation_xyz
x,y,z
-x,-y,z
x,-y,-z
-x,y,-z
-x,-y,-z
x,y,-z
-x,y,z
x,-y,z
1/2+x,1/2+y,z
1/2-x,1/2-y,z
1/2+x,1/2-y,-z
1/2-x,1/2+y,-z
1/2-x,1/2-y,-z
1/2+x,1/2+y,-z
1/2-x,1/2+y,z
1/2+x,1/2-y,z
loop_
_atom_site_type_symbol
_atom_site_label
_atom_site_fract_x
_atom_site_fract_y
_atom_site_fract_z
Si Si1 0.689498 0.331032 0.838013
Si Si2 0.688500 0.170191 0.648649
Si Si3 0.309579 0.331247 0.946756
Si Si4 0.690264 0.417970 0.443608
Si Si5 0.190593 0.581564 0.744477
O O1 0.500000 0.329720 0.836188
O O2 0.750000 0.250000 0.832978
O O3 0.739858 0.359479 0.892765
O O4 0.753094 0.378529 0.793629
O O5 0.500000 0.171450 0.649877
O O6 0.750000 0.250000 0.652105
O O7 0.742518 0.133076 0.598015
O O8 0.745158 0.124061 0.695714
O O9 0.500000 0.331198 0.946808
O O10 0.250000 0.250000 0.947020
O O11 0.257872 0.363278 0.000000
O O12 0.738696 0.399651 0.500000
O O13 0.500000 0.415310 0.441996
O O14 0.737294 0.500000 0.434192
O O15 0.244484 0.500000 0.743252
O O16 0.000000 0.581637 0.744113
#
# Coordination Sequence:
#
# PCOD9485967 Si02
#       5
#    16  16  16  16  16
#     4  10  19  31  51  78 105 135 172 212 257 309
#     4  11  23  38  57  81 108 139 176 217 262 310
#     4   8  14  25  42  67  99 131 164 205 251 299
#     4   9  19  37  60  85 113 144 177 214 257 304
#     4  10  22  39  56  75 102 135 172 217 266 313
#
# _framework density 18.574043
#
# number of rings (size 3 to 8) (size 9 to 14) (size 15 to 20)
#    0.000    2.400    0.000    3.000    0.000    6.400 
#    0.000    1.000    0.000    0.600    0.000    4.200 
#    0.000    0.000    0.000    0.000    0.000    0.000 
#
# Total GULP energy -223059.498154 kJ/mol
# GULP energy per Si atom -5576.487454 kJ/mol
# Density = 1.853177 g / cm^3
# Si number density = 18.574043 Si / 1000 Ang^3
#
#
#
# Elastic Constant Matrix: (Units=GPa)
#
#
# Indices 1 2 3 4 5 6 
#
# 1 16.5035 24.3722 28.9337 0.0000 0.0000 0.0000
# 2 24.3722 122.2633 112.9191 0.0000 0.0000 0.0000
# 3 28.9337 112.9191 205.8865 0.0000 0.0000 0.0000
# 4 0.0000 0.0000 0.0000 -76.0217 0.0000 0.0000
# 5 0.0000 0.0000 0.0000 0.0000 -0.4202 0.0000
# 6 0.0000 0.0000 0.0000 0.0000 0.0000 7.6124
#
#
#
# Elastic Compliance Matrix: (Units=1/GPa)
#
#
# Indices 1 2 3 4 5 6 
#
# 1 0.088977 -0.012541 -0.005626 0.000000 0.000000 0.000000
# 2 -0.012541 0.018342 -0.008298 0.000000 0.000000 0.000000
# 3 -0.005626 -0.008298 0.010199 0.000000 0.000000 0.000000
# 4 0.000000 0.000000 0.000000 -0.013154 0.000000 0.000000
# 5 0.000000 0.000000 0.000000 0.000000 -2.379798 0.000000
# 6 0.000000 0.000000 0.000000 0.000000 0.000000 0.131364
#
#
# Mechanical properties :
#
#
# Convention : Reuss Voigt Hill
#
# Bulk Modulus (GPa) = 15.48255 75.23371 45.35813
# Shear Modulus (GPa) = -2.41591 -1.87067 -2.14329
#
# Velocity S-wave (km/s) = -1.14172 -1.00465 -1.07537
# Velocity P-wave (km/s) = 2.57209 6.26474 4.78866
#
# Compressibility (1/GPa) = 0.06458886
#
# Stress axis : x y z
#
# Youngs Moduli (GPa) = 11.23891 54.51871 98.05339
#
# Poissons Ratio (x) = 0.68370 0.55167
# Poissons Ratio (y) = 0.14094 0.81360
# Poissons Ratio (z) = 0.06323 0.45237
#
# Static dielectric constant tensor:
#      x y z
#    x 1.664440 0.000000 0.000000 
#    y 0.000000 1.620810 0.000000 
#    z 0.000000 0.000000 1.673290 
# 
# From -- ./inp_files/72710.got.cif
#   From: 2010.05.17/outbox.cif.g08.bks.cpg/sg65_37_cif.got.tgz:72710.got - 2010.06.03 17:01:31.
