data_PCOD9485283
_publ_section_title
;
Structure prediction by ZEFSAII (Michael W. Deem and Ramdas Pophale) SiO2 
 PCOD9485283
Probable space group: C M M M
;
_chemical_formula_sum "Si O2"
_cell_formula_units_Z 120
_cell_length_a 24.736667
_cell_length_b 24.739120
_cell_length_c 12.360436
_cell_angle_alpha 90.000000
_cell_angle_beta 90.000000
_cell_angle_gamma 90.000000
_cell_volume 7564.134110
_symmetry_space_group_name_H-M "C M M M"
_symmetry_group_IT_number 65
_symmetry_cell_setting 'orthorhombic'
loop_
_space_group_symop_operation_xyz
x,y,z
-x,-y,z
x,-y,-z
-x,y,-z
-x,-y,-z
x,y,-z
-x,y,z
x,-y,z
1/2+x,1/2+y,z
1/2-x,1/2-y,z
1/2+x,1/2-y,-z
1/2-x,1/2+y,-z
1/2-x,1/2-y,-z
1/2+x,1/2+y,-z
1/2-x,1/2+y,z
1/2+x,1/2-y,z
loop_
_atom_site_type_symbol
_atom_site_label
_atom_site_fract_x
_atom_site_fract_y
_atom_site_fract_z
Si Si1 0.940833 0.846327 0.708485
Si Si2 0.334588 0.822449 0.870355
Si Si3 0.250000 0.250000 0.738455
Si Si4 0.082234 0.063263 0.878929
Si Si5 0.820911 0.842005 0.625341
Si Si6 0.698556 0.439425 0.211959
Si Si7 0.681680 0.058606 0.127649
Si Si8 0.559998 0.752089 0.124472
O O1 0.939152 0.900569 0.781241
O O2 0.886288 0.841024 0.639098
O O3 0.937305 0.798030 0.795316
O O4 0.000000 0.843337 0.653857
O O5 0.287143 0.789544 0.811246
O O6 0.339673 0.884219 0.830064
O O7 0.391135 0.792262 0.853104
O O8 0.323606 0.823170 0.000000
O O9 0.209448 0.211510 0.670116
O O10 0.147147 0.067811 0.865868
O O11 0.068024 0.000000 0.867711
O O12 0.066203 0.080936 0.000000
O O13 0.807359 0.849315 0.500000
O O14 0.802444 0.892669 0.698792
O O15 0.693481 0.500000 0.260152
O O16 0.754025 0.437843 0.146341
O O17 0.663830 0.000000 0.173277
O O18 0.670032 0.057453 0.000000
O O19 0.500000 0.776939 0.134696
O O20 0.565755 0.733420 0.000000
#
# Coordination Sequence:
#
# PCOD9485283 Si02
#       8
#    16  16   8  16  16  16  16  16
#     4  10  20  34  49  66  90 123 162 202 240 281
#     4  10  19  30  49  76 103 129 154 184 227 285
#     4  12  20  36  48  74 100 126 152 190 238 300
#     4   9  17  28  44  68  97 127 158 193 237 288
#     4  11  23  36  51  68  90 124 161 205 250 285
#     4   9  17  31  48  67  92 124 160 198 239 285
#     4   9  16  27  46  72 100 127 154 185 226 278
#     4   9  17  30  48  70  96 126 157 187 225 277
#
# _framework density 15.864341
#
# number of rings (size 3 to 8) (size 9 to 14) (size 15 to 20)
#    0.000    2.267    2.667    1.200    0.000    3.200 
#    0.000    0.667    0.000    0.400    0.000    6.533 
#    0.000    0.000    0.000    0.000    0.000    8.133 
#
# Total GULP energy -334127.082949 kJ/mol
# GULP energy per Si atom -5568.784716 kJ/mol
# Density = 1.582823 g / cm^3
# Si number density = 15.864341 Si / 1000 Ang^3
#
#
#
# Elastic Constant Matrix: (Units=GPa)
#
#
# Indices 1 2 3 4 5 6 
#
# 1 44.5937 15.1504 8.2332 0.0000 0.0000 0.0000
# 2 15.1504 91.0945 22.2212 0.0000 0.0000 0.0000
# 3 8.2332 22.2212 40.1865 0.0000 0.0000 0.0000
# 4 0.0000 0.0000 0.0000 10.6028 0.0000 0.0000
# 5 0.0000 0.0000 0.0000 0.0000 9.3172 0.0000
# 6 0.0000 0.0000 0.0000 0.0000 0.0000 16.0047
#
#
#
# Elastic Compliance Matrix: (Units=1/GPa)
#
#
# Indices 1 2 3 4 5 6 
#
# 1 0.024107 -0.003242 -0.003146 0.000000 0.000000 0.000000
# 2 -0.003242 0.013125 -0.006593 0.000000 0.000000 0.000000
# 3 -0.003146 -0.006593 0.029174 0.000000 0.000000 0.000000
# 4 0.000000 0.000000 0.000000 0.094314 0.000000 0.000000
# 5 0.000000 0.000000 0.000000 0.000000 0.107328 0.000000
# 6 0.000000 0.000000 0.000000 0.000000 0.000000 0.062482
#
#
# Mechanical properties :
#
#
# Convention : Reuss Voigt Hill
#
# Bulk Modulus (GPa) = 24.72591 29.67602 27.20096
# Shear Modulus (GPa) = 13.51443 15.86961 14.69202
#
# Velocity S-wave (km/s) = 2.92186 3.16623 3.04650
# Velocity P-wave (km/s) = 5.19641 5.66687 5.43673
#
# Compressibility (1/GPa) = 0.04044341
#
# Stress axis : x y z
#
# Youngs Moduli (GPa) = 41.48177 76.18958 34.27660
#
# Poissons Ratio (x) = 0.24700 0.10784
# Poissons Ratio (y) = 0.13448 0.22600
# Poissons Ratio (z) = 0.13051 0.50235
#
# Static dielectric constant tensor:
#      x y z
#    x 1.546200 0.000000 0.000000 
#    y 0.000000 1.551410 0.000000 
#    z 0.000000 0.000000 1.500620 
# 
# From -- ./inp_files/31328.got.cif
#   From: 2010.05.17/outbox.cif.g08.bks.cpg/sg65_16_cif.got.tgz:31328.got - 2010.06.03 17:01:31.
