data_PCOD9485081
_publ_section_title
;
Structure prediction by ZEFSAII (Michael W. Deem and Ramdas Pophale) SiO2 
 PCOD9485081
Probable space group: C M M M
;
_chemical_formula_sum "Si O2"
_cell_formula_units_Z 88
_cell_length_a 14.918289
_cell_length_b 7.987923
_cell_length_c 32.470015
_cell_angle_alpha 90.000000
_cell_angle_beta 90.000000
_cell_angle_gamma 90.000000
_cell_volume 3869.326477
_symmetry_space_group_name_H-M "C M M M"
_symmetry_group_IT_number 65
_symmetry_cell_setting 'orthorhombic'
loop_
_space_group_symop_operation_xyz
x,y,z
-x,-y,z
x,-y,-z
-x,y,-z
-x,-y,-z
x,y,-z
-x,y,z
x,-y,z
1/2+x,1/2+y,z
1/2-x,1/2-y,z
1/2+x,1/2-y,-z
1/2-x,1/2+y,-z
1/2-x,1/2-y,-z
1/2+x,1/2+y,-z
1/2-x,1/2+y,z
1/2+x,1/2-y,z
loop_
_atom_site_type_symbol
_atom_site_label
_atom_site_fract_x
_atom_site_fract_y
_atom_site_fract_z
Si Si1 0.099624 0.700983 0.224094
Si Si2 0.352274 0.699170 0.132188
Si Si3 0.644306 0.702686 0.955692
Si Si4 0.609934 0.195742 0.311502
Si Si5 0.109606 0.817672 0.399751
Si Si6 0.610026 0.000000 0.547354
O O1 0.097657 0.500000 0.228611
O O2 0.128149 0.734258 0.177625
O O3 0.143630 0.760586 0.266914
O O4 0.000000 0.772073 0.225220
O O5 0.365300 0.500000 0.134143
O O6 0.250000 0.750000 0.126704
O O7 0.394304 0.760096 0.088638
O O8 0.637878 0.500000 0.955265
O O9 0.750000 0.750000 0.956566
O O10 0.607169 0.761115 0.000000
O O11 0.500000 0.201517 0.309940
O O12 0.637988 0.291855 0.352351
O O13 0.633304 0.000000 0.316775
O O14 0.139237 0.664617 0.427938
O O15 0.000000 0.813673 0.399536
O O16 0.137715 0.000000 0.414830
O O17 0.500000 0.000000 0.547650
O O18 0.638471 0.000000 0.500000
#
# Coordination Sequence:
#
# PCOD9485081 Si02
#       6
#    16  16  16  16  16   8
#     4   9  18  31  47  66  89 118 150 188 230 271
#     4  10  19  30  46  67  92 119 147 184 226 276
#     4   8  14  25  41  61  83 108 141 180 221 263
#     4   8  13  24  40  55  74 101 134 175 220 261
#     4   9  15  22  34  50  68  95 133 177 219 261
#     4   9  16  24  32  44  68 100 134 176 221 265
#
# _framework density 22.742978000000001
#
# number of rings (size 3 to 8) (size 9 to 14) (size 15 to 20)
#    0.000    3.182    0.909    1.636    0.000    2.182 
#    0.000    3.636    0.000    0.545    0.000    3.818 
#    0.000    0.000    0.000    0.000    0.000    0.909 
#
# Total GULP energy -244999.724681 kJ/mol
# GULP energy per Si atom -5568.175561 kJ/mol
# Density = 2.269121 g / cm^3
# Si number density = 22.742978 Si / 1000 Ang^3
#
#
#
# Elastic Constant Matrix: (Units=GPa)
#
#
# Indices 1 2 3 4 5 6 
#
# 1 40.6961 -1.3299 10.4046 0.0000 0.0000 0.0000
# 2 -1.3299 87.0334 75.8340 0.0000 0.0000 0.0000
# 3 10.4046 75.8340 250.2106 0.0000 0.0000 0.0000
# 4 0.0000 0.0000 0.0000 1.1348 0.0000 0.0000
# 5 0.0000 0.0000 0.0000 0.0000 7.4490 0.0000
# 6 0.0000 0.0000 0.0000 0.0000 0.0000 2.5896
#
#
#
# Elastic Compliance Matrix: (Units=1/GPa)
#
#
# Indices 1 2 3 4 5 6 
#
# 1 0.025032 0.001752 -0.001572 0.000000 0.000000 0.000000
# 2 0.001752 0.015736 -0.004842 0.000000 0.000000 0.000000
# 3 -0.001572 -0.004842 0.005530 0.000000 0.000000 0.000000
# 4 0.000000 0.000000 0.000000 0.881200 0.000000 0.000000
# 5 0.000000 0.000000 0.000000 0.000000 0.134245 0.000000
# 6 0.000000 0.000000 0.000000 0.000000 0.000000 0.386160
#
#
# Mechanical properties :
#
#
# Convention : Reuss Voigt Hill
#
# Bulk Modulus (GPa) = 27.04676 60.86196 43.95436
# Shear Modulus (GPa) = 3.40240 21.77012 12.58626
#
# Velocity S-wave (km/s) = 1.22445 3.09726 2.35503
# Velocity P-wave (km/s) = 3.73058 6.29361 5.17333
#
# Compressibility (1/GPa) = 0.03697301
#
# Stress axis : x y z
#
# Youngs Moduli (GPa) = 39.94965 63.55034 180.84749
#
# Poissons Ratio (x) = -0.11135 0.28428
# Poissons Ratio (y) = -0.07000 0.87566
# Poissons Ratio (z) = 0.06280 0.30771
#
# Static dielectric constant tensor:
#      x y z
#    x 2.135640 0.000000 0.000000 
#    y 0.000000 1.826780 0.000000 
#    z 0.000000 0.000000 1.931270 
# 
# From -- ./inp_files/77903.got.cif
#   From: 2010.05.17/outbox.cif.g08.bks.cpg/sg65_39_cif.got.tgz:77903.got - 2010.06.03 17:01:31.
