data_PCOD9485445
_publ_section_title
;
Structure prediction by ZEFSAII (Michael W. Deem and Ramdas Pophale) SiO2 
 PCOD9485445
Probable space group: C M M M
;
_chemical_formula_sum "Si O2"
_cell_formula_units_Z 80
_cell_length_a 18.610517
_cell_length_b 9.462939
_cell_length_c 26.811087
_cell_angle_alpha 90.000000
_cell_angle_beta 90.000000
_cell_angle_gamma 90.000000
_cell_volume 4721.705549
_symmetry_space_group_name_H-M "C M M M"
_symmetry_group_IT_number 65
_symmetry_cell_setting 'orthorhombic'
loop_
_space_group_symop_operation_xyz
x,y,z
-x,-y,z
x,-y,-z
-x,y,-z
-x,-y,-z
x,y,-z
-x,y,z
x,-y,z
1/2+x,1/2+y,z
1/2-x,1/2-y,z
1/2+x,1/2-y,-z
1/2-x,1/2+y,-z
1/2-x,1/2-y,-z
1/2+x,1/2+y,-z
1/2-x,1/2+y,z
1/2+x,1/2-y,z
loop_
_atom_site_type_symbol
_atom_site_label
_atom_site_fract_x
_atom_site_fract_y
_atom_site_fract_z
Si Si1 0.675031 0.169487 0.500000
Si Si2 0.587610 0.662352 0.302807
Si Si3 0.414990 0.167858 0.401242
Si Si4 0.412338 0.836587 0.793509
Si Si5 0.082424 0.671787 0.903633
Si Si6 0.325135 0.828804 0.000000
O O1 0.750000 0.250000 0.500000
O O2 0.629432 0.204480 0.549462
O O3 0.686210 0.000000 0.500000
O O4 0.500000 0.664213 0.302024
O O5 0.610850 0.500000 0.303876
O O6 0.608818 0.745422 0.352725
O O7 0.611634 0.741769 0.252663
O O8 0.500000 0.194407 0.409723
O O9 0.407321 0.000000 0.391653
O O10 0.500000 0.836256 0.794214
O O11 0.390706 0.784613 0.848679
O O12 0.390435 0.000000 0.786582
O O13 0.080548 0.500000 0.902108
O O14 0.000000 0.719443 0.910503
O O15 0.130620 0.711672 0.950420
O O16 0.250000 0.750000 0.000000
O O17 0.316925 0.000000 0.000000
#
# Coordination Sequence:
#
# PCOD9485445 Si02
#       6
#     8  16  16  16  16   8
#     4  10  21  35  51  71  95 124 156 192 234 276
#     4   9  16  25  40  67  99 124 147 182 231 278
#     4   9  17  31  51  72  94 123 159 193 223 264
#     4   8  13  23  41  65  90 115 147 188 230 270
#     4   8  14  26  47  71  90 115 156 197 226 261
#     4  10  19  31  47  67  93 122 152 190 234 278
#
# _framework density 16.943031000000001
#
# number of rings (size 3 to 8) (size 9 to 14) (size 15 to 20)
#    0.000    3.200    0.000    2.400    0.000    5.600 
#    0.000    1.000    0.000    6.600    0.000    2.800 
#    0.000    0.000    0.000    0.000    0.000    0.000 
#
# Total GULP energy -222781.274541 kJ/mol
# GULP energy per Si atom -5569.531864 kJ/mol
# Density = 1.690447 g / cm^3
# Si number density = 16.943031 Si / 1000 Ang^3
#
#
#
# Elastic Constant Matrix: (Units=GPa)
#
#
# Indices 1 2 3 4 5 6 
#
# 1 49.6149 35.1048 69.6383 0.0000 0.0000 0.0000
# 2 35.1048 57.4113 84.4199 0.0000 0.0000 0.0000
# 3 69.6383 84.4199 219.4178 0.0000 0.0000 0.0000
# 4 0.0000 0.0000 0.0000 9.5158 0.0000 0.0000
# 5 0.0000 0.0000 0.0000 0.0000 -3.5691 0.0000
# 6 0.0000 0.0000 0.0000 0.0000 0.0000 19.7580
#
#
#
# Elastic Compliance Matrix: (Units=1/GPa)
#
#
# Indices 1 2 3 4 5 6 
#
# 1 0.040417 -0.013474 -0.007643 0.000000 0.000000 0.000000
# 2 -0.013474 0.044603 -0.012884 0.000000 0.000000 0.000000
# 3 -0.007643 -0.012884 0.011940 0.000000 0.000000 0.000000
# 4 0.000000 0.000000 0.000000 0.105089 0.000000 0.000000
# 5 0.000000 0.000000 0.000000 0.000000 -0.280185 0.000000
# 6 0.000000 0.000000 0.000000 0.000000 0.000000 0.050612
#
#
# Mechanical properties :
#
#
# Convention : Reuss Voigt Hill
#
# Bulk Modulus (GPa) = 34.53486 78.30778 56.42132
# Shear Modulus (GPa) = 99.73745 14.29302 57.01523
#
# Velocity S-wave (km/s) = 7.68076 2.90762 5.80725
# Velocity P-wave (km/s) = 9.95420 7.58887 8.85090
#
# Compressibility (1/GPa) = 0.02895625
#
# Stress axis : x y z
#
# Youngs Moduli (GPa) = 24.74228 22.42017 83.74940
#
# Poissons Ratio (x) = 0.30210 0.64010
# Poissons Ratio (y) = 0.33339 1.07904
# Poissons Ratio (z) = 0.18911 0.28887
#
# Static dielectric constant tensor:
#      x y z
#    x 1.543740 0.000000 0.000000 
#    y 0.000000 1.562660 0.000000 
#    z 0.000000 0.000000 1.581320 
# 
# From -- ./inp_files/75284.got.cif
#   From: 2010.05.17/outbox.cif.g08.bks.cpg/sg65_38_cif.got.tgz:75284.got - 2010.06.03 17:01:31.
