data_PCOD9485114
_publ_section_title
;
Structure prediction by ZEFSAII (Michael W. Deem and Ramdas Pophale) SiO2 
 PCOD9485114
Probable space group: C M M M
;
_chemical_formula_sum "Si O2"
_cell_formula_units_Z 88
_cell_length_a 19.525035
_cell_length_b 7.709314
_cell_length_c 29.653159
_cell_angle_alpha 90.000000
_cell_angle_beta 90.000000
_cell_angle_gamma 90.000000
_cell_volume 4463.530659
_symmetry_space_group_name_H-M "C M M M"
_symmetry_group_IT_number 65
_symmetry_cell_setting 'orthorhombic'
loop_
_space_group_symop_operation_xyz
x,y,z
-x,-y,z
x,-y,-z
-x,y,-z
-x,-y,-z
x,y,-z
-x,y,z
x,-y,z
1/2+x,1/2+y,z
1/2-x,1/2-y,z
1/2+x,1/2-y,-z
1/2-x,1/2+y,-z
1/2-x,1/2-y,-z
1/2+x,1/2+y,-z
1/2-x,1/2+y,z
1/2+x,1/2-y,z
loop_
_atom_site_type_symbol
_atom_site_label
_atom_site_fract_x
_atom_site_fract_y
_atom_site_fract_z
Si Si1 0.576996 0.292674 0.317983
Si Si2 0.169983 0.294354 0.402480
Si Si3 0.668905 0.791283 0.500000
Si Si4 0.078628 0.788303 0.948882
Si Si5 0.829957 0.208759 0.866033
Si Si6 0.079426 0.788243 0.217380
O O1 0.500000 0.226296 0.327110
O O2 0.572560 0.500000 0.314112
O O3 0.627156 0.257781 0.359055
O O4 0.598496 0.230109 0.268087
O O5 0.165419 0.500000 0.405492
O O6 0.250000 0.250000 0.397250
O O7 0.144186 0.223728 0.451258
O O8 0.750000 0.750000 0.500000
O O9 0.659838 0.000000 0.500000
O O10 0.131079 0.727481 0.910880
O O11 0.000000 0.737933 0.938627
O O12 0.079616 0.000000 0.948919
O O13 0.095047 0.732696 0.000000
O O14 0.750000 0.250000 0.865622
O O15 0.869953 0.273238 0.821640
O O16 0.836269 0.000000 0.866101
O O17 0.000000 0.739580 0.209070
O O18 0.081068 0.000000 0.216774
#
# Coordination Sequence:
#
# PCOD9485114 Si02
#       6
#    16  16   8  16  16  16
#     4   9  18  33  51  71  96 124 156 196 240 284
#     4  10  19  32  51  73  97 125 159 196 235 280
#     4   8  16  30  47  68  93 123 157 193 231 274
#     4   8  14  26  46  70  91 115 155 200 230 260
#     4  10  19  30  46  69  96 123 151 187 233 279
#     4   8  15  30  51  69  86 117 160 197 227 267
#
# _framework density 19.715335
#
# number of rings (size 3 to 8) (size 9 to 14) (size 15 to 20)
#    0.000    3.091    0.000    2.727    0.000    4.364 
#    0.000    3.182    0.000    6.000    0.000    1.273 
#    0.000    0.000    0.000    0.000    0.000    0.000 
#
# Total GULP energy -245210.170122 kJ/mol
# GULP energy per Si atom -5572.958412 kJ/mol
# Density = 1.967046 g / cm^3
# Si number density = 19.715335 Si / 1000 Ang^3
#
#
#
# Elastic Constant Matrix: (Units=GPa)
#
#
# Indices 1 2 3 4 5 6 
#
# 1 121.0740 1.8885 140.7787 0.0000 0.0000 0.0000
# 2 1.8885 30.0080 10.5509 0.0000 0.0000 0.0000
# 3 140.7787 10.5509 237.2962 0.0000 0.0000 0.0000
# 4 0.0000 0.0000 0.0000 -0.4030 0.0000 0.0000
# 5 0.0000 0.0000 0.0000 0.0000 41.1679 0.0000
# 6 0.0000 0.0000 0.0000 0.0000 0.0000 20.8130
#
#
#
# Elastic Compliance Matrix: (Units=1/GPa)
#
#
# Indices 1 2 3 4 5 6 
#
# 1 0.027094 0.004009 -0.016252 0.000000 0.000000 0.000000
# 2 0.004009 0.034447 -0.003910 0.000000 0.000000 0.000000
# 3 -0.016252 -0.003910 0.014030 0.000000 0.000000 0.000000
# 4 0.000000 0.000000 0.000000 -2.481658 0.000000 0.000000
# 5 0.000000 0.000000 0.000000 0.000000 0.024291 0.000000
# 6 0.000000 0.000000 0.000000 0.000000 0.000000 0.048047
#
#
# Mechanical properties :
#
#
# Convention : Reuss Voigt Hill
#
# Bulk Modulus (GPa) = 23.11354 77.20159 50.15757
# Shear Modulus (GPa) = -2.18625 27.99291 12.90333
#
# Velocity S-wave (km/s) = -1.05419 3.77218 2.56106
# Velocity P-wave (km/s) = 3.20427 7.62992 5.85162
#
# Compressibility (1/GPa) = 0.04326468
#
# Stress axis : x y z
#
# Youngs Moduli (GPa) = 36.90854 29.03013 71.27714
#
# Poissons Ratio (x) = -0.11639 1.15840
# Poissons Ratio (y) = -0.14797 0.27870
# Poissons Ratio (z) = 0.59984 0.11351
#
# Static dielectric constant tensor:
#      x y z
#    x 1.647680 0.000000 0.000000 
#    y 0.000000 1.840070 0.000000 
#    z 0.000000 0.000000 1.739150 
# 
# From -- ./inp_files/75393.got.cif
#   From: 2010.05.17/outbox.cif.g08.bks.cpg/sg65_38_cif.got.tgz:75393.got - 2010.06.03 17:01:31.
