data_PCOD9485447
_publ_section_title
;
Structure prediction by ZEFSAII (Michael W. Deem and Ramdas Pophale) SiO2 
 PCOD9485447
Probable space group: C M M M
;
_chemical_formula_sum "Si O2"
_cell_formula_units_Z 88
_cell_length_a 8.641166
_cell_length_b 28.041962
_cell_length_c 21.883855
_cell_angle_alpha 90.000000
_cell_angle_beta 90.000000
_cell_angle_gamma 90.000000
_cell_volume 5302.791765
_symmetry_space_group_name_H-M "C M M M"
_symmetry_group_IT_number 65
_symmetry_cell_setting 'orthorhombic'
loop_
_space_group_symop_operation_xyz
x,y,z
-x,-y,z
x,-y,-z
-x,y,-z
-x,-y,-z
x,y,-z
-x,y,z
x,-y,z
1/2+x,1/2+y,z
1/2-x,1/2-y,z
1/2+x,1/2-y,-z
1/2-x,1/2+y,-z
1/2-x,1/2-y,-z
1/2+x,1/2+y,-z
1/2-x,1/2+y,z
1/2+x,1/2-y,z
loop_
_atom_site_type_symbol
_atom_site_label
_atom_site_fract_x
_atom_site_fract_y
_atom_site_fract_z
Si Si1 0.686626 0.553156 0.246836
Si Si2 0.185627 0.148931 0.688040
Si Si3 0.311056 0.055477 0.000000
Si Si4 0.685294 0.803348 0.430811
Si Si5 0.313165 0.101604 0.127176
Si Si6 0.685561 0.801658 0.807962
O O1 0.500000 0.553587 0.244019
O O2 0.737778 0.500000 0.263820
O O3 0.733314 0.595366 0.292740
O O4 0.750399 0.567685 0.180602
O O5 0.247483 0.164060 0.622396
O O6 0.251791 0.183084 0.741256
O O7 0.000000 0.152227 0.689014
O O8 0.260950 0.082844 0.061291
O O9 0.500000 0.055404 0.000000
O O10 0.262397 0.000000 0.000000
O O11 0.727500 0.818443 0.500000
O O12 0.500000 0.801979 0.426386
O O13 0.750000 0.750000 0.422092
O O14 0.500000 0.099892 0.128367
O O15 0.267495 0.155509 0.146049
O O16 0.500000 0.799929 0.805717
O O17 0.750000 0.750000 0.824945
#
# Coordination Sequence:
#
# PCOD9485447 Si02
#       6
#    16  16   8  16  16  16
#     4   9  18  32  49  70  96 123 152 190 234 276
#     4  10  19  31  49  71  95 123 155 191 230 272
#     4   9  16  28  48  71  93 117 149 191 236 279
#     4  10  20  33  49  70  97 126 155 188 227 272
#     4   9  18  31  48  70  93 120 155 193 231 275
#     4  10  19  31  47  67  93 123 156 192 231 275
#
# _framework density 16.595030999999999
#
# number of rings (size 3 to 8) (size 9 to 14) (size 15 to 20)
#    0.000    2.455    0.000    2.727    0.000    3.636 
#    0.000    0.909    0.000    2.182    0.000    3.818 
#    0.000    0.000    0.000    0.000    0.000    0.000 
#
# Total GULP energy -245402.617541 kJ/mol
# GULP energy per Si atom -5577.332217 kJ/mol
# Density = 1.655726 g / cm^3
# Si number density = 16.595031 Si / 1000 Ang^3
#
#
#
# Elastic Constant Matrix: (Units=GPa)
#
#
# Indices 1 2 3 4 5 6 
#
# 1 26.5063 26.9869 30.0392 0.0000 0.0000 0.0000
# 2 26.9869 128.3149 81.3766 0.0000 0.0000 0.0000
# 3 30.0392 81.3766 150.8654 0.0000 0.0000 0.0000
# 4 0.0000 0.0000 0.0000 15.4252 0.0000 0.0000
# 5 0.0000 0.0000 0.0000 0.0000 16.0411 0.0000
# 6 0.0000 0.0000 0.0000 0.0000 0.0000 15.5603
#
#
#
# Elastic Compliance Matrix: (Units=1/GPa)
#
#
# Indices 1 2 3 4 5 6 
#
# 1 0.052226 -0.006671 -0.006800 0.000000 0.000000 0.000000
# 2 -0.006671 0.012698 -0.005521 0.000000 0.000000 0.000000
# 3 -0.006800 -0.005521 0.010960 0.000000 0.000000 0.000000
# 4 0.000000 0.000000 0.000000 0.064829 0.000000 0.000000
# 5 0.000000 0.000000 0.000000 0.000000 0.062340 0.000000
# 6 0.000000 0.000000 0.000000 0.000000 0.000000 0.064266
#
#
# Mechanical properties :
#
#
# Convention : Reuss Voigt Hill
#
# Bulk Modulus (GPa) = 26.38589 64.72133 45.55361
# Shear Modulus (GPa) = 15.72641 20.55758 18.14199
#
# Velocity S-wave (km/s) = 3.08174 3.52345 3.30997
# Velocity P-wave (km/s) = 5.34764 7.45909 6.48981
#
# Compressibility (1/GPa) = 0.03789904
#
# Stress axis : x y z
#
# Youngs Moduli (GPa) = 19.14763 78.75476 91.23792
#
# Poissons Ratio (x) = 0.52539 0.62045
# Poissons Ratio (y) = 0.12774 0.50370
# Poissons Ratio (z) = 0.13021 0.43479
#
# Static dielectric constant tensor:
#      x y z
#    x 1.557710 0.000000 0.000000 
#    y 0.000000 1.563310 0.000000 
#    z 0.000000 0.000000 1.538420 
# 
# From -- ./inp_files/50345.got.cif
#   From: 2010.05.17/outbox.cif.g08.bks.cpg/sg65_26_cif.got.tgz:50345.got - 2010.06.03 17:01:31.
