data_PCOD9485419
_publ_section_title
;
Structure prediction by ZEFSAII (Michael W. Deem and Ramdas Pophale) SiO2 
 PCOD9485419
Probable space group: C M M M
;
_chemical_formula_sum "Si O2"
_cell_formula_units_Z 88
_cell_length_a 30.223329
_cell_length_b 7.499646
_cell_length_c 19.710772
_cell_angle_alpha 90.000000
_cell_angle_beta 90.000000
_cell_angle_gamma 90.000000
_cell_volume 4467.727716
_symmetry_space_group_name_H-M "C M M M"
_symmetry_group_IT_number 65
_symmetry_cell_setting 'orthorhombic'
loop_
_space_group_symop_operation_xyz
x,y,z
-x,-y,z
x,-y,-z
-x,y,-z
-x,-y,-z
x,y,-z
-x,y,z
x,-y,z
1/2+x,1/2+y,z
1/2-x,1/2-y,z
1/2+x,1/2-y,-z
1/2-x,1/2+y,-z
1/2-x,1/2-y,-z
1/2+x,1/2+y,-z
1/2-x,1/2+y,z
1/2+x,1/2-y,z
loop_
_atom_site_type_symbol
_atom_site_label
_atom_site_fract_x
_atom_site_fract_y
_atom_site_fract_z
Si Si1 0.622639 0.798926 0.754669
Si Si2 0.199361 0.713920 0.849346
Si Si3 0.952447 0.784531 0.146778
Si Si4 0.822414 0.296567 0.000000
Si Si5 0.075846 0.785216 0.000000
Si Si6 0.550823 0.207505 0.348273
Si Si7 0.446696 0.702497 0.500000
O O1 0.665890 0.717179 0.791007
O O2 0.588078 0.803880 0.816348
O O3 0.590958 0.714061 0.696669
O O4 0.634506 0.000000 0.731630
O O5 0.191413 0.500000 0.852406
O O6 0.250000 0.750000 0.831669
O O7 0.191371 0.782979 0.926733
O O8 0.949484 0.738616 0.068028
O O9 0.000000 0.731929 0.175636
O O10 0.948531 0.000000 0.153012
O O11 0.805081 0.500000 0.000000
O O12 0.875409 0.295033 0.000000
O O13 0.081407 0.000000 0.000000
O O14 0.500000 0.281415 0.341529
O O15 0.564405 0.215136 0.427364
O O16 0.547802 0.000000 0.328378
O O17 0.430687 0.500000 0.500000
O O18 0.500000 0.703357 0.500000
#
# Coordination Sequence:
#
# PCOD9485419 Si02
#       7
#    16  16  16   8   8  16   8
#     4  10  20  34  51  72  98 127 162 203 245 292
#     4  10  21  35  52  72  95 123 160 207 258 306
#     4  10  20  32  46  66  94 128 164 201 241 288
#     4  10  19  34  52  70  92 119 158 212 260 299
#     4  10  19  31  47  65  89 125 164 200 242 291
#     4   9  17  30  49  73 102 135 165 192 228 277
#     4   9  17  29  47  73 104 135 166 197 226 263
#
# _framework density 19.696814
#
# number of rings (size 3 to 8) (size 9 to 14) (size 15 to 20)
#    0.000    2.273    1.818    1.364    0.000    5.455 
#    0.000    1.818    0.000    1.636    0.000    0.636 
#    0.000    0.000    0.000    0.000    0.000    0.000 
#
# Total GULP energy -245216.761415 kJ/mol
# GULP energy per Si atom -5573.108214 kJ/mol
# Density = 1.965198 g / cm^3
# Si number density = 19.696814 Si / 1000 Ang^3
#
#
#
# Elastic Constant Matrix: (Units=GPa)
#
#
# Indices 1 2 3 4 5 6 
#
# 1 142.2975 1.7342 57.1014 0.0000 0.0000 0.0000
# 2 1.7342 50.7241 5.4846 0.0000 0.0000 0.0000
# 3 57.1014 5.4846 131.5478 0.0000 0.0000 0.0000
# 4 0.0000 0.0000 0.0000 6.2853 0.0000 0.0000
# 5 0.0000 0.0000 0.0000 0.0000 17.2731 0.0000
# 6 0.0000 0.0000 0.0000 0.0000 0.0000 4.6015
#
#
#
# Elastic Compliance Matrix: (Units=1/GPa)
#
#
# Indices 1 2 3 4 5 6 
#
# 1 0.008510 0.000109 -0.003699 0.000000 0.000000 0.000000
# 2 0.000109 0.019805 -0.000873 0.000000 0.000000 0.000000
# 3 -0.003699 -0.000873 0.009244 0.000000 0.000000 0.000000
# 4 0.000000 0.000000 0.000000 0.159101 0.000000 0.000000
# 5 0.000000 0.000000 0.000000 0.000000 0.057894 0.000000
# 6 0.000000 0.000000 0.000000 0.000000 0.000000 0.217319
#
#
# Mechanical properties :
#
#
# Convention : Reuss Voigt Hill
#
# Bulk Modulus (GPa) = 34.92378 50.35662 42.64020
# Shear Modulus (GPa) = 10.19694 22.98193 16.58943
#
# Velocity S-wave (km/s) = 2.27776 3.41953 2.90528
# Velocity P-wave (km/s) = 4.96858 6.41968 5.74017
#
# Compressibility (1/GPa) = 0.02863379
#
# Stress axis : x y z
#
# Youngs Moduli (GPa) = 117.50304 50.49185 108.18180
#
# Poissons Ratio (x) = -0.00550 0.40013
# Poissons Ratio (y) = -0.01280 0.09445
# Poissons Ratio (z) = 0.43461 0.04408
#
# Static dielectric constant tensor:
#      x y z
#    x 1.675020 0.000000 0.000000 
#    y 0.000000 1.758790 0.000000 
#    z 0.000000 0.000000 1.723830 
# 
# From -- ./inp_files/58050.got.cif
#   From: 2010.05.17/outbox.cif.g08.bks.cpg/sg65_30_cif.got.tgz:58050.got - 2010.06.03 17:01:31.
