data_PCOD9485087
_publ_section_title
;
Structure prediction by ZEFSAII (Michael W. Deem and Ramdas Pophale) SiO2 
 PCOD9485087
Probable space group: C M M M
;
_chemical_formula_sum "Si O2"
_cell_formula_units_Z 88
_cell_length_a 7.349015
_cell_length_b 18.679743
_cell_length_c 30.325285
_cell_angle_alpha 90.000000
_cell_angle_beta 90.000000
_cell_angle_gamma 90.000000
_cell_volume 4162.985725
_symmetry_space_group_name_H-M "C M M M"
_symmetry_group_IT_number 65
_symmetry_cell_setting 'orthorhombic'
loop_
_space_group_symop_operation_xyz
x,y,z
-x,-y,z
x,-y,-z
-x,y,-z
-x,-y,-z
x,y,-z
-x,y,z
x,-y,z
1/2+x,1/2+y,z
1/2-x,1/2-y,z
1/2+x,1/2-y,-z
1/2-x,1/2+y,-z
1/2-x,1/2-y,-z
1/2+x,1/2+y,-z
1/2-x,1/2+y,z
1/2+x,1/2-y,z
loop_
_atom_site_type_symbol
_atom_site_label
_atom_site_fract_x
_atom_site_fract_y
_atom_site_fract_z
Si Si1 0.282598 0.835779 0.452533
Si Si2 0.278647 0.916700 0.270955
Si Si3 0.782919 0.665659 0.087120
Si Si4 0.717503 0.834802 0.643131
Si Si5 0.222553 0.417086 0.000000
Si Si6 0.278322 0.916628 0.173227
O O1 0.212543 0.862951 0.500000
O O2 0.500000 0.847023 0.452715
O O3 0.250000 0.750000 0.452473
O O4 0.213054 0.861076 0.404824
O O5 0.500000 0.913162 0.271027
O O6 0.212166 0.873061 0.313097
O O7 0.219919 0.892354 0.222128
O O8 0.229742 0.000000 0.275312
O O9 0.750000 0.750000 0.084344
O O10 0.715719 0.624066 0.043895
O O11 0.714008 0.631324 0.132667
O O12 0.000000 0.655222 0.087546
O O13 0.500000 0.845788 0.642360
O O14 0.750000 0.750000 0.646153
O O15 0.276986 0.500000 0.000000
O O16 0.000000 0.416040 0.000000
O O17 0.500000 0.915371 0.173324
O O18 0.226778 0.000000 0.167266
#
# Coordination Sequence:
#
# PCOD9485087 Si02
#       6
#    16  16  16  16   8  16
#     4   8  13  21  33  50  73  99 126 157 193 234
#     4   8  14  25  41  60  81 106 137 170 201 237
#     4  10  19  30  46  68  92 114 137 171 213 249
#     4   9  16  25  39  59  80 102 130 165 203 240
#     4   9  17  30  49  69  86 111 150 184 202 229
#     4   8  14  26  44  63  81 106 143 177 199 230
#
# _framework density 21.138676
#
# number of rings (size 3 to 8) (size 9 to 14) (size 15 to 20)
#    0.000    3.364    0.000    1.909    0.000    2.909 
#    0.000    0.000    0.000    3.818    0.000    6.364 
#    0.000    0.000    0.000   29.455    0.000   13.818 
#
# Total GULP energy -245293.792770 kJ/mol
# GULP energy per Si atom -5574.858927 kJ/mol
# Density = 2.109056 g / cm^3
# Si number density = 21.138676 Si / 1000 Ang^3
#
#
#
# Elastic Constant Matrix: (Units=GPa)
#
#
# Indices 1 2 3 4 5 6 
#
# 1 81.9507 -2.0005 13.0996 0.0000 0.0000 0.0000
# 2 -2.0005 88.9165 118.6410 0.0000 0.0000 0.0000
# 3 13.0996 118.6410 301.1396 0.0000 0.0000 0.0000
# 4 0.0000 0.0000 0.0000 112.6523 0.0000 0.0000
# 5 0.0000 0.0000 0.0000 0.0000 -9.7699 0.0000
# 6 0.0000 0.0000 0.0000 0.0000 0.0000 9.2767
#
#
#
# Elastic Compliance Matrix: (Units=1/GPa)
#
#
# Indices 1 2 3 4 5 6 
#
# 1 0.012474 0.002118 -0.001377 0.000000 0.000000 0.000000
# 2 0.002118 0.024070 -0.009575 0.000000 0.000000 0.000000
# 3 -0.001377 -0.009575 0.007153 0.000000 0.000000 0.000000
# 4 0.000000 0.000000 0.000000 0.008877 0.000000 0.000000
# 5 0.000000 0.000000 0.000000 0.000000 -0.102355 0.000000
# 6 0.000000 0.000000 0.000000 0.000000 0.000000 0.107797
#
#
# Mechanical properties :
#
#
# Convention : Reuss Voigt Hill
#
# Bulk Modulus (GPa) = 38.41830 81.27633 59.84731
# Shear Modulus (GPa) = 59.26881 45.24958 52.25919
#
# Velocity S-wave (km/s) = 5.30085 4.63169 4.97752
# Velocity P-wave (km/s) = 7.46185 8.19365 7.83630
#
# Compressibility (1/GPa) = 0.02602926
#
# Stress axis : x y z
#
# Youngs Moduli (GPa) = 80.16483 41.54486 139.80129
#
# Poissons Ratio (x) = -0.08800 0.19252
# Poissons Ratio (y) = -0.16980 1.33863
# Poissons Ratio (z) = 0.11040 0.39780
#
# Static dielectric constant tensor:
#      x y z
#    x 1.812510 0.000000 0.000000 
#    y 0.000000 1.690740 0.000000 
#    z 0.000000 0.000000 1.805740 
# 
# From -- ./inp_files/76573.got.cif
#   From: 2010.05.17/outbox.cif.g08.bks.cpg/sg65_39_cif.got.tgz:76573.got - 2010.06.03 17:01:31.
