data_PCOD9485158
_publ_section_title
;
Structure prediction by ZEFSAII (Michael W. Deem and Ramdas Pophale) SiO2 
 PCOD9485158
Probable space group: C M M M
;
_chemical_formula_sum "Si O2"
_cell_formula_units_Z 72
_cell_length_a 14.682034
_cell_length_b 9.242466
_cell_length_c 24.450788
_cell_angle_alpha 90.000000
_cell_angle_beta 90.000000
_cell_angle_gamma 90.000000
_cell_volume 3317.927922
_symmetry_space_group_name_H-M "C M M M"
_symmetry_group_IT_number 65
_symmetry_cell_setting 'orthorhombic'
loop_
_space_group_symop_operation_xyz
x,y,z
-x,-y,z
x,-y,-z
-x,y,-z
-x,-y,-z
x,y,-z
-x,y,z
x,-y,z
1/2+x,1/2+y,z
1/2-x,1/2-y,z
1/2+x,1/2-y,-z
1/2-x,1/2+y,-z
1/2-x,1/2-y,-z
1/2+x,1/2+y,-z
1/2-x,1/2+y,z
1/2+x,1/2-y,z
loop_
_atom_site_type_symbol
_atom_site_label
_atom_site_fract_x
_atom_site_fract_y
_atom_site_fract_z
Si Si1 0.888677 0.163858 0.000000
Si Si2 0.849589 0.673506 0.560559
Si Si3 0.111651 0.336988 0.107695
Si Si4 0.106978 0.160430 0.210784
Si Si5 0.651530 0.674449 0.665768
O O1 0.860944 0.244009 0.944680
O O2 0.000000 0.162214 0.000000
O O3 0.856376 0.000000 0.000000
O O4 0.890924 0.694335 0.500000
O O5 0.841213 0.500000 0.569256
O O6 0.750000 0.750000 0.557528
O O7 0.894068 0.750671 0.612951
O O8 0.144189 0.500000 0.102167
O O9 0.142513 0.268557 0.165047
O O10 0.000000 0.340626 0.107595
O O11 0.112471 0.204421 0.274144
O O12 0.000000 0.147274 0.198574
O O13 0.148810 0.000000 0.205972
O O14 0.654946 0.500000 0.658453
O O15 0.750000 0.750000 0.668156
#
# Coordination Sequence:
#
# PCOD9485158 Si02
#       5
#     8  16  16  16  16
#     4   9  15  23  37  57  84 117 148 181 222 265
#     4   9  16  26  42  64  89 115 144 181 223 265
#     4   9  16  25  39  61  87 114 146 185 226 264
#     4   9  18  32  47  64  89 121 154 184 219 265
#     4  10  19  30  47  69  92 118 148 185 224 264
#
# _framework density 21.700291
#
# number of rings (size 3 to 8) (size 9 to 14) (size 15 to 20)
#    0.000    2.778    0.000    3.667    0.000    7.111 
#    0.000    0.000    0.000    0.667    0.000    5.444 
#    0.000    0.000    0.000    0.000    0.000    0.000 
#
# Total GULP energy -200738.665402 kJ/mol
# GULP energy per Si atom -5576.074039 kJ/mol
# Density = 2.165090 g / cm^3
# Si number density = 21.700291 Si / 1000 Ang^3
#
#
#
# Elastic Constant Matrix: (Units=GPa)
#
#
# Indices 1 2 3 4 5 6 
#
# 1 46.9038 13.2500 0.9069 0.0000 0.0000 0.0000
# 2 13.2500 177.9187 143.9392 0.0000 0.0000 0.0000
# 3 0.9069 143.9392 227.3461 0.0000 0.0000 0.0000
# 4 0.0000 0.0000 0.0000-2680.8641 0.0000 0.0000
# 5 0.0000 0.0000 0.0000 0.0000 16.9439 0.0000
# 6 0.0000 0.0000 0.0000 0.0000 0.0000 2.6518
#
#
#
# Elastic Compliance Matrix: (Units=1/GPa)
#
#
# Indices 1 2 3 4 5 6 
#
# 1 0.022198 -0.003242 0.001964 0.000000 0.000000 0.000000
# 2 -0.003242 0.011996 -0.007582 0.000000 0.000000 0.000000
# 3 0.001964 -0.007582 0.009191 0.000000 0.000000 0.000000
# 4 0.000000 0.000000 0.000000 -0.000373 0.000000 0.000000
# 5 0.000000 0.000000 0.000000 0.000000 0.059018 0.000000
# 6 0.000000 0.000000 0.000000 0.000000 0.000000 0.377097
#
#
# Mechanical properties :
#
#
# Convention : Reuss Voigt Hill
#
# Bulk Modulus (GPa) = 38.96338 85.37342 62.16840
# Shear Modulus (GPa) = 9.89310 -512.64884 -251.37787
#
# Velocity S-wave (km/s) = 2.13749 -15.38679 -10.77461
# Velocity P-wave (km/s) = 4.90775 16.62058 11.22848
#
# Compressibility (1/GPa) = 0.02566512
#
# Stress axis : x y z
#
# Youngs Moduli (GPa) = 45.04883 83.36085 108.79996
#
# Poissons Ratio (x) = 0.27027 -0.21370
# Poissons Ratio (y) = 0.14606 0.82493
# Poissons Ratio (z) = -0.08848 0.63205
#
# Static dielectric constant tensor:
#      x y z
#    x 1.874510 0.000000 0.000000 
#    y 0.000000 1.752380 0.000000 
#    z 0.000000 0.000000 1.826140 
# 
# From -- ./inp_files/64982.got.cif
#   From: 2010.05.17/outbox.cif.g08.bks.cpg/sg65_33_cif.got.tgz:64982.got - 2010.06.03 17:01:31.
