data_PCOD9485072
_publ_section_title
;
Structure prediction by ZEFSAII (Michael W. Deem and Ramdas Pophale) SiO2 
 PCOD9485072
Probable space group: C M M M
;
_chemical_formula_sum "Si O2"
_cell_formula_units_Z 72
_cell_length_a 14.398256
_cell_length_b 34.842073
_cell_length_c 9.308351
_cell_angle_alpha 90.000000
_cell_angle_beta 90.000000
_cell_angle_gamma 90.000000
_cell_volume 4669.674711
_symmetry_space_group_name_H-M "C M M M"
_symmetry_group_IT_number 65
_symmetry_cell_setting 'orthorhombic'
loop_
_space_group_symop_operation_xyz
x,y,z
-x,-y,z
x,-y,-z
-x,y,-z
-x,-y,-z
x,y,-z
-x,y,z
x,-y,z
1/2+x,1/2+y,z
1/2-x,1/2-y,z
1/2+x,1/2-y,-z
1/2-x,1/2+y,-z
1/2-x,1/2-y,-z
1/2+x,1/2+y,-z
1/2-x,1/2+y,z
1/2+x,1/2-y,z
loop_
_atom_site_type_symbol
_atom_site_label
_atom_site_fract_x
_atom_site_fract_y
_atom_site_fract_z
Si Si1 0.387157 0.000000 0.665090
Si Si2 0.890112 0.577253 0.828252
Si Si3 0.111764 0.274162 0.333342
Si Si4 0.791036 0.344124 0.828295
Si Si5 0.893197 0.804294 0.170760
O O1 0.359585 0.038805 0.746906
O O2 0.500000 0.000000 0.666564
O O3 0.356598 0.000000 0.500000
O O4 0.831736 0.614691 0.785566
O O5 0.000000 0.583996 0.798854
O O6 0.881147 0.571638 0.000000
O O7 0.139623 0.273434 0.500000
O O8 0.156364 0.309909 0.251969
O O9 0.134878 0.233990 0.256303
O O10 0.000000 0.277802 0.326323
O O11 0.681797 0.337351 0.800796
O O12 0.806563 0.340215 0.000000
O O13 0.000000 0.813949 0.207168
O O14 0.889825 0.795759 0.000000
#
# Coordination Sequence:
#
# PCOD9485072 Si02
#       5
#     8  16  16  16  16
#     4   9  17  29  45  65  90 117 140 164 201 253
#     4   9  17  29  45  65  89 115 141 170 207 254
#     4  10  20  31  43  62  89 119 149 183 223 264
#     4  10  19  30  46  67  88 114 149 185 220 259
#     4   9  18  32  47  62  84 116 152 188 224 260
#
# _framework density 15.418633
#
# number of rings (size 3 to 8) (size 9 to 14) (size 15 to 20)
#    0.000    2.556    0.000    2.333    0.000    8.000 
#    0.000    2.222    0.000    0.000    0.000    0.778 
#    0.000    6.222    0.000    0.000    0.000    0.000 
#
# Total GULP energy -200733.950409 kJ/mol
# GULP energy per Si atom -5575.943067 kJ/mol
# Density = 1.538354 g / cm^3
# Si number density = 15.418633 Si / 1000 Ang^3
#
#
#
# Elastic Constant Matrix: (Units=GPa)
#
#
# Indices 1 2 3 4 5 6 
#
# 1 63.5633 73.7308 40.3073 0.0000 0.0000 0.0000
# 2 73.7308 147.5251 59.6488 0.0000 0.0000 0.0000
# 3 40.3073 59.6488 42.1176 0.0000 0.0000 0.0000
# 4 0.0000 0.0000 0.0000 -6.1463 0.0000 0.0000
# 5 0.0000 0.0000 0.0000 0.0000 13.6647 0.0000
# 6 0.0000 0.0000 0.0000 0.0000 0.0000 23.6927
#
#
#
# Elastic Compliance Matrix: (Units=1/GPa)
#
#
# Indices 1 2 3 4 5 6 
#
# 1 0.048559 -0.012820 -0.028315 0.000000 0.000000 0.000000
# 2 -0.012820 0.019246 -0.014987 0.000000 0.000000 0.000000
# 3 -0.028315 -0.014987 0.072067 0.000000 0.000000 0.000000
# 4 0.000000 0.000000 0.000000 -0.162698 0.000000 0.000000
# 5 0.000000 0.000000 0.000000 0.000000 0.073181 0.000000
# 6 0.000000 0.000000 0.000000 0.000000 0.000000 0.042207
#
#
# Mechanical properties :
#
#
# Convention : Reuss Voigt Hill
#
# Bulk Modulus (GPa) = 36.19779 66.73111 51.46445
# Shear Modulus (GPa) = 23.36285 11.54348 17.45317
#
# Velocity S-wave (km/s) = 3.89683 2.73915 3.36810
# Velocity P-wave (km/s) = 6.61624 7.30599 6.96965
#
# Compressibility (1/GPa) = 0.02762599
#
# Stress axis : x y z
#
# Youngs Moduli (GPa) = 20.59360 51.95936 13.87606
#
# Poissons Ratio (x) = 0.66614 0.39290
# Poissons Ratio (y) = 0.26402 0.20797
# Poissons Ratio (z) = 0.58310 0.77873
#
# Static dielectric constant tensor:
#      x y z
#    x 1.528040 0.000000 0.000000 
#    y 0.000000 1.479740 0.000000 
#    z 0.000000 0.000000 1.513800 
# 
# From -- ./inp_files/7292.got.cif
#   From: 2010.05.17/outbox.cif.g08.bks.cpg/sg65_4_cif.got.tgz:7292.got - 2010.06.03 17:01:31.
