data_PCOD9485017
_publ_section_title
;
Structure prediction by ZEFSAII (Michael W. Deem and Ramdas Pophale) SiO2 
 PCOD9485017
Probable space group: C M M M
;
_chemical_formula_sum "Si O2"
_cell_formula_units_Z 80
_cell_length_a 23.424162
_cell_length_b 14.009213
_cell_length_c 13.919666
_cell_angle_alpha 90.000000
_cell_angle_beta 90.000000
_cell_angle_gamma 90.000000
_cell_volume 4567.795118
_symmetry_space_group_name_H-M "C M M M"
_symmetry_group_IT_number 65
_symmetry_cell_setting 'orthorhombic'
loop_
_space_group_symop_operation_xyz
x,y,z
-x,-y,z
x,-y,-z
-x,y,-z
-x,-y,-z
x,y,-z
-x,y,z
x,-y,z
1/2+x,1/2+y,z
1/2-x,1/2-y,z
1/2+x,1/2-y,-z
1/2-x,1/2+y,-z
1/2-x,1/2-y,-z
1/2+x,1/2+y,-z
1/2-x,1/2+y,z
1/2+x,1/2-y,z
loop_
_atom_site_type_symbol
_atom_site_label
_atom_site_fract_x
_atom_site_fract_y
_atom_site_fract_z
Si Si1 0.438212 0.887883 0.383988
Si Si2 0.163689 0.259888 0.886465
Si Si3 0.258534 0.613381 0.203607
Si Si4 0.934122 0.604307 0.883984
Si Si5 0.812032 0.384055 0.390179
O O1 0.437461 0.885297 0.500000
O O2 0.500000 0.845922 0.354246
O O3 0.375370 0.849937 0.357568
O O4 0.439587 0.000000 0.357179
O O5 0.210780 0.342514 0.867501
O O6 0.184534 0.169777 0.825266
O O7 0.104326 0.307224 0.855508
O O8 0.162424 0.237164 0.000000
O O9 0.263285 0.500000 0.194396
O O10 0.235190 0.637829 0.310248
O O11 0.911570 0.500000 0.852510
O O12 0.000000 0.611221 0.855499
O O13 0.932899 0.603153 0.000000
O O14 0.800464 0.352384 0.500000
O O15 0.815547 0.500000 0.393188
#
# Coordination Sequence:
#
# PCOD9485017 Si02
#       5
#    16  16  16  16  16
#     4   7   9  15  30  52  78 110 146 181 221 270
#     4  10  20  32  46  66  93 123 156 196 236 274
#     4  10  19  30  45  66  92 123 160 195 229 275
#     4   8  14  27  49  73  94 119 150 184 228 280
#     4   8  14  25  40  58  84 118 153 193 239 282
#
# _framework density 17.513919000000001
#
# number of rings (size 3 to 8) (size 9 to 14) (size 15 to 20)
#    0.000    3.400    0.000    4.200    0.000    2.400 
#    0.000    3.000    0.000    4.200    0.000    2.800 
#    0.000    2.400    0.000   11.800    0.000    0.600 
#
# Total GULP energy -222708.624411 kJ/mol
# GULP energy per Si atom -5567.715610 kJ/mol
# Density = 1.747406 g / cm^3
# Si number density = 17.513919 Si / 1000 Ang^3
#
#
#
# Elastic Constant Matrix: (Units=GPa)
#
#
# Indices 1 2 3 4 5 6 
#
# 1 79.8396 45.4018 26.1097 0.0000 0.0000 0.0000
# 2 45.4018 85.6354 22.1807 0.0000 0.0000 0.0000
# 3 26.1097 22.1807 117.7964 0.0000 0.0000 0.0000
# 4 0.0000 0.0000 0.0000 12.3474 0.0000 0.0000
# 5 0.0000 0.0000 0.0000 0.0000 -173.3415 0.0000
# 6 0.0000 0.0000 0.0000 0.0000 0.0000 27.6724
#
#
#
# Elastic Compliance Matrix: (Units=1/GPa)
#
#
# Indices 1 2 3 4 5 6 
#
# 1 0.018542 -0.009216 -0.002375 0.000000 0.000000 0.000000
# 2 -0.009216 0.016856 -0.001131 0.000000 0.000000 0.000000
# 3 -0.002375 -0.001131 0.009229 0.000000 0.000000 0.000000
# 4 0.000000 0.000000 0.000000 0.080989 0.000000 0.000000
# 5 0.000000 0.000000 0.000000 0.000000 -0.005769 0.000000
# 6 0.000000 0.000000 0.000000 0.000000 0.000000 0.036137
#
#
# Mechanical properties :
#
#
# Convention : Reuss Voigt Hill
#
# Bulk Modulus (GPa) = 52.12674 52.29509 52.21091
# Shear Modulus (GPa) = 26.62094 -14.02573 6.29760
#
# Velocity S-wave (km/s) = 3.90293 -2.83297 1.89831
# Velocity P-wave (km/s) = 7.08083 4.38441 5.88902
#
# Compressibility (1/GPa) = 0.01918401
#
# Stress axis : x y z
#
# Youngs Moduli (GPa) = 53.93090 59.32485 108.35891
#
# Poissons Ratio (x) = 0.54671 0.25731
# Poissons Ratio (y) = 0.49701 0.12259
# Poissons Ratio (z) = 0.12807 0.06712
#
# Static dielectric constant tensor:
#      x y z
#    x 1.655180 0.000000 0.000000 
#    y 0.000000 1.581330 0.000000 
#    z 0.000000 0.000000 1.677880 
# 
# From -- ./inp_files/43912.got.cif
#   From: 2010.05.17/outbox.cif.g08.bks.cpg/sg65_22_cif.got.tgz:43912.got - 2010.06.03 17:01:31.
