data_PCOD9485931
_publ_section_title
;
Structure prediction by ZEFSAII (Michael W. Deem and Ramdas Pophale) SiO2 
 PCOD9485931
Probable space group: C M M M
;
_chemical_formula_sum "Si O2"
_cell_formula_units_Z 80
_cell_length_a 8.513877
_cell_length_b 18.660981
_cell_length_c 27.040628
_cell_angle_alpha 90.000000
_cell_angle_beta 90.000000
_cell_angle_gamma 90.000000
_cell_volume 4296.141884
_symmetry_space_group_name_H-M "C M M M"
_symmetry_group_IT_number 65
_symmetry_cell_setting 'orthorhombic'
loop_
_space_group_symop_operation_xyz
x,y,z
-x,-y,z
x,-y,-z
-x,y,-z
-x,-y,-z
x,y,-z
-x,y,z
x,-y,z
1/2+x,1/2+y,z
1/2-x,1/2-y,z
1/2+x,1/2-y,-z
1/2-x,1/2+y,-z
1/2-x,1/2-y,-z
1/2+x,1/2+y,-z
1/2-x,1/2+y,z
1/2+x,1/2-y,z
loop_
_atom_site_type_symbol
_atom_site_label
_atom_site_fract_x
_atom_site_fract_y
_atom_site_fract_z
Si Si1 0.811613 0.417026 0.000000
Si Si2 0.691934 0.082389 0.597296
Si Si3 0.810258 0.331358 0.693662
Si Si4 0.188361 0.331761 0.802330
Si Si5 0.690004 0.830831 0.500000
Si Si6 0.313285 0.331565 0.094262
O O1 0.749499 0.377134 0.951399
O O2 0.762315 0.500000 0.000000
O O3 0.000000 0.413829 0.000000
O O4 0.500000 0.082279 0.597467
O O5 0.743772 0.120833 0.647775
O O6 0.741661 0.127126 0.549235
O O7 0.742781 0.000000 0.594612
O O8 0.750000 0.250000 0.688605
O O9 0.765878 0.360923 0.748174
O O10 0.000000 0.328774 0.692619
O O11 0.250000 0.250000 0.801334
O O12 0.257613 0.362920 0.852815
O O13 0.000000 0.331897 0.806169
O O14 0.500000 0.829862 0.500000
O O15 0.750000 0.750000 0.500000
O O16 0.500000 0.328725 0.093344
O O17 0.250000 0.250000 0.090230
#
# Coordination Sequence:
#
# PCOD9485931 Si02
#       6
#     8  16  16  16   8  16
#     4  11  24  41  58  77 105 139 174 213 258 309
#     4   9  17  30  48  71  98 129 167 207 247 296
#     4   9  17  29  48  72  98 129 165 207 250 295
#     4   9  16  28  47  73 101 129 166 208 253 299
#     4  10  19  31  51  75  97 126 164 208 254 300
#     4  11  21  35  57  82 108 137 173 215 257 304
#
# _framework density 18.621359999999999
#
# number of rings (size 3 to 8) (size 9 to 14) (size 15 to 20)
#    0.000    2.300    0.000    5.100    0.000    2.800 
#    0.000    1.000    0.000    6.600    0.000    0.000 
#    0.000    0.000    0.000    0.000    0.000    0.000 
#
# Total GULP energy -223129.434908 kJ/mol
# GULP energy per Si atom -5578.235873 kJ/mol
# Density = 1.857898 g / cm^3
# Si number density = 18.621360 Si / 1000 Ang^3
#
#
#
# Elastic Constant Matrix: (Units=GPa)
#
#
# Indices 1 2 3 4 5 6 
#
# 1 49.2310 24.7619 43.1980 0.0000 0.0000 0.0000
# 2 24.7619 111.3099 102.4568 0.0000 0.0000 0.0000
# 3 43.1980 102.4568 238.5871 0.0000 0.0000 0.0000
# 4 0.0000 0.0000 0.0000 -5.4900 0.0000 0.0000
# 5 0.0000 0.0000 0.0000 0.0000 23.1961 0.0000
# 6 0.0000 0.0000 0.0000 0.0000 0.0000 20.1045
#
#
#
# Elastic Compliance Matrix: (Units=1/GPa)
#
#
# Indices 1 2 3 4 5 6 
#
# 1 0.024488 -0.002260 -0.003463 0.000000 0.000000 0.000000
# 2 -0.002260 0.015065 -0.006060 0.000000 0.000000 0.000000
# 3 -0.003463 -0.006060 0.007421 0.000000 0.000000 0.000000
# 4 0.000000 0.000000 0.000000 -0.182150 0.000000 0.000000
# 5 0.000000 0.000000 0.000000 0.000000 0.043111 0.000000
# 6 0.000000 0.000000 0.000000 0.000000 0.000000 0.049740
#
#
# Mechanical properties :
#
#
# Convention : Reuss Voigt Hill
#
# Bulk Modulus (GPa) = 42.72199 82.21791 62.46995
# Shear Modulus (GPa) = -456.30286 22.80956 -216.74665
#
# Velocity S-wave (km/s) = -15.67082 3.50367 -10.80044
# Velocity P-wave (km/s) = 17.44823 7.78563 11.04139
#
# Compressibility (1/GPa) = 0.02340715
#
# Stress axis : x y z
#
# Youngs Moduli (GPa) = 40.83653 66.38007 134.75595
#
# Poissons Ratio (x) = 0.15000 0.46671
# Poissons Ratio (y) = 0.09228 0.81664
# Poissons Ratio (z) = 0.14143 0.40227
#
# Static dielectric constant tensor:
#      x y z
#    x 1.634410 0.000000 0.000000 
#    y 0.000000 1.595420 0.000000 
#    z 0.000000 0.000000 1.677820 
# 
# From -- ./inp_files/72876.got.cif
#   From: 2010.05.17/outbox.cif.g08.bks.cpg/sg65_37_cif.got.tgz:72876.got - 2010.06.03 17:01:31.
