data_PCOD9485959
_publ_section_title
;
Structure prediction by ZEFSAII (Michael W. Deem and Ramdas Pophale) SiO2 
 PCOD9485959
Probable space group: C M M M
;
_chemical_formula_sum "Si O2"
_cell_formula_units_Z 88
_cell_length_a 18.458785
_cell_length_b 8.489450
_cell_length_c 29.653832
_cell_angle_alpha 90.000000
_cell_angle_beta 90.000000
_cell_angle_gamma 90.000000
_cell_volume 4646.901737
_symmetry_space_group_name_H-M "C M M M"
_symmetry_group_IT_number 65
_symmetry_cell_setting 'orthorhombic'
loop_
_space_group_symop_operation_xyz
x,y,z
-x,-y,z
x,-y,-z
-x,y,-z
-x,-y,-z
x,y,-z
-x,y,z
x,-y,z
1/2+x,1/2+y,z
1/2-x,1/2-y,z
1/2+x,1/2-y,-z
1/2-x,1/2+y,-z
1/2-x,1/2-y,-z
1/2+x,1/2+y,-z
1/2-x,1/2+y,z
1/2+x,1/2-y,z
loop_
_atom_site_type_symbol
_atom_site_label
_atom_site_fract_x
_atom_site_fract_y
_atom_site_fract_z
Si Si1 0.668140 0.190564 0.179635
Si Si2 0.916327 0.309453 0.269538
Si Si3 0.416500 0.807643 0.910148
Si Si4 0.167520 0.187048 0.356517
Si Si5 0.331913 0.190614 0.000000
Si Si6 0.332947 0.811151 0.450998
O O1 0.750000 0.250000 0.178858
O O2 0.627372 0.242449 0.225110
O O3 0.624895 0.242860 0.135063
O O4 0.668689 0.000000 0.179525
O O5 0.914699 0.500000 0.270439
O O6 0.878453 0.247806 0.314536
O O7 0.000000 0.259832 0.266956
O O8 0.500000 0.756395 0.910485
O O9 0.374127 0.757296 0.955022
O O10 0.416975 0.000000 0.910146
O O11 0.250000 0.250000 0.352554
O O12 0.135787 0.244335 0.404612
O O13 0.170436 0.000000 0.356510
O O14 0.250000 0.250000 0.000000
O O15 0.331229 0.000000 0.000000
O O16 0.365098 0.766114 0.500000
O O17 0.250000 0.750000 0.451622
O O18 0.332162 0.000000 0.448265
#
# Coordination Sequence:
#
# PCOD9485959 Si02
#       6
#    16  16  16  16   8  16
#     4  10  20  34  54  78 103 133 169 212 260 310
#     4  10  21  37  55  74  99 133 172 214 262 314
#     4   9  17  31  52  77 103 134 176 218 255 303
#     4  11  21  33  52  77 106 138 173 214 259 308
#     4  10  19  31  51  77 105 138 174 216 262 306
#     4   9  16  27  46  73 104 136 171 212 257 304
#
# _framework density 18.937349000000001
#
# number of rings (size 3 to 8) (size 9 to 14) (size 15 to 20)
#    0.000    2.182    0.000    5.182    0.000    6.909 
#    0.000    0.000    0.000    4.364    0.000    3.818 
#    0.000    0.000    0.000    0.000    0.000    0.000 
#
# Total GULP energy -245587.283724 kJ/mol
# GULP energy per Si atom -5581.529176 kJ/mol
# Density = 1.889425 g / cm^3
# Si number density = 18.937349 Si / 1000 Ang^3
#
#
#
# Elastic Constant Matrix: (Units=GPa)
#
#
# Indices 1 2 3 4 5 6 
#
# 1 149.3754 24.9467 115.6246 0.0000 0.0000 0.0000
# 2 24.9467 27.2000 35.2929 0.0000 0.0000 0.0000
# 3 115.6246 35.2929 243.0944 0.0000 0.0000 0.0000
# 4 0.0000 0.0000 0.0000 -17.4389 0.0000 0.0000
# 5 0.0000 0.0000 0.0000 0.0000 -9.6128 0.0000
# 6 0.0000 0.0000 0.0000 0.0000 0.0000 25.0015
#
#
#
# Elastic Compliance Matrix: (Units=1/GPa)
#
#
# Indices 1 2 3 4 5 6 
#
# 1 0.010945 -0.004046 -0.004619 0.000000 0.000000 0.000000
# 2 -0.004046 0.046793 -0.004869 0.000000 0.000000 0.000000
# 3 -0.004619 -0.004869 0.007017 0.000000 0.000000 0.000000
# 4 0.000000 0.000000 0.000000 -0.057343 0.000000 0.000000
# 5 0.000000 0.000000 0.000000 0.000000 -0.104028 0.000000
# 6 0.000000 0.000000 0.000000 0.000000 0.000000 0.039998
#
#
# Mechanical properties :
#
#
# Convention : Reuss Voigt Hill
#
# Bulk Modulus (GPa) = 26.53316 85.71092 56.12204
# Shear Modulus (GPa) = -294.33188 15.84366 -139.24411
#
# Velocity S-wave (km/s) = -12.48044 2.89560 -8.58420
# Velocity P-wave (km/s) = 13.91548 7.51917 8.27957
#
# Compressibility (1/GPa) = 0.03768869
#
# Stress axis : x y z
#
# Youngs Moduli (GPa) = 91.36381 21.37059 142.50456
#
# Poissons Ratio (x) = 0.08646 0.65817
# Poissons Ratio (y) = 0.36964 0.69389
# Poissons Ratio (z) = 0.42197 0.10406
#
# Static dielectric constant tensor:
#      x y z
#    x 1.631860 0.000000 0.000000 
#    y 0.000000 1.647770 0.000000 
#    z 0.000000 0.000000 1.673680 
# 
# From -- ./inp_files/77892.got.cif
#   From: 2010.05.17/outbox.cif.g08.bks.cpg/sg65_39_cif.got.tgz:77892.got - 2010.06.03 17:01:31.
