data_PCOD9485319
_publ_section_title
;
Structure prediction by ZEFSAII (Michael W. Deem and Ramdas Pophale) SiO2 
 PCOD9485319
Probable space group: C M M M
;
_chemical_formula_sum "Si O2"
_cell_formula_units_Z 88
_cell_length_a 21.088347
_cell_length_b 25.443011
_cell_length_c 7.708406
_cell_angle_alpha 90.000000
_cell_angle_beta 90.000000
_cell_angle_gamma 90.000000
_cell_volume 4135.953292
_symmetry_space_group_name_H-M "C M M M"
_symmetry_group_IT_number 65
_symmetry_cell_setting 'orthorhombic'
loop_
_space_group_symop_operation_xyz
x,y,z
-x,-y,z
x,-y,-z
-x,y,-z
-x,-y,-z
x,y,-z
-x,y,z
x,-y,z
1/2+x,1/2+y,z
1/2-x,1/2-y,z
1/2+x,1/2-y,-z
1/2-x,1/2+y,-z
1/2-x,1/2-y,-z
1/2+x,1/2+y,-z
1/2-x,1/2+y,z
1/2+x,1/2-y,z
loop_
_atom_site_type_symbol
_atom_site_label
_atom_site_fract_x
_atom_site_fract_y
_atom_site_fract_z
Si Si1 0.311120 0.784704 0.287783
Si Si2 0.000000 0.561937 0.792813
Si Si3 0.284871 0.000000 0.809071
Si Si4 0.861123 0.601912 0.706529
Si Si5 0.851252 0.000000 0.697991
Si Si6 0.572051 0.403511 0.289039
Si Si7 0.570780 0.284512 0.288097
O O1 0.308129 0.785999 0.500000
O O2 0.250000 0.750000 0.232349
O O3 0.325591 0.844798 0.232129
O O4 0.373540 0.753166 0.232523
O O5 0.063707 0.593510 0.740171
O O6 0.000000 0.500000 0.728622
O O7 0.000000 0.558579 0.000000
O O8 0.327344 0.051049 0.783986
O O9 0.223748 0.000000 0.690048
O O10 0.256786 0.000000 0.000000
O O11 0.852894 0.600393 0.500000
O O12 0.879178 0.946735 0.776391
O O13 0.876062 0.000000 0.500000
O O14 0.575851 0.400155 0.500000
O O15 0.500000 0.419053 0.246202
O O16 0.582902 0.344130 0.228923
O O17 0.570954 0.284356 0.500000
O O18 0.500000 0.268770 0.233730
#
# Coordination Sequence:
#
# PCOD9485319 Si02
#       7
#    16   8   8  16   8  16  16
#     4   9  19  32  51  83 122 152 182 236 300 347
#     4  11  23  41  65  91 126 166 192 233 304 369
#     4  12  26  42  56  77 116 159 193 231 292 358
#     4  11  23  39  64  93 117 148 198 250 293 347
#     4  10  19  30  53  83 110 141 188 241 283 335
#     4   8  14  25  45  77 113 144 177 227 287 337
#     4   8  14  25  42  68 109 150 177 213 279 346
#
# _framework density 21.276837
#
# number of rings (size 3 to 8) (size 9 to 14) (size 15 to 20)
#    0.000    2.455    0.909    3.000    3.818    1.455 
#    0.000    0.000    0.000    3.273    0.000    0.000 
#    0.000    0.000    0.000    0.000    0.000    0.000 
#
# Total GULP energy -245412.638871 kJ/mol
# GULP energy per Si atom -5577.559974 kJ/mol
# Density = 2.122841 g / cm^3
# Si number density = 21.276837 Si / 1000 Ang^3
#
#
#
# Elastic Constant Matrix: (Units=GPa)
#
#
# Indices 1 2 3 4 5 6 
#
# 1 120.8945 114.0570 -5.5919 0.0000 0.0000 0.0000
# 2 114.0570 159.2060 5.5791 0.0000 0.0000 0.0000
# 3 -5.5919 5.5791 43.9214 0.0000 0.0000 0.0000
# 4 0.0000 0.0000 0.0000 290.4941 0.0000 0.0000
# 5 0.0000 0.0000 0.0000 0.0000 -33.2399 0.0000
# 6 0.0000 0.0000 0.0000 0.0000 0.0000 51.5514
#
#
#
# Elastic Compliance Matrix: (Units=1/GPa)
#
#
# Indices 1 2 3 4 5 6 
#
# 1 0.026969 -0.019528 0.005914 0.000000 0.000000 0.000000
# 2 -0.019528 0.020449 -0.005084 0.000000 0.000000 0.000000
# 3 0.005914 -0.005084 0.024167 0.000000 0.000000 0.000000
# 4 0.000000 0.000000 0.000000 0.003442 0.000000 0.000000
# 5 0.000000 0.000000 0.000000 0.000000 -0.030084 0.000000
# 6 0.000000 0.000000 0.000000 0.000000 0.000000 0.019398
#
#
# Mechanical properties :
#
#
# Convention : Reuss Voigt Hill
#
# Bulk Modulus (GPa) = 29.24879 61.34557 45.29718
# Shear Modulus (GPa) = 44.19583 75.75962 59.97772
#
# Velocity S-wave (km/s) = 4.56255 5.97360 5.31511
# Velocity P-wave (km/s) = 6.44457 8.74490 7.68133
#
# Compressibility (1/GPa) = 0.03418945
#
# Stress axis : x y z
#
# Youngs Moduli (GPa) = 37.07999 48.90127 41.37928
#
# Poissons Ratio (x) = 0.95494 -0.24472
# Poissons Ratio (y) = 0.72410 0.21036
# Poissons Ratio (z) = -0.21929 0.24860
#
# Static dielectric constant tensor:
#      x y z
#    x 1.735440 0.000000 0.000000 
#    y 0.000000 1.775210 0.000000 
#    z 0.000000 0.000000 1.802680 
# 
# From -- ./inp_files/11912.got.cif
#   From: 2010.05.17/outbox.cif.g08.bks.cpg/sg65_6_cif.got.tgz:11912.got - 2010.06.03 17:01:31.
