data_PCOD9485418
_publ_section_title
;
Structure prediction by ZEFSAII (Michael W. Deem and Ramdas Pophale) SiO2 
 PCOD9485418
Probable space group: C M M M
;
_chemical_formula_sum "Si O2"
_cell_formula_units_Z 88
_cell_length_a 18.815295
_cell_length_b 7.843654
_cell_length_c 30.139382
_cell_angle_alpha 90.000000
_cell_angle_beta 90.000000
_cell_angle_gamma 90.000000
_cell_volume 4447.990005
_symmetry_space_group_name_H-M "C M M M"
_symmetry_group_IT_number 65
_symmetry_cell_setting 'orthorhombic'
loop_
_space_group_symop_operation_xyz
x,y,z
-x,-y,z
x,-y,-z
-x,y,-z
-x,-y,-z
x,y,-z
-x,y,z
x,-y,z
1/2+x,1/2+y,z
1/2-x,1/2-y,z
1/2+x,1/2-y,-z
1/2-x,1/2+y,-z
1/2-x,1/2-y,-z
1/2+x,1/2+y,-z
1/2-x,1/2+y,z
1/2+x,1/2-y,z
loop_
_atom_site_type_symbol
_atom_site_label
_atom_site_fract_x
_atom_site_fract_y
_atom_site_fract_z
Si Si1 0.917107 0.208907 0.855984
Si Si2 0.582133 0.790756 0.412954
Si Si3 0.667182 0.205125 0.500000
Si Si4 0.832560 0.202178 0.770962
Si Si5 0.667057 0.201886 0.327511
Si Si6 0.085590 0.795122 0.952336
O O1 0.874790 0.272498 0.813220
O O2 0.888749 0.267741 0.904295
O O3 0.000000 0.255280 0.852239
O O4 0.914614 0.000000 0.856547
O O5 0.500000 0.738636 0.415552
O O6 0.627021 0.734288 0.455737
O O7 0.620040 0.729310 0.367897
O O8 0.582706 0.000000 0.412811
O O9 0.750000 0.250000 0.500000
O O10 0.662165 0.000000 0.500000
O O11 0.750000 0.250000 0.773867
O O12 0.858290 0.251723 0.721891
O O13 0.837773 0.000000 0.773275
O O14 0.750000 0.250000 0.331969
O O15 0.664106 0.000000 0.330510
O O16 0.000000 0.769895 0.951834
O O17 0.096560 0.000000 0.952930
O O18 0.112179 0.727323 0.000000
#
# Coordination Sequence:
#
# PCOD9485418 Si02
#       6
#    16  16   8  16  16  16
#     4   8  14  24  39  61  86 111 143 184 226 265
#     4   9  18  32  51  75  99 124 155 190 228 269
#     4  10  19  33  55  77  99 128 160 192 224 266
#     4  10  19  31  47  65  89 121 153 185 222 268
#     4  10  19  32  50  69  91 119 153 191 225 265
#     4   7   9  15  30  53  80 107 135 172 219 265
#
# _framework density 19.784217000000002
#
# number of rings (size 3 to 8) (size 9 to 14) (size 15 to 20)
#    0.000    3.091    0.000    4.636    0.000    1.818 
#    0.000    0.909    0.000    7.091    0.000    0.000 
#    0.000    2.182    0.000   18.182    0.000   15.273 
#
# Total GULP energy -245159.348741 kJ/mol
# GULP energy per Si atom -5571.803380 kJ/mol
# Density = 1.973919 g / cm^3
# Si number density = 19.784217 Si / 1000 Ang^3
#
#
#
# Elastic Constant Matrix: (Units=GPa)
#
#
# Indices 1 2 3 4 5 6 
#
# 1 83.9559 2.1251 105.0521 0.0000 0.0000 0.0000
# 2 2.1251 24.9028 12.2064 0.0000 0.0000 0.0000
# 3 105.0521 12.2064 265.3180 0.0000 0.0000 0.0000
# 4 0.0000 0.0000 0.0000 -130.1161 0.0000 0.0000
# 5 0.0000 0.0000 0.0000 0.0000 -75.0294 0.0000
# 6 0.0000 0.0000 0.0000 0.0000 0.0000 8.4675
#
#
#
# Elastic Compliance Matrix: (Units=1/GPa)
#
#
# Indices 1 2 3 4 5 6 
#
# 1 0.023776 0.002645 -0.009536 0.000000 0.000000 0.000000
# 2 0.002645 0.041377 -0.002951 0.000000 0.000000 0.000000
# 3 -0.009536 -0.002951 0.007680 0.000000 0.000000 0.000000
# 4 0.000000 0.000000 0.000000 -0.007685 0.000000 0.000000
# 5 0.000000 0.000000 0.000000 0.000000 -0.013328 0.000000
# 6 0.000000 0.000000 0.000000 0.000000 0.000000 0.118098
#
#
# Mechanical properties :
#
#
# Convention : Reuss Voigt Hill
#
# Bulk Modulus (GPa) = 18.81462 68.10488 43.45975
# Shear Modulus (GPa) = 24.11757 -22.34939 0.88409
#
# Velocity S-wave (km/s) = 3.49525 -3.36468 0.66920
# Velocity P-wave (km/s) = 5.08130 4.40497 4.75517
#
# Compressibility (1/GPa) = 0.05315016
#
# Stress axis : x y z
#
# Youngs Moduli (GPa) = 42.05947 24.16808 130.20047
#
# Poissons Ratio (x) = -0.06393 1.24155
# Poissons Ratio (y) = -0.11125 0.38421
# Poissons Ratio (z) = 0.40107 0.07132
#
# Static dielectric constant tensor:
#      x y z
#    x 1.670220 0.000000 0.000000 
#    y 0.000000 1.678780 0.000000 
#    z 0.000000 0.000000 1.763000 
# 
# From -- ./inp_files/77810.got.cif
#   From: 2010.05.17/outbox.cif.g08.bks.cpg/sg65_39_cif.got.tgz:77810.got - 2010.06.03 17:01:31.
