data_PCOD9485187
_publ_section_title
;
Structure prediction by ZEFSAII (Michael W. Deem and Ramdas Pophale) SiO2 
 PCOD9485187
Probable space group: C M M M
;
_chemical_formula_sum "Si O2"
_cell_formula_units_Z 88
_cell_length_a 7.704325
_cell_length_b 18.898629
_cell_length_c 30.159378
_cell_angle_alpha 90.000000
_cell_angle_beta 90.000000
_cell_angle_gamma 90.000000
_cell_volume 4391.241021
_symmetry_space_group_name_H-M "C M M M"
_symmetry_group_IT_number 65
_symmetry_cell_setting 'orthorhombic'
loop_
_space_group_symop_operation_xyz
x,y,z
-x,-y,z
x,-y,-z
-x,y,-z
-x,-y,-z
x,y,-z
-x,y,z
x,-y,z
1/2+x,1/2+y,z
1/2-x,1/2-y,z
1/2+x,1/2-y,-z
1/2-x,1/2+y,-z
1/2-x,1/2-y,-z
1/2+x,1/2+y,-z
1/2-x,1/2+y,z
1/2+x,1/2-y,z
loop_
_atom_site_type_symbol
_atom_site_label
_atom_site_fract_x
_atom_site_fract_y
_atom_site_fract_z
Si Si1 0.712635 0.918042 0.500000
Si Si2 0.211732 0.582656 0.672107
Si Si3 0.794296 0.832674 0.856656
Si Si4 0.707337 0.079693 0.770051
Si Si5 0.791243 0.332681 0.413314
Si Si6 0.790920 0.834012 0.047678
O O1 0.500000 0.917874 0.500000
O O2 0.770745 0.876335 0.543871
O O3 0.766462 0.000000 0.500000
O O4 0.259061 0.500000 0.665691
O O5 0.270127 0.604900 0.721566
O O6 0.274279 0.631627 0.632133
O O7 0.000000 0.584903 0.671346
O O8 0.750000 0.750000 0.852779
O O9 0.740824 0.872991 0.812589
O O10 0.724131 0.860141 0.904450
O O11 0.000000 0.838644 0.859364
O O12 0.500000 0.075118 0.765914
O O13 0.774971 0.000000 0.777136
O O14 0.750000 0.250000 0.416292
O O15 0.000000 0.339123 0.413037
O O16 0.750000 0.750000 0.047818
O O17 0.000000 0.842178 0.047280
O O18 0.725547 0.862137 0.000000
#
# Coordination Sequence:
#
# PCOD9485187 Si02
#       6
#     8  16  16  16  16  16
#     4   9  17  30  51  75  94 121 164 202 226 261
#     4   8  15  30  51  70  88 118 160 197 228 270
#     4  10  19  30  47  71  97 123 154 194 237 282
#     4   9  18  33  51  69  92 124 160 197 238 283
#     4  10  19  31  49  73 100 125 152 191 236 279
#     4   8  14  25  41  62  88 117 149 186 229 276
#
# _framework density 20.039891999999998
#
# number of rings (size 3 to 8) (size 9 to 14) (size 15 to 20)
#    0.000    3.000    0.000    2.455    0.000    4.000 
#    0.000    2.727    0.000    4.364    0.000    3.818 
#    0.000    0.000    0.000    0.000    0.000    0.000 
#
# Total GULP energy -245145.249922 kJ/mol
# GULP energy per Si atom -5571.482953 kJ/mol
# Density = 1.999428 g / cm^3
# Si number density = 20.039892 Si / 1000 Ang^3
#
#
#
# Elastic Constant Matrix: (Units=GPa)
#
#
# Indices 1 2 3 4 5 6 
#
# 1 31.4819 -0.2789 12.1218 0.0000 0.0000 0.0000
# 2 -0.2789 96.0479 116.9534 0.0000 0.0000 0.0000
# 3 12.1218 116.9534 270.7183 0.0000 0.0000 0.0000
# 4 0.0000 0.0000 0.0000 113.5759 0.0000 0.0000
# 5 0.0000 0.0000 0.0000 0.0000 3.7909 0.0000
# 6 0.0000 0.0000 0.0000 0.0000 0.0000 16.0226
#
#
#
# Elastic Compliance Matrix: (Units=1/GPa)
#
#
# Indices 1 2 3 4 5 6 
#
# 1 0.033035 0.004003 -0.003208 0.000000 0.000000 0.000000
# 2 0.004003 0.022452 -0.009879 0.000000 0.000000 0.000000
# 3 -0.003208 -0.009879 0.008105 0.000000 0.000000 0.000000
# 4 0.000000 0.000000 0.000000 0.008805 0.000000 0.000000
# 5 0.000000 0.000000 0.000000 0.000000 0.263789 0.000000
# 6 0.000000 0.000000 0.000000 0.000000 0.000000 0.062412
#
#
# Mechanical properties :
#
#
# Convention : Reuss Voigt Hill
#
# Bulk Modulus (GPa) = 22.01513 72.87120 47.44317
# Shear Modulus (GPa) = 11.57652 44.64133 28.10893
#
# Velocity S-wave (km/s) = 2.40609 4.72489 3.74926
# Velocity P-wave (km/s) = 4.32765 8.13684 6.51677
#
# Compressibility (1/GPa) = 0.04542330
#
# Stress axis : x y z
#
# Youngs Moduli (GPa) = 30.27089 44.53936 123.37641
#
# Poissons Ratio (x) = -0.17827 0.39584
# Poissons Ratio (y) = -0.12116 1.21881
# Poissons Ratio (z) = 0.09712 0.43999
#
# Static dielectric constant tensor:
#      x y z
#    x 1.917950 0.000000 0.000000 
#    y 0.000000 1.653200 0.000000 
#    z 0.000000 0.000000 1.775270 
# 
# From -- ./inp_files/76444.got.cif
#   From: 2010.05.17/outbox.cif.g08.bks.cpg/sg65_39_cif.got.tgz:76444.got - 2010.06.03 17:01:31.
