data_PCOD9485156
_publ_section_title
;
Structure prediction by ZEFSAII (Michael W. Deem and Ramdas Pophale) SiO2 
 PCOD9485156
Probable space group: C M M M
;
_chemical_formula_sum "Si O2"
_cell_formula_units_Z 96
_cell_length_a 14.427905
_cell_length_b 9.356021
_cell_length_c 32.430581
_cell_angle_alpha 90.000000
_cell_angle_beta 90.000000
_cell_angle_gamma 90.000000
_cell_volume 4377.732204
_symmetry_space_group_name_H-M "C M M M"
_symmetry_group_IT_number 65
_symmetry_cell_setting 'orthorhombic'
loop_
_space_group_symop_operation_xyz
x,y,z
-x,-y,z
x,-y,-z
-x,y,-z
-x,-y,-z
x,y,-z
-x,y,z
x,-y,z
1/2+x,1/2+y,z
1/2-x,1/2-y,z
1/2+x,1/2-y,-z
1/2-x,1/2+y,-z
1/2-x,1/2-y,-z
1/2+x,1/2+y,-z
1/2-x,1/2+y,z
1/2+x,1/2-y,z
loop_
_atom_site_type_symbol
_atom_site_label
_atom_site_fract_x
_atom_site_fract_y
_atom_site_fract_z
Si Si1 0.886702 0.661940 0.625881
Si Si2 0.850408 0.171530 0.045782
Si Si3 0.887042 0.164904 0.454262
Si Si4 0.608260 0.842243 0.782134
Si Si5 0.613447 0.339451 0.706158
Si Si6 0.650854 0.172111 0.875847
O O1 0.853708 0.500000 0.626778
O O2 0.857208 0.740673 0.584158
O O3 0.859455 0.744849 0.667111
O O4 0.000000 0.659959 0.625631
O O5 0.750000 0.250000 0.043323
O O6 0.895586 0.250263 0.084911
O O7 0.841553 0.000000 0.052784
O O8 0.892156 0.189693 0.000000
O O9 0.859645 0.216041 0.500000
O O10 0.000000 0.164426 0.453725
O O11 0.857887 0.000000 0.449430
O O12 0.500000 0.855806 0.771716
O O13 0.644321 0.729216 0.749348
O O14 0.611268 0.803345 0.830291
O O15 0.651698 0.000000 0.777719
O O16 0.500000 0.345020 0.705986
O O17 0.647668 0.500000 0.701751
O O18 0.750000 0.250000 0.873439
O O19 0.655373 0.000000 0.882391
#
# Coordination Sequence:
#
# PCOD9485156 Si02
#       6
#    16  16  16  16  16  16
#     4   9  15  21  30  44  63  88 119 158 201 244
#     4   9  16  26  42  64  89 115 143 176 211 248
#     4   8  13  20  28  38  55  81 114 154 199 244
#     4   9  18  32  47  63  85 113 145 179 215 254
#     4   9  16  25  38  55  73  96 129 168 208 248
#     4  10  19  30  47  69  92 117 143 176 215 255
#
# _framework density 21.929161000000001
#
# number of rings (size 3 to 8) (size 9 to 14) (size 15 to 20)
#    0.000    3.000    0.000    3.500    0.000    6.667 
#    0.000    1.667    0.000    0.500    0.000    3.500 
#    0.000    0.000    0.000    0.000    0.000    0.833 
#
# Total GULP energy -267729.097227 kJ/mol
# GULP energy per Si atom -5577.689526 kJ/mol
# Density = 2.187925 g / cm^3
# Si number density = 21.929161 Si / 1000 Ang^3
#
#
#
# Elastic Constant Matrix: (Units=GPa)
#
#
# Indices 1 2 3 4 5 6 
#
# 1 59.1332 13.4973 -0.4789 0.0000 0.0000 0.0000
# 2 13.4973 175.8702 144.4445 0.0000 0.0000 0.0000
# 3 -0.4789 144.4445 224.6896 0.0000 0.0000 0.0000
# 4 0.0000 0.0000 0.0000 48.0353 0.0000 0.0000
# 5 0.0000 0.0000 0.0000 0.0000 7.7788 0.0000
# 6 0.0000 0.0000 0.0000 0.0000 0.0000 -0.6862
#
#
#
# Elastic Compliance Matrix: (Units=1/GPa)
#
#
# Indices 1 2 3 4 5 6 
#
# 1 0.017594 -0.002926 0.001919 0.000000 0.000000 0.000000
# 2 -0.002926 0.012533 -0.008063 0.000000 0.000000 0.000000
# 3 0.001919 -0.008063 0.009638 0.000000 0.000000 0.000000
# 4 0.000000 0.000000 0.000000 0.020818 0.000000 0.000000
# 5 0.000000 0.000000 0.000000 0.000000 0.128554 0.000000
# 6 0.000000 0.000000 0.000000 0.000000 0.000000 -1.457196
#
#
# Mechanical properties :
#
#
# Convention : Reuss Voigt Hill
#
# Bulk Modulus (GPa) = 46.24455 86.06876 66.15665
# Shear Modulus (GPa) = -4.02347 31.17425 13.57539
#
# Velocity S-wave (km/s) = -1.35600 3.77449 2.49078
# Velocity P-wave (km/s) = 4.32230 7.63737 6.20531
#
# Compressibility (1/GPa) = 0.02162417
#
# Stress axis : x y z
#
# Youngs Moduli (GPa) = 56.83636 79.78920 103.75347
#
# Poissons Ratio (x) = 0.23346 -0.19905
# Poissons Ratio (y) = 0.16630 0.83659
# Poissons Ratio (z) = -0.10904 0.64336
#
# Static dielectric constant tensor:
#      x y z
#    x 1.994890 0.000000 0.000000 
#    y 0.000000 1.761210 0.000000 
#    z 0.000000 0.000000 1.815140 
# 
# From -- ./inp_files/75703.got.cif
#   From: 2010.05.17/outbox.cif.g08.bks.cpg/sg65_38_cif.got.tgz:75703.got - 2010.06.03 17:01:31.
