data_PCOD9485848
_publ_section_title
;
Structure prediction by ZEFSAII (Michael W. Deem and Ramdas Pophale) SiO2 
 PCOD9485848
Probable space group: C M M M
;
_chemical_formula_sum "Si O2"
_cell_formula_units_Z 80
_cell_length_a 8.958196
_cell_length_b 26.568242
_cell_length_c 20.140545
_cell_angle_alpha 90.000000
_cell_angle_beta 90.000000
_cell_angle_gamma 90.000000
_cell_volume 4793.520589
_symmetry_space_group_name_H-M "C M M M"
_symmetry_group_IT_number 65
_symmetry_cell_setting 'orthorhombic'
loop_
_space_group_symop_operation_xyz
x,y,z
-x,-y,z
x,-y,-z
-x,y,-z
-x,-y,-z
x,y,-z
-x,y,z
x,-y,z
1/2+x,1/2+y,z
1/2-x,1/2-y,z
1/2+x,1/2-y,-z
1/2-x,1/2+y,-z
1/2-x,1/2-y,-z
1/2+x,1/2+y,-z
1/2-x,1/2+y,z
1/2+x,1/2-y,z
loop_
_atom_site_type_symbol
_atom_site_label
_atom_site_fract_x
_atom_site_fract_y
_atom_site_fract_z
Si Si1 0.678601 0.087965 0.662965
Si Si2 0.325026 0.500000 0.579300
Si Si3 0.673228 0.557021 0.798967
Si Si4 0.820394 0.351277 0.140565
Si Si5 0.179552 0.696037 0.716926
Si Si6 0.679197 0.804069 0.000000
O O1 0.500000 0.086291 0.656164
O O2 0.729756 0.064218 0.732762
O O3 0.722206 0.147377 0.671286
O O4 0.751579 0.051003 0.608804
O O5 0.500000 0.500000 0.598147
O O6 0.311722 0.500000 0.500000
O O7 0.500000 0.568026 0.783333
O O8 0.683680 0.500000 0.822118
O O9 0.738480 0.596093 0.850562
O O10 0.780373 0.318573 0.206431
O O11 0.000000 0.357405 0.142949
O O12 0.777321 0.329233 0.069604
O O13 0.250000 0.750000 0.699583
O O14 0.000000 0.700119 0.713884
O O15 0.750000 0.750000 0.000000
O O16 0.500000 0.801318 0.000000
#
# Coordination Sequence:
#
# PCOD9485848 Si02
#       6
#    16   8  16  16  16   8
#     4  10  20  34  54  79 108 141 176 212 257 310
#     4  11  23  37  55  83 115 142 173 212 253 301
#     4  10  19  31  50  75 101 129 168 214 261 308
#     4   9  19  33  48  70  99 132 173 214 262 320
#     4   9  18  31  49  76 104 133 171 216 262 309
#     4  10  20  34  51  70  95 129 170 217 265 322
#
# _framework density 16.689195999999999
#
# number of rings (size 3 to 8) (size 9 to 14) (size 15 to 20)
#    0.000    2.300    1.000    3.300    0.000    6.800 
#    0.000    0.500    0.000    3.600    0.000    0.000 
#    0.000    0.000    0.000    0.000    0.000    0.000 
#
# Total GULP energy -222855.369830 kJ/mol
# GULP energy per Si atom -5571.384246 kJ/mol
# Density = 1.665121 g / cm^3
# Si number density = 16.689196 Si / 1000 Ang^3
#
#
#
# Elastic Constant Matrix: (Units=GPa)
#
#
# Indices 1 2 3 4 5 6 
#
# 1 43.8695 57.4255 34.2759 0.0000 0.0000 0.0000
# 2 57.4255 150.4131 55.3925 0.0000 0.0000 0.0000
# 3 34.2759 55.3925 71.7600 0.0000 0.0000 0.0000
# 4 0.0000 0.0000 0.0000 23.9508 0.0000 0.0000
# 5 0.0000 0.0000 0.0000 0.0000 15.2524 0.0000
# 6 0.0000 0.0000 0.0000 0.0000 0.0000 34.5916
#
#
#
# Elastic Compliance Matrix: (Units=1/GPa)
#
#
# Indices 1 2 3 4 5 6 
#
# 1 0.053793 -0.015474 -0.013749 0.000000 0.000000 0.000000
# 2 -0.015474 0.013740 -0.003215 0.000000 0.000000 0.000000
# 3 -0.013749 -0.003215 0.022985 0.000000 0.000000 0.000000
# 4 0.000000 0.000000 0.000000 0.041752 0.000000 0.000000
# 5 0.000000 0.000000 0.000000 0.000000 0.065563 0.000000
# 6 0.000000 0.000000 0.000000 0.000000 0.000000 0.028909
#
#
# Mechanical properties :
#
#
# Convention : Reuss Voigt Hill
#
# Bulk Modulus (GPa) = 39.00065 62.24782 50.62424
# Shear Modulus (GPa) = 16.65745 22.68886 19.67316
#
# Velocity S-wave (km/s) = 3.16270 3.69113 3.43708
# Velocity P-wave (km/s) = 6.06271 7.45286 6.79344
#
# Compressibility (1/GPa) = 0.02564060
#
# Stress axis : x y z
#
# Youngs Moduli (GPa) = 18.58980 72.77972 43.50753
#
# Poissons Ratio (x) = 1.12618 0.59821
# Poissons Ratio (y) = 0.28766 0.13988
# Poissons Ratio (z) = 0.25560 0.23400
#
# Static dielectric constant tensor:
#      x y z
#    x 1.564980 0.000000 0.000000 
#    y 0.000000 1.576890 0.000000 
#    z 0.000000 0.000000 1.548180 
# 
# From -- ./inp_files/49934.got.cif
#   From: 2010.05.17/outbox.cif.g08.bks.cpg/sg65_25_cif.got.tgz:49934.got - 2010.06.03 17:01:31.
