data_PCOD9485116
_publ_section_title
;
Structure prediction by ZEFSAII (Michael W. Deem and Ramdas Pophale) SiO2 
 PCOD9485116
Probable space group: C M M M
;
_chemical_formula_sum "Si O2"
_cell_formula_units_Z 92
_cell_length_a 24.922117
_cell_length_b 29.270089
_cell_length_c 7.396615
_cell_angle_alpha 90.000000
_cell_angle_beta 90.000000
_cell_angle_gamma 90.000000
_cell_volume 5395.627847
_symmetry_space_group_name_H-M "C M M M"
_symmetry_group_IT_number 65
_symmetry_cell_setting 'orthorhombic'
loop_
_space_group_symop_operation_xyz
x,y,z
-x,-y,z
x,-y,-z
-x,y,-z
-x,-y,-z
x,y,-z
-x,y,z
x,-y,z
1/2+x,1/2+y,z
1/2-x,1/2-y,z
1/2+x,1/2-y,-z
1/2-x,1/2+y,-z
1/2-x,1/2-y,-z
1/2+x,1/2+y,-z
1/2-x,1/2+y,z
1/2+x,1/2-y,z
loop_
_atom_site_type_symbol
_atom_site_label
_atom_site_fract_x
_atom_site_fract_y
_atom_site_fract_z
Si Si1 0.240151 0.921296 0.291340
Si Si2 0.165177 0.763543 0.220694
Si Si3 0.939792 0.811823 0.211493
Si Si4 0.061608 0.000000 0.720480
Si Si5 0.617419 0.406802 0.717612
Si Si6 0.767992 0.322397 0.781661
Si Si7 0.263596 0.000000 0.000000
O O1 0.236838 0.937060 0.500000
O O2 0.179665 0.907495 0.229675
O O3 0.272696 0.873892 0.284380
O O4 0.261084 0.959884 0.158286
O O5 0.107028 0.779266 0.286806
O O6 0.186261 0.713612 0.274275
O O7 0.211220 0.799738 0.276012
O O8 0.164726 0.764489 0.000000
O O9 0.915916 0.862958 0.221767
O O10 0.000000 0.809571 0.288415
O O11 0.944102 0.800355 0.000000
O O12 0.091075 0.954108 0.780236
O O13 0.062683 0.000000 0.500000
O O14 0.000000 0.000000 0.776637
O O15 0.615686 0.405995 0.500000
O O16 0.767626 0.323552 0.000000
#
# Coordination Sequence:
#
# PCOD9485116 Si02
#       7
#    16  16  16   8  16  16   4
#     4  11  22  35  52  77  99 128 172 210 250 309
#     4   8  15  27  48  71  95 127 167 204 247 305
#     4  10  19  30  46  69  96 127 164 207 253 301
#     4   9  17  30  44  54  71 108 158 206 251 291
#     4  10  20  33  46  62  87 120 164 215 257 293
#     4   9  15  30  52  71  92 128 166 206 253 292
#     4  12  24  36  54  70 105 140 157 202 274 302
#
# _framework density 17.050841999999999
#
# number of rings (size 3 to 8) (size 9 to 14) (size 15 to 20)
#    0.000    2.348    2.609    2.348    1.217    2.435 
#    0.000    2.609    0.000    1.565    0.000    0.000 
#    0.000    0.000    0.000    1.565    0.000    2.783 
#
# Total GULP energy -256195.510296 kJ/mol
# GULP energy per Si atom -5569.467615 kJ/mol
# Density = 1.701203 g / cm^3
# Si number density = 17.050842 Si / 1000 Ang^3
#
#
#
# Elastic Constant Matrix: (Units=GPa)
#
#
# Indices 1 2 3 4 5 6 
#
# 1 61.8908 55.4649 7.0316 0.0000 0.0000 0.0000
# 2 55.4649 141.5791 20.5988 0.0000 0.0000 0.0000
# 3 7.0316 20.5988 79.8644 0.0000 0.0000 0.0000
# 4 0.0000 0.0000 0.0000 -56.8195 0.0000 0.0000
# 5 0.0000 0.0000 0.0000 0.0000 3.8878 0.0000
# 6 0.0000 0.0000 0.0000 0.0000 0.0000 13.6132
#
#
#
# Elastic Compliance Matrix: (Units=1/GPa)
#
#
# Indices 1 2 3 4 5 6 
#
# 1 0.024908 -0.009807 0.000336 0.000000 0.000000 0.000000
# 2 -0.009807 0.011200 -0.002025 0.000000 0.000000 0.000000
# 3 0.000336 -0.002025 0.013014 0.000000 0.000000 0.000000
# 4 0.000000 0.000000 0.000000 -0.017600 0.000000 0.000000
# 5 0.000000 0.000000 0.000000 0.000000 0.257215 0.000000
# 6 0.000000 0.000000 0.000000 0.000000 0.000000 0.073458
#
#
# Mechanical properties :
#
#
# Convention : Reuss Voigt Hill
#
# Bulk Modulus (GPa) = 38.26976 49.94719 44.10848
# Shear Modulus (GPa) = 12.69370 5.48557 9.08963
#
# Velocity S-wave (km/s) = 2.73144 1.79560 2.31138
# Velocity P-wave (km/s) = 5.69569 5.80134 5.74876
#
# Compressibility (1/GPa) = 0.02613029
#
# Stress axis : x y z
#
# Youngs Moduli (GPa) = 40.14791 89.28761 76.84057
#
# Poissons Ratio (x) = 0.87563 -0.02585
# Poissons Ratio (y) = 0.39372 0.15562
# Poissons Ratio (z) = -0.01351 0.18083
#
# Static dielectric constant tensor:
#      x y z
#    x 1.582020 0.000000 0.000000 
#    y 0.000000 1.572200 0.000000 
#    z 0.000000 0.000000 1.655350 
# 
# From -- ./inp_files/16945.got.cif
#   From: 2010.05.17/outbox.cif.g08.bks.cpg/sg65_9_cif.got.tgz:16945.got - 2010.06.03 17:01:31.
