data_PCOD9485930
_publ_section_title
;
Structure prediction by ZEFSAII (Michael W. Deem and Ramdas Pophale) SiO2 
 PCOD9485930
Probable space group: C M M M
;
_chemical_formula_sum "Si O2"
_cell_formula_units_Z 88
_cell_length_a 18.778310
_cell_length_b 8.661099
_cell_length_c 29.719356
_cell_angle_alpha 90.000000
_cell_angle_beta 90.000000
_cell_angle_gamma 90.000000
_cell_volume 4833.579894
_symmetry_space_group_name_H-M "C M M M"
_symmetry_group_IT_number 65
_symmetry_cell_setting 'orthorhombic'
loop_
_space_group_symop_operation_xyz
x,y,z
-x,-y,z
x,-y,-z
-x,y,-z
-x,-y,-z
x,y,-z
-x,y,z
x,-y,z
1/2+x,1/2+y,z
1/2-x,1/2-y,z
1/2+x,1/2-y,-z
1/2-x,1/2+y,-z
1/2-x,1/2-y,-z
1/2+x,1/2+y,-z
1/2-x,1/2+y,z
1/2+x,1/2-y,z
loop_
_atom_site_type_symbol
_atom_site_label
_atom_site_fract_x
_atom_site_fract_y
_atom_site_fract_z
Si Si1 0.915464 0.315195 0.949407
Si Si2 0.670210 0.317253 0.133668
Si Si3 0.169453 0.315076 0.225881
Si Si4 0.670224 0.186856 0.500000
Si Si5 0.918125 0.688491 0.588014
Si Si6 0.669831 0.813554 0.674957
O O1 0.904790 0.500000 0.945654
O O2 0.873866 0.232561 0.909786
O O3 0.000000 0.286601 0.945703
O O4 0.892965 0.268407 0.000000
O O5 0.674961 0.500000 0.137177
O O6 0.750000 0.250000 0.129538
O O7 0.636961 0.252058 0.180188
O O8 0.170992 0.500000 0.222389
O O9 0.250000 0.250000 0.226539
O O10 0.140419 0.272147 0.275285
O O11 0.750000 0.250000 0.500000
O O12 0.627308 0.236189 0.455450
O O13 0.672961 0.000000 0.500000
O O14 0.918838 0.500000 0.588139
O O15 0.879336 0.738615 0.633845
O O16 0.000000 0.739456 0.585467
O O17 0.750000 0.750000 0.670155
O O18 0.674104 0.000000 0.673565
#
# Coordination Sequence:
#
# PCOD9485930 Si02
#       6
#    16  16  16   8  16  16
#     4   9  19  37  58  77 100 132 168 206 250 301
#     4  11  21  33  52  77 105 135 168 209 253 297
#     4   9  16  28  46  69  96 126 162 202 247 294
#     4  10  19  31  51  75  97 126 162 202 244 288
#     4   9  17  30  48  71  98 127 162 201 241 288
#     4   9  17  29  48  71  94 124 162 203 243 287
#
# _framework density 18.205967999999999
#
# number of rings (size 3 to 8) (size 9 to 14) (size 15 to 20)
#    0.000    2.545    0.000    4.636    0.000    2.909 
#    0.000    1.818    0.000    6.000    0.000    0.000 
#    0.000    0.000    0.000    0.000    0.000    0.000 
#
# Total GULP energy -245316.436608 kJ/mol
# GULP energy per Si atom -5575.373559 kJ/mol
# Density = 1.816453 g / cm^3
# Si number density = 18.205968 Si / 1000 Ang^3
#
#
#
# Elastic Constant Matrix: (Units=GPa)
#
#
# Indices 1 2 3 4 5 6 
#
# 1 82.0531 28.3970 84.4268 0.0000 0.0000 0.0000
# 2 28.3970 47.5499 58.1523 0.0000 0.0000 0.0000
# 3 84.4268 58.1523 220.2350 0.0000 0.0000 0.0000
# 4 0.0000 0.0000 0.0000 17.4414 0.0000 0.0000
# 5 0.0000 0.0000 0.0000 0.0000 -9.6479 0.0000
# 6 0.0000 0.0000 0.0000 0.0000 0.0000 21.5081
#
#
#
# Elastic Compliance Matrix: (Units=1/GPa)
#
#
# Indices 1 2 3 4 5 6 
#
# 1 0.020605 -0.003907 -0.006867 0.000000 0.000000 0.000000
# 2 -0.003907 0.031802 -0.006899 0.000000 0.000000 0.000000
# 3 -0.006867 -0.006899 0.008995 0.000000 0.000000 0.000000
# 4 0.000000 0.000000 0.000000 0.057335 0.000000 0.000000
# 5 0.000000 0.000000 0.000000 0.000000 -0.103650 0.000000
# 6 0.000000 0.000000 0.000000 0.000000 0.000000 0.046494
#
#
# Mechanical properties :
#
#
# Convention : Reuss Voigt Hill
#
# Bulk Modulus (GPa) = 38.38115 76.86558 57.62337
# Shear Modulus (GPa) = 47.34246 17.78446 32.56346
#
# Velocity S-wave (km/s) = 5.10493 3.12885 4.23379
# Velocity P-wave (km/s) = 7.47492 7.44074 7.45785
#
# Compressibility (1/GPa) = 0.02605445
#
# Stress axis : x y z
#
# Youngs Moduli (GPa) = 48.53079 31.44504 111.17299
#
# Poissons Ratio (x) = 0.12285 0.76348
# Poissons Ratio (y) = 0.18961 0.76702
# Poissons Ratio (z) = 0.33328 0.21695
#
# Static dielectric constant tensor:
#      x y z
#    x 1.578160 0.000000 0.000000 
#    y 0.000000 1.616690 0.000000 
#    z 0.000000 0.000000 1.662920 
# 
# From -- ./inp_files/77922.got.cif
#   From: 2010.05.17/outbox.cif.g08.bks.cpg/sg65_39_cif.got.tgz:77922.got - 2010.06.03 17:01:31.
