data_PCOD9485292
_publ_section_title
;
Structure prediction by ZEFSAII (Michael W. Deem and Ramdas Pophale) SiO2 
 PCOD9485292
Probable space group: C M M M
;
_chemical_formula_sum "Si O2"
_cell_formula_units_Z 112
_cell_length_a 26.171237
_cell_length_b 14.496069
_cell_length_c 15.453016
_cell_angle_alpha 90.000000
_cell_angle_beta 90.000000
_cell_angle_gamma 90.000000
_cell_volume 5862.566097
_symmetry_space_group_name_H-M "C M M M"
_symmetry_group_IT_number 65
_symmetry_cell_setting 'orthorhombic'
loop_
_space_group_symop_operation_xyz
x,y,z
-x,-y,z
x,-y,-z
-x,y,-z
-x,-y,-z
x,y,-z
-x,y,z
x,-y,z
1/2+x,1/2+y,z
1/2-x,1/2-y,z
1/2+x,1/2-y,-z
1/2-x,1/2+y,-z
1/2-x,1/2-y,-z
1/2+x,1/2+y,-z
1/2-x,1/2+y,z
1/2+x,1/2-y,z
loop_
_atom_site_type_symbol
_atom_site_label
_atom_site_fract_x
_atom_site_fract_y
_atom_site_fract_z
Si Si1 0.669613 0.895102 0.895535
Si Si2 0.882937 0.214878 0.401309
Si Si3 0.617063 0.285122 0.098691
Si Si4 0.669613 0.895102 0.395535
Si Si5 0.714673 0.392585 0.648106
Si Si6 0.438851 0.607255 0.250000
Si Si7 0.714673 0.392585 0.148106
O O1 0.628070 0.819238 0.870066
O O2 0.726336 0.866539 0.865695
O O3 0.660364 0.000000 0.865300
O O4 0.670498 0.895705 0.000000
O O5 0.902446 0.214779 0.500000
O O6 0.871930 0.319238 0.370066
O O7 0.826969 0.167441 0.400477
O O8 0.917087 0.158235 0.334602
O O9 0.582913 0.341765 0.165398
O O10 0.673031 0.332559 0.099523
O O11 0.597555 0.285220 0.000000
O O12 0.670498 0.895705 0.500000
O O13 0.726336 0.866539 0.365695
O O14 0.660364 0.000000 0.365300
O O15 0.710405 0.500000 0.621859
O O16 0.703167 0.385418 0.750000
O O17 0.500000 0.609796 0.250000
O O18 0.422034 0.500000 0.250000
O O19 0.710405 0.500000 0.121859
#
# Coordination Sequence:
#
# PCOD9485292 Si02
#       7
#    16  16  16  16  16  16  16
#     4   9  19  34  52  82 122 158 192 227 265 320
#     4  11  22  37  61  86 112 152 193 230 279 336
#     4  11  22  37  61  86 112 152 193 230 279 336
#     4   9  19  34  52  82 122 158 192 227 265 320
#     4  10  19  30  49  82 122 159 192 227 269 323
#     4  11  26  46  64  85 111 137 178 240 298 345
#     4  10  19  30  49  82 122 159 192 227 269 323
#
# _framework density 19.104261999999999
#
# number of rings (size 3 to 8) (size 9 to 14) (size 15 to 20)
#    0.000    1.857    1.429    2.571    2.000    7.429 
#    0.000    1.429    0.000    1.714    0.000    4.000 
#    0.000    0.000    0.000    0.000    0.000    0.000 
#
# Total GULP energy -312871.541880 kJ/mol
# GULP energy per Si atom -5586.991819 kJ/mol
# Density = 1.906078 g / cm^3
# Si number density = 19.104262 Si / 1000 Ang^3
#
#
#
# Elastic Constant Matrix: (Units=GPa)
#
#
# Indices 1 2 3 4 5 6 
#
# 1 57.3970 50.9031 33.3814 0.0000 0.0000 0.0000
# 2 50.9031 96.9443 43.0376 0.0000 0.0000 0.0000
# 3 33.3814 43.0376 74.2225 0.0000 0.0000 0.0000
# 4 0.0000 0.0000 0.0000 22.2349 0.0000 0.0000
# 5 0.0000 0.0000 0.0000 0.0000 -0.0812 0.0000
# 6 0.0000 0.0000 0.0000 0.0000 0.0000 26.7882
#
#
#
# Elastic Compliance Matrix: (Units=1/GPa)
#
#
# Indices 1 2 3 4 5 6 
#
# 1 0.035015 -0.015344 -0.006851 0.000000 0.000000 0.000000
# 2 -0.015344 0.020615 -0.005053 0.000000 0.000000 0.000000
# 3 -0.006851 -0.005053 0.019484 0.000000 0.000000 0.000000
# 4 0.000000 0.000000 0.000000 0.044974 0.000000 0.000000
# 5 0.000000 0.000000 0.000000 0.000000-12.308209 0.000000
# 6 0.000000 0.000000 0.000000 0.000000 0.000000 0.037330
#
#
# Mechanical properties :
#
#
# Convention : Reuss Voigt Hill
#
# Bulk Modulus (GPa) = 48.49891 53.68978 51.09434
# Shear Modulus (GPa) = -0.41358 16.53782 8.06212
#
# Velocity S-wave (km/s) = -0.46579 2.94540 2.05651
# Velocity P-wave (km/s) = 5.01520 6.30332 5.69579
#
# Compressibility (1/GPa) = 0.02061902
#
# Stress axis : x y z
#
# Youngs Moduli (GPa) = 28.55932 48.50811 51.32476
#
# Poissons Ratio (x) = 0.74432 0.35161
# Poissons Ratio (y) = 0.43822 0.25932
# Poissons Ratio (z) = 0.19565 0.24509
#
# Static dielectric constant tensor:
#      x y z
#    x 1.625880 0.000000 0.000000 
#    y 0.000000 1.715170 0.000000 
#    z 0.000000 0.000000 1.672210 
# 
# From -- ./inp_files/40765.got.cif
#   From: 2010.05.17/outbox.cif.g08.bks.cpg/sg65_21_cif.got.tgz:40765.got - 2010.06.03 17:01:31.
