data_PCOD9485058
_publ_section_title
;
Structure prediction by ZEFSAII (Michael W. Deem and Ramdas Pophale) SiO2 
 PCOD9485058
Probable space group: C M M M
;
_chemical_formula_sum "Si O2"
_cell_formula_units_Z 88
_cell_length_a 20.259972
_cell_length_b 29.126160
_cell_length_c 7.482875
_cell_angle_alpha 90.000000
_cell_angle_beta 90.000000
_cell_angle_gamma 90.000000
_cell_volume 4415.608515
_symmetry_space_group_name_H-M "C M M M"
_symmetry_group_IT_number 65
_symmetry_cell_setting 'orthorhombic'
loop_
_space_group_symop_operation_xyz
x,y,z
-x,-y,z
x,-y,-z
-x,y,-z
-x,-y,-z
x,y,-z
-x,y,z
x,-y,z
1/2+x,1/2+y,z
1/2-x,1/2-y,z
1/2+x,1/2-y,-z
1/2-x,1/2+y,-z
1/2-x,1/2-y,-z
1/2+x,1/2+y,-z
1/2-x,1/2+y,z
1/2+x,1/2-y,z
loop_
_atom_site_type_symbol
_atom_site_label
_atom_site_fract_x
_atom_site_fract_y
_atom_site_fract_z
Si Si1 0.213540 0.797361 0.282966
Si Si2 0.925897 0.661487 0.216525
Si Si3 0.426918 0.730753 0.288921
Si Si4 0.924800 0.056098 0.500000
Si Si5 0.797467 0.614058 0.204430
Si Si6 0.179541 0.055016 0.208552
O O1 0.214197 0.800977 0.500000
O O2 0.250000 0.750000 0.236154
O O3 0.137824 0.794813 0.219562
O O4 0.254314 0.839593 0.208081
O O5 0.914706 0.714470 0.270109
O O6 0.867785 0.628593 0.284320
O O7 0.000000 0.648834 0.273246
O O8 0.923822 0.660910 0.000000
O O9 0.429646 0.720956 0.500000
O O10 0.500000 0.721147 0.213403
O O11 0.882193 0.070483 0.671980
O O12 0.000000 0.072723 0.500000
O O13 0.927033 0.000000 0.500000
O O14 0.747774 0.576277 0.280567
O O15 0.810454 0.599656 0.000000
O O16 0.182668 0.000000 0.217720
O O17 0.171642 0.068075 0.000000
#
# Coordination Sequence:
#
# PCOD9485058 Si02
#       6
#    16  16  16   8  16  16
#     4  10  19  30  45  69  97 128 166 209 253 302
#     4   9  17  29  46  69  96 126 165 211 253 297
#     4   9  17  30  45  62  90 127 165 203 247 298
#     4   9  18  34  58  86 108 135 177 217 265 323
#     4  10  20  32  50  74  98 132 171 210 259 311
#     4   9  19  36  56  81 111 140 175 220 266 314
#
# _framework density 19.929303000000001
#
# number of rings (size 3 to 8) (size 9 to 14) (size 15 to 20)
#    0.000    2.636    1.818    0.000    1.273    1.455 
#    0.000    2.727    0.000    1.636    0.000    3.818 
#    0.000    2.182    0.000    0.182    0.000    0.000 
#
# Total GULP energy -245407.789345 kJ/mol
# GULP energy per Si atom -5577.449758 kJ/mol
# Density = 1.988394 g / cm^3
# Si number density = 19.929303 Si / 1000 Ang^3
#
#
#
# Elastic Constant Matrix: (Units=GPa)
#
#
# Indices 1 2 3 4 5 6 
#
# 1 175.6833 20.1495 23.6503 0.0000 0.0000 0.0000
# 2 20.1495 15.2674 6.9694 0.0000 0.0000 0.0000
# 3 23.6503 6.9694 63.5795 0.0000 0.0000 0.0000
# 4 0.0000 0.0000 0.0000 16.6201 0.0000 0.0000
# 5 0.0000 0.0000 0.0000 0.0000 -15.1070 0.0000
# 6 0.0000 0.0000 0.0000 0.0000 0.0000 28.0979
#
#
#
# Elastic Compliance Matrix: (Units=1/GPa)
#
#
# Indices 1 2 3 4 5 6 
#
# 1 0.006867 -0.008312 -0.001643 0.000000 0.000000 0.000000
# 2 -0.008312 0.079012 -0.005569 0.000000 0.000000 0.000000
# 3 -0.001643 -0.005569 0.016950 0.000000 0.000000 0.000000
# 4 0.000000 0.000000 0.000000 0.060168 0.000000 0.000000
# 5 0.000000 0.000000 0.000000 0.000000 -0.066194 0.000000
# 6 0.000000 0.000000 0.000000 0.000000 0.000000 0.035590
#
#
# Mechanical properties :
#
#
# Convention : Reuss Voigt Hill
#
# Bulk Modulus (GPa) = 13.93154 39.56320 26.74737
# Shear Modulus (GPa) = 26.68550 19.50625 23.09588
#
# Velocity S-wave (km/s) = 3.66322 3.13193 3.40794
# Velocity P-wave (km/s) = 4.98977 5.74226 5.37919
#
# Compressibility (1/GPa) = 0.07177960
#
# Stress axis : x y z
#
# Youngs Moduli (GPa) = 145.63219 12.65631 58.99705
#
# Poissons Ratio (x) = 0.10520 0.09694
# Poissons Ratio (y) = 1.21055 0.32856
# Poissons Ratio (z) = 0.23928 0.07048
#
# Static dielectric constant tensor:
#      x y z
#    x 1.738120 0.000000 0.000000 
#    y 0.000000 1.670330 0.000000 
#    z 0.000000 0.000000 1.766850 
# 
# From -- ./inp_files/10114.got.cif
#   From: 2010.05.17/outbox.cif.g08.bks.cpg/sg65_6_cif.got.tgz:10114.got - 2010.06.03 17:01:31.
