data_PCOD9485446
_publ_section_title
;
Structure prediction by ZEFSAII (Michael W. Deem and Ramdas Pophale) SiO2 
 PCOD9485446
Probable space group: C M M M
;
_chemical_formula_sum "Si O2"
_cell_formula_units_Z 104
_cell_length_a 27.747663
_cell_length_b 8.737304
_cell_length_c 27.308193
_cell_angle_alpha 90.000000
_cell_angle_beta 90.000000
_cell_angle_gamma 90.000000
_cell_volume 6620.591946
_symmetry_space_group_name_H-M "C M M M"
_symmetry_group_IT_number 65
_symmetry_cell_setting 'orthorhombic'
loop_
_space_group_symop_operation_xyz
x,y,z
-x,-y,z
x,-y,-z
-x,y,-z
-x,-y,-z
x,y,-z
-x,y,z
x,-y,z
1/2+x,1/2+y,z
1/2-x,1/2-y,z
1/2+x,1/2-y,-z
1/2-x,1/2+y,-z
1/2-x,1/2-y,-z
1/2+x,1/2+y,-z
1/2-x,1/2+y,z
1/2+x,1/2-y,z
loop_
_atom_site_type_symbol
_atom_site_label
_atom_site_fract_x
_atom_site_fract_y
_atom_site_fract_z
Si Si1 0.943935 0.316701 0.000000
Si Si2 0.848887 0.316377 0.248409
Si Si3 0.899742 0.182651 0.098431
Si Si4 0.445999 0.816258 0.194843
Si Si5 0.804319 0.683497 0.553661
Si Si6 0.695782 0.317359 0.345797
Si Si7 0.698581 0.683618 0.151411
O O1 0.917441 0.256757 0.048388
O O2 0.943477 0.500000 0.000000
O O3 0.000000 0.265835 0.000000
O O4 0.843943 0.500000 0.251270
O O5 0.903656 0.277319 0.232808
O O6 0.833445 0.241490 0.299143
O O7 0.815972 0.253914 0.204041
O O8 0.932739 0.239130 0.143359
O O9 0.845042 0.223241 0.114449
O O10 0.902667 0.000000 0.094454
O O11 0.500000 0.774349 0.210291
O O12 0.444190 0.000000 0.187888
O O13 0.826153 0.718791 0.500000
O O14 0.802152 0.500000 0.558774
O O15 0.750000 0.750000 0.552180
O O16 0.825728 0.756134 0.602777
O O17 0.698498 0.500000 0.346653
O O18 0.750000 0.250000 0.341518
O O19 0.700876 0.500000 0.155622
O O20 0.750000 0.750000 0.136131
#
# Coordination Sequence:
#
# PCOD9485446 Si02
#       7
#     8  16  16  16  16  16  16
#     4  11  23  37  54  75  98 123 152 187 226 271
#     4  10  19  31  47  67  93 122 153 189 227 268
#     4  10  21  35  52  75  99 122 151 187 225 269
#     4   9  18  33  52  72  94 121 151 183 224 274
#     4   9  16  26  40  58  82 114 152 190 228 270
#     4  11  20  29  42  61  89 122 157 193 228 267
#     4  10  20  34  51  71  95 123 156 189 224 267
#
# _framework density 15.708565
#
# number of rings (size 3 to 8) (size 9 to 14) (size 15 to 20)
#    0.000    2.077    0.000    5.308    0.000    6.154 
#    0.000    0.385    0.000    0.000    0.000    0.000 
#    0.000    0.615    0.000    7.077    0.000    2.000 
#
# Total GULP energy -290071.649612 kJ/mol
# GULP energy per Si atom -5578.300954 kJ/mol
# Density = 1.567281 g / cm^3
# Si number density = 15.708565 Si / 1000 Ang^3
#
#
#
# Elastic Constant Matrix: (Units=GPa)
#
#
# Indices 1 2 3 4 5 6 
#
# 1 91.4061 37.5919 57.4745 0.0000 0.0000 0.0000
# 2 37.5919 73.2126 58.4778 0.0000 0.0000 0.0000
# 3 57.4745 58.4778 154.1955 0.0000 0.0000 0.0000
# 4 0.0000 0.0000 0.0000 15.7857 0.0000 0.0000
# 5 0.0000 0.0000 0.0000 0.0000 22.5666 0.0000
# 6 0.0000 0.0000 0.0000 0.0000 0.0000 19.5612
#
#
#
# Elastic Compliance Matrix: (Units=1/GPa)
#
#
# Indices 1 2 3 4 5 6 
#
# 1 0.015362 -0.004754 -0.003923 0.000000 0.000000 0.000000
# 2 -0.004754 0.021066 -0.006217 0.000000 0.000000 0.000000
# 3 -0.003923 -0.006217 0.010305 0.000000 0.000000 0.000000
# 4 0.000000 0.000000 0.000000 0.063349 0.000000 0.000000
# 5 0.000000 0.000000 0.000000 0.000000 0.044313 0.000000
# 6 0.000000 0.000000 0.000000 0.000000 0.000000 0.051122
#
#
# Mechanical properties :
#
#
# Convention : Reuss Voigt Hill
#
# Bulk Modulus (GPa) = 59.01612 69.54474 64.28043
# Shear Modulus (GPa) = 20.75089 22.60070 21.67579
#
# Velocity S-wave (km/s) = 3.63849 3.79720 3.71869
# Velocity P-wave (km/s) = 7.43656 7.97452 7.71023
#
# Compressibility (1/GPa) = 0.01694452
#
# Stress axis : x y z
#
# Youngs Moduli (GPa) = 65.09478 47.47036 97.03800
#
# Poissons Ratio (x) = 0.22570 0.38068
# Poissons Ratio (y) = 0.30949 0.60328
# Poissons Ratio (z) = 0.25536 0.29512
#
# Static dielectric constant tensor:
#      x y z
#    x 1.520450 0.000000 0.000000 
#    y 0.000000 1.524560 0.000000 
#    z 0.000000 0.000000 1.527100 
# 
# From -- ./inp_files/75986.got.cif
#   From: 2010.05.17/outbox.cif.g08.bks.cpg/sg65_38_cif.got.tgz:75986.got - 2010.06.03 17:01:31.
