data_PCOD9485462
_publ_section_title
;
Structure prediction by ZEFSAII (Michael W. Deem and Ramdas Pophale) SiO2 
 PCOD9485462
Probable space group: C M M M
;
_chemical_formula_sum "Si O2"
_cell_formula_units_Z 96
_cell_length_a 28.334905
_cell_length_b 8.828733
_cell_length_c 24.316531
_cell_angle_alpha 90.000000
_cell_angle_beta 90.000000
_cell_angle_gamma 90.000000
_cell_volume 6083.055270
_symmetry_space_group_name_H-M "C M M M"
_symmetry_group_IT_number 65
_symmetry_cell_setting 'orthorhombic'
loop_
_space_group_symop_operation_xyz
x,y,z
-x,-y,z
x,-y,-z
-x,y,-z
-x,-y,-z
x,y,-z
-x,y,z
x,-y,z
1/2+x,1/2+y,z
1/2-x,1/2-y,z
1/2+x,1/2-y,-z
1/2-x,1/2+y,-z
1/2-x,1/2-y,-z
1/2+x,1/2+y,-z
1/2-x,1/2+y,z
1/2+x,1/2-y,z
loop_
_atom_site_type_symbol
_atom_site_label
_atom_site_fract_x
_atom_site_fract_y
_atom_site_fract_z
Si Si1 0.198296 0.317195 0.562545
Si Si2 0.360218 0.817854 0.667278
Si Si3 0.054601 0.317707 0.936252
Si Si4 0.698178 0.818584 0.776458
Si Si5 0.111471 0.818748 0.837177
Si Si6 0.946136 0.817653 0.727936
O O1 0.185005 0.274484 0.500000
O O2 0.201502 0.500000 0.564832
O O3 0.250000 0.250000 0.573799
O O4 0.161781 0.268049 0.609387
O O5 0.324272 0.777474 0.716888
O O6 0.410432 0.747909 0.682940
O O7 0.364459 0.000000 0.666955
O O8 0.057890 0.500000 0.931330
O O9 0.089576 0.240535 0.893620
O O10 0.000000 0.275327 0.924289
O O11 0.064129 0.278661 0.000000
O O12 0.750000 0.750000 0.782035
O O13 0.661468 0.754119 0.821064
O O14 0.700117 0.000000 0.780030
O O15 0.075672 0.775984 0.787429
O O16 0.115725 0.000000 0.837905
O O17 0.000000 0.765210 0.722622
O O18 0.945644 0.000000 0.724684
#
# Coordination Sequence:
#
# PCOD9485462 Si02
#       6
#    16  16  16  16  16  16
#     4   9  17  29  45  66  92 119 148 184 225 269
#     4   9  18  30  45  67  92 119 151 186 225 270
#     4   9  18  32  49  70  97 127 156 187 225 268
#     4  10  19  31  47  68  94 122 153 188 227 272
#     4  10  19  31  48  70  95 122 153 189 229 272
#     4   9  18  31  46  66  92 120 150 187 229 269
#
# _framework density 15.781542999999999
#
# number of rings (size 3 to 8) (size 9 to 14) (size 15 to 20)
#    0.000    2.667    0.000    2.500    0.000    3.667 
#    0.000    0.833    0.000    1.000    0.000    3.500 
#    0.000    0.000    0.000    0.000    0.000    0.000 
#
# Total GULP energy -267641.708044 kJ/mol
# GULP energy per Si atom -5575.868918 kJ/mol
# Density = 1.574562 g / cm^3
# Si number density = 15.781543 Si / 1000 Ang^3
#
#
#
# Elastic Constant Matrix: (Units=GPa)
#
#
# Indices 1 2 3 4 5 6 
#
# 1 158.3358 42.7998 81.6488 0.0000 0.0000 0.0000
# 2 42.7998 24.4654 32.7098 0.0000 0.0000 0.0000
# 3 81.6488 32.7098 99.8108 0.0000 0.0000 0.0000
# 4 0.0000 0.0000 0.0000 20.1472 0.0000 0.0000
# 5 0.0000 0.0000 0.0000 0.0000 26.7385 0.0000
# 6 0.0000 0.0000 0.0000 0.0000 0.0000 29.0589
#
#
#
# Elastic Compliance Matrix: (Units=1/GPa)
#
#
# Indices 1 2 3 4 5 6 
#
# 1 0.013732 -0.016026 -0.005981 0.000000 0.000000 0.000000
# 2 -0.016026 0.091453 -0.016861 0.000000 0.000000 0.000000
# 3 -0.005981 -0.016861 0.020437 0.000000 0.000000 0.000000
# 4 0.000000 0.000000 0.000000 0.049635 0.000000 0.000000
# 5 0.000000 0.000000 0.000000 0.000000 0.037399 0.000000
# 6 0.000000 0.000000 0.000000 0.000000 0.000000 0.034413
#
#
# Mechanical properties :
#
#
# Convention : Reuss Voigt Hill
#
# Bulk Modulus (GPa) = 20.88295 66.32541 43.60418
# Shear Modulus (GPa) = 14.67277 23.55250 19.11263
#
# Velocity S-wave (km/s) = 3.05248 3.86736 3.48383
# Velocity P-wave (km/s) = 5.06801 7.87784 6.62364
#
# Compressibility (1/GPa) = 0.04788596
#
# Stress axis : x y z
#
# Youngs Moduli (GPa) = 72.82231 10.93461 48.92966
#
# Poissons Ratio (x) = 0.17524 0.29266
# Poissons Ratio (y) = 1.16705 0.82500
# Poissons Ratio (z) = 0.43557 0.18437
#
# Static dielectric constant tensor:
#      x y z
#    x 1.501290 0.000000 0.000000 
#    y 0.000000 1.527600 0.000000 
#    z 0.000000 0.000000 1.522140 
# 
# From -- ./inp_files/60181.got.cif
#   From: 2010.05.17/outbox.cif.g08.bks.cpg/sg65_31_cif.got.tgz:60181.got - 2010.06.03 17:01:31.
