data_PCOD9485272
_publ_section_title
;
Structure prediction by ZEFSAII (Michael W. Deem and Ramdas Pophale) SiO2 
 PCOD9485272
Probable space group: C M M M
;
_chemical_formula_sum "Si O2"
_cell_formula_units_Z 88
_cell_length_a 18.866257
_cell_length_b 19.198460
_cell_length_c 13.685132
_cell_angle_alpha 90.000000
_cell_angle_beta 90.000000
_cell_angle_gamma 90.000000
_cell_volume 4956.796966
_symmetry_space_group_name_H-M "C M M M"
_symmetry_group_IT_number 65
_symmetry_cell_setting 'orthorhombic'
loop_
_space_group_symop_operation_xyz
x,y,z
-x,-y,z
x,-y,-z
-x,y,-z
-x,-y,-z
x,y,-z
-x,y,z
x,-y,z
1/2+x,1/2+y,z
1/2-x,1/2-y,z
1/2+x,1/2-y,-z
1/2-x,1/2+y,-z
1/2-x,1/2-y,-z
1/2+x,1/2+y,-z
1/2-x,1/2+y,z
1/2+x,1/2-y,z
loop_
_atom_site_type_symbol
_atom_site_label
_atom_site_fract_x
_atom_site_fract_y
_atom_site_fract_z
Si Si1 0.211303 0.079710 0.216553
Si Si2 0.084995 0.419321 0.894740
Si Si3 0.084695 0.418327 0.500000
Si Si4 0.850343 0.637865 0.698093
Si Si5 0.689170 0.577909 0.000000
Si Si6 0.168947 0.770253 0.191594
Si Si7 0.914358 0.790505 0.000000
O O1 0.275996 0.097816 0.287205
O O2 0.232476 0.084041 0.100809
O O3 0.162468 0.148582 0.222166
O O4 0.186075 0.000000 0.232348
O O5 0.107885 0.500000 0.890594
O O6 0.107464 0.385208 0.794442
O O7 0.000000 0.418205 0.897210
O O8 0.109475 0.390433 0.000000
O O9 0.104280 0.500000 0.500000
O O10 0.114365 0.383112 0.597626
O O11 0.000000 0.413795 0.500000
O O12 0.842328 0.720116 0.716180
O O13 0.658465 0.500000 0.000000
O O14 0.626077 0.634155 0.000000
O O15 0.250000 0.750000 0.159181
O O16 0.116415 0.757736 0.100373
O O17 0.000000 0.792542 0.000000
#
# Coordination Sequence:
#
# PCOD9485272 Si02
#       7
#    16  16   8  16   8  16   8
#     4   9  17  32  54  77 102 136 177 218 265 322
#     4   9  18  30  44  68 102 133 165 209 254 302
#     4  11  24  40  55  74 107 147 183 222 266 320
#     4  11  21  33  53  75 100 138 179 219 264 320
#     4   8  16  30  48  73 105 138 174 220 269 314
#     4   9  20  35  51  76 111 141 175 227 276 315
#     4  10  19  30  48  75 108 146 182 215 262 327
#
# _framework density 17.753399999999999
#
# number of rings (size 3 to 8) (size 9 to 14) (size 15 to 20)
#    0.000    2.455    0.000    3.000    2.545    4.545 
#    0.000    4.091    0.000    0.000    0.000    0.000 
#    0.000    0.727    0.000    0.000    0.000    1.091 
#
# Total GULP energy -244994.108634 kJ/mol
# GULP energy per Si atom -5568.047924 kJ/mol
# Density = 1.771299 g / cm^3
# Si number density = 17.753400 Si / 1000 Ang^3
#
#
#
# Elastic Constant Matrix: (Units=GPa)
#
#
# Indices 1 2 3 4 5 6 
#
# 1 61.0922 17.0081 37.7320 0.0000 0.0000 0.0000
# 2 17.0081 132.4647 54.3626 0.0000 0.0000 0.0000
# 3 37.7320 54.3626 122.4726 0.0000 0.0000 0.0000
# 4 0.0000 0.0000 0.0000 19.8705 0.0000 0.0000
# 5 0.0000 0.0000 0.0000 0.0000 -45.8981 0.0000
# 6 0.0000 0.0000 0.0000 0.0000 0.0000 7.2291
#
#
#
# Elastic Compliance Matrix: (Units=1/GPa)
#
#
# Indices 1 2 3 4 5 6 
#
# 1 0.020216 -0.000048 -0.006207 0.000000 0.000000 0.000000
# 2 -0.000048 0.009231 -0.004082 0.000000 0.000000 0.000000
# 3 -0.006207 -0.004082 0.011889 0.000000 0.000000 0.000000
# 4 0.000000 0.000000 0.000000 0.050326 0.000000 0.000000
# 5 0.000000 0.000000 0.000000 0.000000 -0.021787 0.000000
# 6 0.000000 0.000000 0.000000 0.000000 0.000000 0.138330
#
#
# Mechanical properties :
#
#
# Convention : Reuss Voigt Hill
#
# Bulk Modulus (GPa) = 48.40098 59.35943 53.88020
# Shear Modulus (GPa) = 21.20745 10.03541 15.62143
#
# Velocity S-wave (km/s) = 3.45999 2.38011 2.96955
# Velocity P-wave (km/s) = 6.57907 6.40791 6.49405
#
# Compressibility (1/GPa) = 0.02066074
#
# Stress axis : x y z
#
# Youngs Moduli (GPa) = 49.46693 108.33302 84.10905
#
# Poissons Ratio (x) = 0.00525 0.52203
# Poissons Ratio (y) = 0.00240 0.34337
# Poissons Ratio (z) = 0.30702 0.44226
#
# Static dielectric constant tensor:
#      x y z
#    x 1.629630 0.000000 0.000000 
#    y 0.000000 1.694740 0.000000 
#    z 0.000000 0.000000 1.584360 
# 
# From -- ./inp_files/26881.got.cif
#   From: 2010.05.17/outbox.cif.g08.bks.cpg/sg65_14_cif.got.tgz:26881.got - 2010.06.03 17:01:31.
