data_PCOD9485627
_publ_section_title
;
Structure prediction by ZEFSAII (Michael W. Deem and Ramdas Pophale) SiO2 
 PCOD9485627
Probable space group: C M M M
;
_chemical_formula_sum "Si O2"
_cell_formula_units_Z 80
_cell_length_a 7.355447
_cell_length_b 17.998247
_cell_length_c 28.171197
_cell_angle_alpha 90.000000
_cell_angle_beta 90.000000
_cell_angle_gamma 90.000000
_cell_volume 3729.448194
_symmetry_space_group_name_H-M "C M M M"
_symmetry_group_IT_number 65
_symmetry_cell_setting 'orthorhombic'
loop_
_space_group_symop_operation_xyz
x,y,z
-x,-y,z
x,-y,-z
-x,y,-z
-x,-y,-z
x,y,-z
-x,y,z
x,-y,z
1/2+x,1/2+y,z
1/2-x,1/2-y,z
1/2+x,1/2-y,-z
1/2-x,1/2+y,-z
1/2-x,1/2-y,-z
1/2+x,1/2+y,-z
1/2-x,1/2+y,z
1/2+x,1/2-y,z
loop_
_atom_site_type_symbol
_atom_site_label
_atom_site_fract_x
_atom_site_fract_y
_atom_site_fract_z
Si Si1 0.216552 0.837181 0.500000
Si Si2 0.782532 0.160840 0.000000
Si Si3 0.217490 0.839172 0.897723
Si Si4 0.222074 0.914171 0.596246
Si Si5 0.782749 0.161817 0.307447
Si Si6 0.282742 0.660960 0.204498
O O1 0.250000 0.750000 0.500000
O O2 0.285758 0.872842 0.548794
O O3 0.000000 0.850169 0.500000
O O4 0.750000 0.250000 0.000000
O O5 0.713082 0.132746 0.948863
O O6 0.000000 0.149638 0.000000
O O7 0.250000 0.750000 0.897678
O O8 0.287042 0.867280 0.846594
O O9 0.000000 0.850339 0.897772
O O10 0.286290 0.877428 0.645235
O O11 0.000000 0.910232 0.596634
O O12 0.272502 0.000000 0.594256
O O13 0.750000 0.250000 0.311050
O O14 0.713118 0.134761 0.255848
O O15 0.000000 0.150704 0.306483
O O16 0.500000 0.649260 0.204251
O O17 0.250000 0.750000 0.204626
#
# Coordination Sequence:
#
# PCOD9485627 Si02
#       6
#     8   8  16  16  16  16
#     4  10  19  31  49  69  87 108 134 164 194 226
#     4   8  12  16  22  32  48  74 105 135 167 205
#     4   8  12  17  24  35  53  77 106 138 171 209
#     4   9  17  29  45  64  84 107 135 163 191 226
#     4   9  16  26  41  59  78 101 129 161 194 228
#     4   8  13  20  30  45  64  86 113 146 182 217
#
# _framework density 21.450894000000002
#
# number of rings (size 3 to 8) (size 9 to 14) (size 15 to 20)
#    0.000    3.400    0.000    0.900    0.000    1.200 
#    0.000    0.000    0.000    3.000    0.000    0.000 
#    0.000    0.000    0.000    0.900    0.000   29.800 
#
# Total GULP energy -222736.135418 kJ/mol
# GULP energy per Si atom -5568.403385 kJ/mol
# Density = 2.140207 g / cm^3
# Si number density = 21.450894 Si / 1000 Ang^3
#
#
#
# Elastic Constant Matrix: (Units=GPa)
#
#
# Indices 1 2 3 4 5 6 
#
# 1 86.2747 -4.4489 15.4977 0.0000 0.0000 0.0000
# 2 -4.4489 49.0201 79.9479 0.0000 0.0000 0.0000
# 3 15.4977 79.9479 336.5967 0.0000 0.0000 0.0000
# 4 0.0000 0.0000 0.0000 -7.2375 0.0000 0.0000
# 5 0.0000 0.0000 0.0000 0.0000 -9.4603 0.0000
# 6 0.0000 0.0000 0.0000 0.0000 0.0000 6.3984
#
#
#
# Elastic Compliance Matrix: (Units=1/GPa)
#
#
# Indices 1 2 3 4 5 6 
#
# 1 0.011996 0.003248 -0.001324 0.000000 0.000000 0.000000
# 2 0.003248 0.034178 -0.008267 0.000000 0.000000 0.000000
# 3 -0.001324 -0.008267 0.004996 0.000000 0.000000 0.000000
# 4 0.000000 0.000000 0.000000 -0.138170 0.000000 0.000000
# 5 0.000000 0.000000 0.000000 0.000000 -0.105705 0.000000
# 6 0.000000 0.000000 0.000000 0.000000 0.000000 0.156290
#
#
# Mechanical properties :
#
#
# Convention : Reuss Voigt Hill
#
# Bulk Modulus (GPa) = 25.98577 72.65389 49.31983
# Shear Modulus (GPa) = -458.70376 23.33310 -217.68533
#
# Velocity S-wave (km/s) = -14.63910 3.30168 -10.08470
# Velocity P-wave (km/s) = 16.54078 6.96262 10.60941
#
# Compressibility (1/GPa) = 0.03848261
#
# Stress axis : x y z
#
# Youngs Moduli (GPa) = 83.36026 29.25850 200.17887
#
# Poissons Ratio (x) = -0.09502 0.26497
# Poissons Ratio (y) = -0.27072 1.65497
# Poissons Ratio (z) = 0.11034 0.24189
#
# Static dielectric constant tensor:
#      x y z
#    x 1.790330 0.000000 0.000000 
#    y 0.000000 1.684360 0.000000 
#    z 0.000000 0.000000 1.872590 
# 
# From -- ./inp_files/73011.got.cif
#   From: 2010.05.17/outbox.cif.g08.bks.cpg/sg65_37_cif.got.tgz:73011.got - 2010.06.03 17:01:31.
