data_PCOD9485652
_publ_section_title
;
Structure prediction by ZEFSAII (Michael W. Deem and Ramdas Pophale) SiO2 
 PCOD9485652
Probable space group: C M M M
;
_chemical_formula_sum "Si O2"
_cell_formula_units_Z 88
_cell_length_a 20.201151
_cell_length_b 14.903775
_cell_length_c 16.744001
_cell_angle_alpha 90.000000
_cell_angle_beta 90.000000
_cell_angle_gamma 90.000000
_cell_volume 5041.173465
_symmetry_space_group_name_H-M "C M M M"
_symmetry_group_IT_number 65
_symmetry_cell_setting 'orthorhombic'
loop_
_space_group_symop_operation_xyz
x,y,z
-x,-y,z
x,-y,-z
-x,y,-z
-x,-y,-z
x,y,-z
-x,y,z
x,-y,z
1/2+x,1/2+y,z
1/2-x,1/2-y,z
1/2+x,1/2-y,-z
1/2-x,1/2+y,-z
1/2-x,1/2-y,-z
1/2+x,1/2+y,-z
1/2-x,1/2+y,z
1/2+x,1/2-y,z
loop_
_atom_site_type_symbol
_atom_site_label
_atom_site_fract_x
_atom_site_fract_y
_atom_site_fract_z
Si Si1 0.285675 0.000000 0.266159
Si Si2 0.228960 0.000000 0.910766
Si Si3 0.816131 0.196119 0.874033
Si Si4 0.074581 0.892975 0.404470
Si Si5 0.576383 0.839284 0.087980
Si Si6 0.202604 0.172681 0.312806
Si Si7 0.922848 0.500000 0.788238
O O1 0.248468 0.914746 0.302325
O O2 0.273996 0.000000 0.169268
O O3 0.364589 0.000000 0.276741
O O4 0.188505 0.906787 0.902371
O O5 0.259556 0.000000 0.000000
O O6 0.750000 0.250000 0.899029
O O7 0.877262 0.253624 0.903949
O O8 0.817438 0.197746 0.777784
O O9 0.078989 0.880912 0.500000
O O10 0.136026 0.846082 0.361608
O O11 0.000000 0.864299 0.379393
O O12 0.079402 0.000000 0.388687
O O13 0.500000 0.811940 0.093310
O O14 0.587708 0.912492 0.156374
O O15 0.586958 0.880276 0.000000
O O16 0.250000 0.250000 0.346501
O O17 0.000000 0.500000 0.761907
#
# Coordination Sequence:
#
# PCOD9485652 Si02
#       7
#     8   8  16  16  16  16   8
#     4  10  20  34  48  72 104 132 168 220 262 298
#     4  10  20  32  49  70  94 129 171 212 259 311
#     4  10  21  34  49  71  98 129 166 209 254 301
#     4   9  18  34  57  84 111 136 165 207 255 299
#     4  10  20  33  48  68  95 127 169 220 264 302
#     4  10  19  33  53  78 107 138 171 207 253 307
#     4  10  19  31  49  70  93 128 173 218 266 310
#
# _framework density 17.456253
#
# number of rings (size 3 to 8) (size 9 to 14) (size 15 to 20)
#    0.000    2.182    0.909    4.636    0.000    5.818 
#    0.000    1.364    0.000    1.636    0.000    0.000 
#    0.000    2.182    0.000    0.000    0.000    0.000 
#
# Total GULP energy -245365.710461 kJ/mol
# GULP energy per Si atom -5576.493420 kJ/mol
# Density = 1.741652 g / cm^3
# Si number density = 17.456253 Si / 1000 Ang^3
#
#
#
# Elastic Constant Matrix: (Units=GPa)
#
#
# Indices 1 2 3 4 5 6 
#
# 1 158.8552 73.1147 47.2628 0.0000 0.0000 0.0000
# 2 73.1147 102.2382 21.3939 0.0000 0.0000 0.0000
# 3 47.2628 21.3939 38.6272 0.0000 0.0000 0.0000
# 4 0.0000 0.0000 0.0000 -43.3488 0.0000 0.0000
# 5 0.0000 0.0000 0.0000 0.0000 9.4604 0.0000
# 6 0.0000 0.0000 0.0000 0.0000 0.0000 33.6843
#
#
#
# Elastic Compliance Matrix: (Units=1/GPa)
#
#
# Indices 1 2 3 4 5 6 
#
# 1 0.013046 -0.006775 -0.012210 0.000000 0.000000 0.000000
# 2 -0.006775 0.014581 0.000213 0.000000 0.000000 0.000000
# 3 -0.012210 0.000213 0.040711 0.000000 0.000000 0.000000
# 4 0.000000 0.000000 0.000000 -0.023069 0.000000 0.000000
# 5 0.000000 0.000000 0.000000 0.000000 0.105704 0.000000
# 6 0.000000 0.000000 0.000000 0.000000 0.000000 0.029687
#
#
# Mechanical properties :
#
#
# Convention : Reuss Voigt Hill
#
# Bulk Modulus (GPa) = 32.47357 64.80707 48.64032
# Shear Modulus (GPa) = 21.88484 10.48913 16.18699
#
# Velocity S-wave (km/s) = 3.54460 2.45395 3.04845
# Velocity P-wave (km/s) = 5.94941 6.72571 6.34943
#
# Compressibility (1/GPa) = 0.03079427
#
# Stress axis : x y z
#
# Youngs Moduli (GPa) = 76.65185 68.58117 24.56363
#
# Poissons Ratio (x) = 0.46461 0.29993
# Poissons Ratio (y) = 0.51929 -0.00524
# Poissons Ratio (z) = 0.93595 -0.01463
#
# Static dielectric constant tensor:
#      x y z
#    x 1.595880 0.000000 0.000000 
#    y 0.000000 1.611950 0.000000 
#    z 0.000000 0.000000 1.593230 
# 
# From -- ./inp_files/54354.got.cif
#   From: 2010.05.17/outbox.cif.g08.bks.cpg/sg65_28_cif.got.tgz:54354.got - 2010.06.03 17:01:31.
