data_PCOD9485095
_publ_section_title
;
Structure prediction by ZEFSAII (Michael W. Deem and Ramdas Pophale) SiO2 
 PCOD9485095
Probable space group: C M M M
;
_chemical_formula_sum "Si O2"
_cell_formula_units_Z 88
_cell_length_a 7.366667
_cell_length_b 18.406710
_cell_length_c 29.673024
_cell_angle_alpha 90.000000
_cell_angle_beta 90.000000
_cell_angle_gamma 90.000000
_cell_volume 4023.546423
_symmetry_space_group_name_H-M "C M M M"
_symmetry_group_IT_number 65
_symmetry_cell_setting 'orthorhombic'
loop_
_space_group_symop_operation_xyz
x,y,z
-x,-y,z
x,-y,-z
-x,y,-z
-x,-y,-z
x,y,-z
-x,y,z
x,-y,z
1/2+x,1/2+y,z
1/2-x,1/2-y,z
1/2+x,1/2-y,-z
1/2-x,1/2+y,-z
1/2-x,1/2-y,-z
1/2+x,1/2+y,-z
1/2-x,1/2+y,z
1/2+x,1/2-y,z
loop_
_atom_site_type_symbol
_atom_site_label
_atom_site_fract_x
_atom_site_fract_y
_atom_site_fract_z
Si Si1 0.716569 0.835823 0.500000
Si Si2 0.277998 0.084093 0.770920
Si Si3 0.222015 0.415744 0.590379
Si Si4 0.278998 0.084530 0.050094
Si Si5 0.283452 0.835758 0.319268
Si Si6 0.716598 0.164670 0.139060
O O1 0.500000 0.846163 0.500000
O O2 0.750000 0.750000 0.500000
O O3 0.784016 0.874033 0.545530
O O4 0.500000 0.085661 0.771051
O O5 0.215912 0.127400 0.726679
O O6 0.215804 0.122497 0.816838
O O7 0.224453 0.000000 0.769189
O O8 0.275641 0.500000 0.590044
O O9 0.284081 0.374993 0.635555
O O10 0.000000 0.414392 0.590402
O O11 0.500000 0.086645 0.049868
O O12 0.214115 0.132114 0.091942
O O13 0.228726 0.000000 0.056315
O O14 0.219968 0.107961 0.000000
O O15 0.500000 0.846226 0.319164
O O16 0.250000 0.750000 0.320116
O O17 0.500000 0.153600 0.138476
O O18 0.750000 0.250000 0.142719
#
# Coordination Sequence:
#
# PCOD9485095 Si02
#       6
#     8  16  16  16  16  16
#     4  10  19  31  49  71  95 122 152 190 232 272
#     4   9  17  30  49  70  89 115 155 194 222 256
#     4   9  17  30  49  71  92 119 158 195 223 259
#     4   8  14  26  45  67  88 113 150 191 223 255
#     4  10  19  31  49  71  95 121 149 186 229 271
#     4  10  19  30  46  68  93 119 147 183 226 269
#
# _framework density 21.871254
#
# number of rings (size 3 to 8) (size 9 to 14) (size 15 to 20)
#    0.000    2.727    0.000    3.000    0.000    5.818 
#    0.000    0.000    0.000    7.636    0.000    1.273 
#    0.000    0.000    0.000    0.000    0.000    0.000 
#
# Total GULP energy -245891.326362 kJ/mol
# GULP energy per Si atom -5588.439235 kJ/mol
# Density = 2.182147 g / cm^3
# Si number density = 21.871254 Si / 1000 Ang^3
#
#
#
# Elastic Constant Matrix: (Units=GPa)
#
#
# Indices 1 2 3 4 5 6 
#
# 1 79.4951 -4.8558 12.0665 0.0000 0.0000 0.0000
# 2 -4.8558 215.1123 165.7910 0.0000 0.0000 0.0000
# 3 12.0665 165.7910 276.0337 0.0000 0.0000 0.0000
# 4 0.0000 0.0000 0.0000 28.0599 0.0000 0.0000
# 5 0.0000 0.0000 0.0000 0.0000 -36.6050 0.0000
# 6 0.0000 0.0000 0.0000 0.0000 0.0000 21.4057
#
#
#
# Elastic Compliance Matrix: (Units=1/GPa)
#
#
# Indices 1 2 3 4 5 6 
#
# 1 0.012870 0.001348 -0.001372 0.000000 0.000000 0.000000
# 2 0.001348 0.008797 -0.005342 0.000000 0.000000 0.000000
# 3 -0.001372 -0.005342 0.006891 0.000000 0.000000 0.000000
# 4 0.000000 0.000000 0.000000 0.035638 0.000000 0.000000
# 5 0.000000 0.000000 0.000000 0.000000 -0.027319 0.000000
# 6 0.000000 0.000000 0.000000 0.000000 0.000000 0.046716
#
#
# Mechanical properties :
#
#
# Convention : Reuss Voigt Hill
#
# Bulk Modulus (GPa) = 56.10054 101.84940 78.97497
# Shear Modulus (GPa) = 49.86604 29.08141 39.47373
#
# Velocity S-wave (km/s) = 4.78009 3.65041 4.25293
# Velocity P-wave (km/s) = 7.49478 8.02721 7.76556
#
# Compressibility (1/GPa) = 0.01782514
#
# Stress axis : x y z
#
# Youngs Moduli (GPa) = 77.69976 113.68012 145.10730
#
# Poissons Ratio (x) = -0.15327 0.19914
# Poissons Ratio (y) = -0.10476 0.77521
# Poissons Ratio (z) = 0.10663 0.60732
#
# Static dielectric constant tensor:
#      x y z
#    x 1.854820 0.000000 0.000000 
#    y 0.000000 1.721570 0.000000 
#    z 0.000000 0.000000 1.775060 
# 
# From -- ./inp_files/74229.got.cif
#   From: 2010.05.17/outbox.cif.g08.bks.cpg/sg65_38_cif.got.tgz:74229.got - 2010.06.03 17:01:31.
