data_PCOD9485129
_publ_section_title
;
Structure prediction by ZEFSAII (Michael W. Deem and Ramdas Pophale) SiO2 
 PCOD9485129
Probable space group: C M M M
;
_chemical_formula_sum "Si O2"
_cell_formula_units_Z 96
_cell_length_a 25.076521
_cell_length_b 15.008959
_cell_length_c 13.959603
_cell_angle_alpha 90.000000
_cell_angle_beta 90.000000
_cell_angle_gamma 90.000000
_cell_volume 5254.010339
_symmetry_space_group_name_H-M "C M M M"
_symmetry_group_IT_number 65
_symmetry_cell_setting 'orthorhombic'
loop_
_space_group_symop_operation_xyz
x,y,z
-x,-y,z
x,-y,-z
-x,y,-z
-x,-y,-z
x,y,-z
-x,y,z
x,-y,z
1/2+x,1/2+y,z
1/2-x,1/2-y,z
1/2+x,1/2-y,-z
1/2-x,1/2+y,-z
1/2-x,1/2-y,-z
1/2+x,1/2+y,-z
1/2-x,1/2+y,z
1/2+x,1/2-y,z
loop_
_atom_site_type_symbol
_atom_site_label
_atom_site_fract_x
_atom_site_fract_y
_atom_site_fract_z
Si Si1 0.308535 0.398655 0.890245
Si Si2 0.692626 0.200657 0.612023
Si Si3 0.920297 0.249634 0.686422
Si Si4 0.500000 0.897631 0.614044
Si Si5 0.699254 0.103293 0.199802
Si Si6 0.386167 0.764962 0.891007
Si Si7 0.500000 0.603428 0.384723
O O1 0.323842 0.500000 0.865371
O O2 0.259293 0.368691 0.826111
O O3 0.356392 0.330044 0.886432
O O4 0.288727 0.398884 0.000000
O O5 0.685064 0.178857 0.500000
O O6 0.750000 0.250000 0.620365
O O7 0.640959 0.254923 0.650504
O O8 0.692316 0.119663 0.687250
O O9 0.949222 0.337118 0.643384
O O10 0.925308 0.262009 0.800870
O O11 0.950106 0.160894 0.652660
O O12 0.500000 0.903034 0.500000
O O13 0.500000 0.000000 0.651663
O O14 0.657841 0.161435 0.138922
O O15 0.693590 0.000000 0.175248
O O16 0.405217 0.779311 0.000000
O O17 0.500000 0.500000 0.354861
O O18 0.500000 0.606297 0.500000
#
# Coordination Sequence:
#
# PCOD9485129 Si02
#       7
#    16  16  16   8  16  16   8
#     4   9  17  30  49  72  99 137 187 233 266 305
#     4  10  20  34  53  79 114 152 183 217 272 340
#     4  10  20  37  59  83 112 142 181 231 274 320
#     4  10  21  39  64  86 102 132 184 239 279 310
#     4  10  19  30  46  70 103 146 192 230 264 311
#     4  10  20  33  51  76 107 142 178 221 276 331
#     4  10  21  39  64  88 108 138 184 235 279 316
#
# _framework density 18.271757000000001
#
# number of rings (size 3 to 8) (size 9 to 14) (size 15 to 20)
#    0.000    2.167    0.000    5.000    0.000    6.000 
#    0.000    2.500    0.000    2.000    0.000    0.000 
#    0.000    0.000    0.000    0.000    0.000    0.000 
#
# Total GULP energy -267493.414205 kJ/mol
# GULP energy per Si atom -5572.779463 kJ/mol
# Density = 1.823017 g / cm^3
# Si number density = 18.271757 Si / 1000 Ang^3
#
#
#
# Elastic Constant Matrix: (Units=GPa)
#
#
# Indices 1 2 3 4 5 6 
#
# 1 75.2212 28.2884 21.3125 0.0000 0.0000 0.0000
# 2 28.2884 92.8236 26.9104 0.0000 0.0000 0.0000
# 3 21.3125 26.9104 122.7767 0.0000 0.0000 0.0000
# 4 0.0000 0.0000 0.0000 25.9991 0.0000 0.0000
# 5 0.0000 0.0000 0.0000 0.0000 16.8310 0.0000
# 6 0.0000 0.0000 0.0000 0.0000 0.0000 2.7508
#
#
#
# Elastic Compliance Matrix: (Units=1/GPa)
#
#
# Indices 1 2 3 4 5 6 
#
# 1 0.015360 -0.004173 -0.001752 0.000000 0.000000 0.000000
# 2 -0.004173 0.012638 -0.002046 0.000000 0.000000 0.000000
# 3 -0.001752 -0.002046 0.008897 0.000000 0.000000 0.000000
# 4 0.000000 0.000000 0.000000 0.038463 0.000000 0.000000
# 5 0.000000 0.000000 0.000000 0.000000 0.059414 0.000000
# 6 0.000000 0.000000 0.000000 0.000000 0.000000 0.363537
#
#
# Mechanical properties :
#
#
# Convention : Reuss Voigt Hill
#
# Bulk Modulus (GPa) = 47.72284 49.31602 48.51943
# Shear Modulus (GPa) = 9.59261 23.40351 16.49806
#
# Velocity S-wave (km/s) = 2.29377 3.58279 3.00813
# Velocity P-wave (km/s) = 5.76110 6.64560 6.21909
#
# Compressibility (1/GPa) = 0.02095433
#
# Stress axis : x y z
#
# Youngs Moduli (GPa) = 65.10496 79.12669 112.39388
#
# Poissons Ratio (x) = 0.33021 0.19687
# Poissons Ratio (y) = 0.27169 0.22991
# Poissons Ratio (z) = 0.11404 0.16186
#
# Static dielectric constant tensor:
#      x y z
#    x 1.653350 0.000000 0.000000 
#    y 0.000000 1.613310 0.000000 
#    z 0.000000 0.000000 1.669160 
# 
# From -- ./inp_files/45680.got.cif
#   From: 2010.05.17/outbox.cif.g08.bks.cpg/sg65_23_cif.got.tgz:45680.got - 2010.06.03 17:01:31.
