data_PCOD9485876
_publ_section_title
;
Structure prediction by ZEFSAII (Michael W. Deem and Ramdas Pophale) SiO2 
 PCOD9485876
Probable space group: C M M M
;
_chemical_formula_sum "Si O2"
_cell_formula_units_Z 88
_cell_length_a 19.253088
_cell_length_b 8.661999
_cell_length_c 29.972162
_cell_angle_alpha 90.000000
_cell_angle_beta 90.000000
_cell_angle_gamma 90.000000
_cell_volume 4998.464320
_symmetry_space_group_name_H-M "C M M M"
_symmetry_group_IT_number 65
_symmetry_cell_setting 'orthorhombic'
loop_
_space_group_symop_operation_xyz
x,y,z
-x,-y,z
x,-y,-z
-x,y,-z
-x,-y,-z
x,y,-z
-x,y,z
x,-y,z
1/2+x,1/2+y,z
1/2-x,1/2-y,z
1/2+x,1/2-y,-z
1/2-x,1/2+y,-z
1/2-x,1/2-y,-z
1/2+x,1/2+y,-z
1/2-x,1/2+y,z
1/2+x,1/2-y,z
loop_
_atom_site_type_symbol
_atom_site_label
_atom_site_fract_x
_atom_site_fract_y
_atom_site_fract_z
Si Si1 0.671580 0.314355 0.097583
Si Si2 0.081151 0.815319 0.726152
Si Si3 0.328384 0.814365 0.354328
Si Si4 0.918858 0.315312 0.821919
Si Si5 0.171805 0.185755 0.000000
Si Si6 0.328611 0.813682 0.452086
O O1 0.673849 0.500000 0.099855
O O2 0.750000 0.250000 0.100932
O O3 0.625758 0.250175 0.137588
O O4 0.642269 0.268071 0.048344
O O5 0.125711 0.749696 0.685654
O O6 0.104600 0.750012 0.774038
O O7 0.000000 0.771564 0.720661
O O8 0.085965 0.000000 0.726900
O O9 0.250000 0.750000 0.350896
O O10 0.357478 0.767877 0.403589
O O11 0.326136 0.000000 0.352112
O O12 0.914101 0.500000 0.821152
O O13 0.000000 0.271462 0.827434
O O14 0.250000 0.250000 0.000000
O O15 0.174268 0.000000 0.000000
O O16 0.360608 0.765170 0.500000
O O17 0.250000 0.750000 0.452282
O O18 0.326290 0.000000 0.452131
#
# Coordination Sequence:
#
# PCOD9485876 Si02
#       6
#    16  16  16  16   8  16
#     4  10  19  33  54  79 106 135 169 206 246 291
#     4  10  21  37  55  73  96 129 167 206 251 302
#     4  10  19  31  50  76 104 131 163 205 248 291
#     4  10  21  37  55  75 100 130 166 207 251 299
#     4   8  16  30  49  74 103 135 167 201 241 288
#     4   8  14  25  42  66  96 128 160 195 238 287
#
# _framework density 17.605407
#
# number of rings (size 3 to 8) (size 9 to 14) (size 15 to 20)
#    0.000    2.545    0.000    2.182    0.000    4.364 
#    0.000    4.091    0.000    3.273    0.000    3.818 
#    0.000    0.000    0.000    0.000    0.000    0.000 
#
# Total GULP energy -245102.770120 kJ/mol
# GULP energy per Si atom -5570.517503 kJ/mol
# Density = 1.756534 g / cm^3
# Si number density = 17.605407 Si / 1000 Ang^3
#
#
#
# Elastic Constant Matrix: (Units=GPa)
#
#
# Indices 1 2 3 4 5 6 
#
# 1 40.6848 21.3397 73.8200 0.0000 0.0000 0.0000
# 2 21.3397 35.6455 49.5500 0.0000 0.0000 0.0000
# 3 73.8200 49.5500 241.0464 0.0000 0.0000 0.0000
# 4 0.0000 0.0000 0.0000 21.7350 0.0000 0.0000
# 5 0.0000 0.0000 0.0000 0.0000 -36.0501 0.0000
# 6 0.0000 0.0000 0.0000 0.0000 0.0000 21.7804
#
#
#
# Elastic Compliance Matrix: (Units=1/GPa)
#
#
# Indices 1 2 3 4 5 6 
#
# 1 0.060296 -0.014601 -0.015464 0.000000 0.000000 0.000000
# 2 -0.014601 0.042813 -0.004329 0.000000 0.000000 0.000000
# 3 -0.015464 -0.004329 0.009774 0.000000 0.000000 0.000000
# 4 0.000000 0.000000 0.000000 0.046009 0.000000 0.000000
# 5 0.000000 0.000000 0.000000 0.000000 -0.027739 0.000000
# 6 0.000000 0.000000 0.000000 0.000000 0.000000 0.045913
#
#
# Mechanical properties :
#
#
# Convention : Reuss Voigt Hill
#
# Bulk Modulus (GPa) = 22.67816 67.42177 45.04996
# Shear Modulus (GPa) = 19.18992 13.00419 16.09706
#
# Velocity S-wave (km/s) = 3.30510 2.72076 3.02706
# Velocity P-wave (km/s) = 5.24159 6.94617 6.15319
#
# Compressibility (1/GPa) = 0.04409530
#
# Stress axis : x y z
#
# Youngs Moduli (GPa) = 16.58472 23.35738 102.30767
#
# Poissons Ratio (x) = 0.34103 1.58212
# Poissons Ratio (y) = 0.24215 0.44292
# Poissons Ratio (z) = 0.25647 0.10112
#
# Static dielectric constant tensor:
#      x y z
#    x 1.570010 0.000000 0.000000 
#    y 0.000000 1.607410 0.000000 
#    z 0.000000 0.000000 1.646220 
# 
# From -- ./inp_files/70980.got.cif
#   From: 2010.05.17/outbox.cif.g08.bks.cpg/sg65_36_cif.got.tgz:70980.got - 2010.06.03 17:01:31.
