data_PCOD9485101
_publ_section_title
;
Structure prediction by ZEFSAII (Michael W. Deem and Ramdas Pophale) SiO2 
 PCOD9485101
Probable space group: C M M M
;
_chemical_formula_sum "Si O2"
_cell_formula_units_Z 96
_cell_length_a 18.538883
_cell_length_b 7.541853
_cell_length_c 32.728646
_cell_angle_alpha 90.000000
_cell_angle_beta 90.000000
_cell_angle_gamma 90.000000
_cell_volume 4576.038456
_symmetry_space_group_name_H-M "C M M M"
_symmetry_group_IT_number 65
_symmetry_cell_setting 'orthorhombic'
loop_
_space_group_symop_operation_xyz
x,y,z
-x,-y,z
x,-y,-z
-x,y,-z
-x,-y,-z
x,y,-z
-x,y,z
x,-y,z
1/2+x,1/2+y,z
1/2-x,1/2-y,z
1/2+x,1/2-y,-z
1/2-x,1/2+y,-z
1/2-x,1/2-y,-z
1/2+x,1/2+y,-z
1/2-x,1/2+y,z
1/2+x,1/2-y,z
loop_
_atom_site_type_symbol
_atom_site_label
_atom_site_fract_x
_atom_site_fract_y
_atom_site_fract_z
Si Si1 0.082437 0.288881 0.411118
Si Si2 0.583418 0.217132 0.749448
Si Si3 0.912264 0.292722 0.000000
Si Si4 0.415972 0.782777 0.088966
Si Si5 0.582031 0.710095 0.500000
Si Si6 0.834440 0.712365 0.830538
Si Si7 0.334510 0.212697 0.668267
O O1 0.077258 0.500000 0.405980
O O2 0.114632 0.260218 0.456334
O O3 0.129053 0.218871 0.373447
O O4 0.000000 0.217804 0.410446
O O5 0.500000 0.270442 0.749121
O O6 0.623778 0.277785 0.790415
O O7 0.624654 0.277654 0.708754
O O8 0.584663 0.000000 0.749478
O O9 0.890283 0.219153 0.044169
O O10 0.891494 0.500000 0.000000
O O11 0.000000 0.286479 0.000000
O O12 0.500000 0.733863 0.094609
O O13 0.369022 0.721477 0.127179
O O14 0.414453 0.000000 0.087812
O O15 0.577066 0.500000 0.500000
O O16 0.500000 0.786667 0.500000
O O17 0.843781 0.500000 0.830977
O O18 0.750000 0.750000 0.827938
O O19 0.250000 0.250000 0.669876
O O20 0.342763 0.000000 0.668210
#
# Coordination Sequence:
#
# PCOD9485101 Si02
#       7
#    16  16   8  16   8  16  16
#     4   9  17  31  51  72  94 124 162 197 227 267
#     4   9  17  31  52  74  92 116 156 199 231 266
#     4   7  10  18  35  60  87 111 144 197 244 268
#     4   8  13  23  41  64  87 115 155 198 235 271
#     4   9  17  29  48  75 102 125 153 195 242 277
#     4  10  19  30  46  68  95 124 152 187 232 281
#     4  10  20  33  50  72  98 126 154 188 232 279
#
# _framework density 20.978843000000001
#
# number of rings (size 3 to 8) (size 9 to 14) (size 15 to 20)
#    0.000    3.000    0.000    2.750    0.000    5.667 
#    0.000    0.833    0.000    4.500    0.000    0.000 
#    0.000    2.000    0.000    0.000    0.000    0.000 
#
# Total GULP energy -267758.639796 kJ/mol
# GULP energy per Si atom -5578.304996 kJ/mol
# Density = 2.093109 g / cm^3
# Si number density = 20.978843 Si / 1000 Ang^3
#
#
#
# Elastic Constant Matrix: (Units=GPa)
#
#
# Indices 1 2 3 4 5 6 
#
# 1 132.7506 -1.7902 126.3310 0.0000 0.0000 0.0000
# 2 -1.7902 52.2702 9.8981 0.0000 0.0000 0.0000
# 3 126.3310 9.8981 274.4978 0.0000 0.0000 0.0000
# 4 0.0000 0.0000 0.0000 -66.9450 0.0000 0.0000
# 5 0.0000 0.0000 0.0000 0.0000 4.1472 0.0000
# 6 0.0000 0.0000 0.0000 0.0000 0.0000 17.4021
#
#
#
# Elastic Compliance Matrix: (Units=1/GPa)
#
#
# Indices 1 2 3 4 5 6 
#
# 1 0.013544 0.001656 -0.006293 0.000000 0.000000 0.000000
# 2 0.001656 0.019465 -0.001464 0.000000 0.000000 0.000000
# 3 -0.006293 -0.001464 0.006592 0.000000 0.000000 0.000000
# 4 0.000000 0.000000 0.000000 -0.014938 0.000000 0.000000
# 5 0.000000 0.000000 0.000000 0.000000 0.241127 0.000000
# 6 0.000000 0.000000 0.000000 0.000000 0.000000 0.057464
#
#
# Mechanical properties :
#
#
# Convention : Reuss Voigt Hill
#
# Bulk Modulus (GPa) = 36.49817 80.93293 58.71555
# Shear Modulus (GPa) = 14.50998 12.59286 13.55142
#
# Velocity S-wave (km/s) = 2.63277 2.45269 2.54432
# Velocity P-wave (km/s) = 5.16501 6.83250 6.05642
#
# Compressibility (1/GPa) = 0.02739863
#
# Stress axis : x y z
#
# Youngs Moduli (GPa) = 73.83418 51.37362 151.69970
#
# Poissons Ratio (x) = -0.08505 0.95464
# Poissons Ratio (y) = -0.12223 0.22206
# Poissons Ratio (z) = 0.46463 0.07520
#
# Static dielectric constant tensor:
#      x y z
#    x 1.696060 0.000000 0.000000 
#    y 0.000000 1.799290 0.000000 
#    z 0.000000 0.000000 1.779490 
# 
# From -- ./inp_files/77644.got.cif
#   From: 2010.05.17/outbox.cif.g08.bks.cpg/sg65_39_cif.got.tgz:77644.got - 2010.06.03 17:01:31.
