data_PCOD9485285
_publ_section_title
;
Structure prediction by ZEFSAII (Michael W. Deem and Ramdas Pophale) SiO2 
 PCOD9485285
Probable space group: C M M M
;
_chemical_formula_sum "Si O2"
_cell_formula_units_Z 104
_cell_length_a 9.321957
_cell_length_b 29.469640
_cell_length_c 20.700733
_cell_angle_alpha 90.000000
_cell_angle_beta 90.000000
_cell_angle_gamma 90.000000
_cell_volume 5686.796005
_symmetry_space_group_name_H-M "C M M M"
_symmetry_group_IT_number 65
_symmetry_cell_setting 'orthorhombic'
loop_
_space_group_symop_operation_xyz
x,y,z
-x,-y,z
x,-y,-z
-x,y,-z
-x,-y,-z
x,y,-z
-x,y,z
x,-y,z
1/2+x,1/2+y,z
1/2-x,1/2-y,z
1/2+x,1/2-y,-z
1/2-x,1/2+y,-z
1/2-x,1/2-y,-z
1/2+x,1/2+y,-z
1/2-x,1/2+y,z
1/2+x,1/2-y,z
loop_
_atom_site_type_symbol
_atom_site_label
_atom_site_fract_x
_atom_site_fract_y
_atom_site_fract_z
Si Si1 0.328003 0.701700 0.500000
Si Si2 0.328763 0.296703 0.740299
Si Si3 0.328129 0.361126 0.376932
Si Si4 0.828301 0.551316 0.423300
Si Si5 0.836303 0.950797 0.855951
Si Si6 0.826506 0.850761 0.867592
Si Si7 0.338222 0.149381 0.000000
Si Si8 0.244288 0.548534 0.000000
O O1 0.500000 0.708893 0.500000
O O2 0.250000 0.750000 0.500000
O O3 0.291219 0.671846 0.562979
O O4 0.500000 0.290196 0.735031
O O5 0.250000 0.250000 0.726185
O O6 0.288707 0.335105 0.688473
O O7 0.296661 0.314545 0.812071
O O8 0.500000 0.367879 0.377960
O O9 0.251209 0.409019 0.385838
O O10 0.796857 0.556194 0.500000
O O11 0.786788 0.500000 0.404159
O O12 0.000000 0.555316 0.415940
O O13 0.776036 0.900747 0.841881
O O14 0.834792 0.950576 0.934300
O O15 0.000000 0.951077 0.832349
O O16 0.770467 0.000000 0.836840
O O17 0.748867 0.839367 0.934818
O O18 0.000000 0.853623 0.877281
O O19 0.344925 0.094352 0.000000
O O20 0.500000 0.167702 0.000000
O O21 0.166265 0.500000 0.000000
#
# Coordination Sequence:
#
# PCOD9485285 Si02
#       8
#     8  16  16  16  16  16   8   8
#     4  10  20  32  49  76 109 141 178 225 273 320
#     4  10  22  39  58  79 105 138 180 225 276 336
#     4  10  20  35  54  81 113 145 182 227 274 323
#     4   9  18  33  54  82 115 151 191 229 265 314
#     4   8  12  20  39  66  93 123 159 197 239 292
#     4   9  18  34  53  74 102 136 172 217 267 321
#     4  10  19  30  49  77 103 130 170 218 266 322
#     4   8  13  21  35  60  96 130 156 188 236 294
#
# _framework density 18.287979
#
# number of rings (size 3 to 8) (size 9 to 14) (size 15 to 20)
#    0.000    2.769    0.769    1.385    0.000    5.077 
#    0.000    1.923    0.000    2.769    0.000    0.000 
#    0.000    0.000    0.000    0.000    0.000    0.000 
#
# Total GULP energy -289582.608670 kJ/mol
# GULP energy per Si atom -5568.896321 kJ/mol
# Density = 1.824635 g / cm^3
# Si number density = 18.287979 Si / 1000 Ang^3
#
#
#
# Elastic Constant Matrix: (Units=GPa)
#
#
# Indices 1 2 3 4 5 6 
#
# 1 38.8789 46.7589 40.1817 0.0000 0.0000 0.0000
# 2 46.7589 135.6890 55.8564 0.0000 0.0000 0.0000
# 3 40.1817 55.8564 90.6827 0.0000 0.0000 0.0000
# 4 0.0000 0.0000 0.0000 22.5610 0.0000 0.0000
# 5 0.0000 0.0000 0.0000 0.0000 4.3074 0.0000
# 6 0.0000 0.0000 0.0000 0.0000 0.0000 23.7961
#
#
#
# Elastic Compliance Matrix: (Units=1/GPa)
#
#
# Indices 1 2 3 4 5 6 
#
# 1 0.061380 -0.013338 -0.018982 0.000000 0.000000 0.000000
# 2 -0.013338 0.012772 -0.001957 0.000000 0.000000 0.000000
# 3 -0.018982 -0.001957 0.020644 0.000000 0.000000 0.000000
# 4 0.000000 0.000000 0.000000 0.044324 0.000000 0.000000
# 5 0.000000 0.000000 0.000000 0.000000 0.232158 0.000000
# 6 0.000000 0.000000 0.000000 0.000000 0.000000 0.042024
#
#
# Mechanical properties :
#
#
# Convention : Reuss Voigt Hill
#
# Bulk Modulus (GPa) = 38.10670 61.20497 49.65583
# Shear Modulus (GPa) = 10.19155 18.29647 14.24401
#
# Velocity S-wave (km/s) = 2.36324 3.16644 2.79386
# Velocity P-wave (km/s) = 5.32248 6.84898 6.13340
#
# Compressibility (1/GPa) = 0.02624211
#
# Stress axis : x y z
#
# Youngs Moduli (GPa) = 16.29185 78.29927 48.44078
#
# Poissons Ratio (x) = 1.04434 0.91952
# Poissons Ratio (y) = 0.21730 0.09478
# Poissons Ratio (z) = 0.30926 0.15320
#
# Static dielectric constant tensor:
#      x y z
#    x 1.618380 0.000000 0.000000 
#    y 0.000000 1.654020 0.000000 
#    z 0.000000 0.000000 1.622690 
# 
# From -- ./inp_files/60938.got.cif
#   From: 2010.05.17/outbox.cif.g08.bks.cpg/sg65_31_cif.got.tgz:60938.got - 2010.06.03 17:01:31.
