data_PCOD9485607
_publ_section_title
;
Structure prediction by ZEFSAII (Michael W. Deem and Ramdas Pophale) SiO2 
 PCOD9485607
Probable space group: C M M M
;
_chemical_formula_sum "Si O2"
_cell_formula_units_Z 80
_cell_length_a 26.601314
_cell_length_b 7.693997
_cell_length_c 20.664740
_cell_angle_alpha 90.000000
_cell_angle_beta 90.000000
_cell_angle_gamma 90.000000
_cell_volume 4229.461224
_symmetry_space_group_name_H-M "C M M M"
_symmetry_group_IT_number 65
_symmetry_cell_setting 'orthorhombic'
loop_
_space_group_symop_operation_xyz
x,y,z
-x,-y,z
x,-y,-z
-x,y,-z
-x,-y,-z
x,y,-z
-x,y,z
x,-y,z
1/2+x,1/2+y,z
1/2-x,1/2-y,z
1/2+x,1/2-y,-z
1/2-x,1/2+y,-z
1/2-x,1/2-y,-z
1/2+x,1/2+y,-z
1/2-x,1/2+y,z
1/2+x,1/2-y,z
loop_
_atom_site_type_symbol
_atom_site_label
_atom_site_fract_x
_atom_site_fract_y
_atom_site_fract_z
Si Si1 0.306763 0.293875 0.778555
Si Si2 0.944435 0.289105 0.312527
Si Si3 0.160348 0.201082 0.361534
Si Si4 0.308187 0.708920 0.500000
Si Si5 0.412882 0.792640 0.169582
Si Si6 0.000000 0.713427 0.074305
O O1 0.310359 0.500000 0.773433
O O2 0.250000 0.250000 0.798988
O O3 0.317060 0.221029 0.705439
O O4 0.353086 0.242407 0.825306
O O5 0.940630 0.500000 0.314234
O O6 0.899263 0.210918 0.352709
O O7 0.935415 0.232669 0.238305
O O8 0.000000 0.239670 0.333716
O O9 0.172646 0.279922 0.431153
O O10 0.177460 0.000000 0.363261
O O11 0.318141 0.500000 0.500000
O O12 0.250000 0.750000 0.500000
O O13 0.449505 0.728884 0.112576
O O14 0.417838 0.000000 0.168472
O O15 0.000000 0.500000 0.074280
O O16 0.000000 0.769722 0.000000
#
# Coordination Sequence:
#
# PCOD9485607 Si02
#       6
#    16  16  16   8  16   8
#     4  10  19  31  48  72  98 125 161 203 245 287
#     4   9  16  28  47  69  93 122 156 193 231 274
#     4   9  19  32  46  67  92 120 155 195 240 289
#     4  10  20  34  49  64  87 117 152 193 239 290
#     4   9  16  29  49  73 101 130 159 194 236 280
#     4   9  16  28  51  81 107 130 159 192 230 283
#
# _framework density 18.914940000000001
#
# number of rings (size 3 to 8) (size 9 to 14) (size 15 to 20)
#    0.000    2.700    1.000    1.200    0.000    2.000 
#    0.000    1.000    0.000    4.800    0.000    0.000 
#    0.000    0.000    0.000    0.000    0.000    0.000 
#
# Total GULP energy -222807.987984 kJ/mol
# GULP energy per Si atom -5570.199700 kJ/mol
# Density = 1.887189 g / cm^3
# Si number density = 18.914940 Si / 1000 Ang^3
#
#
#
# Elastic Constant Matrix: (Units=GPa)
#
#
# Indices 1 2 3 4 5 6 
#
# 1 146.6586 -8.9315 78.5711 0.0000 0.0000 0.0000
# 2 -8.9315 27.6959 8.0816 0.0000 0.0000 0.0000
# 3 78.5711 8.0816 131.5524 0.0000 0.0000 0.0000
# 4 0.0000 0.0000 0.0000 5.1473 0.0000 0.0000
# 5 0.0000 0.0000 0.0000 0.0000 24.4844 0.0000
# 6 0.0000 0.0000 0.0000 0.0000 0.0000 22.8865
#
#
#
# Elastic Compliance Matrix: (Units=1/GPa)
#
#
# Indices 1 2 3 4 5 6 
#
# 1 0.010779 0.005452 -0.006773 0.000000 0.000000 0.000000
# 2 0.005452 0.039524 -0.005685 0.000000 0.000000 0.000000
# 3 -0.006773 -0.005685 0.011996 0.000000 0.000000 0.000000
# 4 0.000000 0.000000 0.000000 0.194277 0.000000 0.000000
# 5 0.000000 0.000000 0.000000 0.000000 0.040842 0.000000
# 6 0.000000 0.000000 0.000000 0.000000 0.000000 0.043694
#
#
# Mechanical properties :
#
#
# Convention : Reuss Voigt Hill
#
# Bulk Modulus (GPa) = 20.70884 51.26102 35.98493
# Shear Modulus (GPa) = 13.46918 25.71601 19.59260
#
# Velocity S-wave (km/s) = 2.67140 3.69122 3.22192
# Velocity P-wave (km/s) = 4.52629 6.73249 5.73645
#
# Compressibility (1/GPa) = 0.04828856
#
# Stress axis : x y z
#
# Youngs Moduli (GPa) = 92.77171 25.30137 83.36144
#
# Poissons Ratio (x) = -0.13795 0.56460
# Poissons Ratio (y) = -0.50583 0.47387
# Poissons Ratio (z) = 0.62834 0.14383
#
# Static dielectric constant tensor:
#      x y z
#    x 1.680490 0.000000 0.000000 
#    y 0.000000 1.762400 0.000000 
#    z 0.000000 0.000000 1.660360 
# 
# From -- ./inp_files/49913.got.cif
#   From: 2010.05.17/outbox.cif.g08.bks.cpg/sg65_25_cif.got.tgz:49913.got - 2010.06.03 17:01:31.
