data_PCOD9485276
_publ_section_title
;
Structure prediction by ZEFSAII (Michael W. Deem and Ramdas Pophale) SiO2 
 PCOD9485276
Probable space group: C M M M
;
_chemical_formula_sum "Si O2"
_cell_formula_units_Z 60
_cell_length_a 18.518495
_cell_length_b 7.779531
_cell_length_c 20.434225
_cell_angle_alpha 90.000000
_cell_angle_beta 90.000000
_cell_angle_gamma 90.000000
_cell_volume 2943.860833
_symmetry_space_group_name_H-M "C M M M"
_symmetry_group_IT_number 65
_symmetry_cell_setting 'orthorhombic'
loop_
_space_group_symop_operation_xyz
x,y,z
-x,-y,z
x,-y,-z
-x,y,-z
-x,-y,-z
x,y,-z
-x,y,z
x,-y,z
1/2+x,1/2+y,z
1/2-x,1/2-y,z
1/2+x,1/2-y,-z
1/2-x,1/2+y,-z
1/2-x,1/2-y,-z
1/2+x,1/2+y,-z
1/2-x,1/2+y,z
1/2+x,1/2-y,z
loop_
_atom_site_type_symbol
_atom_site_label
_atom_site_fract_x
_atom_site_fract_y
_atom_site_fract_z
Si Si1 0.083244 0.289514 0.000000
Si Si2 0.333669 0.795251 0.870764
Si Si3 0.587336 0.805463 0.403109
Si Si4 0.918142 0.202161 0.741451
Si Si5 0.629228 0.500000 0.500000
O O1 0.123446 0.229938 0.934408
O O2 0.085026 0.500000 0.000000
O O3 0.000000 0.237009 0.000000
O O4 0.250000 0.750000 0.876056
O O5 0.367504 0.730354 0.803246
O O6 0.341018 0.000000 0.870030
O O7 0.500000 0.781250 0.410330
O O8 0.604252 0.791208 0.326038
O O9 0.623714 0.653247 0.443532
O O10 0.604592 0.000000 0.424658
O O11 0.000000 0.260152 0.757875
O O12 0.920684 0.000000 0.726910
#
# Coordination Sequence:
#
# PCOD9485276 Si02
#       5
#     8  16  16  16   4
#     4   9  19  36  59  87 118 155 196 245 302 361
#     4  11  22  37  58  84 117 155 202 248 300 354
#     4  10  19  30  48  76 113 156 196 241 305 367
#     4  10  20  36  56  81 116 154 196 250 306 363
#     4  12  19  30  48  78 120 154 192 250 307 362
#
# _framework density 20.381398999999998
#
# number of rings (size 3 to 8) (size 9 to 14) (size 15 to 20)
#    0.000    1.733    1.333    4.400    0.000    3.733 
#    0.000    2.000    0.000    4.800    0.000    0.933 
#    0.000    0.000    0.000    0.000    0.000    0.000 
#
# Total GULP energy -167102.944296 kJ/mol
# GULP energy per Si atom -5570.098143 kJ/mol
# Density = 2.033501 g / cm^3
# Si number density = 20.381399 Si / 1000 Ang^3
#
#
#
# Elastic Constant Matrix: (Units=GPa)
#
#
# Indices 1 2 3 4 5 6 
#
# 1 81.8932 9.4403 71.7504 0.0000 0.0000 0.0000
# 2 9.4403 112.2996 38.6880 0.0000 0.0000 0.0000
# 3 71.7504 38.6880 173.1326 0.0000 0.0000 0.0000
# 4 0.0000 0.0000 0.0000 28.5401 0.0000 0.0000
# 5 0.0000 0.0000 0.0000 0.0000 -9.2874 0.0000
# 6 0.0000 0.0000 0.0000 0.0000 0.0000 11.9532
#
#
#
# Elastic Compliance Matrix: (Units=1/GPa)
#
#
# Indices 1 2 3 4 5 6 
#
# 1 0.019328 0.001229 -0.008285 0.000000 0.000000 0.000000
# 2 0.001229 0.009726 -0.002683 0.000000 0.000000 0.000000
# 3 -0.008285 -0.002683 0.009809 0.000000 0.000000 0.000000
# 4 0.000000 0.000000 0.000000 0.035038 0.000000 0.000000
# 5 0.000000 0.000000 0.000000 0.000000 -0.107673 0.000000
# 6 0.000000 0.000000 0.000000 0.000000 0.000000 0.083659
#
#
# Mechanical properties :
#
#
# Convention : Reuss Voigt Hill
#
# Bulk Modulus (GPa) = 51.58314 67.45363 59.51838
# Shear Modulus (GPa) = 65.94079 22.73763 44.33921
#
# Velocity S-wave (km/s) = 5.69418 3.34369 4.66926
# Velocity P-wave (km/s) = 8.28223 6.93358 7.63773
#
# Compressibility (1/GPa) = 0.01938618
#
# Stress axis : x y z
#
# Youngs Moduli (GPa) = 51.73872 102.82106 101.94952
#
# Poissons Ratio (x) = -0.12640 0.84462
# Poissons Ratio (y) = -0.06361 0.27351
# Poissons Ratio (z) = 0.42864 0.27584
#
# Static dielectric constant tensor:
#      x y z
#    x 1.695620 0.000000 0.000000 
#    y 0.000000 1.737580 0.000000 
#    z 0.000000 0.000000 1.709670 
# 
# From -- ./inp_files/55328.got.cif
#   From: 2010.05.17/outbox.cif.g08.bks.cpg/sg65_28_cif.got.tgz:55328.got - 2010.06.03 17:01:31.
