data_PCOD9485814
_publ_section_title
;
Structure prediction by ZEFSAII (Michael W. Deem and Ramdas Pophale) SiO2 
 PCOD9485814
Probable space group: C M M M
;
_chemical_formula_sum "Si O2"
_cell_formula_units_Z 88
_cell_length_a 18.385342
_cell_length_b 7.564670
_cell_length_c 30.004095
_cell_angle_alpha 90.000000
_cell_angle_beta 90.000000
_cell_angle_gamma 90.000000
_cell_volume 4172.940881
_symmetry_space_group_name_H-M "C M M M"
_symmetry_group_IT_number 65
_symmetry_cell_setting 'orthorhombic'
loop_
_space_group_symop_operation_xyz
x,y,z
-x,-y,z
x,-y,-z
-x,y,-z
-x,-y,-z
x,y,-z
-x,y,z
x,-y,z
1/2+x,1/2+y,z
1/2-x,1/2-y,z
1/2+x,1/2-y,-z
1/2-x,1/2+y,-z
1/2-x,1/2-y,-z
1/2+x,1/2+y,-z
1/2-x,1/2+y,z
1/2+x,1/2-y,z
loop_
_atom_site_type_symbol
_atom_site_label
_atom_site_fract_x
_atom_site_fract_y
_atom_site_fract_z
Si Si1 0.835378 0.711842 0.910667
Si Si2 0.416936 0.789380 0.644983
Si Si3 0.915360 0.787721 0.452144
Si Si4 0.084262 0.716501 0.000000
Si Si5 0.415835 0.783536 0.821428
Si Si6 0.335097 0.212129 0.732239
O O1 0.844112 0.500000 0.910614
O O2 0.750000 0.750000 0.911147
O O3 0.874668 0.777118 0.955433
O O4 0.873310 0.777144 0.865465
O O5 0.500000 0.718335 0.645748
O O6 0.383715 0.761149 0.595794
O O7 0.370633 0.719675 0.686388
O O8 0.422214 0.000000 0.650395
O O9 0.884255 0.726476 0.500000
O O10 0.000000 0.727009 0.451099
O O11 0.916171 0.000000 0.453267
O O12 0.085620 0.500000 0.000000
O O13 0.000000 0.769169 0.000000
O O14 0.500000 0.730726 0.822545
O O15 0.376646 0.722981 0.776252
O O16 0.414455 0.000000 0.821370
O O17 0.250000 0.250000 0.734550
O O18 0.343435 0.000000 0.732095
#
# Coordination Sequence:
#
# PCOD9485814 Si02
#       6
#    16  16  16   8  16  16
#     4  10  19  31  50  74 100 130 162 200 245 290
#     4   9  17  29  46  68  92 119 153 192 231 271
#     4   8  14  25  42  66  95 123 150 184 229 278
#     4   9  17  30  49  73  98 127 170 214 242 275
#     4   9  17  31  52  74  94 122 162 201 236 279
#     4  10  20  33  49  69  94 123 155 193 235 281
#
# _framework density 21.088246000000002
#
# number of rings (size 3 to 8) (size 9 to 14) (size 15 to 20)
#    0.000    2.818    0.000    2.455    0.000    5.455 
#    0.000    1.818    0.000    6.000    0.000    0.000 
#    0.000    0.000    0.000    0.000    0.000    0.000 
#
# Total GULP energy -245502.760522 kJ/mol
# GULP energy per Si atom -5579.608194 kJ/mol
# Density = 2.104025 g / cm^3
# Si number density = 21.088246 Si / 1000 Ang^3
#
#
#
# Elastic Constant Matrix: (Units=GPa)
#
#
# Indices 1 2 3 4 5 6 
#
# 1 149.7987 -2.7560 128.5833 0.0000 0.0000 0.0000
# 2 -2.7560 47.4582 10.2865 0.0000 0.0000 0.0000
# 3 128.5833 10.2865 277.9402 0.0000 0.0000 0.0000
# 4 0.0000 0.0000 0.0000 -24.4633 0.0000 0.0000
# 5 0.0000 0.0000 0.0000 0.0000 -9.5792 0.0000
# 6 0.0000 0.0000 0.0000 0.0000 0.0000 20.7088
#
#
#
# Elastic Compliance Matrix: (Units=1/GPa)
#
#
# Indices 1 2 3 4 5 6 
#
# 1 0.011222 0.001791 -0.005258 0.000000 0.000000 0.000000
# 2 0.001791 0.021528 -0.001625 0.000000 0.000000 0.000000
# 3 -0.005258 -0.001625 0.006090 0.000000 0.000000 0.000000
# 4 0.000000 0.000000 0.000000 -0.040878 0.000000 0.000000
# 5 0.000000 0.000000 0.000000 0.000000 -0.104393 0.000000
# 6 0.000000 0.000000 0.000000 0.000000 0.000000 0.048289
#
#
# Mechanical properties :
#
#
# Convention : Reuss Voigt Hill
#
# Bulk Modulus (GPa) = 34.89688 83.04717 58.97202
# Shear Modulus (GPa) = -130.18789 19.93880 -55.12454
#
# Velocity S-wave (km/s) = -7.86567 3.07822 -5.11827
# Velocity P-wave (km/s) = 8.11836 7.21805 2.62751
#
# Compressibility (1/GPa) = 0.02865586
#
# Stress axis : x y z
#
# Youngs Moduli (GPa) = 89.11273 46.45215 164.19105
#
# Poissons Ratio (x) = -0.08321 0.86328
# Poissons Ratio (y) = -0.15963 0.26688
# Poissons Ratio (z) = 0.46854 0.07550
#
# Static dielectric constant tensor:
#      x y z
#    x 1.699650 0.000000 0.000000 
#    y 0.000000 1.807700 0.000000 
#    z 0.000000 0.000000 1.781030 
# 
# From -- ./inp_files/69806.got.cif
#   From: 2010.05.17/outbox.cif.g08.bks.cpg/sg65_35_cif.got.tgz:69806.got - 2010.06.03 17:01:31.
