data_PCOD9485455
_publ_section_title
;
Structure prediction by ZEFSAII (Michael W. Deem and Ramdas Pophale) SiO2 
 PCOD9485455
Probable space group: C M M M
;
_chemical_formula_sum "Si O2"
_cell_formula_units_Z 104
_cell_length_a 28.011326
_cell_length_b 8.905181
_cell_length_c 26.959508
_cell_angle_alpha 90.000000
_cell_angle_beta 90.000000
_cell_angle_gamma 90.000000
_cell_volume 6724.939494
_symmetry_space_group_name_H-M "C M M M"
_symmetry_group_IT_number 65
_symmetry_cell_setting 'orthorhombic'
loop_
_space_group_symop_operation_xyz
x,y,z
-x,-y,z
x,-y,-z
-x,y,-z
-x,-y,-z
x,y,-z
-x,y,z
x,-y,z
1/2+x,1/2+y,z
1/2-x,1/2-y,z
1/2+x,1/2-y,-z
1/2-x,1/2+y,-z
1/2-x,1/2-y,-z
1/2+x,1/2+y,-z
1/2-x,1/2+y,z
1/2+x,1/2-y,z
loop_
_atom_site_type_symbol
_atom_site_label
_atom_site_fract_x
_atom_site_fract_y
_atom_site_fract_z
Si Si1 0.607621 0.179242 0.301538
Si Si2 0.645288 0.321282 0.853252
Si Si3 0.698104 0.820939 0.943405
Si Si4 0.056735 0.820480 0.395836
Si Si5 0.554978 0.320680 0.209330
Si Si6 0.698021 0.680226 0.750275
Si Si7 0.557858 0.827300 0.500000
O O1 0.586970 0.243663 0.352616
O O2 0.571848 0.232162 0.257855
O O3 0.658559 0.250267 0.286426
O O4 0.610790 0.000000 0.303013
O O5 0.648239 0.500000 0.861681
O O6 0.662001 0.237270 0.902085
O O7 0.592022 0.284470 0.834447
O O8 0.679368 0.285578 0.806194
O O9 0.750000 0.750000 0.933411
O O10 0.702094 0.000000 0.940718
O O11 0.684605 0.779427 0.000000
O O12 0.071564 0.757463 0.449619
O O13 0.000000 0.787276 0.388826
O O14 0.062169 0.000000 0.394173
O O15 0.500000 0.291292 0.197492
O O16 0.560423 0.500000 0.219642
O O17 0.698923 0.500000 0.745036
O O18 0.750000 0.750000 0.742790
O O19 0.500000 0.828875 0.500000
O O20 0.574244 0.000000 0.500000
#
# Coordination Sequence:
#
# PCOD9485455 Si02
#       7
#    16  16  16  16  16  16   8
#     4  11  21  31  46  70  97 126 160 195 233 277
#     4   9  18  31  49  71  93 120 152 187 228 275
#     4  10  20  32  47  68  93 120 150 186 229 276
#     4  10  19  31  47  67  95 130 163 196 237 282
#     4   9  18  33  50  68  93 124 157 193 233 276
#     4  10  20  34  50  70  96 124 155 191 233 280
#     4   9  17  29  45  67  94 123 158 199 239 281
#
# _framework density 15.464823000000001
#
# number of rings (size 3 to 8) (size 9 to 14) (size 15 to 20)
#    0.000    2.231    0.000    4.846    0.000    9.231 
#    0.000    0.000    0.000    0.462    0.000    3.769 
#    0.000    0.000    0.000    0.000    0.000    0.000 
#
# Total GULP energy -290133.630821 kJ/mol
# GULP energy per Si atom -5579.492900 kJ/mol
# Density = 1.542962 g / cm^3
# Si number density = 15.464823 Si / 1000 Ang^3
#
#
#
# Elastic Constant Matrix: (Units=GPa)
#
#
# Indices 1 2 3 4 5 6 
#
# 1 115.9688 59.8525 75.4109 0.0000 0.0000 0.0000
# 2 59.8525 79.6503 66.8463 0.0000 0.0000 0.0000
# 3 75.4109 66.8463 129.9381 0.0000 0.0000 0.0000
# 4 0.0000 0.0000 0.0000 30.3498 0.0000 0.0000
# 5 0.0000 0.0000 0.0000 0.0000 20.5534 0.0000
# 6 0.0000 0.0000 0.0000 0.0000 0.0000 24.2943
#
#
#
# Elastic Compliance Matrix: (Units=1/GPa)
#
#
# Indices 1 2 3 4 5 6 
#
# 1 0.016024 -0.007455 -0.005464 0.000000 0.000000 0.000000
# 2 -0.007455 0.025562 -0.008824 0.000000 0.000000 0.000000
# 3 -0.005464 -0.008824 0.015407 0.000000 0.000000 0.000000
# 4 0.000000 0.000000 0.000000 0.032949 0.000000 0.000000
# 5 0.000000 0.000000 0.000000 0.000000 0.048654 0.000000
# 6 0.000000 0.000000 0.000000 0.000000 0.000000 0.041162
#
#
# Mechanical properties :
#
#
# Convention : Reuss Voigt Hill
#
# Bulk Modulus (GPa) = 74.03940 81.08626 77.56283
# Shear Modulus (GPa) = 21.95423 23.26935 22.61179
#
# Velocity S-wave (km/s) = 3.77188 3.88321 3.82795
# Velocity P-wave (km/s) = 8.18226 8.52363 8.35469
#
# Compressibility (1/GPa) = 0.01350632
#
# Stress axis : x y z
#
# Youngs Moduli (GPa) = 62.40643 39.12011 64.90679
#
# Poissons Ratio (x) = 0.29164 0.35468
# Poissons Ratio (y) = 0.46524 0.57273
# Poissons Ratio (z) = 0.34102 0.34519
#
# Static dielectric constant tensor:
#      x y z
#    x 1.499140 0.000000 0.000000 
#    y 0.000000 1.516650 0.000000 
#    z 0.000000 0.000000 1.499010 
# 
# From -- ./inp_files/71811.got.cif
#   From: 2010.05.17/outbox.cif.g08.bks.cpg/sg65_36_cif.got.tgz:71811.got - 2010.06.03 17:01:31.
