data_PCOD9485463
_publ_section_title
;
Structure prediction by ZEFSAII (Michael W. Deem and Ramdas Pophale) SiO2 
 PCOD9485463
Probable space group: C M M M
;
_chemical_formula_sum "Si O2"
_cell_formula_units_Z 80
_cell_length_a 9.096111
_cell_length_b 14.747467
_cell_length_c 27.595168
_cell_angle_alpha 90.000000
_cell_angle_beta 90.000000
_cell_angle_gamma 90.000000
_cell_volume 3701.742685
_symmetry_space_group_name_H-M "C M M M"
_symmetry_group_IT_number 65
_symmetry_cell_setting 'orthorhombic'
loop_
_space_group_symop_operation_xyz
x,y,z
-x,-y,z
x,-y,-z
-x,y,-z
-x,-y,-z
x,y,-z
-x,y,z
x,-y,z
1/2+x,1/2+y,z
1/2-x,1/2-y,z
1/2+x,1/2-y,-z
1/2-x,1/2+y,-z
1/2-x,1/2-y,-z
1/2+x,1/2+y,-z
1/2-x,1/2+y,z
1/2+x,1/2-y,z
loop_
_atom_site_type_symbol
_atom_site_label
_atom_site_fract_x
_atom_site_fract_y
_atom_site_fract_z
Si Si1 0.332205 0.389193 0.000000
Si Si2 0.823389 0.651199 0.290558
Si Si3 0.163276 0.106209 0.192728
Si Si4 0.822294 0.649963 0.500000
Si Si5 0.667892 0.888773 0.902059
Si Si6 0.822781 0.349694 0.604465
O O1 0.249724 0.361440 0.951128
O O2 0.333933 0.500000 0.000000
O O3 0.500000 0.357873 0.000000
O O4 0.750000 0.750000 0.292677
O O5 0.754692 0.610967 0.242158
O O6 0.786008 0.607817 0.343198
O O7 0.000000 0.654507 0.286346
O O8 0.248840 0.142976 0.146208
O O9 0.000000 0.146824 0.198864
O O10 0.145831 0.000000 0.182374
O O11 0.750000 0.750000 0.500000
O O12 0.782066 0.607707 0.447709
O O13 0.000000 0.657701 0.500000
O O14 0.500000 0.857922 0.901941
O O15 0.665600 0.000000 0.901702
O O16 0.750000 0.250000 0.604148
O O17 0.000000 0.340270 0.604706
#
# Coordination Sequence:
#
# PCOD9485463 Si02
#       6
#     8  16  16   8  16  16
#     4   9  15  23  37  59  88 119 148 181 224 271
#     4  10  19  31  47  68  94 123 155 190 229 274
#     4  10  20  33  48  67  92 122 156 194 235 277
#     4   8  12  20  34  54  81 110 139 173 217 265
#     4   9  16  26  41  62  88 117 149 186 228 273
#     4   8  14  23  37  58  84 113 143 178 220 266
#
# _framework density 21.611440999999999
#
# number of rings (size 3 to 8) (size 9 to 14) (size 15 to 20)
#    0.000    2.900    0.000    2.100    0.000    5.600 
#    0.000    0.000    0.000    0.000    0.000    1.400 
#    0.000    5.600    0.000    0.000    0.000    0.400 
#
# Total GULP energy -222918.792523 kJ/mol
# GULP energy per Si atom -5572.969813 kJ/mol
# Density = 2.156225 g / cm^3
# Si number density = 21.611441 Si / 1000 Ang^3
#
#
#
# Elastic Constant Matrix: (Units=GPa)
#
#
# Indices 1 2 3 4 5 6 
#
# 1 130.4995 8.9153 109.0307 0.0000 0.0000 0.0000
# 2 8.9153 48.2243 10.8040 0.0000 0.0000 0.0000
# 3 109.0307 10.8040 274.3883 0.0000 0.0000 0.0000
# 4 0.0000 0.0000 0.0000 -3.9739 0.0000 0.0000
# 5 0.0000 0.0000 0.0000 0.0000 35.6310 0.0000
# 6 0.0000 0.0000 0.0000 0.0000 0.0000 6.6136
#
#
#
# Elastic Compliance Matrix: (Units=1/GPa)
#
#
# Indices 1 2 3 4 5 6 
#
# 1 0.011530 -0.001115 -0.004538 0.000000 0.000000 0.000000
# 2 -0.001115 0.021029 -0.000385 0.000000 0.000000 0.000000
# 3 -0.004538 -0.000385 0.005463 0.000000 0.000000 0.000000
# 4 0.000000 0.000000 0.000000 -0.251640 0.000000 0.000000
# 5 0.000000 0.000000 0.000000 0.000000 0.028065 0.000000
# 6 0.000000 0.000000 0.000000 0.000000 0.000000 0.151203
#
#
# Mechanical properties :
#
#
# Convention : Reuss Voigt Hill
#
# Bulk Modulus (GPa) = 38.54100 78.95692 58.74896
# Shear Modulus (GPa) = -366.97988 29.27827 -168.85080
#
# Velocity S-wave (km/s) = -13.04518 3.68470 -8.84872
# Velocity P-wave (km/s) = 14.45787 7.39708 8.78389
#
# Compressibility (1/GPa) = 0.02594640
#
# Stress axis : x y z
#
# Youngs Moduli (GPa) = 86.72810 47.55385 183.05797
#
# Poissons Ratio (x) = 0.05302 0.83067
# Poissons Ratio (y) = 0.09670 0.07047
# Poissons Ratio (z) = 0.39355 0.01831
#
# Static dielectric constant tensor:
#      x y z
#    x 1.744770 0.000000 0.000000 
#    y 0.000000 1.872880 0.000000 
#    z 0.000000 0.000000 1.831380 
# 
# From -- ./inp_files/65053.got.cif
#   From: 2010.05.17/outbox.cif.g08.bks.cpg/sg65_33_cif.got.tgz:65053.got - 2010.06.03 17:01:31.
