data_PCOD9485130
_publ_section_title
;
Structure prediction by ZEFSAII (Michael W. Deem and Ramdas Pophale) SiO2 
 PCOD9485130
Probable space group: C M M M
;
_chemical_formula_sum "Si O2"
_cell_formula_units_Z 112
_cell_length_a 25.533946
_cell_length_b 13.779016
_cell_length_c 13.857970
_cell_angle_alpha 90.000000
_cell_angle_beta 90.000000
_cell_angle_gamma 90.000000
_cell_volume 4875.686315
_symmetry_space_group_name_H-M "C M M M"
_symmetry_group_IT_number 65
_symmetry_cell_setting 'orthorhombic'
loop_
_space_group_symop_operation_xyz
x,y,z
-x,-y,z
x,-y,-z
-x,y,-z
-x,-y,-z
x,y,-z
-x,y,z
x,-y,z
1/2+x,1/2+y,z
1/2-x,1/2-y,z
1/2+x,1/2-y,-z
1/2-x,1/2+y,-z
1/2-x,1/2-y,-z
1/2+x,1/2+y,-z
1/2-x,1/2+y,z
1/2+x,1/2-y,z
loop_
_atom_site_type_symbol
_atom_site_label
_atom_site_fract_x
_atom_site_fract_y
_atom_site_fract_z
Si Si1 0.168205 0.613802 0.617820
Si Si2 0.444122 0.117301 0.615610
Si Si3 0.557899 0.297735 0.116226
Si Si4 0.771041 0.382096 0.112433
Si Si5 0.783316 0.881330 0.608637
Si Si6 0.386497 0.890995 0.882687
Si Si7 0.662029 0.383055 0.792699
O O1 0.168076 0.616207 0.500000
O O2 0.168534 0.500000 0.645147
O O3 0.112193 0.653578 0.652213
O O4 0.225726 0.651227 0.644282
O O5 0.444283 0.135213 0.500000
O O6 0.500000 0.154135 0.653949
O O7 0.443908 0.000000 0.625769
O O8 0.500000 0.329319 0.147796
O O9 0.567989 0.184371 0.137827
O O10 0.608049 0.349191 0.161826
O O11 0.560595 0.310064 0.000000
O O12 0.771099 0.500000 0.119245
O O13 0.828864 0.356516 0.152006
O O14 0.716025 0.348837 0.156299
O O15 0.770029 0.356319 0.000000
O O16 0.792381 0.847068 0.500000
O O17 0.828966 0.855260 0.681553
O O18 0.780778 0.000000 0.606089
O O19 0.397046 0.000000 0.848909
O O20 0.382031 0.894737 0.000000
O O21 0.662623 0.500000 0.799199
#
# Coordination Sequence:
#
# PCOD9485130 Si02
#       7
#    16  16  16  16  16  16  16
#     4   7   9  14  25  42  66  98 141 197 258 314
#     4   7   8   9  15  31  57  88 122 165 225 300
#     4  10  21  34  49  75 109 144 184 221 256 317
#     4   8  14  26  46  74 106 138 174 213 256 314
#     4   8  14  25  41  61  87 125 177 235 288 328
#     4   8  15  30  52  78 109 140 169 212 269 320
#     4  10  19  30  46  70 105 149 189 224 266 318
#
# _framework density 22.971124
#
# number of rings (size 3 to 8) (size 9 to 14) (size 15 to 20)
#    0.000    3.714    0.000    3.429    0.000    2.000 
#    0.000    4.286    0.000    0.429    0.000    5.000 
#    0.000    7.429    0.000    1.857    0.000    0.286 
#
# Total GULP energy -312719.324940 kJ/mol
# GULP energy per Si atom -5584.273660 kJ/mol
# Density = 2.291884 g / cm^3
# Si number density = 22.971124 Si / 1000 Ang^3
#
#
#
# Elastic Constant Matrix: (Units=GPa)
#
#
# Indices 1 2 3 4 5 6 
#
# 1 209.9748 31.5809 68.2891 0.0000 0.0000 0.0000
# 2 31.5809 49.8517 3.5251 0.0000 0.0000 0.0000
# 3 68.2891 3.5251 88.4080 0.0000 0.0000 0.0000
# 4 0.0000 0.0000 0.0000 5.4222 0.0000 0.0000
# 5 0.0000 0.0000 0.0000 0.0000 34.4662 0.0000
# 6 0.0000 0.0000 0.0000 0.0000 0.0000 24.1382
#
#
#
# Elastic Compliance Matrix: (Units=1/GPa)
#
#
# Indices 1 2 3 4 5 6 
#
# 1 0.007119 -0.004133 -0.005334 0.000000 0.000000 0.000000
# 2 -0.004133 0.022515 0.002294 0.000000 0.000000 0.000000
# 3 -0.005334 0.002294 0.015340 0.000000 0.000000 0.000000
# 4 0.000000 0.000000 0.000000 0.184426 0.000000 0.000000
# 5 0.000000 0.000000 0.000000 0.000000 0.029014 0.000000
# 6 0.000000 0.000000 0.000000 0.000000 0.000000 0.041428
#
#
# Mechanical properties :
#
#
# Convention : Reuss Voigt Hill
#
# Bulk Modulus (GPa) = 32.64830 61.66942 47.15886
# Shear Modulus (GPa) = 15.41326 29.12796 22.27061
#
# Velocity S-wave (km/s) = 2.59315 3.56480 3.11706
# Velocity P-wave (km/s) = 4.81762 6.62182 5.79042
#
# Compressibility (1/GPa) = 0.03062947
#
# Stress axis : x y z
#
# Youngs Moduli (GPa) = 140.47377 44.41443 65.18975
#
# Poissons Ratio (x) = 0.18354 0.34772
# Poissons Ratio (y) = 0.58051 -0.14957
# Poissons Ratio (z) = 0.74928 -0.10190
#
# Static dielectric constant tensor:
#      x y z
#    x 1.846640 0.000000 0.000000 
#    y 0.000000 1.902120 0.000000 
#    z 0.000000 0.000000 1.892620 
# 
# From -- ./inp_files/45767.got.cif
#   From: 2010.05.17/outbox.cif.g08.bks.cpg/sg65_23_cif.got.tgz:45767.got - 2010.06.03 17:01:31.
