data_PCOD9485265
_publ_section_title
;
Structure prediction by ZEFSAII (Michael W. Deem and Ramdas Pophale) SiO2 
 PCOD9485265
Probable space group: C M M M
;
_chemical_formula_sum "Si O2"
_cell_formula_units_Z 120
_cell_length_a 14.602932
_cell_length_b 19.412588
_cell_length_c 19.138975
_cell_angle_alpha 90.000000
_cell_angle_beta 90.000000
_cell_angle_gamma 90.000000
_cell_volume 5425.530078
_symmetry_space_group_name_H-M "C M M M"
_symmetry_group_IT_number 65
_symmetry_cell_setting 'orthorhombic'
loop_
_space_group_symop_operation_xyz
x,y,z
-x,-y,z
x,-y,-z
-x,y,-z
-x,-y,-z
x,y,-z
-x,y,z
x,-y,z
1/2+x,1/2+y,z
1/2-x,1/2-y,z
1/2+x,1/2-y,-z
1/2-x,1/2+y,-z
1/2-x,1/2-y,-z
1/2+x,1/2+y,-z
1/2-x,1/2+y,z
1/2+x,1/2-y,z
loop_
_atom_site_type_symbol
_atom_site_label
_atom_site_fract_x
_atom_site_fract_y
_atom_site_fract_z
Si Si1 0.843895 0.708193 0.920916
Si Si2 0.110823 0.886116 0.581730
Si Si3 0.600989 0.583166 0.000000
Si Si4 0.901678 0.771863 0.218754
Si Si5 0.263639 0.577318 0.122238
Si Si6 0.111152 0.725581 0.424058
Si Si7 0.703032 0.397760 0.273562
Si Si8 0.397030 0.870312 0.697944
O O1 0.750000 0.750000 0.927575
O O2 0.895201 0.753664 0.862786
O O3 0.816615 0.634036 0.886614
O O4 0.881702 0.700295 0.000000
O O5 0.135012 0.906147 0.500000
O O6 0.135482 0.804753 0.589237
O O7 0.154647 0.917150 0.653124
O O8 0.000000 0.893457 0.585556
O O9 0.660715 0.600945 0.066723
O O10 0.593629 0.500000 0.000000
O O11 0.500000 0.613444 0.000000
O O12 0.823180 0.817916 0.254442
O O13 0.902326 0.697233 0.254004
O O14 0.000000 0.806168 0.235012
O O15 0.231301 0.500000 0.104678
O O16 0.315912 0.573473 0.196323
O O17 0.145555 0.707849 0.500000
O O18 0.136957 0.664633 0.373529
O O19 0.000000 0.726046 0.422756
O O20 0.811123 0.414199 0.278989
O O21 0.500000 0.899746 0.692988
#
# Coordination Sequence:
#
# PCOD9485265 Si02
#       8
#    16  16   8  16  16  16  16  16
#     4  11  21  38  60  86 116 155 197 241 289 358
#     4   9  18  31  49  78 114 155 204 253 302 361
#     4   9  20  40  61  86 121 155 193 243 298 361
#     4  11  21  34  54  84 118 154 193 244 303 357
#     4  11  23  39  61  88 120 162 202 245 303 363
#     4   8  14  25  41  67 105 143 181 230 291 355
#     4  12  21  35  57  82 117 158 206 252 308 369
#     4  10  19  30  48  74 110 150 192 245 304 360
#
# _framework density 22.117654999999999
#
# number of rings (size 3 to 8) (size 9 to 14) (size 15 to 20)
#    0.000    1.800    4.667    1.600    0.000    1.867 
#    0.000    1.333    0.000    2.000    0.000    1.867 
#    0.000    0.000    0.000    4.533    0.000    0.133 
#
# Total GULP energy -334127.667287 kJ/mol
# GULP energy per Si atom -5568.794455 kJ/mol
# Density = 2.206731 g / cm^3
# Si number density = 22.117655 Si / 1000 Ang^3
#
#
#
# Elastic Constant Matrix: (Units=GPa)
#
#
# Indices 1 2 3 4 5 6 
#
# 1 88.6181 6.7765 27.0975 0.0000 0.0000 0.0000
# 2 6.7765 62.6032 14.8820 0.0000 0.0000 0.0000
# 3 27.0975 14.8820 171.6295 0.0000 0.0000 0.0000
# 4 0.0000 0.0000 0.0000 -844.4365 0.0000 0.0000
# 5 0.0000 0.0000 0.0000 0.0000 12.9867 0.0000
# 6 0.0000 0.0000 0.0000 0.0000 0.0000 0.1310
#
#
#
# Elastic Compliance Matrix: (Units=1/GPa)
#
#
# Indices 1 2 3 4 5 6 
#
# 1 0.011902 -0.000859 -0.001805 0.000000 0.000000 0.000000
# 2 -0.000859 0.016372 -0.001284 0.000000 0.000000 0.000000
# 3 -0.001805 -0.001284 0.006223 0.000000 0.000000 0.000000
# 4 0.000000 0.000000 0.000000 -0.001184 0.000000 0.000000
# 5 0.000000 0.000000 0.000000 0.000000 0.077002 0.000000
# 6 0.000000 0.000000 0.000000 0.000000 0.000000 7.631611
#
#
# Mechanical properties :
#
#
# Convention : Reuss Voigt Hill
#
# Bulk Modulus (GPa) = 37.59287 46.70697 42.14992
# Shear Modulus (GPa) = 0.64444 -147.99076 -73.67316
#
# Velocity S-wave (km/s) = 0.54037 -8.18877 -5.77771
# Velocity P-wave (km/s) = 4.17409 8.26103 5.04091
#
# Compressibility (1/GPa) = 0.02660079
#
# Stress axis : x y z
#
# Youngs Moduli (GPa) = 84.02024 61.08040 160.70061
#
# Poissons Ratio (x) = 0.05249 0.29000
# Poissons Ratio (y) = 0.07220 0.20633
# Poissons Ratio (z) = 0.15162 0.07842
#
# Static dielectric constant tensor:
#      x y z
#    x 1.831270 0.000000 0.000000 
#    y 0.000000 1.889610 0.000000 
#    z 0.000000 0.000000 1.957450 
# 
# From -- ./inp_files/63080.got.cif
#   From: 2010.05.17/outbox.cif.g08.bks.cpg/sg65_32_cif.got.tgz:63080.got - 2010.06.03 17:01:31.
