data_PCOD9485175
_publ_section_title
;
Structure prediction by ZEFSAII (Michael W. Deem and Ramdas Pophale) SiO2 
 PCOD9485175
Probable space group: C M M M
;
_chemical_formula_sum "Si O2"
_cell_formula_units_Z 96
_cell_length_a 18.761620
_cell_length_b 9.015408
_cell_length_c 32.272429
_cell_angle_alpha 90.000000
_cell_angle_beta 90.000000
_cell_angle_gamma 90.000000
_cell_volume 5458.676727
_symmetry_space_group_name_H-M "C M M M"
_symmetry_group_IT_number 65
_symmetry_cell_setting 'orthorhombic'
loop_
_space_group_symop_operation_xyz
x,y,z
-x,-y,z
x,-y,-z
-x,y,-z
-x,-y,-z
x,y,-z
-x,y,z
x,-y,z
1/2+x,1/2+y,z
1/2-x,1/2-y,z
1/2+x,1/2-y,-z
1/2-x,1/2+y,-z
1/2-x,1/2-y,-z
1/2+x,1/2+y,-z
1/2-x,1/2+y,z
1/2+x,1/2-y,z
loop_
_atom_site_type_symbol
_atom_site_label
_atom_site_fract_x
_atom_site_fract_y
_atom_site_fract_z
Si Si1 0.172441 0.823025 0.952877
Si Si2 0.170954 0.822208 0.545589
Si Si3 0.583575 0.822967 0.289516
Si Si4 0.085734 0.326763 0.119860
Si Si5 0.828386 0.321697 0.628159
Si Si6 0.913212 0.170976 0.204766
O O1 0.250000 0.750000 0.947763
O O2 0.120760 0.758897 0.918164
O O3 0.178216 0.000000 0.948916
O O4 0.148019 0.789253 0.000000
O O5 0.138176 0.793960 0.500000
O O6 0.250000 0.750000 0.544071
O O7 0.137881 0.747494 0.586285
O O8 0.176461 0.000000 0.550831
O O9 0.500000 0.786422 0.295304
O O10 0.626662 0.786201 0.330903
O O11 0.610298 0.741831 0.248164
O O12 0.588442 0.000000 0.282845
O O13 0.103966 0.500000 0.117759
O O14 0.109639 0.259645 0.163955
O O15 0.000000 0.312724 0.117822
O O16 0.822941 0.500000 0.623992
O O17 0.750000 0.250000 0.632528
O O18 0.000000 0.176810 0.205251
O O19 0.891731 0.000000 0.201767
#
# Coordination Sequence:
#
# PCOD9485175 Si02
#       6
#    16  16  16  16  16  16
#     4  10  21  37  56  77 104 138 173 209 250 299
#     4   9  16  26  42  64  90 120 154 192 233 279
#     4   9  18  33  51  70  94 126 163 198 236 287
#     4  10  20  34  54  79 106 135 168 209 253 295
#     4  10  19  30  47  70  96 124 153 193 240 283
#     4   9  17  30  50  75 100 127 162 204 248 292
#
# _framework density 17.586679
#
# number of rings (size 3 to 8) (size 9 to 14) (size 15 to 20)
#    0.000    2.500    0.000    3.500    0.000    6.667 
#    0.000    2.500    0.000    2.500    0.000    3.500 
#    0.000    0.000    0.000    0.000    0.000    0.000 
#
# Total GULP energy -267581.220258 kJ/mol
# GULP energy per Si atom -5574.608755 kJ/mol
# Density = 1.754665 g / cm^3
# Si number density = 17.586679 Si / 1000 Ang^3
#
#
#
# Elastic Constant Matrix: (Units=GPa)
#
#
# Indices 1 2 3 4 5 6 
#
# 1 18.4801 30.3731 43.3595 0.0000 0.0000 0.0000
# 2 30.3731 101.2107 94.7734 0.0000 0.0000 0.0000
# 3 43.3595 94.7734 191.8731 0.0000 0.0000 0.0000
# 4 0.0000 0.0000 0.0000 38.7072 0.0000 0.0000
# 5 0.0000 0.0000 0.0000 0.0000 28.3954 0.0000
# 6 0.0000 0.0000 0.0000 0.0000 0.0000 20.4569
#
#
#
# Elastic Compliance Matrix: (Units=1/GPa)
#
#
# Indices 1 2 3 4 5 6 
#
# 1 0.138751 -0.022844 -0.020072 0.000000 0.000000 0.000000
# 2 -0.022844 0.022144 -0.005775 0.000000 0.000000 0.000000
# 3 -0.020072 -0.005775 0.012600 0.000000 0.000000 0.000000
# 4 0.000000 0.000000 0.000000 0.025835 0.000000 0.000000
# 5 0.000000 0.000000 0.000000 0.000000 0.035217 0.000000
# 6 0.000000 0.000000 0.000000 0.000000 0.000000 0.048883
#
#
# Mechanical properties :
#
#
# Convention : Reuss Voigt Hill
#
# Bulk Modulus (GPa) = 13.13828 72.06399 42.60113
# Shear Modulus (GPa) = 12.30971 27.04909 19.67940
#
# Velocity S-wave (km/s) = 2.64852 3.92605 3.34877
# Velocity P-wave (km/s) = 4.10362 7.84966 6.26326
#
# Compressibility (1/GPa) = 0.07611347
#
# Stress axis : x y z
#
# Youngs Moduli (GPa) = 7.20715 45.15924 79.36358
#
# Poissons Ratio (x) = 1.03162 1.59295
# Poissons Ratio (y) = 0.16464 0.45836
# Poissons Ratio (z) = 0.14466 0.26081
#
# Static dielectric constant tensor:
#      x y z
#    x 1.580860 0.000000 0.000000 
#    y 0.000000 1.588640 0.000000 
#    z 0.000000 0.000000 1.619780 
# 
# From -- ./inp_files/75688.got.cif
#   From: 2010.05.17/outbox.cif.g08.bks.cpg/sg65_38_cif.got.tgz:75688.got - 2010.06.03 17:01:31.
