data_PCOD9485987
_publ_section_title
;
Structure prediction by ZEFSAII (Michael W. Deem and Ramdas Pophale) SiO2 
 PCOD9485987
Probable space group: C M M M
;
_chemical_formula_sum "Si O2"
_cell_formula_units_Z 88
_cell_length_a 16.504542
_cell_length_b 11.117655
_cell_length_c 27.184768
_cell_angle_alpha 90.000000
_cell_angle_beta 90.000000
_cell_angle_gamma 90.000000
_cell_volume 4988.182119
_symmetry_space_group_name_H-M "C M M M"
_symmetry_group_IT_number 65
_symmetry_cell_setting 'orthorhombic'
loop_
_space_group_symop_operation_xyz
x,y,z
-x,-y,z
x,-y,-z
-x,y,-z
-x,-y,-z
x,y,-z
-x,y,z
x,-y,z
1/2+x,1/2+y,z
1/2-x,1/2-y,z
1/2+x,1/2-y,-z
1/2-x,1/2+y,-z
1/2-x,1/2-y,-z
1/2+x,1/2+y,-z
1/2-x,1/2+y,z
1/2+x,1/2-y,z
loop_
_atom_site_type_symbol
_atom_site_label
_atom_site_fract_x
_atom_site_fract_y
_atom_site_fract_z
Si Si1 0.317334 0.354682 0.000000
Si Si2 0.813476 0.857125 0.799510
Si Si3 0.595585 0.361032 0.301789
Si Si4 0.909495 0.855910 0.101964
Si Si5 0.655365 0.758176 0.394708
Si Si6 0.097033 0.500000 0.442986
Si Si7 0.500000 0.642058 0.554700
O O1 0.250000 0.250000 0.000000
O O2 0.369050 0.333001 0.950621
O O3 0.293604 0.500000 0.000000
O O4 0.750000 0.750000 0.789621
O O5 0.876981 0.852955 0.754612
O O6 0.854987 0.823560 0.851361
O O7 0.785689 0.000000 0.801962
O O8 0.500000 0.336762 0.306603
O O9 0.610063 0.500000 0.317486
O O10 0.645114 0.272917 0.337219
O O11 0.000000 0.804039 0.104953
O O12 0.916422 0.000000 0.105264
O O13 0.750000 0.750000 0.408648
O O14 0.628071 0.887339 0.412788
O O15 0.584513 0.676921 0.419400
O O16 0.124974 0.500000 0.500000
O O17 0.000000 0.500000 0.443663
O O18 0.500000 0.500000 0.551145
O O19 0.500000 0.698651 0.500000
#
# Coordination Sequence:
#
# PCOD9485987 Si02
#       7
#     8  16  16  16  16   8   8
#     4  10  19  31  51  79 111 150 190 242 294 342
#     4  10  20  35  56  85 114 149 189 239 292 349
#     4  10  20  38  63  85 112 148 193 242 289 339
#     4   9  17  31  53  80 110 146 198 244 285 336
#     4  12  25  41  64  92 120 153 196 240 291 350
#     4  11  24  44  64  85 123 163 191 233 293 356
#     4  11  24  43  65  89 119 154 195 242 286 339
#
# _framework density 17.641697000000001
#
# number of rings (size 3 to 8) (size 9 to 14) (size 15 to 20)
#    0.000    1.636    1.818    3.000    2.545    4.727 
#    1.636    0.000    0.000    3.818    0.000    0.000 
#    0.000    0.000    0.000    0.000    0.000    0.000 
#
# Total GULP energy -245093.889905 kJ/mol
# GULP energy per Si atom -5570.315680 kJ/mol
# Density = 1.760154 g / cm^3
# Si number density = 17.641697 Si / 1000 Ang^3
#
#
#
# Elastic Constant Matrix: (Units=GPa)
#
#
# Indices 1 2 3 4 5 6 
#
# 1 104.4662 44.8211 28.2782 0.0000 0.0000 0.0000
# 2 44.8211 90.7325 28.2216 0.0000 0.0000 0.0000
# 3 28.2782 28.2216 102.5685 0.0000 0.0000 0.0000
# 4 0.0000 0.0000 0.0000 32.5867 0.0000 0.0000
# 5 0.0000 0.0000 0.0000 0.0000 9.0115 0.0000
# 6 0.0000 0.0000 0.0000 0.0000 0.0000 22.5687
#
#
#
# Elastic Compliance Matrix: (Units=1/GPa)
#
#
# Indices 1 2 3 4 5 6 
#
# 1 0.012479 -0.005571 -0.001908 0.000000 0.000000 0.000000
# 2 -0.005571 0.014540 -0.002465 0.000000 0.000000 0.000000
# 3 -0.001908 -0.002465 0.010954 0.000000 0.000000 0.000000
# 4 0.000000 0.000000 0.000000 0.030687 0.000000 0.000000
# 5 0.000000 0.000000 0.000000 0.000000 0.110969 0.000000
# 6 0.000000 0.000000 0.000000 0.000000 0.000000 0.044309
#
#
# Mechanical properties :
#
#
# Convention : Reuss Voigt Hill
#
# Bulk Modulus (GPa) = 55.29169 55.60100 55.44634
# Shear Modulus (GPa) = 20.01165 25.92979 22.97072
#
# Velocity S-wave (km/s) = 3.37165 3.83796 3.61234
# Velocity P-wave (km/s) = 6.82399 7.15717 6.99257
#
# Compressibility (1/GPa) = 0.01808590
#
# Stress axis : x y z
#
# Youngs Moduli (GPa) = 80.13331 68.77483 91.29357
#
# Poissons Ratio (x) = 0.38316 0.17415
# Poissons Ratio (y) = 0.44645 0.22501
# Poissons Ratio (z) = 0.15286 0.16951
#
# Static dielectric constant tensor:
#      x y z
#    x 1.547940 0.000000 0.000000 
#    y 0.000000 1.576910 0.000000 
#    z 0.000000 0.000000 1.639410 
# 
# From -- ./inp_files/74823.got.cif
#   From: 2010.05.17/outbox.cif.g08.bks.cpg/sg65_38_cif.got.tgz:74823.got - 2010.06.03 17:01:31.
