data_PCOD9485378
_publ_section_title
;
Structure prediction by ZEFSAII (Michael W. Deem and Ramdas Pophale) SiO2 
 PCOD9485378
Probable space group: C M M M
;
_chemical_formula_sum "Si O2"
_cell_formula_units_Z 96
_cell_length_a 8.451427
_cell_length_b 28.017125
_cell_length_c 24.881527
_cell_angle_alpha 90.000000
_cell_angle_beta 90.000000
_cell_angle_gamma 90.000000
_cell_volume 5891.564575
_symmetry_space_group_name_H-M "C M M M"
_symmetry_group_IT_number 65
_symmetry_cell_setting 'orthorhombic'
loop_
_space_group_symop_operation_xyz
x,y,z
-x,-y,z
x,-y,-z
-x,y,-z
-x,-y,-z
x,y,-z
-x,y,z
x,-y,z
1/2+x,1/2+y,z
1/2-x,1/2-y,z
1/2+x,1/2-y,-z
1/2-x,1/2+y,-z
1/2-x,1/2-y,-z
1/2+x,1/2+y,-z
1/2-x,1/2+y,z
1/2+x,1/2-y,z
loop_
_atom_site_type_symbol
_atom_site_label
_atom_site_fract_x
_atom_site_fract_y
_atom_site_fract_z
Si Si1 0.187694 0.695764 0.000000
Si Si2 0.691268 0.101937 0.727259
Si Si3 0.184460 0.441930 0.500000
Si Si4 0.310626 0.198236 0.783928
Si Si5 0.193617 0.444420 0.383022
Si Si6 0.810341 0.850340 0.109195
Si Si7 0.308963 0.446565 0.165763
O O1 0.250000 0.750000 0.000000
O O2 0.245384 0.668393 0.946892
O O3 0.000000 0.697594 0.000000
O O4 0.500000 0.099561 0.728053
O O5 0.738565 0.155493 0.744013
O O6 0.745556 0.085494 0.668538
O O7 0.753429 0.067737 0.774529
O O8 0.185939 0.500000 0.500000
O O9 0.251844 0.427689 0.441899
O O10 0.000000 0.427239 0.500000
O O11 0.500000 0.198690 0.786919
O O12 0.250000 0.250000 0.767789
O O13 0.244154 0.183950 0.842373
O O14 0.237286 0.500000 0.375620
O O15 0.000000 0.443205 0.384730
O O16 0.756192 0.903731 0.126390
O O17 0.000000 0.850188 0.106980
O O18 0.500000 0.446412 0.165270
O O19 0.254500 0.500000 0.151840
#
# Coordination Sequence:
#
# PCOD9485378 Si02
#       7
#     8  16   8  16  16  16  16
#     4  12  24  38  55  74  95 117 146 183 223 264
#     4   9  17  27  42  65  89 114 147 185 222 262
#     4   7  10  16  28  50  82 115 141 169 211 259
#     4  10  19  31  46  65  89 115 144 180 224 268
#     4   8  12  19  33  56  86 115 141 173 215 259
#     4  10  20  35  53  72  94 119 148 179 214 257
#     4   9  18  32  49  69  94 123 151 178 211 255
#
# _framework density 16.294483
#
# number of rings (size 3 to 8) (size 9 to 14) (size 15 to 20)
#    0.000    2.750    0.000    3.750    0.000    2.333 
#    0.000    0.417    0.000    2.500    0.000    1.167 
#    0.000    3.333    0.000    0.000    0.000    0.000 
#
# Total GULP energy -267472.175977 kJ/mol
# GULP energy per Si atom -5572.337000 kJ/mol
# Density = 1.625740 g / cm^3
# Si number density = 16.294483 Si / 1000 Ang^3
#
#
#
# Elastic Constant Matrix: (Units=GPa)
#
#
# Indices 1 2 3 4 5 6 
#
# 1 25.1841 19.2996 22.2433 0.0000 0.0000 0.0000
# 2 19.2996 110.2071 71.6282 0.0000 0.0000 0.0000
# 3 22.2433 71.6282 162.6828 0.0000 0.0000 0.0000
# 4 0.0000 0.0000 0.0000 16.6724 0.0000 0.0000
# 5 0.0000 0.0000 0.0000 0.0000 4.4348 0.0000
# 6 0.0000 0.0000 0.0000 0.0000 0.0000 14.4520
#
#
#
# Elastic Compliance Matrix: (Units=1/GPa)
#
#
# Indices 1 2 3 4 5 6 
#
# 1 0.047632 -0.005756 -0.003979 0.000000 0.000000 0.000000
# 2 -0.005756 0.013407 -0.005116 0.000000 0.000000 0.000000
# 3 -0.003979 -0.005116 0.008943 0.000000 0.000000 0.000000
# 4 0.000000 0.000000 0.000000 0.059979 0.000000 0.000000
# 5 0.000000 0.000000 0.000000 0.000000 0.225488 0.000000
# 6 0.000000 0.000000 0.000000 0.000000 0.000000 0.069195
#
#
# Mechanical properties :
#
#
# Convention : Reuss Voigt Hill
#
# Bulk Modulus (GPa) = 24.82475 58.26848 41.54662
# Shear Modulus (GPa) = 10.68896 19.43870 15.06383
#
# Velocity S-wave (km/s) = 2.56400 3.45767 3.04382
# Velocity P-wave (km/s) = 4.90241 7.19569 6.15677
#
# Compressibility (1/GPa) = 0.04028238
#
# Stress axis : x y z
#
# Youngs Moduli (GPa) = 20.99412 74.58864 111.81371
#
# Poissons Ratio (x) = 0.42931 0.44485
# Poissons Ratio (y) = 0.12083 0.57204
# Poissons Ratio (z) = 0.08353 0.38160
#
# Static dielectric constant tensor:
#      x y z
#    x 1.554150 0.000000 0.000000 
#    y 0.000000 1.546760 0.000000 
#    z 0.000000 0.000000 1.549350 
# 
# From -- ./inp_files/68104.got.cif
#   From: 2010.05.17/outbox.cif.g08.bks.cpg/sg65_35_cif.got.tgz:68104.got - 2010.06.03 17:01:31.
