data_PCOD9485290
_publ_section_title
;
Structure prediction by ZEFSAII (Michael W. Deem and Ramdas Pophale) SiO2 
 PCOD9485290
Probable space group: C M M M
;
_chemical_formula_sum "Si O2"
_cell_formula_units_Z 80
_cell_length_a 22.240637
_cell_length_b 22.654119
_cell_length_c 7.427251
_cell_angle_alpha 90.000000
_cell_angle_beta 90.000000
_cell_angle_gamma 90.000000
_cell_volume 3742.161275
_symmetry_space_group_name_H-M "C M M M"
_symmetry_group_IT_number 65
_symmetry_cell_setting 'orthorhombic'
loop_
_space_group_symop_operation_xyz
x,y,z
-x,-y,z
x,-y,-z
-x,y,-z
-x,-y,-z
x,y,-z
-x,y,z
x,-y,z
1/2+x,1/2+y,z
1/2-x,1/2-y,z
1/2+x,1/2-y,-z
1/2-x,1/2+y,-z
1/2-x,1/2-y,-z
1/2+x,1/2+y,-z
1/2-x,1/2+y,z
1/2+x,1/2-y,z
loop_
_atom_site_type_symbol
_atom_site_label
_atom_site_fract_x
_atom_site_fract_y
_atom_site_fract_z
Si Si1 0.930176 0.500000 0.719605
Si Si2 0.500000 0.430180 0.779775
Si Si3 0.770327 0.932864 0.783207
Si Si4 0.681622 0.236178 0.286522
Si Si5 0.882278 0.143435 0.783265
Si Si6 0.858873 0.388180 0.703626
O O1 0.922219 0.500000 0.500000
O O2 0.899548 0.439638 0.786440
O O3 0.000000 0.500000 0.760038
O O4 0.500000 0.500000 0.724602
O O5 0.558388 0.391908 0.722255
O O6 0.500000 0.431722 0.000000
O O7 0.823605 0.891570 0.720040
O O8 0.707374 0.916114 0.698886
O O9 0.786132 0.000000 0.744958
O O10 0.764050 0.926549 0.000000
O O11 0.689806 0.226128 0.500000
O O12 0.750000 0.250000 0.217043
O O13 0.634259 0.289285 0.263172
O O14 0.652804 0.175903 0.211445
O O15 0.884290 0.140652 0.000000
O O16 0.882054 0.378266 0.500000
#
# Coordination Sequence:
#
# PCOD9485290 Si02
#       6
#     8   8  16  16  16  16
#     4   9  18  34  55  77  99 128 177 224 252 299
#     4   9  18  36  59  81 109 146 189 230 268 320
#     4  10  19  30  49  79 107 130 168 221 270 310
#     4  10  20  34  52  78 111 141 172 216 270 322
#     4  10  20  34  55  79 106 144 183 220 266 319
#     4  10  19  33  54  76 101 136 173 213 263 313
#
# _framework density 21.378021
#
# number of rings (size 3 to 8) (size 9 to 14) (size 15 to 20)
#    0.000    2.200    3.000    0.600    0.000    3.600 
#    1.800    0.500    0.000    3.600    0.000    0.000 
#    0.000    0.000    0.000    0.000    0.000    0.000 
#
# Total GULP energy -223150.286687 kJ/mol
# GULP energy per Si atom -5578.757167 kJ/mol
# Density = 2.132936 g / cm^3
# Si number density = 21.378021 Si / 1000 Ang^3
#
#
#
# Elastic Constant Matrix: (Units=GPa)
#
#
# Indices 1 2 3 4 5 6 
#
# 1 140.2564 86.3508 1.2734 0.0000 0.0000 0.0000
# 2 86.3508 203.5774 12.9039 0.0000 0.0000 0.0000
# 3 1.2734 12.9039 64.7192 0.0000 0.0000 0.0000
# 4 0.0000 0.0000 0.0000 15.9678 0.0000 0.0000
# 5 0.0000 0.0000 0.0000 0.0000 14.5585 0.0000
# 6 0.0000 0.0000 0.0000 0.0000 0.0000 26.6302
#
#
#
# Elastic Compliance Matrix: (Units=1/GPa)
#
#
# Indices 1 2 3 4 5 6 
#
# 1 0.009676 -0.004144 0.000636 0.000000 0.000000 0.000000
# 2 -0.004144 0.006750 -0.001264 0.000000 0.000000 0.000000
# 3 0.000636 -0.001264 0.015691 0.000000 0.000000 0.000000
# 4 0.000000 0.000000 0.000000 0.062626 0.000000 0.000000
# 5 0.000000 0.000000 0.000000 0.000000 0.068689 0.000000
# 6 0.000000 0.000000 0.000000 0.000000 0.000000 0.037551
#
#
# Mechanical properties :
#
#
# Convention : Reuss Voigt Hill
#
# Bulk Modulus (GPa) = 44.30429 67.73436 56.01932
# Shear Modulus (GPa) = 22.93031 31.96627 27.44829
#
# Velocity S-wave (km/s) = 3.27863 3.87109 3.58711
# Velocity P-wave (km/s) = 5.92467 7.19259 6.58920
#
# Compressibility (1/GPa) = 0.02257118
#
# Stress axis : x y z
#
# Youngs Moduli (GPa) = 103.35318 148.14423 63.73108
#
# Poissons Ratio (x) = 0.61396 -0.04053
# Poissons Ratio (y) = 0.42833 0.08058
# Poissons Ratio (z) = -0.06573 0.18730
#
# Static dielectric constant tensor:
#      x y z
#    x 1.717780 0.000000 0.000000 
#    y 0.000000 1.802440 0.000000 
#    z 0.000000 0.000000 2.191410 
# 
# From -- ./inp_files/11586.got.cif
#   From: 2010.05.17/outbox.cif.g08.bks.cpg/sg65_6_cif.got.tgz:11586.got - 2010.06.03 17:01:31.
