data_PCOD9485150
_publ_section_title
;
Structure prediction by ZEFSAII (Michael W. Deem and Ramdas Pophale) SiO2 
 PCOD9485150
Probable space group: C M M M
;
_chemical_formula_sum "Si O2"
_cell_formula_units_Z 72
_cell_length_a 17.225024
_cell_length_b 28.428936
_cell_length_c 9.139259
_cell_angle_alpha 90.000000
_cell_angle_beta 90.000000
_cell_angle_gamma 90.000000
_cell_volume 4475.395559
_symmetry_space_group_name_H-M "C M M M"
_symmetry_group_IT_number 65
_symmetry_cell_setting 'orthorhombic'
loop_
_space_group_symop_operation_xyz
x,y,z
-x,-y,z
x,-y,-z
-x,y,-z
-x,-y,-z
x,y,-z
-x,y,z
x,-y,z
1/2+x,1/2+y,z
1/2-x,1/2-y,z
1/2+x,1/2-y,-z
1/2-x,1/2+y,-z
1/2-x,1/2-y,-z
1/2+x,1/2+y,-z
1/2-x,1/2+y,z
1/2+x,1/2-y,z
loop_
_atom_site_type_symbol
_atom_site_label
_atom_site_fract_x
_atom_site_fract_y
_atom_site_fract_z
Si Si1 0.173217 0.216671 0.168758
Si Si2 0.660668 0.055811 0.826592
Si Si3 0.500000 0.056892 0.665802
Si Si4 0.235328 0.638261 0.674586
Si Si5 0.586782 0.203358 0.325549
O O1 0.250000 0.250000 0.172152
O O2 0.196885 0.170294 0.257891
O O3 0.107468 0.248344 0.243503
O O4 0.155859 0.206105 0.000000
O O5 0.578230 0.068537 0.752037
O O6 0.725126 0.088011 0.750590
O O7 0.673133 0.000000 0.804034
O O8 0.657259 0.064594 0.000000
O O9 0.500000 0.076488 0.500000
O O10 0.500000 0.000000 0.654911
O O11 0.242632 0.634390 0.500000
O O12 0.154763 0.666281 0.707790
O O13 0.590099 0.211488 0.500000
O O14 0.500000 0.186869 0.287819
#
# Coordination Sequence:
#
# PCOD9485150 Si02
#       5
#    16  16   8  16  16
#     4   9  17  30  46  64  88 116 147 183 225 271
#     4  10  20  32  44  61  87 117 150 190 231 266
#     4   9  17  29  43  57  77 109 147 185 223 261
#     4  10  19  30  47  66  88 120 155 188 225 269
#     4   9  18  31  46  66  91 117 148 187 226 267
#
# _framework density 16.087962999999998
#
# number of rings (size 3 to 8) (size 9 to 14) (size 15 to 20)
#    0.000    2.556    0.000    2.333    1.556    6.667 
#    0.000    0.000    0.000    0.000    0.000    0.000 
#    0.000    0.889    0.000    9.333    0.000    4.000 
#
# Total GULP energy -200747.568153 kJ/mol
# GULP energy per Si atom -5576.321338 kJ/mol
# Density = 1.605135 g / cm^3
# Si number density = 16.087963 Si / 1000 Ang^3
#
#
#
# Elastic Constant Matrix: (Units=GPa)
#
#
# Indices 1 2 3 4 5 6 
#
# 1 16.2968 6.3366 8.8240 0.0000 0.0000 0.0000
# 2 6.3366 69.5307 48.8143 0.0000 0.0000 0.0000
# 3 8.8240 48.8143 71.7277 0.0000 0.0000 0.0000
# 4 0.0000 0.0000 0.0000 27.3278 0.0000 0.0000
# 5 0.0000 0.0000 0.0000 0.0000 17.8499 0.0000
# 6 0.0000 0.0000 0.0000 0.0000 0.0000 24.6670
#
#
#
# Elastic Compliance Matrix: (Units=1/GPa)
#
#
# Indices 1 2 3 4 5 6 
#
# 1 0.065754 -0.000600 -0.007681 0.000000 0.000000 0.000000
# 2 -0.000600 0.027546 -0.018673 0.000000 0.000000 0.000000
# 3 -0.007681 -0.018673 0.027594 0.000000 0.000000 0.000000
# 4 0.000000 0.000000 0.000000 0.036593 0.000000 0.000000
# 5 0.000000 0.000000 0.000000 0.000000 0.056023 0.000000
# 6 0.000000 0.000000 0.000000 0.000000 0.000000 0.040540
#
#
# Mechanical properties :
#
#
# Convention : Reuss Voigt Hill
#
# Bulk Modulus (GPa) = 14.92820 31.72276 23.32548
# Shear Modulus (GPa) = 15.13841 20.20763 17.67302
#
# Velocity S-wave (km/s) = 3.07086 3.54795 3.31800
# Velocity P-wave (km/s) = 4.67684 6.04525 5.40453
#
# Compressibility (1/GPa) = 0.06698731
#
# Stress axis : x y z
#
# Youngs Moduli (GPa) = 15.20820 36.30285 36.23957
#
# Poissons Ratio (x) = 0.02179 0.27834
# Poissons Ratio (y) = 0.00913 0.67669
# Poissons Ratio (z) = 0.11681 0.67787
#
# Static dielectric constant tensor:
#      x y z
#    x 1.526260 0.000000 0.000000 
#    y 0.000000 1.555170 0.000000 
#    z 0.000000 0.000000 1.534570 
# 
# From -- ./inp_files/9270.got.cif
#   From: 2010.05.17/outbox.cif.g08.bks.cpg/sg65_5_cif.got.tgz:9270.got - 2010.06.03 17:01:31.
