data_PCOD9485370
_publ_section_title
;
Structure prediction by ZEFSAII (Michael W. Deem and Ramdas Pophale) SiO2 
 PCOD9485370
Probable space group: C M M M
;
_chemical_formula_sum "Si O2"
_cell_formula_units_Z 96
_cell_length_a 27.890037
_cell_length_b 8.671528
_cell_length_c 24.856537
_cell_angle_alpha 90.000000
_cell_angle_beta 90.000000
_cell_angle_gamma 90.000000
_cell_volume 6011.534502
_symmetry_space_group_name_H-M "C M M M"
_symmetry_group_IT_number 65
_symmetry_cell_setting 'orthorhombic'
loop_
_space_group_symop_operation_xyz
x,y,z
-x,-y,z
x,-y,-z
-x,y,-z
-x,-y,-z
x,y,-z
-x,y,z
x,-y,z
1/2+x,1/2+y,z
1/2-x,1/2-y,z
1/2+x,1/2-y,-z
1/2-x,1/2+y,-z
1/2-x,1/2-y,-z
1/2+x,1/2+y,-z
1/2-x,1/2+y,z
1/2+x,1/2-y,z
loop_
_atom_site_type_symbol
_atom_site_label
_atom_site_fract_x
_atom_site_fract_y
_atom_site_fract_z
Si Si1 0.600214 0.685688 0.939310
Si Si2 0.699083 0.315503 0.882539
Si Si3 0.695748 0.815078 0.558845
Si Si4 0.695840 0.683854 0.329929
Si Si5 0.150388 0.685498 0.777154
Si Si6 0.446761 0.814267 0.834238
O O1 0.595750 0.500000 0.937415
O O2 0.654893 0.723412 0.921992
O O3 0.566444 0.756492 0.893818
O O4 0.590183 0.737404 0.000000
O O5 0.701655 0.500000 0.877784
O O6 0.750000 0.250000 0.900617
O O7 0.685219 0.244265 0.824664
O O8 0.674106 0.777477 0.500000
O O9 0.750000 0.750000 0.557377
O O10 0.674748 0.743414 0.613166
O O11 0.697467 0.000000 0.563949
O O12 0.698378 0.500000 0.330243
O O13 0.750000 0.750000 0.325094
O O14 0.666161 0.744013 0.279236
O O15 0.152708 0.500000 0.774652
O O16 0.096850 0.734255 0.795499
O O17 0.500000 0.761407 0.818674
O O18 0.446446 0.000000 0.834710
#
# Coordination Sequence:
#
# PCOD9485370 Si02
#       6
#    16  16  16  16  16  16
#     4   9  19  34  49  67  91 117 145 177 214 261
#     4  10  19  31  46  64  88 117 149 182 217 258
#     4   9  16  26  40  59  86 121 159 193 223 255
#     4  11  20  29  43  64  92 124 158 190 221 258
#     4  10  19  32  48  65  88 115 146 183 222 266
#     4   9  19  35  53  71  89 111 140 178 225 271
#
# _framework density 15.9693
#
# number of rings (size 3 to 8) (size 9 to 14) (size 15 to 20)
#    0.000    2.333    0.000    4.500    0.000    3.667 
#    0.000    1.667    0.000    0.000    0.000    0.000 
#    0.000    0.667    0.000    7.667    0.000    2.167 
#
# Total GULP energy -267640.797414 kJ/mol
# GULP energy per Si atom -5575.849946 kJ/mol
# Density = 1.593295 g / cm^3
# Si number density = 15.969300 Si / 1000 Ang^3
#
#
#
# Elastic Constant Matrix: (Units=GPa)
#
#
# Indices 1 2 3 4 5 6 
#
# 1 64.5137 15.4312 21.7701 0.0000 0.0000 0.0000
# 2 15.4312 56.4736 29.5430 0.0000 0.0000 0.0000
# 3 21.7701 29.5430 118.4325 0.0000 0.0000 0.0000
# 4 0.0000 0.0000 0.0000 26.5161 0.0000 0.0000
# 5 0.0000 0.0000 0.0000 0.0000 10.1379 0.0000
# 6 0.0000 0.0000 0.0000 0.0000 0.0000 15.9323
#
#
#
# Elastic Compliance Matrix: (Units=1/GPa)
#
#
# Indices 1 2 3 4 5 6 
#
# 1 0.017101 -0.003483 -0.002275 0.000000 0.000000 0.000000
# 2 -0.003483 0.021074 -0.004617 0.000000 0.000000 0.000000
# 3 -0.002275 -0.004617 0.010013 0.000000 0.000000 0.000000
# 4 0.000000 0.000000 0.000000 0.037713 0.000000 0.000000
# 5 0.000000 0.000000 0.000000 0.000000 0.098639 0.000000
# 6 0.000000 0.000000 0.000000 0.000000 0.000000 0.062765
#
#
# Mechanical properties :
#
#
# Convention : Reuss Voigt Hill
#
# Bulk Modulus (GPa) = 36.44289 41.43426 38.93857
# Shear Modulus (GPa) = 18.03737 22.02896 20.03316
#
# Velocity S-wave (km/s) = 3.36445 3.71813 3.54571
# Velocity P-wave (km/s) = 6.16140 6.66597 6.41865
#
# Compressibility (1/GPa) = 0.02744020
#
# Stress axis : x y z
#
# Youngs Moduli (GPa) = 58.47515 47.45128 99.86602
#
# Poissons Ratio (x) = 0.16527 0.22717
# Poissons Ratio (y) = 0.20366 0.46106
# Poissons Ratio (z) = 0.13301 0.21907
#
# Static dielectric constant tensor:
#      x y z
#    x 1.529080 0.000000 0.000000 
#    y 0.000000 1.535680 0.000000 
#    z 0.000000 0.000000 1.548980 
# 
# From -- ./inp_files/68047.got.cif
#   From: 2010.05.17/outbox.cif.g08.bks.cpg/sg65_35_cif.got.tgz:68047.got - 2010.06.03 17:01:31.
