data_PCOD9485576
_publ_section_title
;
Structure prediction by ZEFSAII (Michael W. Deem and Ramdas Pophale) SiO2 
 PCOD9485576
Probable space group: C M M M
;
_chemical_formula_sum "Si O2"
_cell_formula_units_Z 80
_cell_length_a 18.803307
_cell_length_b 16.442095
_cell_length_c 14.117179
_cell_angle_alpha 90.000000
_cell_angle_beta 90.000000
_cell_angle_gamma 90.000000
_cell_volume 4364.548375
_symmetry_space_group_name_H-M "C M M M"
_symmetry_group_IT_number 65
_symmetry_cell_setting 'orthorhombic'
loop_
_space_group_symop_operation_xyz
x,y,z
-x,-y,z
x,-y,-z
-x,y,-z
-x,-y,-z
x,y,-z
-x,y,z
x,-y,z
1/2+x,1/2+y,z
1/2-x,1/2-y,z
1/2+x,1/2-y,-z
1/2-x,1/2+y,-z
1/2-x,1/2-y,-z
1/2+x,1/2+y,-z
1/2-x,1/2+y,z
1/2+x,1/2-y,z
loop_
_atom_site_type_symbol
_atom_site_label
_atom_site_fract_x
_atom_site_fract_y
_atom_site_fract_z
Si Si1 0.733389 0.901659 0.109524
Si Si2 0.576364 0.903209 0.885228
Si Si3 0.417574 0.254989 0.613859
Si Si4 0.660247 0.089095 0.386128
Si Si5 0.208977 0.164386 0.711991
O O1 0.654490 0.873332 0.144708
O O2 0.790837 0.865141 0.180107
O O3 0.734087 0.000000 0.113399
O O4 0.742626 0.878116 0.000000
O O5 0.500000 0.869273 0.851241
O O6 0.575579 0.000000 0.866424
O O7 0.577043 0.895267 0.000000
O O8 0.408442 0.262670 0.500000
O O9 0.500000 0.264980 0.636522
O O10 0.390849 0.163941 0.639942
O O11 0.366696 0.319344 0.665216
O O12 0.665021 0.089989 0.500000
O O13 0.738703 0.103923 0.344449
O O14 0.633805 0.000000 0.355838
O O15 0.250000 0.250000 0.706449
#
# Coordination Sequence:
#
# PCOD9485576 Si02
#       5
#    16  16  16  16  16
#     4   9  17  29  46  68  94 129 175 220 257 294
#     4   7  10  19  37  61  89 119 150 189 239 288
#     4   9  18  33  53  76 102 133 167 204 251 306
#     4   9  17  30  51  78 104 130 161 199 245 298
#     4  10  19  31  48  71 101 135 170 206 247 299
#
# _framework density 18.329502999999999
#
# number of rings (size 3 to 8) (size 9 to 14) (size 15 to 20)
#    0.000    3.200    0.000    3.000    0.000    3.200 
#    0.000    6.000    0.000    7.800    0.000    8.400 
#    0.000    0.000    0.000    3.000    0.000    0.200 
#
# Total GULP energy -222891.813859 kJ/mol
# GULP energy per Si atom -5572.295346 kJ/mol
# Density = 1.828778 g / cm^3
# Si number density = 18.329503 Si / 1000 Ang^3
#
#
#
# Elastic Constant Matrix: (Units=GPa)
#
#
# Indices 1 2 3 4 5 6 
#
# 1 134.7767 29.8627 57.8655 0.0000 0.0000 0.0000
# 2 29.8627 17.9448 15.1621 0.0000 0.0000 0.0000
# 3 57.8655 15.1621 71.5122 0.0000 0.0000 0.0000
# 4 0.0000 0.0000 0.0000 19.1969 0.0000 0.0000
# 5 0.0000 0.0000 0.0000 0.0000 23.6561 0.0000
# 6 0.0000 0.0000 0.0000 0.0000 0.0000 -17.1204
#
#
#
# Elastic Compliance Matrix: (Units=1/GPa)
#
#
# Indices 1 2 3 4 5 6 
#
# 1 0.014939 -0.017843 -0.008305 0.000000 0.000000 0.000000
# 2 -0.017843 0.089201 -0.004474 0.000000 0.000000 0.000000
# 3 -0.008305 -0.004474 0.021652 0.000000 0.000000 0.000000
# 4 0.000000 0.000000 0.000000 0.052092 0.000000 0.000000
# 5 0.000000 0.000000 0.000000 0.000000 0.042272 0.000000
# 6 0.000000 0.000000 0.000000 0.000000 0.000000 -0.058410
#
#
# Mechanical properties :
#
#
# Convention : Reuss Voigt Hill
#
# Bulk Modulus (GPa) = 15.49257 47.77939 31.63598
# Shear Modulus (GPa) = 20.44931 13.23607 16.84269
#
# Velocity S-wave (km/s) = 3.34376 2.69014 3.03460
# Velocity P-wave (km/s) = 4.83510 5.98103 5.43833
#
# Compressibility (1/GPa) = 0.06454706
#
# Stress axis : x y z
#
# Youngs Moduli (GPa) = 66.93898 11.21067 46.18432
#
# Poissons Ratio (x) = 0.20004 0.38356
# Poissons Ratio (y) = 1.19442 0.20663
# Poissons Ratio (z) = 0.55593 0.05016
#
# Static dielectric constant tensor:
#      x y z
#    x 1.647420 0.000000 0.000000 
#    y 0.000000 1.629980 0.000000 
#    z 0.000000 0.000000 1.671890 
# 
# From -- ./inp_files/42340.got.cif
#   From: 2010.05.17/outbox.cif.g08.bks.cpg/sg65_22_cif.got.tgz:42340.got - 2010.06.03 17:01:31.
