data_PCOD9485687
_publ_section_title
;
Structure prediction by ZEFSAII (Michael W. Deem and Ramdas Pophale) SiO2 
 PCOD9485687
Probable space group: C M M M
;
_chemical_formula_sum "Si O2"
_cell_formula_units_Z 96
_cell_length_a 27.498071
_cell_length_b 8.252471
_cell_length_c 23.890544
_cell_angle_alpha 90.000000
_cell_angle_beta 90.000000
_cell_angle_gamma 90.000000
_cell_volume 5421.410278
_symmetry_space_group_name_H-M "C M M M"
_symmetry_group_IT_number 65
_symmetry_cell_setting 'orthorhombic'
loop_
_space_group_symop_operation_xyz
x,y,z
-x,-y,z
x,-y,-z
-x,y,-z
-x,-y,-z
x,y,-z
-x,y,z
x,-y,z
1/2+x,1/2+y,z
1/2-x,1/2-y,z
1/2+x,1/2-y,-z
1/2-x,1/2+y,-z
1/2-x,1/2-y,-z
1/2+x,1/2+y,-z
1/2-x,1/2+y,z
1/2+x,1/2-y,z
loop_
_atom_site_type_symbol
_atom_site_label
_atom_site_fract_x
_atom_site_fract_y
_atom_site_fract_z
Si Si1 0.695559 0.194133 0.064816
Si Si2 0.196993 0.307307 0.436208
Si Si3 0.858134 0.193193 0.831681
Si Si4 0.379535 0.684153 0.348732
Si Si5 0.055254 0.197581 0.748715
Si Si6 0.303129 0.813074 0.267076
O O1 0.750000 0.250000 0.082258
O O2 0.653378 0.264693 0.104427
O O3 0.694026 0.000000 0.067542
O O4 0.689418 0.244903 0.000000
O O5 0.193085 0.243441 0.500000
O O6 0.199455 0.500000 0.437780
O O7 0.250000 0.250000 0.413690
O O8 0.149316 0.261481 0.400601
O O9 0.908474 0.240983 0.799984
O O10 0.817369 0.290426 0.797146
O O11 0.852397 0.000000 0.824282
O O12 0.391316 0.500000 0.363973
O O13 0.424366 0.755252 0.312203
O O14 0.338652 0.695902 0.300787
O O15 0.000000 0.250298 0.757803
O O16 0.055968 0.000000 0.745963
O O17 0.250000 0.750000 0.277041
O O18 0.309592 0.000000 0.284609
#
# Coordination Sequence:
#
# PCOD9485687 Si02
#       6
#    16  16  16  16  16  16
#     4  10  20  33  49  70  99 134 168 199 233 279
#     4  10  20  33  49  70  99 134 168 199 233 279
#     4  10  19  31  49  72  96 123 158 199 242 287
#     4  10  19  31  49  72  96 123 158 199 242 287
#     4   8  16  32  53  75  96 120 154 200 250 293
#     4  11  20  30  44  64  95 128 158 192 233 284
#
# _framework density 17.707567999999998
#
# number of rings (size 3 to 8) (size 9 to 14) (size 15 to 20)
#    0.000    2.167    0.000    5.500    0.000    2.000 
#    0.000    0.000    0.000   19.000    0.000    7.000 
#    0.000    0.000    0.000    0.000    0.000    0.000 
#
# Total GULP energy -267283.156534 kJ/mol
# GULP energy per Si atom -5568.399094 kJ/mol
# Density = 1.766727 g / cm^3
# Si number density = 17.707568 Si / 1000 Ang^3
#
#
#
# Elastic Constant Matrix: (Units=GPa)
#
#
# Indices 1 2 3 4 5 6 
#
# 1 92.7093 11.3137 49.1334 0.0000 0.0000 0.0000
# 2 11.3137 42.5917 11.1867 0.0000 0.0000 0.0000
# 3 49.1334 11.1867 95.3021 0.0000 0.0000 0.0000
# 4 0.0000 0.0000 0.0000 16.8435 0.0000 0.0000
# 5 0.0000 0.0000 0.0000 0.0000 14.0210 0.0000
# 6 0.0000 0.0000 0.0000 0.0000 0.0000 10.8915
#
#
#
# Elastic Compliance Matrix: (Units=1/GPa)
#
#
# Indices 1 2 3 4 5 6 
#
# 1 0.015008 -0.002016 -0.007501 0.000000 0.000000 0.000000
# 2 -0.002016 0.024497 -0.001836 0.000000 0.000000 0.000000
# 3 -0.007501 -0.001836 0.014575 0.000000 0.000000 0.000000
# 4 0.000000 0.000000 0.000000 0.059370 0.000000 0.000000
# 5 0.000000 0.000000 0.000000 0.000000 0.071321 0.000000
# 6 0.000000 0.000000 0.000000 0.000000 0.000000 0.091815
#
#
# Mechanical properties :
#
#
# Convention : Reuss Voigt Hill
#
# Bulk Modulus (GPa) = 31.87369 41.54119 36.70744
# Shear Modulus (GPa) = 16.14208 18.94916 17.54562
#
# Velocity S-wave (km/s) = 3.02253 3.27481 3.15120
# Velocity P-wave (km/s) = 5.49728 6.14896 5.83223
#
# Compressibility (1/GPa) = 0.03137384
#
# Stress axis : x y z
#
# Youngs Moduli (GPa) = 66.63311 40.82204 68.60889
#
# Poissons Ratio (x) = 0.08232 0.51460
# Poissons Ratio (y) = 0.13436 0.12595
# Poissons Ratio (z) = 0.49978 0.07494
#
# Static dielectric constant tensor:
#      x y z
#    x 1.630110 0.000000 0.000000 
#    y 0.000000 1.638330 0.000000 
#    z 0.000000 0.000000 1.662660 
# 
# From -- ./inp_files/68050.got.cif
#   From: 2010.05.17/outbox.cif.g08.bks.cpg/sg65_35_cif.got.tgz:68050.got - 2010.06.03 17:01:31.
