data_PCOD9485834
_publ_section_title
;
Structure prediction by ZEFSAII (Michael W. Deem and Ramdas Pophale) SiO2 
 PCOD9485834
Probable space group: C M M M
;
_chemical_formula_sum "Si O2"
_cell_formula_units_Z 80
_cell_length_a 16.335482
_cell_length_b 16.382963
_cell_length_c 15.812401
_cell_angle_alpha 90.000000
_cell_angle_beta 90.000000
_cell_angle_gamma 90.000000
_cell_volume 4231.771636
_symmetry_space_group_name_H-M "C M M M"
_symmetry_group_IT_number 65
_symmetry_cell_setting 'orthorhombic'
loop_
_space_group_symop_operation_xyz
x,y,z
-x,-y,z
x,-y,-z
-x,y,-z
-x,-y,-z
x,y,-z
-x,y,z
x,-y,z
1/2+x,1/2+y,z
1/2-x,1/2-y,z
1/2+x,1/2-y,-z
1/2-x,1/2+y,-z
1/2-x,1/2-y,-z
1/2+x,1/2+y,-z
1/2-x,1/2+y,z
1/2+x,1/2-y,z
loop_
_atom_site_type_symbol
_atom_site_label
_atom_site_fract_x
_atom_site_fract_y
_atom_site_fract_z
Si Si1 0.159637 0.088900 0.319416
Si Si2 0.810952 0.672168 0.744140
Si Si3 0.595065 0.410102 0.865072
Si Si4 0.401327 0.772091 0.095233
Si Si5 0.597502 0.748568 0.404817
O O1 0.250325 0.099504 0.280022
O O2 0.102032 0.095675 0.236640
O O3 0.139000 0.162131 0.381952
O O4 0.149126 0.000000 0.358026
O O5 0.750000 0.750000 0.747681
O O6 0.858540 0.674629 0.832443
O O7 0.871951 0.689653 0.666846
O O8 0.500000 0.411800 0.890539
O O9 0.630117 0.500000 0.888890
O O10 0.627943 0.323103 0.897348
O O11 0.500000 0.771555 0.108642
O O12 0.384768 0.800236 0.000000
O O13 0.620003 0.773578 0.500000
O O14 0.500000 0.739152 0.399931
#
# Coordination Sequence:
#
# PCOD9485834 Si02
#       5
#    16  16  16  16  16
#     4  10  20  33  50  75 105 137 169 205 255 308
#     4  10  19  33  51  74 104 137 168 214 256 306
#     4   9  16  28  46  69 102 137 165 200 249 305
#     4  10  19  31  50  74  98 133 179 218 255 300
#     4  10  20  34  55  80 104 135 172 208 252 305
#
# _framework density 18.904613000000001
#
# number of rings (size 3 to 8) (size 9 to 14) (size 15 to 20)
#    0.000    2.200    4.000    1.200    0.000    6.000 
#    0.000    3.000    0.000    3.000    0.000    2.800 
#    0.000    0.000    0.000    0.000    0.000    0.000 
#
# Total GULP energy -222881.666545 kJ/mol
# GULP energy per Si atom -5572.041664 kJ/mol
# Density = 1.886159 g / cm^3
# Si number density = 18.904613 Si / 1000 Ang^3
#
#
#
# Elastic Constant Matrix: (Units=GPa)
#
#
# Indices 1 2 3 4 5 6 
#
# 1 52.8754 6.7498 39.1446 0.0000 0.0000 0.0000
# 2 6.7498 17.3347 0.6242 0.0000 0.0000 0.0000
# 3 39.1446 0.6242 113.2014 0.0000 0.0000 0.0000
# 4 0.0000 0.0000 0.0000 11.3934 0.0000 0.0000
# 5 0.0000 0.0000 0.0000 0.0000 14.0757 0.0000
# 6 0.0000 0.0000 0.0000 0.0000 0.0000 15.3274
#
#
#
# Elastic Compliance Matrix: (Units=1/GPa)
#
#
# Indices 1 2 3 4 5 6 
#
# 1 0.027118 -0.010224 -0.009321 0.000000 0.000000 0.000000
# 2 -0.010224 0.061553 0.003196 0.000000 0.000000 0.000000
# 3 -0.009321 0.003196 0.012039 0.000000 0.000000 0.000000
# 4 0.000000 0.000000 0.000000 0.087770 0.000000 0.000000
# 5 0.000000 0.000000 0.000000 0.000000 0.071044 0.000000
# 6 0.000000 0.000000 0.000000 0.000000 0.000000 0.065243
#
#
# Mechanical properties :
#
#
# Convention : Reuss Voigt Hill
#
# Bulk Modulus (GPa) = 14.70298 30.71653 22.70975
# Shear Modulus (GPa) = 13.15316 17.28547 15.21932
#
# Velocity S-wave (km/s) = 2.64060 3.02711 2.84043
# Velocity P-wave (km/s) = 4.13417 5.33866 4.77455
#
# Compressibility (1/GPa) = 0.06801344
#
# Stress axis : x y z
#
# Youngs Moduli (GPa) = 36.87602 16.24605 83.06122
#
# Poissons Ratio (x) = 0.16609 0.77420
# Poissons Ratio (y) = 0.37700 -0.26545
# Poissons Ratio (z) = 0.34372 -0.05192
#
# Static dielectric constant tensor:
#      x y z
#    x 1.691110 0.000000 0.000000 
#    y 0.000000 1.667560 0.000000 
#    z 0.000000 0.000000 1.681370 
# 
# From -- ./inp_files/40026.got.cif
#   From: 2010.05.17/outbox.cif.g08.bks.cpg/sg65_21_cif.got.tgz:40026.got - 2010.06.03 17:01:31.
