data_PCOD9485509
_publ_section_title
;
Structure prediction by ZEFSAII (Michael W. Deem and Ramdas Pophale) SiO2 
 PCOD9485509
Probable space group: C M M M
;
_chemical_formula_sum "Si O2"
_cell_formula_units_Z 88
_cell_length_a 28.952534
_cell_length_b 13.234180
_cell_length_c 13.184078
_cell_angle_alpha 90.000000
_cell_angle_beta 90.000000
_cell_angle_gamma 90.000000
_cell_volume 5051.651491
_symmetry_space_group_name_H-M "C M M M"
_symmetry_group_IT_number 65
_symmetry_cell_setting 'orthorhombic'
loop_
_space_group_symop_operation_xyz
x,y,z
-x,-y,z
x,-y,-z
-x,y,-z
-x,-y,-z
x,y,-z
-x,y,z
x,-y,z
1/2+x,1/2+y,z
1/2-x,1/2-y,z
1/2+x,1/2-y,-z
1/2-x,1/2+y,-z
1/2-x,1/2-y,-z
1/2+x,1/2+y,-z
1/2-x,1/2+y,z
1/2+x,1/2-y,z
loop_
_atom_site_type_symbol
_atom_site_label
_atom_site_fract_x
_atom_site_fract_y
_atom_site_fract_z
Si Si1 0.323464 0.381206 0.322552
Si Si2 0.223351 0.378144 0.609419
Si Si3 0.856957 0.380428 0.230470
Si Si4 0.000000 0.116435 0.622319
Si Si5 0.195328 0.778231 0.115135
Si Si6 0.089647 0.751005 0.381405
O O1 0.328112 0.500000 0.339077
O O2 0.275326 0.344061 0.370461
O O3 0.318525 0.356566 0.203060
O O4 0.366520 0.324914 0.371040
O O5 0.205656 0.345521 0.500000
O O6 0.226731 0.500000 0.607219
O O7 0.187218 0.359164 0.697088
O O8 0.861621 0.500000 0.212549
O O9 0.840184 0.315539 0.133867
O O10 0.899043 0.335799 0.298040
O O11 0.954887 0.182369 0.648028
O O12 0.000000 0.108980 0.500000
O O13 0.000000 0.000000 0.660944
O O14 0.250000 0.750000 0.128060
O O15 0.190553 0.815298 0.000000
O O16 0.085227 0.717257 0.500000
#
# Coordination Sequence:
#
# PCOD9485509 Si02
#       6
#    16  16  16   8  16  16
#     4  10  19  31  47  72 100 131 170 207 248 300
#     4   9  16  26  42  65  96 132 165 196 236 288
#     4  10  20  34  49  71 101 136 175 212 253 301
#     4   9  18  34  53  75 104 135 167 205 253 305
#     4  10  20  33  48  69  97 132 174 215 254 299
#     4  10  20  32  51  76 103 135 170 206 247 298
#
# _framework density 17.420045999999999
#
# number of rings (size 3 to 8) (size 9 to 14) (size 15 to 20)
#    0.000    2.273    1.818    1.636    0.000    3.636 
#    0.000    5.000    0.000    1.636    0.000   10.182 
#    0.000   23.273    0.000    0.000    0.000    0.000 
#
# Total GULP energy -245245.109094 kJ/mol
# GULP energy per Si atom -5573.752479 kJ/mol
# Density = 1.738040 g / cm^3
# Si number density = 17.420046 Si / 1000 Ang^3
#
#
#
# Elastic Constant Matrix: (Units=GPa)
#
#
# Indices 1 2 3 4 5 6 
#
# 1 81.9519 13.0230 -1.3604 0.0000 0.0000 0.0000
# 2 13.0230 64.8073 -16.9425 0.0000 0.0000 0.0000
# 3 -1.3604 -16.9425 52.9108 0.0000 0.0000 0.0000
# 4 0.0000 0.0000 0.0000 16.8294 0.0000 0.0000
# 5 0.0000 0.0000 0.0000 0.0000 7.2211 0.0000
# 6 0.0000 0.0000 0.0000 0.0000 0.0000 22.1397
#
#
#
# Elastic Compliance Matrix: (Units=1/GPa)
#
#
# Indices 1 2 3 4 5 6 
#
# 1 0.012618 -0.002675 -0.000532 0.000000 0.000000 0.000000
# 2 -0.002675 0.017407 0.005505 0.000000 0.000000 0.000000
# 3 -0.000532 0.005505 0.020649 0.000000 0.000000 0.000000
# 4 0.000000 0.000000 0.000000 0.059420 0.000000 0.000000
# 5 0.000000 0.000000 0.000000 0.000000 0.138484 0.000000
# 6 0.000000 0.000000 0.000000 0.000000 0.000000 0.045168
#
#
# Mechanical properties :
#
#
# Convention : Reuss Voigt Hill
#
# Bulk Modulus (GPa) = 18.09268 21.01225 19.55246
# Shear Modulus (GPa) = 16.25633 22.90136 19.57884
#
# Velocity S-wave (km/s) = 3.05814 3.62975 3.35614
# Velocity P-wave (km/s) = 4.78313 5.44565 5.12510
#
# Compressibility (1/GPa) = 0.05527098
#
# Stress axis : x y z
#
# Youngs Moduli (GPa) = 79.24875 57.44795 48.42884
#
# Poissons Ratio (x) = 0.15366 0.02577
# Poissons Ratio (y) = 0.21197 -0.26661
# Poissons Ratio (z) = 0.04216 -0.31626
#
# Static dielectric constant tensor:
#      x y z
#    x 1.583870 0.000000 0.000000 
#    y 0.000000 1.650350 0.000000 
#    z 0.000000 0.000000 1.594550 
# 
# From -- ./inp_files/25121.got.cif
#   From: 2010.05.17/outbox.cif.g08.bks.cpg/sg65_13_cif.got.tgz:25121.got - 2010.06.03 17:01:31.
