data_PCOD9485955
_publ_section_title
;
Structure prediction by ZEFSAII (Michael W. Deem and Ramdas Pophale) SiO2 
 PCOD9485955
Probable space group: C M M M
;
_chemical_formula_sum "Si O2"
_cell_formula_units_Z 88
_cell_length_a 19.073805
_cell_length_b 13.627394
_cell_length_c 18.663741
_cell_angle_alpha 90.000000
_cell_angle_beta 90.000000
_cell_angle_gamma 90.000000
_cell_volume 4851.196318
_symmetry_space_group_name_H-M "C M M M"
_symmetry_group_IT_number 65
_symmetry_cell_setting 'orthorhombic'
loop_
_space_group_symop_operation_xyz
x,y,z
-x,-y,z
x,-y,-z
-x,y,-z
-x,-y,-z
x,y,-z
-x,y,z
x,-y,z
1/2+x,1/2+y,z
1/2-x,1/2-y,z
1/2+x,1/2-y,-z
1/2-x,1/2+y,-z
1/2-x,1/2-y,-z
1/2+x,1/2+y,-z
1/2-x,1/2+y,z
1/2+x,1/2-y,z
loop_
_atom_site_type_symbol
_atom_site_label
_atom_site_fract_x
_atom_site_fract_y
_atom_site_fract_z
Si Si1 0.790791 0.884226 0.719808
Si Si2 0.149393 0.203134 0.582668
Si Si3 0.000000 0.109736 0.413477
Si Si4 0.083755 0.616717 0.081043
Si Si5 0.419767 0.115016 0.363230
Si Si6 0.142622 0.696249 0.774915
O O1 0.797190 0.845796 0.637904
O O2 0.844480 0.811511 0.760700
O O3 0.714866 0.857910 0.752023
O O4 0.804355 0.000000 0.723998
O O5 0.164621 0.181067 0.500000
O O6 0.072928 0.160428 0.604859
O O7 0.135353 0.318535 0.593768
O O8 0.000000 0.106425 0.500000
O O9 0.000000 0.000000 0.384506
O O10 0.096382 0.500000 0.089414
O O11 0.122114 0.672808 0.144464
O O12 0.000000 0.631453 0.086957
O O13 0.104861 0.644436 0.000000
O O14 0.500000 0.128926 0.389112
O O15 0.413214 0.152655 0.281385
O O16 0.403689 0.000000 0.366515
#
# Coordination Sequence:
#
# PCOD9485955 Si02
#       6
#    16  16   8  16  16  16
#     4  10  21  36  53  75 104 140 183 221 258 312
#     4  10  20  34  51  72  97 130 176 228 274 316
#     4   9  16  28  47  67  87 117 159 214 272 310
#     4   9  17  31  57  91 117 138 170 212 256 301
#     4  10  19  31  51  77 104 136 171 213 271 331
#     4  10  20  35  55  77 108 143 173 212 258 310
#
# _framework density 18.139855000000001
#
# number of rings (size 3 to 8) (size 9 to 14) (size 15 to 20)
#    0.000    2.273    0.909    3.273    0.000    2.909 
#    0.000   10.000    0.000    8.182    0.000    1.273 
#    0.000    0.000    0.000    0.000    0.000    0.000 
#
# Total GULP energy -245481.099749 kJ/mol
# GULP energy per Si atom -5579.115903 kJ/mol
# Density = 1.809857 g / cm^3
# Si number density = 18.139855 Si / 1000 Ang^3
#
#
#
# Elastic Constant Matrix: (Units=GPa)
#
#
# Indices 1 2 3 4 5 6 
#
# 1 58.4901 33.3928 35.9361 0.0000 0.0000 0.0000
# 2 33.3928 141.4239 46.2235 0.0000 0.0000 0.0000
# 3 35.9361 46.2235 143.9591 0.0000 0.0000 0.0000
# 4 0.0000 0.0000 0.0000 17.7788 0.0000 0.0000
# 5 0.0000 0.0000 0.0000 0.0000 29.1961 0.0000
# 6 0.0000 0.0000 0.0000 0.0000 0.0000 16.6753
#
#
#
# Elastic Compliance Matrix: (Units=1/GPa)
#
#
# Indices 1 2 3 4 5 6 
#
# 1 0.021860 -0.003774 -0.004245 0.000000 0.000000 0.000000
# 2 -0.003774 0.008552 -0.001804 0.000000 0.000000 0.000000
# 3 -0.004245 -0.001804 0.008585 0.000000 0.000000 0.000000
# 4 0.000000 0.000000 0.000000 0.056247 0.000000 0.000000
# 5 0.000000 0.000000 0.000000 0.000000 0.034251 0.000000
# 6 0.000000 0.000000 0.000000 0.000000 0.000000 0.059969
#
#
# Mechanical properties :
#
#
# Convention : Reuss Voigt Hill
#
# Bulk Modulus (GPa) = 51.67681 63.88645 57.78163
# Shear Modulus (GPa) = 23.19550 27.95142 25.57346
#
# Velocity S-wave (km/s) = 3.57978 3.92967 3.75880
# Velocity P-wave (km/s) = 6.75546 7.47563 7.12465
#
# Compressibility (1/GPa) = 0.01935104
#
# Stress axis : x y z
#
# Youngs Moduli (GPa) = 45.74642 116.93734 116.47916
#
# Poissons Ratio (x) = 0.44132 0.49445
# Poissons Ratio (y) = 0.17265 0.21009
# Poissons Ratio (z) = 0.19419 0.21092
#
# Static dielectric constant tensor:
#      x y z
#    x 1.666680 0.000000 0.000000 
#    y 0.000000 1.644000 0.000000 
#    z 0.000000 0.000000 1.619140 
# 
# From -- ./inp_files/55782.got.cif
#   From: 2010.05.17/outbox.cif.g08.bks.cpg/sg65_28_cif.got.tgz:55782.got - 2010.06.03 17:01:31.
