data_PCOD9485711
_publ_section_title
;
Structure prediction by ZEFSAII (Michael W. Deem and Ramdas Pophale) SiO2 
 PCOD9485711
Probable space group: C M M M
;
_chemical_formula_sum "Si O2"
_cell_formula_units_Z 112
_cell_length_a 25.558580
_cell_length_b 26.253556
_cell_length_c 7.406449
_cell_angle_alpha 90.000000
_cell_angle_beta 90.000000
_cell_angle_gamma 90.000000
_cell_volume 4969.754026
_symmetry_space_group_name_H-M "C M M M"
_symmetry_group_IT_number 65
_symmetry_cell_setting 'orthorhombic'
loop_
_space_group_symop_operation_xyz
x,y,z
-x,-y,z
x,-y,-z
-x,y,-z
-x,-y,-z
x,y,-z
-x,y,z
x,-y,z
1/2+x,1/2+y,z
1/2-x,1/2-y,z
1/2+x,1/2-y,-z
1/2-x,1/2+y,-z
1/2-x,1/2-y,-z
1/2+x,1/2+y,-z
1/2-x,1/2+y,z
1/2+x,1/2-y,z
loop_
_atom_site_type_symbol
_atom_site_label
_atom_site_fract_x
_atom_site_fract_y
_atom_site_fract_z
Si Si1 0.944515 0.572405 0.216314
Si Si2 0.560810 0.559285 0.280221
Si Si3 0.765648 0.652381 0.288928
Si Si4 0.056365 0.306539 0.214880
Si Si5 0.336363 0.243462 0.294299
Si Si6 0.649466 0.641423 0.720363
Si Si7 0.669642 0.053303 0.218115
O O1 0.943688 0.633053 0.240407
O O2 0.889839 0.552819 0.284925
O O3 0.000000 0.554302 0.288498
O O4 0.944866 0.562669 0.000000
O O5 0.561411 0.559829 0.500000
O O6 0.500000 0.570656 0.226946
O O7 0.572205 0.500000 0.227098
O O8 0.604348 0.601317 0.220035
O O9 0.758269 0.662653 0.500000
O O10 0.792904 0.704258 0.213615
O O11 0.709668 0.631165 0.222721
O O12 0.804870 0.605692 0.273533
O O13 0.108811 0.285544 0.297331
O O14 0.000000 0.286322 0.279986
O O15 0.059092 0.297170 0.000000
O O16 0.319332 0.252949 0.500000
O O17 0.351949 0.299087 0.219354
O O18 0.645761 0.640236 0.500000
O O19 0.695774 0.000000 0.274314
O O20 0.668832 0.054286 0.000000
#
# Coordination Sequence:
#
# PCOD9485711 Si02
#       7
#    16  16  16  16  16  16  16
#     4   8  14  27  47  68  90 120 160 203 245 289
#     4   8  14  26  45  69  96 124 156 198 245 291
#     4  10  20  34  50  69  98 135 169 205 249 300
#     4   9  17  30  49  71  97 132 169 204 246 297
#     4  10  19  31  49  73 100 131 168 211 252 293
#     4   9  18  31  48  71  99 131 166 199 240 299
#     4  10  20  33  51  74  98 127 167 214 256 295
#
# _framework density 22.536327
#
# number of rings (size 3 to 8) (size 9 to 14) (size 15 to 20)
#    0.000    2.857    1.429    1.714    0.000    3.714 
#    0.000    5.000    0.000    2.143    0.000    1.000 
#    0.000    0.000    0.000    6.286    0.000    5.143 
#
# Total GULP energy -311919.598616 kJ/mol
# GULP energy per Si atom -5569.992832 kJ/mol
# Density = 2.248503 g / cm^3
# Si number density = 22.536327 Si / 1000 Ang^3
#
#
#
# Elastic Constant Matrix: (Units=GPa)
#
#
# Indices 1 2 3 4 5 6 
#
# 1 181.3114 114.8649 9.0083 0.0000 0.0000 0.0000
# 2 114.8649 170.1417 12.1054 0.0000 0.0000 0.0000
# 3 9.0083 12.1054 63.5359 0.0000 0.0000 0.0000
# 4 0.0000 0.0000 0.0000 4.6771 0.0000 0.0000
# 5 0.0000 0.0000 0.0000 0.0000 1.6555 0.0000
# 6 0.0000 0.0000 0.0000 0.0000 0.0000 17.7574
#
#
#
# Elastic Compliance Matrix: (Units=1/GPa)
#
#
# Indices 1 2 3 4 5 6 
#
# 1 0.009638 -0.006498 -0.000129 0.000000 0.000000 0.000000
# 2 -0.006498 0.010339 -0.001049 0.000000 0.000000 0.000000
# 3 -0.000129 -0.001049 0.015957 0.000000 0.000000 0.000000
# 4 0.000000 0.000000 0.000000 0.213807 0.000000 0.000000
# 5 0.000000 0.000000 0.000000 0.000000 0.604031 0.000000
# 6 0.000000 0.000000 0.000000 0.000000 0.000000 0.056314
#
#
# Mechanical properties :
#
#
# Convention : Reuss Voigt Hill
#
# Bulk Modulus (GPa) = 48.58034 76.32735 62.45385
# Shear Modulus (GPa) = 5.36309 23.41872 14.39090
#
# Velocity S-wave (km/s) = 1.54432 3.22709 2.52973
# Velocity P-wave (km/s) = 4.97827 6.91575 6.02539
#
# Compressibility (1/GPa) = 0.02058446
#
# Stress axis : x y z
#
# Youngs Moduli (GPa) = 103.75341 96.72321 62.66792
#
# Poissons Ratio (x) = 0.62848 0.00805
# Poissons Ratio (y) = 0.67416 0.06571
# Poissons Ratio (z) = 0.01334 0.10142
#
# Static dielectric constant tensor:
#      x y z
#    x 1.856580 0.000000 0.000000 
#    y 0.000000 1.830760 0.000000 
#    z 0.000000 0.000000 1.932110 
# 
# From -- ./inp_files/29368.got.cif
#   From: 2010.05.17/outbox.cif.g08.bks.cpg/sg65_15_cif.got.tgz:29368.got - 2010.06.03 17:01:31.
