data_PCOD9485246
_publ_section_title
;
Structure prediction by ZEFSAII (Michael W. Deem and Ramdas Pophale) SiO2 
 PCOD9485246
Probable space group: C M M M
;
_chemical_formula_sum "Si O2"
_cell_formula_units_Z 96
_cell_length_a 22.077144
_cell_length_b 25.311341
_cell_length_c 7.297108
_cell_angle_alpha 90.000000
_cell_angle_beta 90.000000
_cell_angle_gamma 90.000000
_cell_volume 4077.639421
_symmetry_space_group_name_H-M "C M M M"
_symmetry_group_IT_number 65
_symmetry_cell_setting 'orthorhombic'
loop_
_space_group_symop_operation_xyz
x,y,z
-x,-y,z
x,-y,-z
-x,y,-z
-x,-y,-z
x,y,-z
-x,y,z
x,-y,z
1/2+x,1/2+y,z
1/2-x,1/2-y,z
1/2+x,1/2-y,-z
1/2-x,1/2+y,-z
1/2-x,1/2-y,-z
1/2+x,1/2+y,-z
1/2-x,1/2+y,z
1/2+x,1/2-y,z
loop_
_atom_site_type_symbol
_atom_site_label
_atom_site_fract_x
_atom_site_fract_y
_atom_site_fract_z
Si Si1 0.568795 0.441393 0.777127
Si Si2 0.232652 0.441701 0.221237
Si Si3 0.817258 0.741307 0.707489
Si Si4 0.433216 0.175088 0.724049
Si Si5 0.168514 0.859446 0.222321
Si Si6 0.090454 0.442186 0.711993
O O1 0.500000 0.432592 0.719783
O O2 0.587709 0.500000 0.719717
O O3 0.613983 0.396669 0.718461
O O4 0.569527 0.441468 0.000000
O O5 0.256617 0.500000 0.277053
O O6 0.271165 0.391145 0.280467
O O7 0.163382 0.438941 0.281208
O O8 0.233678 0.441240 0.000000
O O9 0.806349 0.721361 0.500000
O O10 0.750000 0.750000 0.793050
O O11 0.871832 0.705358 0.785259
O O12 0.840130 0.801198 0.704525
O O13 0.431029 0.175872 0.500000
O O14 0.500000 0.197087 0.775289
O O15 0.431216 0.113923 0.786171
O O16 0.169526 0.856038 0.000000
O O17 0.071491 0.443234 0.500000
O O18 0.073914 0.500000 0.790834
#
# Coordination Sequence:
#
# PCOD9485246 Si02
#       6
#    16  16  16  16  16  16
#     4   8  14  26  45  69  97 127 157 192 238 290
#     4   9  17  29  46  70 101 132 158 190 238 293
#     4  10  21  36  52  69  94 131 168 199 238 290
#     4   9  18  33  52  73  98 128 161 197 239 289
#     4  10  19  30  48  73  96 121 160 206 243 278
#     4   9  17  30  51  77  99 120 152 195 238 280
#
# _framework density 23.543035
#
# number of rings (size 3 to 8) (size 9 to 14) (size 15 to 20)
#    0.000    2.833    0.000    2.000    0.000    5.333 
#    0.000    2.500    0.000    3.000    0.000    3.500 
#    0.000    0.000    0.000    0.000    0.000    0.000 
#
# Total GULP energy -267932.456406 kJ/mol
# GULP energy per Si atom -5581.926175 kJ/mol
# Density = 2.348945 g / cm^3
# Si number density = 23.543035 Si / 1000 Ang^3
#
#
#
# Elastic Constant Matrix: (Units=GPa)
#
#
# Indices 1 2 3 4 5 6 
#
# 1 157.9774 86.8837 2.5206 0.0000 0.0000 0.0000
# 2 86.8837 151.0650 3.9390 0.0000 0.0000 0.0000
# 3 2.5206 3.9390 100.2409 0.0000 0.0000 0.0000
# 4 0.0000 0.0000 0.0000 11.0217 0.0000 0.0000
# 5 0.0000 0.0000 0.0000 0.0000 -6.2292 0.0000
# 6 0.0000 0.0000 0.0000 0.0000 0.0000 40.6760
#
#
#
# Elastic Compliance Matrix: (Units=1/GPa)
#
#
# Indices 1 2 3 4 5 6 
#
# 1 0.009259 -0.005324 -0.000024 0.000000 0.000000 0.000000
# 2 -0.005324 0.009688 -0.000247 0.000000 0.000000 0.000000
# 3 -0.000024 -0.000247 0.009986 0.000000 0.000000 0.000000
# 4 0.000000 0.000000 0.000000 0.090730 0.000000 0.000000
# 5 0.000000 0.000000 0.000000 0.000000 -0.160533 0.000000
# 6 0.000000 0.000000 0.000000 0.000000 0.000000 0.024585
#
#
# Mechanical properties :
#
#
# Convention : Reuss Voigt Hill
#
# Bulk Modulus (GPa) = 56.35817 66.21888 61.28853
# Shear Modulus (GPa) = 6108.31058 30.15636 3069.23347
#
# Velocity S-wave (km/s) = 50.99179 3.58285 36.14553
# Velocity P-wave (km/s) = 59.08361 6.73079 42.04864
#
# Compressibility (1/GPa) = 0.01774366
#
# Stress axis : x y z
#
# Youngs Moduli (GPa) = 108.00628 103.21602 100.13762
#
# Poissons Ratio (x) = 0.54957 0.00236
# Poissons Ratio (y) = 0.57507 0.02472
# Poissons Ratio (z) = 0.00255 0.02548
#
# Static dielectric constant tensor:
#      x y z
#    x 1.884930 0.000000 0.000000 
#    y 0.000000 1.862380 0.000000 
#    z 0.000000 0.000000 1.919950 
# 
# From -- ./inp_files/29017.got.cif
#   From: 2010.05.17/outbox.cif.g08.bks.cpg/sg65_15_cif.got.tgz:29017.got - 2010.06.03 17:01:31.
