data_PCOD9485381
_publ_section_title
;
Structure prediction by ZEFSAII (Michael W. Deem and Ramdas Pophale) SiO2 
 PCOD9485381
Probable space group: C M M M
;
_chemical_formula_sum "Si O2"
_cell_formula_units_Z 104
_cell_length_a 28.290893
_cell_length_b 8.685516
_cell_length_c 27.409003
_cell_angle_alpha 90.000000
_cell_angle_beta 90.000000
_cell_angle_gamma 90.000000
_cell_volume 6734.967730
_symmetry_space_group_name_H-M "C M M M"
_symmetry_group_IT_number 65
_symmetry_cell_setting 'orthorhombic'
loop_
_space_group_symop_operation_xyz
x,y,z
-x,-y,z
x,-y,-z
-x,y,-z
-x,-y,-z
x,y,-z
-x,y,z
x,-y,z
1/2+x,1/2+y,z
1/2-x,1/2-y,z
1/2+x,1/2-y,-z
1/2-x,1/2+y,-z
1/2-x,1/2-y,-z
1/2+x,1/2+y,-z
1/2-x,1/2+y,z
1/2+x,1/2-y,z
loop_
_atom_site_type_symbol
_atom_site_label
_atom_site_fract_x
_atom_site_fract_y
_atom_site_fract_z
Si Si1 0.803312 0.186473 0.893214
Si Si2 0.054771 0.814393 0.444148
Si Si3 0.390419 0.815850 0.646733
Si Si4 0.696861 0.685450 0.000000
Si Si5 0.357942 0.314372 0.797117
Si Si6 0.802116 0.184242 0.699467
Si Si7 0.053914 0.685674 0.255656
O O1 0.750000 0.250000 0.887959
O O2 0.835778 0.237610 0.848292
O O3 0.800644 0.000000 0.891621
O O4 0.822744 0.232363 0.946964
O O5 0.066225 0.770260 0.500000
O O6 0.088394 0.742273 0.403860
O O7 0.000000 0.770172 0.434847
O O8 0.057267 0.000000 0.441259
O O9 0.339593 0.746380 0.660230
O O10 0.425446 0.768789 0.691225
O O11 0.387404 0.000000 0.646748
O O12 0.750000 0.750000 0.000000
O O13 0.698155 0.500000 0.000000
O O14 0.360629 0.500000 0.797418
O O15 0.323219 0.269109 0.752492
O O16 0.409231 0.249044 0.783826
O O17 0.750000 0.250000 0.692900
O O18 0.800846 0.000000 0.697653
O O19 0.054398 0.500000 0.253727
O O20 0.000000 0.738439 0.249572
#
# Coordination Sequence:
#
# PCOD9485381 Si02
#       7
#    16  16  16   8  16  16  16
#     4   9  16  26  40  60  86 114 144 176 212 254
#     4   9  18  32  49  70  96 123 149 179 217 259
#     4  10  19  31  48  69  92 118 148 181 217 259
#     4   8  14  24  38  56  81 112 141 173 212 253
#     4   9  18  29  42  63  88 114 145 179 215 257
#     4  10  19  31  46  65  90 119 150 182 217 257
#     4   9  18  31  45  63  88 115 143 177 217 259
#
# _framework density 15.441796999999999
#
# number of rings (size 3 to 8) (size 9 to 14) (size 15 to 20)
#    0.000    2.769    0.000    2.308    0.000    3.385 
#    0.000    0.769    0.000    0.462    0.000    0.538 
#    0.000    4.308    0.000    0.000    0.000    0.000 
#
# Total GULP energy -289736.795438 kJ/mol
# GULP energy per Si atom -5571.861451 kJ/mol
# Density = 1.540665 g / cm^3
# Si number density = 15.441797 Si / 1000 Ang^3
#
#
#
# Elastic Constant Matrix: (Units=GPa)
#
#
# Indices 1 2 3 4 5 6 
#
# 1 134.7748 30.4896 83.6827 0.0000 0.0000 0.0000
# 2 30.4896 17.3919 30.3452 0.0000 0.0000 0.0000
# 3 83.6827 30.3452 137.4172 0.0000 0.0000 0.0000
# 4 0.0000 0.0000 0.0000 16.5930 0.0000 0.0000
# 5 0.0000 0.0000 0.0000 0.0000 25.0173 0.0000
# 6 0.0000 0.0000 0.0000 0.0000 0.0000 25.1724
#
#
#
# Elastic Compliance Matrix: (Units=1/GPa)
#
#
# Indices 1 2 3 4 5 6 
#
# 1 0.014220 -0.015975 -0.005132 0.000000 0.000000 0.000000
# 2 -0.015975 0.111484 -0.014890 0.000000 0.000000 0.000000
# 3 -0.005132 -0.014890 0.013690 0.000000 0.000000 0.000000
# 4 0.000000 0.000000 0.000000 0.060266 0.000000 0.000000
# 5 0.000000 0.000000 0.000000 0.000000 0.039972 0.000000
# 6 0.000000 0.000000 0.000000 0.000000 0.000000 0.039726
#
#
# Mechanical properties :
#
#
# Convention : Reuss Voigt Hill
#
# Bulk Modulus (GPa) = 14.83679 64.29101 39.56390
# Shear Modulus (GPa) = 13.37540 23.02763 18.20151
#
# Velocity S-wave (km/s) = 2.94629 3.86586 3.43697
# Velocity P-wave (km/s) = 4.60469 7.85184 6.43640
#
# Compressibility (1/GPa) = 0.06740004
#
# Stress axis : x y z
#
# Youngs Moduli (GPa) = 70.32217 8.96991 73.04381
#
# Poissons Ratio (x) = 0.14330 0.37486
# Poissons Ratio (y) = 1.12341 1.08763
# Poissons Ratio (z) = 0.36089 0.13356
#
# Static dielectric constant tensor:
#      x y z
#    x 1.482200 0.000000 0.000000 
#    y 0.000000 1.518500 0.000000 
#    z 0.000000 0.000000 1.529210 
# 
# From -- ./inp_files/75989.got.cif
#   From: 2010.05.17/outbox.cif.g08.bks.cpg/sg65_38_cif.got.tgz:75989.got - 2010.06.03 17:01:31.
