data_PCOD9485964
_publ_section_title
;
Structure prediction by ZEFSAII (Michael W. Deem and Ramdas Pophale) SiO2 
 PCOD9485964
Probable space group: C M M M
;
_chemical_formula_sum "Si O2"
_cell_formula_units_Z 80
_cell_length_a 18.602013
_cell_length_b 15.156339
_cell_length_c 17.423169
_cell_angle_alpha 90.000000
_cell_angle_beta 90.000000
_cell_angle_gamma 90.000000
_cell_volume 4912.260654
_symmetry_space_group_name_H-M "C M M M"
_symmetry_group_IT_number 65
_symmetry_cell_setting 'orthorhombic'
loop_
_space_group_symop_operation_xyz
x,y,z
-x,-y,z
x,-y,-z
-x,y,-z
-x,-y,-z
x,y,-z
-x,y,z
x,-y,z
1/2+x,1/2+y,z
1/2-x,1/2-y,z
1/2+x,1/2-y,-z
1/2-x,1/2+y,-z
1/2-x,1/2-y,-z
1/2+x,1/2+y,-z
1/2-x,1/2+y,z
1/2+x,1/2-y,z
loop_
_atom_site_type_symbol
_atom_site_label
_atom_site_fract_x
_atom_site_fract_y
_atom_site_fract_z
Si Si1 0.796116 0.600502 0.831722
Si Si2 0.079234 0.819979 0.000000
Si Si3 0.238059 0.855933 0.000000
Si Si4 0.082952 0.106800 0.585764
Si Si5 0.853161 0.104448 0.745054
Si Si6 0.920252 0.260710 0.165905
O O1 0.819757 0.500000 0.818926
O O2 0.726462 0.617852 0.778856
O O3 0.858302 0.670186 0.814970
O O4 0.771770 0.609912 0.920789
O O5 0.152489 0.875919 0.000000
O O6 0.082814 0.759616 0.924640
O O7 0.000000 0.864365 0.000000
O O8 0.250000 0.750000 0.000000
O O9 0.102777 0.137913 0.500000
O O10 0.134483 0.130031 0.656229
O O11 0.000000 0.133813 0.601502
O O12 0.082462 0.000000 0.583056
O O13 0.904577 0.167486 0.793738
O O14 0.870076 0.000000 0.753664
O O15 0.000000 0.292340 0.185790
#
# Coordination Sequence:
#
# PCOD9485964 Si02
#       6
#    16   8   8  16  16  16
#     4  11  22  34  51  73  97 134 176 209 246 292
#     4  10  20  32  50  72  96 129 164 202 251 295
#     4  12  17  34  55  68  96 128 162 207 252 300
#     4   8  14  26  45  71 104 135 158 188 239 303
#     4  10  19  31  51  78 103 128 162 200 246 307
#     4  11  21  35  52  70  99 134 168 213 254 288
#
# _framework density 16.285781
#
# number of rings (size 3 to 8) (size 9 to 14) (size 15 to 20)
#    0.000    1.800    4.000    2.100    0.000    1.600 
#    0.000    0.500    0.000    8.400    0.000    0.000 
#    0.000    0.000    0.000   12.000    0.000    0.200 
#
# Total GULP energy -222954.280437 kJ/mol
# GULP energy per Si atom -5573.857011 kJ/mol
# Density = 1.624871 g / cm^3
# Si number density = 16.285781 Si / 1000 Ang^3
#
#
#
# Elastic Constant Matrix: (Units=GPa)
#
#
# Indices 1 2 3 4 5 6 
#
# 1 95.6698 34.0101 47.4786 0.0000 0.0000 0.0000
# 2 34.0101 45.4773 30.4040 0.0000 0.0000 0.0000
# 3 47.4786 30.4040 118.2612 0.0000 0.0000 0.0000
# 4 0.0000 0.0000 0.0000 -3.3642 0.0000 0.0000
# 5 0.0000 0.0000 0.0000 0.0000 12.7777 0.0000
# 6 0.0000 0.0000 0.0000 0.0000 0.0000 16.9675
#
#
#
# Elastic Compliance Matrix: (Units=1/GPa)
#
#
# Indices 1 2 3 4 5 6 
#
# 1 0.015629 -0.009048 -0.003948 0.000000 0.000000 0.000000
# 2 -0.009048 0.031791 -0.004541 0.000000 0.000000 0.000000
# 3 -0.003948 -0.004541 0.011208 0.000000 0.000000 0.000000
# 4 0.000000 0.000000 0.000000 -0.297244 0.000000 0.000000
# 5 0.000000 0.000000 0.000000 0.000000 0.078261 0.000000
# 6 0.000000 0.000000 0.000000 0.000000 0.000000 0.058936
#
#
# Mechanical properties :
#
#
# Convention : Reuss Voigt Hill
#
# Bulk Modulus (GPa) = 42.45558 53.68821 48.07189
# Shear Modulus (GPa) = -85.48146 15.11055 -35.18546
#
# Velocity S-wave (km/s) = -7.25275 3.04935 -4.65316
# Velocity P-wave (km/s) = 6.63406 6.74062 0.84413
#
# Compressibility (1/GPa) = 0.02355403
#
# Stress axis : x y z
#
# Youngs Moduli (GPa) = 63.98509 31.45501 89.21923
#
# Poissons Ratio (x) = 0.28461 0.35226
# Poissons Ratio (y) = 0.57895 0.40512
# Poissons Ratio (z) = 0.25263 0.14283
#
# Static dielectric constant tensor:
#      x y z
#    x 1.567490 0.000000 0.000000 
#    y 0.000000 1.536130 0.000000 
#    z 0.000000 0.000000 1.559590 
# 
# From -- ./inp_files/54213.got.cif
#   From: 2010.05.17/outbox.cif.g08.bks.cpg/sg65_28_cif.got.tgz:54213.got - 2010.06.03 17:01:31.
