data_PCOD9485185
_publ_section_title
;
Structure prediction by ZEFSAII (Michael W. Deem and Ramdas Pophale) SiO2 
 PCOD9485185
Probable space group: C M M M
;
_chemical_formula_sum "Si O2"
_cell_formula_units_Z 104
_cell_length_a 27.782196
_cell_length_b 24.291087
_cell_length_c 8.287538
_cell_angle_alpha 90.000000
_cell_angle_beta 90.000000
_cell_angle_gamma 90.000000
_cell_volume 5592.925741
_symmetry_space_group_name_H-M "C M M M"
_symmetry_group_IT_number 65
_symmetry_cell_setting 'orthorhombic'
loop_
_space_group_symop_operation_xyz
x,y,z
-x,-y,z
x,-y,-z
-x,y,-z
-x,-y,-z
x,y,-z
-x,y,z
x,-y,z
1/2+x,1/2+y,z
1/2-x,1/2-y,z
1/2+x,1/2-y,-z
1/2-x,1/2+y,-z
1/2-x,1/2-y,-z
1/2+x,1/2+y,-z
1/2-x,1/2+y,z
1/2+x,1/2-y,z
loop_
_atom_site_type_symbol
_atom_site_label
_atom_site_fract_x
_atom_site_fract_y
_atom_site_fract_z
Si Si1 0.793642 0.791648 0.821829
Si Si2 0.146485 0.693085 0.307293
Si Si3 0.589116 0.634632 0.807376
Si Si4 0.500000 0.437514 0.693266
Si Si5 0.555820 0.756373 0.195181
Si Si6 0.677324 0.561454 0.695826
Si Si7 0.231938 0.617255 0.683949
O O1 0.750000 0.750000 0.843516
O O2 0.834869 0.751220 0.762952
O O3 0.771261 0.833435 0.693921
O O4 0.804136 0.815917 0.000000
O O5 0.151910 0.693897 0.500000
O O6 0.090696 0.695396 0.259584
O O7 0.182719 0.644314 0.246593
O O8 0.547111 0.594149 0.751173
O O9 0.574530 0.695923 0.748731
O O10 0.639595 0.608095 0.751319
O O11 0.589180 0.636849 0.000000
O O12 0.500000 0.500000 0.753347
O O13 0.500000 0.438266 0.500000
O O14 0.500000 0.762473 0.242071
O O15 0.558344 0.756864 0.000000
O O16 0.678565 0.563212 0.500000
O O17 0.660894 0.500000 0.743843
O O18 0.732680 0.570782 0.755429
O O19 0.220839 0.601816 0.500000
#
# Coordination Sequence:
#
# PCOD9485185 Si02
#       7
#    16  16  16   8  16  16  16
#     4   9  16  26  42  65  91 120 153 187 226 276
#     4  10  19  30  47  71  96 123 156 193 238 288
#     4  11  22  37  53  71  95 126 164 208 253 290
#     4  11  23  37  53  71  91 121 167 217 258 297
#     4  10  21  37  52  70  98 129 162 199 241 292
#     4  10  21  36  52  71  97 130 166 203 245 291
#     4   9  18  32  48  68  95 124 156 196 238 286
#
# _framework density 18.594919000000001
#
# number of rings (size 3 to 8) (size 9 to 14) (size 15 to 20)
#    0.000    2.077    0.769    3.000    0.000    9.846 
#    0.000    0.000    0.000    0.000    0.000    0.000 
#    0.000    0.615    0.000    7.692    0.000    1.231 
#
# Total GULP energy -289519.788097 kJ/mol
# GULP energy per Si atom -5567.688233 kJ/mol
# Density = 1.855260 g / cm^3
# Si number density = 18.594919 Si / 1000 Ang^3
#
#
#
# Elastic Constant Matrix: (Units=GPa)
#
#
# Indices 1 2 3 4 5 6 
#
# 1 156.5254 41.4625 13.1351 0.0000 0.0000 0.0000
# 2 41.4625 23.4619 0.2034 0.0000 0.0000 0.0000
# 3 13.1351 0.2034 24.6964 0.0000 0.0000 0.0000
# 4 0.0000 0.0000 0.0000 3.5458 0.0000 0.0000
# 5 0.0000 0.0000 0.0000 0.0000 58.7864 0.0000
# 6 0.0000 0.0000 0.0000 0.0000 0.0000 34.0193
#
#
#
# Elastic Compliance Matrix: (Units=1/GPa)
#
#
# Indices 1 2 3 4 5 6 
#
# 1 0.013048 -0.022999 -0.006750 0.000000 0.000000 0.000000
# 2 -0.022999 0.083167 0.011548 0.000000 0.000000 0.000000
# 3 -0.006750 0.011548 0.043987 0.000000 0.000000 0.000000
# 4 0.000000 0.000000 0.000000 0.282020 0.000000 0.000000
# 5 0.000000 0.000000 0.000000 0.000000 0.017011 0.000000
# 6 0.000000 0.000000 0.000000 0.000000 0.000000 0.029395
#
#
# Mechanical properties :
#
#
# Convention : Reuss Voigt Hill
#
# Bulk Modulus (GPa) = 9.63414 34.92064 22.27739
# Shear Modulus (GPa) = 9.26559 29.26251 19.26405
#
# Velocity S-wave (km/s) = 2.23465 3.97127 3.22216
# Velocity P-wave (km/s) = 3.44246 6.31256 5.08424
#
# Compressibility (1/GPa) = 0.10379755
#
# Stress axis : x y z
#
# Youngs Moduli (GPa) = 76.64253 12.02395 22.73415
#
# Poissons Ratio (x) = 0.27654 0.15346
# Poissons Ratio (y) = 1.76274 -0.26252
# Poissons Ratio (z) = 0.51734 -0.13885
#
# Static dielectric constant tensor:
#      x y z
#    x 1.702440 0.000000 0.000000 
#    y 0.000000 1.674520 0.000000 
#    z 0.000000 0.000000 1.676260 
# 
# From -- ./inp_files/16729.got.cif
#   From: 2010.05.17/outbox.cif.g08.bks.cpg/sg65_9_cif.got.tgz:16729.got - 2010.06.03 17:01:31.
