data_PCOD9485069
_publ_section_title
;
Structure prediction by ZEFSAII (Michael W. Deem and Ramdas Pophale) SiO2 
 PCOD9485069
Probable space group: C M M M
;
_chemical_formula_sum "Si O2"
_cell_formula_units_Z 80
_cell_length_a 13.419745
_cell_length_b 14.537761
_cell_length_c 18.719596
_cell_angle_alpha 90.000000
_cell_angle_beta 90.000000
_cell_angle_gamma 90.000000
_cell_volume 3652.062994
_symmetry_space_group_name_H-M "C M M M"
_symmetry_group_IT_number 65
_symmetry_cell_setting 'orthorhombic'
loop_
_space_group_symop_operation_xyz
x,y,z
-x,-y,z
x,-y,-z
-x,y,-z
-x,-y,-z
x,y,-z
-x,y,z
x,-y,z
1/2+x,1/2+y,z
1/2-x,1/2-y,z
1/2+x,1/2-y,-z
1/2-x,1/2+y,-z
1/2-x,1/2-y,-z
1/2+x,1/2+y,-z
1/2-x,1/2+y,z
1/2+x,1/2-y,z
loop_
_atom_site_type_symbol
_atom_site_label
_atom_site_fract_x
_atom_site_fract_y
_atom_site_fract_z
Si Si1 0.104337 0.396696 0.734711
Si Si2 0.619406 0.607582 0.923541
Si Si3 0.113267 0.840880 0.612397
Si Si4 0.177944 0.886410 0.767317
Si Si5 0.164399 0.629925 0.421474
O O1 0.103245 0.500000 0.765219
O O2 0.208103 0.354921 0.757398
O O3 0.112683 0.406198 0.649345
O O4 0.000000 0.350150 0.753209
O O5 0.500000 0.608594 0.925491
O O6 0.650916 0.500000 0.922890
O O7 0.647209 0.644733 0.845998
O O8 0.655003 0.647574 0.000000
O O9 0.119116 0.849179 0.698561
O O10 0.136161 0.737926 0.585598
O O11 0.216201 0.889114 0.586584
O O12 0.000000 0.868233 0.590751
O O13 0.171334 0.000000 0.762985
O O14 0.132871 0.600294 0.500000
#
# Coordination Sequence:
#
# PCOD9485069 Si02
#       5
#    16  16  16  16  16
#     4   9  18  32  49  67  86 113 149 187 229 271
#     4   8  13  22  39  64  92 120 147 176 214 257
#     4  10  19  30  46  66  88 118 150 178 218 268
#     4   9  17  29  45  67  95 121 148 184 219 258
#     4  10  21  34  47  66  89 112 146 191 230 267
#
# _framework density 21.905428000000001
#
# number of rings (size 3 to 8) (size 9 to 14) (size 15 to 20)
#    0.000    2.800    0.000    3.000    0.000    4.400 
#    0.000    1.000    0.000    2.400    0.000   25.200 
#    0.000    9.600    0.000    0.200    0.000    0.000 
#
# Total GULP energy -222754.129670 kJ/mol
# GULP energy per Si atom -5568.853242 kJ/mol
# Density = 2.185557 g / cm^3
# Si number density = 21.905428 Si / 1000 Ang^3
#
#
#
# Elastic Constant Matrix: (Units=GPa)
#
#
# Indices 1 2 3 4 5 6 
#
# 1 127.8018 -1.3259 19.5251 0.0000 0.0000 0.0000
# 2 -1.3259 50.4893 6.8121 0.0000 0.0000 0.0000
# 3 19.5251 6.8121 176.2211 0.0000 0.0000 0.0000
# 4 0.0000 0.0000 0.0000 17.2756 0.0000 0.0000
# 5 0.0000 0.0000 0.0000 0.0000 -17.8467 0.0000
# 6 0.0000 0.0000 0.0000 0.0000 0.0000 6.5896
#
#
#
# Elastic Compliance Matrix: (Units=1/GPa)
#
#
# Indices 1 2 3 4 5 6 
#
# 1 0.007965 0.000330 -0.000895 0.000000 0.000000 0.000000
# 2 0.000330 0.019924 -0.000807 0.000000 0.000000 0.000000
# 3 -0.000895 -0.000807 0.005805 0.000000 0.000000 0.000000
# 4 0.000000 0.000000 0.000000 0.057885 0.000000 0.000000
# 5 0.000000 0.000000 0.000000 0.000000 -0.056033 0.000000
# 6 0.000000 0.000000 0.000000 0.000000 0.000000 0.151753
#
#
# Mechanical properties :
#
#
# Convention : Reuss Voigt Hill
#
# Bulk Modulus (GPa) = 32.31067 44.94828 38.62947
# Shear Modulus (GPa) = 24.95510 23.17044 24.06277
#
# Velocity S-wave (km/s) = 3.37889 3.25583 3.31793
# Velocity P-wave (km/s) = 5.47765 5.89048 5.68781
#
# Compressibility (1/GPa) = 0.03094953
#
# Stress axis : x y z
#
# Youngs Moduli (GPa) = 125.55223 50.19148 172.26331
#
# Poissons Ratio (x) = -0.01656 0.15422
# Poissons Ratio (y) = -0.04143 0.13897
# Poissons Ratio (z) = 0.11240 0.04049
#
# Static dielectric constant tensor:
#      x y z
#    x 1.829260 0.000000 0.000000 
#    y 0.000000 1.920240 0.000000 
#    z 0.000000 0.000000 1.802330 
# 
# From -- ./inp_files/52885.got.cif
#   From: 2010.05.17/outbox.cif.g08.bks.cpg/sg65_27_cif.got.tgz:52885.got - 2010.06.03 17:01:31.
