data_PCOD9485676
_publ_section_title
;
Structure prediction by ZEFSAII (Michael W. Deem and Ramdas Pophale) SiO2 
 PCOD9485676
Probable space group: C M M M
;
_chemical_formula_sum "Si O2"
_cell_formula_units_Z 104
_cell_length_a 18.368439
_cell_length_b 15.858639
_cell_length_c 21.759649
_cell_angle_alpha 90.000000
_cell_angle_beta 90.000000
_cell_angle_gamma 90.000000
_cell_volume 6338.551876
_symmetry_space_group_name_H-M "C M M M"
_symmetry_group_IT_number 65
_symmetry_cell_setting 'orthorhombic'
loop_
_space_group_symop_operation_xyz
x,y,z
-x,-y,z
x,-y,-z
-x,y,-z
-x,-y,-z
x,y,-z
-x,y,z
x,-y,z
1/2+x,1/2+y,z
1/2-x,1/2-y,z
1/2+x,1/2-y,-z
1/2-x,1/2+y,-z
1/2-x,1/2-y,-z
1/2+x,1/2+y,-z
1/2-x,1/2+y,z
1/2+x,1/2-y,z
loop_
_atom_site_type_symbol
_atom_site_label
_atom_site_fract_x
_atom_site_fract_y
_atom_site_fract_z
Si Si1 0.415665 0.101465 0.500000
Si Si2 0.694072 0.401403 0.695378
Si Si3 0.191231 0.093481 0.162565
Si Si4 0.415194 0.254100 0.852033
Si Si5 0.584589 0.751917 0.707515
Si Si6 0.199939 0.334922 0.930012
Si Si7 0.347069 0.099914 0.369288
O O1 0.500000 0.133481 0.500000
O O2 0.370386 0.122622 0.438756
O O3 0.421291 0.000000 0.500000
O O4 0.669833 0.500000 0.688629
O O5 0.717340 0.390892 0.767252
O O6 0.633561 0.328689 0.687836
O O7 0.762618 0.388737 0.650267
O O8 0.128708 0.158518 0.144273
O O9 0.256810 0.103615 0.115101
O O10 0.160825 0.000000 0.160982
O O11 0.500000 0.262997 0.865535
O O12 0.406191 0.230826 0.780282
O O13 0.375325 0.190493 0.897905
O O14 0.500000 0.732457 0.696586
O O15 0.608062 0.836156 0.672741
O O16 0.250000 0.250000 0.930827
O O17 0.192202 0.364037 0.000000
O O18 0.363540 0.000000 0.359706
#
# Coordination Sequence:
#
# PCOD9485676 Si02
#       7
#     8  16  16  16  16  16  16
#     4   9  18  32  49  72 102 130 159 201 250 294
#     4   9  18  32  50  72  98 128 162 200 241 287
#     4   9  17  30  49  71  93 119 154 197 240 280
#     4   9  18  31  47  69  95 123 156 193 235 283
#     4  10  19  31  49  72 100 131 161 198 241 288
#     4   9  17  29  45  64  88 120 154 187 227 278
#     4  10  19  32  52  75  98 126 160 200 245 288
#
# _framework density 16.407533000000001
#
# number of rings (size 3 to 8) (size 9 to 14) (size 15 to 20)
#    0.000    2.692    0.000    1.846    0.000    4.615 
#    0.000    4.615    0.000    1.385    0.000    5.385 
#    0.000    4.923    0.000    0.000    0.000    0.000 
#
# Total GULP energy -289514.425291 kJ/mol
# GULP energy per Si atom -5567.585102 kJ/mol
# Density = 1.637019 g / cm^3
# Si number density = 16.407533 Si / 1000 Ang^3
#
#
#
# Elastic Constant Matrix: (Units=GPa)
#
#
# Indices 1 2 3 4 5 6 
#
# 1 109.9244 42.2161 81.6817 0.0000 0.0000 0.0000
# 2 42.2161 56.0293 54.6224 0.0000 0.0000 0.0000
# 3 81.6817 54.6224 88.6948 0.0000 0.0000 0.0000
# 4 0.0000 0.0000 0.0000 16.9709 0.0000 0.0000
# 5 0.0000 0.0000 0.0000 0.0000 12.4094 0.0000
# 6 0.0000 0.0000 0.0000 0.0000 0.0000 17.0494
#
#
#
# Elastic Compliance Matrix: (Units=1/GPa)
#
#
# Indices 1 2 3 4 5 6 
#
# 1 0.031466 0.011366 -0.035978 0.000000 0.000000 0.000000
# 2 0.011366 0.048768 -0.040500 0.000000 0.000000 0.000000
# 3 -0.035978 -0.040500 0.069350 0.000000 0.000000 0.000000
# 4 0.000000 0.000000 0.000000 0.058924 0.000000 0.000000
# 5 0.000000 0.000000 0.000000 0.000000 0.080584 0.000000
# 6 0.000000 0.000000 0.000000 0.000000 0.000000 0.058653
#
#
# Mechanical properties :
#
#
# Convention : Reuss Voigt Hill
#
# Bulk Modulus (GPa) = 51.65663 67.96544 59.81104
# Shear Modulus (GPa) = 10.32154 14.36114 12.34134
#
# Velocity S-wave (km/s) = 2.51085 2.96172 2.74556
# Velocity P-wave (km/s) = 6.32121 7.29445 6.82520
#
# Compressibility (1/GPa) = 0.01935860
#
# Stress axis : x y z
#
# Youngs Moduli (GPa) = 31.77995 20.50541 14.41964
#
# Poissons Ratio (x) = -0.23306 0.51879
# Poissons Ratio (y) = -0.36120 0.58400
# Poissons Ratio (z) = 1.14338 0.83048
#
# Static dielectric constant tensor:
#      x y z
#    x 1.539970 0.000000 0.000000 
#    y 0.000000 1.542990 0.000000 
#    z 0.000000 0.000000 1.558670 
# 
# From -- ./inp_files/62816.got.cif
#   From: 2010.05.17/outbox.cif.g08.bks.cpg/sg65_32_cif.got.tgz:62816.got - 2010.06.03 17:01:31.
