data_PCOD9485131
_publ_section_title
;
Structure prediction by ZEFSAII (Michael W. Deem and Ramdas Pophale) SiO2 
 PCOD9485131
Probable space group: C M M M
;
_chemical_formula_sum "Si O2"
_cell_formula_units_Z 88
_cell_length_a 14.627357
_cell_length_b 18.982077
_cell_length_c 20.164250
_cell_angle_alpha 90.000000
_cell_angle_beta 90.000000
_cell_angle_gamma 90.000000
_cell_volume 5598.757601
_symmetry_space_group_name_H-M "C M M M"
_symmetry_group_IT_number 65
_symmetry_cell_setting 'orthorhombic'
loop_
_space_group_symop_operation_xyz
x,y,z
-x,-y,z
x,-y,-z
-x,y,-z
-x,-y,-z
x,y,-z
-x,y,z
x,-y,z
1/2+x,1/2+y,z
1/2-x,1/2-y,z
1/2+x,1/2-y,-z
1/2-x,1/2+y,-z
1/2-x,1/2-y,-z
1/2+x,1/2+y,-z
1/2-x,1/2+y,z
1/2+x,1/2-y,z
loop_
_atom_site_type_symbol
_atom_site_label
_atom_site_fract_x
_atom_site_fract_y
_atom_site_fract_z
Si Si1 0.611039 0.081411 0.355816
Si Si2 0.108301 0.357558 0.215992
Si Si3 0.394511 0.914222 0.500000
Si Si4 0.774765 0.077745 0.145560
Si Si5 0.390202 0.225893 0.000000
Si Si6 0.391351 0.711777 0.857907
Si Si7 0.292870 0.077073 0.000000
O O1 0.500000 0.080106 0.360455
O O2 0.633165 0.128961 0.292665
O O3 0.645880 0.105466 0.428312
O O4 0.639359 0.000000 0.343787
O O5 0.173171 0.407615 0.172974
O O6 0.124149 0.278609 0.189755
O O7 0.000000 0.373050 0.207329
O O8 0.500000 0.889748 0.500000
O O9 0.396430 0.000000 0.500000
O O10 0.838184 0.142810 0.165295
O O11 0.767372 0.079178 0.066063
O O12 0.805813 0.000000 0.166684
O O13 0.361118 0.264476 0.932143
O O14 0.355789 0.145781 0.000000
O O15 0.500000 0.224959 0.000000
O O16 0.500000 0.698328 0.860404
O O17 0.340841 0.000000 0.000000
#
# Coordination Sequence:
#
# PCOD9485131 Si02
#       7
#    16  16   8  16   8  16   8
#     4   8  13  22  37  60  92 125 153 180 211 258
#     4  10  19  30  46  70  97 123 150 182 224 273
#     4   7  10  18  34  56  85 124 158 176 203 253
#     4  11  22  34  49  68  91 120 152 192 236 273
#     4  10  19  34  52  68  88 120 154 189 232 275
#     4  10  21  35  51  68  86 117 159 195 231 273
#     4  10  21  32  46  70  94 117 147 187 233 278
#
# _framework density 15.717772999999999
#
# number of rings (size 3 to 8) (size 9 to 14) (size 15 to 20)
#    0.000    2.455    1.818    2.727    0.000    2.364 
#    0.000    1.818    0.000    3.273    0.000    2.545 
#    0.000    0.000    0.000    0.000    0.000   25.273 
#
# Total GULP energy -245055.745821 kJ/mol
# GULP energy per Si atom -5569.448769 kJ/mol
# Density = 1.568200 g / cm^3
# Si number density = 15.717773 Si / 1000 Ang^3
#
#
#
# Elastic Constant Matrix: (Units=GPa)
#
#
# Indices 1 2 3 4 5 6 
#
# 1 30.4306 29.9309 14.3051 0.0000 0.0000 0.0000
# 2 29.9309 101.4405 35.6111 0.0000 0.0000 0.0000
# 3 14.3051 35.6111 105.8373 0.0000 0.0000 0.0000
# 4 0.0000 0.0000 0.0000 5.8257 0.0000 0.0000
# 5 0.0000 0.0000 0.0000 0.0000 -0.1501 0.0000
# 6 0.0000 0.0000 0.0000 0.0000 0.0000 14.9242
#
#
#
# Elastic Compliance Matrix: (Units=1/GPa)
#
#
# Indices 1 2 3 4 5 6 
#
# 1 0.046632 -0.013093 -0.001897 0.000000 0.000000 0.000000
# 2 -0.013093 0.014855 -0.003228 0.000000 0.000000 0.000000
# 3 -0.001897 -0.003228 0.010791 0.000000 0.000000 0.000000
# 4 0.000000 0.000000 0.000000 0.171653 0.000000 0.000000
# 5 0.000000 0.000000 0.000000 0.000000 -6.661039 0.000000
# 6 0.000000 0.000000 0.000000 0.000000 0.000000 0.067005
#
#
# Mechanical properties :
#
#
# Convention : Reuss Voigt Hill
#
# Bulk Modulus (GPa) = 27.90197 44.15583 36.02890
# Shear Modulus (GPa) = -0.79343 14.64404 6.92530
#
# Velocity S-wave (km/s) = -0.71126 3.05567 2.10133
# Velocity P-wave (km/s) = 4.13713 6.37208 5.37212
#
# Compressibility (1/GPa) = 0.03583976
#
# Stress axis : x y z
#
# Youngs Moduli (GPa) = 21.44468 67.31947 92.66816
#
# Poissons Ratio (x) = 0.88141 0.17583
# Poissons Ratio (y) = 0.28077 0.29918
# Poissons Ratio (z) = 0.04069 0.21734
#
# Static dielectric constant tensor:
#      x y z
#    x 1.519940 0.000000 0.000000 
#    y 0.000000 1.531290 0.000000 
#    z 0.000000 0.000000 1.560490 
# 
# From -- ./inp_files/62519.got.cif
#   From: 2010.05.17/outbox.cif.g08.bks.cpg/sg65_32_cif.got.tgz:62519.got - 2010.06.03 17:01:31.
