data_PCOD9485695
_publ_section_title
;
Structure prediction by ZEFSAII (Michael W. Deem and Ramdas Pophale) SiO2 
 PCOD9485695
Probable space group: C M M M
;
_chemical_formula_sum "Si O2"
_cell_formula_units_Z 112
_cell_length_a 26.974508
_cell_length_b 15.669282
_cell_length_c 14.861987
_cell_angle_alpha 90.000000
_cell_angle_beta 90.000000
_cell_angle_gamma 90.000000
_cell_volume 6281.733473
_symmetry_space_group_name_H-M "C M M M"
_symmetry_group_IT_number 65
_symmetry_cell_setting 'orthorhombic'
loop_
_space_group_symop_operation_xyz
x,y,z
-x,-y,z
x,-y,-z
-x,y,-z
-x,-y,-z
x,y,-z
-x,y,z
x,-y,z
1/2+x,1/2+y,z
1/2-x,1/2-y,z
1/2+x,1/2-y,-z
1/2-x,1/2+y,-z
1/2-x,1/2-y,-z
1/2+x,1/2+y,-z
1/2-x,1/2+y,z
1/2+x,1/2-y,z
loop_
_atom_site_type_symbol
_atom_site_label
_atom_site_fract_x
_atom_site_fract_y
_atom_site_fract_z
Si Si1 0.360522 0.763297 0.897822
Si Si2 0.939901 0.090822 0.704077
Si Si3 0.559122 0.358830 0.098654
Si Si4 0.292384 0.598010 0.894685
Si Si5 0.557650 0.764048 0.607707
Si Si6 0.306966 0.099188 0.217385
Si Si7 0.357459 0.899773 0.603262
O O1 0.417538 0.735069 0.892412
O O2 0.331426 0.673998 0.881191
O O3 0.343695 0.835962 0.831411
O O4 0.348878 0.789615 0.000000
O O5 0.927183 0.094088 0.809726
O O6 0.924023 0.177455 0.655718
O O7 0.000000 0.091220 0.697398
O O8 0.922192 0.000000 0.665931
O O9 0.500000 0.357748 0.096487
O O10 0.576331 0.392116 0.000000
O O11 0.310347 0.500000 0.881780
O O12 0.246824 0.612810 0.826839
O O13 0.276101 0.603793 0.000000
O O14 0.557675 0.750589 0.500000
O O15 0.500000 0.780651 0.634110
O O16 0.595261 0.841125 0.626647
O O17 0.314140 0.113690 0.323782
O O18 0.319561 0.000000 0.199601
O O19 0.342977 0.880911 0.500000
O O20 0.371156 0.000000 0.607414
#
# Coordination Sequence:
#
# PCOD9485695 Si02
#       7
#    16  16  16  16  16  16  16
#     4  10  19  31  50  73  98 129 160 195 241 286
#     4   9  17  28  42  62  90 124 159 193 230 274
#     4   9  18  31  46  66  94 130 169 202 231 269
#     4   9  18  32  50  74 101 125 155 198 243 286
#     4   9  17  29  46  68  93 120 152 196 246 289
#     4  10  19  31  49  72  97 126 159 196 241 289
#     4   9  18  32  49  69  92 120 157 197 237 285
#
# _framework density 17.829474000000001
#
# number of rings (size 3 to 8) (size 9 to 14) (size 15 to 20)
#    0.000    2.714    0.000    1.714    0.000    3.429 
#    0.000    5.714    0.000    3.000    0.000    2.000 
#    0.000    2.286    0.000    0.143    0.000    0.286 
#
# Total GULP energy -311828.754013 kJ/mol
# GULP energy per Si atom -5568.370607 kJ/mol
# Density = 1.778889 g / cm^3
# Si number density = 17.829474 Si / 1000 Ang^3
#
#
#
# Elastic Constant Matrix: (Units=GPa)
#
#
# Indices 1 2 3 4 5 6 
#
# 1 26.6086 14.4045 30.1398 0.0000 0.0000 0.0000
# 2 14.4045 51.1617 40.7263 0.0000 0.0000 0.0000
# 3 30.1398 40.7263 70.4836 0.0000 0.0000 0.0000
# 4 0.0000 0.0000 0.0000 6.4918 0.0000 0.0000
# 5 0.0000 0.0000 0.0000 0.0000 17.4604 0.0000
# 6 0.0000 0.0000 0.0000 0.0000 0.0000 11.7595
#
#
#
# Elastic Compliance Matrix: (Units=1/GPa)
#
#
# Indices 1 2 3 4 5 6 
#
# 1 0.074669 0.008136 -0.036631 0.000000 0.000000 0.000000
# 2 0.008136 0.037080 -0.024904 0.000000 0.000000 0.000000
# 3 -0.036631 -0.024904 0.044242 0.000000 0.000000 0.000000
# 4 0.000000 0.000000 0.000000 0.154042 0.000000 0.000000
# 5 0.000000 0.000000 0.000000 0.000000 0.057272 0.000000
# 6 0.000000 0.000000 0.000000 0.000000 0.000000 0.085038
#
#
# Mechanical properties :
#
#
# Convention : Reuss Voigt Hill
#
# Bulk Modulus (GPa) = 20.32818 35.42167 27.87492
# Shear Modulus (GPa) = 8.68754 11.34124 10.01439
#
# Velocity S-wave (km/s) = 2.20978 2.52483 2.37254
# Velocity P-wave (km/s) = 4.23522 5.33008 4.81388
#
# Compressibility (1/GPa) = 0.04919280
#
# Stress axis : x y z
#
# Youngs Moduli (GPa) = 13.39239 26.96898 22.60319
#
# Poissons Ratio (x) = -0.21943 0.82797
# Poissons Ratio (y) = -0.10896 0.56292
# Poissons Ratio (z) = 0.49058 0.67164
#
# Static dielectric constant tensor:
#      x y z
#    x 1.629840 0.000000 0.000000 
#    y 0.000000 1.609970 0.000000 
#    z 0.000000 0.000000 1.638210 
# 
# From -- ./inp_files/41162.got.cif
#   From: 2010.05.17/outbox.cif.g08.bks.cpg/sg65_21_cif.got.tgz:41162.got - 2010.06.03 17:01:31.
