data_PCOD9485309
_publ_section_title
;
Structure prediction by ZEFSAII (Michael W. Deem and Ramdas Pophale) SiO2 
 PCOD9485309
Probable space group: C M M M
;
_chemical_formula_sum "Si O2"
_cell_formula_units_Z 72
_cell_length_a 14.986625
_cell_length_b 10.777969
_cell_length_c 20.675293
_cell_angle_alpha 90.000000
_cell_angle_beta 90.000000
_cell_angle_gamma 90.000000
_cell_volume 3339.584552
_symmetry_space_group_name_H-M "C M M M"
_symmetry_group_IT_number 65
_symmetry_cell_setting 'orthorhombic'
loop_
_space_group_symop_operation_xyz
x,y,z
-x,-y,z
x,-y,-z
-x,y,-z
-x,-y,-z
x,y,-z
-x,y,z
x,-y,z
1/2+x,1/2+y,z
1/2-x,1/2-y,z
1/2+x,1/2-y,-z
1/2-x,1/2+y,-z
1/2-x,1/2-y,-z
1/2+x,1/2+y,-z
1/2-x,1/2+y,z
1/2+x,1/2-y,z
loop_
_atom_site_type_symbol
_atom_site_label
_atom_site_fract_x
_atom_site_fract_y
_atom_site_fract_z
Si Si1 0.109075 0.241385 0.074465
Si Si2 0.893487 0.000000 0.151650
Si Si3 0.606709 0.142408 0.500000
Si Si4 0.141202 0.000000 0.695917
Si Si5 0.147211 0.500000 0.710564
Si Si6 0.108213 0.500000 0.138702
Si Si7 0.855362 0.742592 0.359661
O O1 0.137059 0.374142 0.102961
O O2 0.000000 0.241287 0.075446
O O3 0.140358 0.125557 0.117679
O O4 0.136266 0.226647 0.000000
O O5 0.877653 0.000000 0.227904
O O6 0.000000 0.000000 0.141604
O O7 0.500000 0.135502 0.500000
O O8 0.634503 0.212561 0.564936
O O9 0.641868 0.000000 0.500000
O O10 0.106880 0.125576 0.662707
O O11 0.248839 0.000000 0.690420
O O12 0.139584 0.500000 0.787411
O O13 0.107440 0.625277 0.680089
O O14 0.000000 0.500000 0.139347
O O15 0.750000 0.750000 0.345088
#
# Coordination Sequence:
#
# PCOD9485309 Si02
#       7
#    16   8   8   8   8   8  16
#     4   9  17  30  49  74 103 136 176 221 269 323
#     4  10  19  32  51  75 102 135 177 221 270 324
#     4  11  23  39  61  89 116 143 178 226 278 321
#     4  10  22  36  56  81 107 145 180 225 270 311
#     4  10  20  36  56  77 109 145 182 221 266 325
#     4  10  19  30  51  79 104 135 177 227 272 316
#     4  10  21  39  59  81 110 147 188 220 261 328
#
# _framework density 21.559567000000001
#
# number of rings (size 3 to 8) (size 9 to 14) (size 15 to 20)
#    0.000    2.111    1.111    2.333    0.000    4.889 
#    0.000    0.556    0.000    4.000    0.000    0.000 
#    0.000    0.000    0.000    0.000    0.000    0.000 
#
# Total GULP energy -201194.804418 kJ/mol
# GULP energy per Si atom -5588.744567 kJ/mol
# Density = 2.151050 g / cm^3
# Si number density = 21.559567 Si / 1000 Ang^3
#
#
#
# Elastic Constant Matrix: (Units=GPa)
#
#
# Indices 1 2 3 4 5 6 
#
# 1 49.8144 9.2031 -28.7779 0.0000 0.0000 0.0000
# 2 9.2031 266.3633 134.8664 0.0000 0.0000 0.0000
# 3 -28.7779 134.8664 166.3864 0.0000 0.0000 0.0000
# 4 0.0000 0.0000 0.0000 57.2124 0.0000 0.0000
# 5 0.0000 0.0000 0.0000 0.0000 27.9246 0.0000
# 6 0.0000 0.0000 0.0000 0.0000 0.0000 -12.2530
#
#
#
# Elastic Compliance Matrix: (Units=1/GPa)
#
#
# Indices 1 2 3 4 5 6 
#
# 1 0.026247 -0.005437 0.008946 0.000000 0.000000 0.000000
# 2 -0.005437 0.007494 -0.007014 0.000000 0.000000 0.000000
# 3 0.008946 -0.007014 0.013243 0.000000 0.000000 0.000000
# 4 0.000000 0.000000 0.000000 0.017479 0.000000 0.000000
# 5 0.000000 0.000000 0.000000 0.000000 0.035811 0.000000
# 6 0.000000 0.000000 0.000000 0.000000 0.000000 -0.081612
#
#
# Mechanical properties :
#
#
# Convention : Reuss Voigt Hill
#
# Bulk Modulus (GPa) = 25.01576 79.23859 52.12717
# Shear Modulus (GPa) = 128.22039 39.06164 83.64101
#
# Velocity S-wave (km/s) = 7.72022 4.26114 6.23535
# Velocity P-wave (km/s) = 9.54449 7.81300 8.72182
#
# Compressibility (1/GPa) = 0.03997481
#
# Stress axis : x y z
#
# Youngs Moduli (GPa) = 38.09913 133.44565 75.51111
#
# Poissons Ratio (x) = 0.72550 -0.67556
# Poissons Ratio (y) = 0.20713 0.52967
# Poissons Ratio (z) = -0.34085 0.93604
#
# Static dielectric constant tensor:
#      x y z
#    x 1.804220 0.000000 0.000000 
#    y 0.000000 1.798840 0.000000 
#    z 0.000000 0.000000 1.713570 
# 
# From -- ./inp_files/51210.got.cif
#   From: 2010.05.17/outbox.cif.g08.bks.cpg/sg65_26_cif.got.tgz:51210.got - 2010.06.03 17:01:31.
