data_PCOD9485738
_publ_section_title
;
Structure prediction by ZEFSAII (Michael W. Deem and Ramdas Pophale) SiO2 
 PCOD9485738
Probable space group: C M M M
;
_chemical_formula_sum "Si O2"
_cell_formula_units_Z 112
_cell_length_a 15.877953
_cell_length_b 27.724636
_cell_length_c 14.325465
_cell_angle_alpha 90.000000
_cell_angle_beta 90.000000
_cell_angle_gamma 90.000000
_cell_volume 6306.219643
_symmetry_space_group_name_H-M "C M M M"
_symmetry_group_IT_number 65
_symmetry_cell_setting 'orthorhombic'
loop_
_space_group_symop_operation_xyz
x,y,z
-x,-y,z
x,-y,-z
-x,y,-z
-x,-y,-z
x,y,-z
-x,y,z
x,-y,z
1/2+x,1/2+y,z
1/2-x,1/2-y,z
1/2+x,1/2-y,-z
1/2-x,1/2+y,-z
1/2-x,1/2-y,-z
1/2+x,1/2+y,-z
1/2-x,1/2+y,z
1/2+x,1/2-y,z
loop_
_atom_site_type_symbol
_atom_site_label
_atom_site_fract_x
_atom_site_fract_y
_atom_site_fract_z
Si Si1 0.263997 0.443399 0.397551
Si Si2 0.408820 0.106826 0.611164
Si Si3 0.100678 0.055588 0.761234
Si Si4 0.399401 0.745514 0.894189
Si Si5 0.401381 0.283100 0.608367
Si Si6 0.155387 0.306838 0.277787
Si Si7 0.339739 0.657233 0.226227
O O1 0.281147 0.422429 0.500000
O O2 0.249064 0.500000 0.405384
O O3 0.175366 0.422186 0.363517
O O4 0.345301 0.438882 0.333323
O O5 0.403512 0.117426 0.500000
O O6 0.500000 0.082691 0.626476
O O7 0.403777 0.155009 0.671361
O O8 0.135241 0.104152 0.810891
O O9 0.000000 0.059406 0.750132
O O10 0.117067 0.000000 0.795774
O O11 0.500000 0.740230 0.893054
O O12 0.375374 0.787275 0.821722
O O13 0.360559 0.696816 0.851968
O O14 0.371547 0.754655 0.000000
O O15 0.378832 0.292428 0.500000
O O16 0.500000 0.268657 0.610942
O O17 0.346798 0.239939 0.654220
O O18 0.391157 0.327784 0.679834
O O19 0.244354 0.332870 0.259468
#
# Coordination Sequence:
#
# PCOD9485738 Si02
#       7
#    16  16  16  16  16  16  16
#     4   9  18  32  48  70 100 135 181 229 272 319
#     4  10  19  31  49  73 105 145 184 223 265 310
#     4  10  20  35  54  74 101 138 178 223 272 317
#     4  10  21  37  57  80 108 139 172 214 263 320
#     4  10  20  32  47  70 102 139 178 217 258 312
#     4  11  20  32  51  75 105 141 177 216 257 313
#     4  11  21  34  53  77 104 137 178 220 263 317
#
# _framework density 17.760245000000001
#
# number of rings (size 3 to 8) (size 9 to 14) (size 15 to 20)
#    0.000    1.857    1.429    5.571    0.000    5.143 
#    0.000    2.857    0.000    0.429    0.000    2.000 
#    0.000    0.571    0.000    4.857    0.000    0.143 
#
# Total GULP energy -311814.555122 kJ/mol
# GULP energy per Si atom -5568.117056 kJ/mol
# Density = 1.771982 g / cm^3
# Si number density = 17.760245 Si / 1000 Ang^3
#
#
#
# Elastic Constant Matrix: (Units=GPa)
#
#
# Indices 1 2 3 4 5 6 
#
# 1 86.0836 20.2359 6.8140 0.0000 0.0000 0.0000
# 2 20.2359 49.9965 -6.2660 0.0000 0.0000 0.0000
# 3 6.8140 -6.2660 56.5495 0.0000 0.0000 0.0000
# 4 0.0000 0.0000 0.0000 12.2979 0.0000 0.0000
# 5 0.0000 0.0000 0.0000 0.0000 15.0692 0.0000
# 6 0.0000 0.0000 0.0000 0.0000 0.0000 10.9847
#
#
#
# Elastic Compliance Matrix: (Units=1/GPa)
#
#
# Indices 1 2 3 4 5 6 
#
# 1 0.013102 -0.005578 -0.002197 0.000000 0.000000 0.000000
# 2 -0.005578 0.022658 0.003183 0.000000 0.000000 0.000000
# 3 -0.002197 0.003183 0.018301 0.000000 0.000000 0.000000
# 4 0.000000 0.000000 0.000000 0.081315 0.000000 0.000000
# 5 0.000000 0.000000 0.000000 0.000000 0.066360 0.000000
# 6 0.000000 0.000000 0.000000 0.000000 0.000000 0.091036
#
#
# Mechanical properties :
#
#
# Convention : Reuss Voigt Hill
#
# Bulk Modulus (GPa) = 22.28346 26.02194 24.15270
# Shear Modulus (GPa) = 15.77709 19.12673 17.45191
#
# Velocity S-wave (km/s) = 2.98373 3.28524 3.13811
# Velocity P-wave (km/s) = 4.94411 5.39203 5.17292
#
# Compressibility (1/GPa) = 0.04487634
#
# Stress axis : x y z
#
# Youngs Moduli (GPa) = 76.32542 44.13439 54.64182
#
# Poissons Ratio (x) = 0.24619 0.12004
# Poissons Ratio (y) = 0.42576 -0.17391
# Poissons Ratio (z) = 0.16767 -0.14047
#
# Static dielectric constant tensor:
#      x y z
#    x 1.635260 0.000000 0.000000 
#    y 0.000000 1.652810 0.000000 
#    z 0.000000 0.000000 1.604410 
# 
# From -- ./inp_files/41347.got.cif
#   From: 2010.05.17/outbox.cif.g08.bks.cpg/sg65_21_cif.got.tgz:41347.got - 2010.06.03 17:01:31.
