data_PCOD9485970
_publ_section_title
;
Structure prediction by ZEFSAII (Michael W. Deem and Ramdas Pophale) SiO2 
 PCOD9485970
Probable space group: C M M M
;
_chemical_formula_sum "Si O2"
_cell_formula_units_Z 104
_cell_length_a 18.442954
_cell_length_b 34.865623
_cell_length_c 7.449559
_cell_angle_alpha 90.000000
_cell_angle_beta 90.000000
_cell_angle_gamma 90.000000
_cell_volume 4790.253281
_symmetry_space_group_name_H-M "C M M M"
_symmetry_group_IT_number 65
_symmetry_cell_setting 'orthorhombic'
loop_
_space_group_symop_operation_xyz
x,y,z
-x,-y,z
x,-y,-z
-x,y,-z
-x,-y,-z
x,y,-z
-x,y,z
x,-y,z
1/2+x,1/2+y,z
1/2-x,1/2-y,z
1/2+x,1/2-y,-z
1/2-x,1/2+y,-z
1/2-x,1/2-y,-z
1/2+x,1/2+y,-z
1/2-x,1/2+y,z
1/2+x,1/2-y,z
loop_
_atom_site_type_symbol
_atom_site_label
_atom_site_fract_x
_atom_site_fract_y
_atom_site_fract_z
Si Si1 0.180243 0.324237 0.212130
Si Si2 0.781659 0.956707 0.714070
Si Si3 0.154392 0.826320 0.219619
Si Si4 0.857492 0.590144 0.283668
Si Si5 0.418636 0.405197 0.215533
Si Si6 0.000000 0.455650 0.280543
Si Si7 0.416961 0.246065 0.780428
O O1 0.262333 0.326774 0.282531
O O2 0.142306 0.365219 0.235365
O O3 0.133066 0.288969 0.283012
O O4 0.187765 0.317154 0.000000
O O5 0.771406 0.958895 0.500000
O O6 0.716705 0.929709 0.783093
O O7 0.859307 0.937412 0.744134
O O8 0.777561 0.000000 0.785024
O O9 0.112298 0.864307 0.280167
O O10 0.115562 0.787046 0.273474
O O11 0.154542 0.827210 0.000000
O O12 0.857172 0.588382 0.500000
O O13 0.927828 0.566718 0.222213
O O14 0.500000 0.412681 0.282206
O O15 0.422539 0.402673 0.000000
O O16 0.000000 0.500000 0.224149
O O17 0.000000 0.455727 0.500000
O O18 0.500000 0.241792 0.723193
O O19 0.416930 0.245596 0.000000
#
# Coordination Sequence:
#
# PCOD9485970 Si02
#       7
#    16  16  16  16  16   8  16
#     4  10  19  31  51  78 106 136 172 214 261 311
#     4  10  21  37  56  77 103 136 174 215 261 315
#     4   9  16  30  50  73 103 138 174 211 253 300
#     4  10  20  35  56  80 105 137 175 217 264 313
#     4  10  20  34  54  80 107 137 175 219 263 307
#     4   9  18  34  57  81 103 135 183 227 259 307
#     4   9  17  28  46  75 106 136 171 212 255 303
#
# _framework density 21.710750000000001
#
# number of rings (size 3 to 8) (size 9 to 14) (size 15 to 20)
#    0.000    2.385    1.538    1.385    1.077    6.462 
#    0.000    1.538    0.000    4.615    0.000    0.000 
#    0.000    0.000    0.000    0.000    0.000    0.000 
#
# Total GULP energy -290605.771014 kJ/mol
# GULP energy per Si atom -5588.572519 kJ/mol
# Density = 2.166134 g / cm^3
# Si number density = 21.710750 Si / 1000 Ang^3
#
#
#
# Elastic Constant Matrix: (Units=GPa)
#
#
# Indices 1 2 3 4 5 6 
#
# 1 88.4184 -2.5166 -6.6891 0.0000 0.0000 0.0000
# 2 -2.5166 81.9581 -12.1665 0.0000 0.0000 0.0000
# 3 -6.6891 -12.1665 63.6968 0.0000 0.0000 0.0000
# 4 0.0000 0.0000 0.0000 18.6891 0.0000 0.0000
# 5 0.0000 0.0000 0.0000 0.0000 5.3899 0.0000
# 6 0.0000 0.0000 0.0000 0.0000 0.0000 19.4696
#
#
#
# Elastic Compliance Matrix: (Units=1/GPa)
#
#
# Indices 1 2 3 4 5 6 
#
# 1 0.011424 0.000544 0.001304 0.000000 0.000000 0.000000
# 2 0.000544 0.012583 0.002461 0.000000 0.000000 0.000000
# 3 0.001304 0.002461 0.016306 0.000000 0.000000 0.000000
# 4 0.000000 0.000000 0.000000 0.053507 0.000000 0.000000
# 5 0.000000 0.000000 0.000000 0.000000 0.185533 0.000000
# 6 0.000000 0.000000 0.000000 0.000000 0.000000 0.051362
#
#
# Mechanical properties :
#
#
# Convention : Reuss Voigt Hill
#
# Bulk Modulus (GPa) = 20.43700 21.25876 20.84788
# Shear Modulus (GPa) = 14.77501 25.73942 20.25722
#
# Velocity S-wave (km/s) = 2.61154 3.44693 3.05790
# Velocity P-wave (km/s) = 4.30433 5.06506 4.70012
#
# Compressibility (1/GPa) = 0.04893086
#
# Stress axis : x y z
#
# Youngs Moduli (GPa) = 87.53515 79.47013 61.32608
#
# Poissons Ratio (x) = -0.04326 -0.07995
# Poissons Ratio (y) = -0.04765 -0.15090
# Poissons Ratio (z) = -0.11412 -0.19555
#
# Static dielectric constant tensor:
#      x y z
#    x 1.760770 0.000000 0.000000 
#    y 0.000000 1.733220 0.000000 
#    z 0.000000 0.000000 1.143010 
# 
# From -- ./inp_files/27731.got.cif
#   From: 2010.05.17/outbox.cif.g08.bks.cpg/sg65_14_cif.got.tgz:27731.got - 2010.06.03 17:01:31.
