data_PCOD9485539
_publ_section_title
;
Structure prediction by ZEFSAII (Michael W. Deem and Ramdas Pophale) SiO2 
 PCOD9485539
Probable space group: C M M M
;
_chemical_formula_sum "Si O2"
_cell_formula_units_Z 80
_cell_length_a 28.007880
_cell_length_b 7.777421
_cell_length_c 19.290009
_cell_angle_alpha 90.000000
_cell_angle_beta 90.000000
_cell_angle_gamma 90.000000
_cell_volume 4201.924799
_symmetry_space_group_name_H-M "C M M M"
_symmetry_group_IT_number 65
_symmetry_cell_setting 'orthorhombic'
loop_
_space_group_symop_operation_xyz
x,y,z
-x,-y,z
x,-y,-z
-x,y,-z
-x,-y,-z
x,y,-z
-x,y,z
x,-y,z
1/2+x,1/2+y,z
1/2-x,1/2-y,z
1/2+x,1/2-y,-z
1/2-x,1/2+y,-z
1/2-x,1/2-y,-z
1/2+x,1/2+y,-z
1/2-x,1/2+y,z
1/2+x,1/2-y,z
loop_
_atom_site_type_symbol
_atom_site_label
_atom_site_fract_x
_atom_site_fract_y
_atom_site_fract_z
Si Si1 0.196329 0.704718 0.716619
Si Si2 0.053024 0.207137 0.214166
Si Si3 0.148003 0.204732 0.141734
Si Si4 0.805789 0.792155 0.000000
Si Si5 0.944619 0.710843 0.500000
Si Si6 0.601821 0.207126 0.642978
O O1 0.192455 0.500000 0.718508
O O2 0.250000 0.750000 0.696480
O O3 0.183750 0.768162 0.793898
O O4 0.154398 0.770540 0.665880
O O5 0.096483 0.273916 0.166619
O O6 0.067085 0.248039 0.293310
O O7 0.000000 0.271884 0.197827
O O8 0.052430 0.000000 0.207680
O O9 0.142510 0.000000 0.133084
O O10 0.168997 0.273641 0.070030
O O11 0.750000 0.750000 0.000000
O O12 0.809374 0.000000 0.000000
O O13 0.944181 0.500000 0.500000
O O14 0.918125 0.769704 0.430231
O O15 0.000000 0.763006 0.500000
O O16 0.603935 0.000000 0.638622
#
# Coordination Sequence:
#
# PCOD9485539 Si02
#       6
#    16  16  16   8   8  16
#     4  10  19  31  48  69  92 120 154 190 228 269
#     4   9  17  30  48  69  94 123 152 185 226 269
#     4   9  18  32  48  68  94 121 152 188 226 270
#     4  10  20  32  47  67  91 119 150 188 231 272
#     4   9  16  28  48  71  93 117 147 187 230 267
#     4   9  18  31  48  70  93 119 154 191 225 267
#
# _framework density 19.038893000000002
#
# number of rings (size 3 to 8) (size 9 to 14) (size 15 to 20)
#    0.000    2.700    0.000    1.800    0.000    4.400 
#    0.000    1.500    0.000    4.800    0.000    0.000 
#    0.000    7.200    0.000    0.000    0.000    0.000 
#
# Total GULP energy -223103.610151 kJ/mol
# GULP energy per Si atom -5577.590254 kJ/mol
# Density = 1.899556 g / cm^3
# Si number density = 19.038893 Si / 1000 Ang^3
#
#
#
# Elastic Constant Matrix: (Units=GPa)
#
#
# Indices 1 2 3 4 5 6 
#
# 1 163.9230 4.5590 94.4339 0.0000 0.0000 0.0000
# 2 4.5590 22.7687 10.0843 0.0000 0.0000 0.0000
# 3 94.4339 10.0843 162.7445 0.0000 0.0000 0.0000
# 4 0.0000 0.0000 0.0000 14.3000 0.0000 0.0000
# 5 0.0000 0.0000 0.0000 0.0000 15.3810 0.0000
# 6 0.0000 0.0000 0.0000 0.0000 0.0000 14.5250
#
#
#
# Elastic Compliance Matrix: (Units=1/GPa)
#
#
# Indices 1 2 3 4 5 6 
#
# 1 0.009170 0.000535 -0.005354 0.000000 0.000000 0.000000
# 2 0.000535 0.045190 -0.003111 0.000000 0.000000 0.000000
# 3 -0.005354 -0.003111 0.009444 0.000000 0.000000 0.000000
# 4 0.000000 0.000000 0.000000 0.069930 0.000000 0.000000
# 5 0.000000 0.000000 0.000000 0.000000 0.065015 0.000000
# 6 0.000000 0.000000 0.000000 0.000000 0.000000 0.068847
#
#
# Mechanical properties :
#
#
# Convention : Reuss Voigt Hill
#
# Bulk Modulus (GPa) = 20.85711 63.06562 41.96136
# Shear Modulus (GPa) = 16.69795 24.86513 20.78154
#
# Velocity S-wave (km/s) = 2.96471 3.61781 3.30742
# Velocity P-wave (km/s) = 4.76425 7.11673 6.05582
#
# Compressibility (1/GPa) = 0.04794529
#
# Stress axis : x y z
#
# Youngs Moduli (GPa) = 109.05147 22.12857 105.88579
#
# Poissons Ratio (x) = -0.01184 0.56693
# Poissons Ratio (y) = -0.05837 0.32939
# Poissons Ratio (z) = 0.58388 0.06884
#
# Static dielectric constant tensor:
#      x y z
#    x 1.655400 0.000000 0.000000 
#    y 0.000000 1.700910 0.000000 
#    z 0.000000 0.000000 1.639410 
# 
# From -- ./inp_files/49994.got.cif
#   From: 2010.05.17/outbox.cif.g08.bks.cpg/sg65_25_cif.got.tgz:49994.got - 2010.06.03 17:01:31.
