data_PCOD9485052
_publ_section_title
;
Structure prediction by ZEFSAII (Michael W. Deem and Ramdas Pophale) SiO2 
 PCOD9485052
Probable space group: C M M M
;
_chemical_formula_sum "Si O2"
_cell_formula_units_Z 88
_cell_length_a 26.546457
_cell_length_b 7.647035
_cell_length_c 23.578180
_cell_angle_alpha 90.000000
_cell_angle_beta 90.000000
_cell_angle_gamma 90.000000
_cell_volume 4786.410288
_symmetry_space_group_name_H-M "C M M M"
_symmetry_group_IT_number 65
_symmetry_cell_setting 'orthorhombic'
loop_
_space_group_symop_operation_xyz
x,y,z
-x,-y,z
x,-y,-z
-x,y,-z
-x,-y,-z
x,y,-z
-x,y,z
x,-y,z
1/2+x,1/2+y,z
1/2-x,1/2-y,z
1/2+x,1/2-y,-z
1/2-x,1/2+y,-z
1/2-x,1/2-y,-z
1/2+x,1/2+y,-z
1/2-x,1/2+y,z
1/2+x,1/2-y,z
loop_
_atom_site_type_symbol
_atom_site_label
_atom_site_fract_x
_atom_site_fract_y
_atom_site_fract_z
Si Si1 0.690906 0.710241 0.439098
Si Si2 0.160920 0.202191 0.682646
Si Si3 0.193128 0.207232 0.194412
Si Si4 0.413273 0.208272 0.850873
Si Si5 0.000000 0.285276 0.065074
Si Si6 0.555638 0.212253 0.725648
O O1 0.669819 0.774743 0.500000
O O2 0.683028 0.500000 0.438511
O O3 0.750000 0.750000 0.440368
O O4 0.673167 0.782068 0.378402
O O5 0.183274 0.280632 0.741447
O O6 0.101152 0.210917 0.690365
O O7 0.178248 0.000000 0.681056
O O8 0.250000 0.250000 0.176253
O O9 0.146789 0.259492 0.153458
O O10 0.189110 0.000000 0.199048
O O11 0.449527 0.272755 0.901146
O O12 0.435400 0.270213 0.790623
O O13 0.419145 0.000000 0.851478
O O14 0.000000 0.500000 0.064739
O O15 0.000000 0.228125 0.000000
O O16 0.500000 0.262223 0.706957
O O17 0.559283 0.000000 0.724506
#
# Coordination Sequence:
#
# PCOD9485052 Si02
#       6
#    16  16  16  16   8  16
#     4   9  17  29  44  61  83 111 143 180 221 266
#     4   9  18  29  42  64  90 115 146 184 226 271
#     4  10  19  30  45  68  96 125 155 189 231 277
#     4   9  16  29  48  70  97 125 152 186 226 270
#     4   9  16  28  51  79 101 123 154 189 224 268
#     4   9  16  27  44  65  89 117 147 180 220 265
#
# _framework density 18.385386
#
# number of rings (size 3 to 8) (size 9 to 14) (size 15 to 20)
#    0.000    2.818    0.909    1.091    0.000    1.818 
#    0.000    0.455    0.000    2.182    0.000    3.818 
#    0.000    0.000    0.000    0.000    0.000    0.000 
#
# Total GULP energy -244957.110161 kJ/mol
# GULP energy per Si atom -5567.207049 kJ/mol
# Density = 1.834354 g / cm^3
# Si number density = 18.385386 Si / 1000 Ang^3
#
#
#
# Elastic Constant Matrix: (Units=GPa)
#
#
# Indices 1 2 3 4 5 6 
#
# 1 116.9001 -9.9616 66.6666 0.0000 0.0000 0.0000
# 2 -9.9616 31.9894 7.1527 0.0000 0.0000 0.0000
# 3 66.6666 7.1527 136.5386 0.0000 0.0000 0.0000
# 4 0.0000 0.0000 0.0000 0.2274 0.0000 0.0000
# 5 0.0000 0.0000 0.0000 0.0000 27.1205 0.0000
# 6 0.0000 0.0000 0.0000 0.0000 0.0000 20.4157
#
#
#
# Elastic Compliance Matrix: (Units=1/GPa)
#
#
# Indices 1 2 3 4 5 6 
#
# 1 0.012719 0.005413 -0.006494 0.000000 0.000000 0.000000
# 2 0.005413 0.033934 -0.004420 0.000000 0.000000 0.000000
# 3 -0.006494 -0.004420 0.010726 0.000000 0.000000 0.000000
# 4 0.000000 0.000000 0.000000 4.397148 0.000000 0.000000
# 5 0.000000 0.000000 0.000000 0.000000 0.036872 0.000000
# 6 0.000000 0.000000 0.000000 0.000000 0.000000 0.048982
#
#
# Mechanical properties :
#
#
# Convention : Reuss Voigt Hill
#
# Bulk Modulus (GPa) = 21.56280 45.90484 33.73382
# Shear Modulus (GPa) = 1.09485 24.32408 12.70946
#
# Velocity S-wave (km/s) = 0.77252 3.64127 2.63207
# Velocity P-wave (km/s) = 3.54252 6.53458 5.25596
#
# Compressibility (1/GPa) = 0.04637616
#
# Stress axis : x y z
#
# Youngs Moduli (GPa) = 78.62386 29.46876 93.23051
#
# Poissons Ratio (x) = -0.15950 0.60541
# Poissons Ratio (y) = -0.42556 0.41212
# Poissons Ratio (z) = 0.51056 0.13027
#
# Static dielectric constant tensor:
#      x y z
#    x 1.652340 0.000000 0.000000 
#    y 0.000000 1.781170 0.000000 
#    z 0.000000 0.000000 1.658050 
# 
# From -- ./inp_files/66247.got.cif
#   From: 2010.05.17/outbox.cif.g08.bks.cpg/sg65_34_cif.got.tgz:66247.got - 2010.06.03 17:01:31.
