data_PCOD9485733
_publ_section_title
;
Structure prediction by ZEFSAII (Michael W. Deem and Ramdas Pophale) SiO2 
 PCOD9485733
Probable space group: C M M M
;
_chemical_formula_sum "Si O2"
_cell_formula_units_Z 88
_cell_length_a 20.023384
_cell_length_b 28.231897
_cell_length_c 8.041312
_cell_angle_alpha 90.000000
_cell_angle_beta 90.000000
_cell_angle_gamma 90.000000
_cell_volume 4545.738513
_symmetry_space_group_name_H-M "C M M M"
_symmetry_group_IT_number 65
_symmetry_cell_setting 'orthorhombic'
loop_
_space_group_symop_operation_xyz
x,y,z
-x,-y,z
x,-y,-z
-x,y,-z
-x,-y,-z
x,y,-z
-x,y,z
x,-y,z
1/2+x,1/2+y,z
1/2-x,1/2-y,z
1/2+x,1/2-y,-z
1/2-x,1/2+y,-z
1/2-x,1/2-y,-z
1/2+x,1/2+y,-z
1/2-x,1/2+y,z
1/2+x,1/2-y,z
loop_
_atom_site_type_symbol
_atom_site_label
_atom_site_fract_x
_atom_site_fract_y
_atom_site_fract_z
Si Si1 0.359992 0.903531 0.800794
Si Si2 0.274231 0.447840 0.298763
Si Si3 0.680586 0.655294 0.698853
Si Si4 0.684381 0.197813 0.308687
Si Si5 0.500000 0.946475 0.202742
Si Si6 0.424598 0.726796 0.196797
O O1 0.302107 0.940813 0.758629
O O2 0.342465 0.855512 0.706635
O O3 0.432302 0.921061 0.747814
O O4 0.359678 0.894888 0.000000
O O5 0.276506 0.447549 0.500000
O O6 0.298661 0.500000 0.243453
O O7 0.309965 0.398915 0.240552
O O8 0.689899 0.653933 0.500000
O O9 0.740399 0.690213 0.762964
O O10 0.610311 0.679255 0.736425
O O11 0.690225 0.213047 0.500000
O O12 0.628478 0.231488 0.231671
O O13 0.500000 0.000000 0.262989
O O14 0.500000 0.947477 0.000000
O O15 0.500000 0.735150 0.262776
O O16 0.429441 0.722340 0.000000
#
# Coordination Sequence:
#
# PCOD9485733 Si02
#       6
#    16  16  16  16   8  16
#     4  10  19  31  49  73 103 138 179 223 264 312
#     4   9  18  34  55  79 107 136 171 219 268 315
#     4   9  19  36  57  81 108 139 177 219 264 316
#     4  10  21  37  56  79 106 139 179 222 267 317
#     4   9  18  30  43  63  97 139 177 217 262 303
#     4  11  24  38  54  79 110 141 177 220 268 322
#
# _framework density 19.358789000000002
#
# number of rings (size 3 to 8) (size 9 to 14) (size 15 to 20)
#    0.000    2.273    0.000    3.818    1.273    8.364 
#    0.000    1.364    0.000    3.818    0.000    3.818 
#    0.000    0.000    0.000    0.000    0.000    0.000 
#
# Total GULP energy -245337.023238 kJ/mol
# GULP energy per Si atom -5575.841437 kJ/mol
# Density = 1.931473 g / cm^3
# Si number density = 19.358789 Si / 1000 Ang^3
#
#
#
# Elastic Constant Matrix: (Units=GPa)
#
#
# Indices 1 2 3 4 5 6 
#
# 1 99.5926 56.5698 10.0177 0.0000 0.0000 0.0000
# 2 56.5698 105.0161 8.2758 0.0000 0.0000 0.0000
# 3 10.0177 8.2758 14.2269 0.0000 0.0000 0.0000
# 4 0.0000 0.0000 0.0000 45.3852 0.0000 0.0000
# 5 0.0000 0.0000 0.0000 0.0000 22.3311 0.0000
# 6 0.0000 0.0000 0.0000 0.0000 0.0000 12.3882
#
#
#
# Elastic Compliance Matrix: (Units=1/GPa)
#
#
# Indices 1 2 3 4 5 6 
#
# 1 0.014961 -0.007576 -0.006127 0.000000 0.000000 0.000000
# 2 -0.007576 0.013816 -0.002702 0.000000 0.000000 0.000000
# 3 -0.006127 -0.002702 0.076176 0.000000 0.000000 0.000000
# 4 0.000000 0.000000 0.000000 0.022034 0.000000 0.000000
# 5 0.000000 0.000000 0.000000 0.000000 0.044781 0.000000
# 6 0.000000 0.000000 0.000000 0.000000 0.000000 0.080722
#
#
# Mechanical properties :
#
#
# Convention : Reuss Voigt Hill
#
# Bulk Modulus (GPa) = 13.86170 40.95137 27.40653
# Shear Modulus (GPa) = 16.16304 25.61903 20.89104
#
# Velocity S-wave (km/s) = 2.89263 3.64178 3.28861
# Velocity P-wave (km/s) = 4.28163 6.23564 5.34863
#
# Compressibility (1/GPa) = 0.07214121
#
# Stress axis : x y z
#
# Youngs Moduli (GPa) = 66.84255 72.37793 13.12752
#
# Poissons Ratio (x) = 0.54834 0.08044
# Poissons Ratio (y) = 0.50640 0.03548
# Poissons Ratio (z) = 0.40956 0.19559
#
# Static dielectric constant tensor:
#      x y z
#    x 1.748870 0.000000 0.000000 
#    y 0.000000 1.695890 0.000000 
#    z 0.000000 0.000000 1.682080 
# 
# From -- ./inp_files/10160.got.cif
#   From: 2010.05.17/outbox.cif.g08.bks.cpg/sg65_6_cif.got.tgz:10160.got - 2010.06.03 17:01:31.
