data_PCOD9485201
_publ_section_title
;
Structure prediction by ZEFSAII (Michael W. Deem and Ramdas Pophale) SiO2 
 PCOD9485201
Probable space group: C M M M
;
_chemical_formula_sum "Si O2"
_cell_formula_units_Z 72
_cell_length_a 8.701427
_cell_length_b 16.204082
_cell_length_c 25.658870
_cell_angle_alpha 90.000000
_cell_angle_beta 90.000000
_cell_angle_gamma 90.000000
_cell_volume 3617.865687
_symmetry_space_group_name_H-M "C M M M"
_symmetry_group_IT_number 65
_symmetry_cell_setting 'orthorhombic'
loop_
_space_group_symop_operation_xyz
x,y,z
-x,-y,z
x,-y,-z
-x,y,-z
-x,-y,-z
x,y,-z
-x,y,z
x,-y,z
1/2+x,1/2+y,z
1/2-x,1/2-y,z
1/2+x,1/2-y,-z
1/2-x,1/2+y,-z
1/2-x,1/2-y,-z
1/2+x,1/2+y,-z
1/2-x,1/2+y,z
1/2+x,1/2-y,z
loop_
_atom_site_type_symbol
_atom_site_label
_atom_site_fract_x
_atom_site_fract_y
_atom_site_fract_z
Si Si1 0.687528 0.000000 0.439798
Si Si2 0.315879 0.594940 0.723533
Si Si3 0.184110 0.157310 0.837074
Si Si4 0.815825 0.343669 0.943179
Si Si5 0.683116 0.836180 0.621129
O O1 0.738457 0.916708 0.410592
O O2 0.500000 0.000000 0.438326
O O3 0.734655 0.000000 0.500000
O O4 0.500000 0.606541 0.719253
O O5 0.279227 0.500000 0.711550
O O6 0.272779 0.613417 0.783201
O O7 0.233706 0.650779 0.680945
O O8 0.250000 0.250000 0.833739
O O9 0.248721 0.118147 0.890394
O O10 0.000000 0.160256 0.840732
O O11 0.750000 0.250000 0.944065
O O12 0.000000 0.340076 0.939216
O O13 0.776425 0.380765 0.000000
O O14 0.500000 0.833208 0.618164
O O15 0.750000 0.750000 0.601330
#
# Coordination Sequence:
#
# PCOD9485201 Si02
#       5
#     8  16  16  16  16
#     4   9  20  40  63  89 125 163 200 243 288 339
#     4  10  21  37  56  79 111 147 186 237 291 343
#     4  10  19  30  47  72 100 133 172 219 275 336
#     4   9  16  26  42  65  94 128 167 216 272 329
#     4  11  22  38  62  91 120 158 201 242 292 347
#
# _framework density 19.901236999999998
#
# number of rings (size 3 to 8) (size 9 to 14) (size 15 to 20)
#    0.000    2.111    1.111    4.000    0.000    5.333 
#    0.000    0.000    0.000    5.333    0.000    4.667 
#    0.000    0.000    0.000    0.000    0.000    0.000 
#
# Total GULP energy -200912.357517 kJ/mol
# GULP energy per Si atom -5580.898820 kJ/mol
# Density = 1.985594 g / cm^3
# Si number density = 19.901237 Si / 1000 Ang^3
#
#
#
# Elastic Constant Matrix: (Units=GPa)
#
#
# Indices 1 2 3 4 5 6 
#
# 1 35.4937 29.2292 30.7239 0.0000 0.0000 0.0000
# 2 29.2292 102.9584 55.2725 0.0000 0.0000 0.0000
# 3 30.7239 55.2725 141.7616 0.0000 0.0000 0.0000
# 4 0.0000 0.0000 0.0000 21.1083 0.0000 0.0000
# 5 0.0000 0.0000 0.0000 0.0000 10.2536 0.0000
# 6 0.0000 0.0000 0.0000 0.0000 0.0000 19.9912
#
#
#
# Elastic Compliance Matrix: (Units=1/GPa)
#
#
# Indices 1 2 3 4 5 6 
#
# 1 0.039715 -0.008415 -0.005326 0.000000 0.000000 0.000000
# 2 -0.008415 0.014067 -0.003661 0.000000 0.000000 0.000000
# 3 -0.005326 -0.003661 0.009636 0.000000 0.000000 0.000000
# 4 0.000000 0.000000 0.000000 0.047375 0.000000 0.000000
# 5 0.000000 0.000000 0.000000 0.000000 0.097527 0.000000
# 6 0.000000 0.000000 0.000000 0.000000 0.000000 0.050022
#
#
# Mechanical properties :
#
#
# Convention : Reuss Voigt Hill
#
# Bulk Modulus (GPa) = 34.94964 56.74055 45.84510
# Shear Modulus (GPa) = 16.51890 21.26982 18.89436
#
# Velocity S-wave (km/s) = 2.88417 3.27275 3.08459
# Velocity P-wave (km/s) = 5.35639 6.54631 5.98102
#
# Compressibility (1/GPa) = 0.02861260
#
# Stress axis : x y z
#
# Youngs Moduli (GPa) = 25.17963 71.08815 103.77981
#
# Poissons Ratio (x) = 0.59824 0.55275
# Poissons Ratio (y) = 0.21190 0.37992
# Poissons Ratio (z) = 0.13411 0.26024
#
# Static dielectric constant tensor:
#      x y z
#    x 1.663960 0.000000 0.000000 
#    y 0.000000 1.704670 0.000000 
#    z 0.000000 0.000000 1.733280 
# 
# From -- ./inp_files/72529.got.cif
#   From: 2010.05.17/outbox.cif.g08.bks.cpg/sg65_37_cif.got.tgz:72529.got - 2010.06.03 17:01:31.
