data_PCOD9485097
_publ_section_title
;
Structure prediction by ZEFSAII (Michael W. Deem and Ramdas Pophale) SiO2 
 PCOD9485097
Probable space group: C M M M
;
_chemical_formula_sum "Si O2"
_cell_formula_units_Z 96
_cell_length_a 8.815649
_cell_length_b 19.413188
_cell_length_c 32.494162
_cell_angle_alpha 90.000000
_cell_angle_beta 90.000000
_cell_angle_gamma 90.000000
_cell_volume 5561.046055
_symmetry_space_group_name_H-M "C M M M"
_symmetry_group_IT_number 65
_symmetry_cell_setting 'orthorhombic'
loop_
_space_group_symop_operation_xyz
x,y,z
-x,-y,z
x,-y,-z
-x,y,-z
-x,-y,-z
x,y,-z
-x,y,z
x,-y,z
1/2+x,1/2+y,z
1/2-x,1/2-y,z
1/2+x,1/2-y,-z
1/2-x,1/2+y,-z
1/2-x,1/2-y,-z
1/2+x,1/2+y,-z
1/2-x,1/2+y,z
1/2+x,1/2-y,z
loop_
_atom_site_type_symbol
_atom_site_label
_atom_site_fract_x
_atom_site_fract_y
_atom_site_fract_z
Si Si1 0.682718 0.673028 0.870827
Si Si2 0.324160 0.916291 0.708637
Si Si3 0.683537 0.919456 0.617939
Si Si4 0.682213 0.420685 0.794090
Si Si5 0.318536 0.673957 0.453262
Si Si6 0.181912 0.672657 0.954903
O O1 0.500000 0.676940 0.872572
O O2 0.750000 0.750000 0.866642
O O3 0.730172 0.626982 0.831965
O O4 0.744768 0.641967 0.913812
O O5 0.500000 0.896230 0.712498
O O6 0.266865 0.894341 0.663556
O O7 0.237438 0.894664 0.749617
O O8 0.318862 0.000000 0.707483
O O9 0.500000 0.915426 0.617259
O O10 0.752346 0.875829 0.581220
O O11 0.724573 0.000000 0.613655
O O12 0.500000 0.421724 0.793867
O O13 0.735259 0.500000 0.799302
O O14 0.280117 0.651118 0.500000
O O15 0.500000 0.677287 0.449975
O O16 0.250000 0.750000 0.447861
O O17 0.250000 0.750000 0.956199
O O18 0.000000 0.676340 0.950459
O O19 0.215510 0.641162 0.000000
#
# Coordination Sequence:
#
# PCOD9485097 Si02
#       6
#    16  16  16  16  16  16
#     4  10  19  30  46  68  94 121 150 189 233 275
#     4   8  15  29  49  72  96 123 156 193 233 278
#     4   9  18  33  53  77 103 129 160 200 244 288
#     4   9  18  32  49  69  93 123 159 194 229 274
#     4  10  21  36  53  73  99 132 168 203 241 289
#     4   9  16  26  42  64  89 117 150 187 227 273
#
# _framework density 17.262938999999999
#
# number of rings (size 3 to 8) (size 9 to 14) (size 15 to 20)
#    0.000    2.833    0.000    3.500    0.000    4.667 
#    0.000    4.167    0.000    2.500    0.000    3.500 
#    0.000    0.000    0.000    0.000    0.000    0.000 
#
# Total GULP energy -267337.088030 kJ/mol
# GULP energy per Si atom -5569.522667 kJ/mol
# Density = 1.722365 g / cm^3
# Si number density = 17.262939 Si / 1000 Ang^3
#
#
#
# Elastic Constant Matrix: (Units=GPa)
#
#
# Indices 1 2 3 4 5 6 
#
# 1 38.5327 22.4819 53.0599 0.0000 0.0000 0.0000
# 2 22.4819 41.0791 71.3469 0.0000 0.0000 0.0000
# 3 53.0599 71.3469 214.7209 0.0000 0.0000 0.0000
# 4 0.0000 0.0000 0.0000 30.7530 0.0000 0.0000
# 5 0.0000 0.0000 0.0000 0.0000 34.9531 0.0000
# 6 0.0000 0.0000 0.0000 0.0000 0.0000 20.0299
#
#
#
# Elastic Compliance Matrix: (Units=1/GPa)
#
#
# Indices 1 2 3 4 5 6 
#
# 1 0.041552 -0.011604 -0.006412 0.000000 0.000000 0.000000
# 2 -0.011604 0.060804 -0.017336 0.000000 0.000000 0.000000
# 3 -0.006412 -0.017336 0.012002 0.000000 0.000000 0.000000
# 4 0.000000 0.000000 0.000000 0.032517 0.000000 0.000000
# 5 0.000000 0.000000 0.000000 0.000000 0.028610 0.000000
# 6 0.000000 0.000000 0.000000 0.000000 0.000000 0.049925
#
#
# Mechanical properties :
#
#
# Convention : Reuss Voigt Hill
#
# Bulk Modulus (GPa) = 22.90771 65.34556 44.12663
# Shear Modulus (GPa) = 16.09445 26.97679 21.53562
#
# Velocity S-wave (km/s) = 3.05669 3.95739 3.53584
# Velocity P-wave (km/s) = 5.07509 7.66919 6.50281
#
# Compressibility (1/GPa) = 0.04365343
#
# Stress axis : x y z
#
# Youngs Moduli (GPa) = 24.06631 16.44631 83.31767
#
# Poissons Ratio (x) = 0.19084 0.53426
# Poissons Ratio (y) = 0.27926 1.44443
# Poissons Ratio (z) = 0.15432 0.28512
#
# Static dielectric constant tensor:
#      x y z
#    x 1.581520 0.000000 0.000000 
#    y 0.000000 1.564880 0.000000 
#    z 0.000000 0.000000 1.623140 
# 
# From -- ./inp_files/73060.got.cif
#   From: 2010.05.17/outbox.cif.g08.bks.cpg/sg65_37_cif.got.tgz:73060.got - 2010.06.03 17:01:31.
