data_PCOD9485023
_publ_section_title
;
Structure prediction by ZEFSAII (Michael W. Deem and Ramdas Pophale) SiO2 
 PCOD9485023
Probable space group: C M M M
;
_chemical_formula_sum "Si O2"
_cell_formula_units_Z 104
_cell_length_a 27.863889
_cell_length_b 8.783925
_cell_length_c 27.412734
_cell_angle_alpha 90.000000
_cell_angle_beta 90.000000
_cell_angle_gamma 90.000000
_cell_volume 6709.384828
_symmetry_space_group_name_H-M "C M M M"
_symmetry_group_IT_number 65
_symmetry_cell_setting 'orthorhombic'
loop_
_space_group_symop_operation_xyz
x,y,z
-x,-y,z
x,-y,-z
-x,y,-z
-x,-y,-z
x,y,-z
-x,y,z
x,-y,z
1/2+x,1/2+y,z
1/2-x,1/2-y,z
1/2+x,1/2-y,-z
1/2-x,1/2+y,-z
1/2-x,1/2-y,-z
1/2+x,1/2+y,-z
1/2-x,1/2+y,z
1/2+x,1/2-y,z
loop_
_atom_site_type_symbol
_atom_site_label
_atom_site_fract_x
_atom_site_fract_y
_atom_site_fract_z
Si Si1 0.056582 0.315930 0.159239
Si Si2 0.303527 0.318452 0.500000
Si Si3 0.557852 0.817895 0.052456
Si Si4 0.444797 0.683463 0.644794
Si Si5 0.893837 0.181982 0.746045
Si Si6 0.302336 0.181731 0.696947
Si Si7 0.646331 0.181764 0.405163
O O1 0.059944 0.500000 0.160340
O O2 0.074173 0.261657 0.105545
O O3 0.085168 0.247004 0.204113
O O4 0.000000 0.277599 0.163916
O O5 0.300444 0.500000 0.500000
O O6 0.250000 0.250000 0.500000
O O7 0.331656 0.261101 0.547696
O O8 0.500000 0.799999 0.052757
O O9 0.566640 0.000000 0.051983
O O10 0.575441 0.755978 0.000000
O O11 0.500000 0.727996 0.636904
O O12 0.441277 0.500000 0.640075
O O13 0.428018 0.722850 0.699920
O O14 0.406775 0.760086 0.608587
O O15 0.841926 0.249177 0.733037
O O16 0.891427 0.000000 0.748344
O O17 0.250000 0.250000 0.704631
O O18 0.320973 0.218246 0.642203
O O19 0.301345 0.000000 0.701805
O O20 0.646111 0.000000 0.411774
#
# Coordination Sequence:
#
# PCOD9485023 Si02
#       7
#    16   8  16  16  16  16  16
#     4   9  16  25  39  61  89 120 155 195 233 268
#     4  12  24  38  57  78 101 126 152 187 229 273
#     4   7  10  18  33  53  78 111 151 191 229 268
#     4   9  18  33  51  70  95 128 162 193 227 268
#     4  10  19  30  45  66  93 124 156 189 226 272
#     4  10  20  34  52  72  94 120 149 184 227 273
#     4  10  21  36  54  77 101 124 153 188 226 270
#
# _framework density 15.500674999999999
#
# number of rings (size 3 to 8) (size 9 to 14) (size 15 to 20)
#    0.000    2.615    0.000    4.385    0.000    4.923 
#    0.000    0.385    0.000    2.769    0.000    2.154 
#    0.000    0.615    0.000    1.692    0.000    2.462 
#
# Total GULP energy -289816.259941 kJ/mol
# GULP energy per Si atom -5573.389614 kJ/mol
# Density = 1.546540 g / cm^3
# Si number density = 15.500675 Si / 1000 Ang^3
#
#
#
# Elastic Constant Matrix: (Units=GPa)
#
#
# Indices 1 2 3 4 5 6 
#
# 1 118.8292 43.5344 76.2847 0.0000 0.0000 0.0000
# 2 43.5344 39.0113 53.3034 0.0000 0.0000 0.0000
# 3 76.2847 53.3034 155.8637 0.0000 0.0000 0.0000
# 4 0.0000 0.0000 0.0000 16.9598 0.0000 0.0000
# 5 0.0000 0.0000 0.0000 0.0000 15.7817 0.0000
# 6 0.0000 0.0000 0.0000 0.0000 0.0000 25.2857
#
#
#
# Elastic Compliance Matrix: (Units=1/GPa)
#
#
# Indices 1 2 3 4 5 6 
#
# 1 0.014959 -0.012558 -0.003027 0.000000 0.000000 0.000000
# 2 -0.012558 0.058660 -0.013915 0.000000 0.000000 0.000000
# 3 -0.003027 -0.013915 0.012656 0.000000 0.000000 0.000000
# 4 0.000000 0.000000 0.000000 0.058963 0.000000 0.000000
# 5 0.000000 0.000000 0.000000 0.000000 0.063365 0.000000
# 6 0.000000 0.000000 0.000000 0.000000 0.000000 0.039548
#
#
# Mechanical properties :
#
#
# Convention : Reuss Voigt Hill
#
# Bulk Modulus (GPa) = 36.66192 73.32768 54.99480
# Shear Modulus (GPa) = 15.81064 20.97755 18.39409
#
# Velocity S-wave (km/s) = 3.19720 3.68276 3.44854
# Velocity P-wave (km/s) = 6.11005 8.09274 7.17025
#
# Compressibility (1/GPa) = 0.02727626
#
# Stress axis : x y z
#
# Youngs Moduli (GPa) = 66.84755 17.04732 79.01383
#
# Poissons Ratio (x) = 0.21408 0.23917
# Poissons Ratio (y) = 0.83947 1.09946
# Poissons Ratio (z) = 0.20234 0.23721
#
# Static dielectric constant tensor:
#      x y z
#    x 1.486830 0.000000 0.000000 
#    y 0.000000 1.516330 0.000000 
#    z 0.000000 0.000000 1.532230 
# 
# From -- ./inp_files/71817.got.cif
#   From: 2010.05.17/outbox.cif.g08.bks.cpg/sg65_36_cif.got.tgz:71817.got - 2010.06.03 17:01:31.
