data_PCOD9485785
_publ_section_title
;
Structure prediction by ZEFSAII (Michael W. Deem and Ramdas Pophale) SiO2 
 PCOD9485785
Probable space group: C M M M
;
_chemical_formula_sum "Si O2"
_cell_formula_units_Z 120
_cell_length_a 27.326474
_cell_length_b 8.711237
_cell_length_c 27.755453
_cell_angle_alpha 90.000000
_cell_angle_beta 90.000000
_cell_angle_gamma 90.000000
_cell_volume 6607.113183
_symmetry_space_group_name_H-M "C M M M"
_symmetry_group_IT_number 65
_symmetry_cell_setting 'orthorhombic'
loop_
_space_group_symop_operation_xyz
x,y,z
-x,-y,z
x,-y,-z
-x,y,-z
-x,-y,-z
x,y,-z
-x,y,z
x,-y,z
1/2+x,1/2+y,z
1/2-x,1/2-y,z
1/2+x,1/2-y,-z
1/2-x,1/2+y,-z
1/2-x,1/2-y,-z
1/2+x,1/2+y,-z
1/2-x,1/2+y,z
1/2+x,1/2-y,z
loop_
_atom_site_type_symbol
_atom_site_label
_atom_site_fract_x
_atom_site_fract_y
_atom_site_fract_z
Si Si1 0.695186 0.315995 0.351849
Si Si2 0.000000 0.686359 0.443609
Si Si3 0.638710 0.683574 0.144536
Si Si4 0.695364 0.816337 0.945961
Si Si5 0.804161 0.815158 0.758752
Si Si6 0.941851 0.676556 0.195987
Si Si7 0.402065 0.179196 0.611925
Si Si8 0.941225 0.827610 0.703810
O O1 0.697897 0.500000 0.354217
O O2 0.750000 0.250000 0.361128
O O3 0.681224 0.271139 0.296189
O O4 0.651545 0.257728 0.386759
O O5 0.051617 0.739808 0.419882
O O6 0.000000 0.500000 0.437720
O O7 0.000000 0.722489 0.500000
O O8 0.637474 0.500000 0.144082
O O9 0.664896 0.744822 0.097279
O O10 0.665953 0.735248 0.194069
O O11 0.585279 0.755221 0.150254
O O12 0.750000 0.750000 0.942737
O O13 0.696968 0.000000 0.941028
O O14 0.676744 0.779701 0.000000
O O15 0.750000 0.750000 0.764812
O O16 0.803654 0.000000 0.759419
O O17 0.927756 0.500000 0.204729
O O18 0.928789 0.780285 0.242164
O O19 0.000000 0.682184 0.190879
O O20 0.421810 0.206488 0.665824
O O21 0.395618 0.000000 0.600816
O O22 0.000000 0.829676 0.700267
O O23 0.922769 0.000000 0.692908
#
# Coordination Sequence:
#
# PCOD9485785 Si02
#       8
#    16   8  16  16  16  16  16  16
#     4  10  20  35  53  77 112 150 188 226 267 321
#     4   9  20  38  59  85 115 145 181 231 290 343
#     4  11  21  33  52  77 105 138 175 216 268 324
#     4  10  21  37  56  78 104 133 169 216 268 320
#     4   9  19  32  47  71 104 140 175 210 252 305
#     4  10  21  35  51  73 104 141 181 221 261 311
#     4  11  20  33  56  82 109 144 186 230 278 334
#     4  10  19  31  49  75 109 145 182 223 269 317
#
# _framework density 18.162243
#
# number of rings (size 3 to 8) (size 9 to 14) (size 15 to 20)
#    0.000    1.933    0.667    3.600    0.000    5.867 
#    0.000    0.000    0.000    4.000    0.000    2.800 
#    0.000    0.000    0.000    0.000    0.000    0.000 
#
# Total GULP energy -334666.818531 kJ/mol
# GULP energy per Si atom -5577.780309 kJ/mol
# Density = 1.812091 g / cm^3
# Si number density = 18.162243 Si / 1000 Ang^3
#
#
#
# Elastic Constant Matrix: (Units=GPa)
#
#
# Indices 1 2 3 4 5 6 
#
# 1 87.7252 27.1601 57.1004 0.0000 0.0000 0.0000
# 2 27.1601 40.4143 17.2994 0.0000 0.0000 0.0000
# 3 57.1004 17.2994 69.5638 0.0000 0.0000 0.0000
# 4 0.0000 0.0000 0.0000 4.8430 0.0000 0.0000
# 5 0.0000 0.0000 0.0000 0.0000 28.0938 0.0000
# 6 0.0000 0.0000 0.0000 0.0000 0.0000 30.7958
#
#
#
# Elastic Compliance Matrix: (Units=1/GPa)
#
#
# Indices 1 2 3 4 5 6 
#
# 1 0.027621 -0.009913 -0.020207 0.000000 0.000000 0.000000
# 2 -0.009913 0.031249 0.000366 0.000000 0.000000 0.000000
# 3 -0.020207 0.000366 0.030871 0.000000 0.000000 0.000000
# 4 0.000000 0.000000 0.000000 0.206482 0.000000 0.000000
# 5 0.000000 0.000000 0.000000 0.000000 0.035595 0.000000
# 6 0.000000 0.000000 0.000000 0.000000 0.000000 0.032472
#
#
# Mechanical properties :
#
#
# Convention : Reuss Voigt Hill
#
# Bulk Modulus (GPa) = 33.07692 44.53588 38.80640
# Shear Modulus (GPa) = 11.52402 19.15609 15.34005
#
# Velocity S-wave (km/s) = 2.52167 3.25117 2.90937
# Velocity P-wave (km/s) = 5.17009 6.21835 5.71829
#
# Compressibility (1/GPa) = 0.03023256
#
# Stress axis : x y z
#
# Youngs Moduli (GPa) = 36.20402 32.00095 32.39268
#
# Poissons Ratio (x) = 0.31722 0.65457
# Poissons Ratio (y) = 0.35889 -0.01185
# Poissons Ratio (z) = 0.73159 -0.01170
#
# Static dielectric constant tensor:
#      x y z
#    x -0.055260 0.000000 0.000000 
#    y 0.000000 1.625750 0.000000 
#    z 0.000000 0.000000 1.600710 
# 
# From -- ./inp_files/76148.got.cif
#   From: 2010.05.17/outbox.cif.g08.bks.cpg/sg65_39_cif.got.tgz:76148.got - 2010.06.03 17:01:31.
