data_PCOD9485605
_publ_section_title
;
Structure prediction by ZEFSAII (Michael W. Deem and Ramdas Pophale) SiO2 
 PCOD9485605
Probable space group: C M M M
;
_chemical_formula_sum "Si O2"
_cell_formula_units_Z 104
_cell_length_a 30.463905
_cell_length_b 22.903086
_cell_length_c 8.895447
_cell_angle_alpha 90.000000
_cell_angle_beta 90.000000
_cell_angle_gamma 90.000000
_cell_volume 6206.508474
_symmetry_space_group_name_H-M "C M M M"
_symmetry_group_IT_number 65
_symmetry_cell_setting 'orthorhombic'
loop_
_space_group_symop_operation_xyz
x,y,z
-x,-y,z
x,-y,-z
-x,y,-z
-x,-y,-z
x,y,-z
-x,y,z
x,-y,z
1/2+x,1/2+y,z
1/2-x,1/2-y,z
1/2+x,1/2-y,-z
1/2-x,1/2+y,-z
1/2-x,1/2-y,-z
1/2+x,1/2+y,-z
1/2-x,1/2+y,z
1/2+x,1/2-y,z
loop_
_atom_site_type_symbol
_atom_site_label
_atom_site_fract_x
_atom_site_fract_y
_atom_site_fract_z
Si Si1 0.622525 0.430897 0.179395
Si Si2 0.449016 0.653435 0.320385
Si Si3 0.551235 0.219472 0.179744
Si Si4 0.693690 0.930506 0.179402
Si Si5 0.605317 0.885729 0.319117
Si Si6 0.785548 0.070891 0.326729
Si Si7 0.449802 0.000000 0.682642
O O1 0.617338 0.500000 0.212897
O O2 0.583874 0.393968 0.253481
O O3 0.669684 0.411379 0.244552
O O4 0.622198 0.423885 0.000000
O O5 0.444005 0.657174 0.500000
O O6 0.500000 0.638661 0.287573
O O7 0.440166 0.716529 0.247152
O O8 0.500000 0.205189 0.213114
O O9 0.582479 0.171516 0.253178
O O10 0.556580 0.220458 0.000000
O O11 0.653917 0.896482 0.256313
O O12 0.740958 0.911492 0.243062
O O13 0.688403 0.000000 0.213345
O O14 0.692489 0.923792 0.000000
O O15 0.606110 0.883338 0.500000
O O16 0.576238 0.941995 0.271769
O O17 0.785370 0.089926 0.500000
O O18 0.785522 0.000000 0.325181
O O19 0.500000 0.000000 0.736249
O O20 0.450767 0.000000 0.500000
#
# Coordination Sequence:
#
# PCOD9485605 Si02
#       7
#    16  16  16  16  16  16   8
#     4  10  20  34  54  82 114 144 173 208 258 312
#     4  10  21  37  57  80 106 139 179 219 257 303
#     4  10  21  37  55  75 101 136 178 221 266 316
#     4  10  19  31  48  72 105 139 175 219 269 318
#     4  11  20  32  51  74 103 137 178 223 268 317
#     4   9  17  30  50  75 104 138 176 215 257 308
#     4   9  18  30  45  69 101 135 171 217 270 317
#
# _framework density 16.756602000000001
#
# number of rings (size 3 to 8) (size 9 to 14) (size 15 to 20)
#    0.000    2.077    0.769    3.231    0.000    6.154 
#    0.000    1.538    0.000    2.769    0.000    6.462 
#    0.000    0.000    0.000    0.000    0.000    0.000 
#
# Total GULP energy -290246.471812 kJ/mol
# GULP energy per Si atom -5581.662919 kJ/mol
# Density = 1.671846 g / cm^3
# Si number density = 16.756602 Si / 1000 Ang^3
#
#
#
# Elastic Constant Matrix: (Units=GPa)
#
#
# Indices 1 2 3 4 5 6 
#
# 1 168.2235 88.2438 80.3340 0.0000 0.0000 0.0000
# 2 88.2438 76.4164 57.6514 0.0000 0.0000 0.0000
# 3 80.3340 57.6514 91.0243 0.0000 0.0000 0.0000
# 4 0.0000 0.0000 0.0000 26.6096 0.0000 0.0000
# 5 0.0000 0.0000 0.0000 0.0000 31.9803 0.0000
# 6 0.0000 0.0000 0.0000 0.0000 0.0000 13.0004
#
#
#
# Elastic Compliance Matrix: (Units=1/GPa)
#
#
# Indices 1 2 3 4 5 6 
#
# 1 0.016041 -0.015021 -0.004644 0.000000 0.000000 0.000000
# 2 -0.015021 0.039126 -0.011525 0.000000 0.000000 0.000000
# 3 -0.004644 -0.011525 0.022384 0.000000 0.000000 0.000000
# 4 0.000000 0.000000 0.000000 0.037580 0.000000 0.000000
# 5 0.000000 0.000000 0.000000 0.000000 0.031269 0.000000
# 6 0.000000 0.000000 0.000000 0.000000 0.000000 0.076921
#
#
# Mechanical properties :
#
#
# Convention : Reuss Voigt Hill
#
# Bulk Modulus (GPa) = 65.90552 87.56920 76.73736
# Shear Modulus (GPa) = 17.19643 21.61372 19.40507
#
# Velocity S-wave (km/s) = 3.20699 3.59536 3.40671
# Velocity P-wave (km/s) = 7.28900 8.34317 7.83384
#
# Compressibility (1/GPa) = 0.01517324
#
# Stress axis : x y z
#
# Youngs Moduli (GPa) = 62.33844 25.55822 44.67522
#
# Poissons Ratio (x) = 0.38390 0.20747
# Poissons Ratio (y) = 0.93637 0.51486
# Poissons Ratio (z) = 0.28949 0.29455
#
# Static dielectric constant tensor:
#      x y z
#    x 1.551660 0.000000 0.000000 
#    y 0.000000 1.535880 0.000000 
#    z 0.000000 0.000000 1.555240 
# 
# From -- ./inp_files/14747.got.cif
#   From: 2010.05.17/outbox.cif.g08.bks.cpg/sg65_8_cif.got.tgz:14747.got - 2010.06.03 17:01:31.
