data_PCOD9485991
_publ_section_title
;
Structure prediction by ZEFSAII (Michael W. Deem and Ramdas Pophale) SiO2 
 PCOD9485991
Probable space group: C M M M
;
_chemical_formula_sum "Si O2"
_cell_formula_units_Z 88
_cell_length_a 9.078851
_cell_length_b 29.409842
_cell_length_c 19.868374
_cell_angle_alpha 90.000000
_cell_angle_beta 90.000000
_cell_angle_gamma 90.000000
_cell_volume 5305.006330
_symmetry_space_group_name_H-M "C M M M"
_symmetry_group_IT_number 65
_symmetry_cell_setting 'orthorhombic'
loop_
_space_group_symop_operation_xyz
x,y,z
-x,-y,z
x,-y,-z
-x,y,-z
-x,-y,-z
x,y,-z
-x,y,z
x,-y,z
1/2+x,1/2+y,z
1/2-x,1/2-y,z
1/2+x,1/2-y,-z
1/2-x,1/2+y,-z
1/2-x,1/2-y,-z
1/2+x,1/2+y,-z
1/2-x,1/2+y,z
1/2+x,1/2-y,z
loop_
_atom_site_type_symbol
_atom_site_label
_atom_site_fract_x
_atom_site_fract_y
_atom_site_fract_z
Si Si1 0.167550 0.886496 0.676604
Si Si2 0.825846 0.297157 0.700176
Si Si3 0.675257 0.202588 0.860562
Si Si4 0.320640 0.448290 0.799688
Si Si5 0.676959 0.614394 0.077121
Si Si6 0.500000 0.553248 0.580096
O O1 0.261154 0.841687 0.664486
O O2 0.228695 0.916095 0.738526
O O3 0.000000 0.871191 0.695759
O O4 0.137414 0.920412 0.614309
O O5 0.750000 0.250000 0.679439
O O6 0.795871 0.303434 0.780408
O O7 0.000000 0.293757 0.691075
O O8 0.500000 0.204728 0.870300
O O9 0.750000 0.250000 0.881019
O O10 0.744713 0.160548 0.899929
O O11 0.500000 0.449545 0.795340
O O12 0.268244 0.500000 0.793896
O O13 0.281615 0.424976 0.870225
O O14 0.500000 0.620654 0.082130
O O15 0.712464 0.603228 0.000000
O O16 0.500000 0.500000 0.599404
O O17 0.500000 0.556808 0.500000
#
# Coordination Sequence:
#
# PCOD9485991 Si02
#       6
#    16  16  16  16  16   8
#     4   9  17  29  53  80 106 139 172 210 256 303
#     4  10  19  31  51  80 109 135 176 222 265 313
#     4  10  20  33  50  70  96 128 166 212 261 313
#     4   9  16  28  48  72  97 126 167 210 253 303
#     4  10  20  32  47  68  96 128 166 213 262 309
#     4   9  18  32  56  90 119 143 179 217 253 305
#
# _framework density 16.588104999999999
#
# number of rings (size 3 to 8) (size 9 to 14) (size 15 to 20)
#    0.545    1.909    1.818    1.636    0.000    2.545 
#    0.000    1.818    0.000    4.909    0.000    2.545 
#    0.000    0.000    0.000    0.000    0.000    0.000 
#
# Total GULP energy -245131.058511 kJ/mol
# GULP energy per Si atom -5571.160421 kJ/mol
# Density = 1.655035 g / cm^3
# Si number density = 16.588105 Si / 1000 Ang^3
#
#
#
# Elastic Constant Matrix: (Units=GPa)
#
#
# Indices 1 2 3 4 5 6 
#
# 1 25.8044 34.9205 21.0637 0.0000 0.0000 0.0000
# 2 34.9205 147.5986 51.5089 0.0000 0.0000 0.0000
# 3 21.0637 51.5089 64.1733 0.0000 0.0000 0.0000
# 4 0.0000 0.0000 0.0000 23.0153 0.0000 0.0000
# 5 0.0000 0.0000 0.0000 0.0000 8.1503 0.0000
# 6 0.0000 0.0000 0.0000 0.0000 0.0000 25.1998
#
#
#
# Elastic Compliance Matrix: (Units=1/GPa)
#
#
# Indices 1 2 3 4 5 6 
#
# 1 0.063144 -0.010705 -0.012133 0.000000 0.000000 0.000000
# 2 -0.010705 0.011226 -0.005497 0.000000 0.000000 0.000000
# 3 -0.012133 -0.005497 0.023978 0.000000 0.000000 0.000000
# 4 0.000000 0.000000 0.000000 0.043449 0.000000 0.000000
# 5 0.000000 0.000000 0.000000 0.000000 0.122695 0.000000
# 6 0.000000 0.000000 0.000000 0.000000 0.000000 0.039683
#
#
# Mechanical properties :
#
#
# Convention : Reuss Voigt Hill
#
# Bulk Modulus (GPa) = 23.99408 50.28470 37.13939
# Shear Modulus (GPa) = 13.34263 19.94529 16.64396
#
# Velocity S-wave (km/s) = 2.83918 3.47130 3.17103
# Velocity P-wave (km/s) = 5.02434 6.81514 5.98707
#
# Compressibility (1/GPa) = 0.04167694
#
# Stress axis : x y z
#
# Youngs Moduli (GPa) = 15.83680 89.07745 41.70560
#
# Poissons Ratio (x) = 0.95357 0.50603
# Poissons Ratio (y) = 0.16953 0.22926
# Poissons Ratio (z) = 0.19215 0.48966
#
# Static dielectric constant tensor:
#      x y z
#    x 1.556290 0.000000 0.000000 
#    y 0.000000 1.549790 0.000000 
#    z 0.000000 0.000000 1.557100 
# 
# From -- ./inp_files/60726.got.cif
#   From: 2010.05.17/outbox.cif.g08.bks.cpg/sg65_31_cif.got.tgz:60726.got - 2010.06.03 17:01:31.
