data_PCOD9485554
_publ_section_title
;
Structure prediction by ZEFSAII (Michael W. Deem and Ramdas Pophale) SiO2 
 PCOD9485554
Probable space group: C M M M
;
_chemical_formula_sum "Si O2"
_cell_formula_units_Z 104
_cell_length_a 29.638704
_cell_length_b 7.507400
_cell_length_c 24.227572
_cell_angle_alpha 90.000000
_cell_angle_beta 90.000000
_cell_angle_gamma 90.000000
_cell_volume 5390.867510
_symmetry_space_group_name_H-M "C M M M"
_symmetry_group_IT_number 65
_symmetry_cell_setting 'orthorhombic'
loop_
_space_group_symop_operation_xyz
x,y,z
-x,-y,z
x,-y,-z
-x,y,-z
-x,-y,-z
x,y,-z
-x,y,z
x,-y,z
1/2+x,1/2+y,z
1/2-x,1/2-y,z
1/2+x,1/2-y,-z
1/2-x,1/2+y,-z
1/2-x,1/2-y,-z
1/2+x,1/2+y,-z
1/2-x,1/2+y,z
1/2+x,1/2-y,z
loop_
_atom_site_type_symbol
_atom_site_label
_atom_site_fract_x
_atom_site_fract_y
_atom_site_fract_z
Si Si1 0.696625 0.214536 0.120661
Si Si2 0.950501 0.791360 0.591549
Si Si3 0.550197 0.216105 0.278893
Si Si4 0.197119 0.788147 0.670378
Si Si5 0.147324 0.217969 0.439956
Si Si6 0.860431 0.293308 0.776976
Si Si7 0.196517 0.287214 0.000000
O O1 0.750000 0.250000 0.128703
O O2 0.666551 0.284389 0.171062
O O3 0.681317 0.280872 0.059982
O O4 0.693019 0.000000 0.119978
O O5 0.944847 0.777612 0.657791
O O6 0.904518 0.719721 0.565906
O O7 0.000000 0.714737 0.577677
O O8 0.952112 0.000000 0.576659
O O9 0.500000 0.267933 0.260047
O O10 0.591416 0.283213 0.241843
O O11 0.552090 0.000000 0.280568
O O12 0.250000 0.750000 0.672594
O O13 0.175606 0.722051 0.612972
O O14 0.171384 0.712628 0.723263
O O15 0.190353 0.000000 0.672586
O O16 0.165348 0.270666 0.500000
O O17 0.146893 0.000000 0.438323
O O18 0.869056 0.500000 0.790611
O O19 0.250000 0.250000 0.000000
O O20 0.189297 0.500000 0.000000
#
# Coordination Sequence:
#
# PCOD9485554 Si02
#       7
#    16  16  16  16  16  16   8
#     4   9  17  28  43  65  91 121 152 184 219 260
#     4   9  16  28  48  71  91 112 141 178 222 272
#     4   9  17  29  46  67  92 120 146 177 220 268
#     4  11  22  35  50  67  89 118 150 188 230 268
#     4   9  18  32  48  67  90 115 146 183 223 269
#     4  10  19  31  48  70  94 119 151 186 223 267
#     4   8  14  26  42  60  87 119 151 183 218 256
#
# _framework density 19.291886999999999
#
# number of rings (size 3 to 8) (size 9 to 14) (size 15 to 20)
#    0.000    2.615    1.538    0.923    0.000    2.462 
#    0.000    1.538    0.000    3.692    0.000    2.692 
#    0.000    4.308    0.000    0.000    0.000   36.538 
#
# Total GULP energy -290014.653649 kJ/mol
# GULP energy per Si atom -5577.204878 kJ/mol
# Density = 1.924798 g / cm^3
# Si number density = 19.291887 Si / 1000 Ang^3
#
#
#
# Elastic Constant Matrix: (Units=GPa)
#
#
# Indices 1 2 3 4 5 6 
#
# 1 109.8071 -6.5257 62.8207 0.0000 0.0000 0.0000
# 2 -6.5257 54.3528 -5.1396 0.0000 0.0000 0.0000
# 3 62.8207 -5.1396 147.0017 0.0000 0.0000 0.0000
# 4 0.0000 0.0000 0.0000 10.1460 0.0000 0.0000
# 5 0.0000 0.0000 0.0000 0.0000 26.9588 0.0000
# 6 0.0000 0.0000 0.0000 0.0000 0.0000 -4.7493
#
#
#
# Elastic Compliance Matrix: (Units=1/GPa)
#
#
# Indices 1 2 3 4 5 6 
#
# 1 0.012104 0.000967 -0.005139 0.000000 0.000000 0.000000
# 2 0.000967 0.018537 0.000235 0.000000 0.000000 0.000000
# 3 -0.005139 0.000235 0.009007 0.000000 0.000000 0.000000
# 4 0.000000 0.000000 0.000000 0.098561 0.000000 0.000000
# 5 0.000000 0.000000 0.000000 0.000000 0.037094 0.000000
# 6 0.000000 0.000000 0.000000 0.000000 0.000000 -0.210556
#
#
# Mechanical properties :
#
#
# Convention : Reuss Voigt Hill
#
# Bulk Modulus (GPa) = 31.47211 45.94138 38.70674
# Shear Modulus (GPa) = -297.84307 23.80483 -137.01912
#
# Velocity S-wave (km/s) = -12.43877 3.51654 -8.43673
# Velocity P-wave (km/s) = 13.78217 6.35245 8.64854
#
# Compressibility (1/GPa) = 0.03177417
#
# Stress axis : x y z
#
# Youngs Moduli (GPa) = 82.61486 53.94719 111.02531
#
# Poissons Ratio (x) = -0.05219 0.57055
# Poissons Ratio (y) = -0.07992 -0.02606
# Poissons Ratio (z) = 0.42455 -0.01266
#
# Static dielectric constant tensor:
#      x y z
#    x 1.664820 0.000000 0.000000 
#    y 0.000000 1.736990 0.000000 
#    z 0.000000 0.000000 1.690420 
# 
# From -- ./inp_files/72138.got.cif
#   From: 2010.05.17/outbox.cif.g08.bks.cpg/sg65_37_cif.got.tgz:72138.got - 2010.06.03 17:01:31.
