data_PCOD9485299
_publ_section_title
;
Structure prediction by ZEFSAII (Michael W. Deem and Ramdas Pophale) SiO2 
 PCOD9485299
Probable space group: C M M M
;
_chemical_formula_sum "Si O2"
_cell_formula_units_Z 80
_cell_length_a 29.933872
_cell_length_b 16.551123
_cell_length_c 7.465641
_cell_angle_alpha 90.000000
_cell_angle_beta 90.000000
_cell_angle_gamma 90.000000
_cell_volume 3698.771185
_symmetry_space_group_name_H-M "C M M M"
_symmetry_group_IT_number 65
_symmetry_cell_setting 'orthorhombic'
loop_
_space_group_symop_operation_xyz
x,y,z
-x,-y,z
x,-y,-z
-x,y,-z
-x,-y,-z
x,y,-z
-x,y,z
x,-y,z
1/2+x,1/2+y,z
1/2-x,1/2-y,z
1/2+x,1/2-y,-z
1/2-x,1/2+y,-z
1/2-x,1/2-y,-z
1/2+x,1/2+y,-z
1/2-x,1/2+y,z
1/2+x,1/2-y,z
loop_
_atom_site_type_symbol
_atom_site_label
_atom_site_fract_x
_atom_site_fract_y
_atom_site_fract_z
Si Si1 0.117332 0.000000 0.216900
Si Si2 0.721777 0.500000 0.290641
Si Si3 0.949750 0.137674 0.218275
Si Si4 0.140632 0.409898 0.712146
Si Si5 0.049304 0.322659 0.215312
Si Si6 0.769307 0.664248 0.719269
O O1 0.168458 0.000000 0.274435
O O2 0.089063 0.922105 0.277782
O O3 0.117346 0.000000 0.000000
O O4 0.734125 0.500000 0.500000
O O5 0.742174 0.415739 0.220168
O O6 0.943349 0.230224 0.276227
O O7 0.000000 0.111849 0.271190
O O8 0.949350 0.136960 0.000000
O O9 0.147971 0.415674 0.500000
O O10 0.145917 0.500000 0.787523
O O11 0.090900 0.377571 0.736952
O O12 0.179490 0.350356 0.777150
O O13 0.000000 0.349304 0.278021
O O14 0.047678 0.320331 0.000000
O O15 0.767241 0.666442 0.500000
O O16 0.750000 0.750000 0.780964
#
# Coordination Sequence:
#
# PCOD9485299 Si02
#       6
#     8   8  16  16  16  16
#     4  10  19  30  50  78 106 133 167 210 253 295
#     4  10  20  35  53  77 105 131 170 213 251 308
#     4   8  15  30  51  73 100 137 175 205 240 297
#     4  10  20  35  55  77 101 130 168 211 251 299
#     4   9  19  35  53  75 104 135 168 207 252 303
#     4   9  18  34  55  75  99 135 172 207 251 303
#
# _framework density 21.628803000000001
#
# number of rings (size 3 to 8) (size 9 to 14) (size 15 to 20)
#    0.000    2.800    1.000    1.500    2.800    2.400 
#    0.000    3.000    0.000    3.600    0.000    0.000 
#    0.000    0.000    0.000    0.000    0.000    0.000 
#
# Total GULP energy -223268.932462 kJ/mol
# GULP energy per Si atom -5581.723312 kJ/mol
# Density = 2.157958 g / cm^3
# Si number density = 21.628803 Si / 1000 Ang^3
#
#
#
# Elastic Constant Matrix: (Units=GPa)
#
#
# Indices 1 2 3 4 5 6 
#
# 1 177.9701 104.8217 -3.1343 0.0000 0.0000 0.0000
# 2 104.8217 152.8055 7.0469 0.0000 0.0000 0.0000
# 3 -3.1343 7.0469 59.7548 0.0000 0.0000 0.0000
# 4 0.0000 0.0000 0.0000 -7.0330 0.0000 0.0000
# 5 0.0000 0.0000 0.0000 0.0000 23.4183 0.0000
# 6 0.0000 0.0000 0.0000 0.0000 0.0000 40.8482
#
#
#
# Elastic Compliance Matrix: (Units=1/GPa)
#
#
# Indices 1 2 3 4 5 6 
#
# 1 0.009524 -0.006592 0.001277 0.000000 0.000000 0.000000
# 2 -0.006592 0.011143 -0.001660 0.000000 0.000000 0.000000
# 3 0.001277 -0.001660 0.016998 0.000000 0.000000 0.000000
# 4 0.000000 0.000000 0.000000 -0.142186 0.000000 0.000000
# 5 0.000000 0.000000 0.000000 0.000000 0.042702 0.000000
# 6 0.000000 0.000000 0.000000 0.000000 0.000000 0.024481
#
#
# Mechanical properties :
#
#
# Convention : Reuss Voigt Hill
#
# Bulk Modulus (GPa) = 42.16810 67.55544 54.86177
# Shear Modulus (GPa) = -322.93067 30.23310 -146.34878
#
# Velocity S-wave (km/s) = -12.23233 3.74279 -8.23473
# Velocity P-wave (km/s) = 13.41522 7.06964 8.06189
#
# Compressibility (1/GPa) = 0.02371461
#
# Stress axis : x y z
#
# Youngs Moduli (GPa) = 104.99604 89.74240 58.83121
#
# Poissons Ratio (x) = 0.59161 -0.07513
# Poissons Ratio (y) = 0.69216 0.09765
# Poissons Ratio (z) = -0.13408 0.14896
#
# Static dielectric constant tensor:
#      x y z
#    x 1.760080 0.000000 0.000000 
#    y 0.000000 1.765700 0.000000 
#    z 0.000000 0.000000 1.848150 
# 
# From -- ./inp_files/16082.got.cif
#   From: 2010.05.17/outbox.cif.g08.bks.cpg/sg65_9_cif.got.tgz:16082.got - 2010.06.03 17:01:31.
