data_PCOD9485520
_publ_section_title
;
Structure prediction by ZEFSAII (Michael W. Deem and Ramdas Pophale) SiO2 
 PCOD9485520
Probable space group: C M M M
;
_chemical_formula_sum "Si O2"
_cell_formula_units_Z 88
_cell_length_a 8.230898
_cell_length_b 32.898460
_cell_length_c 17.326117
_cell_angle_alpha 90.000000
_cell_angle_beta 90.000000
_cell_angle_gamma 90.000000
_cell_volume 4691.632989
_symmetry_space_group_name_H-M "C M M M"
_symmetry_group_IT_number 65
_symmetry_cell_setting 'orthorhombic'
loop_
_space_group_symop_operation_xyz
x,y,z
-x,-y,z
x,-y,-z
-x,y,-z
-x,-y,-z
x,y,-z
-x,y,z
x,-y,z
1/2+x,1/2+y,z
1/2-x,1/2-y,z
1/2+x,1/2-y,-z
1/2-x,1/2+y,-z
1/2-x,1/2-y,-z
1/2+x,1/2+y,-z
1/2-x,1/2+y,z
1/2+x,1/2-y,z
loop_
_atom_site_type_symbol
_atom_site_label
_atom_site_fract_x
_atom_site_fract_y
_atom_site_fract_z
Si Si1 0.190340 0.047740 0.500000
Si Si2 0.801803 0.545703 0.909925
Si Si3 0.811303 0.808038 0.584366
Si Si4 0.307900 0.206573 0.756605
Si Si5 0.196295 0.381971 0.799993
Si Si6 0.810076 0.606421 0.623510
O O1 0.273727 0.066989 0.574584
O O2 0.000000 0.058451 0.500000
O O3 0.206456 0.000000 0.500000
O O4 0.750520 0.500000 0.884367
O O5 0.742941 0.584375 0.860449
O O6 0.000000 0.545848 0.905928
O O7 0.758036 0.550134 0.000000
O O8 0.743317 0.795687 0.500000
O O9 0.731168 0.794652 0.664725
O O10 0.793542 0.856705 0.589209
O O11 0.000000 0.796136 0.587081
O O12 0.500000 0.205116 0.764017
O O13 0.250000 0.250000 0.787512
O O14 0.242520 0.165013 0.796520
O O15 0.226365 0.398131 0.713585
O O16 0.000000 0.379659 0.810432
O O17 0.000000 0.618005 0.616421
#
# Coordination Sequence:
#
# PCOD9485520 Si02
#       6
#     8  16  16  16  16  16
#     4  11  23  35  45  61  90 127 168 215 261 305
#     4   8  13  23  43  72 104 133 158 190 240 302
#     4  10  19  31  49  69  92 123 159 202 254 305
#     4  10  20  33  48  67  95 130 170 213 253 296
#     4   8  16  29  45  69  98 129 162 200 247 298
#     4  10  19  31  48  67  91 125 167 210 251 297
#
# _framework density 18.756795
#
# number of rings (size 3 to 8) (size 9 to 14) (size 15 to 20)
#    0.000    2.636    0.909    3.545    0.000    2.909 
#    0.000    1.818    0.000    0.545    0.000    0.000 
#    0.000   25.455    0.000   74.000    0.000   67.636 
#
# Total GULP energy -245130.525900 kJ/mol
# GULP energy per Si atom -5571.148316 kJ/mol
# Density = 1.871410 g / cm^3
# Si number density = 18.756795 Si / 1000 Ang^3
#
#
#
# Elastic Constant Matrix: (Units=GPa)
#
#
# Indices 1 2 3 4 5 6 
#
# 1 17.3186 19.5647 8.2812 0.0000 0.0000 0.0000
# 2 19.5647 151.1059 77.4010 0.0000 0.0000 0.0000
# 3 8.2812 77.4010 71.0076 0.0000 0.0000 0.0000
# 4 0.0000 0.0000 0.0000 26.0008 0.0000 0.0000
# 5 0.0000 0.0000 0.0000 0.0000 54.4355 0.0000
# 6 0.0000 0.0000 0.0000 0.0000 0.0000 21.9206
#
#
#
# Elastic Compliance Matrix: (Units=1/GPa)
#
#
# Indices 1 2 3 4 5 6 
#
# 1 0.068079 -0.010750 0.003778 0.000000 0.000000 0.000000
# 2 -0.010750 0.016682 -0.016930 0.000000 0.000000 0.000000
# 3 0.003778 -0.016930 0.032097 0.000000 0.000000 0.000000
# 4 0.000000 0.000000 0.000000 0.038460 0.000000 0.000000
# 5 0.000000 0.000000 0.000000 0.000000 0.018370 0.000000
# 6 0.000000 0.000000 0.000000 0.000000 0.000000 0.045619
#
#
# Mechanical properties :
#
#
# Convention : Reuss Voigt Hill
#
# Bulk Modulus (GPa) = 14.48148 49.99178 32.23663
# Shear Modulus (GPa) = 17.23369 29.41706 23.32538
#
# Velocity S-wave (km/s) = 3.03446 3.96453 3.53025
# Velocity P-wave (km/s) = 4.47377 6.90414 5.81729
#
# Compressibility (1/GPa) = 0.06905372
#
# Stress axis : x y z
#
# Youngs Moduli (GPa) = 14.68888 59.94512 31.15558
#
# Poissons Ratio (x) = 0.64441 -0.11771
# Poissons Ratio (y) = 0.15790 0.52747
# Poissons Ratio (z) = -0.05550 1.01489
#
# Static dielectric constant tensor:
#      x y z
#    x 1.674510 0.000000 0.000000 
#    y 0.000000 1.697290 0.000000 
#    z 0.000000 0.000000 1.627810 
# 
# From -- ./inp_files/50316.got.cif
#   From: 2010.05.17/outbox.cif.g08.bks.cpg/sg65_26_cif.got.tgz:50316.got - 2010.06.03 17:01:31.
