data_PCOD9485422
_publ_section_title
;
Structure prediction by ZEFSAII (Michael W. Deem and Ramdas Pophale) SiO2 
 PCOD9485422
Probable space group: C M M M
;
_chemical_formula_sum "Si O2"
_cell_formula_units_Z 80
_cell_length_a 32.017618
_cell_length_b 7.262867
_cell_length_c 15.185676
_cell_angle_alpha 90.000000
_cell_angle_beta 90.000000
_cell_angle_gamma 90.000000
_cell_volume 3531.272559
_symmetry_space_group_name_H-M "C M M M"
_symmetry_group_IT_number 65
_symmetry_cell_setting 'orthorhombic'
loop_
_space_group_symop_operation_xyz
x,y,z
-x,-y,z
x,-y,-z
-x,y,-z
-x,-y,-z
x,y,-z
-x,y,z
x,-y,z
1/2+x,1/2+y,z
1/2-x,1/2-y,z
1/2+x,1/2-y,-z
1/2-x,1/2+y,-z
1/2-x,1/2-y,-z
1/2+x,1/2+y,-z
1/2-x,1/2+y,z
1/2+x,1/2-y,z
loop_
_atom_site_type_symbol
_atom_site_label
_atom_site_fract_x
_atom_site_fract_y
_atom_site_fract_z
Si Si1 0.203886 0.781293 0.714832
Si Si2 0.580829 0.276783 0.903554
Si Si3 0.374803 0.275157 0.398778
Si Si4 0.179179 0.776756 0.096107
Si Si5 0.953560 0.775579 0.282880
O O1 0.250000 0.750000 0.678244
O O2 0.166084 0.713138 0.654738
O O3 0.201089 0.709898 0.815237
O O4 0.197766 0.000000 0.720890
O O5 0.578966 0.500000 0.903607
O O6 0.629952 0.230050 0.896111
O O7 0.556734 0.215798 0.816877
O O8 0.565747 0.215774 0.000000
O O9 0.374266 0.217032 0.500000
O O10 0.374566 0.500000 0.398566
O O11 0.416481 0.217663 0.347333
O O12 0.181562 0.000000 0.094780
O O13 0.194383 0.712919 0.000000
O O14 0.000000 0.718336 0.309147
O O15 0.953006 0.000000 0.282504
#
# Coordination Sequence:
#
# PCOD9485422 Si02
#       5
#    16  16  16  16  16
#     4  10  19  31  47  66  88 115 148 183 219 261
#     4   8  12  19  32  50  75 108 142 172 205 251
#     4   9  17  29  42  56  79 111 144 179 220 262
#     4   8  13  23  40  59  81 112 146 176 210 256
#     4   9  15  22  34  54  80 110 144 177 210 255
#
# _framework density 22.654720999999999
#
# number of rings (size 3 to 8) (size 9 to 14) (size 15 to 20)
#    0.000    3.200    2.000    1.200    0.000    1.600 
#    0.000    4.000    0.000    0.000    0.000    0.000 
#    0.000    0.800    0.000    1.800    0.000    8.400 
#
# Total GULP energy -223382.101464 kJ/mol
# GULP energy per Si atom -5584.552537 kJ/mol
# Density = 2.260316 g / cm^3
# Si number density = 22.654721 Si / 1000 Ang^3
#
#
#
# Elastic Constant Matrix: (Units=GPa)
#
#
# Indices 1 2 3 4 5 6 
#
# 1 182.4950 0.1799 117.2522 0.0000 0.0000 0.0000
# 2 0.1799 100.9670 7.1919 0.0000 0.0000 0.0000
# 3 117.2522 7.1919 193.1199 0.0000 0.0000 0.0000
# 4 0.0000 0.0000 0.0000 -27.5316 0.0000 0.0000
# 5 0.0000 0.0000 0.0000 0.0000 -2.0317 0.0000
# 6 0.0000 0.0000 0.0000 0.0000 0.0000 -3.4674
#
#
#
# Elastic Compliance Matrix: (Units=1/GPa)
#
#
# Indices 1 2 3 4 5 6 
#
# 1 0.008998 0.000374 -0.005477 0.000000 0.000000 0.000000
# 2 0.000374 0.009946 -0.000598 0.000000 0.000000 0.000000
# 3 -0.005477 -0.000598 0.008526 0.000000 0.000000 0.000000
# 4 0.000000 0.000000 0.000000 -0.036322 0.000000 0.000000
# 5 0.000000 0.000000 0.000000 0.000000 -0.492205 0.000000
# 6 0.000000 0.000000 0.000000 0.000000 0.000000 -0.288401
#
#
# Mechanical properties :
#
#
# Convention : Reuss Voigt Hill
#
# Bulk Modulus (GPa) = 62.23169 80.64777 71.43973
# Shear Modulus (GPa) = -6.47082 16.85772 5.19345
#
# Velocity S-wave (km/s) = -1.69189 2.73081 1.51572
# Velocity P-wave (km/s) = 4.86956 6.75418 5.88777
#
# Compressibility (1/GPa) = 0.01606898
#
# Stress axis : x y z
#
# Youngs Moduli (GPa) = 111.13156 100.54175 117.28995
#
# Poissons Ratio (x) = -0.03761 0.64243
# Poissons Ratio (y) = -0.04158 0.07009
# Poissons Ratio (z) = 0.60870 0.06008
#
# Static dielectric constant tensor:
#      x y z
#    x 1.797780 0.000000 0.000000 
#    y 0.000000 1.659330 0.000000 
#    z 0.000000 0.000000 1.808090 
# 
# From -- ./inp_files/38523.got.cif
#   From: 2010.05.17/outbox.cif.g08.bks.cpg/sg65_20_cif.got.tgz:38523.got - 2010.06.03 17:01:31.
