data_PCOD9485011
_publ_section_title
;
Structure prediction by ZEFSAII (Michael W. Deem and Ramdas Pophale) SiO2 
 PCOD9485011
Probable space group: C M M M
;
_chemical_formula_sum "Si O2"
_cell_formula_units_Z 72
_cell_length_a 26.004025
_cell_length_b 8.931938
_cell_length_c 19.926984
_cell_angle_alpha 90.000000
_cell_angle_beta 90.000000
_cell_angle_gamma 90.000000
_cell_volume 4628.367622
_symmetry_space_group_name_H-M "C M M M"
_symmetry_group_IT_number 65
_symmetry_cell_setting 'orthorhombic'
loop_
_space_group_symop_operation_xyz
x,y,z
-x,-y,z
x,-y,-z
-x,y,-z
-x,-y,-z
x,y,-z
-x,y,z
x,-y,z
1/2+x,1/2+y,z
1/2-x,1/2-y,z
1/2+x,1/2-y,-z
1/2-x,1/2+y,-z
1/2-x,1/2-y,-z
1/2+x,1/2+y,-z
1/2-x,1/2+y,z
1/2+x,1/2-y,z
loop_
_atom_site_type_symbol
_atom_site_label
_atom_site_fract_x
_atom_site_fract_y
_atom_site_fract_z
Si Si1 0.500000 0.676290 0.419636
Si Si2 0.694496 0.678222 0.579402
Si Si3 0.061812 0.823599 0.787520
Si Si4 0.437638 0.825113 0.074322
Si Si5 0.597914 0.821382 0.652853
O O1 0.500000 0.500000 0.401610
O O2 0.500000 0.688708 0.500000
O O3 0.449697 0.753064 0.388937
O O4 0.683801 0.702415 0.500000
O O5 0.695559 0.500000 0.591013
O O6 0.750000 0.750000 0.593764
O O7 0.650052 0.754690 0.622419
O O8 0.078531 0.770136 0.861484
O O9 0.089209 0.731550 0.729125
O O10 0.000000 0.797990 0.781675
O O11 0.070750 0.000000 0.778758
O O12 0.500000 0.818928 0.073310
O O13 0.423825 0.000000 0.082945
O O14 0.420125 0.775447 0.000000
O O15 0.597548 0.000000 0.648235
#
# Coordination Sequence:
#
# PCOD9485011 Si02
#       5
#     8  16  16  16  16
#     4  11  23  37  51  69  96 129 164 203 247 295
#     4  10  21  38  58  77  98 125 160 205 253 299
#     4  10  19  30  45  65  95 131 166 204 245 290
#     4   8  14  25  41  61  88 123 162 201 239 283
#     4  12  23  34  51  73  99 131 166 204 247 298
#
# _framework density 15.556241
#
# number of rings (size 3 to 8) (size 9 to 14) (size 15 to 20)
#    0.000    1.889    1.111    5.000    0.000    6.222 
#    0.000    2.222    0.000    0.000    0.000    0.000 
#    0.000    0.889    0.000    3.333    0.000    5.111 
#
# Total GULP energy -200922.580408 kJ/mol
# GULP energy per Si atom -5581.182789 kJ/mol
# Density = 1.552083 g / cm^3
# Si number density = 15.556241 Si / 1000 Ang^3
#
#
#
# Elastic Constant Matrix: (Units=GPa)
#
#
# Indices 1 2 3 4 5 6 
#
# 1 77.7707 58.6263 59.6205 0.0000 0.0000 0.0000
# 2 58.6263 122.5299 79.6625 0.0000 0.0000 0.0000
# 3 59.6205 79.6625 113.7751 0.0000 0.0000 0.0000
# 4 0.0000 0.0000 0.0000 29.5704 0.0000 0.0000
# 5 0.0000 0.0000 0.0000 0.0000 0.4087 0.0000
# 6 0.0000 0.0000 0.0000 0.0000 0.0000 23.6356
#
#
#
# Elastic Compliance Matrix: (Units=1/GPa)
#
#
# Indices 1 2 3 4 5 6 
#
# 1 0.023664 -0.005984 -0.008210 0.000000 0.000000 0.000000
# 2 -0.005984 0.016494 -0.008413 0.000000 0.000000 0.000000
# 3 -0.008210 -0.008413 0.018982 0.000000 0.000000 0.000000
# 4 0.000000 0.000000 0.000000 0.033818 0.000000 0.000000
# 5 0.000000 0.000000 0.000000 0.000000 2.446676 0.000000
# 6 0.000000 0.000000 0.000000 0.000000 0.000000 0.042309
#
#
# Mechanical properties :
#
#
# Convention : Reuss Voigt Hill
#
# Bulk Modulus (GPa) = 71.81298 78.87715 75.34507
# Shear Modulus (GPa) = 1.89984 18.46737 10.18361
#
# Velocity S-wave (km/s) = 1.10631 3.44922 2.56135
# Velocity P-wave (km/s) = 6.92066 8.16562 7.56878
#
# Compressibility (1/GPa) = 0.01392506
#
# Stress axis : x y z
#
# Youngs Moduli (GPa) = 42.25899 60.62723 52.68162
#
# Poissons Ratio (x) = 0.36282 0.43252
# Poissons Ratio (y) = 0.25290 0.44320
# Poissons Ratio (z) = 0.34695 0.51005
#
# Static dielectric constant tensor:
#      x y z
#    x 1.482130 0.000000 0.000000 
#    y 0.000000 1.514840 0.000000 
#    z 0.000000 0.000000 1.531340 
# 
# From -- ./inp_files/49473.got.cif
#   From: 2010.05.17/outbox.cif.g08.bks.cpg/sg65_25_cif.got.tgz:49473.got - 2010.06.03 17:01:31.
