data_PCOD9485414
_publ_section_title
;
Structure prediction by ZEFSAII (Michael W. Deem and Ramdas Pophale) SiO2 
 PCOD9485414
Probable space group: C M M M
;
_chemical_formula_sum "Si O2"
_cell_formula_units_Z 104
_cell_length_a 8.106485
_cell_length_b 31.478715
_cell_length_c 23.636211
_cell_angle_alpha 90.000000
_cell_angle_beta 90.000000
_cell_angle_gamma 90.000000
_cell_volume 6031.529236
_symmetry_space_group_name_H-M "C M M M"
_symmetry_group_IT_number 65
_symmetry_cell_setting 'orthorhombic'
loop_
_space_group_symop_operation_xyz
x,y,z
-x,-y,z
x,-y,-z
-x,y,-z
-x,-y,-z
x,y,-z
-x,y,z
x,-y,z
1/2+x,1/2+y,z
1/2-x,1/2-y,z
1/2+x,1/2-y,-z
1/2-x,1/2+y,-z
1/2-x,1/2-y,-z
1/2+x,1/2+y,-z
1/2-x,1/2+y,z
1/2+x,1/2-y,z
loop_
_atom_site_type_symbol
_atom_site_label
_atom_site_fract_x
_atom_site_fract_y
_atom_site_fract_z
Si Si1 0.197665 0.704566 0.814405
Si Si2 0.804714 0.319074 0.061515
Si Si3 0.304785 0.112950 0.219204
Si Si4 0.695236 0.051170 0.561359
Si Si5 0.188468 0.000000 0.933013
Si Si6 0.305696 0.549205 0.684950
Si Si7 0.692305 0.590416 0.902199
O O1 0.250000 0.750000 0.791357
O O2 0.264166 0.699490 0.879327
O O3 0.243992 0.662863 0.778267
O O4 0.000000 0.704273 0.818275
O O5 0.779654 0.369678 0.068786
O O6 0.000000 0.310028 0.060662
O O7 0.735284 0.305759 0.000000
O O8 0.500000 0.111755 0.205911
O O9 0.273137 0.082888 0.272406
O O10 0.207713 0.096019 0.164866
O O11 0.756845 0.067154 0.500000
O O12 0.500000 0.060425 0.564807
O O13 0.777530 0.063749 0.620143
O O14 0.712602 0.000000 0.559716
O O15 0.266295 0.044503 0.915905
O O16 0.000000 0.000000 0.908791
O O17 0.176383 0.000000 0.000000
O O18 0.500000 0.548028 0.696336
O O19 0.243024 0.500000 0.690947
O O20 0.500000 0.591236 0.920008
#
# Coordination Sequence:
#
# PCOD9485414 Si02
#       7
#    16  16  16  16   8  16  16
#     4   9  19  34  51  70  91 116 148 189 238 289
#     4   9  18  33  49  66  91 117 142 179 227 283
#     4  10  21  36  50  67  93 124 157 193 236 284
#     4   8  14  26  44  66  95 133 172 203 234 273
#     4   9  18  30  43  61  85 111 142 185 232 273
#     4  10  20  31  46  71 101 132 168 205 238 271
#     4  10  19  31  47  65  86 114 150 192 235 278
#
# _framework density 17.242723999999999
#
# number of rings (size 3 to 8) (size 9 to 14) (size 15 to 20)
#    0.000    2.692    0.000    3.231    1.077    5.538 
#    0.000    2.692    0.000    2.769    0.000    0.000 
#    0.000    0.615    0.000    2.000    0.000    2.462 
#
# Total GULP energy -289618.009225 kJ/mol
# GULP energy per Si atom -5569.577100 kJ/mol
# Density = 1.720348 g / cm^3
# Si number density = 17.242724 Si / 1000 Ang^3
#
#
#
# Elastic Constant Matrix: (Units=GPa)
#
#
# Indices 1 2 3 4 5 6 
#
# 1 15.8736 2.1762 7.3991 0.0000 0.0000 0.0000
# 2 2.1762 101.9483 36.1610 0.0000 0.0000 0.0000
# 3 7.3991 36.1610 74.3280 0.0000 0.0000 0.0000
# 4 0.0000 0.0000 0.0000 -0.9566 0.0000 0.0000
# 5 0.0000 0.0000 0.0000 0.0000 15.1226 0.0000
# 6 0.0000 0.0000 0.0000 0.0000 0.0000 22.1698
#
#
#
# Elastic Compliance Matrix: (Units=1/GPa)
#
#
# Indices 1 2 3 4 5 6 
#
# 1 0.066168 0.001117 -0.007130 0.000000 0.000000 0.000000
# 2 0.001117 0.011873 -0.005888 0.000000 0.000000 0.000000
# 3 -0.007130 -0.005888 0.017028 0.000000 0.000000 0.000000
# 4 0.000000 0.000000 0.000000 -1.045392 0.000000 0.000000
# 5 0.000000 0.000000 0.000000 0.000000 0.066126 0.000000
# 6 0.000000 0.000000 0.000000 0.000000 0.000000 0.045106
#
#
# Mechanical properties :
#
#
# Convention : Reuss Voigt Hill
#
# Bulk Modulus (GPa) = 14.03163 31.51359 22.77261
# Shear Modulus (GPa) = -6.31687 17.02806 5.35560
#
# Velocity S-wave (km/s) = -1.91610 3.14594 1.76430
# Velocity P-wave (km/s) = 1.80558 5.61356 4.16966
#
# Compressibility (1/GPa) = 0.07126753
#
# Stress axis : x y z
#
# Youngs Moduli (GPa) = 15.11299 84.22195 58.72680
#
# Poissons Ratio (x) = -0.09404 0.41872
# Poissons Ratio (y) = -0.01687 0.34576
# Poissons Ratio (z) = 0.10776 0.49587
#
# Static dielectric constant tensor:
#      x y z
#    x 1.621260 0.000000 0.000000 
#    y 0.000000 1.602560 0.000000 
#    z 0.000000 0.000000 1.592300 
# 
# From -- ./inp_files/68493.got.cif
#   From: 2010.05.17/outbox.cif.g08.bks.cpg/sg65_35_cif.got.tgz:68493.got - 2010.06.03 17:01:31.
