data_PCOD9485646
_publ_section_title
;
Structure prediction by ZEFSAII (Michael W. Deem and Ramdas Pophale) SiO2 
 PCOD9485646
Probable space group: C M M M
;
_chemical_formula_sum "Si O2"
_cell_formula_units_Z 104
_cell_length_a 18.559256
_cell_length_b 7.375468
_cell_length_c 35.312222
_cell_angle_alpha 90.000000
_cell_angle_beta 90.000000
_cell_angle_gamma 90.000000
_cell_volume 4833.649902
_symmetry_space_group_name_H-M "C M M M"
_symmetry_group_IT_number 65
_symmetry_cell_setting 'orthorhombic'
loop_
_space_group_symop_operation_xyz
x,y,z
-x,-y,z
x,-y,-z
-x,y,-z
-x,-y,-z
x,y,-z
-x,y,z
x,-y,z
1/2+x,1/2+y,z
1/2-x,1/2-y,z
1/2+x,1/2-y,-z
1/2-x,1/2+y,-z
1/2-x,1/2-y,-z
1/2+x,1/2+y,-z
1/2-x,1/2+y,z
1/2+x,1/2-y,z
loop_
_atom_site_type_symbol
_atom_site_label
_atom_site_fract_x
_atom_site_fract_y
_atom_site_fract_z
Si Si1 0.835231 0.716407 0.500000
Si Si2 0.835219 0.283264 0.199166
Si Si3 0.083629 0.278194 0.424495
Si Si4 0.584071 0.779291 0.041466
Si Si5 0.083294 0.278185 0.726090
Si Si6 0.834895 0.716541 0.884355
Si Si7 0.164913 0.283633 0.349051
O O1 0.844913 0.500000 0.500000
O O2 0.750000 0.750000 0.500000
O O3 0.873958 0.783345 0.461916
O O4 0.844881 0.500000 0.198215
O O5 0.750000 0.250000 0.204564
O O6 0.880273 0.215607 0.234852
O O7 0.856429 0.213656 0.157369
O O8 0.084575 0.500000 0.424471
O O9 0.124385 0.216532 0.386589
O O10 0.000000 0.224147 0.424978
O O11 0.500000 0.730960 0.043881
O O12 0.625170 0.712640 0.078525
O O13 0.587638 0.000000 0.041599
O O14 0.611732 0.720615 0.000000
O O15 0.084957 0.500000 0.726328
O O16 0.128672 0.216477 0.689677
O O17 0.000000 0.224833 0.723271
O O18 0.846758 0.500000 0.883674
O O19 0.750000 0.750000 0.888097
O O20 0.154984 0.500000 0.348916
O O21 0.250000 0.250000 0.350318
#
# Coordination Sequence:
#
# PCOD9485646 Si02
#       7
#     8  16  16  16  16  16  16
#     4  10  19  31  49  71  95 122 152 188 226 266
#     4   9  17  29  45  64  87 114 142 175 214 256
#     4   9  17  30  49  71  92 118 155 192 222 257
#     4   8  14  25  41  61  84 109 139 176 214 250
#     4   9  17  29  46  68  90 113 146 185 219 252
#     4   9  17  28  43  64  87 111 140 174 213 255
#     4  10  19  31  49  70  92 119 149 183 222 264
#
# _framework density 21.515830999999999
#
# number of rings (size 3 to 8) (size 9 to 14) (size 15 to 20)
#    0.000    2.923    0.000    2.077    0.000    3.692 
#    0.000    3.077    0.000    5.538    0.000    5.385 
#    0.000    0.000    0.000    0.000    0.000    0.000 
#
# Total GULP energy -290342.754679 kJ/mol
# GULP energy per Si atom -5583.514513 kJ/mol
# Density = 2.146686 g / cm^3
# Si number density = 21.515831 Si / 1000 Ang^3
#
#
#
# Elastic Constant Matrix: (Units=GPa)
#
#
# Indices 1 2 3 4 5 6 
#
# 1 159.0922 -3.1406 149.7542 0.0000 0.0000 0.0000
# 2 -3.1406 78.0484 13.2554 0.0000 0.0000 0.0000
# 3 149.7542 13.2554 286.3379 0.0000 0.0000 0.0000
# 4 0.0000 0.0000 0.0000 -9.7517 0.0000 0.0000
# 5 0.0000 0.0000 0.0000 0.0000 46.9572 0.0000
# 6 0.0000 0.0000 0.0000 0.0000 0.0000 18.1351
#
#
#
# Elastic Compliance Matrix: (Units=1/GPa)
#
#
# Indices 1 2 3 4 5 6 
#
# 1 0.012585 0.001637 -0.006658 0.000000 0.000000 0.000000
# 2 0.001637 0.013127 -0.001464 0.000000 0.000000 0.000000
# 3 -0.006658 -0.001464 0.007042 0.000000 0.000000 0.000000
# 4 0.000000 0.000000 0.000000 -0.102546 0.000000 0.000000
# 5 0.000000 0.000000 0.000000 0.000000 0.021296 0.000000
# 6 0.000000 0.000000 0.000000 0.000000 0.000000 0.055142
#
#
# Mechanical properties :
#
#
# Convention : Reuss Voigt Hill
#
# Bulk Modulus (GPa) = 50.54301 93.69073 72.11687
# Shear Modulus (GPa) = 190.77474 35.30876 113.04175
#
# Velocity S-wave (km/s) = 9.42654 4.05539 7.25623
# Velocity P-wave (km/s) = 11.91728 8.09740 10.18797
#
# Compressibility (1/GPa) = 0.01978513
#
# Stress axis : x y z
#
# Youngs Moduli (GPa) = 79.46067 76.17853 142.00356
#
# Poissons Ratio (x) = -0.12471 0.94541
# Poissons Ratio (y) = -0.13009 0.20788
# Poissons Ratio (z) = 0.52902 0.11152
#
# Static dielectric constant tensor:
#      x y z
#    x 1.706260 0.000000 0.000000 
#    y 0.000000 1.828920 0.000000 
#    z 0.000000 0.000000 1.781540 
# 
# From -- ./inp_files/78052.got.cif
#   From: 2010.05.17/outbox.cif.g08.bks.cpg/sg65_40_cif.got.tgz:78052.got - 2010.06.03 17:01:31.
