data_PCOD9485170
_publ_section_title
;
Structure prediction by ZEFSAII (Michael W. Deem and Ramdas Pophale) SiO2 
 PCOD9485170
Probable space group: C M M M
;
_chemical_formula_sum "Si O2"
_cell_formula_units_Z 96
_cell_length_a 8.783654
_cell_length_b 28.287799
_cell_length_c 24.518659
_cell_angle_alpha 90.000000
_cell_angle_beta 90.000000
_cell_angle_gamma 90.000000
_cell_volume 6092.157058
_symmetry_space_group_name_H-M "C M M M"
_symmetry_group_IT_number 65
_symmetry_cell_setting 'orthorhombic'
loop_
_space_group_symop_operation_xyz
x,y,z
-x,-y,z
x,-y,-z
-x,y,-z
-x,-y,-z
x,y,-z
-x,y,z
x,-y,z
1/2+x,1/2+y,z
1/2-x,1/2-y,z
1/2+x,1/2-y,-z
1/2-x,1/2+y,-z
1/2-x,1/2-y,-z
1/2+x,1/2+y,-z
1/2-x,1/2+y,z
1/2+x,1/2-y,z
loop_
_atom_site_type_symbol
_atom_site_label
_atom_site_fract_x
_atom_site_fract_y
_atom_site_fract_z
Si Si1 0.183517 0.801871 0.061733
Si Si2 0.683410 0.445599 0.562015
Si Si3 0.817077 0.698562 0.270927
Si Si4 0.182853 0.143141 0.168533
Si Si5 0.317505 0.893305 0.663715
Si Si6 0.183792 0.554328 0.225159
O O1 0.250000 0.750000 0.073445
O O2 0.228960 0.838154 0.108953
O O3 0.000000 0.798603 0.062606
O O4 0.230150 0.815134 0.000000
O O5 0.731174 0.433864 0.500000
O O6 0.500000 0.444754 0.563237
O O7 0.731318 0.500000 0.573205
O O8 0.745901 0.411173 0.607985
O O9 0.750000 0.750000 0.281858
O O10 0.751862 0.678062 0.214226
O O11 0.775938 0.659467 0.316628
O O12 0.000000 0.700532 0.267236
O O13 0.243326 0.091191 0.183250
O O14 0.000000 0.144037 0.172528
O O15 0.500000 0.895310 0.658910
O O16 0.273425 0.927574 0.714161
O O17 0.228194 0.500000 0.217118
O O18 0.000000 0.557804 0.221455
#
# Coordination Sequence:
#
# PCOD9485170 Si02
#       6
#    16  16  16  16  16  16
#     4   9  18  31  46  66  92 120 150 186 227 270
#     4   9  18  31  46  67  95 123 150 183 223 265
#     4  10  20  33  48  68  95 123 152 188 229 272
#     4  10  19  30  47  70  94 121 153 188 227 274
#     4   9  18  31  47  68  92 118 149 185 225 268
#     4   9  18  32  48  67  94 124 152 188 232 272
#
# _framework density 15.757965
#
# number of rings (size 3 to 8) (size 9 to 14) (size 15 to 20)
#    0.000    2.667    0.000    3.500    0.000    7.667 
#    0.000    0.833    0.000    1.000    0.000    3.500 
#    0.000    0.000    0.000    0.000    0.000    0.000 
#
# Total GULP energy -267596.989242 kJ/mol
# GULP energy per Si atom -5574.937276 kJ/mol
# Density = 1.572210 g / cm^3
# Si number density = 15.757965 Si / 1000 Ang^3
#
#
#
# Elastic Constant Matrix: (Units=GPa)
#
#
# Indices 1 2 3 4 5 6 
#
# 1 24.9214 41.3651 36.3557 0.0000 0.0000 0.0000
# 2 41.3651 148.8648 96.4548 0.0000 0.0000 0.0000
# 3 36.3557 96.4548 132.4218 0.0000 0.0000 0.0000
# 4 0.0000 0.0000 0.0000 23.2733 0.0000 0.0000
# 5 0.0000 0.0000 0.0000 0.0000 22.2458 0.0000
# 6 0.0000 0.0000 0.0000 0.0000 0.0000 26.9183
#
#
#
# Elastic Compliance Matrix: (Units=1/GPa)
#
#
# Indices 1 2 3 4 5 6 
#
# 1 0.082495 -0.015620 -0.011271 0.000000 0.000000 0.000000
# 2 -0.015620 0.015679 -0.007132 0.000000 0.000000 0.000000
# 3 -0.011271 -0.007132 0.015841 0.000000 0.000000 0.000000
# 4 0.000000 0.000000 0.000000 0.042968 0.000000 0.000000
# 5 0.000000 0.000000 0.000000 0.000000 0.044952 0.000000
# 6 0.000000 0.000000 0.000000 0.000000 0.000000 0.037149
#
#
# Mechanical properties :
#
#
# Convention : Reuss Voigt Hill
#
# Bulk Modulus (GPa) = 21.75396 72.72883 47.24139
# Shear Modulus (GPa) = 15.50613 23.28964 19.39788
#
# Velocity S-wave (km/s) = 3.14031 3.84860 3.51235
# Velocity P-wave (km/s) = 5.19459 8.12421 6.81860
#
# Compressibility (1/GPa) = 0.04596865
#
# Stress axis : x y z
#
# Youngs Moduli (GPa) = 12.12195 63.78001 63.12758
#
# Poissons Ratio (x) = 0.99624 0.71152
# Poissons Ratio (y) = 0.18934 0.45023
# Poissons Ratio (z) = 0.13663 0.45488
#
# Static dielectric constant tensor:
#      x y z
#    x 1.532090 0.000000 0.000000 
#    y 0.000000 1.511920 0.000000 
#    z 0.000000 0.000000 1.518420 
# 
# From -- ./inp_files/60180.got.cif
#   From: 2010.05.17/outbox.cif.g08.bks.cpg/sg65_31_cif.got.tgz:60180.got - 2010.06.03 17:01:31.
