data_PCOD9485566
_publ_section_title
;
Structure prediction by ZEFSAII (Michael W. Deem and Ramdas Pophale) SiO2 
 PCOD9485566
Probable space group: C M M M
;
_chemical_formula_sum "Si O2"
_cell_formula_units_Z 96
_cell_length_a 27.836308
_cell_length_b 19.896650
_cell_length_c 7.544558
_cell_angle_alpha 90.000000
_cell_angle_beta 90.000000
_cell_angle_gamma 90.000000
_cell_volume 4178.547998
_symmetry_space_group_name_H-M "C M M M"
_symmetry_group_IT_number 65
_symmetry_cell_setting 'orthorhombic'
loop_
_space_group_symop_operation_xyz
x,y,z
-x,-y,z
x,-y,-z
-x,y,-z
-x,-y,-z
x,y,-z
-x,y,z
x,-y,z
1/2+x,1/2+y,z
1/2-x,1/2-y,z
1/2+x,1/2-y,-z
1/2-x,1/2+y,-z
1/2-x,1/2-y,-z
1/2+x,1/2+y,-z
1/2-x,1/2+y,z
1/2+x,1/2-y,z
loop_
_atom_site_type_symbol
_atom_site_label
_atom_site_fract_x
_atom_site_fract_y
_atom_site_fract_z
Si Si1 0.370267 0.182837 0.198236
Si Si2 0.943996 0.574900 0.287182
Si Si3 0.311891 0.580974 0.300438
Si Si4 0.052511 0.783206 0.218060
Si Si5 0.918655 0.075053 0.796166
Si Si6 0.704557 0.077354 0.792049
O O1 0.413387 0.129417 0.189242
O O2 0.399432 0.244991 0.281198
O O3 0.328444 0.137218 0.284382
O O4 0.353944 0.203204 0.000000
O O5 0.939346 0.583885 0.500000
O O6 0.926561 0.500000 0.244327
O O7 0.000000 0.578776 0.243837
O O8 0.315051 0.607364 0.500000
O O9 0.310089 0.500000 0.306470
O O10 0.362050 0.594323 0.205531
O O11 0.260257 0.598868 0.222099
O O12 0.055010 0.860379 0.279530
O O13 0.000000 0.754377 0.268858
O O14 0.054369 0.781679 0.000000
O O15 0.924145 0.000000 0.716982
O O16 0.934218 0.069958 0.000000
O O17 0.699055 0.000000 0.720769
O O18 0.692053 0.073193 0.000000
#
# Coordination Sequence:
#
# PCOD9485566 Si02
#       6
#    16  16  16  16  16  16
#     4  10  19  31  48  70  97 130 166 205 247 287
#     4   9  18  31  45  63  90 125 165 208 250 290
#     4   9  17  30  50  75 100 126 158 198 244 291
#     4   9  18  32  50  74 102 129 161 204 251 297
#     4   9  17  31  53  77  99 126 160 199 246 300
#     4   9  17  29  46  70  99 129 163 200 236 281
#
# _framework density 22.974487
#
# number of rings (size 3 to 8) (size 9 to 14) (size 15 to 20)
#    0.000    2.833    0.000    2.000    0.000    5.000 
#    0.000    5.833    0.000    6.500    0.000    2.333 
#    0.000    0.000    0.000    0.000    0.000    0.000 
#
# Total GULP energy -267461.902021 kJ/mol
# GULP energy per Si atom -5572.122959 kJ/mol
# Density = 2.292220 g / cm^3
# Si number density = 22.974487 Si / 1000 Ang^3
#
#
#
# Elastic Constant Matrix: (Units=GPa)
#
#
# Indices 1 2 3 4 5 6 
#
# 1 82.4264 29.9387 -5.3136 0.0000 0.0000 0.0000
# 2 29.9387 88.7813 1.1948 0.0000 0.0000 0.0000
# 3 -5.3136 1.1948 54.4669 0.0000 0.0000 0.0000
# 4 0.0000 0.0000 0.0000 -17.8331 0.0000 0.0000
# 5 0.0000 0.0000 0.0000 0.0000 50.1826 0.0000
# 6 0.0000 0.0000 0.0000 0.0000 0.0000 41.6655
#
#
#
# Elastic Compliance Matrix: (Units=1/GPa)
#
#
# Indices 1 2 3 4 5 6 
#
# 1 0.013941 -0.004721 0.001464 0.000000 0.000000 0.000000
# 2 -0.004721 0.012866 -0.000743 0.000000 0.000000 0.000000
# 3 0.001464 -0.000743 0.018519 0.000000 0.000000 0.000000
# 4 0.000000 0.000000 0.000000 -0.056076 0.000000 0.000000
# 5 0.000000 0.000000 0.000000 0.000000 0.019927 0.000000
# 6 0.000000 0.000000 0.000000 0.000000 0.000000 0.024001
#
#
# Mechanical properties :
#
#
# Convention : Reuss Voigt Hill
#
# Bulk Modulus (GPa) = 26.79141 30.81272 28.80207
# Shear Modulus (GPa) = 93.24909 28.12663 60.68786
#
# Velocity S-wave (km/s) = 6.37779 3.50273 5.14516
# Velocity P-wave (km/s) = 8.11921 5.45891 6.91814
#
# Compressibility (1/GPa) = 0.03732539
#
# Stress axis : x y z
#
# Youngs Moduli (GPa) = 71.73030 77.72659 53.99904
#
# Poissons Ratio (x) = 0.36694 -0.07903
# Poissons Ratio (y) = 0.33863 0.04011
# Poissons Ratio (z) = -0.10498 0.05773
#
# Static dielectric constant tensor:
#      x y z
#    x 1.861720 0.000000 0.000000 
#    y 0.000000 1.897960 0.000000 
#    z 0.000000 0.000000 1.888360 
# 
# From -- ./inp_files/32410.got.cif
#   From: 2010.05.17/outbox.cif.g08.bks.cpg/sg65_17_cif.got.tgz:32410.got - 2010.06.03 17:01:31.
