data_PCOD9485303
_publ_section_title
;
Structure prediction by ZEFSAII (Michael W. Deem and Ramdas Pophale) SiO2 
 PCOD9485303
Probable space group: C M M M
;
_chemical_formula_sum "Si O2"
_cell_formula_units_Z 72
_cell_length_a 26.342097
_cell_length_b 13.783164
_cell_length_c 8.250745
_cell_angle_alpha 90.000000
_cell_angle_beta 90.000000
_cell_angle_gamma 90.000000
_cell_volume 2995.659398
_symmetry_space_group_name_H-M "C M M M"
_symmetry_group_IT_number 65
_symmetry_cell_setting 'orthorhombic'
loop_
_space_group_symop_operation_xyz
x,y,z
-x,-y,z
x,-y,-z
-x,y,-z
-x,-y,-z
x,y,-z
-x,y,z
x,-y,z
1/2+x,1/2+y,z
1/2-x,1/2-y,z
1/2+x,1/2-y,-z
1/2-x,1/2+y,-z
1/2-x,1/2-y,-z
1/2+x,1/2+y,-z
1/2-x,1/2+y,z
1/2+x,1/2-y,z
loop_
_atom_site_type_symbol
_atom_site_label
_atom_site_fract_x
_atom_site_fract_y
_atom_site_fract_z
Si Si1 0.115483 0.384743 0.000000
Si Si2 0.000000 0.118016 0.189041
Si Si3 0.235324 0.637114 0.000000
Si Si4 0.388836 0.617292 0.194914
Si Si5 0.217962 0.848990 0.676959
Si Si6 0.940629 0.381313 0.320363
O O1 0.175347 0.371843 0.000000
O O2 0.090720 0.346350 0.834703
O O3 0.105161 0.500000 0.000000
O O4 0.945064 0.145598 0.257822
O O5 0.000000 0.000000 0.187982
O O6 0.000000 0.148452 0.000000
O O7 0.250000 0.750000 0.000000
O O8 0.259179 0.599137 0.165785
O O9 0.383815 0.500000 0.216107
O O10 0.341311 0.665212 0.283146
O O11 0.386008 0.634736 0.000000
O O12 0.222696 0.894702 0.500000
O O13 0.250000 0.750000 0.668033
O O14 0.923212 0.350542 0.500000
O O15 0.938312 0.500000 0.320644
O O16 0.000000 0.356106 0.300553
#
# Coordination Sequence:
#
# PCOD9485303 Si02
#       6
#     8   8   8  16  16  16
#     4  10  19  30  50  79 106 135 178 224 258 308
#     4   7  12  24  45  79 117 148 172 207 271 341
#     4  10  22  39  53  71 101 141 185 228 277 320
#     4   9  16  29  53  84 118 148 179 223 276 335
#     4  10  21  37  56  77 101 142 192 233 275 325
#     4   8  14  26  46  76 113 143 164 198 257 320
#
# _framework density 24.034773999999999
#
# number of rings (size 3 to 8) (size 9 to 14) (size 15 to 20)
#    0.000    3.000    1.111    2.333    0.000    3.556 
#    0.000    0.556    0.000    2.000   23.111    0.000 
#    0.000    0.000    0.000    0.111    0.000    3.778 
#
# Total GULP energy -201185.508642 kJ/mol
# GULP energy per Si atom -5588.486351 kJ/mol
# Density = 2.398007 g / cm^3
# Si number density = 24.034774 Si / 1000 Ang^3
#
#
#
# Elastic Constant Matrix: (Units=GPa)
#
#
# Indices 1 2 3 4 5 6 
#
# 1 213.0037 33.3741 108.9099 0.0000 0.0000 0.0000
# 2 33.3741 93.9048 18.3618 0.0000 0.0000 0.0000
# 3 108.9099 18.3618 230.2863 0.0000 0.0000 0.0000
# 4 0.0000 0.0000 0.0000 -44.3568 0.0000 0.0000
# 5 0.0000 0.0000 0.0000 0.0000 1.0148 0.0000
# 6 0.0000 0.0000 0.0000 0.0000 0.0000 57.6606
#
#
#
# Elastic Compliance Matrix: (Units=1/GPa)
#
#
# Indices 1 2 3 4 5 6 
#
# 1 0.006456 -0.001724 -0.002916 0.000000 0.000000 0.000000
# 2 -0.001724 0.011278 -0.000084 0.000000 0.000000 0.000000
# 3 -0.002916 -0.000084 0.005728 0.000000 0.000000 0.000000
# 4 0.000000 0.000000 0.000000 -0.022544 0.000000 0.000000
# 5 0.000000 0.000000 0.000000 0.000000 0.985371 0.000000
# 6 0.000000 0.000000 0.000000 0.000000 0.000000 0.017343
#
#
# Mechanical properties :
#
#
# Convention : Reuss Voigt Hill
#
# Bulk Modulus (GPa) = 71.35427 95.38737 83.37082
# Shear Modulus (GPa) = 4.91280 27.96700 16.43990
#
# Velocity S-wave (km/s) = 1.43125 3.41487 2.61819
# Velocity P-wave (km/s) = 5.69945 7.43786 6.62591
#
# Compressibility (1/GPa) = 0.01401458
#
# Stress axis : x y z
#
# Youngs Moduli (GPa) = 154.90209 88.66595 174.58110
#
# Poissons Ratio (x) = 0.15288 0.50901
# Poissons Ratio (y) = 0.26709 0.01463
# Poissons Ratio (z) = 0.45164 0.00743
#
# Static dielectric constant tensor:
#      x y z
#    x 1.857470 0.000000 0.000000 
#    y 0.000000 1.948130 0.000000 
#    z 0.000000 0.000000 1.908600 
# 
# From -- ./inp_files/11342.got.cif
#   From: 2010.05.17/outbox.cif.g08.bks.cpg/sg65_6_cif.got.tgz:11342.got - 2010.06.03 17:01:31.
