data_PCOD9485393
_publ_section_title
;
Structure prediction by ZEFSAII (Michael W. Deem and Ramdas Pophale) SiO2 
 PCOD9485393
Probable space group: C M M M
;
_chemical_formula_sum "Si O2"
_cell_formula_units_Z 96
_cell_length_a 23.267622
_cell_length_b 28.787529
_cell_length_c 7.724281
_cell_angle_alpha 90.000000
_cell_angle_beta 90.000000
_cell_angle_gamma 90.000000
_cell_volume 5173.857377
_symmetry_space_group_name_H-M "C M M M"
_symmetry_group_IT_number 65
_symmetry_cell_setting 'orthorhombic'
loop_
_space_group_symop_operation_xyz
x,y,z
-x,-y,z
x,-y,-z
-x,y,-z
-x,-y,-z
x,y,-z
-x,y,z
x,-y,z
1/2+x,1/2+y,z
1/2-x,1/2-y,z
1/2+x,1/2-y,-z
1/2-x,1/2+y,-z
1/2-x,1/2-y,-z
1/2+x,1/2+y,-z
1/2-x,1/2+y,z
1/2+x,1/2-y,z
loop_
_atom_site_type_symbol
_atom_site_label
_atom_site_fract_x
_atom_site_fract_y
_atom_site_fract_z
Si Si1 0.000000 0.229778 0.203826
Si Si2 0.123071 0.098804 0.202975
Si Si3 0.000000 0.877466 0.213966
Si Si4 0.118648 0.720505 0.708120
Si Si5 0.686289 0.690856 0.289817
Si Si6 0.303708 0.142708 0.291741
Si Si7 0.239309 0.051821 0.792266
O O1 0.000000 0.176699 0.274515
O O2 0.056470 0.259271 0.249217
O O3 0.000000 0.223624 0.000000
O O4 0.058394 0.097163 0.272518
O O5 0.142007 0.152390 0.222429
O O6 0.177305 0.070163 0.276787
O O7 0.119703 0.086860 0.000000
O O8 0.000000 0.877200 0.000000
O O9 0.121424 0.719397 0.500000
O O10 0.165094 0.758921 0.767281
O O11 0.139513 0.669835 0.770255
O O12 0.685619 0.690087 0.500000
O O13 0.748898 0.673628 0.234145
O O14 0.304203 0.143129 0.500000
O O15 0.287849 0.090290 0.242691
O O16 0.251662 0.000000 0.728228
O O17 0.234018 0.049974 0.000000
#
# Coordination Sequence:
#
# PCOD9485393 Si02
#       7
#     8  16   8  16  16  16  16
#     4  11  21  31  45  66  96 132 166 194 222 263
#     4   9  16  28  44  62  89 124 159 197 234 270
#     4   9  16  27  42  61  88 124 164 197 223 260
#     4  10  19  31  46  67  96 126 157 190 228 273
#     4   9  16  27  44  66  92 121 153 190 228 271
#     4   9  18  31  48  70  93 120 153 191 235 283
#     4   9  18  32  49  69  92 118 152 197 246 289
#
# _framework density 18.554821
#
# number of rings (size 3 to 8) (size 9 to 14) (size 15 to 20)
#    0.000    2.667    1.667    0.750    0.000    3.000 
#    0.000    0.833    0.000    7.500    0.000    0.583 
#    0.000   10.000    0.000    0.000    0.000    0.000 
#
# Total GULP energy -267425.645194 kJ/mol
# GULP energy per Si atom -5571.367608 kJ/mol
# Density = 1.851259 g / cm^3
# Si number density = 18.554821 Si / 1000 Ang^3
#
#
#
# Elastic Constant Matrix: (Units=GPa)
#
#
# Indices 1 2 3 4 5 6 
#
# 1 35.2028 38.3272 2.3640 0.0000 0.0000 0.0000
# 2 38.3272 119.8297 7.1742 0.0000 0.0000 0.0000
# 3 2.3640 7.1742 27.0502 0.0000 0.0000 0.0000
# 4 0.0000 0.0000 0.0000 15.3302 0.0000 0.0000
# 5 0.0000 0.0000 0.0000 0.0000 9.8317 0.0000
# 6 0.0000 0.0000 0.0000 0.0000 0.0000 11.3303
#
#
#
# Elastic Compliance Matrix: (Units=1/GPa)
#
#
# Indices 1 2 3 4 5 6 
#
# 1 0.043585 -0.013934 -0.000113 0.000000 0.000000 0.000000
# 2 -0.013934 0.012934 -0.002213 0.000000 0.000000 0.000000
# 3 -0.000113 -0.002213 0.037565 0.000000 0.000000 0.000000
# 4 0.000000 0.000000 0.000000 0.065231 0.000000 0.000000
# 5 0.000000 0.000000 0.000000 0.000000 0.101712 0.000000
# 6 0.000000 0.000000 0.000000 0.000000 0.000000 0.088259
#
#
# Mechanical properties :
#
#
# Convention : Reuss Voigt Hill
#
# Bulk Modulus (GPa) = 16.24315 30.86817 23.55566
# Shear Modulus (GPa) = 12.42770 16.24625 14.33697
#
# Velocity S-wave (km/s) = 2.59082 2.96223 2.78273
# Velocity P-wave (km/s) = 4.20987 5.32654 4.80078
#
# Compressibility (1/GPa) = 0.06156441
#
# Stress axis : x y z
#
# Youngs Moduli (GPa) = 22.94373 77.31364 26.62047
#
# Poissons Ratio (x) = 1.07727 0.00302
# Poissons Ratio (y) = 0.31969 0.05890
# Poissons Ratio (z) = 0.00260 0.17107
#
# Static dielectric constant tensor:
#      x y z
#    x 1.634270 0.000000 0.000000 
#    y 0.000000 1.654500 0.000000 
#    z 0.000000 0.000000 1.697720 
# 
# From -- ./inp_files/14635.got.cif
#   From: 2010.05.17/outbox.cif.g08.bks.cpg/sg65_8_cif.got.tgz:14635.got - 2010.06.03 17:01:31.
