data_PCOD9485126
_publ_section_title
;
Structure prediction by ZEFSAII (Michael W. Deem and Ramdas Pophale) SiO2 
 PCOD9485126
Probable space group: C M M M
;
_chemical_formula_sum "Si O2"
_cell_formula_units_Z 72
_cell_length_a 7.909461
_cell_length_b 19.502179
_cell_length_c 23.826480
_cell_angle_alpha 90.000000
_cell_angle_beta 90.000000
_cell_angle_gamma 90.000000
_cell_volume 3675.275622
_symmetry_space_group_name_H-M "C M M M"
_symmetry_group_IT_number 65
_symmetry_cell_setting 'orthorhombic'
loop_
_space_group_symop_operation_xyz
x,y,z
-x,-y,z
x,-y,-z
-x,y,-z
-x,-y,-z
x,y,-z
-x,y,z
x,-y,z
1/2+x,1/2+y,z
1/2-x,1/2-y,z
1/2+x,1/2-y,-z
1/2-x,1/2+y,-z
1/2-x,1/2-y,-z
1/2+x,1/2+y,-z
1/2-x,1/2+y,z
1/2+x,1/2-y,z
loop_
_atom_site_type_symbol
_atom_site_label
_atom_site_fract_x
_atom_site_fract_y
_atom_site_fract_z
Si Si1 0.295985 0.829413 0.666788
Si Si2 0.793663 0.421204 0.563533
Si Si3 0.297213 0.077282 0.896395
Si Si4 0.198669 0.829078 0.000000
Si Si5 0.206361 0.420990 0.770100
O O1 0.500000 0.834253 0.666772
O O2 0.250000 0.750000 0.666800
O O3 0.234665 0.869271 0.611260
O O4 0.234196 0.869229 0.722299
O O5 0.739589 0.404080 0.500000
O O6 0.744309 0.500000 0.575725
O O7 0.000000 0.420250 0.563625
O O8 0.500000 0.073263 0.893086
O O9 0.237055 0.095730 0.833572
O O10 0.235283 0.000000 0.910025
O O11 0.257792 0.130898 0.944615
O O12 0.250000 0.750000 0.000000
O O13 0.000000 0.832011 0.000000
O O14 0.253840 0.500000 0.757949
O O15 0.000000 0.419243 0.769866
#
# Coordination Sequence:
#
# PCOD9485126 Si02
#       5
#    16  16  16   8  16
#     4  10  19  30  46  70 100 130 160 197 242 290
#     4   8  14  26  46  70  92 119 162 210 245 277
#     4   9  18  35  58  80 102 129 163 204 250 299
#     4  12  25  38  53  75 105 137 169 204 245 294
#     4   8  15  30  53  76  95 123 165 205 238 279
#
# _framework density 19.590367000000001
#
# number of rings (size 3 to 8) (size 9 to 14) (size 15 to 20)
#    0.000    2.889    0.000    4.000    0.000    5.778 
#    0.000    3.333    0.000    4.000    0.000    1.556 
#    0.000    0.000    0.000    0.000    0.000    0.000 
#
# Total GULP energy -200812.702766 kJ/mol
# GULP energy per Si atom -5578.130632 kJ/mol
# Density = 1.954578 g / cm^3
# Si number density = 19.590367 Si / 1000 Ang^3
#
#
#
# Elastic Constant Matrix: (Units=GPa)
#
#
# Indices 1 2 3 4 5 6 
#
# 1 18.3132 5.2006 12.8538 0.0000 0.0000 0.0000
# 2 5.2006 178.4123 160.9267 0.0000 0.0000 0.0000
# 3 12.8538 160.9267 205.2733 0.0000 0.0000 0.0000
# 4 0.0000 0.0000 0.0000 -1.7404 0.0000 0.0000
# 5 0.0000 0.0000 0.0000 0.0000 -1.5864 0.0000
# 6 0.0000 0.0000 0.0000 0.0000 0.0000 26.2616
#
#
#
# Elastic Compliance Matrix: (Units=1/GPa)
#
#
# Indices 1 2 3 4 5 6 
#
# 1 0.058640 0.005473 -0.007962 0.000000 0.000000 0.000000
# 2 0.005473 0.019649 -0.015747 0.000000 0.000000 0.000000
# 3 -0.007962 -0.015747 0.017715 0.000000 0.000000 0.000000
# 4 0.000000 0.000000 0.000000 -0.574583 0.000000 0.000000
# 5 0.000000 0.000000 0.000000 0.000000 -0.630370 0.000000
# 6 0.000000 0.000000 0.000000 0.000000 0.000000 0.038078
#
#
# Mechanical properties :
#
#
# Convention : Reuss Voigt Hill
#
# Bulk Modulus (GPa) = 16.79798 84.44012 50.61905
# Shear Modulus (GPa) = -4.92827 19.45483 7.26328
#
# Velocity S-wave (km/s) = -1.58780 3.15474 1.92760
# Velocity P-wave (km/s) = 2.28730 7.51440 5.55419
#
# Compressibility (1/GPa) = 0.05953095
#
# Stress axis : x y z
#
# Youngs Moduli (GPa) = 17.05327 50.89359 56.44960
#
# Poissons Ratio (x) = -0.27852 0.44946
# Poissons Ratio (y) = -0.09332 0.88889
# Poissons Ratio (z) = 0.13578 0.80140
#
# Static dielectric constant tensor:
#      x y z
#    x 1.725540 0.000000 0.000000 
#    y 0.000000 1.631370 0.000000 
#    z 0.000000 0.000000 1.753860 
# 
# From -- ./inp_files/67104.got.cif
#   From: 2010.05.17/outbox.cif.g08.bks.cpg/sg65_34_cif.got.tgz:67104.got - 2010.06.03 17:01:31.
