data_PCOD9485295
_publ_section_title
;
Structure prediction by ZEFSAII (Michael W. Deem and Ramdas Pophale) SiO2 
 PCOD9485295
Probable space group: C M M M
;
_chemical_formula_sum "Si O2"
_cell_formula_units_Z 104
_cell_length_a 23.504712
_cell_length_b 27.925720
_cell_length_c 7.677019
_cell_angle_alpha 90.000000
_cell_angle_beta 90.000000
_cell_angle_gamma 90.000000
_cell_volume 5039.087839
_symmetry_space_group_name_H-M "C M M M"
_symmetry_group_IT_number 65
_symmetry_cell_setting 'orthorhombic'
loop_
_space_group_symop_operation_xyz
x,y,z
-x,-y,z
x,-y,-z
-x,y,-z
-x,-y,-z
x,y,-z
-x,y,z
x,-y,z
1/2+x,1/2+y,z
1/2-x,1/2-y,z
1/2+x,1/2-y,-z
1/2-x,1/2+y,-z
1/2-x,1/2-y,-z
1/2+x,1/2+y,-z
1/2-x,1/2+y,z
1/2+x,1/2-y,z
loop_
_atom_site_type_symbol
_atom_site_label
_atom_site_fract_x
_atom_site_fract_y
_atom_site_fract_z
Si Si1 0.227254 0.696682 0.299096
Si Si2 0.064619 0.500000 0.787399
Si Si3 0.898901 0.695741 0.803637
Si Si4 0.629702 0.904732 0.786303
Si Si5 0.169720 0.134672 0.293763
Si Si6 0.563776 0.700281 0.791060
Si Si7 0.749682 0.554887 0.791211
O O1 0.214285 0.682111 0.500000
O O2 0.250000 0.750000 0.307879
O O3 0.169525 0.697689 0.193061
O O4 0.278251 0.666012 0.219213
O O5 0.097142 0.452411 0.733461
O O6 0.000000 0.500000 0.729028
O O7 0.065146 0.500000 0.000000
O O8 0.903866 0.642649 0.723192
O O9 0.919210 0.746262 0.723738
O O10 0.922816 0.693890 0.000000
O O11 0.695578 0.913582 0.730875
O O12 0.630004 0.901693 0.000000
O O13 0.172653 0.139936 0.500000
O O14 0.110296 0.159213 0.244713
O O15 0.190020 0.080988 0.250739
O O16 0.500000 0.688419 0.730101
O O17 0.562768 0.704527 0.000000
O O18 0.752982 0.500000 0.726685
O O19 0.754568 0.552802 0.000000
#
# Coordination Sequence:
#
# PCOD9485295 Si02
#       7
#    16   8  16  16  16  16  16
#     4  10  19  31  47  73 107 136 168 213 260 309
#     4   9  16  26  42  66 101 145 186 223 262 305
#     4  10  19  30  50  76 105 140 177 219 265 312
#     4   9  16  27  44  72 106 141 180 221 265 313
#     4  11  22  35  55  81 108 140 179 222 272 328
#     4  10  22  38  54  76 108 145 184 223 267 325
#     4  10  19  33  55  81 112 143 175 220 276 331
#
# _framework density 20.638655
#
# number of rings (size 3 to 8) (size 9 to 14) (size 15 to 20)
#    0.000    2.077    3.846    0.462    0.000    2.154 
#    0.000    3.077    0.000    0.462    0.000    3.231 
#    0.000    3.077    0.000    0.000    0.000    0.000 
#
# Total GULP energy -289825.436068 kJ/mol
# GULP energy per Si atom -5573.566078 kJ/mol
# Density = 2.059168 g / cm^3
# Si number density = 20.638655 Si / 1000 Ang^3
#
#
#
# Elastic Constant Matrix: (Units=GPa)
#
#
# Indices 1 2 3 4 5 6 
#
# 1 118.2750 48.9912 2.1211 0.0000 0.0000 0.0000
# 2 48.9912 104.9712 2.8505 0.0000 0.0000 0.0000
# 3 2.1211 2.8505 42.6016 0.0000 0.0000 0.0000
# 4 0.0000 0.0000 0.0000 7.7820 0.0000 0.0000
# 5 0.0000 0.0000 0.0000 0.0000 -21.8053 0.0000
# 6 0.0000 0.0000 0.0000 0.0000 0.0000 16.5035
#
#
#
# Elastic Compliance Matrix: (Units=1/GPa)
#
#
# Indices 1 2 3 4 5 6 
#
# 1 0.010483 -0.004887 -0.000195 0.000000 0.000000 0.000000
# 2 -0.004887 0.011822 -0.000548 0.000000 0.000000 0.000000
# 3 -0.000195 -0.000548 0.023520 0.000000 0.000000 0.000000
# 4 0.000000 0.000000 0.000000 0.128501 0.000000 0.000000
# 5 0.000000 0.000000 0.000000 0.000000 -0.045860 0.000000
# 6 0.000000 0.000000 0.000000 0.000000 0.000000 0.060593
#
#
# Mechanical properties :
#
#
# Convention : Reuss Voigt Hill
#
# Bulk Modulus (GPa) = 28.93095 41.53037 35.23066
# Shear Modulus (GPa) = 23.60278 14.62170 19.11224
#
# Velocity S-wave (km/s) = 3.38541 2.66458 3.04639
# Velocity P-wave (km/s) = 5.41569 5.44362 5.42967
#
# Compressibility (1/GPa) = 0.03456506
#
# Stress axis : x y z
#
# Youngs Moduli (GPa) = 95.39552 84.58691 42.51761
#
# Poissons Ratio (x) = 0.41338 0.00829
# Poissons Ratio (y) = 0.46621 0.02329
# Poissons Ratio (z) = 0.01860 0.04633
#
# Static dielectric constant tensor:
#      x y z
#    x 1.734070 0.000000 0.000000 
#    y 0.000000 1.807890 0.000000 
#    z 0.000000 0.000000 1.778210 
# 
# From -- ./inp_files/14816.got.cif
#   From: 2010.05.17/outbox.cif.g08.bks.cpg/sg65_8_cif.got.tgz:14816.got - 2010.06.03 17:01:31.
