data_PCOD9485047
_publ_section_title
;
Structure prediction by ZEFSAII (Michael W. Deem and Ramdas Pophale) SiO2 
 PCOD9485047
Probable space group: C M M M
;
_chemical_formula_sum "Si O2"
_cell_formula_units_Z 112
_cell_length_a 27.065932
_cell_length_b 17.286573
_cell_length_c 14.527419
_cell_angle_alpha 90.000000
_cell_angle_beta 90.000000
_cell_angle_gamma 90.000000
_cell_volume 6797.048261
_symmetry_space_group_name_H-M "C M M M"
_symmetry_group_IT_number 65
_symmetry_cell_setting 'orthorhombic'
loop_
_space_group_symop_operation_xyz
x,y,z
-x,-y,z
x,-y,-z
-x,y,-z
-x,-y,-z
x,y,-z
-x,y,z
x,-y,z
1/2+x,1/2+y,z
1/2-x,1/2-y,z
1/2+x,1/2-y,-z
1/2-x,1/2+y,-z
1/2-x,1/2-y,-z
1/2+x,1/2+y,-z
1/2-x,1/2+y,z
1/2+x,1/2-y,z
loop_
_atom_site_type_symbol
_atom_site_label
_atom_site_fract_x
_atom_site_fract_y
_atom_site_fract_z
Si Si1 0.086582 0.090121 0.250000
Si Si2 0.341590 0.789974 0.109706
Si Si3 0.158410 0.710026 0.609706
Si Si4 0.699478 0.091672 0.250000
Si Si5 0.692541 0.336700 0.250000
Si Si6 0.445240 0.715084 0.108730
Si Si7 0.554760 0.715084 0.608730
O O1 0.145312 0.107031 0.250000
O O2 0.064606 0.136119 0.163188
O O3 0.064606 0.136119 0.336812
O O4 0.075842 0.000000 0.250000
O O5 0.325074 0.867623 0.160953
O O6 0.312809 0.720195 0.161705
O O7 0.399437 0.771595 0.129262
O O8 0.333590 0.790548 0.000000
O O9 0.166410 0.709452 0.500000
O O10 0.174926 0.632377 0.660953
O O11 0.187191 0.779805 0.661705
O O12 0.100563 0.728406 0.629262
O O13 0.756681 0.117637 0.250000
O O14 0.694406 0.000000 0.250000
O O15 0.500000 0.744684 0.132581
O O16 0.443728 0.700628 0.000000
O O17 0.556272 0.700629 0.500000
O O18 0.500000 0.744684 0.632581
#
# Coordination Sequence:
#
# PCOD9485047 Si02
#       7
#    16  16  16  16  16  16  16
#     4  10  19  30  45  68 100 132 157 188 233 279
#     4   9  18  34  54  72  93 124 161 197 230 273
#     4   9  18  34  54  72  93 124 161 197 230 273
#     4  11  22  33  48  73 101 125 152 194 245 286
#     4   9  19  34  50  69  95 128 164 195 226 273
#     4   9  18  32  50  71  93 122 161 198 232 275
#     4   9  18  32  50  71  93 122 161 198 232 275
#
# _framework density 16.477740000000001
#
# number of rings (size 3 to 8) (size 9 to 14) (size 15 to 20)
#    0.000    2.571    0.000    3.429    0.000    4.571 
#    0.000    1.429    0.000    6.857    0.000    4.000 
#    0.000    0.000    0.000    0.000    0.000    0.000 
#
# Total GULP energy -312176.504068 kJ/mol
# GULP energy per Si atom -5574.580430 kJ/mol
# Density = 1.644024 g / cm^3
# Si number density = 16.477740 Si / 1000 Ang^3
#
#
#
# Elastic Constant Matrix: (Units=GPa)
#
#
# Indices 1 2 3 4 5 6 
#
# 1 111.6817 47.0118 37.9804 0.0000 0.0000 0.0000
# 2 47.0118 90.7958 34.7806 0.0000 0.0000 0.0000
# 3 37.9804 34.7806 99.6007 0.0000 0.0000 0.0000
# 4 0.0000 0.0000 0.0000 -31.9402 0.0000 0.0000
# 5 0.0000 0.0000 0.0000 0.0000 17.8752 0.0000
# 6 0.0000 0.0000 0.0000 0.0000 0.0000 6.4182
#
#
#
# Elastic Compliance Matrix: (Units=1/GPa)
#
#
# Indices 1 2 3 4 5 6 
#
# 1 0.012089 -0.005188 -0.002799 0.000000 0.000000 0.000000
# 2 -0.005188 0.014940 -0.003239 0.000000 0.000000 0.000000
# 3 -0.002799 -0.003239 0.012238 0.000000 0.000000 0.000000
# 4 0.000000 0.000000 0.000000 -0.031309 0.000000 0.000000
# 5 0.000000 0.000000 0.000000 0.000000 0.055943 0.000000
# 6 0.000000 0.000000 0.000000 0.000000 0.000000 0.155806
#
#
# Mechanical properties :
#
#
# Convention : Reuss Voigt Hill
#
# Bulk Modulus (GPa) = 59.46039 60.18041 59.82040
# Shear Modulus (GPa) = 20.18039 10.62436 15.40238
#
# Velocity S-wave (km/s) = 3.50338 2.54199 3.06067
# Velocity P-wave (km/s) = 7.24765 6.72437 6.99091
#
# Compressibility (1/GPa) = 0.01681792
#
# Stress axis : x y z
#
# Youngs Moduli (GPa) = 82.71707 66.93222 81.71066
#
# Poissons Ratio (x) = 0.34722 0.22867
# Poissons Ratio (y) = 0.42910 0.26467
# Poissons Ratio (z) = 0.23148 0.21680
#
# Static dielectric constant tensor:
#      x y z
#    x 1.597030 0.000000 0.000000 
#    y 0.000000 1.504800 0.000000 
#    z 0.000000 0.000000 1.565160 
# 
# From -- ./inp_files/47063.got.cif
#   From: 2010.05.17/outbox.cif.g08.bks.cpg/sg65_24_cif.got.tgz:47063.got - 2010.06.03 17:01:31.
