data_PCOD9485473
_publ_section_title
;
Structure prediction by ZEFSAII (Michael W. Deem and Ramdas Pophale) SiO2 
 PCOD9485473
Probable space group: C M M M
;
_chemical_formula_sum "Si O2"
_cell_formula_units_Z 96
_cell_length_a 8.944739
_cell_length_b 27.725890
_cell_length_c 24.137901
_cell_angle_alpha 90.000000
_cell_angle_beta 90.000000
_cell_angle_gamma 90.000000
_cell_volume 5986.219955
_symmetry_space_group_name_H-M "C M M M"
_symmetry_group_IT_number 65
_symmetry_cell_setting 'orthorhombic'
loop_
_space_group_symop_operation_xyz
x,y,z
-x,-y,z
x,-y,-z
-x,y,-z
-x,-y,-z
x,y,-z
-x,y,z
x,-y,z
1/2+x,1/2+y,z
1/2-x,1/2-y,z
1/2+x,1/2-y,-z
1/2-x,1/2+y,-z
1/2-x,1/2-y,-z
1/2+x,1/2+y,-z
1/2-x,1/2+y,z
1/2+x,1/2-y,z
loop_
_atom_site_type_symbol
_atom_site_label
_atom_site_fract_x
_atom_site_fract_y
_atom_site_fract_z
Si Si1 0.822477 0.057775 0.115603
Si Si2 0.678778 0.444779 0.328529
Si Si3 0.172385 0.558553 0.000000
Si Si4 0.177146 0.850739 0.605983
Si Si5 0.178193 0.198029 0.275287
Si Si6 0.322765 0.802905 0.500000
Si Si7 0.678548 0.895307 0.776808
O O1 0.741528 0.084625 0.165669
O O2 0.000000 0.066189 0.117507
O O3 0.798182 0.000000 0.121502
O O4 0.756195 0.073058 0.056188
O O5 0.500000 0.439859 0.317664
O O6 0.709160 0.500000 0.343841
O O7 0.715307 0.405280 0.375301
O O8 0.764248 0.429898 0.272802
O O9 0.172739 0.500000 0.000000
O O10 0.000000 0.574434 0.000000
O O11 0.203388 0.818582 0.660933
O O12 0.268261 0.831124 0.554438
O O13 0.000000 0.848683 0.593202
O O14 0.250000 0.250000 0.266048
O O15 0.253245 0.156929 0.237749
O O16 0.000000 0.198813 0.266312
O O17 0.500000 0.798011 0.500000
O O18 0.250000 0.750000 0.500000
O O19 0.500000 0.893556 0.777288
#
# Coordination Sequence:
#
# PCOD9485473 Si02
#       7
#    16  16   8  16  16   8  16
#     4  10  19  31  47  68  98 135 171 206 245 290
#     4   9  18  34  54  74  98 130 165 201 242 288
#     4   9  17  29  45  67  96 129 166 207 249 293
#     4   9  19  35  54  75  99 126 159 197 238 289
#     4  10  20  35  54  75  99 127 159 199 247 296
#     4  12  24  36  53  74  97 125 158 199 245 292
#     4  11  21  31  47  73 102 132 166 203 244 290
#
# _framework density 16.036830999999999
#
# number of rings (size 3 to 8) (size 9 to 14) (size 15 to 20)
#    0.000    2.083    0.000    5.500    0.000    9.000 
#    0.000    0.417    0.000    2.500    0.000    0.583 
#    0.000    0.000    0.000    0.000    0.000    0.000 
#
# Total GULP energy -267943.117149 kJ/mol
# GULP energy per Si atom -5582.148274 kJ/mol
# Density = 1.600033 g / cm^3
# Si number density = 16.036831 Si / 1000 Ang^3
#
#
#
# Elastic Constant Matrix: (Units=GPa)
#
#
# Indices 1 2 3 4 5 6 
#
# 1 116.3817 71.5027 89.3652 0.0000 0.0000 0.0000
# 2 71.5027 119.3206 70.4384 0.0000 0.0000 0.0000
# 3 89.3652 70.4384 134.5392 0.0000 0.0000 0.0000
# 4 0.0000 0.0000 0.0000 14.7784 0.0000 0.0000
# 5 0.0000 0.0000 0.0000 0.0000 27.4982 0.0000
# 6 0.0000 0.0000 0.0000 0.0000 0.0000 25.7284
#
#
#
# Elastic Compliance Matrix: (Units=1/GPa)
#
#
# Indices 1 2 3 4 5 6 
#
# 1 0.020156 -0.006043 -0.010225 0.000000 0.000000 0.000000
# 2 -0.006043 0.013941 -0.003285 0.000000 0.000000 0.000000
# 3 -0.010225 -0.003285 0.015944 0.000000 0.000000 0.000000
# 4 0.000000 0.000000 0.000000 0.067666 0.000000 0.000000
# 5 0.000000 0.000000 0.000000 0.000000 0.036366 0.000000
# 6 0.000000 0.000000 0.000000 0.000000 0.000000 0.038868
#
#
# Mechanical properties :
#
#
# Convention : Reuss Voigt Hill
#
# Bulk Modulus (GPa) = 91.43675 92.53935 91.98805
# Shear Modulus (GPa) = 21.21417 22.86335 22.03876
#
# Velocity S-wave (km/s) = 3.64103 3.77991 3.71112
# Velocity P-wave (km/s) = 8.64966 8.76811 8.70909
#
# Compressibility (1/GPa) = 0.01093652
#
# Stress axis : x y z
#
# Youngs Moduli (GPa) = 49.61320 71.72997 62.71824
#
# Poissons Ratio (x) = 0.43343 0.64127
# Poissons Ratio (y) = 0.29979 0.20605
# Poissons Ratio (z) = 0.50728 0.23566
#
# Static dielectric constant tensor:
#      x y z
#    x 1.532690 0.000000 0.000000 
#    y 0.000000 1.526710 0.000000 
#    z 0.000000 0.000000 1.511300 
# 
# From -- ./inp_files/68078.got.cif
#   From: 2010.05.17/outbox.cif.g08.bks.cpg/sg65_35_cif.got.tgz:68078.got - 2010.06.03 17:01:31.
