data_PCOD9485659
_publ_section_title
;
Structure prediction by ZEFSAII (Michael W. Deem and Ramdas Pophale) SiO2 
 PCOD9485659
Probable space group: C M M M
;
_chemical_formula_sum "Si O2"
_cell_formula_units_Z 80
_cell_length_a 7.477925
_cell_length_b 18.691419
_cell_length_c 29.027763
_cell_angle_alpha 90.000000
_cell_angle_beta 90.000000
_cell_angle_gamma 90.000000
_cell_volume 4057.298372
_symmetry_space_group_name_H-M "C M M M"
_symmetry_group_IT_number 65
_symmetry_cell_setting 'orthorhombic'
loop_
_space_group_symop_operation_xyz
x,y,z
-x,-y,z
x,-y,-z
-x,y,-z
-x,-y,-z
x,y,-z
-x,y,z
x,-y,z
1/2+x,1/2+y,z
1/2-x,1/2-y,z
1/2+x,1/2-y,-z
1/2-x,1/2+y,-z
1/2-x,1/2-y,-z
1/2+x,1/2+y,-z
1/2-x,1/2+y,z
1/2+x,1/2-y,z
loop_
_atom_site_type_symbol
_atom_site_label
_atom_site_fract_x
_atom_site_fract_y
_atom_site_fract_z
Si Si1 0.786205 0.165969 0.782859
Si Si2 0.000000 0.412949 0.947550
Si Si3 0.719008 0.582625 0.409276
Si Si4 0.785710 0.834118 0.680751
Si Si5 0.786110 0.834166 0.500000
Si Si6 0.209542 0.085781 0.126139
O O1 0.750000 0.250000 0.789326
O O2 0.716722 0.146428 0.731844
O O3 0.722086 0.121993 0.826851
O O4 0.000000 0.155356 0.781628
O O5 0.172401 0.391863 0.917505
O O6 0.000000 0.500000 0.949389
O O7 0.000000 0.386872 0.000000
O O8 0.500000 0.584160 0.409046
O O9 0.772202 0.500000 0.412418
O O10 0.780668 0.619362 0.361926
O O11 0.779966 0.627448 0.453652
O O12 0.750000 0.750000 0.673121
O O13 0.000000 0.842844 0.681988
O O14 0.750000 0.750000 0.500000
O O15 0.000000 0.843261 0.500000
O O16 0.000000 0.103448 0.119701
O O17 0.223420 0.000000 0.130978
#
# Coordination Sequence:
#
# PCOD9485659 Si02
#       6
#    16   8  16  16   8  16
#     4   9  18  30  47  72  96 128 165 199 247 300
#     4   9  18  32  52  78 104 134 171 210 258 308
#     4   9  17  29  47  70  94 123 160 204 248 291
#     4   9  17  30  47  68  94 123 160 198 240 293
#     4  10  19  31  49  71  93 122 164 204 246 296
#     4   9  18  32  50  75 103 131 169 214 256 302
#
# _framework density 19.717552999999999
#
# number of rings (size 3 to 8) (size 9 to 14) (size 15 to 20)
#    0.000    2.900    0.000    0.900    1.400    2.400 
#    0.000    6.000    0.000    3.600    0.000    0.000 
#    0.000    0.000    0.000    0.000    0.000    0.000 
#
# Total GULP energy -223150.370343 kJ/mol
# GULP energy per Si atom -5578.759259 kJ/mol
# Density = 1.967267 g / cm^3
# Si number density = 19.717553 Si / 1000 Ang^3
#
#
#
# Elastic Constant Matrix: (Units=GPa)
#
#
# Indices 1 2 3 4 5 6 
#
# 1 70.2183 17.0789 49.0572 0.0000 0.0000 0.0000
# 2 17.0789 81.0462 100.1882 0.0000 0.0000 0.0000
# 3 49.0572 100.1882 240.0387 0.0000 0.0000 0.0000
# 4 0.0000 0.0000 0.0000 -5.5870 0.0000 0.0000
# 5 0.0000 0.0000 0.0000 0.0000 79.2899 0.0000
# 6 0.0000 0.0000 0.0000 0.0000 0.0000 18.8214
#
#
#
# Elastic Compliance Matrix: (Units=1/GPa)
#
#
# Indices 1 2 3 4 5 6 
#
# 1 0.016695 0.001446 -0.004015 0.000000 0.000000 0.000000
# 2 0.001446 0.025616 -0.010987 0.000000 0.000000 0.000000
# 3 -0.004015 -0.010987 0.009573 0.000000 0.000000 0.000000
# 4 0.000000 0.000000 0.000000 -0.178985 0.000000 0.000000
# 5 0.000000 0.000000 0.000000 0.000000 0.012612 0.000000
# 6 0.000000 0.000000 0.000000 0.000000 0.000000 0.053131
#
#
# Mechanical properties :
#
#
# Convention : Reuss Voigt Hill
#
# Bulk Modulus (GPa) = 40.37184 80.43911 60.40548
# Shear Modulus (GPa) = -192.39802 33.50343 -79.44729
#
# Velocity S-wave (km/s) = -9.88882 4.12657 -6.35454
# Velocity P-wave (km/s) = 10.48168 7.97427 4.81023
#
# Compressibility (1/GPa) = 0.02476974
#
# Stress axis : x y z
#
# Youngs Moduli (GPa) = 59.89829 39.03756 104.46561
#
# Poissons Ratio (x) = -0.05643 0.41946
# Poissons Ratio (y) = -0.08659 1.14779
# Poissons Ratio (z) = 0.24051 0.42892
#
# Static dielectric constant tensor:
#      x y z
#    x 1.739470 0.000000 0.000000 
#    y 0.000000 1.640800 0.000000 
#    z 0.000000 0.000000 1.693970 
# 
# From -- ./inp_files/67311.got.cif
#   From: 2010.05.17/outbox.cif.g08.bks.cpg/sg65_34_cif.got.tgz:67311.got - 2010.06.03 17:01:31.
