data_PCOD9485995
_publ_section_title
;
Structure prediction by ZEFSAII (Michael W. Deem and Ramdas Pophale) SiO2 
 PCOD9485995
Probable space group: C M M M
;
_chemical_formula_sum "Si O2"
_cell_formula_units_Z 88
_cell_length_a 27.897931
_cell_length_b 8.177819
_cell_length_c 19.246449
_cell_angle_alpha 90.000000
_cell_angle_beta 90.000000
_cell_angle_gamma 90.000000
_cell_volume 4390.966291
_symmetry_space_group_name_H-M "C M M M"
_symmetry_group_IT_number 65
_symmetry_cell_setting 'orthorhombic'
loop_
_space_group_symop_operation_xyz
x,y,z
-x,-y,z
x,-y,-z
-x,y,-z
-x,-y,-z
x,y,-z
-x,y,z
x,-y,z
1/2+x,1/2+y,z
1/2-x,1/2-y,z
1/2+x,1/2-y,-z
1/2-x,1/2+y,-z
1/2-x,1/2-y,-z
1/2+x,1/2+y,-z
1/2-x,1/2+y,z
1/2+x,1/2-y,z
loop_
_atom_site_type_symbol
_atom_site_label
_atom_site_fract_x
_atom_site_fract_y
_atom_site_fract_z
Si Si1 0.101631 0.307572 0.921430
Si Si2 0.697141 0.306287 0.852127
Si Si3 0.697384 0.197306 0.691440
Si Si4 0.097292 0.687989 0.349466
Si Si5 0.056189 0.812546 0.215341
Si Si6 0.000000 0.697434 0.417879
O O1 0.090644 0.500000 0.919583
O O2 0.156005 0.280288 0.896142
O O3 0.069693 0.219340 0.863908
O O4 0.095158 0.247733 0.000000
O O5 0.692018 0.500000 0.860020
O O6 0.750000 0.250000 0.873694
O O7 0.692435 0.263130 0.770326
O O8 0.750000 0.250000 0.666058
O O9 0.651344 0.256082 0.646980
O O10 0.695757 0.000000 0.694799
O O11 0.100011 0.500000 0.373479
O O12 0.084660 0.696977 0.267684
O O13 0.050093 0.762786 0.386024
O O14 0.000000 0.786531 0.225936
O O15 0.068330 0.000000 0.233157
O O16 0.000000 0.500000 0.403727
O O17 0.000000 0.721801 0.500000
#
# Coordination Sequence:
#
# PCOD9485995 Si02
#       6
#    16  16  16  16  16   8
#     4  11  24  40  56  75 103 142 188 237 288 343
#     4  11  21  34  54  78 107 142 182 232 287 340
#     4  10  19  31  51  81 113 147 191 236 283 335
#     4  10  19  33  58  86 114 151 190 233 281 336
#     4  11  23  37  56  82 109 141 183 231 284 346
#     4   9  18  34  59  93 124 151 188 235 283 330
#
# _framework density 20.041146999999999
#
# number of rings (size 3 to 8) (size 9 to 14) (size 15 to 20)
#    0.000    1.545    2.727    4.364    0.000    4.000 
#    0.000    1.818    0.000    1.636    0.000    0.000 
#    0.000    0.000    0.000    0.000    0.000    0.727 
#
# Total GULP energy -245608.299062 kJ/mol
# GULP energy per Si atom -5582.006797 kJ/mol
# Density = 1.999553 g / cm^3
# Si number density = 20.041147 Si / 1000 Ang^3
#
#
#
# Elastic Constant Matrix: (Units=GPa)
#
#
# Indices 1 2 3 4 5 6 
#
# 1 92.9708 0.5803 36.1669 0.0000 0.0000 0.0000
# 2 0.5803 29.6696 -8.0253 0.0000 0.0000 0.0000
# 3 36.1669 -8.0253 39.0920 0.0000 0.0000 0.0000
# 4 0.0000 0.0000 0.0000 5.1692 0.0000 0.0000
# 5 0.0000 0.0000 0.0000 0.0000 10.5776 0.0000
# 6 0.0000 0.0000 0.0000 0.0000 0.0000 16.5759
#
#
#
# Elastic Compliance Matrix: (Units=1/GPa)
#
#
# Indices 1 2 3 4 5 6 
#
# 1 0.017475 -0.004992 -0.017193 0.000000 0.000000 0.000000
# 2 -0.004992 0.037112 0.012238 0.000000 0.000000 0.000000
# 3 -0.017193 0.012238 0.043999 0.000000 0.000000 0.000000
# 4 0.000000 0.000000 0.000000 0.193455 0.000000 0.000000
# 5 0.000000 0.000000 0.000000 0.000000 0.094539 0.000000
# 6 0.000000 0.000000 0.000000 0.000000 0.000000 0.060329
#
#
# Mechanical properties :
#
#
# Convention : Reuss Voigt Hill
#
# Bulk Modulus (GPa) = 12.70772 24.35290 18.53031
# Shear Modulus (GPa) = 10.14127 15.33190 12.73658
#
# Velocity S-wave (km/s) = 2.25193 2.76890 2.52369
# Velocity P-wave (km/s) = 3.62163 4.73289 4.21405
#
# Compressibility (1/GPa) = 0.07869232
#
# Stress axis : x y z
#
# Youngs Moduli (GPa) = 57.22327 26.94522 22.72767
#
# Poissons Ratio (x) = 0.13452 0.39075
# Poissons Ratio (y) = 0.28567 -0.27813
# Poissons Ratio (z) = 0.98382 -0.32974
#
# Static dielectric constant tensor:
#      x y z
#    x 1.751830 0.000000 0.000000 
#    y 0.000000 1.717370 0.000000 
#    z 0.000000 0.000000 1.671260 
# 
# From -- ./inp_files/50361.got.cif
#   From: 2010.05.17/outbox.cif.g08.bks.cpg/sg65_26_cif.got.tgz:50361.got - 2010.06.03 17:01:31.
