data_PCOD9485677
_publ_section_title
;
Structure prediction by ZEFSAII (Michael W. Deem and Ramdas Pophale) SiO2 
 PCOD9485677
Probable space group: C M M M
;
_chemical_formula_sum "Si O2"
_cell_formula_units_Z 80
_cell_length_a 18.895111
_cell_length_b 7.800392
_cell_length_c 26.636251
_cell_angle_alpha 90.000000
_cell_angle_beta 90.000000
_cell_angle_gamma 90.000000
_cell_volume 3925.897662
_symmetry_space_group_name_H-M "C M M M"
_symmetry_group_IT_number 65
_symmetry_cell_setting 'orthorhombic'
loop_
_space_group_symop_operation_xyz
x,y,z
-x,-y,z
x,-y,-z
-x,y,-z
-x,-y,-z
x,y,-z
-x,y,z
x,-y,z
1/2+x,1/2+y,z
1/2-x,1/2-y,z
1/2+x,1/2-y,-z
1/2-x,1/2+y,-z
1/2-x,1/2-y,-z
1/2+x,1/2+y,-z
1/2-x,1/2+y,z
1/2+x,1/2-y,z
loop_
_atom_site_type_symbol
_atom_site_label
_atom_site_fract_x
_atom_site_fract_y
_atom_site_fract_z
Si Si1 0.668062 0.797477 0.153298
Si Si2 0.581901 0.209212 0.556386
Si Si3 0.581775 0.210384 0.249493
Si Si4 0.080249 0.793940 0.056245
Si Si5 0.167753 0.293689 0.347493
O O1 0.750000 0.750000 0.156581
O O2 0.622032 0.726695 0.199647
O O3 0.633812 0.751622 0.100041
O O4 0.663973 0.000000 0.157845
O O5 0.601807 0.264885 0.500000
O O6 0.500000 0.257846 0.565563
O O7 0.632355 0.270143 0.600882
O O8 0.583408 0.000000 0.556337
O O9 0.500000 0.263578 0.250163
O O10 0.623943 0.266795 0.299036
O O11 0.582017 0.000000 0.249432
O O12 0.000000 0.732810 0.067487
O O13 0.077583 0.000000 0.054270
O O14 0.099502 0.733087 0.000000
O O15 0.161885 0.500000 0.347999
O O16 0.250000 0.250000 0.343782
#
# Coordination Sequence:
#
# PCOD9485677 Si02
#       5
#    16  16  16  16  16
#     4  11  22  35  53  77 106 137 170 210 254 302
#     4   8  14  26  46  71  95 123 166 212 245 281
#     4   9  18  33  53  75  97 126 168 212 251 295
#     4   9  19  37  59  81 106 136 170 209 253 301
#     4  10  19  31  49  72 100 131 161 200 250 299
#
# _framework density 20.377503999999998
#
# number of rings (size 3 to 8) (size 9 to 14) (size 15 to 20)
#    0.000    2.600    0.000    3.600    0.000    4.800 
#    0.000    2.000    0.000    4.800    0.000    1.400 
#    0.000    0.000    0.000    0.000    0.000    0.000 
#
# Total GULP energy -223303.729185 kJ/mol
# GULP energy per Si atom -5582.593230 kJ/mol
# Density = 2.033112 g / cm^3
# Si number density = 20.377504 Si / 1000 Ang^3
#
#
#
# Elastic Constant Matrix: (Units=GPa)
#
#
# Indices 1 2 3 4 5 6 
#
# 1 197.2882 5.3042 150.8339 0.0000 0.0000 0.0000
# 2 5.3042 25.0055 10.6103 0.0000 0.0000 0.0000
# 3 150.8339 10.6103 204.9144 0.0000 0.0000 0.0000
# 4 0.0000 0.0000 0.0000 31.6744 0.0000 0.0000
# 5 0.0000 0.0000 0.0000 0.0000 8.6333 0.0000
# 6 0.0000 0.0000 0.0000 0.0000 0.0000 -4.8342
#
#
#
# Elastic Compliance Matrix: (Units=1/GPa)
#
#
# Indices 1 2 3 4 5 6 
#
# 1 0.011627 0.001191 -0.008620 0.000000 0.000000 0.000000
# 2 0.001191 0.041012 -0.003000 0.000000 0.000000 0.000000
# 3 -0.008620 -0.003000 0.011381 0.000000 0.000000 0.000000
# 4 0.000000 0.000000 0.000000 0.031571 0.000000 0.000000
# 5 0.000000 0.000000 0.000000 0.000000 0.115831 0.000000
# 6 0.000000 0.000000 0.000000 0.000000 0.000000 -0.206860
#
#
# Mechanical properties :
#
#
# Convention : Reuss Voigt Hill
#
# Bulk Modulus (GPa) = 23.16925 84.52279 53.84602
# Shear Modulus (GPa) = 125.60567 24.45869 75.03218
#
# Velocity S-wave (km/s) = 7.85959 3.46826 6.07462
# Velocity P-wave (km/s) = 9.68292 7.58993 8.69960
#
# Compressibility (1/GPa) = 0.04316065
#
# Stress axis : x y z
#
# Youngs Moduli (GPa) = 86.00533 24.38337 87.86833
#
# Poissons Ratio (x) = -0.02905 0.75745
# Poissons Ratio (y) = -0.10246 0.26365
# Poissons Ratio (z) = 0.74139 0.07316
#
# Static dielectric constant tensor:
#      x y z
#    x 1.643340 0.000000 0.000000 
#    y 0.000000 1.761450 0.000000 
#    z 0.000000 0.000000 1.734140 
# 
# From -- ./inp_files/68828.got.cif
#   From: 2010.05.17/outbox.cif.g08.bks.cpg/sg65_35_cif.got.tgz:68828.got - 2010.06.03 17:01:31.
