data_PCOD9485450
_publ_section_title
;
Structure prediction by ZEFSAII (Michael W. Deem and Ramdas Pophale) SiO2 
 PCOD9485450
Probable space group: C M M M
;
_chemical_formula_sum "Si O2"
_cell_formula_units_Z 120
_cell_length_a 8.275804
_cell_length_b 28.751264
_cell_length_c 28.604618
_cell_angle_alpha 90.000000
_cell_angle_beta 90.000000
_cell_angle_gamma 90.000000
_cell_volume 6806.177819
_symmetry_space_group_name_H-M "C M M M"
_symmetry_group_IT_number 65
_symmetry_cell_setting 'orthorhombic'
loop_
_space_group_symop_operation_xyz
x,y,z
-x,-y,z
x,-y,-z
-x,y,-z
-x,-y,-z
x,y,-z
-x,y,z
x,-y,z
1/2+x,1/2+y,z
1/2-x,1/2-y,z
1/2+x,1/2-y,-z
1/2-x,1/2+y,-z
1/2-x,1/2-y,-z
1/2+x,1/2+y,-z
1/2-x,1/2+y,z
1/2+x,1/2-y,z
loop_
_atom_site_type_symbol
_atom_site_label
_atom_site_fract_x
_atom_site_fract_y
_atom_site_fract_z
Si Si1 0.194653 0.302089 0.890233
Si Si2 0.817990 0.110067 0.056346
Si Si3 0.192440 0.698096 0.218011
Si Si4 0.694750 0.552240 0.356887
Si Si5 0.500000 0.946769 0.943116
Si Si6 0.807215 0.855680 0.305800
Si Si7 0.804192 0.605512 0.552898
Si Si8 0.807638 0.698193 0.604511
O O1 0.250000 0.250000 0.901891
O O2 0.282009 0.339545 0.922358
O O3 0.240683 0.310440 0.835828
O O4 0.000000 0.305988 0.894741
O O5 0.666012 0.078383 0.071769
O O6 0.000000 0.094386 0.069550
O O7 0.813319 0.112041 0.000000
O O8 0.250000 0.750000 0.231002
O O9 0.256586 0.660840 0.254727
O O10 0.000000 0.697845 0.219716
O O11 0.500000 0.551266 0.353923
O O12 0.754871 0.500000 0.347499
O O13 0.753026 0.593371 0.322266
O O14 0.741711 0.569338 0.408718
O O15 0.500000 0.000000 0.927784
O O16 0.500000 0.946073 0.000000
O O17 0.745644 0.818584 0.344038
O O18 0.000000 0.856086 0.308431
O O19 0.751501 0.596114 0.500000
O O20 0.750852 0.657093 0.569757
O O21 0.000000 0.604603 0.554006
O O22 0.750000 0.750000 0.593747
O O23 0.000000 0.698457 0.603092
#
# Coordination Sequence:
#
# PCOD9485450 Si02
#       8
#    16  16  16  16   8  16  16  16
#     4  10  20  34  52  76 109 148 185 225 270 324
#     4  10  20  34  54  81 113 149 191 236 283 336
#     4  10  20  33  51  76 105 135 171 209 253 304
#     4   9  19  35  53  73  95 121 157 200 245 293
#     4   9  18  34  56  80 108 142 184 238 289 329
#     4  10  19  32  51  72  95 125 160 201 249 296
#     4   9  19  34  49  68  95 125 157 193 235 285
#     4  10  19  31  47  67  94 125 157 195 236 285
#
# _framework density 17.631041
#
# number of rings (size 3 to 8) (size 9 to 14) (size 15 to 20)
#    0.000    2.333    0.667    2.000    0.000    4.267 
#    0.000    2.667    0.000    0.800    0.000    1.867 
#    0.000    0.000    0.000    0.000    0.000    0.000 
#
# Total GULP energy -334623.109046 kJ/mol
# GULP energy per Si atom -5577.051817 kJ/mol
# Density = 1.759091 g / cm^3
# Si number density = 17.631041 Si / 1000 Ang^3
#
#
#
# Elastic Constant Matrix: (Units=GPa)
#
#
# Indices 1 2 3 4 5 6 
#
# 1 63.3019 35.9034 25.0721 0.0000 0.0000 0.0000
# 2 35.9034 104.0564 26.2683 0.0000 0.0000 0.0000
# 3 25.0721 26.2683 18.7023 0.0000 0.0000 0.0000
# 4 0.0000 0.0000 0.0000 14.4273 0.0000 0.0000
# 5 0.0000 0.0000 0.0000 0.0000 17.9673 0.0000
# 6 0.0000 0.0000 0.0000 0.0000 0.0000 21.1867
#
#
#
# Elastic Compliance Matrix: (Units=1/GPa)
#
#
# Indices 1 2 3 4 5 6 
#
# 1 0.033689 -0.000345 -0.044678 0.000000 0.000000 0.000000
# 2 -0.000345 0.014893 -0.020455 0.000000 0.000000 0.000000
# 3 -0.044678 -0.020455 0.142096 0.000000 0.000000 0.000000
# 4 0.000000 0.000000 0.000000 0.069313 0.000000 0.000000
# 5 0.000000 0.000000 0.000000 0.000000 0.055657 0.000000
# 6 0.000000 0.000000 0.000000 0.000000 0.000000 0.047199
#
#
# Mechanical properties :
#
#
# Convention : Reuss Voigt Hill
#
# Bulk Modulus (GPa) = 16.74485 40.06091 28.40288
# Shear Modulus (GPa) = 9.73310 17.30404 13.51857
#
# Velocity S-wave (km/s) = 2.35211 3.13621 2.77203
# Velocity P-wave (km/s) = 4.11030 5.99046 5.13713
#
# Compressibility (1/GPa) = 0.05971985
#
# Stress axis : x y z
#
# Youngs Moduli (GPa) = 29.68330 67.14531 7.03752
#
# Poissons Ratio (x) = 0.02318 0.31442
# Poissons Ratio (y) = 0.01025 0.14395
# Poissons Ratio (z) = 1.32620 1.37348
#
# Static dielectric constant tensor:
#      x y z
#    x 1.617350 0.000000 0.000000 
#    y 0.000000 1.598940 0.000000 
#    z 0.000000 0.000000 1.589830 
# 
# From -- ./inp_files/73925.got.cif
#   From: 2010.05.17/outbox.cif.g08.bks.cpg/sg65_37_cif.got.tgz:73925.got - 2010.06.03 17:01:31.
