data_PCOD9485622
_publ_section_title
;
Structure prediction by ZEFSAII (Michael W. Deem and Ramdas Pophale) SiO2 
 PCOD9485622
Probable space group: C M M M
;
_chemical_formula_sum "Si O2"
_cell_formula_units_Z 96
_cell_length_a 24.880022
_cell_length_b 14.518985
_cell_length_c 13.784527
_cell_angle_alpha 90.000000
_cell_angle_beta 90.000000
_cell_angle_gamma 90.000000
_cell_volume 4979.421441
_symmetry_space_group_name_H-M "C M M M"
_symmetry_group_IT_number 65
_symmetry_cell_setting 'orthorhombic'
loop_
_space_group_symop_operation_xyz
x,y,z
-x,-y,z
x,-y,-z
-x,y,-z
-x,-y,-z
x,y,-z
-x,y,z
x,-y,z
1/2+x,1/2+y,z
1/2-x,1/2-y,z
1/2+x,1/2-y,-z
1/2-x,1/2+y,-z
1/2-x,1/2-y,-z
1/2+x,1/2+y,-z
1/2-x,1/2+y,z
1/2+x,1/2-y,z
loop_
_atom_site_type_symbol
_atom_site_label
_atom_site_fract_x
_atom_site_fract_y
_atom_site_fract_z
Si Si1 0.500000 0.392458 0.237800
Si Si2 0.816289 0.111460 0.389349
Si Si3 0.295920 0.109464 0.292222
Si Si4 0.093528 0.397113 0.385324
Si Si5 0.813222 0.270145 0.106704
Si Si6 0.500000 0.235669 0.383485
Si Si7 0.880417 0.890581 0.799758
O O1 0.500000 0.500000 0.261359
O O2 0.500000 0.333997 0.335099
O O3 0.556345 0.373694 0.184559
O O4 0.822645 0.146424 0.500000
O O5 0.760723 0.142157 0.337413
O O6 0.863618 0.130453 0.312434
O O7 0.812985 0.000000 0.396470
O O8 0.344493 0.125093 0.366633
O O9 0.315615 0.157476 0.194092
O O10 0.290011 0.000000 0.276052
O O11 0.084469 0.401894 0.500000
O O12 0.083094 0.500000 0.345073
O O13 0.051974 0.321763 0.348840
O O14 0.750000 0.250000 0.101135
O O15 0.844755 0.177348 0.135823
O O16 0.831220 0.302337 0.000000
O O17 0.500000 0.242379 0.500000
O O18 0.869196 0.000000 0.815853
#
# Coordination Sequence:
#
# PCOD9485622 Si02
#       7
#     8  16  16  16  16   8  16
#     4  10  22  38  58  78 107 153 199 244 287 329
#     4   9  17  31  53  80 112 149 185 224 272 327
#     4  10  19  34  55  81 114 148 183 224 275 342
#     4   9  17  30  52  81 112 147 185 226 275 334
#     4  11  23  38  58  84 112 142 182 235 293 350
#     4  10  19  31  48  74 113 153 194 237 276 324
#     4  10  21  40  60  82 113 150 194 241 287 336
#
# _framework density 19.279347000000001
#
# number of rings (size 3 to 8) (size 9 to 14) (size 15 to 20)
#    0.000    2.167    1.667    1.750    0.000    4.500 
#    0.000    6.250    0.000    1.500    0.000    0.000 
#    0.000    6.667    0.000    0.000    0.000    0.000 
#
# Total GULP energy -267740.818472 kJ/mol
# GULP energy per Si atom -5577.933718 kJ/mol
# Density = 1.923547 g / cm^3
# Si number density = 19.279347 Si / 1000 Ang^3
#
#
#
# Elastic Constant Matrix: (Units=GPa)
#
#
# Indices 1 2 3 4 5 6 
#
# 1 115.0813 39.5983 6.5050 0.0000 0.0000 0.0000
# 2 39.5983 36.7949 14.1506 0.0000 0.0000 0.0000
# 3 6.5050 14.1506 56.2533 0.0000 0.0000 0.0000
# 4 0.0000 0.0000 0.0000 15.2118 0.0000 0.0000
# 5 0.0000 0.0000 0.0000 0.0000 42.0737 0.0000
# 6 0.0000 0.0000 0.0000 0.0000 0.0000 19.5747
#
#
#
# Elastic Compliance Matrix: (Units=1/GPa)
#
#
# Indices 1 2 3 4 5 6 
#
# 1 0.014091 -0.016095 0.002419 0.000000 0.000000 0.000000
# 2 -0.016095 0.048472 -0.010332 0.000000 0.000000 0.000000
# 3 0.002419 -0.010332 0.020096 0.000000 0.000000 0.000000
# 4 0.000000 0.000000 0.000000 0.065739 0.000000 0.000000
# 5 0.000000 0.000000 0.000000 0.000000 0.023768 0.000000
# 6 0.000000 0.000000 0.000000 0.000000 0.000000 0.051086
#
#
# Mechanical properties :
#
#
# Convention : Reuss Voigt Hill
#
# Bulk Modulus (GPa) = 28.86520 36.51527 32.69023
# Shear Modulus (GPa) = 17.67939 25.23041 21.45490
#
# Velocity S-wave (km/s) = 3.03151 3.62149 3.33955
# Velocity P-wave (km/s) = 5.22092 6.03888 5.64473
#
# Compressibility (1/GPa) = 0.03464380
#
# Stress axis : x y z
#
# Youngs Moduli (GPa) = 70.96833 20.63036 49.76099
#
# Poissons Ratio (x) = 0.33204 -0.12038
# Poissons Ratio (y) = 1.14222 0.51414
# Poissons Ratio (z) = -0.17169 0.21316
#
# Static dielectric constant tensor:
#      x y z
#    x 1.691680 0.000000 0.000000 
#    y 0.000000 1.708210 0.000000 
#    z 0.000000 0.000000 1.668320 
# 
# From -- ./inp_files/45666.got.cif
#   From: 2010.05.17/outbox.cif.g08.bks.cpg/sg65_23_cif.got.tgz:45666.got - 2010.06.03 17:01:31.
