data_PCOD9485635
_publ_section_title
;
Structure prediction by ZEFSAII (Michael W. Deem and Ramdas Pophale) SiO2 
 PCOD9485635
Probable space group: C M M M
;
_chemical_formula_sum "Si O2"
_cell_formula_units_Z 88
_cell_length_a 7.412280
_cell_length_b 19.028883
_cell_length_c 29.470253
_cell_angle_alpha 90.000000
_cell_angle_beta 90.000000
_cell_angle_gamma 90.000000
_cell_volume 4156.702825
_symmetry_space_group_name_H-M "C M M M"
_symmetry_group_IT_number 65
_symmetry_cell_setting 'orthorhombic'
loop_
_space_group_symop_operation_xyz
x,y,z
-x,-y,z
x,-y,-z
-x,y,-z
-x,-y,-z
x,y,-z
-x,y,z
x,-y,z
1/2+x,1/2+y,z
1/2-x,1/2-y,z
1/2+x,1/2-y,-z
1/2-x,1/2+y,-z
1/2-x,1/2-y,-z
1/2+x,1/2+y,-z
1/2-x,1/2+y,z
1/2+x,1/2-y,z
loop_
_atom_site_type_symbol
_atom_site_label
_atom_site_fract_x
_atom_site_fract_y
_atom_site_fract_z
Si Si1 0.779023 0.580947 0.637291
Si Si2 0.715784 0.832067 0.174624
Si Si3 0.715697 0.832320 0.449423
Si Si4 0.284458 0.833099 0.000000
Si Si5 0.715632 0.168094 0.276296
Si Si6 0.220877 0.581248 0.088055
O O1 0.725634 0.500000 0.636934
O O2 0.716827 0.621259 0.592159
O O3 0.716907 0.620281 0.682794
O O4 0.000000 0.583194 0.637325
O O5 0.500000 0.840765 0.176285
O O6 0.750000 0.750000 0.164212
O O7 0.785970 0.846671 0.225474
O O8 0.782179 0.882151 0.134654
O O9 0.785657 0.849302 0.500000
O O10 0.500000 0.841840 0.450899
O O11 0.750000 0.750000 0.440935
O O12 0.250000 0.750000 0.000000
O O13 0.218511 0.872378 0.954787
O O14 0.500000 0.841559 0.000000
O O15 0.500000 0.158500 0.274529
O O16 0.750000 0.250000 0.286155
O O17 0.275391 0.500000 0.084415
O O18 0.000000 0.581999 0.088189
#
# Coordination Sequence:
#
# PCOD9485635 Si02
#       6
#    16  16  16   8  16  16
#     4   9  17  28  43  65  90 113 141 179 218 254
#     4   9  17  29  46  67  89 114 145 180 216 255
#     4   9  17  29  46  66  86 111 143 177 213 254
#     4  10  19  31  49  69  89 116 148 182 218 256
#     4   9  17  29  46  66  87 114 146 179 215 254
#     4   9  17  29  46  68  91 115 146 182 217 255
#
# _framework density 21.170625999999999
#
# number of rings (size 3 to 8) (size 9 to 14) (size 15 to 20)
#    0.000    2.909    0.000    1.364    0.000    2.182 
#    0.000    5.455    0.000    4.909    0.000    7.636 
#    0.000    0.000    0.000    0.000    0.000    0.000 
#
# Total GULP energy -245669.031754 kJ/mol
# GULP energy per Si atom -5583.387085 kJ/mol
# Density = 2.112244 g / cm^3
# Si number density = 21.170626 Si / 1000 Ang^3
#
#
#
# Elastic Constant Matrix: (Units=GPa)
#
#
# Indices 1 2 3 4 5 6 
#
# 1 71.4525 -1.0985 10.0865 0.0000 0.0000 0.0000
# 2 -1.0985 183.3760 172.3877 0.0000 0.0000 0.0000
# 3 10.0865 172.3877 231.7304 0.0000 0.0000 0.0000
# 4 0.0000 0.0000 0.0000 210.6308 0.0000 0.0000
# 5 0.0000 0.0000 0.0000 0.0000 2.0707 0.0000
# 6 0.0000 0.0000 0.0000 0.0000 0.0000 20.2125
#
#
#
# Elastic Compliance Matrix: (Units=1/GPa)
#
#
# Indices 1 2 3 4 5 6 
#
# 1 0.014353 0.002239 -0.002291 0.000000 0.000000 0.000000
# 2 0.002239 0.018487 -0.013850 0.000000 0.000000 0.000000
# 3 -0.002291 -0.013850 0.014718 0.000000 0.000000 0.000000
# 4 0.000000 0.000000 0.000000 0.004748 0.000000 0.000000
# 5 0.000000 0.000000 0.000000 0.000000 0.482937 0.000000
# 6 0.000000 0.000000 0.000000 0.000000 0.000000 0.049474
#
#
# Mechanical properties :
#
#
# Convention : Reuss Voigt Hill
#
# Bulk Modulus (GPa) = 50.61878 94.36781 72.49330
# Shear Modulus (GPa) = 8.07617 66.92835 37.50226
#
# Velocity S-wave (km/s) = 1.95527 5.62871 4.21340
# Velocity P-wave (km/s) = 5.39066 9.32281 7.61492
#
# Compressibility (1/GPa) = 0.01975552
#
# Stress axis : x y z
#
# Youngs Moduli (GPa) = 69.67144 54.09234 67.94219
#
# Poissons Ratio (x) = -0.12113 0.15563
# Poissons Ratio (y) = -0.15602 0.94101
# Poissons Ratio (z) = 0.15959 0.74919
#
# Static dielectric constant tensor:
#      x y z
#    x 1.809530 0.000000 0.000000 
#    y 0.000000 1.689910 0.000000 
#    z 0.000000 0.000000 1.762410 
# 
# From -- ./inp_files/74236.got.cif
#   From: 2010.05.17/outbox.cif.g08.bks.cpg/sg65_38_cif.got.tgz:74236.got - 2010.06.03 17:01:31.
