data_PCOD9485550
_publ_section_title
;
Structure prediction by ZEFSAII (Michael W. Deem and Ramdas Pophale) SiO2 
 PCOD9485550
Probable space group: C M M M
;
_chemical_formula_sum "Si O2"
_cell_formula_units_Z 112
_cell_length_a 14.989805
_cell_length_b 17.231733
_cell_length_c 22.518788
_cell_angle_alpha 90.000000
_cell_angle_beta 90.000000
_cell_angle_gamma 90.000000
_cell_volume 5816.610090
_symmetry_space_group_name_H-M "C M M M"
_symmetry_group_IT_number 65
_symmetry_cell_setting 'orthorhombic'
loop_
_space_group_symop_operation_xyz
x,y,z
-x,-y,z
x,-y,-z
-x,y,-z
-x,-y,-z
x,y,-z
-x,y,z
x,-y,z
1/2+x,1/2+y,z
1/2-x,1/2-y,z
1/2+x,1/2-y,-z
1/2-x,1/2+y,-z
1/2-x,1/2-y,-z
1/2+x,1/2+y,-z
1/2-x,1/2+y,z
1/2+x,1/2-y,z
loop_
_atom_site_type_symbol
_atom_site_label
_atom_site_fract_x
_atom_site_fract_y
_atom_site_fract_z
Si Si1 0.897407 0.750694 0.900072
Si Si2 0.104919 0.582999 0.071026
Si Si3 0.096800 0.306001 0.228024
Si Si4 0.230569 0.087895 0.771908
Si Si5 0.891982 0.085009 0.110863
Si Si6 0.107022 0.087332 0.567761
Si Si7 0.337617 0.300354 0.671196
O O1 0.854754 0.667076 0.913822
O O2 0.897073 0.752171 0.828154
O O3 0.865723 0.834691 0.921738
O O4 0.000000 0.744185 0.921223
O O5 0.143496 0.500000 0.093557
O O6 0.000000 0.583734 0.089665
O O7 0.105898 0.579616 0.000000
O O8 0.178378 0.364241 0.219614
O O9 0.103780 0.259385 0.289624
O O10 0.000000 0.344566 0.223882
O O11 0.166256 0.085841 0.829083
O O12 0.182816 0.131611 0.718092
O O13 0.252032 0.000000 0.755942
O O14 0.000000 0.090453 0.122066
O O15 0.877498 0.000000 0.082200
O O16 0.138354 0.100927 0.500000
O O17 0.130389 0.156142 0.612597
O O18 0.000000 0.083964 0.566200
O O19 0.137977 0.000000 0.585996
O O20 0.250000 0.250000 0.657661
#
# Coordination Sequence:
#
# PCOD9485550 Si02
#       7
#    16  16  16  16  16  16  16
#     4   9  16  27  45  66  94 130 162 204 259 306
#     4   8  14  25  42  66  95 127 168 215 258 305
#     4  10  20  32  47  70 100 132 165 201 250 310
#     4  10  20  32  47  69  97 130 168 205 247 298
#     4   9  17  29  46  69  95 124 164 211 252 297
#     4   9  18  32  50  72  96 123 159 205 253 295
#     4  10  19  31  48  69  98 130 164 201 241 294
#
# _framework density 19.255201
#
# number of rings (size 3 to 8) (size 9 to 14) (size 15 to 20)
#    0.000    2.714    1.429    1.714    0.000    1.714 
#    0.000    2.857    0.000    0.429    0.000    5.000 
#    0.000    1.143    0.000   26.571    0.000    1.286 
#
# Total GULP energy -311754.031972 kJ/mol
# GULP energy per Si atom -5567.036285 kJ/mol
# Density = 1.921138 g / cm^3
# Si number density = 19.255201 Si / 1000 Ang^3
#
#
#
# Elastic Constant Matrix: (Units=GPa)
#
#
# Indices 1 2 3 4 5 6 
#
# 1 54.8679 15.1162 7.8754 0.0000 0.0000 0.0000
# 2 15.1162 182.3442 29.3196 0.0000 0.0000 0.0000
# 3 7.8754 29.3196 54.9220 0.0000 0.0000 0.0000
# 4 0.0000 0.0000 0.0000 29.0185 0.0000 0.0000
# 5 0.0000 0.0000 0.0000 0.0000 14.8144 0.0000
# 6 0.0000 0.0000 0.0000 0.0000 0.0000 5.5796
#
#
#
# Elastic Compliance Matrix: (Units=1/GPa)
#
#
# Indices 1 2 3 4 5 6 
#
# 1 0.018859 -0.001235 -0.002045 0.000000 0.000000 0.000000
# 2 -0.001235 0.006080 -0.003069 0.000000 0.000000 0.000000
# 3 -0.002045 -0.003069 0.020139 0.000000 0.000000 0.000000
# 4 0.000000 0.000000 0.000000 0.034461 0.000000 0.000000
# 5 0.000000 0.000000 0.000000 0.000000 0.067502 0.000000
# 6 0.000000 0.000000 0.000000 0.000000 0.000000 0.179224
#
#
# Mechanical properties :
#
#
# Convention : Reuss Voigt Hill
#
# Bulk Modulus (GPa) = 30.88195 44.08403 37.48299
# Shear Modulus (GPa) = 14.29570 25.87070 20.08320
#
# Velocity S-wave (km/s) = 2.72772 3.66945 3.23306
# Velocity P-wave (km/s) = 5.09840 6.39511 5.78321
#
# Compressibility (1/GPa) = 0.03238138
#
# Stress axis : x y z
#
# Youngs Moduli (GPa) = 53.02428 164.47647 49.65468
#
# Poissons Ratio (x) = 0.20306 0.10155
# Poissons Ratio (y) = 0.06546 0.15237
# Poissons Ratio (z) = 0.10845 0.50472
#
# Static dielectric constant tensor:
#      x y z
#    x 1.688530 0.000000 0.000000 
#    y 0.000000 1.743360 0.000000 
#    z 0.000000 0.000000 1.675700 
# 
# From -- ./inp_files/74908.got.cif
#   From: 2010.05.17/outbox.cif.g08.bks.cpg/sg65_38_cif.got.tgz:74908.got - 2010.06.03 17:01:31.
