data_PCOD9485532
_publ_section_title
;
Structure prediction by ZEFSAII (Michael W. Deem and Ramdas Pophale) SiO2 
 PCOD9485532
Probable space group: C M M M
;
_chemical_formula_sum "Si O2"
_cell_formula_units_Z 96
_cell_length_a 33.927840
_cell_length_b 19.233400
_cell_length_c 8.219272
_cell_angle_alpha 90.000000
_cell_angle_beta 90.000000
_cell_angle_gamma 90.000000
_cell_volume 5363.467186
_symmetry_space_group_name_H-M "C M M M"
_symmetry_group_IT_number 65
_symmetry_cell_setting 'orthorhombic'
loop_
_space_group_symop_operation_xyz
x,y,z
-x,-y,z
x,-y,-z
-x,y,-z
-x,-y,-z
x,y,-z
-x,y,z
x,-y,z
1/2+x,1/2+y,z
1/2-x,1/2-y,z
1/2+x,1/2-y,-z
1/2-x,1/2+y,-z
1/2-x,1/2-y,-z
1/2+x,1/2+y,-z
1/2-x,1/2+y,z
1/2+x,1/2-y,z
loop_
_atom_site_type_symbol
_atom_site_label
_atom_site_fract_x
_atom_site_fract_y
_atom_site_fract_z
Si Si1 0.758242 0.419742 0.305234
Si Si2 0.170512 0.078992 0.196336
Si Si3 0.378203 0.290876 0.198535
Si Si4 0.543949 0.783078 0.195062
Si Si5 0.415038 0.077753 0.693151
Si Si6 0.162708 0.648733 0.193907
O O1 0.758552 0.418097 0.500000
O O2 0.765049 0.500000 0.252119
O O3 0.714835 0.399830 0.244418
O O4 0.793417 0.372523 0.240506
O O5 0.139409 0.136177 0.255501
O O6 0.163885 0.000000 0.256004
O O7 0.168637 0.077464 0.000000
O O8 0.421778 0.268741 0.255598
O O9 0.349565 0.226795 0.243721
O O10 0.379147 0.292899 0.000000
O O11 0.500000 0.771644 0.260317
O O12 0.558901 0.861075 0.230717
O O13 0.542591 0.775337 0.000000
O O14 0.421379 0.078803 0.500000
O O15 0.369565 0.097513 0.727799
O O16 0.423515 0.000000 0.754439
O O17 0.157866 0.644049 0.000000
#
# Coordination Sequence:
#
# PCOD9485532 Si02
#       6
#    16  16  16  16  16  16
#     4  10  20  32  45  65  96 128 158 196 236 269
#     4   9  17  31  51  70  89 119 157 191 228 280
#     4   8  16  31  49  70  93 117 150 193 235 272
#     4   9  18  33  52  71  92 122 157 190 228 278
#     4  10  20  32  46  67  97 129 159 195 236 270
#     4  10  19  31  48  68  93 127 164 197 228 268
#
# _framework density 17.898869000000001
#
# number of rings (size 3 to 8) (size 9 to 14) (size 15 to 20)
#    0.000    2.667    0.000    3.000    0.000    5.667 
#    0.000    9.167    0.000    0.500    0.000    3.500 
#    0.000    0.000    0.000   10.167    0.000   11.000 
#
# Total GULP energy -267672.362318 kJ/mol
# GULP energy per Si atom -5576.507548 kJ/mol
# Density = 1.785813 g / cm^3
# Si number density = 17.898869 Si / 1000 Ang^3
#
#
#
# Elastic Constant Matrix: (Units=GPa)
#
#
# Indices 1 2 3 4 5 6 
#
# 1 150.4185 92.6152 2.5515 0.0000 0.0000 0.0000
# 2 92.6152 87.7633 2.7256 0.0000 0.0000 0.0000
# 3 2.5515 2.7256 9.1533 0.0000 0.0000 0.0000
# 4 0.0000 0.0000 0.0000 -0.9899 0.0000 0.0000
# 5 0.0000 0.0000 0.0000 0.0000 -0.9972 0.0000
# 6 0.0000 0.0000 0.0000 0.0000 0.0000 8.4963
#
#
#
# Elastic Compliance Matrix: (Units=1/GPa)
#
#
# Indices 1 2 3 4 5 6 
#
# 1 0.018986 -0.020056 0.000680 0.000000 0.000000 0.000000
# 2 -0.020056 0.032688 -0.004143 0.000000 0.000000 0.000000
# 3 0.000680 -0.004143 0.110295 0.000000 0.000000 0.000000
# 4 0.000000 0.000000 0.000000 -1.010194 0.000000 0.000000
# 5 0.000000 0.000000 0.000000 0.000000 -1.002807 0.000000
# 6 0.000000 0.000000 0.000000 0.000000 0.000000 0.117698
#
#
# Mechanical properties :
#
#
# Convention : Reuss Voigt Hill
#
# Bulk Modulus (GPa) = 8.70094 49.23551 28.96823
# Shear Modulus (GPa) = -3.03401 11.26470 4.11535
#
# Velocity S-wave (km/s) = -1.30337 2.51141 1.51796
# Velocity P-wave (km/s) = 1.61453 5.99808 4.39224
#
# Compressibility (1/GPa) = 0.11493009
#
# Stress axis : x y z
#
# Youngs Moduli (GPa) = 52.67170 30.59234 9.06660
#
# Poissons Ratio (x) = 0.61357 -0.00616
# Poissons Ratio (y) = 1.05640 0.03756
# Poissons Ratio (z) = -0.03581 0.12674
#
# Static dielectric constant tensor:
#      x y z
#    x 1.604320 0.000000 0.000000 
#    y 0.000000 1.616570 0.000000 
#    z 0.000000 0.000000 1.618460 
# 
# From -- ./inp_files/16350.got.cif
#   From: 2010.05.17/outbox.cif.g08.bks.cpg/sg65_9_cif.got.tgz:16350.got - 2010.06.03 17:01:31.
