data_PCOD9485165
_publ_section_title
;
Structure prediction by ZEFSAII (Michael W. Deem and Ramdas Pophale) SiO2 
 PCOD9485165
Probable space group: C M M M
;
_chemical_formula_sum "Si O2"
_cell_formula_units_Z 120
_cell_length_a 20.006932
_cell_length_b 21.128310
_cell_length_c 17.143646
_cell_angle_alpha 90.000000
_cell_angle_beta 90.000000
_cell_angle_gamma 90.000000
_cell_volume 7246.836228
_symmetry_space_group_name_H-M "C M M M"
_symmetry_group_IT_number 65
_symmetry_cell_setting 'orthorhombic'
loop_
_space_group_symop_operation_xyz
x,y,z
-x,-y,z
x,-y,-z
-x,y,-z
-x,-y,-z
x,y,-z
-x,y,z
x,-y,z
1/2+x,1/2+y,z
1/2-x,1/2-y,z
1/2+x,1/2-y,-z
1/2-x,1/2+y,-z
1/2-x,1/2-y,-z
1/2+x,1/2+y,-z
1/2-x,1/2+y,z
1/2+x,1/2-y,z
loop_
_atom_site_type_symbol
_atom_site_label
_atom_site_fract_x
_atom_site_fract_y
_atom_site_fract_z
Si Si1 0.080117 0.755715 0.795981
Si Si2 0.500000 0.424973 0.410749
Si Si3 0.754979 0.175556 0.585194
Si Si4 0.774517 0.925746 0.806975
Si Si5 0.876454 0.869002 0.318061
Si Si6 0.920295 0.571569 0.584158
Si Si7 0.653603 0.864495 0.279282
Si Si8 0.306915 0.697870 0.906808
O O1 0.094597 0.810202 0.731667
O O2 0.116135 0.691386 0.766633
O O3 0.122626 0.778991 0.870884
O O4 0.000000 0.748756 0.807100
O O5 0.500000 0.500000 0.416705
O O6 0.500000 0.399015 0.500000
O O7 0.435944 0.404323 0.360998
O O8 0.741954 0.146281 0.500000
O O9 0.750000 0.250000 0.577348
O O10 0.827450 0.156500 0.615321
O O11 0.705107 0.160153 0.655228
O O12 0.830113 0.911269 0.739701
O O13 0.700372 0.908817 0.774339
O O14 0.789347 0.871166 0.871232
O O15 0.778280 0.000000 0.829537
O O16 0.900881 0.601821 0.500000
O O17 0.893733 0.500000 0.583300
O O18 0.898913 0.601164 0.665191
O O19 0.000000 0.569543 0.583238
O O20 0.250000 0.750000 0.883303
O O21 0.308870 0.695300 0.000000
#
# Coordination Sequence:
#
# PCOD9485165 Si02
#       8
#    16   8  16  16  16  16  16  16
#     4  11  21  35  57  85 112 148 181 229 280 337
#     4  11  22  36  52  70 103 153 198 238 292 351
#     4  10  19  30  47  70 102 141 184 236 285 320
#     4  10  21  35  59  88 114 143 181 229 279 335
#     4  10  20  35  52  75 108 143 189 240 283 333
#     4   9  18  32  47  66 100 146 191 233 274 315
#     4  11  19  32  52  77 111 141 186 225 276 331
#     4  10  21  40  64  88 114 145 179 222 272 334
#
# _framework density 16.558949999999999
#
# number of rings (size 3 to 8) (size 9 to 14) (size 15 to 20)
#    0.000    1.800    3.333    2.400    0.000    0.533 
#    0.000    0.000    0.000    6.400    0.000    1.867 
#    0.000    2.133    0.000    0.000    0.000    0.000 
#
# Total GULP energy -334099.512447 kJ/mol
# GULP energy per Si atom -5568.325207 kJ/mol
# Density = 1.652126 g / cm^3
# Si number density = 16.558950 Si / 1000 Ang^3
#
#
#
# Elastic Constant Matrix: (Units=GPa)
#
#
# Indices 1 2 3 4 5 6 
#
# 1 119.0889 45.5400 44.1697 0.0000 0.0000 0.0000
# 2 45.5400 101.5585 46.5552 0.0000 0.0000 0.0000
# 3 44.1697 46.5552 86.5181 0.0000 0.0000 0.0000
# 4 0.0000 0.0000 0.0000 18.6027 0.0000 0.0000
# 5 0.0000 0.0000 0.0000 0.0000 18.3690 0.0000
# 6 0.0000 0.0000 0.0000 0.0000 0.0000 54.8881
#
#
#
# Elastic Compliance Matrix: (Units=1/GPa)
#
#
# Indices 1 2 3 4 5 6 
#
# 1 0.011069 -0.003150 -0.003956 0.000000 0.000000 0.000000
# 2 -0.003150 0.013967 -0.005907 0.000000 0.000000 0.000000
# 3 -0.003956 -0.005907 0.016757 0.000000 0.000000 0.000000
# 4 0.000000 0.000000 0.000000 0.053756 0.000000 0.000000
# 5 0.000000 0.000000 0.000000 0.000000 0.054440 0.000000
# 6 0.000000 0.000000 0.000000 0.000000 0.000000 0.018219
#
#
# Mechanical properties :
#
#
# Convention : Reuss Voigt Hill
#
# Bulk Modulus (GPa) = 63.42845 64.41058 63.91952
# Shear Modulus (GPa) = 25.06406 29.76534 27.41470
#
# Velocity S-wave (km/s) = 3.89476 4.24434 4.07330
# Velocity P-wave (km/s) = 7.65593 7.93734 7.79791
#
# Compressibility (1/GPa) = 0.01576580
#
# Stress axis : x y z
#
# Youngs Moduli (GPa) = 90.34312 71.59697 59.67755
#
# Poissons Ratio (x) = 0.22553 0.23608
# Poissons Ratio (y) = 0.28458 0.35255
# Poissons Ratio (z) = 0.35740 0.42296
#
# Static dielectric constant tensor:
#      x y z
#    x 1.563570 0.000000 0.000000 
#    y 0.000000 1.556700 0.000000 
#    z 0.000000 0.000000 1.579030 
# 
# From -- ./inp_files/54968.got.cif
#   From: 2010.05.17/outbox.cif.g08.bks.cpg/sg65_28_cif.got.tgz:54968.got - 2010.06.03 17:01:31.
