data_PCOD9485234
_publ_section_title
;
Structure prediction by ZEFSAII (Michael W. Deem and Ramdas Pophale) SiO2 
 PCOD9485234
Probable space group: C M M M
;
_chemical_formula_sum "Si O2"
_cell_formula_units_Z 116
_cell_length_a 30.266684
_cell_length_b 7.447009
_cell_length_c 26.268427
_cell_angle_alpha 90.000000
_cell_angle_beta 90.000000
_cell_angle_gamma 90.000000
_cell_volume 5920.805416
_symmetry_space_group_name_H-M "C M M M"
_symmetry_group_IT_number 65
_symmetry_cell_setting 'orthorhombic'
loop_
_space_group_symop_operation_xyz
x,y,z
-x,-y,z
x,-y,-z
-x,y,-z
-x,-y,-z
x,y,-z
-x,y,z
x,-y,z
1/2+x,1/2+y,z
1/2-x,1/2-y,z
1/2+x,1/2-y,-z
1/2-x,1/2+y,-z
1/2-x,1/2-y,-z
1/2+x,1/2+y,-z
1/2-x,1/2+y,z
1/2+x,1/2-y,z
loop_
_atom_site_type_symbol
_atom_site_label
_atom_site_fract_x
_atom_site_fract_y
_atom_site_fract_z
Si Si1 0.798514 0.783526 0.594022
Si Si2 0.949981 0.784736 0.147322
Si Si3 0.116803 0.286103 0.943754
Si Si4 0.448835 0.280363 0.261327
Si Si5 0.699584 0.785256 0.116506
Si Si6 0.133267 0.794954 0.321217
Si Si7 0.301123 0.786371 0.768027
Si Si8 0.200036 0.500000 0.500000
O O1 0.750000 0.750000 0.618107
O O2 0.837472 0.724254 0.632261
O O3 0.799658 0.658907 0.544426
O O4 0.801896 0.000000 0.583602
O O5 0.918811 0.741092 0.100476
O O6 0.935761 0.722900 0.203814
O O7 0.000000 0.719815 0.138733
O O8 0.951564 0.000000 0.150351
O O9 0.121427 0.500000 0.948503
O O10 0.163307 0.214530 0.922423
O O11 0.105351 0.215962 0.000000
O O12 0.500000 0.229123 0.269942
O O13 0.447649 0.500000 0.261976
O O14 0.413082 0.214520 0.302177
O O15 0.750000 0.750000 0.101804
O O16 0.692121 0.717922 0.174212
O O17 0.694601 0.000000 0.119304
O O18 0.165284 0.793875 0.272274
O O19 0.123490 0.000000 0.335709
O O20 0.250000 0.750000 0.755003
O O21 0.307931 0.000000 0.767373
#
# Coordination Sequence:
#
# PCOD9485234 Si02
#       8
#    16  16  16  16  16  16  16   4
#     4  11  23  36  56  85 114 153 200 233 274 322
#     4   9  18  33  54  78 101 129 168 210 257 318
#     4  10  21  35  49  67  95 129 166 212 264 314
#     4   8  15  31  55  80 107 138 169 209 265 321
#     4   9  19  34  49  69  92 125 169 210 255 314
#     4  10  20  32  50  81 112 136 173 221 261 315
#     4  10  19  30  48  69 100 136 166 204 258 320
#     4  12  24  40  62  78 117 164 191 242 274 310
#
# _framework density 19.591929
#
# number of rings (size 3 to 8) (size 9 to 14) (size 15 to 20)
#    0.000    2.345    0.690    2.897    0.966    3.310 
#    0.000    1.379    0.000    1.241    0.000    0.966 
#    0.000    3.310    0.000    0.000    0.000    0.000 
#
# Total GULP energy -323073.469796 kJ/mol
# GULP energy per Si atom -5570.232238 kJ/mol
# Density = 1.954734 g / cm^3
# Si number density = 19.591929 Si / 1000 Ang^3
#
#
#
# Elastic Constant Matrix: (Units=GPa)
#
#
# Indices 1 2 3 4 5 6 
#
# 1 106.9048 7.1172 89.8182 0.0000 0.0000 0.0000
# 2 7.1172 86.3531 19.8853 0.0000 0.0000 0.0000
# 3 89.8182 19.8853 120.9052 0.0000 0.0000 0.0000
# 4 0.0000 0.0000 0.0000 10.8097 0.0000 0.0000
# 5 0.0000 0.0000 0.0000 0.0000 -4.1486 0.0000
# 6 0.0000 0.0000 0.0000 0.0000 0.0000 9.1163
#
#
#
# Elastic Compliance Matrix: (Units=1/GPa)
#
#
# Indices 1 2 3 4 5 6 
#
# 1 0.025332 0.002334 -0.019203 0.000000 0.000000 0.000000
# 2 0.002334 0.012251 -0.003749 0.000000 0.000000 0.000000
# 3 -0.019203 -0.003749 0.023153 0.000000 0.000000 0.000000
# 4 0.000000 0.000000 0.000000 0.092509 0.000000 0.000000
# 5 0.000000 0.000000 0.000000 0.000000 -0.241048 0.000000
# 6 0.000000 0.000000 0.000000 0.000000 0.000000 0.109693
#
#
# Mechanical properties :
#
#
# Convention : Reuss Voigt Hill
#
# Bulk Modulus (GPa) = 51.27866 60.86716 56.07291
# Shear Modulus (GPa) = 71.81127 16.31167 44.06147
#
# Velocity S-wave (km/s) = 6.06078 2.88856 4.74747
# Velocity P-wave (km/s) = 8.67223 6.50077 7.66380
#
# Compressibility (1/GPa) = 0.01950129
#
# Stress axis : x y z
#
# Youngs Moduli (GPa) = 39.47529 81.62410 43.19114
#
# Poissons Ratio (x) = -0.19052 0.82939
# Poissons Ratio (y) = -0.09214 0.16192
# Poissons Ratio (z) = 0.75803 0.30600
#
# Static dielectric constant tensor:
#      x y z
#    x 1.696770 0.000000 0.000000 
#    y 0.000000 1.754460 0.000000 
#    z 0.000000 0.000000 1.688490 
# 
# From -- ./inp_files/72258.got.cif
#   From: 2010.05.17/outbox.cif.g08.bks.cpg/sg65_37_cif.got.tgz:72258.got - 2010.06.03 17:01:31.
