data_PCOD9485485
_publ_section_title
;
Structure prediction by ZEFSAII (Michael W. Deem and Ramdas Pophale) SiO2 
 PCOD9485485
Probable space group: C M M M
;
_chemical_formula_sum "Si O2"
_cell_formula_units_Z 104
_cell_length_a 9.076051
_cell_length_b 15.368246
_cell_length_c 35.708522
_cell_angle_alpha 90.000000
_cell_angle_beta 90.000000
_cell_angle_gamma 90.000000
_cell_volume 4980.731220
_symmetry_space_group_name_H-M "C M M M"
_symmetry_group_IT_number 65
_symmetry_cell_setting 'orthorhombic'
loop_
_space_group_symop_operation_xyz
x,y,z
-x,-y,z
x,-y,-z
-x,y,-z
-x,-y,-z
x,y,-z
-x,y,z
x,-y,z
1/2+x,1/2+y,z
1/2-x,1/2-y,z
1/2+x,1/2-y,-z
1/2-x,1/2+y,-z
1/2-x,1/2-y,-z
1/2+x,1/2+y,-z
1/2-x,1/2+y,z
1/2+x,1/2-y,z
loop_
_atom_site_type_symbol
_atom_site_label
_atom_site_fract_x
_atom_site_fract_y
_atom_site_fract_z
Si Si1 0.323059 0.345197 0.838227
Si Si2 0.830935 0.107051 0.310558
Si Si3 0.821944 0.846307 0.000000
Si Si4 0.177535 0.845928 0.919386
Si Si5 0.835550 0.397316 0.384439
Si Si6 0.835493 0.397201 0.763385
Si Si7 0.323845 0.344792 0.541011
O O1 0.500000 0.340942 0.835141
O O2 0.250000 0.250000 0.839118
O O3 0.285349 0.386777 0.878967
O O4 0.255623 0.387492 0.801423
O O5 0.749158 0.137444 0.348137
O O6 0.748324 0.137356 0.273091
O O7 0.000000 0.134993 0.310442
O O8 0.831577 0.000000 0.310554
O O9 0.750000 0.750000 0.000000
O O10 0.781488 0.887323 0.959644
O O11 0.000000 0.838503 0.000000
O O12 0.250000 0.750000 0.919552
O O13 0.000000 0.836648 0.919249
O O14 0.850443 0.500000 0.377622
O O15 0.745120 0.388219 0.422615
O O16 0.000000 0.359410 0.388382
O O17 0.850152 0.500000 0.756801
O O18 0.000000 0.359403 0.767432
O O19 0.292270 0.385711 0.500000
O O20 0.500000 0.338930 0.544624
O O21 0.250000 0.250000 0.540277
#
# Coordination Sequence:
#
# PCOD9485485 Si02
#       7
#    16  16   8  16  16  16  16
#     4  10  19  31  47  69  98 129 160 196 242 291
#     4   9  17  31  52  76 101 129 162 201 245 292
#     4   8  12  20  34  54  81 112 147 185 227 275
#     4   8  14  23  37  58  85 117 150 187 231 280
#     4  10  20  34  54  80 108 136 167 205 248 293
#     4  10  20  34  52  73  97 127 164 203 243 290
#     4  10  21  37  56  77 104 139 176 212 251 296
#
# _framework density 20.880468
#
# number of rings (size 3 to 8) (size 9 to 14) (size 15 to 20)
#    0.000    2.615    0.000    2.308    0.000    5.538 
#    0.000    2.308    0.000    0.000    0.000    0.538 
#    0.000    4.308    0.000    0.000    0.000    0.308 
#
# Total GULP energy -289782.324711 kJ/mol
# GULP energy per Si atom -5572.737014 kJ/mol
# Density = 2.083294 g / cm^3
# Si number density = 20.880468 Si / 1000 Ang^3
#
#
#
# Elastic Constant Matrix: (Units=GPa)
#
#
# Indices 1 2 3 4 5 6 
#
# 1 129.1338 5.6621 102.0830 0.0000 0.0000 0.0000
# 2 5.6621 20.1093 8.4472 0.0000 0.0000 0.0000
# 3 102.0830 8.4472 243.7358 0.0000 0.0000 0.0000
# 4 0.0000 0.0000 0.0000 19.1947 0.0000 0.0000
# 5 0.0000 0.0000 0.0000 0.0000 32.7544 0.0000
# 6 0.0000 0.0000 0.0000 0.0000 0.0000 15.6470
#
#
#
# Elastic Compliance Matrix: (Units=1/GPa)
#
#
# Indices 1 2 3 4 5 6 
#
# 1 0.011608 -0.001244 -0.004818 0.000000 0.000000 0.000000
# 2 -0.001244 0.050596 -0.001232 0.000000 0.000000 0.000000
# 3 -0.004818 -0.001232 0.006164 0.000000 0.000000 0.000000
# 4 0.000000 0.000000 0.000000 0.052098 0.000000 0.000000
# 5 0.000000 0.000000 0.000000 0.000000 0.030530 0.000000
# 6 0.000000 0.000000 0.000000 0.000000 0.000000 0.063910
#
#
# Mechanical properties :
#
#
# Convention : Reuss Voigt Hill
#
# Bulk Modulus (GPa) = 18.59519 69.48483 44.04001
# Shear Modulus (GPa) = 20.20844 31.97165 26.09004
#
# Velocity S-wave (km/s) = 3.11435 3.91727 3.53865
# Velocity P-wave (km/s) = 4.67516 7.33551 6.15088
#
# Compressibility (1/GPa) = 0.05377735
#
# Stress axis : x y z
#
# Youngs Moduli (GPa) = 86.15096 19.76426 162.24295
#
# Poissons Ratio (x) = 0.02459 0.78175
# Poissons Ratio (y) = 0.10720 0.19995
# Poissons Ratio (z) = 0.41511 0.02436
#
# Static dielectric constant tensor:
#      x y z
#    x 1.721460 0.000000 0.000000 
#    y 0.000000 1.783030 0.000000 
#    z 0.000000 0.000000 1.797780 
# 
# From -- ./inp_files/76888.got.cif
#   From: 2010.05.17/outbox.cif.g08.bks.cpg/sg65_39_cif.got.tgz:76888.got - 2010.06.03 17:01:31.
