data_PCOD9485334
_publ_section_title
;
Structure prediction by ZEFSAII (Michael W. Deem and Ramdas Pophale) SiO2 
 PCOD9485334
Probable space group: C M M M
;
_chemical_formula_sum "Si O2"
_cell_formula_units_Z 88
_cell_length_a 25.356385
_cell_length_b 28.363103
_cell_length_c 9.213967
_cell_angle_alpha 90.000000
_cell_angle_beta 90.000000
_cell_angle_gamma 90.000000
_cell_volume 6626.553855
_symmetry_space_group_name_H-M "C M M M"
_symmetry_group_IT_number 65
_symmetry_cell_setting 'orthorhombic'
loop_
_space_group_symop_operation_xyz
x,y,z
-x,-y,z
x,-y,-z
-x,y,-z
-x,-y,-z
x,y,-z
-x,y,z
x,-y,z
1/2+x,1/2+y,z
1/2-x,1/2-y,z
1/2+x,1/2-y,-z
1/2-x,1/2+y,-z
1/2-x,1/2-y,-z
1/2+x,1/2+y,-z
1/2-x,1/2+y,z
1/2+x,1/2-y,z
loop_
_atom_site_type_symbol
_atom_site_label
_atom_site_fract_x
_atom_site_fract_y
_atom_site_fract_z
Si Si1 0.737637 0.860019 0.166763
Si Si2 0.000000 0.056399 0.828178
Si Si3 0.286165 0.445383 0.327133
Si Si4 0.646625 0.689456 0.832580
Si Si5 0.307992 0.225132 0.332354
Si Si6 0.100258 0.897786 0.673101
O O1 0.747908 0.910053 0.242176
O O2 0.795089 0.834460 0.166962
O O3 0.699903 0.825138 0.255873
O O4 0.720948 0.864631 0.000000
O O5 0.051444 0.077840 0.751821
O O6 0.000000 0.000000 0.810770
O O7 0.000000 0.067053 0.000000
O O8 0.277088 0.440749 0.500000
O O9 0.280553 0.500000 0.286107
O O10 0.346275 0.428010 0.301154
O O11 0.654275 0.739780 0.756150
O O12 0.610830 0.653663 0.741147
O O13 0.629710 0.693441 0.000000
O O14 0.323802 0.220725 0.500000
O O15 0.250000 0.250000 0.331234
O O16 0.092169 0.894986 0.500000
#
# Coordination Sequence:
#
# PCOD9485334 Si02
#       6
#    16   8  16  16  16  16
#     4   9  16  24  35  52  72  93 116 143 176 213
#     4  11  23  35  45  57  73  93 119 155 198 237
#     4   9  17  28  40  53  70  93 121 153 187 222
#     4   9  16  26  39  55  74  92 111 140 179 220
#     4   9  15  23  36  53  72  93 115 139 170 210
#     4  10  19  31  45  58  71  90 119 153 190 232
#
# _framework density 13.279904999999999
#
# number of rings (size 3 to 8) (size 9 to 14) (size 15 to 20)
#    0.000    2.636    0.000    3.000    0.000    9.091 
#    0.000    0.000    0.000    0.000    0.000    0.000 
#    0.000    0.000    0.000    0.000    0.000    0.000 
#
# Total GULP energy -245172.246068 kJ/mol
# GULP energy per Si atom -5572.096502 kJ/mol
# Density = 1.324968 g / cm^3
# Si number density = 13.279905 Si / 1000 Ang^3
#
#
#
# Elastic Constant Matrix: (Units=GPa)
#
#
# Indices 1 2 3 4 5 6 
#
# 1 22.5774 38.0499 32.5565 0.0000 0.0000 0.0000
# 2 38.0499 126.6505 81.8186 0.0000 0.0000 0.0000
# 3 32.5565 81.8186 113.2709 0.0000 0.0000 0.0000
# 4 0.0000 0.0000 0.0000 24.8678 0.0000 0.0000
# 5 0.0000 0.0000 0.0000 0.0000 14.6340 0.0000
# 6 0.0000 0.0000 0.0000 0.0000 0.0000 19.1108
#
#
#
# Elastic Compliance Matrix: (Units=1/GPa)
#
#
# Indices 1 2 3 4 5 6 
#
# 1 0.099077 -0.021316 -0.013080 0.000000 0.000000 0.000000
# 2 -0.021316 0.019390 -0.007879 0.000000 0.000000 0.000000
# 3 -0.013080 -0.007879 0.018279 0.000000 0.000000 0.000000
# 4 0.000000 0.000000 0.000000 0.040213 0.000000 0.000000
# 5 0.000000 0.000000 0.000000 0.000000 0.068334 0.000000
# 6 0.000000 0.000000 0.000000 0.000000 0.000000 0.052326
#
#
# Mechanical properties :
#
#
# Convention : Reuss Voigt Hill
#
# Bulk Modulus (GPa) = 19.15847 63.03874 41.09861
# Shear Modulus (GPa) = 12.51350 19.06076 15.78713
#
# Velocity S-wave (km/s) = 3.07300 3.79266 3.45164
# Velocity P-wave (km/s) = 5.20088 8.17015 6.84837
#
# Compressibility (1/GPa) = 0.05219623
#
# Stress axis : x y z
#
# Youngs Moduli (GPa) = 10.09312 51.57328 54.70772
#
# Poissons Ratio (x) = 1.09936 0.71555
# Poissons Ratio (y) = 0.21515 0.43104
# Poissons Ratio (z) = 0.13201 0.40635
#
# Static dielectric constant tensor:
#      x y z
#    x 1.401750 0.000000 0.000000 
#    y 0.000000 1.428960 0.000000 
#    z 0.000000 0.000000 1.444820 
# 
# From -- ./inp_files/12176.got.cif
#   From: 2010.05.17/outbox.cif.g08.bks.cpg/sg65_7_cif.got.tgz:12176.got - 2010.06.03 17:01:31.
