data_PCOD9485812
_publ_section_title
;
Structure prediction by ZEFSAII (Michael W. Deem and Ramdas Pophale) SiO2 
 PCOD9485812
Probable space group: C M M M
;
_chemical_formula_sum "Si O2"
_cell_formula_units_Z 104
_cell_length_a 8.951662
_cell_length_b 33.413661
_cell_length_c 21.335850
_cell_angle_alpha 90.000000
_cell_angle_beta 90.000000
_cell_angle_gamma 90.000000
_cell_volume 6381.719143
_symmetry_space_group_name_H-M "C M M M"
_symmetry_group_IT_number 65
_symmetry_cell_setting 'orthorhombic'
loop_
_space_group_symop_operation_xyz
x,y,z
-x,-y,z
x,-y,-z
-x,y,-z
-x,-y,-z
x,y,-z
-x,y,z
x,-y,z
1/2+x,1/2+y,z
1/2-x,1/2-y,z
1/2+x,1/2-y,-z
1/2-x,1/2+y,-z
1/2-x,1/2-y,-z
1/2+x,1/2+y,-z
1/2-x,1/2+y,z
1/2+x,1/2-y,z
loop_
_atom_site_type_symbol
_atom_site_label
_atom_site_fract_x
_atom_site_fract_y
_atom_site_fract_z
Si Si1 0.321297 0.500000 0.135065
Si Si2 0.679348 0.500000 0.282955
Si Si3 0.822435 0.206896 0.248975
Si Si4 0.180409 0.205682 0.500000
Si Si5 0.820469 0.841958 0.374469
Si Si6 0.821582 0.634306 0.815895
Si Si7 0.179911 0.577899 0.927635
Si Si8 0.178667 0.583971 0.309287
O O1 0.500000 0.500000 0.131014
O O2 0.280127 0.500000 0.208737
O O3 0.255471 0.461321 0.100856
O O4 0.500000 0.500000 0.288064
O O5 0.746314 0.459479 0.312131
O O6 0.750000 0.250000 0.242379
O O7 0.783992 0.187558 0.316615
O O8 0.761329 0.175304 0.198813
O O9 0.000000 0.209983 0.245051
O O10 0.250000 0.250000 0.500000
O O11 0.222820 0.180177 0.438489
O O12 0.000000 0.209863 0.500000
O O13 0.741466 0.884018 0.359260
O O14 0.000000 0.848142 0.374821
O O15 0.780959 0.614377 0.881718
O O16 0.785899 0.603420 0.759145
O O17 0.000000 0.640803 0.813916
O O18 0.000000 0.572809 0.924495
O O19 0.221372 0.583866 0.000000
O O20 0.000000 0.580641 0.314389
#
# Coordination Sequence:
#
# PCOD9485812 Si02
#       8
#     8   8  16   8  16  16  16  16
#     4  11  22  32  47  72 103 135 167 206 249 296
#     4  11  21  32  50  74 103 136 169 210 256 299
#     4  10  19  31  50  74 100 128 161 203 248 295
#     4  10  20  34  54  79 110 145 174 204 245 296
#     4   9  19  34  51  75 107 139 169 202 246 299
#     4   9  18  32  49  70  96 126 163 205 250 299
#     4  10  20  34  51  70  97 134 170 205 249 301
#     4  10  19  32  52  75  99 132 171 213 254 295
#
# _framework density 16.296548999999999
#
# number of rings (size 3 to 8) (size 9 to 14) (size 15 to 20)
#    0.000    2.154    1.538    2.077    0.000    4.308 
#    0.000    0.000    0.000    0.923    0.000    3.231 
#    0.000    0.000    0.000    0.000    0.000    0.000 
#
# Total GULP energy -290175.044379 kJ/mol
# GULP energy per Si atom -5580.289315 kJ/mol
# Density = 1.625946 g / cm^3
# Si number density = 16.296549 Si / 1000 Ang^3
#
#
#
# Elastic Constant Matrix: (Units=GPa)
#
#
# Indices 1 2 3 4 5 6 
#
# 1 34.2155 64.4988 38.7816 0.0000 0.0000 0.0000
# 2 64.4988 178.8325 80.9996 0.0000 0.0000 0.0000
# 3 38.7816 80.9996 112.9181 0.0000 0.0000 0.0000
# 4 0.0000 0.0000 0.0000 18.5997 0.0000 0.0000
# 5 0.0000 0.0000 0.0000 0.0000 19.4700 0.0000
# 6 0.0000 0.0000 0.0000 0.0000 0.0000 32.0382
#
#
#
# Elastic Compliance Matrix: (Units=1/GPa)
#
#
# Indices 1 2 3 4 5 6 
#
# 1 0.102542 -0.031154 -0.012870 0.000000 0.000000 0.000000
# 2 -0.031154 0.017748 -0.002031 0.000000 0.000000 0.000000
# 3 -0.012870 -0.002031 0.014733 0.000000 0.000000 0.000000
# 4 0.000000 0.000000 0.000000 0.053764 0.000000 0.000000
# 5 0.000000 0.000000 0.000000 0.000000 0.051361 0.000000
# 6 0.000000 0.000000 0.000000 0.000000 0.000000 0.031213
#
#
# Mechanical properties :
#
#
# Convention : Reuss Voigt Hill
#
# Bulk Modulus (GPa) = 23.30334 77.16958 50.23646
# Shear Modulus (GPa) = 13.23529 23.46733 18.35131
#
# Velocity S-wave (km/s) = 2.85292 3.79887 3.35936
# Velocity P-wave (km/s) = 5.01825 8.16689 6.77794
#
# Compressibility (1/GPa) = 0.04291230
#
# Stress axis : x y z
#
# Youngs Moduli (GPa) = 9.75206 56.34378 67.87266
#
# Poissons Ratio (x) = 1.75534 0.87354
# Poissons Ratio (y) = 0.30382 0.13788
# Poissons Ratio (z) = 0.12551 0.11446
#
# Static dielectric constant tensor:
#      x y z
#    x 1.542670 0.000000 0.000000 
#    y 0.000000 1.519840 0.000000 
#    z 0.000000 0.000000 1.541750 
# 
# From -- ./inp_files/60940.got.cif
#   From: 2010.05.17/outbox.cif.g08.bks.cpg/sg65_31_cif.got.tgz:60940.got - 2010.06.03 17:01:31.
