data_PCOD9485009
_publ_section_title
;
Structure prediction by ZEFSAII (Michael W. Deem and Ramdas Pophale) SiO2 
 PCOD9485009
Probable space group: C M M M
;
_chemical_formula_sum "Si O2"
_cell_formula_units_Z 80
_cell_length_a 15.484854
_cell_length_b 16.441511
_cell_length_c 15.173733
_cell_angle_alpha 90.000000
_cell_angle_beta 90.000000
_cell_angle_gamma 90.000000
_cell_volume 3863.147409
_symmetry_space_group_name_H-M "C M M M"
_symmetry_group_IT_number 65
_symmetry_cell_setting 'orthorhombic'
loop_
_space_group_symop_operation_xyz
x,y,z
-x,-y,z
x,-y,-z
-x,y,-z
-x,-y,-z
x,y,-z
-x,y,z
x,-y,z
1/2+x,1/2+y,z
1/2-x,1/2-y,z
1/2+x,1/2-y,-z
1/2-x,1/2+y,-z
1/2-x,1/2-y,-z
1/2+x,1/2+y,-z
1/2-x,1/2+y,z
1/2+x,1/2-y,z
loop_
_atom_site_type_symbol
_atom_site_label
_atom_site_fract_x
_atom_site_fract_y
_atom_site_fract_z
Si Si1 0.838193 0.592095 0.222662
Si Si2 0.590031 0.406185 0.373301
Si Si3 0.145541 0.737818 0.099288
Si Si4 0.364925 0.589755 0.829752
Si Si5 0.224063 0.339135 0.599334
O O1 0.873128 0.500000 0.211659
O O2 0.879285 0.667030 0.168351
O O3 0.738815 0.589388 0.187334
O O4 0.830888 0.615343 0.326209
O O5 0.500000 0.364962 0.400546
O O6 0.585147 0.500000 0.397510
O O7 0.595970 0.402583 0.267553
O O8 0.681381 0.377618 0.407126
O O9 0.250000 0.750000 0.104042
O O10 0.111111 0.828521 0.118861
O O11 0.123664 0.712551 0.000000
O O12 0.387509 0.500000 0.866446
O O13 0.186851 0.334369 0.500000
O O14 0.250000 0.250000 0.633935
#
# Coordination Sequence:
#
# PCOD9485009 Si02
#       5
#    16  16  16  16  16
#     4   9  16  26  40  58  85 119 152 190 236 284
#     4   9  17  29  46  68  96 132 169 202 239 291
#     4   9  16  25  39  60  86 117 156 201 242 283
#     4   8  14  25  40  58  84 119 154 186 226 277
#     4  10  19  30  45  65  93 129 165 203 248 297
#
# _framework density 20.708504000000001
#
# number of rings (size 3 to 8) (size 9 to 14) (size 15 to 20)
#    0.000    3.000    0.000    4.800    0.000    2.800 
#    0.000    5.000    0.000    0.600    0.000    2.800 
#    0.000   20.000    0.000   46.800    0.000   15.800 
#
# Total GULP energy -222723.703422 kJ/mol
# GULP energy per Si atom -5568.092586 kJ/mol
# Density = 2.066137 g / cm^3
# Si number density = 20.708504 Si / 1000 Ang^3
#
#
#
# Elastic Constant Matrix: (Units=GPa)
#
#
# Indices 1 2 3 4 5 6 
#
# 1 12.6005 5.1356 3.6271 0.0000 0.0000 0.0000
# 2 5.1356 149.6989 59.2635 0.0000 0.0000 0.0000
# 3 3.6271 59.2635 96.7666 0.0000 0.0000 0.0000
# 4 0.0000 0.0000 0.0000 27.0665 0.0000 0.0000
# 5 0.0000 0.0000 0.0000 0.0000 -28.4646 0.0000
# 6 0.0000 0.0000 0.0000 0.0000 0.0000 -6.9697
#
#
#
# Elastic Compliance Matrix: (Units=1/GPa)
#
#
# Indices 1 2 3 4 5 6 
#
# 1 0.080712 -0.002074 -0.001755 0.000000 0.000000 0.000000
# 2 -0.002074 0.008871 -0.005355 0.000000 0.000000 0.000000
# 3 -0.001755 -0.005355 0.013680 0.000000 0.000000 0.000000
# 4 0.000000 0.000000 0.000000 0.036946 0.000000 0.000000
# 5 0.000000 0.000000 0.000000 0.000000 -0.035131 0.000000
# 6 0.000000 0.000000 0.000000 0.000000 0.000000 -0.143478
#
#
# Mechanical properties :
#
#
# Convention : Reuss Voigt Hill
#
# Bulk Modulus (GPa) = 11.77936 43.90206 27.84071
# Shear Modulus (GPa) = 604.79512 11.06244 307.92878
#
# Velocity S-wave (km/s) = 17.10806 2.31378 12.20736
# Velocity P-wave (km/s) = 19.89844 5.32768 14.56592
#
# Compressibility (1/GPa) = 0.08489422
#
# Stress axis : x y z
#
# Youngs Moduli (GPa) = 12.38969 112.72238 73.10060
#
# Poissons Ratio (x) = 0.23380 0.12830
# Poissons Ratio (y) = 0.02570 0.39148
# Poissons Ratio (z) = 0.02174 0.60367
#
# Static dielectric constant tensor:
#      x y z
#    x 1.136700 0.000000 0.000000 
#    y 0.000000 1.518360 0.000000 
#    z 0.000000 0.000000 1.754170 
# 
# From -- ./inp_files/42353.got.cif
#   From: 2010.05.17/outbox.cif.g08.bks.cpg/sg65_22_cif.got.tgz:42353.got - 2010.06.03 17:01:31.
