data_PCOD9485141
_publ_section_title
;
Structure prediction by ZEFSAII (Michael W. Deem and Ramdas Pophale) SiO2 
 PCOD9485141
Probable space group: C M M M
;
_chemical_formula_sum "Si O2"
_cell_formula_units_Z 88
_cell_length_a 8.873843
_cell_length_b 27.860292
_cell_length_c 21.852749
_cell_angle_alpha 90.000000
_cell_angle_beta 90.000000
_cell_angle_gamma 90.000000
_cell_volume 5402.608308
_symmetry_space_group_name_H-M "C M M M"
_symmetry_group_IT_number 65
_symmetry_cell_setting 'orthorhombic'
loop_
_space_group_symop_operation_xyz
x,y,z
-x,-y,z
x,-y,-z
-x,y,-z
-x,-y,-z
x,y,-z
-x,y,z
x,-y,z
1/2+x,1/2+y,z
1/2-x,1/2-y,z
1/2+x,1/2-y,-z
1/2-x,1/2+y,-z
1/2-x,1/2-y,-z
1/2+x,1/2+y,-z
1/2-x,1/2+y,z
1/2+x,1/2-y,z
loop_
_atom_site_type_symbol
_atom_site_label
_atom_site_fract_x
_atom_site_fract_y
_atom_site_fract_z
Si Si1 0.818891 0.698360 0.307920
Si Si2 0.319859 0.393468 0.753955
Si Si3 0.819108 0.945400 0.627147
Si Si4 0.181407 0.353147 0.432090
Si Si5 0.326051 0.441717 0.000000
Si Si6 0.320352 0.942982 0.871845
O O1 0.750000 0.750000 0.294206
O O2 0.755563 0.657009 0.263758
O O3 0.772376 0.681795 0.376745
O O4 0.000000 0.699671 0.304859
O O5 0.500000 0.388240 0.757475
O O6 0.286070 0.429176 0.696946
O O7 0.255644 0.415036 0.816214
O O8 0.743959 0.905766 0.584136
O O9 0.000000 0.943250 0.619407
O O10 0.769621 0.000000 0.616249
O O11 0.230995 0.338285 0.500000
O O12 0.000000 0.355117 0.431304
O O13 0.243863 0.426916 0.937598
O O14 0.323071 0.500000 0.000000
O O15 0.500000 0.426503 0.000000
O O16 0.500000 0.936976 0.870485
O O17 0.287551 0.000000 0.865209
#
# Coordination Sequence:
#
# PCOD9485141 Si02
#       6
#    16  16  16  16   8  16
#     4  10  20  35  53  72  94 119 151 195 246 296
#     4  10  19  32  50  71  95 125 162 201 241 287
#     4   9  18  31  46  66  93 124 158 196 235 277
#     4   9  19  34  49  67  92 121 154 192 235 287
#     4   9  17  29  45  67  98 137 176 207 235 273
#     4  10  19  30  46  71 104 138 169 202 240 280
#
# _framework density 16.288426999999999
#
# number of rings (size 3 to 8) (size 9 to 14) (size 15 to 20)
#    0.000    2.455    0.000    2.455    0.000    5.818 
#    0.000    1.818    0.000    0.000    0.000    0.636 
#    0.000    0.000    0.000    0.000    0.000    0.000 
#
# Total GULP energy -245442.775439 kJ/mol
# GULP energy per Si atom -5578.244896 kJ/mol
# Density = 1.625135 g / cm^3
# Si number density = 16.288427 Si / 1000 Ang^3
#
#
#
# Elastic Constant Matrix: (Units=GPa)
#
#
# Indices 1 2 3 4 5 6 
#
# 1 49.9529 31.5711 41.8543 0.0000 0.0000 0.0000
# 2 31.5711 66.5721 21.8616 0.0000 0.0000 0.0000
# 3 41.8543 21.8616 107.5858 0.0000 0.0000 0.0000
# 4 0.0000 0.0000 0.0000 10.2904 0.0000 0.0000
# 5 0.0000 0.0000 0.0000 0.0000 27.7385 0.0000
# 6 0.0000 0.0000 0.0000 0.0000 0.0000 26.1519
#
#
#
# Elastic Compliance Matrix: (Units=1/GPa)
#
#
# Indices 1 2 3 4 5 6 
#
# 1 0.039830 -0.014787 -0.012490 0.000000 0.000000 0.000000
# 2 -0.014787 0.021585 0.001367 0.000000 0.000000 0.000000
# 3 -0.012490 0.001367 0.013876 0.000000 0.000000 0.000000
# 4 0.000000 0.000000 0.000000 0.097178 0.000000 0.000000
# 5 0.000000 0.000000 0.000000 0.000000 0.036051 0.000000
# 6 0.000000 0.000000 0.000000 0.000000 0.000000 0.038238
#
#
# Mechanical properties :
#
#
# Convention : Reuss Voigt Hill
#
# Bulk Modulus (GPa) = 42.60845 46.07609 44.34227
# Shear Modulus (GPa) = 16.31834 21.42441 18.87138
#
# Velocity S-wave (km/s) = 3.16861 3.63066 3.40748
# Velocity P-wave (km/s) = 6.29304 6.77677 6.53938
#
# Compressibility (1/GPa) = 0.02346952
#
# Stress axis : x y z
#
# Youngs Moduli (GPa) = 25.10671 46.32801 72.06494
#
# Poissons Ratio (x) = 0.68506 0.90012
# Poissons Ratio (y) = 0.37126 -0.09848
# Poissons Ratio (z) = 0.31359 -0.06331
#
# Static dielectric constant tensor:
#      x y z
#    x 1.542810 0.000000 0.000000 
#    y 0.000000 1.516610 0.000000 
#    z 0.000000 0.000000 1.542420 
# 
# From -- ./inp_files/59782.got.cif
#   From: 2010.05.17/outbox.cif.g08.bks.cpg/sg65_30_cif.got.tgz:59782.got - 2010.06.03 17:01:31.
