data_PCOD9485575
_publ_section_title
;
Structure prediction by ZEFSAII (Michael W. Deem and Ramdas Pophale) SiO2 
 PCOD9485575
Probable space group: C M M M
;
_chemical_formula_sum "Si O2"
_cell_formula_units_Z 104
_cell_length_a 28.462898
_cell_length_b 8.663344
_cell_length_c 24.885838
_cell_angle_alpha 90.000000
_cell_angle_beta 90.000000
_cell_angle_gamma 90.000000
_cell_volume 6136.446407
_symmetry_space_group_name_H-M "C M M M"
_symmetry_group_IT_number 65
_symmetry_cell_setting 'orthorhombic'
loop_
_space_group_symop_operation_xyz
x,y,z
-x,-y,z
x,-y,-z
-x,y,-z
-x,-y,-z
x,y,-z
-x,y,z
x,-y,z
1/2+x,1/2+y,z
1/2-x,1/2-y,z
1/2+x,1/2-y,-z
1/2-x,1/2+y,-z
1/2-x,1/2-y,-z
1/2+x,1/2+y,-z
1/2-x,1/2+y,z
1/2+x,1/2-y,z
loop_
_atom_site_type_symbol
_atom_site_label
_atom_site_fract_x
_atom_site_fract_y
_atom_site_fract_z
Si Si1 0.858113 0.184051 0.723486
Si Si2 0.557201 0.678502 0.559143
Si Si3 0.303122 0.813703 0.942273
Si Si4 0.196548 0.813539 0.500000
Si Si5 0.302980 0.185227 0.175625
Si Si6 0.697059 0.313257 0.382952
Si Si7 0.445522 0.816956 0.672777
O O1 0.834435 0.254225 0.775992
O O2 0.830991 0.238868 0.669510
O O3 0.911554 0.234179 0.714430
O O4 0.854482 0.000000 0.725913
O O5 0.572620 0.733760 0.500000
O O6 0.500000 0.677663 0.557804
O O7 0.572730 0.500000 0.565105
O O8 0.569768 0.771011 0.612244
O O9 0.250000 0.750000 0.942541
O O10 0.322176 0.767380 0.883690
O O11 0.301639 0.000000 0.942325
O O12 0.324719 0.765056 0.000000
O O13 0.250000 0.750000 0.500000
O O14 0.176598 0.766527 0.441662
O O15 0.197480 0.000000 0.500000
O O16 0.250000 0.250000 0.181113
O O17 0.300671 0.000000 0.177801
O O18 0.698340 0.500000 0.381938
O O19 0.750000 0.250000 0.379773
O O20 0.500000 0.770343 0.678769
O O21 0.442270 0.000000 0.678951
#
# Coordination Sequence:
#
# PCOD9485575 Si02
#       7
#    16  16  16   8  16  16  16
#     4  11  22  34  48  69  94 124 161 198 240 289
#     4   8  14  27  48  70  89 111 140 176 225 287
#     4   8  14  25  42  65  94 129 166 198 229 268
#     4   8  14  28  46  62  81 106 141 183 226 267
#     4  10  19  31  48  71 101 135 167 201 238 276
#     4   9  18  31  48  67  87 114 147 186 230 275
#     4  10  21  36  52  69  91 119 152 196 248 296
#
# _framework density 16.947921000000001
#
# number of rings (size 3 to 8) (size 9 to 14) (size 15 to 20)
#    0.000    2.769    0.000    2.308    0.000    4.308 
#    1.385    1.538    0.000    0.000    0.000    0.000 
#    0.000    0.615    0.000    7.077    0.000    2.000 
#
# Total GULP energy -289770.247650 kJ/mol
# GULP energy per Si atom -5572.504763 kJ/mol
# Density = 1.690935 g / cm^3
# Si number density = 16.947921 Si / 1000 Ang^3
#
#
#
# Elastic Constant Matrix: (Units=GPa)
#
#
# Indices 1 2 3 4 5 6 
#
# 1 55.2044 18.4531 57.7308 0.0000 0.0000 0.0000
# 2 18.4531 22.2856 37.5694 0.0000 0.0000 0.0000
# 3 57.7308 37.5694 179.2955 0.0000 0.0000 0.0000
# 4 0.0000 0.0000 0.0000 14.6085 0.0000 0.0000
# 5 0.0000 0.0000 0.0000 0.0000 9.5617 0.0000
# 6 0.0000 0.0000 0.0000 0.0000 0.0000 17.2356
#
#
#
# Elastic Compliance Matrix: (Units=1/GPa)
#
#
# Indices 1 2 3 4 5 6 
#
# 1 0.029575 -0.013042 -0.006790 0.000000 0.000000 0.000000
# 2 -0.013042 0.075132 -0.011544 0.000000 0.000000 0.000000
# 3 -0.006790 -0.011544 0.010182 0.000000 0.000000 0.000000
# 4 0.000000 0.000000 0.000000 0.068453 0.000000 0.000000
# 5 0.000000 0.000000 0.000000 0.000000 0.104584 0.000000
# 6 0.000000 0.000000 0.000000 0.000000 0.000000 0.058019
#
#
# Mechanical properties :
#
#
# Convention : Reuss Voigt Hill
#
# Bulk Modulus (GPa) = 19.18002 53.81022 36.49512
# Shear Modulus (GPa) = 11.73498 17.81663 14.77580
#
# Velocity S-wave (km/s) = 2.63423 3.24583 2.95589
# Velocity P-wave (km/s) = 4.53804 6.77248 5.76456
#
# Compressibility (1/GPa) = 0.05213760
#
# Stress axis : x y z
#
# Youngs Moduli (GPa) = 33.81269 13.30992 98.20833
#
# Poissons Ratio (x) = 0.17359 0.66681
# Poissons Ratio (y) = 0.44100 1.13368
# Poissons Ratio (z) = 0.22958 0.15364
#
# Static dielectric constant tensor:
#      x y z
#    x 1.581990 0.000000 0.000000 
#    y 0.000000 1.584680 0.000000 
#    z 0.000000 0.000000 1.618740 
# 
# From -- ./inp_files/68262.got.cif
#   From: 2010.05.17/outbox.cif.g08.bks.cpg/sg65_35_cif.got.tgz:68262.got - 2010.06.03 17:01:31.
