data_PCOD9485489
_publ_section_title
;
Structure prediction by ZEFSAII (Michael W. Deem and Ramdas Pophale) SiO2 
 PCOD9485489
Probable space group: C M M M
;
_chemical_formula_sum "Si O2"
_cell_formula_units_Z 104
_cell_length_a 7.563521
_cell_length_b 26.796274
_cell_length_c 23.101500
_cell_angle_alpha 90.000000
_cell_angle_beta 90.000000
_cell_angle_gamma 90.000000
_cell_volume 4682.077595
_symmetry_space_group_name_H-M "C M M M"
_symmetry_group_IT_number 65
_symmetry_cell_setting 'orthorhombic'
loop_
_space_group_symop_operation_xyz
x,y,z
-x,-y,z
x,-y,-z
-x,y,-z
-x,-y,-z
x,y,-z
-x,y,z
x,-y,z
1/2+x,1/2+y,z
1/2-x,1/2-y,z
1/2+x,1/2-y,-z
1/2-x,1/2+y,-z
1/2-x,1/2-y,-z
1/2+x,1/2+y,-z
1/2-x,1/2+y,z
1/2+x,1/2-y,z
loop_
_atom_site_type_symbol
_atom_site_label
_atom_site_fract_x
_atom_site_fract_y
_atom_site_fract_z
Si Si1 0.204697 0.414555 0.937424
Si Si2 0.711462 0.305583 0.651927
Si Si3 0.716533 0.337533 0.223066
Si Si4 0.295743 0.500000 0.570528
Si Si5 0.795161 0.054322 0.810434
Si Si6 0.782776 0.891671 0.566836
Si Si7 0.789783 0.194763 0.902499
O O1 0.290845 0.436180 0.879643
O O2 0.213257 0.354193 0.932981
O O3 0.000000 0.429641 0.935229
O O4 0.278690 0.429556 0.000000
O O5 0.500000 0.311372 0.654395
O O6 0.750000 0.250000 0.631510
O O7 0.778223 0.313455 0.717343
O O8 0.777746 0.347859 0.608546
O O9 0.500000 0.337677 0.222577
O O10 0.778344 0.395033 0.217402
O O11 0.771723 0.309385 0.164555
O O12 0.500000 0.500000 0.590051
O O13 0.296814 0.500000 0.500000
O O14 0.219989 0.446426 0.587165
O O15 0.000000 0.052505 0.792440
O O16 0.715635 0.000000 0.797692
O O17 0.731071 0.883899 0.500000
O O18 0.000000 0.893008 0.567155
O O19 0.750000 0.250000 0.925179
O O20 0.000000 0.187992 0.904196
#
# Coordination Sequence:
#
# PCOD9485489 Si02
#       7
#    16  16  16   8  16  16  16
#     4  10  21  35  50  71  99 128 160 197 236 284
#     4  10  19  31  47  69  99 131 165 203 245 292
#     4   8  16  31  48  69  95 123 158 198 239 289
#     4   7  10  20  38  60  89 121 153 193 240 285
#     4   9  18  34  54  73  96 125 156 196 246 296
#     4   8  14  25  42  66  97 130 163 202 248 295
#     4  10  19  32  51  71  94 125 162 202 246 293
#
# _framework density 22.212363
#
# number of rings (size 3 to 8) (size 9 to 14) (size 15 to 20)
#    0.000    3.000    0.000    3.231    0.000    2.462 
#    1.385    4.615    0.000    0.000    0.000    0.538 
#    0.000    1.846    0.000    0.000    0.000    0.000 
#
# Total GULP energy -290165.644975 kJ/mol
# GULP energy per Si atom -5580.108557 kJ/mol
# Density = 2.216181 g / cm^3
# Si number density = 22.212363 Si / 1000 Ang^3
#
#
#
# Elastic Constant Matrix: (Units=GPa)
#
#
# Indices 1 2 3 4 5 6 
#
# 1 55.2779 -8.9163 -2.5914 0.0000 0.0000 0.0000
# 2 -8.9163 141.2959 30.6602 0.0000 0.0000 0.0000
# 3 -2.5914 30.6602 65.9701 0.0000 0.0000 0.0000
# 4 0.0000 0.0000 0.0000 -17.4536 0.0000 0.0000
# 5 0.0000 0.0000 0.0000 0.0000 -7.8625 0.0000
# 6 0.0000 0.0000 0.0000 0.0000 0.0000 9.0392
#
#
#
# Elastic Compliance Matrix: (Units=1/GPa)
#
#
# Indices 1 2 3 4 5 6 
#
# 1 0.018279 0.001110 0.000202 0.000000 0.000000 0.000000
# 2 0.001110 0.007939 -0.003646 0.000000 0.000000 0.000000
# 3 0.000202 -0.003646 0.016861 0.000000 0.000000 0.000000
# 4 0.000000 0.000000 0.000000 -0.057295 0.000000 0.000000
# 5 0.000000 0.000000 0.000000 0.000000 -0.127186 0.000000
# 6 0.000000 0.000000 0.000000 0.000000 0.000000 0.110629
#
#
# Mechanical properties :
#
#
# Convention : Reuss Voigt Hill
#
# Bulk Modulus (GPa) = 26.03479 33.42767 29.73123
# Shear Modulus (GPa) = -375.88841 12.97071 -181.45885
#
# Velocity S-wave (km/s) = -13.02276 2.41911 -9.04821
# Velocity P-wave (km/s) = 14.64161 4.78378 9.78499
#
# Compressibility (1/GPa) = 0.03841015
#
# Stress axis : x y z
#
# Youngs Moduli (GPa) = 54.70797 125.96837 59.30918
#
# Poissons Ratio (x) = -0.13977 -0.01200
# Poissons Ratio (y) = -0.06070 0.21624
# Poissons Ratio (z) = -0.01107 0.45927
#
# Static dielectric constant tensor:
#      x y z
#    x 1.864430 0.000000 0.000000 
#    y 0.000000 1.830490 0.000000 
#    z 0.000000 0.000000 1.792270 
# 
# From -- ./inp_files/68221.got.cif
#   From: 2010.05.17/outbox.cif.g08.bks.cpg/sg65_35_cif.got.tgz:68221.got - 2010.06.03 17:01:31.
