data_PCOD9485972
_publ_section_title
;
Structure prediction by ZEFSAII (Michael W. Deem and Ramdas Pophale) SiO2 
 PCOD9485972
Probable space group: C M M M
;
_chemical_formula_sum "Si O2"
_cell_formula_units_Z 72
_cell_length_a 8.460328
_cell_length_b 18.457301
_cell_length_c 24.384332
_cell_angle_alpha 90.000000
_cell_angle_beta 90.000000
_cell_angle_gamma 90.000000
_cell_volume 3807.730985
_symmetry_space_group_name_H-M "C M M M"
_symmetry_group_IT_number 65
_symmetry_cell_setting 'orthorhombic'
loop_
_space_group_symop_operation_xyz
x,y,z
-x,-y,z
x,-y,-z
-x,y,-z
-x,-y,-z
x,y,-z
-x,y,z
x,-y,z
1/2+x,1/2+y,z
1/2-x,1/2-y,z
1/2+x,1/2-y,-z
1/2-x,1/2+y,-z
1/2-x,1/2-y,-z
1/2+x,1/2+y,-z
1/2-x,1/2+y,z
1/2+x,1/2-y,z
loop_
_atom_site_type_symbol
_atom_site_label
_atom_site_fract_x
_atom_site_fract_y
_atom_site_fract_z
Si Si1 0.689859 0.167260 0.678847
Si Si2 0.310374 0.916242 0.000000
Si Si3 0.309113 0.416855 0.784597
Si Si4 0.189758 0.168031 0.106602
Si Si5 0.690978 0.166926 0.558883
O O1 0.500000 0.168366 0.680562
O O2 0.750000 0.250000 0.684035
O O3 0.752626 0.120162 0.728807
O O4 0.740980 0.137895 0.618495
O O5 0.249121 0.875750 0.946058
O O6 0.500000 0.914386 0.000000
O O7 0.257985 0.000000 0.000000
O O8 0.500000 0.416623 0.784896
O O9 0.255228 0.500000 0.788369
O O10 0.255661 0.371301 0.837552
O O11 0.250000 0.250000 0.104880
O O12 0.000000 0.168430 0.106090
O O13 0.743036 0.134430 0.500000
O O14 0.500000 0.166723 0.558818
O O15 0.750000 0.250000 0.558670
#
# Coordination Sequence:
#
# PCOD9485972 Si02
#       5
#    16   8  16  16  16
#     4  10  19  31  51  78 106 138 176 219 268 320
#     4  11  24  41  62  89 119 149 182 221 264 309
#     4  10  22  39  57  78 106 141 180 223 271 320
#     4  11  23  40  62  86 113 145 182 222 266 316
#     4   8  14  25  42  67  99 132 168 212 261 313
#
# _framework density 18.908899000000002
#
# number of rings (size 3 to 8) (size 9 to 14) (size 15 to 20)
#    0.000    2.111    0.000    3.333    0.000    6.667 
#    0.000    0.000    0.000    0.667    0.000    4.667 
#    0.000    0.000    0.000    0.000    0.000    0.000 
#
# Total GULP energy -200848.856620 kJ/mol
# GULP energy per Si atom -5579.134906 kJ/mol
# Density = 1.886586 g / cm^3
# Si number density = 18.908899 Si / 1000 Ang^3
#
#
#
# Elastic Constant Matrix: (Units=GPa)
#
#
# Indices 1 2 3 4 5 6 
#
# 1 24.0992 25.8806 31.9328 0.0000 0.0000 0.0000
# 2 25.8806 134.5402 105.8680 0.0000 0.0000 0.0000
# 3 31.9328 105.8680 239.7299 0.0000 0.0000 0.0000
# 4 0.0000 0.0000 0.0000 -12.7617 0.0000 0.0000
# 5 0.0000 0.0000 0.0000 0.0000 -65.1645 0.0000
# 6 0.0000 0.0000 0.0000 0.0000 0.0000 13.8432
#
#
#
# Elastic Compliance Matrix: (Units=1/GPa)
#
#
# Indices 1 2 3 4 5 6 
#
# 1 0.054749 -0.007346 -0.004049 0.000000 0.000000 0.000000
# 2 -0.007346 0.012377 -0.004487 0.000000 0.000000 0.000000
# 3 -0.004049 -0.004487 0.006692 0.000000 0.000000 0.000000
# 4 0.000000 0.000000 0.000000 -0.078359 0.000000 0.000000
# 5 0.000000 0.000000 0.000000 0.000000 -0.015346 0.000000
# 6 0.000000 0.000000 0.000000 0.000000 0.000000 0.072238
#
#
# Mechanical properties :
#
#
# Convention : Reuss Voigt Hill
#
# Bulk Modulus (GPa) = 23.77879 80.63691 52.20785
# Shear Modulus (GPa) = 50.95169 2.82923 26.89046
#
# Velocity S-wave (km/s) = 5.19657 1.22454 3.77517
# Velocity P-wave (km/s) = 6.97199 6.68856 6.83174
#
# Compressibility (1/GPa) = 0.04205428
#
# Stress axis : x y z
#
# Youngs Moduli (GPa) = 18.26527 80.79663 149.42542
#
# Poissons Ratio (x) = 0.59351 0.60498
# Poissons Ratio (y) = 0.13417 0.67051
# Poissons Ratio (z) = 0.07395 0.36256
#
# Static dielectric constant tensor:
#      x y z
#    x 1.669780 0.000000 0.000000 
#    y 0.000000 1.626370 0.000000 
#    z 0.000000 0.000000 1.685110 
# 
# From -- ./inp_files/67064.got.cif
#   From: 2010.05.17/outbox.cif.g08.bks.cpg/sg65_34_cif.got.tgz:67064.got - 2010.06.03 17:01:31.
