data_PCOD9485847
_publ_section_title
;
Structure prediction by ZEFSAII (Michael W. Deem and Ramdas Pophale) SiO2 
 PCOD9485847
Probable space group: C M M M
;
_chemical_formula_sum "Si O2"
_cell_formula_units_Z 80
_cell_length_a 19.148726
_cell_length_b 27.789590
_cell_length_c 8.651145
_cell_angle_alpha 90.000000
_cell_angle_beta 90.000000
_cell_angle_gamma 90.000000
_cell_volume 4603.579160
_symmetry_space_group_name_H-M "C M M M"
_symmetry_group_IT_number 65
_symmetry_cell_setting 'orthorhombic'
loop_
_space_group_symop_operation_xyz
x,y,z
-x,-y,z
x,-y,-z
-x,y,-z
-x,-y,-z
x,y,-z
-x,y,z
x,-y,z
1/2+x,1/2+y,z
1/2-x,1/2-y,z
1/2+x,1/2-y,-z
1/2-x,1/2+y,-z
1/2-x,1/2-y,-z
1/2+x,1/2+y,-z
1/2-x,1/2+y,z
1/2+x,1/2-y,z
loop_
_atom_site_type_symbol
_atom_site_label
_atom_site_fract_x
_atom_site_fract_y
_atom_site_fract_z
Si Si1 0.644306 0.553379 0.687569
Si Si2 0.785427 0.605077 0.315538
Si Si3 0.283887 0.699771 0.185065
Si Si4 0.578800 0.346078 0.312941
Si Si5 0.921286 0.443580 0.186044
O O1 0.639906 0.552115 0.500000
O O2 0.625527 0.500000 0.744375
O O3 0.724181 0.567109 0.727657
O O4 0.598186 0.599152 0.736940
O O5 0.783227 0.610171 0.500000
O O6 0.763671 0.655442 0.240542
O O7 0.860122 0.586677 0.261757
O O8 0.250000 0.750000 0.237329
O O9 0.361033 0.688709 0.250145
O O10 0.287425 0.699965 0.000000
O O11 0.582101 0.345273 0.500000
O O12 0.500000 0.334004 0.265408
O O13 0.912788 0.500000 0.225773
O O14 0.000000 0.429057 0.231682
O O15 0.916661 0.439796 0.000000
#
# Coordination Sequence:
#
# PCOD9485847 Si02
#       5
#    16  16  16  16  16
#     4   8  14  25  43  70 102 132 160 190 227 275
#     4  10  19  31  50  75 101 129 166 212 256 300
#     4  10  21  37  56  75  95 126 169 212 257 309
#     4   9  18  32  51  77 106 133 162 199 244 292
#     4   9  18  32  49  71 103 141 174 206 250 302
#
# _framework density 17.377783999999998
#
# number of rings (size 3 to 8) (size 9 to 14) (size 15 to 20)
#    0.000    2.800    0.000    3.600    0.000    4.000 
#    0.000    4.000    0.000    6.600    0.000    5.600 
#    0.000    0.000    0.000    0.000    0.000    0.000 
#
# Total GULP energy -222977.326518 kJ/mol
# GULP energy per Si atom -5574.433163 kJ/mol
# Density = 1.733823 g / cm^3
# Si number density = 17.377784 Si / 1000 Ang^3
#
#
#
# Elastic Constant Matrix: (Units=GPa)
#
#
# Indices 1 2 3 4 5 6 
#
# 1 150.9293 69.3955 31.9389 0.0000 0.0000 0.0000
# 2 69.3955 105.8023 25.1062 0.0000 0.0000 0.0000
# 3 31.9389 25.1062 19.5496 0.0000 0.0000 0.0000
# 4 0.0000 0.0000 0.0000 18.9343 0.0000 0.0000
# 5 0.0000 0.0000 0.0000 0.0000 22.9220 0.0000
# 6 0.0000 0.0000 0.0000 0.0000 0.0000 11.2198
#
#
#
# Elastic Compliance Matrix: (Units=1/GPa)
#
#
# Indices 1 2 3 4 5 6 
#
# 1 0.011389 -0.004394 -0.012964 0.000000 0.000000 0.000000
# 2 -0.004394 0.015289 -0.012457 0.000000 0.000000 0.000000
# 3 -0.012964 -0.012457 0.088330 0.000000 0.000000 0.000000
# 4 0.000000 0.000000 0.000000 0.052814 0.000000 0.000000
# 5 0.000000 0.000000 0.000000 0.000000 0.043626 0.000000
# 6 0.000000 0.000000 0.000000 0.000000 0.000000 0.089128
#
#
# Mechanical properties :
#
#
# Convention : Reuss Voigt Hill
#
# Bulk Modulus (GPa) = 18.05754 58.79582 38.42668
# Shear Modulus (GPa) = 13.20421 20.60459 16.90440
#
# Velocity S-wave (km/s) = 2.75950 3.44711 3.12229
# Velocity P-wave (km/s) = 4.53507 7.05343 5.92949
#
# Compressibility (1/GPa) = 0.05537852
#
# Stress axis : x y z
#
# Youngs Moduli (GPa) = 87.80139 65.40465 11.32118
#
# Poissons Ratio (x) = 0.28738 0.14677
# Poissons Ratio (y) = 0.38579 0.14103
# Poissons Ratio (z) = 1.13830 0.81473
#
# Static dielectric constant tensor:
#      x y z
#    x 1.586580 0.000000 0.000000 
#    y 0.000000 1.580830 0.000000 
#    z 0.000000 0.000000 1.590060 
# 
# From -- ./inp_files/9658.got.cif
#   From: 2010.05.17/outbox.cif.g08.bks.cpg/sg65_5_cif.got.tgz:9658.got - 2010.06.03 17:01:31.
