data_PCOD9485702
_publ_section_title
;
Structure prediction by ZEFSAII (Michael W. Deem and Ramdas Pophale) SiO2 
 PCOD9485702
Probable space group: C M M M
;
_chemical_formula_sum "Si O2"
_cell_formula_units_Z 80
_cell_length_a 21.820123
_cell_length_b 19.204735
_cell_length_c 8.466943
_cell_angle_alpha 90.000000
_cell_angle_beta 90.000000
_cell_angle_gamma 90.000000
_cell_volume 3548.069754
_symmetry_space_group_name_H-M "C M M M"
_symmetry_group_IT_number 65
_symmetry_cell_setting 'orthorhombic'
loop_
_space_group_symop_operation_xyz
x,y,z
-x,-y,z
x,-y,-z
-x,y,-z
-x,-y,-z
x,y,-z
-x,y,z
x,-y,z
1/2+x,1/2+y,z
1/2-x,1/2-y,z
1/2+x,1/2-y,-z
1/2-x,1/2+y,-z
1/2-x,1/2-y,-z
1/2+x,1/2+y,-z
1/2-x,1/2+y,z
1/2+x,1/2-y,z
loop_
_atom_site_type_symbol
_atom_site_label
_atom_site_fract_x
_atom_site_fract_y
_atom_site_fract_z
Si Si1 0.242563 0.166645 0.000000
Si Si2 0.073559 0.226590 0.813855
Si Si3 0.866959 0.420928 0.000000
Si Si4 0.119482 0.633116 0.325882
Si Si5 0.426006 0.426036 0.811174
Si Si6 0.760984 0.833914 0.666393
O O1 0.250000 0.250000 0.000000
O O2 0.309823 0.132270 0.000000
O O3 0.211870 0.146162 0.835744
O O4 0.102710 0.287018 0.710694
O O5 0.088888 0.150324 0.747962
O O6 0.000000 0.234469 0.812702
O O7 0.092449 0.232975 0.000000
O O8 0.900910 0.406943 0.166636
O O9 0.844650 0.500000 0.000000
O O10 0.096177 0.612019 0.500000
O O11 0.193456 0.631197 0.333876
O O12 0.500000 0.429073 0.796919
O O13 0.401141 0.500000 0.748429
O O14 0.413863 0.424097 0.000000
O O15 0.791401 0.851594 0.500000
O O16 0.750000 0.750000 0.668081
#
# Coordination Sequence:
#
# PCOD9485702 Si02
#       6
#     8  16   8  16  16  16
#     4   8  14  26  46  71  95 120 149 180 226 277
#     4   9  16  27  45  68  96 130 167 209 255 301
#     4  10  20  34  51  74 102 128 160 205 252 297
#     4  10  19  31  49  72  98 128 164 207 252 300
#     4   7  10  18  35  61  90 120 157 198 238 281
#     4   8  14  25  42  66  93 117 146 185 228 275
#
# _framework density 22.547471000000002
#
# number of rings (size 3 to 8) (size 9 to 14) (size 15 to 20)
#    0.000    3.400    1.000    1.800    0.000    0.800 
#    0.000    0.000    0.000    1.800    0.000   26.600 
#    0.000   40.000    0.000    0.000    0.000    0.000 
#
# Total GULP energy -222774.784821 kJ/mol
# GULP energy per Si atom -5569.369621 kJ/mol
# Density = 2.249615 g / cm^3
# Si number density = 22.547471 Si / 1000 Ang^3
#
#
#
# Elastic Constant Matrix: (Units=GPa)
#
#
# Indices 1 2 3 4 5 6 
#
# 1 47.0954 7.3435 16.0931 0.0000 0.0000 0.0000
# 2 7.3435 87.3839 19.0691 0.0000 0.0000 0.0000
# 3 16.0931 19.0691 216.1952 0.0000 0.0000 0.0000
# 4 0.0000 0.0000 0.0000 -7.1771 0.0000 0.0000
# 5 0.0000 0.0000 0.0000 0.0000 -4.3752 0.0000
# 6 0.0000 0.0000 0.0000 0.0000 0.0000 14.2798
#
#
#
# Elastic Compliance Matrix: (Units=1/GPa)
#
#
# Indices 1 2 3 4 5 6 
#
# 1 0.021984 -0.001520 -0.001502 0.000000 0.000000 0.000000
# 2 -0.001520 0.011773 -0.000925 0.000000 0.000000 0.000000
# 3 -0.001502 -0.000925 0.004819 0.000000 0.000000 0.000000
# 4 0.000000 0.000000 0.000000 -0.139333 0.000000 0.000000
# 5 0.000000 0.000000 0.000000 0.000000 -0.228560 0.000000
# 6 0.000000 0.000000 0.000000 0.000000 0.000000 0.070029
#
#
# Mechanical properties :
#
#
# Convention : Reuss Voigt Hill
#
# Bulk Modulus (GPa) = 32.59295 48.40954 40.50125
# Shear Modulus (GPa) = -20.73262 21.09009 0.17873
#
# Velocity S-wave (km/s) = -3.03563 3.06169 0.28185
# Velocity P-wave (km/s) = 1.48320 5.83226 4.25530
#
# Compressibility (1/GPa) = 0.03068148
#
# Stress axis : x y z
#
# Youngs Moduli (GPa) = 45.48795 84.93730 207.51614
#
# Poissons Ratio (x) = 0.12907 0.31177
# Poissons Ratio (y) = 0.06912 0.19202
# Poissons Ratio (z) = 0.06834 0.07860
#
# Static dielectric constant tensor:
#      x y z
#    x 1.843720 0.000000 0.000000 
#    y 0.000000 1.833590 0.000000 
#    z 0.000000 0.000000 1.915940 
# 
# From -- ./inp_files/18219.got.cif
#   From: 2010.05.17/outbox.cif.g08.bks.cpg/sg65_10_cif.got.tgz:18219.got - 2010.06.03 17:01:31.
