data_PCOD9485364
_publ_section_title
;
Structure prediction by ZEFSAII (Michael W. Deem and Ramdas Pophale) SiO2 
 PCOD9485364
Probable space group: C M M M
;
_chemical_formula_sum "Si O2"
_cell_formula_units_Z 72
_cell_length_a 8.290828
_cell_length_b 37.620575
_cell_length_c 16.120042
_cell_angle_alpha 90.000000
_cell_angle_beta 90.000000
_cell_angle_gamma 90.000000
_cell_volume 5027.933251
_symmetry_space_group_name_H-M "C M M M"
_symmetry_group_IT_number 65
_symmetry_cell_setting 'orthorhombic'
loop_
_space_group_symop_operation_xyz
x,y,z
-x,-y,z
x,-y,-z
-x,y,-z
-x,-y,-z
x,y,-z
-x,y,z
x,-y,z
1/2+x,1/2+y,z
1/2-x,1/2-y,z
1/2+x,1/2-y,-z
1/2-x,1/2+y,-z
1/2-x,1/2-y,-z
1/2+x,1/2+y,-z
1/2-x,1/2+y,z
1/2+x,1/2-y,z
loop_
_atom_site_type_symbol
_atom_site_label
_atom_site_fract_x
_atom_site_fract_y
_atom_site_fract_z
Si Si1 0.689417 0.412022 0.399692
Si Si2 0.190555 0.290273 0.500000
Si Si3 0.305372 0.790896 0.000000
Si Si4 0.191376 0.166867 0.659945
Si Si5 0.500000 0.959277 0.399429
Si Si6 0.307389 0.209213 0.818781
O O1 0.696248 0.407162 0.500000
O O2 0.500000 0.421627 0.381187
O O3 0.729195 0.374427 0.356714
O O4 0.832564 0.439343 0.376334
O O5 0.250000 0.250000 0.500000
O O6 0.248503 0.310611 0.581699
O O7 0.000000 0.290116 0.500000
O O8 0.250000 0.750000 0.000000
O O9 0.249201 0.804334 0.909773
O O10 0.500000 0.792900 0.000000
O O11 0.256185 0.183872 0.744282
O O12 0.000000 0.169744 0.661757
O O13 0.500000 0.959780 0.500000
O O14 0.500000 0.000000 0.370096
O O15 0.500000 0.210546 0.820601
O O16 0.250000 0.250000 0.806018
#
# Coordination Sequence:
#
# PCOD9485364 Si02
#       6
#    16   8   8  16   8  16
#     4   9  18  31  47  65  90 122 153 185 229 273
#     4  12  24  34  46  60  82 117 156 199 235 267
#     4   8  16  30  46  62  82 108 144 189 238 283
#     4  11  21  33  46  63  88 118 153 193 228 274
#     4   9  18  30  48  70  92 115 153 193 223 274
#     4  10  19  31  46  64  85 114 152 195 237 278
#
# _framework density 14.319998999999999
#
# number of rings (size 3 to 8) (size 9 to 14) (size 15 to 20)
#    0.000    2.111    1.111    3.000    3.111    1.333 
#    0.000    2.222    0.000    0.000    0.000    0.000 
#    0.000    0.000    0.000    2.000    0.000    8.889 
#
# Total GULP energy -200547.754572 kJ/mol
# GULP energy per Si atom -5570.770960 kJ/mol
# Density = 1.428741 g / cm^3
# Si number density = 14.319999 Si / 1000 Ang^3
#
#
#
# Elastic Constant Matrix: (Units=GPa)
#
#
# Indices 1 2 3 4 5 6 
#
# 1 72.4411 69.7288 37.1801 0.0000 0.0000 0.0000
# 2 69.7288 102.1382 52.2768 0.0000 0.0000 0.0000
# 3 37.1801 52.2768 106.4707 0.0000 0.0000 0.0000
# 4 0.0000 0.0000 0.0000 -2.7190 0.0000 0.0000
# 5 0.0000 0.0000 0.0000 0.0000 -51.9955 0.0000
# 6 0.0000 0.0000 0.0000 0.0000 0.0000 24.7495
#
#
#
# Elastic Compliance Matrix: (Units=1/GPa)
#
#
# Indices 1 2 3 4 5 6 
#
# 1 0.040306 -0.027131 -0.000754 0.000000 0.000000 0.000000
# 2 -0.027131 0.031339 -0.005913 0.000000 0.000000 0.000000
# 3 -0.000754 -0.005913 0.012559 0.000000 0.000000 0.000000
# 4 0.000000 0.000000 0.000000 -0.367786 0.000000 0.000000
# 5 0.000000 0.000000 0.000000 0.000000 -0.019232 0.000000
# 6 0.000000 0.000000 0.000000 0.000000 0.000000 0.040405
#
#
# Mechanical properties :
#
#
# Convention : Reuss Voigt Hill
#
# Bulk Modulus (GPa) = 60.21089 66.60238 63.40664
# Shear Modulus (GPa) = -26.41622 2.13130 -12.14246
#
# Velocity S-wave (km/s) = -4.29967 1.22130 -2.91509
# Velocity P-wave (km/s) = 4.18192 6.97135 5.74840
#
# Compressibility (1/GPa) = 0.01660829
#
# Stress axis : x y z
#
# Youngs Moduli (GPa) = 24.81010 31.90906 79.62463
#
# Poissons Ratio (x) = 0.86572 0.06004
# Poissons Ratio (y) = 0.67312 0.47084
# Poissons Ratio (z) = 0.01871 0.18869
#
# Static dielectric constant tensor:
#      x y z
#    x 1.472940 0.000000 0.000000 
#    y 0.000000 1.457390 0.000000 
#    z 0.000000 0.000000 1.482530 
# 
# From -- ./inp_files/37070.got.cif
#   From: 2010.05.17/outbox.cif.g08.bks.cpg/sg65_19_cif.got.tgz:37070.got - 2010.06.03 17:01:31.
