data_PCOD9485778
_publ_section_title
;
Structure prediction by ZEFSAII (Michael W. Deem and Ramdas Pophale) SiO2 
 PCOD9485778
Probable space group: C M M M
;
_chemical_formula_sum "Si O2"
_cell_formula_units_Z 104
_cell_length_a 29.306104
_cell_length_b 8.538909
_cell_length_c 23.789946
_cell_angle_alpha 90.000000
_cell_angle_beta 90.000000
_cell_angle_gamma 90.000000
_cell_volume 5953.247359
_symmetry_space_group_name_H-M "C M M M"
_symmetry_group_IT_number 65
_symmetry_cell_setting 'orthorhombic'
loop_
_space_group_symop_operation_xyz
x,y,z
-x,-y,z
x,-y,-z
-x,y,-z
-x,-y,-z
x,y,-z
-x,y,z
x,-y,z
1/2+x,1/2+y,z
1/2-x,1/2-y,z
1/2+x,1/2-y,-z
1/2-x,1/2+y,-z
1/2-x,1/2-y,-z
1/2+x,1/2+y,-z
1/2-x,1/2+y,z
1/2+x,1/2-y,z
loop_
_atom_site_type_symbol
_atom_site_label
_atom_site_fract_x
_atom_site_fract_y
_atom_site_fract_z
Si Si1 0.107255 0.687855 0.110825
Si Si2 0.947351 0.309207 0.563365
Si Si3 0.798963 0.687880 0.276420
Si Si4 0.052491 0.308984 0.000000
Si Si5 0.894009 0.310375 0.672643
Si Si6 0.446833 0.312203 0.781127
Si Si7 0.299144 0.313596 0.850629
O O1 0.109609 0.500000 0.110995
O O2 0.079281 0.739995 0.055943
O O3 0.080811 0.742960 0.166482
O O4 0.158287 0.754549 0.113338
O O5 0.935242 0.258398 0.500000
O O6 0.946605 0.500000 0.563250
O O7 0.914314 0.256241 0.613132
O O8 0.000000 0.263406 0.574581
O O9 0.797455 0.500000 0.273337
O O10 0.750000 0.750000 0.296261
O O11 0.841906 0.735978 0.314318
O O12 0.806086 0.751575 0.213182
O O13 0.051711 0.500000 0.000000
O O14 0.000000 0.255620 0.000000
O O15 0.895698 0.500000 0.673709
O O16 0.924931 0.248469 0.723458
O O17 0.500000 0.267023 0.784544
O O18 0.443561 0.500000 0.782855
O O19 0.298048 0.500000 0.849170
O O20 0.250000 0.250000 0.869766
#
# Coordination Sequence:
#
# PCOD9485778 Si02
#       7
#    16  16  16   8  16  16  16
#     4  11  21  37  59  82 107 139 179 220 265 318
#     4   8  14  26  46  73 103 134 172 220 268 312
#     4  10  19  31  49  75 104 137 175 216 263 319
#     4   9  20  38  60  83 106 139 182 223 262 311
#     4  10  19  31  51  77 103 134 176 219 267 321
#     4  11  23  35  49  75 109 141 173 215 268 319
#     4  11  21  35  56  81 110 141 175 217 266 319
#
# _framework density 17.469456999999998
#
# number of rings (size 3 to 8) (size 9 to 14) (size 15 to 20)
#    0.000    1.923    1.538    5.077    0.000    3.077 
#    0.000    1.923    0.000    3.692    0.000    2.154 
#    0.000    0.000    0.000    0.000    0.000    0.615 
#
# Total GULP energy -290315.032817 kJ/mol
# GULP energy per Si atom -5582.981400 kJ/mol
# Density = 1.742970 g / cm^3
# Si number density = 17.469457 Si / 1000 Ang^3
#
#
#
# Elastic Constant Matrix: (Units=GPa)
#
#
# Indices 1 2 3 4 5 6 
#
# 1 181.2593 40.9118 91.8607 0.0000 0.0000 0.0000
# 2 40.9118 40.4036 21.8711 0.0000 0.0000 0.0000
# 3 91.8607 21.8711 123.0706 0.0000 0.0000 0.0000
# 4 0.0000 0.0000 0.0000 -3.8490 0.0000 0.0000
# 5 0.0000 0.0000 0.0000 0.0000 48.9126 0.0000
# 6 0.0000 0.0000 0.0000 0.0000 0.0000 26.7738
#
#
#
# Elastic Compliance Matrix: (Units=1/GPa)
#
#
# Indices 1 2 3 4 5 6 
#
# 1 0.010402 -0.007003 -0.006519 0.000000 0.000000 0.000000
# 2 -0.007003 0.032100 -0.000477 0.000000 0.000000 0.000000
# 3 -0.006519 -0.000477 0.013076 0.000000 0.000000 0.000000
# 4 0.000000 0.000000 0.000000 -0.259807 0.000000 0.000000
# 5 0.000000 0.000000 0.000000 0.000000 0.020445 0.000000
# 6 0.000000 0.000000 0.000000 0.000000 0.000000 0.037350
#
#
# Mechanical properties :
#
#
# Convention : Reuss Voigt Hill
#
# Bulk Modulus (GPa) = 36.26045 72.66898 54.46472
# Shear Modulus (GPa) = -45.76985 27.04013 -9.36486
#
# Velocity S-wave (km/s) = -5.12414 3.93854 -2.31783
# Velocity P-wave (km/s) = 3.76929 7.89752 4.90731
#
# Compressibility (1/GPa) = 0.02757825
#
# Stress axis : x y z
#
# Youngs Moduli (GPa) = 96.13919 31.15253 76.47480
#
# Poissons Ratio (x) = 0.21818 0.49856
# Poissons Ratio (y) = 0.67331 0.03649
# Poissons Ratio (z) = 0.62675 0.01486
#
# Static dielectric constant tensor:
#      x y z
#    x 1.598970 0.000000 0.000000 
#    y 0.000000 1.593340 0.000000 
#    z 0.000000 0.000000 1.571260 
# 
# From -- ./inp_files/72179.got.cif
#   From: 2010.05.17/outbox.cif.g08.bks.cpg/sg65_37_cif.got.tgz:72179.got - 2010.06.03 17:01:31.
