data_PCOD9485710
_publ_section_title
;
Structure prediction by ZEFSAII (Michael W. Deem and Ramdas Pophale) SiO2 
 PCOD9485710
Probable space group: C M M M
;
_chemical_formula_sum "Si O2"
_cell_formula_units_Z 96
_cell_length_a 25.875183
_cell_length_b 24.561995
_cell_length_c 7.484887
_cell_angle_alpha 90.000000
_cell_angle_beta 90.000000
_cell_angle_gamma 90.000000
_cell_volume 4756.990858
_symmetry_space_group_name_H-M "C M M M"
_symmetry_group_IT_number 65
_symmetry_cell_setting 'orthorhombic'
loop_
_space_group_symop_operation_xyz
x,y,z
-x,-y,z
x,-y,-z
-x,y,-z
-x,-y,-z
x,y,-z
-x,y,z
x,-y,z
1/2+x,1/2+y,z
1/2-x,1/2-y,z
1/2+x,1/2-y,-z
1/2-x,1/2+y,-z
1/2-x,1/2-y,-z
1/2+x,1/2+y,-z
1/2-x,1/2+y,z
1/2+x,1/2-y,z
loop_
_atom_site_type_symbol
_atom_site_label
_atom_site_fract_x
_atom_site_fract_y
_atom_site_fract_z
Si Si1 0.347030 0.881452 0.788665
Si Si2 0.153656 0.889123 0.709838
Si Si3 0.441341 0.196485 0.715146
Si Si4 0.794154 0.000000 0.717982
Si Si5 0.250570 0.312239 0.216426
Si Si6 0.059245 0.819853 0.718331
Si Si7 0.672521 0.000000 0.208398
O O1 0.399584 0.848042 0.767918
O O2 0.299226 0.845777 0.717602
O O3 0.347010 0.942685 0.713613
O O4 0.336940 0.887019 0.000000
O O5 0.144495 0.898940 0.500000
O O6 0.176411 0.945726 0.781006
O O7 0.198034 0.843890 0.728904
O O8 0.100899 0.863437 0.783477
O O9 0.442332 0.197640 0.500000
O O10 0.500000 0.185095 0.776175
O O11 0.427166 0.257950 0.774242
O O12 0.792350 0.000000 0.500000
O O13 0.734810 0.000000 0.779457
O O14 0.250000 0.250000 0.278717
O O15 0.249273 0.311229 0.000000
O O16 0.060447 0.820023 0.500000
O O17 0.000000 0.830649 0.770820
O O18 0.656988 0.000000 0.000000
#
# Coordination Sequence:
#
# PCOD9485710 Si02
#       7
#    16  16  16   8  16  16   8
#     4  10  20  33  50  72  97 127 165 203 242 294
#     4  10  19  31  49  73 100 131 168 206 246 292
#     4   9  18  33  53  75  98 127 163 201 246 299
#     4  10  20  32  47  73 103 130 168 212 246 285
#     4  10  20  32  48  73 102 128 159 204 253 300
#     4   8  15  30  51  73  99 132 166 200 243 297
#     4  10  20  36  53  68  93 136 176 197 238 303
#
# _framework density 20.180826
#
# number of rings (size 3 to 8) (size 9 to 14) (size 15 to 20)
#    0.000    2.500    1.667    2.000    0.000    2.000 
#    0.000    0.833    0.000    6.500    0.000    0.000 
#    0.000    2.000    0.000    0.000    0.000    0.000 
#
# Total GULP energy -267940.436693 kJ/mol
# GULP energy per Si atom -5582.092431 kJ/mol
# Density = 2.013489 g / cm^3
# Si number density = 20.180826 Si / 1000 Ang^3
#
#
#
# Elastic Constant Matrix: (Units=GPa)
#
#
# Indices 1 2 3 4 5 6 
#
# 1 84.6451 42.0982 -22.0193 0.0000 0.0000 0.0000
# 2 42.0982 108.8747 -14.3532 0.0000 0.0000 0.0000
# 3 -22.0193 -14.3532 51.3435 0.0000 0.0000 0.0000
# 4 0.0000 0.0000 0.0000 -49.0810 0.0000 0.0000
# 5 0.0000 0.0000 0.0000 0.0000 27.9354 0.0000
# 6 0.0000 0.0000 0.0000 0.0000 0.0000 20.3969
#
#
#
# Elastic Compliance Matrix: (Units=1/GPa)
#
#
# Indices 1 2 3 4 5 6 
#
# 1 0.015903 -0.005451 0.005296 0.000000 0.000000 0.000000
# 2 -0.005451 0.011405 0.000851 0.000000 0.000000 0.000000
# 3 0.005296 0.000851 0.021986 0.000000 0.000000 0.000000
# 4 0.000000 0.000000 0.000000 -0.020374 0.000000 0.000000
# 5 0.000000 0.000000 0.000000 0.000000 0.035797 0.000000
# 6 0.000000 0.000000 0.000000 0.000000 0.000000 0.049027
#
#
# Mechanical properties :
#
#
# Convention : Reuss Voigt Hill
#
# Bulk Modulus (GPa) = 19.72959 28.47940 24.10450
# Shear Modulus (GPa) = 38.68595 15.79276 27.23936
#
# Velocity S-wave (km/s) = 4.38307 2.80047 3.67790
# Velocity P-wave (km/s) = 5.95085 4.95979 5.47778
#
# Compressibility (1/GPa) = 0.05068528
#
# Stress axis : x y z
#
# Youngs Moduli (GPa) = 62.88209 87.68345 45.48384
#
# Poissons Ratio (x) = 0.47795 -0.24090
# Poissons Ratio (y) = 0.34276 -0.03869
# Poissons Ratio (z) = -0.33304 -0.07458
#
# Static dielectric constant tensor:
#      x y z
#    x 1.675780 0.000000 0.000000 
#    y 0.000000 1.716060 0.000000 
#    z 0.000000 0.000000 1.843030 
# 
# From -- ./inp_files/14398.got.cif
#   From: 2010.05.17/outbox.cif.g08.bks.cpg/sg65_8_cif.got.tgz:14398.got - 2010.06.03 17:01:31.
