data_PCOD9485601
_publ_section_title
;
Structure prediction by ZEFSAII (Michael W. Deem and Ramdas Pophale) SiO2 
 PCOD9485601
Probable space group: C M M M
;
_chemical_formula_sum "Si O2"
_cell_formula_units_Z 120
_cell_length_a 26.665281
_cell_length_b 19.699571
_cell_length_c 13.201849
_cell_angle_alpha 90.000000
_cell_angle_beta 90.000000
_cell_angle_gamma 90.000000
_cell_volume 6934.859941
_symmetry_space_group_name_H-M "C M M M"
_symmetry_group_IT_number 65
_symmetry_cell_setting 'orthorhombic'
loop_
_space_group_symop_operation_xyz
x,y,z
-x,-y,z
x,-y,-z
-x,y,-z
-x,-y,-z
x,y,-z
-x,y,z
x,-y,z
1/2+x,1/2+y,z
1/2-x,1/2-y,z
1/2+x,1/2-y,-z
1/2-x,1/2+y,-z
1/2-x,1/2-y,-z
1/2+x,1/2+y,-z
1/2-x,1/2+y,z
1/2+x,1/2-y,z
loop_
_atom_site_type_symbol
_atom_site_label
_atom_site_fract_x
_atom_site_fract_y
_atom_site_fract_z
Si Si1 0.371484 0.802547 0.616846
Si Si2 0.444882 0.689190 0.118375
Si Si3 0.263747 0.173781 0.298717
Si Si4 0.061013 0.579009 0.000000
Si Si5 0.440722 0.839463 0.203247
Si Si6 0.367495 0.423526 0.818595
Si Si7 0.344601 0.645490 0.615971
Si Si8 0.248074 0.920851 0.115335
O O1 0.385727 0.813830 0.500000
O O2 0.314085 0.824532 0.636291
O O3 0.406979 0.841862 0.695963
O O4 0.369054 0.720303 0.633610
O O5 0.500000 0.663167 0.148815
O O6 0.436558 0.760591 0.172185
O O7 0.403553 0.633198 0.137760
O O8 0.445786 0.705031 0.000000
O O9 0.250000 0.250000 0.263403
O O10 0.215083 0.151757 0.362853
O O11 0.271168 0.126217 0.201534
O O12 0.076158 0.616477 0.895005
O O13 0.076384 0.500000 0.000000
O O14 0.000000 0.581780 0.000000
O O15 0.500000 0.854398 0.221683
O O16 0.384823 0.500000 0.837692
O O17 0.363604 0.407213 0.699221
O O18 0.311991 0.416408 0.866087
O O19 0.353640 0.626529 0.500000
O O20 0.261845 0.000000 0.128463
O O21 0.259789 0.900702 0.000000
#
# Coordination Sequence:
#
# PCOD9485601 Si02
#       8
#    16  16  16   8  16  16  16  16
#     4  10  19  33  54  79 105 135 173 217 263 311
#     4  10  19  32  50  73 104 139 177 221 264 309
#     4   9  18  32  50  75 102 130 171 218 261 308
#     4   9  18  36  62  86 106 131 167 213 263 320
#     4  10  19  34  56  82 109 137 172 213 262 318
#     4  10  19  31  48  72 103 141 184 225 265 308
#     4   9  17  31  51  73  98 133 177 224 267 307
#     4   9  18  33  50  70 102 140 173 210 258 313
#
# _framework density 17.303882999999999
#
# number of rings (size 3 to 8) (size 9 to 14) (size 15 to 20)
#    0.000    2.467    2.000    0.800    0.000    3.467 
#    1.200    1.333    0.000    2.800    0.000    2.800 
#    0.000    0.000    0.000    0.000    0.000    0.000 
#
# Total GULP energy -334354.061906 kJ/mol
# GULP energy per Si atom -5572.567698 kJ/mol
# Density = 1.726450 g / cm^3
# Si number density = 17.303883 Si / 1000 Ang^3
#
#
#
# Elastic Constant Matrix: (Units=GPa)
#
#
# Indices 1 2 3 4 5 6 
#
# 1 28.6613 15.0209 20.1589 0.0000 0.0000 0.0000
# 2 15.0209 25.5806 15.2699 0.0000 0.0000 0.0000
# 3 20.1589 15.2699 102.1070 0.0000 0.0000 0.0000
# 4 0.0000 0.0000 0.0000 18.2597 0.0000 0.0000
# 5 0.0000 0.0000 0.0000 0.0000 21.8357 0.0000
# 6 0.0000 0.0000 0.0000 0.0000 0.0000 14.7416
#
#
#
# Elastic Compliance Matrix: (Units=1/GPa)
#
#
# Indices 1 2 3 4 5 6 
#
# 1 0.054072 -0.027866 -0.006508 0.000000 0.000000 0.000000
# 2 -0.027866 0.057285 -0.003065 0.000000 0.000000 0.000000
# 3 -0.006508 -0.003065 0.011537 0.000000 0.000000 0.000000
# 4 0.000000 0.000000 0.000000 0.054765 0.000000 0.000000
# 5 0.000000 0.000000 0.000000 0.000000 0.045797 0.000000
# 6 0.000000 0.000000 0.000000 0.000000 0.000000 0.067835
#
#
# Mechanical properties :
#
#
# Convention : Reuss Voigt Hill
#
# Bulk Modulus (GPa) = 20.82688 28.58314 24.70501
# Shear Modulus (GPa) = 13.08303 18.02733 15.55518
#
# Velocity S-wave (km/s) = 2.75266 3.23121 3.00149
# Velocity P-wave (km/s) = 4.70797 5.52043 5.13031
#
# Compressibility (1/GPa) = 0.04801488
#
# Stress axis : x y z
#
# Youngs Moduli (GPa) = 18.49397 17.45663 86.67814
#
# Poissons Ratio (x) = 0.48645 0.56411
# Poissons Ratio (y) = 0.51535 0.26569
# Poissons Ratio (z) = 0.12036 0.05351
#
# Static dielectric constant tensor:
#      x y z
#    x 1.597220 0.000000 0.000000 
#    y 0.000000 1.583300 0.000000 
#    z 0.000000 0.000000 1.584380 
# 
# From -- ./inp_files/32822.got.cif
#   From: 2010.05.17/outbox.cif.g08.bks.cpg/sg65_17_cif.got.tgz:32822.got - 2010.06.03 17:01:31.
