data_PCOD9485356
_publ_section_title
;
Structure prediction by ZEFSAII (Michael W. Deem and Ramdas Pophale) SiO2 
 PCOD9485356
Probable space group: C M M M
;
_chemical_formula_sum "Si O2"
_cell_formula_units_Z 104
_cell_length_a 9.041533
_cell_length_b 25.861599
_cell_length_c 30.674952
_cell_angle_alpha 90.000000
_cell_angle_beta 90.000000
_cell_angle_gamma 90.000000
_cell_volume 7172.678038
_symmetry_space_group_name_H-M "C M M M"
_symmetry_group_IT_number 65
_symmetry_cell_setting 'orthorhombic'
loop_
_space_group_symop_operation_xyz
x,y,z
-x,-y,z
x,-y,-z
-x,y,-z
-x,-y,-z
x,y,-z
-x,y,z
x,-y,z
1/2+x,1/2+y,z
1/2-x,1/2-y,z
1/2+x,1/2-y,-z
1/2-x,1/2+y,-z
1/2-x,1/2-y,-z
1/2+x,1/2+y,-z
1/2-x,1/2+y,z
1/2+x,1/2-y,z
loop_
_atom_site_type_symbol
_atom_site_label
_atom_site_fract_x
_atom_site_fract_y
_atom_site_fract_z
Si Si1 0.825994 0.562338 0.814163
Si Si2 0.326456 0.000000 0.052272
Si Si3 0.326726 0.437217 0.548153
Si Si4 0.677176 0.402210 0.098646
Si Si5 0.669515 0.437135 0.275424
Si Si6 0.324555 0.805469 0.948204
Si Si7 0.170408 0.436937 0.363664
O O1 0.807496 0.500000 0.818674
O O2 0.732730 0.589109 0.852075
O O3 0.766607 0.577384 0.766445
O O4 0.000000 0.573529 0.818651
O O5 0.246628 0.050320 0.071366
O O6 0.500000 0.000000 0.065407
O O7 0.319657 0.000000 0.000000
O O8 0.274782 0.420136 0.500000
O O9 0.500000 0.424101 0.552560
O O10 0.318717 0.500000 0.548122
O O11 0.237738 0.419153 0.590327
O O12 0.500000 0.402954 0.096164
O O13 0.743486 0.349826 0.078840
O O14 0.500000 0.420331 0.270541
O O15 0.669500 0.500000 0.276415
O O16 0.737779 0.419892 0.321400
O O17 0.500000 0.804305 0.938767
O O18 0.250000 0.750000 0.939805
O O19 0.307746 0.816407 0.000000
O O20 0.175580 0.500000 0.364022
O O21 0.000000 0.421893 0.359439
#
# Coordination Sequence:
#
# PCOD9485356 Si02
#       7
#    16   8  16  16  16  16  16
#     4  10  19  31  46  62  85 113 141 172 211 255
#     4  11  23  37  51  69  95 125 153 181 216 257
#     4   8  13  20  28  37  51  73 102 139 186 236
#     4  12  23  34  51  73  97 122 150 181 217 262
#     4   9  16  25  37  51  69  93 124 159 196 240
#     4  10  21  38  58  77  97 121 150 183 218 256
#     4   9  15  21  29  42  59  80 110 146 188 236
#
# _framework density 14.499465000000001
#
# number of rings (size 3 to 8) (size 9 to 14) (size 15 to 20)
#    0.000    2.231    0.769    4.385    0.000    8.000 
#    0.000    1.538    0.000    0.000    0.000    0.000 
#    0.000    0.000    0.000    0.000    0.000    0.000 
#
# Total GULP energy -289917.108172 kJ/mol
# GULP energy per Si atom -5575.329003 kJ/mol
# Density = 1.446646 g / cm^3
# Si number density = 14.499465 Si / 1000 Ang^3
#
#
#
# Elastic Constant Matrix: (Units=GPa)
#
#
# Indices 1 2 3 4 5 6 
#
# 1 127.9742 36.6557 70.0372 0.0000 0.0000 0.0000
# 2 36.6557 41.9416 37.1701 0.0000 0.0000 0.0000
# 3 70.0372 37.1701 112.5746 0.0000 0.0000 0.0000
# 4 0.0000 0.0000 0.0000 8.5607 0.0000 0.0000
# 5 0.0000 0.0000 0.0000 0.0000 29.0534 0.0000
# 6 0.0000 0.0000 0.0000 0.0000 0.0000 14.6984
#
#
#
# Elastic Compliance Matrix: (Units=1/GPa)
#
#
# Indices 1 2 3 4 5 6 
#
# 1 0.012783 -0.005830 -0.006028 0.000000 0.000000 0.000000
# 2 -0.005830 0.036364 -0.008380 0.000000 0.000000 0.000000
# 3 -0.006028 -0.008380 0.015400 0.000000 0.000000 0.000000
# 4 0.000000 0.000000 0.000000 0.116813 0.000000 0.000000
# 5 0.000000 0.000000 0.000000 0.000000 0.034419 0.000000
# 6 0.000000 0.000000 0.000000 0.000000 0.000000 0.068035
#
#
# Mechanical properties :
#
#
# Convention : Reuss Voigt Hill
#
# Bulk Modulus (GPa) = 41.54175 63.35739 52.44957
# Shear Modulus (GPa) = 15.04605 19.70432 17.37519
#
# Velocity S-wave (km/s) = 3.22483 3.69042 3.46545
# Velocity P-wave (km/s) = 6.52524 7.87084 7.22941
#
# Compressibility (1/GPa) = 0.02407217
#
# Stress axis : x y z
#
# Youngs Moduli (GPa) = 78.23050 27.49954 64.93480
#
# Poissons Ratio (x) = 0.16031 0.39141
# Poissons Ratio (y) = 0.45606 0.54415
# Poissons Ratio (z) = 0.47156 0.23045
#
# Static dielectric constant tensor:
#      x y z
#    x 1.483310 0.000000 0.000000 
#    y 0.000000 1.440170 0.000000 
#    z 0.000000 0.000000 1.491970 
# 
# From -- ./inp_files/73554.got.cif
#   From: 2010.05.17/outbox.cif.g08.bks.cpg/sg65_37_cif.got.tgz:73554.got - 2010.06.03 17:01:31.
