data_PCOD9485570
_publ_section_title
;
Structure prediction by ZEFSAII (Michael W. Deem and Ramdas Pophale) SiO2 
 PCOD9485570
Probable space group: C M M M
;
_chemical_formula_sum "Si O2"
_cell_formula_units_Z 80
_cell_length_a 30.480037
_cell_length_b 7.597900
_cell_length_c 16.861450
_cell_angle_alpha 90.000000
_cell_angle_beta 90.000000
_cell_angle_gamma 90.000000
_cell_volume 3904.846642
_symmetry_space_group_name_H-M "C M M M"
_symmetry_group_IT_number 65
_symmetry_cell_setting 'orthorhombic'
loop_
_space_group_symop_operation_xyz
x,y,z
-x,-y,z
x,-y,-z
-x,y,-z
-x,-y,-z
x,y,-z
-x,y,z
x,-y,z
1/2+x,1/2+y,z
1/2-x,1/2-y,z
1/2+x,1/2-y,-z
1/2-x,1/2+y,-z
1/2-x,1/2-y,-z
1/2+x,1/2+y,-z
1/2-x,1/2+y,z
1/2+x,1/2-y,z
loop_
_atom_site_type_symbol
_atom_site_label
_atom_site_fract_x
_atom_site_fract_y
_atom_site_fract_z
Si Si1 0.572172 0.785655 0.500000
Si Si2 0.952865 0.286539 0.672345
Si Si3 0.700004 0.292745 0.678735
Si Si4 0.828813 0.708189 0.500000
Si Si5 0.122361 0.800258 0.213841
Si Si6 0.950259 0.785768 0.907202
O O1 0.549147 0.736169 0.419301
O O2 0.621936 0.718267 0.500000
O O3 0.573198 0.000000 0.500000
O O4 0.948354 0.500000 0.678201
O O5 0.912746 0.198146 0.715372
O O6 0.000000 0.236101 0.706040
O O7 0.693295 0.500000 0.683274
O O8 0.750000 0.250000 0.699247
O O9 0.692685 0.249950 0.585250
O O10 0.665064 0.216803 0.742941
O O11 0.832301 0.500000 0.500000
O O12 0.091342 0.720473 0.144350
O O13 0.133654 0.000000 0.188152
O O14 0.000000 0.725227 0.885464
O O15 0.950657 0.000000 0.899155
O O16 0.944231 0.745123 0.000000
#
# Coordination Sequence:
#
# PCOD9485570 Si02
#       6
#     8  16  16   8  16  16
#     4   9  17  30  47  66  93 131 169 201 235 283
#     4  10  19  31  48  70  98 134 171 202 239 293
#     4  11  23  37  53  74 100 131 169 215 263 308
#     4  11  20  35  57  74  95 132 174 217 261 299
#     4  10  20  33  51  75 102 128 163 211 255 294
#     4   8  14  27  50  79 107 133 161 195 240 295
#
# _framework density 20.487359999999999
#
# number of rings (size 3 to 8) (size 9 to 14) (size 15 to 20)
#    0.000    2.200    2.000    2.700    0.000    3.200 
#    0.000    0.500    0.000    2.400    0.000    2.800 
#    0.000    0.000    0.000    0.000    0.000    0.200 
#
# Total GULP energy -222925.744236 kJ/mol
# GULP energy per Si atom -5573.143606 kJ/mol
# Density = 2.044073 g / cm^3
# Si number density = 20.487360 Si / 1000 Ang^3
#
#
#
# Elastic Constant Matrix: (Units=GPa)
#
#
# Indices 1 2 3 4 5 6 
#
# 1 175.2229 2.4639 71.7434 0.0000 0.0000 0.0000
# 2 2.4639 48.4586 -1.1631 0.0000 0.0000 0.0000
# 3 71.7434 -1.1631 137.8000 0.0000 0.0000 0.0000
# 4 0.0000 0.0000 0.0000 12.7048 0.0000 0.0000
# 5 0.0000 0.0000 0.0000 0.0000 10.7960 0.0000
# 6 0.0000 0.0000 0.0000 0.0000 0.0000 -0.3619
#
#
#
# Elastic Compliance Matrix: (Units=1/GPa)
#
#
# Indices 1 2 3 4 5 6 
#
# 1 0.007263 -0.000460 -0.003785 0.000000 0.000000 0.000000
# 2 -0.000460 0.020670 0.000414 0.000000 0.000000 0.000000
# 3 -0.003785 0.000414 0.009231 0.000000 0.000000 0.000000
# 4 0.000000 0.000000 0.000000 0.078710 0.000000 0.000000
# 5 0.000000 0.000000 0.000000 0.000000 0.092627 0.000000
# 6 0.000000 0.000000 0.000000 0.000000 0.000000 -2.763102
#
#
# Mechanical properties :
#
#
# Convention : Reuss Voigt Hill
#
# Bulk Modulus (GPa) = 33.89717 56.39664 45.14691
# Shear Modulus (GPa) = -1.97075 23.85695 10.94310
#
# Velocity S-wave (km/s) = -0.98185 3.41614 2.31365
# Velocity P-wave (km/s) = 3.91101 6.56866 5.40570
#
# Compressibility (1/GPa) = 0.02950098
#
# Stress axis : x y z
#
# Youngs Moduli (GPa) = 137.67634 48.38042 108.32793
#
# Poissons Ratio (x) = 0.02226 0.41007
# Poissons Ratio (y) = 0.06335 -0.04485
# Poissons Ratio (z) = 0.52117 -0.02003
#
# Static dielectric constant tensor:
#      x y z
#    x -7.333480 0.000000 0.000000 
#    y 0.000000 1.785040 0.000000 
#    z 0.000000 0.000000 1.762960 
# 
# From -- ./inp_files/57910.got.cif
#   From: 2010.05.17/outbox.cif.g08.bks.cpg/sg65_29_cif.got.tgz:57910.got - 2010.06.03 17:01:31.
