data_PCOD9485230
_publ_section_title
;
Structure prediction by ZEFSAII (Michael W. Deem and Ramdas Pophale) SiO2 
 PCOD9485230
Probable space group: C M M M
;
_chemical_formula_sum "Si O2"
_cell_formula_units_Z 120
_cell_length_a 27.638602
_cell_length_b 8.642971
_cell_length_c 27.682102
_cell_angle_alpha 90.000000
_cell_angle_beta 90.000000
_cell_angle_gamma 90.000000
_cell_volume 6612.690437
_symmetry_space_group_name_H-M "C M M M"
_symmetry_group_IT_number 65
_symmetry_cell_setting 'orthorhombic'
loop_
_space_group_symop_operation_xyz
x,y,z
-x,-y,z
x,-y,-z
-x,y,-z
-x,-y,-z
x,y,-z
-x,y,z
x,-y,z
1/2+x,1/2+y,z
1/2-x,1/2-y,z
1/2+x,1/2-y,-z
1/2-x,1/2+y,-z
1/2-x,1/2-y,-z
1/2+x,1/2+y,-z
1/2-x,1/2+y,z
1/2+x,1/2-y,z
loop_
_atom_site_type_symbol
_atom_site_label
_atom_site_fract_x
_atom_site_fract_y
_atom_site_fract_z
Si Si1 0.558192 0.174404 0.700608
Si Si2 0.696166 0.686478 0.248757
Si Si3 0.500000 0.312932 0.556829
Si Si4 0.444188 0.681977 0.802017
Si Si5 0.353088 0.683403 0.146862
Si Si6 0.304672 0.815313 0.354654
Si Si7 0.901336 0.180067 0.609380
Si Si8 0.195999 0.315757 0.947212
O O1 0.500000 0.178790 0.696005
O O2 0.569322 0.218217 0.755400
O O3 0.579957 0.296791 0.663941
O O4 0.574703 0.000000 0.688614
O O5 0.695048 0.500000 0.253699
O O6 0.750000 0.750000 0.241744
O O7 0.668784 0.728591 0.199244
O O8 0.681091 0.758514 0.300331
O O9 0.500000 0.500000 0.564495
O O10 0.500000 0.281448 0.500000
O O11 0.551623 0.257835 0.579301
O O12 0.500000 0.708039 0.812849
O O13 0.437704 0.500000 0.788967
O O14 0.409767 0.714124 0.846616
O O15 0.344375 0.500000 0.142088
O O16 0.332000 0.762780 0.100076
O O17 0.250000 0.750000 0.364300
O O18 0.348220 0.759532 0.390057
O O19 0.301785 0.000000 0.355123
O O20 0.894868 0.000000 0.597118
O O21 0.198435 0.500000 0.947080
O O22 0.250000 0.250000 0.943760
O O23 0.176120 0.265484 0.000000
#
# Coordination Sequence:
#
# PCOD9485230 Si02
#       8
#    16  16   8  16  16  16  16  16
#     4  10  19  30  47  75 110 143 180 220 261 312
#     4  10  19  31  47  72 107 142 179 216 255 309
#     4   9  20  38  61  89 115 143 183 229 280 333
#     4   9  18  32  49  70 101 139 177 213 252 301
#     4  10  20  32  49  73  99 131 169 210 255 305
#     4  11  22  36  54  79 112 150 189 227 266 318
#     4  11  20  34  57  82 110 146 184 226 275 326
#     4  10  21  36  54  75  97 122 155 199 252 310
#
# _framework density 18.146927000000002
#
# number of rings (size 3 to 8) (size 9 to 14) (size 15 to 20)
#    0.000    1.933    0.667    4.800    0.000    5.067 
#    0.000    0.000    0.000    4.000    0.000    2.800 
#    0.000    0.000    0.000    0.000    0.000    0.000 
#
# Total GULP energy -334519.725995 kJ/mol
# GULP energy per Si atom -5575.328767 kJ/mol
# Density = 1.810562 g / cm^3
# Si number density = 18.146927 Si / 1000 Ang^3
#
#
#
# Elastic Constant Matrix: (Units=GPa)
#
#
# Indices 1 2 3 4 5 6 
#
# 1 100.6441 37.6706 63.8962 0.0000 0.0000 0.0000
# 2 37.6706 46.6032 26.3781 0.0000 0.0000 0.0000
# 3 63.8962 26.3781 64.2106 0.0000 0.0000 0.0000
# 4 0.0000 0.0000 0.0000 3.3558 0.0000 0.0000
# 5 0.0000 0.0000 0.0000 0.0000 16.9780 0.0000
# 6 0.0000 0.0000 0.0000 0.0000 0.0000 21.9712
#
#
#
# Elastic Compliance Matrix: (Units=1/GPa)
#
#
# Indices 1 2 3 4 5 6 
#
# 1 0.029928 -0.009557 -0.025855 0.000000 0.000000 0.000000
# 2 -0.009557 0.031011 -0.003229 0.000000 0.000000 0.000000
# 3 -0.025855 -0.003229 0.042629 0.000000 0.000000 0.000000
# 4 0.000000 0.000000 0.000000 0.297988 0.000000 0.000000
# 5 0.000000 0.000000 0.000000 0.000000 0.058900 0.000000
# 6 0.000000 0.000000 0.000000 0.000000 0.000000 0.045514
#
#
# Mechanical properties :
#
#
# Convention : Reuss Voigt Hill
#
# Bulk Modulus (GPa) = 38.04498 51.92752 44.98625
# Shear Modulus (GPa) = 8.44573 14.02854 11.23714
#
# Velocity S-wave (km/s) = 2.15967 2.78340 2.49113
# Velocity P-wave (km/s) = 5.21818 6.24555 5.75484
#
# Compressibility (1/GPa) = 0.02628468
#
# Stress axis : x y z
#
# Youngs Moduli (GPa) = 33.41343 32.24694 23.45816
#
# Poissons Ratio (x) = 0.30819 0.60652
# Poissons Ratio (y) = 0.31934 0.07575
# Poissons Ratio (z) = 0.86392 0.10413
#
# Static dielectric constant tensor:
#      x y z
#    x 1.686770 0.000000 0.000000 
#    y 0.000000 1.636980 0.000000 
#    z 0.000000 0.000000 1.599530 
# 
# From -- ./inp_files/76122.got.cif
#   From: 2010.05.17/outbox.cif.g08.bks.cpg/sg65_39_cif.got.tgz:76122.got - 2010.06.03 17:01:31.
