data_PCOD9485444
_publ_section_title
;
Structure prediction by ZEFSAII (Michael W. Deem and Ramdas Pophale) SiO2 
 PCOD9485444
Probable space group: C M M M
;
_chemical_formula_sum "Si O2"
_cell_formula_units_Z 88
_cell_length_a 19.061500
_cell_length_b 9.434049
_cell_length_c 29.494892
_cell_angle_alpha 90.000000
_cell_angle_beta 90.000000
_cell_angle_gamma 90.000000
_cell_volume 5303.981631
_symmetry_space_group_name_H-M "C M M M"
_symmetry_group_IT_number 65
_symmetry_cell_setting 'orthorhombic'
loop_
_space_group_symop_operation_xyz
x,y,z
-x,-y,z
x,-y,-z
-x,y,-z
-x,-y,-z
x,y,-z
-x,y,z
x,-y,z
1/2+x,1/2+y,z
1/2-x,1/2-y,z
1/2+x,1/2-y,-z
1/2-x,1/2+y,-z
1/2-x,1/2-y,-z
1/2+x,1/2+y,-z
1/2-x,1/2+y,z
1/2+x,1/2-y,z
loop_
_atom_site_type_symbol
_atom_site_label
_atom_site_fract_x
_atom_site_fract_y
_atom_site_fract_z
Si Si1 0.914522 0.336415 0.814060
Si Si2 0.176023 0.671879 0.000000
Si Si3 0.914418 0.836966 0.273745
Si Si4 0.823318 0.330375 0.551006
Si Si5 0.416940 0.168421 0.636781
Si Si6 0.080589 0.327655 0.085401
O O1 0.892360 0.500000 0.808130
O O2 0.890988 0.241782 0.772010
O O3 0.894739 0.283631 0.864326
O O4 0.000000 0.337151 0.814208
O O5 0.250000 0.750000 0.000000
O O6 0.131135 0.712260 0.955503
O O7 0.184313 0.500000 0.000000
O O8 0.892733 0.754169 0.319044
O O9 0.000000 0.834116 0.273259
O O10 0.892231 0.000000 0.274681
O O11 0.850171 0.299099 0.500000
O O12 0.812000 0.500000 0.553439
O O13 0.750000 0.250000 0.556573
O O14 0.875811 0.291417 0.591315
O O15 0.500000 0.193310 0.630650
O O16 0.407639 0.000000 0.644750
O O17 0.078533 0.500000 0.086642
O O18 0.000000 0.280512 0.077903
#
# Coordination Sequence:
#
# PCOD9485444 Si02
#       6
#    16   8  16  16  16  16
#     4   8  13  23  41  64  87 111 144 186 226 261
#     4  10  19  31  47  67  93 122 150 182 224 272
#     4   9  16  25  39  63  94 122 146 177 222 271
#     4   9  18  32  49  68  90 118 151 186 225 268
#     4   9  17  29  46  68  93 121 152 185 220 260
#     4   8  14  26  47  71  89 112 152 194 222 252
#
# _framework density 16.591308000000001
#
# number of rings (size 3 to 8) (size 9 to 14) (size 15 to 20)
#    0.000    3.273    0.000    1.909    0.000    4.364 
#    0.000    2.727    0.000    3.273    0.000    7.636 
#    0.000    0.000    0.000    0.000    0.000    0.000 
#
# Total GULP energy -244960.905190 kJ/mol
# GULP energy per Si atom -5567.293300 kJ/mol
# Density = 1.655355 g / cm^3
# Si number density = 16.591308 Si / 1000 Ang^3
#
#
#
# Elastic Constant Matrix: (Units=GPa)
#
#
# Indices 1 2 3 4 5 6 
#
# 1 43.1877 30.0365 69.4985 0.0000 0.0000 0.0000
# 2 30.0365 46.9278 75.0833 0.0000 0.0000 0.0000
# 3 69.4985 75.0833 211.3399 0.0000 0.0000 0.0000
# 4 0.0000 0.0000 0.0000 12.8053 0.0000 0.0000
# 5 0.0000 0.0000 0.0000 0.0000 -4.3263 0.0000
# 6 0.0000 0.0000 0.0000 0.0000 0.0000 17.7038
#
#
#
# Elastic Compliance Matrix: (Units=1/GPa)
#
#
# Indices 1 2 3 4 5 6 
#
# 1 0.052847 -0.013949 -0.012423 0.000000 0.000000 0.000000
# 2 -0.013949 0.053058 -0.014263 0.000000 0.000000 0.000000
# 3 -0.012423 -0.014263 0.013884 0.000000 0.000000 0.000000
# 4 0.000000 0.000000 0.000000 0.078093 0.000000 0.000000
# 5 0.000000 0.000000 0.000000 0.000000 -0.231144 0.000000
# 6 0.000000 0.000000 0.000000 0.000000 0.000000 0.056485
#
#
# Mechanical properties :
#
#
# Convention : Reuss Voigt Hill
#
# Bulk Modulus (GPa) = 25.96073 72.29912 49.12992
# Shear Modulus (GPa) = 42.61401 13.69237 28.15319
#
# Velocity S-wave (km/s) = 5.07349 2.87587 4.12377
# Velocity P-wave (km/s) = 7.07118 7.39585 7.23534
#
# Compressibility (1/GPa) = 0.03851972
#
# Stress axis : x y z
#
# Youngs Moduli (GPa) = 18.92241 18.84747 72.02414
#
# Poissons Ratio (x) = 0.26290 0.89477
# Poissons Ratio (y) = 0.26394 1.02727
# Poissons Ratio (z) = 0.23508 0.26882
#
# Static dielectric constant tensor:
#      x y z
#    x 1.530120 0.000000 0.000000 
#    y 0.000000 1.551460 0.000000 
#    z 0.000000 0.000000 1.574390 
# 
# From -- ./inp_files/76815.got.cif
#   From: 2010.05.17/outbox.cif.g08.bks.cpg/sg65_39_cif.got.tgz:76815.got - 2010.06.03 17:01:31.
