data_PCOD9485764
_publ_section_title
;
Structure prediction by ZEFSAII (Michael W. Deem and Ramdas Pophale) SiO2 
 PCOD9485764
Probable space group: C M M M
;
_chemical_formula_sum "Si O2"
_cell_formula_units_Z 88
_cell_length_a 8.708925
_cell_length_b 19.072365
_cell_length_c 28.913648
_cell_angle_alpha 90.000000
_cell_angle_beta 90.000000
_cell_angle_gamma 90.000000
_cell_volume 4802.551045
_symmetry_space_group_name_H-M "C M M M"
_symmetry_group_IT_number 65
_symmetry_cell_setting 'orthorhombic'
loop_
_space_group_symop_operation_xyz
x,y,z
-x,-y,z
x,-y,-z
-x,y,-z
-x,-y,-z
x,y,-z
-x,y,z
x,-y,z
1/2+x,1/2+y,z
1/2-x,1/2-y,z
1/2+x,1/2-y,-z
1/2-x,1/2+y,-z
1/2-x,1/2-y,-z
1/2+x,1/2+y,-z
1/2-x,1/2+y,z
1/2+x,1/2-y,z
loop_
_atom_site_type_symbol
_atom_site_label
_atom_site_fract_x
_atom_site_fract_y
_atom_site_fract_z
Si Si1 0.315327 0.082300 0.719064
Si Si2 0.184947 0.581629 0.446941
Si Si3 0.682055 0.672345 0.364131
Si Si4 0.187080 0.419263 0.000000
Si Si5 0.313949 0.171870 0.911061
Si Si6 0.313059 0.919600 0.175786
O O1 0.500000 0.090263 0.716084
O O2 0.238373 0.130090 0.680827
O O3 0.267177 0.098950 0.771824
O O4 0.281466 0.000000 0.710937
O O5 0.227202 0.598734 0.500000
O O6 0.225173 0.500000 0.438535
O O7 0.260366 0.631021 0.409321
O O8 0.000000 0.586898 0.443320
O O9 0.500000 0.676033 0.364377
O O10 0.750000 0.750000 0.363673
O O11 0.233542 0.376454 0.954386
O O12 0.239693 0.500000 0.000000
O O13 0.000000 0.421238 0.000000
O O14 0.500000 0.174893 0.911010
O O15 0.250000 0.250000 0.915066
O O16 0.262889 0.133871 0.863714
O O17 0.500000 0.920139 0.175430
O O18 0.265082 0.000000 0.165994
#
# Coordination Sequence:
#
# PCOD9485764 Si02
#       6
#    16  16  16   8  16  16
#     4   9  18  35  58  80 104 136 174 217 265 316
#     4   9  19  38  63  87 111 141 176 214 259 313
#     4  12  25  38  54  78 110 145 180 220 265 313
#     4   9  17  30  51  75  96 127 174 220 254 295
#     4  10  19  31  49  74 104 134 167 209 257 309
#     4   8  15  30  53  77  99 130 173 214 251 299
#
# _framework density 18.323595000000001
#
# number of rings (size 3 to 8) (size 9 to 14) (size 15 to 20)
#    0.000    2.455    0.000    4.636    0.000    6.545 
#    0.000    3.636    0.000    3.818    0.000    0.000 
#    0.000    0.000    0.000    0.000    0.000    0.000 
#
# Total GULP energy -245600.596647 kJ/mol
# GULP energy per Si atom -5581.831742 kJ/mol
# Density = 1.828189 g / cm^3
# Si number density = 18.323595 Si / 1000 Ang^3
#
#
#
# Elastic Constant Matrix: (Units=GPa)
#
#
# Indices 1 2 3 4 5 6 
#
# 1 33.1427 53.1539 55.9266 0.0000 0.0000 0.0000
# 2 53.1539 169.9362 144.4801 0.0000 0.0000 0.0000
# 3 55.9266 144.4801 185.3912 0.0000 0.0000 0.0000
# 4 0.0000 0.0000 0.0000 -13.9763 0.0000 0.0000
# 5 0.0000 0.0000 0.0000 0.0000 8.1314 0.0000
# 6 0.0000 0.0000 0.0000 0.0000 0.0000 30.8910
#
#
#
# Elastic Compliance Matrix: (Units=1/GPa)
#
#
# Indices 1 2 3 4 5 6 
#
# 1 0.068145 -0.011372 -0.011695 0.000000 0.000000 0.000000
# 2 -0.011372 0.019338 -0.011640 0.000000 0.000000 0.000000
# 3 -0.011695 -0.011640 0.017993 0.000000 0.000000 0.000000
# 4 0.000000 0.000000 0.000000 -0.071550 0.000000 0.000000
# 5 0.000000 0.000000 0.000000 0.000000 0.122981 0.000000
# 6 0.000000 0.000000 0.000000 0.000000 0.000000 0.032372
#
#
# Mechanical properties :
#
#
# Convention : Reuss Voigt Hill
#
# Bulk Modulus (GPa) = 27.72940 99.51015 63.61978
# Shear Modulus (GPa) = 18.46973 14.00318 16.23645
#
# Velocity S-wave (km/s) = 3.17831 2.76744 2.97996
# Velocity P-wave (km/s) = 5.35116 8.03969 6.82904
#
# Compressibility (1/GPa) = 0.03606280
#
# Stress axis : x y z
#
# Youngs Moduli (GPa) = 14.67459 51.71198 55.57671
#
# Poissons Ratio (x) = 0.58808 0.64995
# Poissons Ratio (y) = 0.16688 0.64691
# Poissons Ratio (z) = 0.17161 0.60192
#
# Static dielectric constant tensor:
#      x y z
#    x 1.622470 0.000000 0.000000 
#    y 0.000000 1.596430 0.000000 
#    z 0.000000 0.000000 1.627600 
# 
# From -- ./inp_files/76711.got.cif
#   From: 2010.05.17/outbox.cif.g08.bks.cpg/sg65_39_cif.got.tgz:76711.got - 2010.06.03 17:01:31.
