data_PCOD9485993
_publ_section_title
;
Structure prediction by ZEFSAII (Michael W. Deem and Ramdas Pophale) SiO2 
 PCOD9485993
Probable space group: C M M M
;
_chemical_formula_sum "Si O2"
_cell_formula_units_Z 112
_cell_length_a 16.105355
_cell_length_b 16.181273
_cell_length_c 23.735939
_cell_angle_alpha 90.000000
_cell_angle_beta 90.000000
_cell_angle_gamma 90.000000
_cell_volume 6185.707849
_symmetry_space_group_name_H-M "C M M M"
_symmetry_group_IT_number 65
_symmetry_cell_setting 'orthorhombic'
loop_
_space_group_symop_operation_xyz
x,y,z
-x,-y,z
x,-y,-z
-x,y,-z
-x,-y,-z
x,y,-z
-x,y,z
x,-y,z
1/2+x,1/2+y,z
1/2-x,1/2-y,z
1/2+x,1/2-y,-z
1/2-x,1/2+y,-z
1/2-x,1/2-y,-z
1/2+x,1/2+y,-z
1/2-x,1/2+y,z
1/2+x,1/2-y,z
loop_
_atom_site_type_symbol
_atom_site_label
_atom_site_fract_x
_atom_site_fract_y
_atom_site_fract_z
Si Si1 0.224259 0.590336 0.249337
Si Si2 0.811608 0.906956 0.434499
Si Si3 0.096456 0.310661 0.825026
Si Si4 0.907442 0.150581 0.760940
Si Si5 0.600476 0.905437 0.936755
Si Si6 0.908897 0.774716 0.363134
Si Si7 0.350829 0.091319 0.627275
O O1 0.197406 0.500000 0.229495
O O2 0.165127 0.653701 0.217325
O O3 0.322314 0.600130 0.239252
O O4 0.204804 0.595398 0.315747
O O5 0.832001 0.896473 0.500000
O O6 0.846370 0.832010 0.397592
O O7 0.712919 0.906815 0.424466
O O8 0.840207 0.000000 0.416471
O O9 0.095582 0.213187 0.813551
O O10 0.120841 0.342526 0.886868
O O11 0.000000 0.338646 0.813414
O O12 0.902338 0.204478 0.703207
O O13 0.000000 0.110856 0.760154
O O14 0.500000 0.906891 0.938826
O O15 0.627063 0.000000 0.923935
O O16 0.629600 0.884051 0.000000
O O17 0.900144 0.676748 0.372287
O O18 0.000000 0.801255 0.382008
O O19 0.392356 0.000000 0.628241
#
# Coordination Sequence:
#
# PCOD9485993 Si02
#       7
#    16  16  16  16  16  16  16
#     4  11  21  33  53  77 105 144 183 224 272 319
#     4  10  22  40  61  83 105 135 180 230 276 326
#     4  10  19  31  51  81 112 143 178 219 268 327
#     4  10  21  35  51  75 107 143 182 224 272 325
#     4   8  14  26  45  72 110 150 182 217 264 317
#     4  11  22  36  56  80 109 143 175 219 280 331
#     4  10  21  36  55  80 108 140 180 220 265 328
#
# _framework density 18.106255000000001
#
# number of rings (size 3 to 8) (size 9 to 14) (size 15 to 20)
#    0.000    2.000    2.857    1.714    0.000    3.143 
#    0.000    3.571    0.000    1.714    0.000    3.000 
#    0.000    0.000    0.000    8.571    0.000    0.286 
#
# Total GULP energy -311791.776971 kJ/mol
# GULP energy per Si atom -5567.710303 kJ/mol
# Density = 1.806504 g / cm^3
# Si number density = 18.106255 Si / 1000 Ang^3
#
#
#
# Elastic Constant Matrix: (Units=GPa)
#
#
# Indices 1 2 3 4 5 6 
#
# 1 52.6093 4.5092 1.4769 0.0000 0.0000 0.0000
# 2 4.5092 53.4446 21.5459 0.0000 0.0000 0.0000
# 3 1.4769 21.5459 69.1270 0.0000 0.0000 0.0000
# 4 0.0000 0.0000 0.0000 23.8819 0.0000 0.0000
# 5 0.0000 0.0000 0.0000 0.0000 13.4135 0.0000
# 6 0.0000 0.0000 0.0000 0.0000 0.0000 32.8115
#
#
#
# Elastic Compliance Matrix: (Units=1/GPa)
#
#
# Indices 1 2 3 4 5 6 
#
# 1 0.019147 -0.001659 0.000108 0.000000 0.000000 0.000000
# 2 -0.001659 0.021544 -0.006679 0.000000 0.000000 0.000000
# 3 0.000108 -0.006679 0.016546 0.000000 0.000000 0.000000
# 4 0.000000 0.000000 0.000000 0.041873 0.000000 0.000000
# 5 0.000000 0.000000 0.000000 0.000000 0.074552 0.000000
# 6 0.000000 0.000000 0.000000 0.000000 0.000000 0.030477
#
#
# Mechanical properties :
#
#
# Convention : Reuss Voigt Hill
#
# Bulk Modulus (GPa) = 24.52437 25.58276 25.05356
# Shear Modulus (GPa) = 21.35009 23.86464 22.60737
#
# Velocity S-wave (km/s) = 3.43761 3.63441 3.53738
# Velocity P-wave (km/s) = 5.41575 5.63665 5.52730
#
# Compressibility (1/GPa) = 0.04077577
#
# Stress axis : x y z
#
# Youngs Moduli (GPa) = 52.22688 46.41729 60.43865
#
# Poissons Ratio (x) = 0.07701 -0.00653
# Poissons Ratio (y) = 0.08665 0.40369
# Poissons Ratio (z) = -0.00564 0.31004
#
# Static dielectric constant tensor:
#      x y z
#    x 1.624440 0.000000 0.000000 
#    y 0.000000 1.640090 0.000000 
#    z 0.000000 0.000000 1.614820 
# 
# From -- ./inp_files/69973.got.cif
#   From: 2010.05.17/outbox.cif.g08.bks.cpg/sg65_35_cif.got.tgz:69973.got - 2010.06.03 17:01:31.
