data_PCOD9485617
_publ_section_title
;
Structure prediction by ZEFSAII (Michael W. Deem and Ramdas Pophale) SiO2 
 PCOD9485617
Probable space group: C M M M
;
_chemical_formula_sum "Si O2"
_cell_formula_units_Z 104
_cell_length_a 21.455959
_cell_length_b 18.582520
_cell_length_c 15.294378
_cell_angle_alpha 90.000000
_cell_angle_beta 90.000000
_cell_angle_gamma 90.000000
_cell_volume 6097.957021
_symmetry_space_group_name_H-M "C M M M"
_symmetry_group_IT_number 65
_symmetry_cell_setting 'orthorhombic'
loop_
_space_group_symop_operation_xyz
x,y,z
-x,-y,z
x,-y,-z
-x,y,-z
-x,-y,-z
x,y,-z
-x,y,z
x,-y,z
1/2+x,1/2+y,z
1/2-x,1/2-y,z
1/2+x,1/2-y,-z
1/2-x,1/2+y,-z
1/2-x,1/2-y,-z
1/2+x,1/2+y,-z
1/2-x,1/2+y,z
1/2+x,1/2-y,z
loop_
_atom_site_type_symbol
_atom_site_label
_atom_site_fract_x
_atom_site_fract_y
_atom_site_fract_z
Si Si1 0.822206 0.268267 0.095295
Si Si2 0.000000 0.413308 0.901233
Si Si3 0.180983 0.787780 0.716972
Si Si4 0.360982 0.081519 0.368963
Si Si5 0.718426 0.585737 0.402336
Si Si6 0.135219 0.417040 0.838575
Si Si7 0.429135 0.221068 0.399482
O O1 0.750000 0.250000 0.087988
O O2 0.841288 0.224688 0.182820
O O3 0.827609 0.353634 0.114727
O O4 0.852035 0.252913 0.000000
O O5 0.063349 0.394994 0.853120
O O6 0.000000 0.500000 0.906348
O O7 0.000000 0.384806 0.000000
O O8 0.250000 0.750000 0.709443
O O9 0.190685 0.866995 0.676158
O O10 0.126920 0.753075 0.657771
O O11 0.292682 0.100381 0.404549
O O12 0.352728 0.084238 0.264191
O O13 0.413942 0.136244 0.396867
O O14 0.375865 0.000000 0.393537
O O15 0.693729 0.603985 0.500000
O O16 0.710795 0.500000 0.388563
O O17 0.144467 0.500000 0.869803
O O18 0.424392 0.245729 0.500000
O O19 0.500000 0.235130 0.368766
#
# Coordination Sequence:
#
# PCOD9485617 Si02
#       7
#    16   8  16  16  16  16  16
#     4  10  20  34  51  75 104 135 174 222 270 312
#     4   9  18  30  46  70  95 127 180 229 255 291
#     4  11  20  36  58  78 102 142 181 218 268 320
#     4  10  19  31  48  73 107 143 180 217 256 310
#     4  10  20  34  56  83 105 130 176 229 264 305
#     4  10  19  32  50  71 100 140 179 216 261 308
#     4  11  23  35  49  75 110 146 182 221 267 318
#
# _framework density 17.054891999999999
#
# number of rings (size 3 to 8) (size 9 to 14) (size 15 to 20)
#    0.000    1.769    3.077    2.308    1.077    2.769 
#    0.000    0.769    0.000    1.846    0.000    2.154 
#    0.000    0.000    0.000    1.385    0.000    2.231 
#
# Total GULP energy -289638.221811 kJ/mol
# GULP energy per Si atom -5569.965804 kJ/mol
# Density = 1.701607 g / cm^3
# Si number density = 17.054892 Si / 1000 Ang^3
#
#
#
# Elastic Constant Matrix: (Units=GPa)
#
#
# Indices 1 2 3 4 5 6 
#
# 1 76.4628 31.9417 30.7408 0.0000 0.0000 0.0000
# 2 31.9417 73.8456 41.0592 0.0000 0.0000 0.0000
# 3 30.7408 41.0592 126.7547 0.0000 0.0000 0.0000
# 4 0.0000 0.0000 0.0000 31.5255 0.0000 0.0000
# 5 0.0000 0.0000 0.0000 0.0000 -15.2975 0.0000
# 6 0.0000 0.0000 0.0000 0.0000 0.0000 20.2297
#
#
#
# Elastic Compliance Matrix: (Units=1/GPa)
#
#
# Indices 1 2 3 4 5 6 
#
# 1 0.016387 -0.005950 -0.002047 0.000000 0.000000 0.000000
# 2 -0.005950 0.018677 -0.004607 0.000000 0.000000 0.000000
# 3 -0.002047 -0.004607 0.009878 0.000000 0.000000 0.000000
# 4 0.000000 0.000000 0.000000 0.031720 0.000000 0.000000
# 5 0.000000 0.000000 0.000000 0.000000 -0.065370 0.000000
# 6 0.000000 0.000000 0.000000 0.000000 0.000000 0.049432
#
#
# Mechanical properties :
#
#
# Convention : Reuss Voigt Hill
#
# Bulk Modulus (GPa) = 50.67353 53.83851 52.25602
# Shear Modulus (GPa) = 54.04840 18.84628 36.44734
#
# Velocity S-wave (km/s) = 5.63557 3.32782 4.62785
# Velocity P-wave (km/s) = 8.49251 6.81191 7.69821
#
# Compressibility (1/GPa) = 0.01973417
#
# Stress axis : x y z
#
# Youngs Moduli (GPa) = 61.02511 53.54190 101.23550
#
# Poissons Ratio (x) = 0.31857 0.20721
# Poissons Ratio (y) = 0.36310 0.46639
# Poissons Ratio (z) = 0.12490 0.24667
#
# Static dielectric constant tensor:
#      x y z
#    x 1.564250 0.000000 0.000000 
#    y 0.000000 1.598210 0.000000 
#    z 0.000000 0.000000 1.694380 
# 
# From -- ./inp_files/44440.got.cif
#   From: 2010.05.17/outbox.cif.g08.bks.cpg/sg65_23_cif.got.tgz:44440.got - 2010.06.03 17:01:31.
