data_PCOD9485523
_publ_section_title
;
Structure prediction by ZEFSAII (Michael W. Deem and Ramdas Pophale) SiO2 
 PCOD9485523
Probable space group: C M M M
;
_chemical_formula_sum "Si O2"
_cell_formula_units_Z 80
_cell_length_a 7.361879
_cell_length_b 17.472974
_cell_length_c 28.400297
_cell_angle_alpha 90.000000
_cell_angle_beta 90.000000
_cell_angle_gamma 90.000000
_cell_volume 3653.241542
_symmetry_space_group_name_H-M "C M M M"
_symmetry_group_IT_number 65
_symmetry_cell_setting 'orthorhombic'
loop_
_space_group_symop_operation_xyz
x,y,z
-x,-y,z
x,-y,-z
-x,y,-z
-x,-y,-z
x,y,-z
-x,y,z
x,-y,z
1/2+x,1/2+y,z
1/2-x,1/2-y,z
1/2+x,1/2-y,-z
1/2-x,1/2+y,-z
1/2-x,1/2-y,-z
1/2+x,1/2+y,-z
1/2-x,1/2+y,z
1/2+x,1/2-y,z
loop_
_atom_site_type_symbol
_atom_site_label
_atom_site_fract_x
_atom_site_fract_y
_atom_site_fract_z
Si Si1 0.221203 0.000000 0.445270
Si Si2 0.720695 0.412100 0.806894
Si Si3 0.779618 0.088826 0.000000
Si Si4 0.217672 0.159739 0.395171
Si Si5 0.716136 0.339028 0.903085
Si Si6 0.216002 0.837985 0.711776
O O1 0.279946 0.082568 0.422853
O O2 0.271937 0.000000 0.500000
O O3 0.000000 0.000000 0.442191
O O4 0.500000 0.403724 0.805201
O O5 0.763125 0.500000 0.814401
O O6 0.787172 0.367129 0.852657
O O7 0.787453 0.385914 0.755691
O O8 0.712133 0.123794 0.951036
O O9 0.000000 0.098778 0.000000
O O10 0.739747 0.000000 0.000000
O O11 0.250000 0.250000 0.410126
O O12 0.286622 0.151418 0.341303
O O13 0.000000 0.154683 0.395166
O O14 0.500000 0.355178 0.902210
O O15 0.750000 0.250000 0.906690
O O16 0.250000 0.750000 0.724144
O O17 0.000000 0.852130 0.708565
#
# Coordination Sequence:
#
# PCOD9485523 Si02
#       6
#     8  16   8  16  16  16
#     4   9  18  32  51  75 101 131 169 208 246 292
#     4   9  17  28  45  69  92 116 152 193 227 264
#     4   9  17  30  49  69  88 113 150 190 224 263
#     4   9  18  32  51  74 100 131 166 205 249 295
#     4  10  19  31  48  68  90 118 149 185 226 270
#     4   9  17  29  47  69  93 121 153 191 234 280
#
# _framework density 21.898361999999999
#
# number of rings (size 3 to 8) (size 9 to 14) (size 15 to 20)
#    0.000    2.800    0.000    1.500    1.400    2.800 
#    0.000    0.500    0.000    5.400    0.000    0.000 
#    0.000    0.000    0.000    0.000    0.000    0.000 
#
# Total GULP energy -223004.269343 kJ/mol
# GULP energy per Si atom -5575.106734 kJ/mol
# Density = 2.184852 g / cm^3
# Si number density = 21.898362 Si / 1000 Ang^3
#
#
#
# Elastic Constant Matrix: (Units=GPa)
#
#
# Indices 1 2 3 4 5 6 
#
# 1 82.5104 -3.5876 6.2540 0.0000 0.0000 0.0000
# 2 -3.5876 162.2358 111.9232 0.0000 0.0000 0.0000
# 3 6.2540 111.9232 142.2221 0.0000 0.0000 0.0000
# 4 0.0000 0.0000 0.0000 55.6486 0.0000 0.0000
# 5 0.0000 0.0000 0.0000 0.0000 -62.3223 0.0000
# 6 0.0000 0.0000 0.0000 0.0000 0.0000 20.3667
#
#
#
# Elastic Compliance Matrix: (Units=1/GPa)
#
#
# Indices 1 2 3 4 5 6 
#
# 1 0.012306 0.001412 -0.001652 0.000000 0.000000 0.000000
# 2 0.001412 0.013647 -0.010802 0.000000 0.000000 0.000000
# 3 -0.001652 -0.010802 0.015604 0.000000 0.000000 0.000000
# 4 0.000000 0.000000 0.000000 0.017970 0.000000 0.000000
# 5 0.000000 0.000000 0.000000 0.000000 -0.016046 0.000000
# 6 0.000000 0.000000 0.000000 0.000000 0.000000 0.049100
#
#
# Mechanical properties :
#
#
# Convention : Reuss Voigt Hill
#
# Bulk Modulus (GPa) = 51.35139 68.46083 59.90611
# Shear Modulus (GPa) = 41.26864 20.89718 31.08291
#
# Velocity S-wave (km/s) = 4.34585 3.09249 3.77160
# Velocity P-wave (km/s) = 6.97730 6.63944 6.81047
#
# Compressibility (1/GPa) = 0.01947367
#
# Stress axis : x y z
#
# Youngs Moduli (GPa) = 81.25900 73.27607 64.08411
#
# Poissons Ratio (x) = -0.10348 0.10590
# Poissons Ratio (y) = -0.11475 0.69222
# Poissons Ratio (z) = 0.13428 0.79151
#
# Static dielectric constant tensor:
#      x y z
#    x 1.880320 0.000000 0.000000 
#    y 0.000000 1.748530 0.000000 
#    z 0.000000 0.000000 1.804090 
# 
# From -- ./inp_files/74189.got.cif
#   From: 2010.05.17/outbox.cif.g08.bks.cpg/sg65_38_cif.got.tgz:74189.got - 2010.06.03 17:01:31.
