data_PCOD9485371
_publ_section_title
;
Structure prediction by ZEFSAII (Michael W. Deem and Ramdas Pophale) SiO2 
 PCOD9485371
Probable space group: C M M M
;
_chemical_formula_sum "Si O2"
_cell_formula_units_Z 96
_cell_length_a 8.379574
_cell_length_b 28.170075
_cell_length_c 25.174363
_cell_angle_alpha 90.000000
_cell_angle_beta 90.000000
_cell_angle_gamma 90.000000
_cell_volume 5942.489650
_symmetry_space_group_name_H-M "C M M M"
_symmetry_group_IT_number 65
_symmetry_cell_setting 'orthorhombic'
loop_
_space_group_symop_operation_xyz
x,y,z
-x,-y,z
x,-y,-z
-x,y,-z
-x,-y,-z
x,y,-z
-x,y,z
x,-y,z
1/2+x,1/2+y,z
1/2-x,1/2-y,z
1/2+x,1/2-y,-z
1/2-x,1/2+y,-z
1/2-x,1/2-y,-z
1/2+x,1/2+y,-z
1/2-x,1/2+y,z
1/2+x,1/2-y,z
loop_
_atom_site_type_symbol
_atom_site_label
_atom_site_fract_x
_atom_site_fract_y
_atom_site_fract_z
Si Si1 0.193033 0.553871 0.885863
Si Si2 0.690650 0.105466 0.777869
Si Si3 0.307770 0.646677 0.941185
Si Si4 0.690962 0.302627 0.834517
Si Si5 0.310412 0.442545 0.557137
Si Si6 0.307000 0.554970 0.672900
O O1 0.245576 0.500000 0.895877
O O2 0.242059 0.571281 0.826812
O O3 0.258365 0.593149 0.926131
O O4 0.000000 0.554963 0.888044
O O5 0.500000 0.105365 0.776946
O O6 0.750093 0.157755 0.793289
O O7 0.753126 0.086058 0.722280
O O8 0.500000 0.649061 0.941492
O O9 0.250190 0.679879 0.892875
O O10 0.249101 0.659549 0.000000
O O11 0.500000 0.303133 0.834998
O O12 0.750000 0.250000 0.823065
O O13 0.242591 0.426268 0.500000
O O14 0.500000 0.431688 0.556277
O O15 0.298361 0.500000 0.557850
O O16 0.247829 0.427335 0.614868
O O17 0.500000 0.554631 0.670978
O O18 0.255242 0.500000 0.680334
#
# Coordination Sequence:
#
# PCOD9485371 Si02
#       6
#    16  16  16  16  16  16
#     4   9  18  31  45  62  86 117 150 181 213 250
#     4  10  19  31  46  64  88 117 149 184 221 263
#     4   9  19  34  49  67  90 113 139 172 210 256
#     4  10  20  35  53  70  88 110 137 173 219 268
#     4   7  10  18  33  54  82 117 155 190 220 251
#     4   9  16  25  40  64  92 122 156 191 224 257
#
# _framework density 16.154845999999999
#
# number of rings (size 3 to 8) (size 9 to 14) (size 15 to 20)
#    0.000    3.000    0.000    3.000    0.000    3.667 
#    0.000    1.667    0.000    0.500    0.000    2.333 
#    0.000    0.667    0.000    1.833    0.000    2.667 
#
# Total GULP energy -267320.094407 kJ/mol
# GULP energy per Si atom -5569.168633 kJ/mol
# Density = 1.611808 g / cm^3
# Si number density = 16.154846 Si / 1000 Ang^3
#
#
#
# Elastic Constant Matrix: (Units=GPa)
#
#
# Indices 1 2 3 4 5 6 
#
# 1 10.3415 8.9338 16.8165 0.0000 0.0000 0.0000
# 2 8.9338 72.3443 37.8489 0.0000 0.0000 0.0000
# 3 16.8165 37.8489 137.3137 0.0000 0.0000 0.0000
# 4 0.0000 0.0000 0.0000 8.7988 0.0000 0.0000
# 5 0.0000 0.0000 0.0000 0.0000 8.6889 0.0000
# 6 0.0000 0.0000 0.0000 0.0000 0.0000 20.3453
#
#
#
# Elastic Compliance Matrix: (Units=1/GPa)
#
#
# Indices 1 2 3 4 5 6 
#
# 1 0.125257 -0.008697 -0.012943 0.000000 0.000000 0.000000
# 2 -0.008697 0.016756 -0.003553 0.000000 0.000000 0.000000
# 3 -0.012943 -0.003553 0.009847 0.000000 0.000000 0.000000
# 4 0.000000 0.000000 0.000000 0.113652 0.000000 0.000000
# 5 0.000000 0.000000 0.000000 0.000000 0.115090 0.000000
# 6 0.000000 0.000000 0.000000 0.000000 0.000000 0.049151
#
#
# Mechanical properties :
#
#
# Convention : Reuss Voigt Hill
#
# Bulk Modulus (GPa) = 9.85470 38.57753 24.21612
# Shear Modulus (GPa) = 9.72831 17.99329 13.86080
#
# Velocity S-wave (km/s) = 2.45662 3.34099 2.93234
# Velocity P-wave (km/s) = 3.76298 6.23014 5.14658
#
# Compressibility (1/GPa) = 0.10147439
#
# Stress axis : x y z
#
# Youngs Moduli (GPa) = 7.98357 59.68070 101.55212
#
# Poissons Ratio (x) = 0.51902 1.31438
# Poissons Ratio (y) = 0.06943 0.36086
# Poissons Ratio (z) = 0.10333 0.21208
#
# Static dielectric constant tensor:
#      x y z
#    x 1.554460 0.000000 0.000000 
#    y 0.000000 1.510800 0.000000 
#    z 0.000000 0.000000 1.582750 
# 
# From -- ./inp_files/67839.got.cif
#   From: 2010.05.17/outbox.cif.g08.bks.cpg/sg65_34_cif.got.tgz:67839.got - 2010.06.03 17:01:31.
