data_PCOD9485748
_publ_section_title
;
Structure prediction by ZEFSAII (Michael W. Deem and Ramdas Pophale) SiO2 
 PCOD9485748
Probable space group: C M M M
;
_chemical_formula_sum "Si O2"
_cell_formula_units_Z 96
_cell_length_a 9.021622
_cell_length_b 28.132989
_cell_length_c 23.928385
_cell_angle_alpha 90.000000
_cell_angle_beta 90.000000
_cell_angle_gamma 90.000000
_cell_volume 6073.148361
_symmetry_space_group_name_H-M "C M M M"
_symmetry_group_IT_number 65
_symmetry_cell_setting 'orthorhombic'
loop_
_space_group_symop_operation_xyz
x,y,z
-x,-y,z
x,-y,-z
-x,y,-z
-x,-y,-z
x,y,-z
-x,y,z
x,-y,z
1/2+x,1/2+y,z
1/2-x,1/2-y,z
1/2+x,1/2-y,-z
1/2-x,1/2+y,-z
1/2-x,1/2-y,-z
1/2+x,1/2+y,-z
1/2-x,1/2+y,z
1/2+x,1/2-y,z
loop_
_atom_site_type_symbol
_atom_site_label
_atom_site_fract_x
_atom_site_fract_y
_atom_site_fract_z
Si Si1 0.176586 0.887555 0.336282
Si Si2 0.177346 0.944986 0.776535
Si Si3 0.677809 0.055272 0.565137
Si Si4 0.676313 0.301069 0.934607
Si Si5 0.176281 0.360001 0.838733
Si Si6 0.676970 0.801514 0.725643
O O1 0.207798 0.924278 0.285348
O O2 0.239986 0.910096 0.392602
O O3 0.254334 0.838492 0.318557
O O4 0.000000 0.881037 0.339595
O O5 0.260300 0.910717 0.819599
O O6 0.000000 0.941373 0.785325
O O7 0.220575 0.000000 0.780506
O O8 0.712280 0.064618 0.500000
O O9 0.500000 0.059723 0.571897
O O10 0.716596 0.000000 0.576748
O O11 0.500000 0.297766 0.926192
O O12 0.750000 0.250000 0.922474
O O13 0.745704 0.339565 0.893449
O O14 0.704191 0.311821 0.000000
O O15 0.207689 0.324248 0.786818
O O16 0.000000 0.362128 0.846263
O O17 0.500000 0.798596 0.718905
O O18 0.750000 0.750000 0.721353
#
# Coordination Sequence:
#
# PCOD9485748 Si02
#       6
#    16  16  16  16  16  16
#     4  10  19  31  49  73  99 127 160 198 239 283
#     4   9  18  32  49  70  98 130 161 196 239 284
#     4   9  18  32  49  70  98 131 163 196 237 283
#     4  10  20  33  50  72  98 128 160 195 237 284
#     4  10  20  32  49  73  99 128 160 196 238 283
#     4  10  20  33  49  71  98 128 161 196 237 284
#
# _framework density 15.807287000000001
#
# number of rings (size 3 to 8) (size 9 to 14) (size 15 to 20)
#    0.000    2.333    0.000    3.500    0.000    6.667 
#    0.000    0.833    0.000    1.000    0.000    3.500 
#    0.000    0.000    0.000    0.000    0.000    0.000 
#
# Total GULP energy -267866.732572 kJ/mol
# GULP energy per Si atom -5580.556929 kJ/mol
# Density = 1.577131 g / cm^3
# Si number density = 15.807287 Si / 1000 Ang^3
#
#
#
# Elastic Constant Matrix: (Units=GPa)
#
#
# Indices 1 2 3 4 5 6 
#
# 1 61.7610 68.9835 53.6969 0.0000 0.0000 0.0000
# 2 68.9835 149.9335 69.4764 0.0000 0.0000 0.0000
# 3 53.6969 69.4764 78.5624 0.0000 0.0000 0.0000
# 4 0.0000 0.0000 0.0000 25.5823 0.0000 0.0000
# 5 0.0000 0.0000 0.0000 0.0000 28.5503 0.0000
# 6 0.0000 0.0000 0.0000 0.0000 0.0000 30.5189
#
#
#
# Elastic Compliance Matrix: (Units=1/GPa)
#
#
# Indices 1 2 3 4 5 6 
#
# 1 0.050409 -0.012246 -0.023625 0.000000 0.000000 0.000000
# 2 -0.012246 0.014275 -0.004254 0.000000 0.000000 0.000000
# 3 -0.023625 -0.004254 0.032639 0.000000 0.000000 0.000000
# 4 0.000000 0.000000 0.000000 0.039090 0.000000 0.000000
# 5 0.000000 0.000000 0.000000 0.000000 0.035026 0.000000
# 6 0.000000 0.000000 0.000000 0.000000 0.000000 0.032767
#
#
# Mechanical properties :
#
#
# Convention : Reuss Voigt Hill
#
# Bulk Modulus (GPa) = 58.57194 74.95227 66.76210
# Shear Modulus (GPa) = 17.23265 23.47031 20.35148
#
# Velocity S-wave (km/s) = 3.30536 3.85746 3.59203
# Velocity P-wave (km/s) = 7.19037 8.20727 7.71559
#
# Compressibility (1/GPa) = 0.01707302
#
# Stress axis : x y z
#
# Youngs Moduli (GPa) = 19.83754 70.05169 30.63842
#
# Poissons Ratio (x) = 0.85783 0.72384
# Poissons Ratio (y) = 0.24292 0.13035
# Poissons Ratio (z) = 0.46867 0.29803
#
# Static dielectric constant tensor:
#      x y z
#    x 1.523630 0.000000 0.000000 
#    y 0.000000 1.501740 0.000000 
#    z 0.000000 0.000000 1.509800 
# 
# From -- ./inp_files/60182.got.cif
#   From: 2010.05.17/outbox.cif.g08.bks.cpg/sg65_31_cif.got.tgz:60182.got - 2010.06.03 17:01:31.
