data_PCOD9485492
_publ_section_title
;
Structure prediction by ZEFSAII (Michael W. Deem and Ramdas Pophale) SiO2 
 PCOD9485492
Probable space group: C M M M
;
_chemical_formula_sum "Si O2"
_cell_formula_units_Z 88
_cell_length_a 29.312268
_cell_length_b 8.186921
_cell_length_c 21.933366
_cell_angle_alpha 90.000000
_cell_angle_beta 90.000000
_cell_angle_gamma 90.000000
_cell_volume 5263.508252
_symmetry_space_group_name_H-M "C M M M"
_symmetry_group_IT_number 65
_symmetry_cell_setting 'orthorhombic'
loop_
_space_group_symop_operation_xyz
x,y,z
-x,-y,z
x,-y,-z
-x,y,-z
-x,-y,-z
x,y,-z
-x,y,z
x,-y,z
1/2+x,1/2+y,z
1/2-x,1/2-y,z
1/2+x,1/2-y,-z
1/2-x,1/2+y,-z
1/2-x,1/2-y,-z
1/2+x,1/2+y,-z
1/2-x,1/2+y,z
1/2+x,1/2-y,z
loop_
_atom_site_type_symbol
_atom_site_label
_atom_site_fract_x
_atom_site_fract_y
_atom_site_fract_z
Si Si1 0.302662 0.303562 0.301486
Si Si2 0.696993 0.697104 0.565524
Si Si3 0.447312 0.317543 0.855167
Si Si4 0.139766 0.691091 0.812979
Si Si5 0.802660 0.803610 0.069664
Si Si6 0.554787 0.000000 0.065912
O O1 0.304898 0.500000 0.297798
O O2 0.250000 0.250000 0.298435
O O3 0.321263 0.249634 0.368343
O O4 0.328649 0.229287 0.244437
O O5 0.677419 0.754087 0.500000
O O6 0.695376 0.500000 0.565537
O O7 0.750000 0.750000 0.565422
O O8 0.500000 0.296687 0.834439
O O9 0.444178 0.500000 0.882014
O O10 0.406865 0.294737 0.807154
O O11 0.435956 0.170219 0.900876
O O12 0.128787 0.500000 0.813827
O O13 0.166239 0.735658 0.875745
O O14 0.750000 0.750000 0.079029
O O15 0.804960 0.000000 0.072274
O O16 0.815412 0.753017 0.000000
O O17 0.500000 0.000000 0.060771
O O18 0.576755 0.000000 0.000000
#
# Coordination Sequence:
#
# PCOD9485492 Si02
#       6
#    16  16  16  16  16   8
#     4  10  19  31  47  70 101 133 170 210 250 296
#     4   8  14  25  42  64  92 128 165 201 242 289
#     4  10  21  38  57  76 100 129 162 204 256 310
#     4  12  23  35  52  72  98 130 167 209 254 302
#     4  10  21  37  54  71  93 123 162 206 252 299
#     4   9  18  34  54  76 100 124 153 193 245 305
#
# _framework density 16.718886999999999
#
# number of rings (size 3 to 8) (size 9 to 14) (size 15 to 20)
#    0.000    2.091    0.909    3.273    0.000    2.909 
#    0.000    1.818    0.000    0.000    0.000    0.000 
#    0.000    0.727    0.000    8.364    0.000    2.364 
#
# Total GULP energy -245062.632328 kJ/mol
# GULP energy per Si atom -5569.605280 kJ/mol
# Density = 1.668083 g / cm^3
# Si number density = 16.718887 Si / 1000 Ang^3
#
#
#
# Elastic Constant Matrix: (Units=GPa)
#
#
# Indices 1 2 3 4 5 6 
#
# 1 68.2793 21.3560 50.1480 0.0000 0.0000 0.0000
# 2 21.3560 79.6854 30.5055 0.0000 0.0000 0.0000
# 3 50.1480 30.5055 125.6682 0.0000 0.0000 0.0000
# 4 0.0000 0.0000 0.0000 -4.7577 0.0000 0.0000
# 5 0.0000 0.0000 0.0000 0.0000 2.3729 0.0000
# 6 0.0000 0.0000 0.0000 0.0000 0.0000 24.9672
#
#
#
# Elastic Compliance Matrix: (Units=1/GPa)
#
#
# Indices 1 2 3 4 5 6 
#
# 1 0.021231 -0.002697 -0.007817 0.000000 0.000000 0.000000
# 2 -0.002697 0.014178 -0.002365 0.000000 0.000000 0.000000
# 3 -0.007817 -0.002365 0.011651 0.000000 0.000000 0.000000
# 4 0.000000 0.000000 0.000000 -0.210187 0.000000 0.000000
# 5 0.000000 0.000000 0.000000 0.000000 0.421418 0.000000
# 6 0.000000 0.000000 0.000000 0.000000 0.000000 0.040053
#
#
# Mechanical properties :
#
#
# Convention : Reuss Voigt Hill
#
# Bulk Modulus (GPa) = 46.94863 53.07245 50.01054
# Shear Modulus (GPa) = 15.09649 15.95805 15.52727
#
# Velocity S-wave (km/s) = 3.00819 3.09284 3.05081
# Velocity P-wave (km/s) = 6.34096 6.67586 6.51056
#
# Compressibility (1/GPa) = 0.02129987
#
# Stress axis : x y z
#
# Youngs Moduli (GPa) = 47.10110 70.53335 85.82811
#
# Poissons Ratio (x) = 0.19025 0.67096
# Poissons Ratio (y) = 0.12704 0.20301
# Poissons Ratio (z) = 0.36821 0.16683
#
# Static dielectric constant tensor:
#      x y z
#    x 1.551940 0.000000 0.000000 
#    y 0.000000 1.583530 0.000000 
#    z 0.000000 0.000000 1.615210 
# 
# From -- ./inp_files/66196.got.cif
#   From: 2010.05.17/outbox.cif.g08.bks.cpg/sg65_34_cif.got.tgz:66196.got - 2010.06.03 17:01:31.
