data_PCOD9485542
_publ_section_title
;
Structure prediction by ZEFSAII (Michael W. Deem and Ramdas Pophale) SiO2 
 PCOD9485542
Probable space group: C M M M
;
_chemical_formula_sum "Si O2"
_cell_formula_units_Z 88
_cell_length_a 14.380215
_cell_length_b 8.405178
_cell_length_c 31.304342
_cell_angle_alpha 90.000000
_cell_angle_beta 90.000000
_cell_angle_gamma 90.000000
_cell_volume 3783.701559
_symmetry_space_group_name_H-M "C M M M"
_symmetry_group_IT_number 65
_symmetry_cell_setting 'orthorhombic'
loop_
_space_group_symop_operation_xyz
x,y,z
-x,-y,z
x,-y,-z
-x,y,-z
-x,-y,-z
x,y,-z
-x,y,z
x,-y,z
1/2+x,1/2+y,z
1/2-x,1/2-y,z
1/2+x,1/2-y,-z
1/2-x,1/2+y,-z
1/2-x,1/2-y,-z
1/2+x,1/2+y,-z
1/2-x,1/2+y,z
1/2+x,1/2-y,z
loop_
_atom_site_type_symbol
_atom_site_label
_atom_site_fract_x
_atom_site_fract_y
_atom_site_fract_z
Si Si1 0.886208 0.500000 0.450413
Si Si2 0.144599 0.690245 0.861805
Si Si3 0.113566 0.825244 0.596080
Si Si4 0.608548 0.674545 0.230479
Si Si5 0.142860 0.692880 0.953909
Si Si6 0.113418 0.677031 0.317308
O O1 0.860459 0.500000 0.500000
O O2 0.855816 0.665643 0.428466
O O3 0.000000 0.500000 0.447597
O O4 0.138620 0.500000 0.860628
O O5 0.250000 0.750000 0.863132
O O6 0.109942 0.753938 0.816763
O O7 0.103689 0.744231 0.907767
O O8 0.139666 0.799632 0.645740
O O9 0.000000 0.825837 0.593803
O O10 0.144573 0.000000 0.580775
O O11 0.500000 0.656716 0.240694
O O12 0.653307 0.500000 0.229414
O O13 0.645002 0.777893 0.269744
O O14 0.140077 0.500000 0.953795
O O15 0.250000 0.750000 0.954097
O O16 0.103795 0.745480 0.000000
O O17 0.144981 0.500000 0.328630
O O18 0.000000 0.672445 0.317690
#
# Coordination Sequence:
#
# PCOD9485542 Si02
#       6
#     8  16  16  16  16  16
#     4   9  16  24  32  46  70 100 138 182 225 271
#     4  10  19  31  48  69  94 122 150 185 230 282
#     4   9  15  23  35  50  70  99 136 180 226 269
#     4  10  20  32  46  66  91 119 154 196 235 274
#     4   8  14  25  42  64  87 111 143 182 222 266
#     4   9  15  25  41  59  79 104 139 184 228 269
#
# _framework density 23.257649000000001
#
# number of rings (size 3 to 8) (size 9 to 14) (size 15 to 20)
#    0.000    2.818    0.909    1.636    0.000    4.364 
#    0.000    1.818    0.000    0.545    0.000    3.818 
#    0.000    0.000    0.000    0.000    0.000    0.909 
#
# Total GULP energy -245398.257033 kJ/mol
# GULP energy per Si atom -5577.233114 kJ/mol
# Density = 2.320471 g / cm^3
# Si number density = 23.257649 Si / 1000 Ang^3
#
#
#
# Elastic Constant Matrix: (Units=GPa)
#
#
# Indices 1 2 3 4 5 6 
#
# 1 65.0877 4.2074 -2.5785 0.0000 0.0000 0.0000
# 2 4.2074 140.1990 77.3367 0.0000 0.0000 0.0000
# 3 -2.5785 77.3367 166.9377 0.0000 0.0000 0.0000
# 4 0.0000 0.0000 0.0000 17.7248 0.0000 0.0000
# 5 0.0000 0.0000 0.0000 0.0000 9.7407 0.0000
# 6 0.0000 0.0000 0.0000 0.0000 0.0000 9.1719
#
#
#
# Elastic Compliance Matrix: (Units=1/GPa)
#
#
# Indices 1 2 3 4 5 6 
#
# 1 0.015440 -0.000799 0.000609 0.000000 0.000000 0.000000
# 2 -0.000799 0.009623 -0.004470 0.000000 0.000000 0.000000
# 3 0.000609 -0.004470 0.008071 0.000000 0.000000 0.000000
# 4 0.000000 0.000000 0.000000 0.056418 0.000000 0.000000
# 5 0.000000 0.000000 0.000000 0.000000 0.102662 0.000000
# 6 0.000000 0.000000 0.000000 0.000000 0.000000 0.109029
#
#
# Mechanical properties :
#
#
# Convention : Reuss Voigt Hill
#
# Bulk Modulus (GPa) = 41.99638 58.90618 50.45128
# Shear Modulus (GPa) = 15.69858 26.87807 21.28833
#
# Velocity S-wave (km/s) = 2.60087 3.40320 3.02872
# Velocity P-wave (km/s) = 5.20726 6.38944 5.82840
#
# Compressibility (1/GPa) = 0.02381157
#
# Stress axis : x y z
#
# Youngs Moduli (GPa) = 64.76828 103.92287 123.90765
#
# Poissons Ratio (x) = 0.08305 -0.07542
# Poissons Ratio (y) = 0.05176 0.55388
# Poissons Ratio (z) = -0.03942 0.46455
#
# Static dielectric constant tensor:
#      x y z
#    x 1.895330 0.000000 0.000000 
#    y 0.000000 1.847890 0.000000 
#    z 0.000000 0.000000 1.888470 
# 
# From -- ./inp_files/78105.got.cif
#   From: 2010.05.17/outbox.cif.g08.bks.cpg/sg65_40_cif.got.tgz:78105.got - 2010.06.03 17:01:31.
