data_PCOD9485578
_publ_section_title
;
Structure prediction by ZEFSAII (Michael W. Deem and Ramdas Pophale) SiO2 
 PCOD9485578
Probable space group: C M M M
;
_chemical_formula_sum "Si O2"
_cell_formula_units_Z 96
_cell_length_a 8.195311
_cell_length_b 27.859471
_cell_length_c 25.780868
_cell_angle_alpha 90.000000
_cell_angle_beta 90.000000
_cell_angle_gamma 90.000000
_cell_volume 5886.211190
_symmetry_space_group_name_H-M "C M M M"
_symmetry_group_IT_number 65
_symmetry_cell_setting 'orthorhombic'
loop_
_space_group_symop_operation_xyz
x,y,z
-x,-y,z
x,-y,-z
-x,y,-z
-x,-y,-z
x,y,-z
-x,y,z
x,-y,z
1/2+x,1/2+y,z
1/2-x,1/2-y,z
1/2+x,1/2-y,-z
1/2-x,1/2+y,-z
1/2-x,1/2-y,-z
1/2+x,1/2+y,-z
1/2-x,1/2+y,z
1/2+x,1/2-y,z
loop_
_atom_site_type_symbol
_atom_site_label
_atom_site_fract_x
_atom_site_fract_y
_atom_site_fract_z
Si Si1 0.815782 0.057751 0.126742
Si Si2 0.697790 0.446170 0.338979
Si Si3 0.000000 0.558284 0.059491
Si Si4 0.196204 0.850426 0.607260
Si Si5 0.195919 0.196319 0.285221
Si Si6 0.307732 0.804855 0.500000
Si Si7 0.691716 0.899323 0.767855
O O1 0.666109 0.072445 0.089370
O O2 0.788606 0.082887 0.182021
O O3 0.000000 0.067850 0.107344
O O4 0.803812 0.000000 0.133900
O O5 0.500000 0.445406 0.337376
O O6 0.750779 0.500000 0.352071
O O7 0.750948 0.404454 0.378563
O O8 0.759343 0.430744 0.282290
O O9 0.000000 0.500000 0.058767
O O10 0.000000 0.574906 0.000000
O O11 0.249521 0.817423 0.655940
O O12 0.250633 0.831079 0.552171
O O13 0.000000 0.850232 0.607468
O O14 0.250000 0.250000 0.272656
O O15 0.267998 0.155347 0.248070
O O16 0.000000 0.192738 0.283252
O O17 0.500000 0.804525 0.500000
O O18 0.250000 0.750000 0.500000
O O19 0.500000 0.904926 0.777939
#
# Coordination Sequence:
#
# PCOD9485578 Si02
#       7
#    16  16   8  16  16   8  16
#     4  10  19  31  48  71 102 139 176 216 257 297
#     4   9  18  33  52  73  97 127 163 200 242 294
#     4   9  18  32  48  70 102 138 178 217 255 303
#     4   9  19  35  53  72  95 122 157 197 243 293
#     4  10  20  34  51  72  98 129 160 198 250 307
#     4  12  24  36  53  72  91 117 154 201 245 296
#     4  11  20  30  47  72 102 136 169 206 246 296
#
# _framework density 16.309301999999999
#
# number of rings (size 3 to 8) (size 9 to 14) (size 15 to 20)
#    0.000    2.083    0.833    4.750    0.000    7.333 
#    0.000    2.083    0.000    2.500    0.000    0.000 
#    0.000    0.667    0.333    0.000    0.000    0.000 
#
# Total GULP energy -267790.636138 kJ/mol
# GULP energy per Si atom -5578.971586 kJ/mol
# Density = 1.627218 g / cm^3
# Si number density = 16.309302 Si / 1000 Ang^3
#
#
#
# Elastic Constant Matrix: (Units=GPa)
#
#
# Indices 1 2 3 4 5 6 
#
# 1 72.2775 26.8234 39.5343 0.0000 0.0000 0.0000
# 2 26.8234 92.1463 38.6841 0.0000 0.0000 0.0000
# 3 39.5343 38.6841 105.9656 0.0000 0.0000 0.0000
# 4 0.0000 0.0000 0.0000 14.4453 0.0000 0.0000
# 5 0.0000 0.0000 0.0000 0.0000 21.3307 0.0000
# 6 0.0000 0.0000 0.0000 0.0000 0.0000 21.4870
#
#
#
# Elastic Compliance Matrix: (Units=1/GPa)
#
#
# Indices 1 2 3 4 5 6 
#
# 1 0.017999 -0.002858 -0.005672 0.000000 0.000000 0.000000
# 2 -0.002858 0.013270 -0.003778 0.000000 0.000000 0.000000
# 3 -0.005672 -0.003778 0.012932 0.000000 0.000000 0.000000
# 4 0.000000 0.000000 0.000000 0.069227 0.000000 0.000000
# 5 0.000000 0.000000 0.000000 0.000000 0.046881 0.000000
# 6 0.000000 0.000000 0.000000 0.000000 0.000000 0.046540
#
#
# Mechanical properties :
#
#
# Convention : Reuss Voigt Hill
#
# Bulk Modulus (GPa) = 51.05885 53.38590 52.22237
# Shear Modulus (GPa) = 21.00900 22.47575 21.74238
#
# Velocity S-wave (km/s) = 3.59299 3.71630 3.65516
# Velocity P-wave (km/s) = 6.97046 7.15674 7.06421
#
# Compressibility (1/GPa) = 0.01958524
#
# Stress axis : x y z
#
# Youngs Moduli (GPa) = 55.55997 75.35533 77.32598
#
# Poissons Ratio (x) = 0.21539 0.43856
# Poissons Ratio (y) = 0.15881 0.29215
# Poissons Ratio (z) = 0.31511 0.28470
#
# Static dielectric constant tensor:
#      x y z
#    x 1.574890 0.000000 0.000000 
#    y 0.000000 1.536140 0.000000 
#    z 0.000000 0.000000 1.538380 
# 
# From -- ./inp_files/68079.got.cif
#   From: 2010.05.17/outbox.cif.g08.bks.cpg/sg65_35_cif.got.tgz:68079.got - 2010.06.03 17:01:31.
