data_PCOD9485458
_publ_section_title
;
Structure prediction by ZEFSAII (Michael W. Deem and Ramdas Pophale) SiO2 
 PCOD9485458
Probable space group: C M M M
;
_chemical_formula_sum "Si O2"
_cell_formula_units_Z 112
_cell_length_a 7.528544
_cell_length_b 28.974603
_cell_length_c 27.671530
_cell_angle_alpha 90.000000
_cell_angle_beta 90.000000
_cell_angle_gamma 90.000000
_cell_volume 6036.172740
_symmetry_space_group_name_H-M "C M M M"
_symmetry_group_IT_number 65
_symmetry_cell_setting 'orthorhombic'
loop_
_space_group_symop_operation_xyz
x,y,z
-x,-y,z
x,-y,-z
-x,y,-z
-x,-y,-z
x,y,-z
-x,y,z
x,-y,z
1/2+x,1/2+y,z
1/2-x,1/2-y,z
1/2+x,1/2-y,-z
1/2-x,1/2+y,-z
1/2-x,1/2-y,-z
1/2+x,1/2+y,-z
1/2-x,1/2+y,z
1/2+x,1/2-y,z
loop_
_atom_site_type_symbol
_atom_site_label
_atom_site_fract_x
_atom_site_fract_y
_atom_site_fract_z
Si Si1 0.285881 0.448410 0.794717
Si Si2 0.286409 0.804615 0.342748
Si Si3 0.286994 0.195078 0.448033
Si Si4 0.290774 0.852256 0.246380
Si Si5 0.286733 0.804127 0.149392
Si Si6 0.791794 0.351317 0.947512
Si Si7 0.785219 0.051859 0.906172
O O1 0.500000 0.448552 0.795365
O O2 0.226699 0.500000 0.781014
O O3 0.227575 0.406864 0.760902
O O4 0.228172 0.439978 0.850378
O O5 0.500000 0.809832 0.344234
O O6 0.250000 0.750000 0.337036
O O7 0.218910 0.820778 0.395588
O O8 0.216777 0.832106 0.296300
O O9 0.219049 0.177020 0.500000
O O10 0.500000 0.188747 0.448250
O O11 0.250000 0.250000 0.448102
O O12 0.500000 0.841041 0.247091
O O13 0.215904 0.828460 0.197888
O O14 0.500000 0.811287 0.149138
O O15 0.250000 0.750000 0.150798
O O16 0.215215 0.826528 0.099911
O O17 0.778502 0.406094 0.938423
O O18 0.000000 0.339102 0.949139
O O19 0.714204 0.339555 0.000000
O O20 0.000000 0.052419 0.906953
O O21 0.728945 0.000000 0.920100
#
# Coordination Sequence:
#
# PCOD9485458 Si02
#       7
#    16  16  16  16  16  16  16
#     4   9  18  32  50  71  92 114 142 175 214 264
#     4   9  17  27  40  62  91 121 155 189 219 256
#     4   8  13  22  36  54  80 116 153 186 219 253
#     4  10  19  31  47  68  92 117 146 180 219 262
#     4  10  21  35  49  66  87 114 147 181 217 256
#     4  10  21  36  51  68  91 116 145 181 217 258
#     4   9  18  33  52  73  94 114 139 173 214 263
#
# _framework density 18.554805000000002
#
# number of rings (size 3 to 8) (size 9 to 14) (size 15 to 20)
#    0.000    2.714    1.429    1.286    0.000    3.143 
#    0.000    2.857    0.000    0.000    0.000    0.000 
#    0.000    0.571    0.000    7.143    0.000    1.143 
#
# Total GULP energy -312195.631784 kJ/mol
# GULP energy per Si atom -5574.921996 kJ/mol
# Density = 1.851257 g / cm^3
# Si number density = 18.554805 Si / 1000 Ang^3
#
#
#
# Elastic Constant Matrix: (Units=GPa)
#
#
# Indices 1 2 3 4 5 6 
#
# 1 47.6066 -9.9295 12.5725 0.0000 0.0000 0.0000
# 2 -9.9295 76.8250 71.8780 0.0000 0.0000 0.0000
# 3 12.5725 71.8780 197.9235 0.0000 0.0000 0.0000
# 4 0.0000 0.0000 0.0000 13.4856 0.0000 0.0000
# 5 0.0000 0.0000 0.0000 0.0000 -7.4655 0.0000
# 6 0.0000 0.0000 0.0000 0.0000 0.0000 20.1041
#
#
#
# Elastic Compliance Matrix: (Units=1/GPa)
#
#
# Indices 1 2 3 4 5 6 
#
# 1 0.023438 0.006698 -0.003921 0.000000 0.000000 0.000000
# 2 0.006698 0.021630 -0.008281 0.000000 0.000000 0.000000
# 3 -0.003921 -0.008281 0.008309 0.000000 0.000000 0.000000
# 4 0.000000 0.000000 0.000000 0.074153 0.000000 0.000000
# 5 0.000000 0.000000 0.000000 0.000000 -0.133949 0.000000
# 6 0.000000 0.000000 0.000000 0.000000 0.000000 0.049741
#
#
# Mechanical properties :
#
#
# Convention : Reuss Voigt Hill
#
# Bulk Modulus (GPa) = 23.60206 52.37744 37.98975
# Shear Modulus (GPa) = 73.04386 21.74712 47.39549
#
# Velocity S-wave (km/s) = 6.28108 3.42723 5.05954
# Velocity P-wave (km/s) = 8.08396 6.62956 7.39261
#
# Compressibility (1/GPa) = 0.04236917
#
# Stress axis : x y z
#
# Youngs Moduli (GPa) = 42.66545 46.23286 120.35566
#
# Poissons Ratio (x) = -0.30968 0.47196
# Poissons Ratio (y) = -0.28578 0.99661
# Poissons Ratio (z) = 0.16731 0.38283
#
# Static dielectric constant tensor:
#      x y z
#    x 1.684300 0.000000 0.000000 
#    y 0.000000 1.591290 0.000000 
#    z 0.000000 0.000000 1.700900 
# 
# From -- ./inp_files/69151.got.cif
#   From: 2010.05.17/outbox.cif.g08.bks.cpg/sg65_35_cif.got.tgz:69151.got - 2010.06.03 17:01:31.
