data_PCOD9485082
_publ_section_title
;
Structure prediction by ZEFSAII (Michael W. Deem and Ramdas Pophale) SiO2 
 PCOD9485082
Probable space group: C M M M
;
_chemical_formula_sum "Si O2"
_cell_formula_units_Z 120
_cell_length_a 7.998203
_cell_length_b 28.728203
_cell_length_c 29.426598
_cell_angle_alpha 90.000000
_cell_angle_beta 90.000000
_cell_angle_gamma 90.000000
_cell_volume 6761.467112
_symmetry_space_group_name_H-M "C M M M"
_symmetry_group_IT_number 65
_symmetry_cell_setting 'orthorhombic'
loop_
_space_group_symop_operation_xyz
x,y,z
-x,-y,z
x,-y,-z
-x,y,-z
-x,-y,-z
x,y,-z
-x,y,z
x,-y,z
1/2+x,1/2+y,z
1/2-x,1/2-y,z
1/2+x,1/2-y,-z
1/2-x,1/2+y,-z
1/2-x,1/2-y,-z
1/2+x,1/2+y,-z
1/2-x,1/2+y,z
1/2+x,1/2-y,z
loop_
_atom_site_type_symbol
_atom_site_label
_atom_site_fract_x
_atom_site_fract_y
_atom_site_fract_z
Si Si1 0.201867 0.052822 0.139482
Si Si2 0.701427 0.803199 0.721528
Si Si3 0.298937 0.196766 0.381787
Si Si4 0.201575 0.357275 0.191136
Si Si5 0.799933 0.893294 0.050293
Si Si6 0.199805 0.303307 0.898754
Si Si7 0.000000 0.447448 0.444850
Si Si8 0.188353 0.115797 0.446031
O O1 0.249399 0.090458 0.177628
O O2 0.264208 0.074393 0.091447
O O3 0.000000 0.051699 0.137511
O O4 0.261153 0.000000 0.146520
O O5 0.500000 0.805251 0.721002
O O6 0.750000 0.750000 0.732230
O O7 0.756984 0.813830 0.670086
O O8 0.763516 0.837615 0.760804
O O9 0.500000 0.191971 0.384523
O O10 0.250000 0.250000 0.390819
O O11 0.215557 0.162361 0.417426
O O12 0.259974 0.323519 0.150038
O O13 0.000000 0.355193 0.191727
O O14 0.765635 0.839945 0.064264
O O15 0.000000 0.899638 0.049039
O O16 0.733118 0.903581 0.000000
O O17 0.250000 0.250000 0.905414
O O18 0.000000 0.305941 0.899199
O O19 0.833142 0.419861 0.431622
O O20 0.000000 0.500000 0.427731
O O21 0.000000 0.449070 0.500000
O O22 0.208988 0.124921 0.500000
O O23 0.000000 0.097824 0.439243
#
# Coordination Sequence:
#
# PCOD9485082 Si02
#       8
#    16  16  16  16  16  16   8  16
#     4   9  18  32  50  72  94 117 151 195 241 288
#     4   9  18  31  49  74 102 131 166 204 246 296
#     4  10  19  32  50  74 107 144 181 220 263 318
#     4   9  18  32  49  71  96 123 157 195 240 291
#     4   9  18  32  48  66  90 120 153 189 232 283
#     4  10  19  30  46  67  93 123 154 191 231 279
#     4   9  18  34  56  80 106 138 180 232 283 325
#     4  10  20  34  53  79 111 146 186 230 277 329
#
# _framework density 17.747629
#
# number of rings (size 3 to 8) (size 9 to 14) (size 15 to 20)
#    0.000    2.600    0.667    1.200    0.000    3.200 
#    0.000    2.667    0.000    0.800    0.000    3.733 
#    0.000    0.000    0.000    0.000    0.000    0.000 
#
# Total GULP energy -334546.107290 kJ/mol
# GULP energy per Si atom -5575.768455 kJ/mol
# Density = 1.770723 g / cm^3
# Si number density = 17.747629 Si / 1000 Ang^3
#
#
#
# Elastic Constant Matrix: (Units=GPa)
#
#
# Indices 1 2 3 4 5 6 
#
# 1 47.1114 21.7729 31.7022 0.0000 0.0000 0.0000
# 2 21.7729 117.3194 63.6795 0.0000 0.0000 0.0000
# 3 31.7022 63.6795 77.4188 0.0000 0.0000 0.0000
# 4 0.0000 0.0000 0.0000 15.5917 0.0000 0.0000
# 5 0.0000 0.0000 0.0000 0.0000 11.6452 0.0000
# 6 0.0000 0.0000 0.0000 0.0000 0.0000 20.9463
#
#
#
# Elastic Compliance Matrix: (Units=1/GPa)
#
#
# Indices 1 2 3 4 5 6 
#
# 1 0.029547 0.001958 -0.013710 0.000000 0.000000 0.000000
# 2 0.001958 0.015528 -0.013574 0.000000 0.000000 0.000000
# 3 -0.013710 -0.013574 0.029696 0.000000 0.000000 0.000000
# 4 0.000000 0.000000 0.000000 0.064137 0.000000 0.000000
# 5 0.000000 0.000000 0.000000 0.000000 0.085872 0.000000
# 6 0.000000 0.000000 0.000000 0.000000 0.000000 0.047741
#
#
# Mechanical properties :
#
#
# Convention : Reuss Voigt Hill
#
# Bulk Modulus (GPa) = 41.46064 52.90650 47.18357
# Shear Modulus (GPa) = 15.09605 17.94965 16.52285
#
# Velocity S-wave (km/s) = 2.91966 3.18367 3.05452
# Velocity P-wave (km/s) = 5.89727 6.58708 6.25170
#
# Compressibility (1/GPa) = 0.02411926
#
# Stress axis : x y z
#
# Youngs Moduli (GPa) = 33.84451 64.39843 33.67464
#
# Poissons Ratio (x) = -0.12608 0.46166
# Poissons Ratio (y) = -0.06626 0.45711
# Poissons Ratio (z) = 0.46399 0.87416
#
# Static dielectric constant tensor:
#      x y z
#    x 1.635480 0.000000 0.000000 
#    y 0.000000 1.577810 0.000000 
#    z 0.000000 0.000000 1.612990 
# 
# From -- ./inp_files/73905.got.cif
#   From: 2010.05.17/outbox.cif.g08.bks.cpg/sg65_37_cif.got.tgz:73905.got - 2010.06.03 17:01:31.
