data_PCOD9485850
_publ_section_title
;
Structure prediction by ZEFSAII (Michael W. Deem and Ramdas Pophale) SiO2 
 PCOD9485850
Probable space group: C M M M
;
_chemical_formula_sum "Si O2"
_cell_formula_units_Z 104
_cell_length_a 19.192353
_cell_length_b 8.844386
_cell_length_c 34.875668
_cell_angle_alpha 90.000000
_cell_angle_beta 90.000000
_cell_angle_gamma 90.000000
_cell_volume 5919.955553
_symmetry_space_group_name_H-M "C M M M"
_symmetry_group_IT_number 65
_symmetry_cell_setting 'orthorhombic'
loop_
_space_group_symop_operation_xyz
x,y,z
-x,-y,z
x,-y,-z
-x,y,-z
-x,-y,-z
x,y,-z
-x,y,z
x,-y,z
1/2+x,1/2+y,z
1/2-x,1/2-y,z
1/2+x,1/2-y,-z
1/2-x,1/2+y,-z
1/2-x,1/2-y,-z
1/2+x,1/2+y,-z
1/2-x,1/2+y,z
1/2+x,1/2-y,z
loop_
_atom_site_type_symbol
_atom_site_label
_atom_site_fract_x
_atom_site_fract_y
_atom_site_fract_z
Si Si1 0.080928 0.817151 0.193796
Si Si2 0.173885 0.181887 0.734372
Si Si3 0.582976 0.179112 0.580095
Si Si4 0.915241 0.174737 0.500000
Si Si5 0.327751 0.182125 0.958862
Si Si6 0.326373 0.681169 0.352889
Si Si7 0.828003 0.681985 0.125640
O O1 0.118949 0.771721 0.233343
O O2 0.123099 0.746423 0.158624
O O3 0.000000 0.772955 0.193507
O O4 0.084458 0.000000 0.191131
O O5 0.250000 0.250000 0.742450
O O6 0.153394 0.223983 0.690854
O O7 0.179709 0.000000 0.735507
O O8 0.500000 0.206633 0.583012
O O9 0.607361 0.244971 0.539176
O O10 0.621663 0.256386 0.615359
O O11 0.594673 0.000000 0.580807
O O12 0.000000 0.180539 0.500000
O O13 0.894178 0.000000 0.500000
O O14 0.250000 0.250000 0.959136
O O15 0.356623 0.224106 0.917021
O O16 0.323246 0.000000 0.958918
O O17 0.360832 0.227418 0.000000
O O18 0.323204 0.500000 0.355089
O O19 0.250000 0.750000 0.359595
O O20 0.823680 0.500000 0.128274
O O21 0.750000 0.750000 0.129370
#
# Coordination Sequence:
#
# PCOD9485850 Si02
#       7
#    16  16  16   8  16  16  16
#     4  10  21  36  52  72 101 134 167 207 254 299
#     4   9  19  35  55  76  98 129 167 206 249 300
#     4  10  20  34  53  78 108 140 174 213 256 300
#     4   9  17  31  52  77 104 137 178 217 253 297
#     4   8  14  25  42  66  95 124 156 198 245 290
#     4  10  20  35  55  78 105 135 168 207 252 303
#     4  10  19  31  50  75 101 130 166 205 247 299
#
# _framework density 17.567699000000001
#
# number of rings (size 3 to 8) (size 9 to 14) (size 15 to 20)
#    0.000    2.538    0.000    2.077    0.000    5.846 
#    0.000    1.923    0.000    0.462    0.000    3.231 
#    0.000    0.000    0.000    0.000    0.000    0.000 
#
# Total GULP energy -289831.083389 kJ/mol
# GULP energy per Si atom -5573.674681 kJ/mol
# Density = 1.752771 g / cm^3
# Si number density = 17.567699 Si / 1000 Ang^3
#
#
#
# Elastic Constant Matrix: (Units=GPa)
#
#
# Indices 1 2 3 4 5 6 
#
# 1 72.2557 42.3034 91.4524 0.0000 0.0000 0.0000
# 2 42.3034 41.6679 65.5343 0.0000 0.0000 0.0000
# 3 91.4524 65.5343 190.9152 0.0000 0.0000 0.0000
# 4 0.0000 0.0000 0.0000 18.3223 0.0000 0.0000
# 5 0.0000 0.0000 0.0000 0.0000 47.3088 0.0000
# 6 0.0000 0.0000 0.0000 0.0000 0.0000 23.4047
#
#
#
# Elastic Compliance Matrix: (Units=1/GPa)
#
#
# Indices 1 2 3 4 5 6 
#
# 1 0.044967 -0.025591 -0.012756 0.000000 0.000000 0.000000
# 2 -0.025591 0.066723 -0.010645 0.000000 0.000000 0.000000
# 3 -0.012756 -0.010645 0.015002 0.000000 0.000000 0.000000
# 4 0.000000 0.000000 0.000000 0.054578 0.000000 0.000000
# 5 0.000000 0.000000 0.000000 0.000000 0.021138 0.000000
# 6 0.000000 0.000000 0.000000 0.000000 0.000000 0.042726
#
#
# Mechanical properties :
#
#
# Convention : Reuss Voigt Hill
#
# Bulk Modulus (GPa) = 34.83259 78.15765 56.49512
# Shear Modulus (GPa) = 14.17689 24.84373 19.51031
#
# Velocity S-wave (km/s) = 2.84383 3.76463 3.33615
# Velocity P-wave (km/s) = 5.53659 7.96759 6.86063
#
# Compressibility (1/GPa) = 0.02870875
#
# Stress axis : x y z
#
# Youngs Moduli (GPa) = 22.23855 14.98744 66.65709
#
# Poissons Ratio (x) = 0.38354 0.85026
# Poissons Ratio (y) = 0.56911 0.70955
# Poissons Ratio (z) = 0.28367 0.15954
#
# Static dielectric constant tensor:
#      x y z
#    x 1.563780 0.000000 0.000000 
#    y 0.000000 1.597030 0.000000 
#    z 0.000000 0.000000 1.629450 
# 
# From -- ./inp_files/78246.got.cif
#   From: 2010.05.17/outbox.cif.g08.bks.cpg/sg65_40_cif.got.tgz:78246.got - 2010.06.03 17:01:31.
