data_PCOD9485238
_publ_section_title
;
Structure prediction by ZEFSAII (Michael W. Deem and Ramdas Pophale) SiO2 
 PCOD9485238
Probable space group: C M M M
;
_chemical_formula_sum "Si O2"
_cell_formula_units_Z 88
_cell_length_a 15.158411
_cell_length_b 14.607443
_cell_length_c 17.989904
_cell_angle_alpha 90.000000
_cell_angle_beta 90.000000
_cell_angle_gamma 90.000000
_cell_volume 3983.425731
_symmetry_space_group_name_H-M "C M M M"
_symmetry_group_IT_number 65
_symmetry_cell_setting 'orthorhombic'
loop_
_space_group_symop_operation_xyz
x,y,z
-x,-y,z
x,-y,-z
-x,y,-z
-x,-y,-z
x,y,-z
-x,y,z
x,-y,z
1/2+x,1/2+y,z
1/2-x,1/2-y,z
1/2+x,1/2-y,-z
1/2-x,1/2+y,-z
1/2-x,1/2-y,-z
1/2+x,1/2+y,-z
1/2-x,1/2+y,z
1/2+x,1/2-y,z
loop_
_atom_site_type_symbol
_atom_site_label
_atom_site_fract_x
_atom_site_fract_y
_atom_site_fract_z
Si Si1 0.596277 0.396559 0.851142
Si Si2 0.236724 0.638751 0.414805
Si Si3 0.595256 0.630541 0.322307
Si Si4 0.398940 0.847767 0.706854
Si Si5 0.400326 0.111591 0.000000
Si Si6 0.709286 0.888557 0.856226
O O1 0.500000 0.353726 0.868991
O O2 0.595350 0.500000 0.882763
O O3 0.600264 0.404723 0.761688
O O4 0.690835 0.352857 0.868538
O O5 0.228837 0.610292 0.500000
O O6 0.250000 0.750000 0.414869
O O7 0.323701 0.603514 0.373198
O O8 0.152968 0.613264 0.364229
O O9 0.500000 0.606064 0.354596
O O10 0.596959 0.739828 0.310039
O O11 0.500000 0.880483 0.717648
O O12 0.338124 0.861245 0.779459
O O13 0.350173 0.139002 0.074406
O O14 0.500000 0.145008 0.000000
O O15 0.401987 0.000000 0.000000
O O16 0.715207 0.000000 0.854331
#
# Coordination Sequence:
#
# PCOD9485238 Si02
#       6
#    16  16  16  16   8  16
#     4   9  17  30  50  74  97 123 158 199 241 288
#     4   9  17  29  45  69  99 128 161 202 244 286
#     4   9  17  30  49  72  96 125 161 204 247 288
#     4  10  19  30  48  72  96 129 166 201 243 291
#     4   9  18  32  49  72 101 129 161 203 240 277
#     4  10  19  32  52  75  99 129 163 199 242 290
#
# _framework density 22.091538
#
# number of rings (size 3 to 8) (size 9 to 14) (size 15 to 20)
#    0.000    2.636    1.818    0.545    0.000    1.818 
#    0.000    4.091    0.000    7.091    0.000    7.636 
#    0.000    0.000    0.000    0.000    0.000    0.000 
#
# Total GULP energy -245579.758176 kJ/mol
# GULP energy per Si atom -5581.358140 kJ/mol
# Density = 2.204126 g / cm^3
# Si number density = 22.091538 Si / 1000 Ang^3
#
#
#
# Elastic Constant Matrix: (Units=GPa)
#
#
# Indices 1 2 3 4 5 6 
#
# 1 242.8413 17.8727 76.1749 0.0000 0.0000 0.0000
# 2 17.8727 62.1998 5.7489 0.0000 0.0000 0.0000
# 3 76.1749 5.7489 101.4687 0.0000 0.0000 0.0000
# 4 0.0000 0.0000 0.0000 11.6861 0.0000 0.0000
# 5 0.0000 0.0000 0.0000 0.0000 20.5425 0.0000
# 6 0.0000 0.0000 0.0000 0.0000 0.0000 0.5990
#
#
#
# Elastic Compliance Matrix: (Units=1/GPa)
#
#
# Indices 1 2 3 4 5 6 
#
# 1 0.005474 -0.001199 -0.004041 0.000000 0.000000 0.000000
# 2 -0.001199 0.016425 -0.000030 0.000000 0.000000 0.000000
# 3 -0.004041 -0.000030 0.012891 0.000000 0.000000 0.000000
# 4 0.000000 0.000000 0.000000 0.085572 0.000000 0.000000
# 5 0.000000 0.000000 0.000000 0.000000 0.048680 0.000000
# 6 0.000000 0.000000 0.000000 0.000000 0.000000 1.669483
#
#
# Mechanical properties :
#
#
# Convention : Reuss Voigt Hill
#
# Bulk Modulus (GPa) = 41.24129 67.34478 54.29303
# Shear Modulus (GPa) = 2.69230 27.01305 14.85267
#
# Velocity S-wave (km/s) = 1.10515 3.50062 2.59573
# Velocity P-wave (km/s) = 4.50970 6.84761 5.79772
#
# Compressibility (1/GPa) = 0.02424755
#
# Stress axis : x y z
#
# Youngs Moduli (GPa) = 182.68460 60.88414 77.57364
#
# Poissons Ratio (x) = 0.07302 0.31351
# Poissons Ratio (y) = 0.21910 0.00234
# Poissons Ratio (z) = 0.73831 0.00184
#
# Static dielectric constant tensor:
#      x y z
#    x 1.835640 0.000000 0.000000 
#    y 0.000000 1.939200 0.000000 
#    z 0.000000 0.000000 1.732960 
# 
# From -- ./inp_files/52974.got.cif
#   From: 2010.05.17/outbox.cif.g08.bks.cpg/sg65_27_cif.got.tgz:52974.got - 2010.06.03 17:01:31.
