data_PCOD9485929
_publ_section_title
;
Structure prediction by ZEFSAII (Michael W. Deem and Ramdas Pophale) SiO2 
 PCOD9485929
Probable space group: C M M M
;
_chemical_formula_sum "Si O2"
_cell_formula_units_Z 88
_cell_length_a 19.260676
_cell_length_b 7.746319
_cell_length_c 29.039213
_cell_angle_alpha 90.000000
_cell_angle_beta 90.000000
_cell_angle_gamma 90.000000
_cell_volume 4332.631427
_symmetry_space_group_name_H-M "C M M M"
_symmetry_group_IT_number 65
_symmetry_cell_setting 'orthorhombic'
loop_
_space_group_symop_operation_xyz
x,y,z
-x,-y,z
x,-y,-z
-x,y,-z
-x,-y,-z
x,y,-z
-x,y,z
x,-y,z
1/2+x,1/2+y,z
1/2-x,1/2-y,z
1/2+x,1/2-y,-z
1/2-x,1/2+y,-z
1/2-x,1/2-y,-z
1/2+x,1/2+y,-z
1/2-x,1/2+y,z
1/2+x,1/2-y,z
loop_
_atom_site_type_symbol
_atom_site_label
_atom_site_fract_x
_atom_site_fract_y
_atom_site_fract_z
Si Si1 0.830250 0.792005 0.948363
Si Si2 0.577858 0.294109 0.135778
Si Si3 0.170664 0.294549 0.222119
Si Si4 0.668533 0.207550 0.500000
Si Si5 0.919780 0.711569 0.588256
Si Si6 0.670340 0.792259 0.674088
O O1 0.750000 0.750000 0.938893
O O2 0.878709 0.724290 0.907616
O O3 0.836073 0.000000 0.949297
O O4 0.847220 0.728381 0.000000
O O5 0.500000 0.223511 0.137947
O O6 0.573177 0.500000 0.129068
O O7 0.618852 0.267567 0.183093
O O8 0.164976 0.500000 0.224024
O O9 0.250000 0.250000 0.209841
O O10 0.157619 0.226093 0.273959
O O11 0.750000 0.250000 0.500000
O O12 0.627591 0.268730 0.454615
O O13 0.663732 0.000000 0.500000
O O14 0.919763 0.500000 0.588174
O O15 0.883222 0.769368 0.635540
O O16 0.000000 0.765473 0.584289
O O17 0.750000 0.750000 0.661564
O O18 0.664944 0.000000 0.675461
#
# Coordination Sequence:
#
# PCOD9485929 Si02
#       6
#    16  16  16   8  16  16
#     4   9  18  33  53  75  98 127 164 203 243 291
#     4  10  21  35  51  74 104 135 166 204 250 296
#     4  10  20  34  53  75  99 131 170 209 249 294
#     4  10  19  31  51  75  97 126 162 202 244 286
#     4   9  17  30  49  73  99 127 162 201 240 286
#     4   9  18  32  51  73  97 127 162 202 244 288
#
# _framework density 20.310981000000002
#
# number of rings (size 3 to 8) (size 9 to 14) (size 15 to 20)
#    0.000    2.545    0.000    1.909    0.000    5.455 
#    0.000    3.636    0.000    2.727    0.000    3.818 
#    0.000    0.000    0.000    0.000    0.000    0.000 
#
# Total GULP energy -245616.747154 kJ/mol
# GULP energy per Si atom -5582.198799 kJ/mol
# Density = 2.026475 g / cm^3
# Si number density = 20.310981 Si / 1000 Ang^3
#
#
#
# Elastic Constant Matrix: (Units=GPa)
#
#
# Indices 1 2 3 4 5 6 
#
# 1 193.2592 1.3549 147.7576 0.0000 0.0000 0.0000
# 2 1.3549 30.0623 5.8057 0.0000 0.0000 0.0000
# 3 147.7576 5.8057 167.6314 0.0000 0.0000 0.0000
# 4 0.0000 0.0000 0.0000 18.4226 0.0000 0.0000
# 5 0.0000 0.0000 0.0000 0.0000 -9.1537 0.0000
# 6 0.0000 0.0000 0.0000 0.0000 0.0000 19.9731
#
#
#
# Elastic Compliance Matrix: (Units=1/GPa)
#
#
# Indices 1 2 3 4 5 6 
#
# 1 0.015988 0.002015 -0.014163 0.000000 0.000000 0.000000
# 2 0.002015 0.033742 -0.002944 0.000000 0.000000 0.000000
# 3 -0.014163 -0.002944 0.018551 0.000000 0.000000 0.000000
# 4 0.000000 0.000000 0.000000 0.054281 0.000000 0.000000
# 5 0.000000 0.000000 0.000000 0.000000 -0.109246 0.000000
# 6 0.000000 0.000000 0.000000 0.000000 0.000000 0.050067
#
#
# Mechanical properties :
#
#
# Convention : Reuss Voigt Hill
#
# Bulk Modulus (GPa) = 26.24904 77.86548 52.05726
# Shear Modulus (GPa) = 47.05076 21.58405 34.31741
#
# Velocity S-wave (km/s) = 4.81824 3.26341 4.11493
# Velocity P-wave (km/s) = 6.62613 7.25394 6.94713
#
# Compressibility (1/GPa) = 0.03809664
#
# Stress axis : x y z
#
# Youngs Moduli (GPa) = 62.54510 29.63660 53.90525
#
# Poissons Ratio (x) = -0.05970 0.76344
# Poissons Ratio (y) = -0.12600 0.15871
# Poissons Ratio (z) = 0.88581 0.08726
#
# Static dielectric constant tensor:
#      x y z
#    x 1.673550 0.000000 0.000000 
#    y 0.000000 1.761260 0.000000 
#    z 0.000000 0.000000 1.729530 
# 
# From -- ./inp_files/76614.got.cif
#   From: 2010.05.17/outbox.cif.g08.bks.cpg/sg65_39_cif.got.tgz:76614.got - 2010.06.03 17:01:31.
