data_PCOD9485788
_publ_section_title
;
Structure prediction by ZEFSAII (Michael W. Deem and Ramdas Pophale) SiO2 
 PCOD9485788
Probable space group: C M M M
;
_chemical_formula_sum "Si O2"
_cell_formula_units_Z 104
_cell_length_a 22.126335
_cell_length_b 14.195219
_cell_length_c 18.307988
_cell_angle_alpha 90.000000
_cell_angle_beta 90.000000
_cell_angle_gamma 90.000000
_cell_volume 5750.322465
_symmetry_space_group_name_H-M "C M M M"
_symmetry_group_IT_number 65
_symmetry_cell_setting 'orthorhombic'
loop_
_space_group_symop_operation_xyz
x,y,z
-x,-y,z
x,-y,-z
-x,y,-z
-x,-y,-z
x,y,-z
-x,y,z
x,-y,z
1/2+x,1/2+y,z
1/2-x,1/2-y,z
1/2+x,1/2-y,-z
1/2-x,1/2+y,-z
1/2-x,1/2-y,-z
1/2+x,1/2+y,-z
1/2-x,1/2+y,z
1/2+x,1/2-y,z
loop_
_atom_site_type_symbol
_atom_site_label
_atom_site_fract_x
_atom_site_fract_y
_atom_site_fract_z
Si Si1 0.378182 0.395532 0.145767
Si Si2 0.571101 0.606731 0.307721
Si Si3 0.757251 0.608499 0.086377
Si Si4 0.926863 0.729582 0.582548
Si Si5 0.123969 0.309038 0.857370
Si Si6 0.427611 0.109363 0.715611
Si Si7 0.434052 0.000000 0.086145
O O1 0.400854 0.500000 0.120628
O O2 0.392159 0.391073 0.232111
O O3 0.307428 0.392856 0.125621
O O4 0.400270 0.293171 0.117317
O O5 0.500000 0.626350 0.290032
O O6 0.574210 0.500000 0.336224
O O7 0.591336 0.680271 0.368942
O O8 0.780550 0.500000 0.091027
O O9 0.805619 0.677526 0.123009
O O10 0.750217 0.629811 0.000000
O O11 0.903327 0.727640 0.500000
O O12 0.912505 0.639961 0.633164
O O13 0.000000 0.733754 0.577814
O O14 0.108027 0.325356 0.772431
O O15 0.094755 0.400706 0.893405
O O16 0.500000 0.123528 0.725240
O O17 0.413654 0.000000 0.729198
O O18 0.500000 0.000000 0.121518
O O19 0.437652 0.000000 0.000000
#
# Coordination Sequence:
#
# PCOD9485788 Si02
#       7
#    16  16  16  16  16  16   8
#     4  10  22  36  54  81 110 145 186 224 273 333
#     4   9  17  31  51  75 105 140 178 220 263 313
#     4  10  21  38  58  82 110 139 179 234 286 328
#     4   9  17  29  47  74 107 141 176 216 268 327
#     4  12  20  34  58  79 108 146 184 227 280 329
#     4  10  19  31  49  76 108 142 180 222 271 330
#     4  11  24  38  56  84 111 141 184 234 285 332
#
# _framework density 18.085941999999999
#
# number of rings (size 3 to 8) (size 9 to 14) (size 15 to 20)
#    0.000    1.923    3.077    1.385    0.000    3.077 
#    0.000    3.077    0.000    0.462    0.000    6.462 
#    0.000    3.692    0.000    0.000    0.000    0.000 
#
# Total GULP energy -289614.240313 kJ/mol
# GULP energy per Si atom -5569.504621 kJ/mol
# Density = 1.804478 g / cm^3
# Si number density = 18.085942 Si / 1000 Ang^3
#
#
#
# Elastic Constant Matrix: (Units=GPa)
#
#
# Indices 1 2 3 4 5 6 
#
# 1 38.6307 20.6796 31.1660 0.0000 0.0000 0.0000
# 2 20.6796 151.7976 25.4291 0.0000 0.0000 0.0000
# 3 31.1660 25.4291 94.6947 0.0000 0.0000 0.0000
# 4 0.0000 0.0000 0.0000 16.8508 0.0000 0.0000
# 5 0.0000 0.0000 0.0000 0.0000 22.7075 0.0000
# 6 0.0000 0.0000 0.0000 0.0000 0.0000 16.0818
#
#
#
# Elastic Compliance Matrix: (Units=1/GPa)
#
#
# Indices 1 2 3 4 5 6 
#
# 1 0.036593 -0.003107 -0.011209 0.000000 0.000000 0.000000
# 2 -0.003107 0.007162 -0.000901 0.000000 0.000000 0.000000
# 3 -0.011209 -0.000901 0.014491 0.000000 0.000000 0.000000
# 4 0.000000 0.000000 0.000000 0.059344 0.000000 0.000000
# 5 0.000000 0.000000 0.000000 0.000000 0.044038 0.000000
# 6 0.000000 0.000000 0.000000 0.000000 0.000000 0.062182
#
#
# Mechanical properties :
#
#
# Convention : Reuss Voigt Hill
#
# Bulk Modulus (GPa) = 35.95568 48.85246 42.40407
# Shear Modulus (GPa) = 18.97429 24.98459 21.97944
#
# Velocity S-wave (km/s) = 3.24252 3.72080 3.48987
# Velocity P-wave (km/s) = 5.82600 6.74752 6.30362
#
# Compressibility (1/GPa) = 0.02781202
#
# Stress axis : x y z
#
# Youngs Moduli (GPa) = 27.32792 139.62782 69.00750
#
# Poissons Ratio (x) = 0.43387 0.77350
# Poissons Ratio (y) = 0.08492 0.06214
# Poissons Ratio (z) = 0.30632 0.12574
#
# Static dielectric constant tensor:
#      x y z
#    x 1.624990 0.000000 0.000000 
#    y 0.000000 1.699340 0.000000 
#    z 0.000000 0.000000 1.619930 
# 
# From -- ./inp_files/55869.got.cif
#   From: 2010.05.17/outbox.cif.g08.bks.cpg/sg65_28_cif.got.tgz:55869.got - 2010.06.03 17:01:31.
