data_PCOD9485871
_publ_section_title
;
Structure prediction by ZEFSAII (Michael W. Deem and Ramdas Pophale) SiO2 
 PCOD9485871
Probable space group: C M M M
;
_chemical_formula_sum "Si O2"
_cell_formula_units_Z 88
_cell_length_a 18.928904
_cell_length_b 27.989623
_cell_length_c 9.135082
_cell_angle_alpha 90.000000
_cell_angle_beta 90.000000
_cell_angle_gamma 90.000000
_cell_volume 4839.884165
_symmetry_space_group_name_H-M "C M M M"
_symmetry_group_IT_number 65
_symmetry_cell_setting 'orthorhombic'
loop_
_space_group_symop_operation_xyz
x,y,z
-x,-y,z
x,-y,-z
-x,y,-z
-x,-y,-z
x,y,-z
-x,y,z
x,-y,z
1/2+x,1/2+y,z
1/2-x,1/2-y,z
1/2+x,1/2-y,-z
1/2-x,1/2+y,-z
1/2-x,1/2-y,-z
1/2+x,1/2+y,-z
1/2-x,1/2+y,z
1/2+x,1/2-y,z
loop_
_atom_site_type_symbol
_atom_site_label
_atom_site_fract_x
_atom_site_fract_y
_atom_site_fract_z
Si Si1 0.797293 0.181947 0.671481
Si Si2 0.079199 0.254981 0.676095
Si Si3 0.850767 0.659435 0.824632
Si Si4 0.416600 0.500000 0.834888
Si Si5 0.823140 0.552648 0.175914
Si Si6 0.825338 0.072445 0.670036
O O1 0.778824 0.191231 0.500000
O O2 0.856143 0.220054 0.719392
O O3 0.725416 0.177691 0.763955
O O4 0.831009 0.129366 0.679523
O O5 0.083015 0.259580 0.500000
O O6 0.092807 0.305828 0.751003
O O7 0.000000 0.237266 0.712291
O O8 0.859986 0.603160 0.784896
O O9 0.852201 0.663483 0.000000
O O10 0.500000 0.500000 0.839347
O O11 0.388046 0.545774 0.750026
O O12 0.387835 0.500000 0.000000
O O13 0.853945 0.500000 0.213452
O O14 0.746898 0.556612 0.251664
O O15 0.814663 0.553661 0.000000
O O16 0.822192 0.059238 0.500000
#
# Coordination Sequence:
#
# PCOD9485871 Si02
#       6
#    16  16  16   8  16  16
#     4   9  19  35  55  78 104 135 173 217 262 311
#     4  10  21  37  55  74 102 142 180 214 262 320
#     4  10  20  33  53  82 109 135 172 217 262 309
#     4  11  23  35  45  61  95 141 176 205 252 311
#     4   9  17  31  52  75 103 135 163 200 254 312
#     4  10  19  31  50  75  98 123 165 218 258 293
#
# _framework density 18.182254
#
# number of rings (size 3 to 8) (size 9 to 14) (size 15 to 20)
#    0.000    2.273    0.909    1.909    0.000    6.182 
#    0.000    1.818    0.000    0.545    0.000    3.818 
#    0.000    0.000    0.000    0.000    0.000    0.000 
#
# Total GULP energy -245296.736629 kJ/mol
# GULP energy per Si atom -5574.925832 kJ/mol
# Density = 1.814087 g / cm^3
# Si number density = 18.182254 Si / 1000 Ang^3
#
#
#
# Elastic Constant Matrix: (Units=GPa)
#
#
# Indices 1 2 3 4 5 6 
#
# 1 25.0190 15.2288 5.4883 0.0000 0.0000 0.0000
# 2 15.2288 111.9611 15.6722 0.0000 0.0000 0.0000
# 3 5.4883 15.6722 16.1857 0.0000 0.0000 0.0000
# 4 0.0000 0.0000 0.0000 19.8105 0.0000 0.0000
# 5 0.0000 0.0000 0.0000 0.0000 20.7381 0.0000
# 6 0.0000 0.0000 0.0000 0.0000 0.0000 20.3895
#
#
#
# Elastic Compliance Matrix: (Units=1/GPa)
#
#
# Indices 1 2 3 4 5 6 
#
# 1 0.045162 -0.004626 -0.010834 0.000000 0.000000 0.000000
# 2 -0.004626 0.010806 -0.008894 0.000000 0.000000 0.000000
# 3 -0.010834 -0.008894 0.074069 0.000000 0.000000 0.000000
# 4 0.000000 0.000000 0.000000 0.050478 0.000000 0.000000
# 5 0.000000 0.000000 0.000000 0.000000 0.048220 0.000000
# 6 0.000000 0.000000 0.000000 0.000000 0.000000 0.049045
#
#
# Mechanical properties :
#
#
# Convention : Reuss Voigt Hill
#
# Bulk Modulus (GPa) = 12.29602 25.10496 18.70049
# Shear Modulus (GPa) = 14.14030 19.97273 17.05652
#
# Velocity S-wave (km/s) = 2.79175 3.31792 3.06614
# Velocity P-wave (km/s) = 4.14357 5.33999 4.77936
#
# Compressibility (1/GPa) = 0.08132713
#
# Stress axis : x y z
#
# Youngs Moduli (GPa) = 22.14240 92.54136 13.50097
#
# Poissons Ratio (x) = 0.42813 0.14627
# Poissons Ratio (y) = 0.10244 0.12008
# Poissons Ratio (z) = 0.23989 0.82310
#
# Static dielectric constant tensor:
#      x y z
#    x 1.596420 0.000000 0.000000 
#    y 0.000000 1.666980 0.000000 
#    z 0.000000 0.000000 1.611750 
# 
# From -- ./inp_files/10140.got.cif
#   From: 2010.05.17/outbox.cif.g08.bks.cpg/sg65_6_cif.got.tgz:10140.got - 2010.06.03 17:01:31.
