data_PCOD9485256
_publ_section_title
;
Structure prediction by ZEFSAII (Michael W. Deem and Ramdas Pophale) SiO2 
 PCOD9485256
Probable space group: C M M M
;
_chemical_formula_sum "Si O2"
_cell_formula_units_Z 88
_cell_length_a 18.938043
_cell_length_b 8.577958
_cell_length_c 29.771714
_cell_angle_alpha 90.000000
_cell_angle_beta 90.000000
_cell_angle_gamma 90.000000
_cell_volume 4836.407123
_symmetry_space_group_name_H-M "C M M M"
_symmetry_group_IT_number 65
_symmetry_cell_setting 'orthorhombic'
loop_
_space_group_symop_operation_xyz
x,y,z
-x,-y,z
x,-y,-z
-x,y,-z
-x,-y,-z
x,y,-z
-x,y,z
x,-y,z
1/2+x,1/2+y,z
1/2-x,1/2-y,z
1/2+x,1/2-y,-z
1/2-x,1/2+y,-z
1/2-x,1/2-y,-z
1/2+x,1/2+y,-z
1/2-x,1/2+y,z
1/2+x,1/2-y,z
loop_
_atom_site_type_symbol
_atom_site_label
_atom_site_fract_x
_atom_site_fract_y
_atom_site_fract_z
Si Si1 0.670676 0.813269 0.586934
Si Si2 0.329617 0.813340 0.853997
Si Si3 0.582568 0.688275 0.670055
Si Si4 0.418083 0.687698 0.771240
Si Si5 0.918569 0.690156 0.500000
Si Si6 0.330501 0.811576 0.951718
O O1 0.750000 0.750000 0.584083
O O2 0.632047 0.758588 0.632154
O O3 0.623802 0.759939 0.544353
O O4 0.673238 0.000000 0.586129
O O5 0.250000 0.750000 0.851204
O O6 0.372952 0.754360 0.811645
O O7 0.360230 0.763161 0.903066
O O8 0.327628 0.000000 0.853180
O O9 0.500000 0.731721 0.663156
O O10 0.586074 0.500000 0.667973
O O11 0.603551 0.736365 0.720758
O O12 0.500000 0.732146 0.776734
O O13 0.414093 0.500000 0.772462
O O14 0.919711 0.500000 0.500000
O O15 0.000000 0.742733 0.500000
O O16 0.250000 0.750000 0.951771
O O17 0.329279 0.000000 0.951821
O O18 0.362394 0.761497 0.000000
#
# Coordination Sequence:
#
# PCOD9485256 Si02
#       6
#    16  16  16  16   8  16
#     4  11  22  36  56  81 111 143 173 210 255 300
#     4  10  19  30  48  74 101 129 164 207 251 299
#     4   9  19  37  58  78 101 131 170 213 256 305
#     4   9  19  36  55  73  98 133 168 207 256 304
#     4   9  19  36  57  81 108 139 176 215 254 298
#     4   8  14  25  41  63  92 124 158 198 245 294
#
# _framework density 18.195325
#
# number of rings (size 3 to 8) (size 9 to 14) (size 15 to 20)
#    0.000    2.636    0.000    3.000    0.000    3.636 
#    0.000    3.182    0.000    3.818    0.000    3.818 
#    0.000    0.000    0.000    0.000    0.000    0.000 
#
# Total GULP energy -245219.055963 kJ/mol
# GULP energy per Si atom -5573.160363 kJ/mol
# Density = 1.815391 g / cm^3
# Si number density = 18.195325 Si / 1000 Ang^3
#
#
#
# Elastic Constant Matrix: (Units=GPa)
#
#
# Indices 1 2 3 4 5 6 
#
# 1 96.7995 26.5675 108.5552 0.0000 0.0000 0.0000
# 2 26.5675 19.9933 39.1484 0.0000 0.0000 0.0000
# 3 108.5552 39.1484 229.0052 0.0000 0.0000 0.0000
# 4 0.0000 0.0000 0.0000 21.2544 0.0000 0.0000
# 5 0.0000 0.0000 0.0000 0.0000 54.7967 0.0000
# 6 0.0000 0.0000 0.0000 0.0000 0.0000 13.8121
#
#
#
# Elastic Compliance Matrix: (Units=1/GPa)
#
#
# Indices 1 2 3 4 5 6 
#
# 1 0.024681 -0.014863 -0.009159 0.000000 0.000000 0.000000
# 2 -0.014863 0.084134 -0.007337 0.000000 0.000000 0.000000
# 3 -0.009159 -0.007337 0.009962 0.000000 0.000000 0.000000
# 4 0.000000 0.000000 0.000000 0.047049 0.000000 0.000000
# 5 0.000000 0.000000 0.000000 0.000000 0.018249 0.000000
# 6 0.000000 0.000000 0.000000 0.000000 0.000000 0.072401
#
#
# Mechanical properties :
#
#
# Convention : Reuss Voigt Hill
#
# Bulk Modulus (GPa) = 17.83823 77.14891 47.49357
# Shear Modulus (GPa) = 14.79816 29.40776 22.10296
#
# Velocity S-wave (km/s) = 2.85493 4.02459 3.48912
# Velocity P-wave (km/s) = 4.54890 8.00556 6.51081
#
# Compressibility (1/GPa) = 0.05605937
#
# Stress axis : x y z
#
# Youngs Moduli (GPa) = 40.51745 11.88583 100.37734
#
# Poissons Ratio (x) = 0.17666 0.91931
# Poissons Ratio (y) = 0.60222 0.73648
# Poissons Ratio (z) = 0.37108 0.08721
#
# Static dielectric constant tensor:
#      x y z
#    x 1.601520 0.000000 0.000000 
#    y 0.000000 1.626870 0.000000 
#    z 0.000000 0.000000 1.663030 
# 
# From -- ./inp_files/77870.got.cif
#   From: 2010.05.17/outbox.cif.g08.bks.cpg/sg65_39_cif.got.tgz:77870.got - 2010.06.03 17:01:31.
