data_PCOD9485118
_publ_section_title
;
Structure prediction by ZEFSAII (Michael W. Deem and Ramdas Pophale) SiO2 
 PCOD9485118
Probable space group: C M M M
;
_chemical_formula_sum "Si O2"
_cell_formula_units_Z 80
_cell_length_a 7.817048
_cell_length_b 19.715993
_cell_length_c 26.580157
_cell_angle_alpha 90.000000
_cell_angle_beta 90.000000
_cell_angle_gamma 90.000000
_cell_volume 4096.556753
_symmetry_space_group_name_H-M "C M M M"
_symmetry_group_IT_number 65
_symmetry_cell_setting 'orthorhombic'
loop_
_space_group_symop_operation_xyz
x,y,z
-x,-y,z
x,-y,-z
-x,y,-z
-x,-y,-z
x,y,-z
-x,y,z
x,-y,z
1/2+x,1/2+y,z
1/2-x,1/2-y,z
1/2+x,1/2-y,-z
1/2-x,1/2+y,-z
1/2-x,1/2-y,-z
1/2+x,1/2+y,-z
1/2-x,1/2+y,z
1/2+x,1/2-y,z
loop_
_atom_site_type_symbol
_atom_site_label
_atom_site_fract_x
_atom_site_fract_y
_atom_site_fract_z
Si Si1 0.291101 0.078544 0.740067
Si Si2 0.793792 0.670992 0.648231
Si Si3 0.703193 0.671652 0.055443
Si Si4 0.708785 0.922430 0.442718
Si Si5 0.795258 0.576201 0.147375
O O1 0.500000 0.079737 0.739308
O O2 0.231173 0.130149 0.697375
O O3 0.234188 0.096881 0.796767
O O4 0.242354 0.000000 0.730204
O O5 0.750000 0.750000 0.648753
O O6 0.731790 0.631391 0.598469
O O7 0.000000 0.666061 0.648182
O O8 0.500000 0.667028 0.052917
O O9 0.750000 0.750000 0.063716
O O10 0.757967 0.625948 0.101863
O O11 0.773293 0.651688 0.000000
O O12 0.763372 0.907739 0.500000
O O13 0.500000 0.921632 0.442664
O O14 0.758850 0.000000 0.430104
O O15 0.730170 0.500000 0.137089
O O16 0.000000 0.572237 0.151308
#
# Coordination Sequence:
#
# PCOD9485118 Si02
#       5
#    16  16  16  16  16
#     4   8  15  30  51  71  91 121 162 200 232 273
#     4  10  19  30  46  69  97 126 155 192 238 283
#     4  10  21  36  53  73  99 131 165 200 239 286
#     4   8  14  26  46  70  91 116 158 204 236 269
#     4   9  18  33  53  76 100 126 159 200 244 290
#
# _framework density 19.528596
#
# number of rings (size 3 to 8) (size 9 to 14) (size 15 to 20)
#    0.000    3.000    0.000    3.000    0.000    5.600 
#    0.000    5.000    0.000    3.600    0.000    1.400 
#    0.000    0.000    0.000    0.000    0.000    0.000 
#
# Total GULP energy -223032.943161 kJ/mol
# GULP energy per Si atom -5575.823579 kJ/mol
# Density = 1.948415 g / cm^3
# Si number density = 19.528596 Si / 1000 Ang^3
#
#
#
# Elastic Constant Matrix: (Units=GPa)
#
#
# Indices 1 2 3 4 5 6 
#
# 1 21.4443 3.4460 11.2983 0.0000 0.0000 0.0000
# 2 3.4460 151.4211 153.3586 0.0000 0.0000 0.0000
# 3 11.2983 153.3586 214.8716 0.0000 0.0000 0.0000
# 4 0.0000 0.0000 0.0000 -20.7870 0.0000 0.0000
# 5 0.0000 0.0000 0.0000 0.0000 0.8789 0.0000
# 6 0.0000 0.0000 0.0000 0.0000 0.0000 23.4987
#
#
#
# Elastic Compliance Matrix: (Units=1/GPa)
#
#
# Indices 1 2 3 4 5 6 
#
# 1 0.049159 0.005409 -0.006446 0.000000 0.000000 0.000000
# 2 0.005409 0.024424 -0.017717 0.000000 0.000000 0.000000
# 3 -0.006446 -0.017717 0.017638 0.000000 0.000000 0.000000
# 4 0.000000 0.000000 0.000000 -0.048107 0.000000 0.000000
# 5 0.000000 0.000000 0.000000 0.000000 1.137801 0.000000
# 6 0.000000 0.000000 0.000000 0.000000 0.000000 0.042556
#
#
# Mechanical properties :
#
#
# Convention : Reuss Voigt Hill
#
# Bulk Modulus (GPa) = 18.61664 80.43809 49.52737
# Shear Modulus (GPa) = 3.90967 15.36038 9.63502
#
# Velocity S-wave (km/s) = 1.41646 2.80761 2.22363
# Velocity P-wave (km/s) = 3.49698 7.19649 5.65767
#
# Compressibility (1/GPa) = 0.05371540
#
# Stress axis : x y z
#
# Youngs Moduli (GPa) = 20.34205 40.94292 56.69714
#
# Poissons Ratio (x) = -0.22148 0.36545
# Poissons Ratio (y) = -0.11004 1.00448
# Poissons Ratio (z) = 0.13112 0.72537
#
# Static dielectric constant tensor:
#      x y z
#    x 1.736750 0.000000 0.000000 
#    y 0.000000 1.632040 0.000000 
#    z 0.000000 0.000000 1.708410 
# 
# From -- ./inp_files/72748.got.cif
#   From: 2010.05.17/outbox.cif.g08.bks.cpg/sg65_37_cif.got.tgz:72748.got - 2010.06.03 17:01:31.
