data_PCOD9485927
_publ_section_title
;
Structure prediction by ZEFSAII (Michael W. Deem and Ramdas Pophale) SiO2 
 PCOD9485927
Probable space group: C M M M
;
_chemical_formula_sum "Si O2"
_cell_formula_units_Z 72
_cell_length_a 18.497277
_cell_length_b 8.338464
_cell_length_c 24.882420
_cell_angle_alpha 90.000000
_cell_angle_beta 90.000000
_cell_angle_gamma 90.000000
_cell_volume 3837.836552
_symmetry_space_group_name_H-M "C M M M"
_symmetry_group_IT_number 65
_symmetry_cell_setting 'orthorhombic'
loop_
_space_group_symop_operation_xyz
x,y,z
-x,-y,z
x,-y,-z
-x,y,-z
-x,-y,-z
x,y,-z
-x,y,z
x,-y,z
1/2+x,1/2+y,z
1/2-x,1/2-y,z
1/2+x,1/2-y,-z
1/2-x,1/2+y,-z
1/2-x,1/2-y,-z
1/2+x,1/2+y,-z
1/2-x,1/2+y,z
1/2+x,1/2-y,z
loop_
_atom_site_type_symbol
_atom_site_label
_atom_site_fract_x
_atom_site_fract_y
_atom_site_fract_z
Si Si1 0.666654 0.308528 0.670162
Si Si2 0.332144 0.306142 0.000000
Si Si3 0.167140 0.806014 0.212394
Si Si4 0.833553 0.308420 0.441930
Si Si5 0.916872 0.196153 0.106526
O O1 0.666438 0.500000 0.668544
O O2 0.750000 0.250000 0.670273
O O3 0.637937 0.255471 0.728626
O O4 0.632873 0.249334 0.614224
O O5 0.250000 0.250000 0.000000
O O6 0.373020 0.251552 0.053897
O O7 0.333453 0.500000 0.000000
O O8 0.250000 0.750000 0.207195
O O9 0.121085 0.749853 0.161560
O O10 0.167106 0.000000 0.211873
O O11 0.864613 0.255429 0.500000
O O12 0.833064 0.500000 0.440904
O O13 0.750000 0.250000 0.441843
O O14 0.000000 0.246703 0.103772
O O15 0.916170 0.000000 0.106732
#
# Coordination Sequence:
#
# PCOD9485927 Si02
#       5
#    16   8  16  16  16
#     4   9  15  22  33  50  73 102 136 171 210 255
#     4  10  19  31  51  75  95 120 152 184 220 260
#     4   9  17  28  43  63  86 114 147 183 222 262
#     4   9  15  21  30  46  70 101 135 169 208 253
#     4   9  17  30  48  69  92 118 151 187 219 257
#
# _framework density 18.760569
#
# number of rings (size 3 to 8) (size 9 to 14) (size 15 to 20)
#    0.000    2.889    0.000    3.667    0.000    3.556 
#    0.000    0.000    0.000    3.333    0.000    0.000 
#    0.000    0.889    0.000   11.111    0.000    6.000 
#
# Total GULP energy -200445.533967 kJ/mol
# GULP energy per Si atom -5567.931499 kJ/mol
# Density = 1.871787 g / cm^3
# Si number density = 18.760569 Si / 1000 Ang^3
#
#
#
# Elastic Constant Matrix: (Units=GPa)
#
#
# Indices 1 2 3 4 5 6 
#
# 1 69.5826 5.2303 78.6917 0.0000 0.0000 0.0000
# 2 5.2303 17.6566 30.4615 0.0000 0.0000 0.0000
# 3 78.6917 30.4615 261.4840 0.0000 0.0000 0.0000
# 4 0.0000 0.0000 0.0000 7.5751 0.0000 0.0000
# 5 0.0000 0.0000 0.0000 0.0000 -4.1094 0.0000
# 6 0.0000 0.0000 0.0000 0.0000 0.0000 11.4587
#
#
#
# Elastic Compliance Matrix: (Units=1/GPa)
#
#
# Indices 1 2 3 4 5 6 
#
# 1 0.022320 0.006229 -0.007443 0.000000 0.000000 0.000000
# 2 0.006229 0.072620 -0.010334 0.000000 0.000000 0.000000
# 3 -0.007443 -0.010334 0.007268 0.000000 0.000000 0.000000
# 4 0.000000 0.000000 0.000000 0.132012 0.000000 0.000000
# 5 0.000000 0.000000 0.000000 0.000000 -0.243342 0.000000
# 6 0.000000 0.000000 0.000000 0.000000 0.000000 0.087270
#
#
# Mechanical properties :
#
#
# Convention : Reuss Voigt Hill
#
# Bulk Modulus (GPa) = 12.64038 64.16557 38.40298
# Shear Modulus (GPa) = 39.17997 18.60751 28.89374
#
# Velocity S-wave (km/s) = 4.57488 3.15277 3.92871
# Velocity P-wave (km/s) = 5.88714 6.89419 6.41047
#
# Compressibility (1/GPa) = 0.07911152
#
# Stress axis : x y z
#
# Youngs Moduli (GPa) = 44.80232 13.77030 137.58847
#
# Poissons Ratio (x) = -0.08577 1.02403
# Poissons Ratio (y) = -0.27906 1.42188
# Poissons Ratio (z) = 0.33345 0.14231
#
# Static dielectric constant tensor:
#      x y z
#    x 1.592700 0.000000 0.000000 
#    y 0.000000 1.654640 0.000000 
#    z 0.000000 0.000000 1.736250 
# 
# From -- ./inp_files/70751.got.cif
#   From: 2010.05.17/outbox.cif.g08.bks.cpg/sg65_36_cif.got.tgz:70751.got - 2010.06.03 17:01:31.
