data_PCOD9485799
_publ_section_title
;
Structure prediction by ZEFSAII (Michael W. Deem and Ramdas Pophale) SiO2 
 PCOD9485799
Probable space group: C M M M
;
_chemical_formula_sum "Si O2"
_cell_formula_units_Z 104
_cell_length_a 26.090347
_cell_length_b 15.334441
_cell_length_c 14.859838
_cell_angle_alpha 90.000000
_cell_angle_beta 90.000000
_cell_angle_gamma 90.000000
_cell_volume 5945.137164
_symmetry_space_group_name_H-M "C M M M"
_symmetry_group_IT_number 65
_symmetry_cell_setting 'orthorhombic'
loop_
_space_group_symop_operation_xyz
x,y,z
-x,-y,z
x,-y,-z
-x,y,-z
-x,-y,-z
x,y,-z
-x,y,z
x,-y,z
1/2+x,1/2+y,z
1/2-x,1/2-y,z
1/2+x,1/2-y,-z
1/2-x,1/2+y,-z
1/2-x,1/2-y,-z
1/2+x,1/2+y,-z
1/2-x,1/2+y,z
1/2+x,1/2-y,z
loop_
_atom_site_type_symbol
_atom_site_label
_atom_site_fract_x
_atom_site_fract_y
_atom_site_fract_z
Si Si1 0.772555 0.394728 0.901164
Si Si2 0.748188 0.352399 0.295668
Si Si3 0.607478 0.106047 0.098917
Si Si4 0.940557 0.000000 0.609135
Si Si5 0.443568 0.103912 0.281760
Si Si6 0.853154 0.133926 0.393901
Si Si7 0.349434 0.156802 0.605130
O O1 0.770359 0.500000 0.899361
O O2 0.745644 0.361630 0.811595
O O3 0.832606 0.370060 0.894111
O O4 0.753533 0.366096 0.000000
O O5 0.750000 0.250000 0.319298
O O6 0.698165 0.393234 0.341072
O O7 0.802738 0.382663 0.335919
O O8 0.577355 0.138567 0.185941
O O9 0.605832 0.000000 0.099726
O O10 0.588294 0.133645 0.000000
O O11 0.904815 0.916794 0.634457
O O12 0.943546 0.000000 0.500000
O O13 0.000000 0.000000 0.641291
O O14 0.500000 0.138960 0.302094
O O15 0.402510 0.119817 0.358865
O O16 0.447270 0.000000 0.270970
O O17 0.845715 0.116208 0.500000
O O18 0.855667 0.238483 0.382829
O O19 0.339812 0.140063 0.500000
#
# Coordination Sequence:
#
# PCOD9485799 Si02
#       7
#    16  16  16   8  16  16  16
#     4   9  17  29  47  70  97 128 159 194 239 290
#     4  10  19  31  50  73 100 130 161 199 242 290
#     4   8  14  27  46  65  87 119 159 201 244 282
#     4   9  18  34  54  76 101 123 154 208 262 303
#     4  10  20  32  46  68  97 129 172 213 236 275
#     4   9  19  34  52  76 100 124 160 203 250 302
#     4  10  20  34  49  66  97 138 171 201 246 295
#
# _framework density 17.493289000000001
#
# number of rings (size 3 to 8) (size 9 to 14) (size 15 to 20)
#    0.000    2.692    1.538    1.385    1.077    3.692 
#    0.000    3.846    0.000    0.000    0.000    0.000 
#    0.000    1.231    0.000    0.000    0.000    0.154 
#
# Total GULP energy -289566.827463 kJ/mol
# GULP energy per Si atom -5568.592836 kJ/mol
# Density = 1.745347 g / cm^3
# Si number density = 17.493289 Si / 1000 Ang^3
#
#
#
# Elastic Constant Matrix: (Units=GPa)
#
#
# Indices 1 2 3 4 5 6 
#
# 1 112.6561 15.7656 37.2085 0.0000 0.0000 0.0000
# 2 15.7656 22.3867 8.4262 0.0000 0.0000 0.0000
# 3 37.2085 8.4262 58.4772 0.0000 0.0000 0.0000
# 4 0.0000 0.0000 0.0000 17.0449 0.0000 0.0000
# 5 0.0000 0.0000 0.0000 0.0000 21.2132 0.0000
# 6 0.0000 0.0000 0.0000 0.0000 0.0000 11.7713
#
#
#
# Elastic Compliance Matrix: (Units=1/GPa)
#
#
# Indices 1 2 3 4 5 6 
#
# 1 0.011923 -0.005859 -0.006743 0.000000 0.000000 0.000000
# 2 -0.005859 0.050110 -0.003492 0.000000 0.000000 0.000000
# 3 -0.006743 -0.003492 0.021894 0.000000 0.000000 0.000000
# 4 0.000000 0.000000 0.000000 0.058669 0.000000 0.000000
# 5 0.000000 0.000000 0.000000 0.000000 0.047140 0.000000
# 6 0.000000 0.000000 0.000000 0.000000 0.000000 0.084953
#
#
# Mechanical properties :
#
#
# Convention : Reuss Voigt Hill
#
# Bulk Modulus (GPa) = 19.32758 35.14672 27.23715
# Shear Modulus (GPa) = 15.42620 18.81386 17.12003
#
# Velocity S-wave (km/s) = 2.97279 3.28302 3.13175
# Velocity P-wave (km/s) = 4.78078 5.87419 5.35547
#
# Compressibility (1/GPa) = 0.05173953
#
# Stress axis : x y z
#
# Youngs Moduli (GPa) = 83.86820 19.95607 45.67440
#
# Poissons Ratio (x) = 0.11693 0.30796
# Poissons Ratio (y) = 0.49140 0.15951
# Poissons Ratio (z) = 0.56548 0.06969
#
# Static dielectric constant tensor:
#      x y z
#    x 1.606770 0.000000 0.000000 
#    y 0.000000 1.629910 0.000000 
#    z 0.000000 0.000000 1.602180 
# 
# From -- ./inp_files/43071.got.cif
#   From: 2010.05.17/outbox.cif.g08.bks.cpg/sg65_22_cif.got.tgz:43071.got - 2010.06.03 17:01:31.
