data_PCOD9485260
_publ_section_title
;
Structure prediction by ZEFSAII (Michael W. Deem and Ramdas Pophale) SiO2 
 PCOD9485260
Probable space group: C M M M
;
_chemical_formula_sum "Si O2"
_cell_formula_units_Z 104
_cell_length_a 14.190500
_cell_length_b 26.177784
_cell_length_c 17.564064
_cell_angle_alpha 90.000000
_cell_angle_beta 90.000000
_cell_angle_gamma 90.000000
_cell_volume 6524.625496
_symmetry_space_group_name_H-M "C M M M"
_symmetry_group_IT_number 65
_symmetry_cell_setting 'orthorhombic'
loop_
_space_group_symop_operation_xyz
x,y,z
-x,-y,z
x,-y,-z
-x,y,-z
-x,-y,-z
x,y,-z
-x,y,z
x,-y,z
1/2+x,1/2+y,z
1/2-x,1/2-y,z
1/2+x,1/2-y,-z
1/2-x,1/2+y,-z
1/2-x,1/2-y,-z
1/2+x,1/2+y,-z
1/2-x,1/2+y,z
1/2+x,1/2-y,z
loop_
_atom_site_type_symbol
_atom_site_label
_atom_site_fract_x
_atom_site_fract_y
_atom_site_fract_z
Si Si1 0.387169 0.826613 0.215503
Si Si2 0.113443 0.217981 0.500000
Si Si3 0.614262 0.165885 0.500000
Si Si4 0.607739 0.643535 0.637734
Si Si5 0.393739 0.708742 0.790693
Si Si6 0.807528 0.394021 0.646140
Si Si7 0.248181 0.311930 0.914206
Si Si8 0.386853 0.000000 0.590233
O O1 0.500000 0.832784 0.218131
O O2 0.363184 0.766568 0.231832
O O3 0.340279 0.864195 0.277363
O O4 0.343382 0.832203 0.130889
O O5 0.148597 0.275603 0.500000
O O6 0.135659 0.184561 0.573451
O O7 0.000000 0.223303 0.500000
O O8 0.500000 0.163466 0.500000
O O9 0.652165 0.138475 0.575200
O O10 0.500000 0.625223 0.622490
O O11 0.606329 0.674361 0.716294
O O12 0.693870 0.604325 0.641553
O O13 0.500000 0.714912 0.819935
O O14 0.332910 0.681001 0.854935
O O15 0.849817 0.449917 0.633284
O O16 0.250000 0.250000 0.920139
O O17 0.257343 0.331940 0.000000
O O18 0.500000 0.000000 0.590745
O O19 0.358017 0.000000 0.500000
#
# Coordination Sequence:
#
# PCOD9485260 Si02
#       8
#    16   8   8  16  16  16  16   8
#     4  10  19  30  48  74 102 137 178 212 252 307
#     4   9  19  31  45  73 107 136 168 203 240 293
#     4  11  21  32  49  75 103 135 174 208 248 300
#     4  10  20  34  50  73 105 136 167 206 250 299
#     4   9  17  30  47  72 108 141 171 211 248 292
#     4  12  22  35  56  73  97 135 174 217 266 305
#     4   9  17  29  45  69 104 142 175 206 246 301
#     4  11  24  42  57  75 102 128 168 225 272 306
#
# _framework density 15.939613
#
# number of rings (size 3 to 8) (size 9 to 14) (size 15 to 20)
#    0.000    1.923    2.308    2.769    0.000    5.538 
#    0.000    3.462    0.000    0.462    0.000    0.538 
#    0.000    1.846    0.000    3.385    0.000    0.154 
#
# Total GULP energy -289732.014326 kJ/mol
# GULP energy per Si atom -5571.769506 kJ/mol
# Density = 1.590333 g / cm^3
# Si number density = 15.939613 Si / 1000 Ang^3
#
#
#
# Elastic Constant Matrix: (Units=GPa)
#
#
# Indices 1 2 3 4 5 6 
#
# 1 105.2233 39.5344 35.2050 0.0000 0.0000 0.0000
# 2 39.5344 62.2931 24.0061 0.0000 0.0000 0.0000
# 3 35.2050 24.0061 104.2607 0.0000 0.0000 0.0000
# 4 0.0000 0.0000 0.0000 -4.4838 0.0000 0.0000
# 5 0.0000 0.0000 0.0000 0.0000 18.0312 0.0000
# 6 0.0000 0.0000 0.0000 0.0000 0.0000 20.4804
#
#
#
# Elastic Compliance Matrix: (Units=1/GPa)
#
#
# Indices 1 2 3 4 5 6 
#
# 1 0.013169 -0.007291 -0.002768 0.000000 0.000000 0.000000
# 2 -0.007291 0.021653 -0.002524 0.000000 0.000000 0.000000
# 3 -0.002768 -0.002524 0.011107 0.000000 0.000000 0.000000
# 4 0.000000 0.000000 0.000000 -0.223023 0.000000 0.000000
# 5 0.000000 0.000000 0.000000 0.000000 0.055459 0.000000
# 6 0.000000 0.000000 0.000000 0.000000 0.000000 0.048827
#
#
# Mechanical properties :
#
#
# Convention : Reuss Voigt Hill
#
# Bulk Modulus (GPa) = 48.16094 52.14091 50.15092
# Shear Modulus (GPa) = -122.78673 18.34101 -52.22286
#
# Velocity S-wave (km/s) = -8.78633 3.39581 -5.73010
# Velocity P-wave (km/s) = 8.52365 6.93959 3.49963
#
# Compressibility (1/GPa) = 0.02076372
#
# Stress axis : x y z
#
# Youngs Moduli (GPa) = 75.93539 46.18298 90.03285
#
# Poissons Ratio (x) = 0.33672 0.24921
# Poissons Ratio (y) = 0.55365 0.22721
# Poissons Ratio (z) = 0.21019 0.11655
#
# Static dielectric constant tensor:
#      x y z
#    x 1.602850 0.000000 0.000000 
#    y 0.000000 1.513120 0.000000 
#    z 0.000000 0.000000 1.531300 
# 
# From -- ./inp_files/53525.got.cif
#   From: 2010.05.17/outbox.cif.g08.bks.cpg/sg65_27_cif.got.tgz:53525.got - 2010.06.03 17:01:31.
