data_PCOD9485496
_publ_section_title
;
Structure prediction by ZEFSAII (Michael W. Deem and Ramdas Pophale) SiO2 
 PCOD9485496
Probable space group: C M M M
;
_chemical_formula_sum "Si O2"
_cell_formula_units_Z 120
_cell_length_a 23.656922
_cell_length_b 20.232051
_cell_length_c 14.734100
_cell_angle_alpha 90.000000
_cell_angle_beta 90.000000
_cell_angle_gamma 90.000000
_cell_volume 7052.153587
_symmetry_space_group_name_H-M "C M M M"
_symmetry_group_IT_number 65
_symmetry_cell_setting 'orthorhombic'
loop_
_space_group_symop_operation_xyz
x,y,z
-x,-y,z
x,-y,-z
-x,y,-z
-x,-y,-z
x,y,-z
-x,y,z
x,-y,z
1/2+x,1/2+y,z
1/2-x,1/2-y,z
1/2+x,1/2-y,-z
1/2-x,1/2+y,-z
1/2-x,1/2-y,-z
1/2+x,1/2+y,-z
1/2-x,1/2+y,z
1/2+x,1/2-y,z
loop_
_atom_site_type_symbol
_atom_site_label
_atom_site_fract_x
_atom_site_fract_y
_atom_site_fract_z
Si Si1 0.000000 0.919273 0.103226
Si Si2 0.600926 0.574957 0.768282
Si Si3 0.434252 0.779030 0.270748
Si Si4 0.856111 0.244768 0.898486
Si Si5 0.065444 0.426889 0.230731
Si Si6 0.203225 0.106764 0.893045
Si Si7 0.329823 0.102099 0.102873
Si Si8 0.067734 0.162357 0.604109
O O1 0.054405 0.898545 0.160454
O O2 0.000000 0.000000 0.098997
O O3 0.000000 0.895286 0.000000
O O4 0.585059 0.500000 0.745534
O O5 0.658567 0.576041 0.824335
O O6 0.599094 0.616529 0.676685
O O7 0.500000 0.769279 0.247882
O O8 0.398439 0.749987 0.186641
O O9 0.426040 0.857792 0.283873
O O10 0.422398 0.736727 0.360372
O O11 0.811337 0.185432 0.887482
O O12 0.829981 0.317931 0.898809
O O13 0.882150 0.235343 0.000000
O O14 0.069670 0.500000 0.274937
O O15 0.116021 0.422517 0.157938
O O16 0.000000 0.423133 0.195101
O O17 0.266464 0.086179 0.865880
O O18 0.194864 0.088859 0.000000
O O19 0.335668 0.078939 0.000000
O O20 0.084435 0.152968 0.500000
O O21 0.000000 0.149232 0.611058
#
# Coordination Sequence:
#
# PCOD9485496 Si02
#       8
#     8  16  16  16  16  16  16  16
#     4   9  18  32  47  65  97 139 175 206 246 296
#     4  11  21  33  48  71 102 136 176 217 259 306
#     4   9  17  31  50  75 105 133 166 212 260 307
#     4   9  16  28  47  71 100 137 176 215 255 299
#     4   9  18  32  51  75 103 136 170 206 254 310
#     4  10  19  31  47  70 103 141 179 218 257 299
#     4   9  18  30  46  71 104 140 178 215 251 300
#     4  10  20  35  55  76  99 130 170 219 270 310
#
# _framework density 17.016079000000001
#
# number of rings (size 3 to 8) (size 9 to 14) (size 15 to 20)
#    0.000    2.467    2.000    0.800    0.000    4.000 
#    0.000    5.333    0.000    0.400    0.000   10.267 
#    0.000    0.000    0.000    0.000    0.000    0.000 
#
# Total GULP energy -334013.313396 kJ/mol
# GULP energy per Si atom -5566.888557 kJ/mol
# Density = 1.697735 g / cm^3
# Si number density = 17.016079 Si / 1000 Ang^3
#
#
#
# Elastic Constant Matrix: (Units=GPa)
#
#
# Indices 1 2 3 4 5 6 
#
# 1 75.5677 20.1360 43.6816 0.0000 0.0000 0.0000
# 2 20.1360 97.1104 30.7442 0.0000 0.0000 0.0000
# 3 43.6816 30.7442 95.1827 0.0000 0.0000 0.0000
# 4 0.0000 0.0000 0.0000 8.6803 0.0000 0.0000
# 5 0.0000 0.0000 0.0000 0.0000 5.4318 0.0000
# 6 0.0000 0.0000 0.0000 0.0000 0.0000 5.5985
#
#
#
# Elastic Compliance Matrix: (Units=1/GPa)
#
#
# Indices 1 2 3 4 5 6 
#
# 1 0.018147 -0.001255 -0.007923 0.000000 0.000000 0.000000
# 2 -0.001255 0.011557 -0.003157 0.000000 0.000000 0.000000
# 3 -0.007923 -0.003157 0.015162 0.000000 0.000000 0.000000
# 4 0.000000 0.000000 0.000000 0.115203 0.000000 0.000000
# 5 0.000000 0.000000 0.000000 0.000000 0.184102 0.000000
# 6 0.000000 0.000000 0.000000 0.000000 0.000000 0.178618
#
#
# Mechanical properties :
#
#
# Convention : Reuss Voigt Hill
#
# Bulk Modulus (GPa) = 49.51255 50.77604 50.14429
# Shear Modulus (GPa) = 9.02214 15.49538 12.25876
#
# Velocity S-wave (km/s) = 2.30513 3.02094 2.68698
# Velocity P-wave (km/s) = 6.02043 6.48636 6.25773
#
# Compressibility (1/GPa) = 0.02019690
#
# Stress axis : x y z
#
# Youngs Moduli (GPa) = 55.10451 86.52570 65.95435
#
# Poissons Ratio (x) = 0.10855 0.52256
# Poissons Ratio (y) = 0.06913 0.20824
# Poissons Ratio (z) = 0.43659 0.27319
#
# Static dielectric constant tensor:
#      x y z
#    x 1.588440 0.000000 0.000000 
#    y 0.000000 1.639250 0.000000 
#    z 0.000000 0.000000 1.537270 
# 
# From -- ./inp_files/44694.got.cif
#   From: 2010.05.17/outbox.cif.g08.bks.cpg/sg65_23_cif.got.tgz:44694.got - 2010.06.03 17:01:31.
