data_PCOD9485443
_publ_section_title
;
Structure prediction by ZEFSAII (Michael W. Deem and Ramdas Pophale) SiO2 
 PCOD9485443
Probable space group: C M M M
;
_chemical_formula_sum "Si O2"
_cell_formula_units_Z 88
_cell_length_a 18.893807
_cell_length_b 7.515109
_cell_length_c 30.068033
_cell_angle_alpha 90.000000
_cell_angle_beta 90.000000
_cell_angle_gamma 90.000000
_cell_volume 4269.330510
_symmetry_space_group_name_H-M "C M M M"
_symmetry_group_IT_number 65
_symmetry_cell_setting 'orthorhombic'
loop_
_space_group_symop_operation_xyz
x,y,z
-x,-y,z
x,-y,-z
-x,y,-z
-x,-y,-z
x,y,-z
-x,y,z
x,-y,z
1/2+x,1/2+y,z
1/2-x,1/2-y,z
1/2+x,1/2-y,-z
1/2-x,1/2+y,-z
1/2-x,1/2-y,-z
1/2+x,1/2+y,-z
1/2-x,1/2+y,z
1/2+x,1/2-y,z
loop_
_atom_site_type_symbol
_atom_site_label
_atom_site_fract_x
_atom_site_fract_y
_atom_site_fract_z
Si Si1 0.917155 0.217151 0.086143
Si Si2 0.582001 0.216947 0.549740
Si Si3 0.332829 0.786515 0.364799
Si Si4 0.918253 0.786548 0.183129
Si Si5 0.919198 0.288207 0.719874
Si Si6 0.333015 0.286626 0.000000
O O1 0.890146 0.274391 0.135122
O O2 0.000000 0.267106 0.081582
O O3 0.915881 0.000000 0.085703
O O4 0.871291 0.280677 0.044648
O O5 0.603254 0.274474 0.500000
O O6 0.500000 0.267435 0.557017
O O7 0.630722 0.280331 0.589935
O O8 0.583582 0.000000 0.549625
O O9 0.250000 0.750000 0.363522
O O10 0.372770 0.718010 0.320796
O O11 0.341496 0.000000 0.365098
O O12 0.886885 0.739197 0.230950
O O13 0.000000 0.722998 0.184670
O O14 0.919492 0.000000 0.181570
O O15 0.924556 0.500000 0.714162
O O16 0.000000 0.216398 0.718968
O O17 0.250000 0.250000 0.000000
O O18 0.342210 0.500000 0.000000
#
# Coordination Sequence:
#
# PCOD9485443 Si02
#       6
#    16  16  16  16  16   8
#     4   8  14  27  49  72  89 112 151 191 222 260
#     4   8  14  27  49  73  92 114 150 192 228 265
#     4  10  20  32  46  67  95 124 153 186 224 267
#     4   8  14  26  46  71  93 112 143 189 232 266
#     4   9  17  30  48  68  90 118 152 188 225 265
#     4  10  19  31  47  67  93 122 150 182 222 268
#
# _framework density 20.612131000000002
#
# number of rings (size 3 to 8) (size 9 to 14) (size 15 to 20)
#    0.000    3.273    0.000    2.455    0.000    4.364 
#    0.000    1.818    0.000    8.182    0.000    1.273 
#    0.000    0.000    0.000    0.000    0.000    0.000 
#
# Total GULP energy -245245.395950 kJ/mol
# GULP energy per Si atom -5573.758999 kJ/mol
# Density = 2.056522 g / cm^3
# Si number density = 20.612131 Si / 1000 Ang^3
#
#
#
# Elastic Constant Matrix: (Units=GPa)
#
#
# Indices 1 2 3 4 5 6 
#
# 1 94.6255 -0.3325 118.2700 0.0000 0.0000 0.0000
# 2 -0.3325 52.1220 8.8764 0.0000 0.0000 0.0000
# 3 118.2700 8.8764 268.9969 0.0000 0.0000 0.0000
# 4 0.0000 0.0000 0.0000 11.9228 0.0000 0.0000
# 5 0.0000 0.0000 0.0000 0.0000 -3.6253 0.0000
# 6 0.0000 0.0000 0.0000 0.0000 0.0000 16.2319
#
#
#
# Elastic Compliance Matrix: (Units=1/GPa)
#
#
# Indices 1 2 3 4 5 6 
#
# 1 0.023652 0.001933 -0.010463 0.000000 0.000000 0.000000
# 2 0.001933 0.019452 -0.001492 0.000000 0.000000 0.000000
# 3 -0.010463 -0.001492 0.008367 0.000000 0.000000 0.000000
# 4 0.000000 0.000000 0.000000 0.083873 0.000000 0.000000
# 5 0.000000 0.000000 0.000000 0.000000 -0.275838 0.000000
# 6 0.000000 0.000000 0.000000 0.000000 0.000000 0.061607
#
#
# Mechanical properties :
#
#
# Convention : Reuss Voigt Hill
#
# Bulk Modulus (GPa) = 31.81925 74.37470 53.09698
# Shear Modulus (GPa) = -103.37360 24.16794 -39.60283
#
# Velocity S-wave (km/s) = -7.08948 3.42791 -4.38806
# Velocity P-wave (km/s) = 7.17939 7.19922 0.37757
#
# Compressibility (1/GPa) = 0.03142751
#
# Stress axis : x y z
#
# Youngs Moduli (GPa) = 42.27963 51.40832 119.51774
#
# Poissons Ratio (x) = -0.09936 1.25050
# Poissons Ratio (y) = -0.08172 0.17828
# Poissons Ratio (z) = 0.44237 0.07668
#
# Static dielectric constant tensor:
#      x y z
#    x 1.677210 0.000000 0.000000 
#    y 0.000000 1.810660 0.000000 
#    z 0.000000 0.000000 1.774850 
# 
# From -- ./inp_files/75320.got.cif
#   From: 2010.05.17/outbox.cif.g08.bks.cpg/sg65_38_cif.got.tgz:75320.got - 2010.06.03 17:01:31.
