data_PCOD9485731
_publ_section_title
;
Structure prediction by ZEFSAII (Michael W. Deem and Ramdas Pophale) SiO2 
 PCOD9485731
Probable space group: C M M M
;
_chemical_formula_sum "Si O2"
_cell_formula_units_Z 104
_cell_length_a 29.854507
_cell_length_b 8.279676
_cell_length_c 24.237566
_cell_angle_alpha 90.000000
_cell_angle_beta 90.000000
_cell_angle_gamma 90.000000
_cell_volume 5991.178387
_symmetry_space_group_name_H-M "C M M M"
_symmetry_group_IT_number 65
_symmetry_cell_setting 'orthorhombic'
loop_
_space_group_symop_operation_xyz
x,y,z
-x,-y,z
x,-y,-z
-x,y,-z
-x,-y,-z
x,y,-z
-x,y,z
x,-y,z
1/2+x,1/2+y,z
1/2-x,1/2-y,z
1/2+x,1/2-y,-z
1/2-x,1/2+y,-z
1/2-x,1/2-y,-z
1/2+x,1/2+y,-z
1/2-x,1/2+y,z
1/2+x,1/2-y,z
loop_
_atom_site_type_symbol
_atom_site_label
_atom_site_fract_x
_atom_site_fract_y
_atom_site_fract_z
Si Si1 0.856318 0.695027 0.773991
Si Si2 0.801519 0.806548 0.879445
Si Si3 0.950553 0.805120 0.394949
Si Si4 0.801570 0.194760 0.000000
Si Si5 0.855807 0.804641 0.439106
Si Si6 0.049568 0.304573 0.731706
Si Si7 0.300989 0.193016 0.666843
O O1 0.856208 0.500000 0.772889
O O2 0.832004 0.748247 0.829484
O O3 0.907721 0.750078 0.766843
O O4 0.828612 0.752609 0.720276
O O5 0.750000 0.750000 0.872370
O O6 0.800977 0.000000 0.879314
O O7 0.818818 0.749986 0.940060
O O8 0.906938 0.749248 0.427888
O O9 0.944904 0.754254 0.331220
O O10 0.000000 0.748083 0.413394
O O11 0.950957 0.000000 0.397711
O O12 0.750000 0.250000 0.000000
O O13 0.803666 0.000000 0.000000
O O14 0.841071 0.750972 0.500000
O O15 0.824877 0.748131 0.389211
O O16 0.855861 0.000000 0.438538
O O17 0.049986 0.500000 0.730696
O O18 0.000000 0.252089 0.750698
O O19 0.250000 0.250000 0.669344
O O20 0.301723 0.000000 0.668236
#
# Coordination Sequence:
#
# PCOD9485731 Si02
#       7
#    16  16  16   8  16  16  16
#     4  10  20  33  50  76 103 128 162 201 243 290
#     4  10  19  31  49  73 103 138 170 204 241 283
#     4   9  17  30  50  75 100 125 154 191 238 293
#     4   8  16  30  46  68  99 134 171 203 238 281
#     4  10  21  36  53  73  97 126 161 200 243 293
#     4   9  17  31  51  73  99 129 158 193 240 291
#     4  11  23  38  54  72  95 126 161 203 248 293
#
# _framework density 17.358855999999999
#
# number of rings (size 3 to 8) (size 9 to 14) (size 15 to 20)
#    0.000    2.308    1.538    1.385    0.000    4.615 
#    0.000    1.538    0.000    0.000    0.000    3.769 
#    0.000    4.308    0.000    0.000    0.000    0.000 
#
# Total GULP energy -289932.473138 kJ/mol
# GULP energy per Si atom -5575.624483 kJ/mol
# Density = 1.731935 g / cm^3
# Si number density = 17.358856 Si / 1000 Ang^3
#
#
#
# Elastic Constant Matrix: (Units=GPa)
#
#
# Indices 1 2 3 4 5 6 
#
# 1 124.2640 19.2947 80.9015 0.0000 0.0000 0.0000
# 2 19.2947 10.4222 16.6802 0.0000 0.0000 0.0000
# 3 80.9015 16.6802 152.4164 0.0000 0.0000 0.0000
# 4 0.0000 0.0000 0.0000 14.0808 0.0000 0.0000
# 5 0.0000 0.0000 0.0000 0.0000 16.8059 0.0000
# 6 0.0000 0.0000 0.0000 0.0000 0.0000 7.5063
#
#
#
# Elastic Compliance Matrix: (Units=1/GPa)
#
#
# Indices 1 2 3 4 5 6 
#
# 1 0.014568 -0.017694 -0.005796 0.000000 0.000000 0.000000
# 2 -0.017694 0.137812 -0.005690 0.000000 0.000000 0.000000
# 3 -0.005796 -0.005690 0.010260 0.000000 0.000000 0.000000
# 4 0.000000 0.000000 0.000000 0.071019 0.000000 0.000000
# 5 0.000000 0.000000 0.000000 0.000000 0.059503 0.000000
# 6 0.000000 0.000000 0.000000 0.000000 0.000000 0.133221
#
#
# Mechanical properties :
#
#
# Convention : Reuss Voigt Hill
#
# Bulk Modulus (GPa) = 9.58954 57.87283 33.73118
# Shear Modulus (GPa) = 9.62455 19.02701 14.32578
#
# Velocity S-wave (km/s) = 2.35722 3.31433 2.87587
# Velocity P-wave (km/s) = 3.59791 6.93238 5.52281
#
# Compressibility (1/GPa) = 0.10428028
#
# Stress axis : x y z
#
# Youngs Moduli (GPa) = 68.64134 7.25625 97.46174
#
# Poissons Ratio (x) = 0.12839 0.56493
# Poissons Ratio (y) = 1.21452 0.55458
# Poissons Ratio (z) = 0.39788 0.04129
#
# Static dielectric constant tensor:
#      x y z
#    x 1.596070 0.000000 0.000000 
#    y 0.000000 1.651640 0.000000 
#    z 0.000000 0.000000 1.593130 
# 
# From -- ./inp_files/60787.got.cif
#   From: 2010.05.17/outbox.cif.g08.bks.cpg/sg65_31_cif.got.tgz:60787.got - 2010.06.03 17:01:31.
