data_PCOD9485885
_publ_section_title
;
Structure prediction by ZEFSAII (Michael W. Deem and Ramdas Pophale) SiO2 
 PCOD9485885
Probable space group: C M M M
;
_chemical_formula_sum "Si O2"
_cell_formula_units_Z 104
_cell_length_a 18.108451
_cell_length_b 18.299531
_cell_length_c 17.828356
_cell_angle_alpha 90.000000
_cell_angle_beta 90.000000
_cell_angle_gamma 90.000000
_cell_volume 5907.892158
_symmetry_space_group_name_H-M "C M M M"
_symmetry_group_IT_number 65
_symmetry_cell_setting 'orthorhombic'
loop_
_space_group_symop_operation_xyz
x,y,z
-x,-y,z
x,-y,-z
-x,y,-z
-x,-y,-z
x,y,-z
-x,y,z
x,-y,z
1/2+x,1/2+y,z
1/2-x,1/2-y,z
1/2+x,1/2-y,-z
1/2-x,1/2+y,-z
1/2-x,1/2-y,-z
1/2+x,1/2+y,-z
1/2-x,1/2+y,z
1/2+x,1/2-y,z
loop_
_atom_site_type_symbol
_atom_site_label
_atom_site_fract_x
_atom_site_fract_y
_atom_site_fract_z
Si Si1 0.703653 0.083398 0.285665
Si Si2 0.803913 0.864055 0.411475
Si Si3 0.834047 0.776205 0.089098
Si Si4 0.917572 0.323702 0.202138
Si Si5 0.915582 0.000000 0.411074
Si Si6 0.855589 0.084887 0.807536
Si Si7 0.579716 0.312109 0.685268
O O1 0.731442 0.122694 0.361756
O O2 0.637964 0.119171 0.239212
O O3 0.775259 0.084787 0.231632
O O4 0.686496 0.000000 0.304909
O O5 0.791343 0.856701 0.500000
O O6 0.861615 0.931392 0.396852
O O7 0.853197 0.802057 0.372592
O O8 0.750000 0.750000 0.105798
O O9 0.885282 0.715462 0.128328
O O10 0.850981 0.855765 0.125501
O O11 0.843667 0.778897 0.000000
O O12 0.921407 0.258433 0.262412
O O13 0.000000 0.352566 0.189421
O O14 0.925676 0.000000 0.500000
O O15 0.000000 0.000000 0.379108
O O16 0.907472 0.121501 0.744244
O O17 0.874471 0.000000 0.825231
O O18 0.500000 0.321322 0.647140
#
# Coordination Sequence:
#
# PCOD9485885 Si02
#       7
#    16  16  16  16   8  16  16
#     4  10  19  34  55  76 103 138 183 231 272 319
#     4  10  19  31  50  76 106 141 178 222 271 322
#     4  10  19  34  58  83 108 141 175 211 263 325
#     4  10  21  38  57  78 105 139 182 228 271 318
#     4   9  16  26  42  70 107 141 170 207 261 319
#     4   9  18  31  50  78 110 144 180 218 259 311
#     4   9  19  32  49  74 108 147 181 219 267 323
#
# _framework density 17.603570999999999
#
# number of rings (size 3 to 8) (size 9 to 14) (size 15 to 20)
#    0.000    2.385    2.308    0.462    1.077    2.154 
#    0.000    1.538    0.000    1.846    0.000    6.462 
#    0.000    0.000    0.000    0.000    0.000    0.000 
#
# Total GULP energy -289576.737132 kJ/mol
# GULP energy per Si atom -5568.783406 kJ/mol
# Density = 1.756350 g / cm^3
# Si number density = 17.603571 Si / 1000 Ang^3
#
#
#
# Elastic Constant Matrix: (Units=GPa)
#
#
# Indices 1 2 3 4 5 6 
#
# 1 80.0291 23.7815 22.5809 0.0000 0.0000 0.0000
# 2 23.7815 44.5300 19.5737 0.0000 0.0000 0.0000
# 3 22.5809 19.5737 91.0648 0.0000 0.0000 0.0000
# 4 0.0000 0.0000 0.0000 16.0963 0.0000 0.0000
# 5 0.0000 0.0000 0.0000 0.0000 17.3353 0.0000
# 6 0.0000 0.0000 0.0000 0.0000 0.0000 27.1458
#
#
#
# Elastic Compliance Matrix: (Units=1/GPa)
#
#
# Indices 1 2 3 4 5 6 
#
# 1 0.015257 -0.007162 -0.002244 0.000000 0.000000 0.000000
# 2 -0.007162 0.028162 -0.004277 0.000000 0.000000 0.000000
# 3 -0.002244 -0.004277 0.012457 0.000000 0.000000 0.000000
# 4 0.000000 0.000000 0.000000 0.062126 0.000000 0.000000
# 5 0.000000 0.000000 0.000000 0.000000 0.057686 0.000000
# 6 0.000000 0.000000 0.000000 0.000000 0.000000 0.036838
#
#
# Mechanical properties :
#
#
# Convention : Reuss Voigt Hill
#
# Bulk Modulus (GPa) = 35.07567 38.61070 36.84319
# Shear Modulus (GPa) = 20.04860 22.09466 21.07163
#
# Velocity S-wave (km/s) = 3.37841 3.54662 3.46354
# Velocity P-wave (km/s) = 5.93185 6.22514 6.08026
#
# Compressibility (1/GPa) = 0.02850979
#
# Stress axis : x y z
#
# Youngs Moduli (GPa) = 65.54481 35.50932 80.27643
#
# Poissons Ratio (x) = 0.25431 0.18012
# Poissons Ratio (y) = 0.46941 0.34337
# Poissons Ratio (z) = 0.14707 0.15188
#
# Static dielectric constant tensor:
#      x y z
#    x 1.641810 0.000000 0.000000 
#    y 0.000000 1.645310 0.000000 
#    z 0.000000 0.000000 1.591170 
# 
# From -- ./inp_files/54619.got.cif
#   From: 2010.05.17/outbox.cif.g08.bks.cpg/sg65_28_cif.got.tgz:54619.got - 2010.06.03 17:01:31.
