data_PCOD9485923
_publ_section_title
;
Structure prediction by ZEFSAII (Michael W. Deem and Ramdas Pophale) SiO2 
 PCOD9485923
Probable space group: C M M M
;
_chemical_formula_sum "Si O2"
_cell_formula_units_Z 64
_cell_length_a 7.965290
_cell_length_b 15.758540
_cell_length_c 24.955961
_cell_angle_alpha 90.000000
_cell_angle_beta 90.000000
_cell_angle_gamma 90.000000
_cell_volume 3132.505693
_symmetry_space_group_name_H-M "C M M M"
_symmetry_group_IT_number 65
_symmetry_cell_setting 'orthorhombic'
loop_
_space_group_symop_operation_xyz
x,y,z
-x,-y,z
x,-y,-z
-x,y,-z
-x,-y,-z
x,y,-z
-x,y,z
x,-y,z
1/2+x,1/2+y,z
1/2-x,1/2-y,z
1/2+x,1/2-y,-z
1/2-x,1/2+y,-z
1/2-x,1/2-y,-z
1/2+x,1/2+y,-z
1/2-x,1/2+y,z
1/2+x,1/2-y,z
loop_
_atom_site_type_symbol
_atom_site_label
_atom_site_fract_x
_atom_site_fract_y
_atom_site_fract_z
Si Si1 0.698910 0.000000 0.701888
Si Si2 0.205425 0.500000 0.419564
Si Si3 0.202679 0.847811 0.000000
Si Si4 0.800776 0.159513 0.772771
Si Si5 0.298045 0.401929 0.883999
Si Si6 0.297973 0.149071 0.500000
O O1 0.748327 0.917554 0.735514
O O2 0.500000 0.000000 0.696952
O O3 0.767280 0.000000 0.641417
O O4 0.255771 0.412533 0.450208
O O5 0.000000 0.500000 0.420636
O O6 0.250000 0.750000 0.000000
O O7 0.267899 0.884300 0.943642
O O8 0.000000 0.860059 0.000000
O O9 0.750000 0.250000 0.750085
O O10 0.729263 0.149747 0.833418
O O11 0.000000 0.155822 0.777598
O O12 0.500000 0.387581 0.887026
O O13 0.271821 0.500000 0.870719
O O14 0.500000 0.149931 0.500000
O O15 0.250000 0.250000 0.500000
#
# Coordination Sequence:
#
# PCOD9485923 Si02
#       6
#     8   8   8  16  16   8
#     4  11  22  39  60  85 115 152 196 239 282 330
#     4   8  18  36  58  82 115 153 187 225 276 331
#     4  10  19  31  51  75 101 132 172 222 278 340
#     4  11  22  38  58  82 113 150 191 237 287 343
#     4   9  17  32  54  77 101 135 180 227 279 340
#     4   9  17  35  60  86 116 151 185 225 274 326
#
# _framework density 20.430928999999999
#
# number of rings (size 3 to 8) (size 9 to 14) (size 15 to 20)
#    0.000    2.250    1.250    3.000    0.000    2.500 
#    0.000    7.500    0.000    0.750    0.000    0.000 
#    0.000    0.000    0.000    0.000    0.000    0.000 
#
# Total GULP energy -178429.887280 kJ/mol
# GULP energy per Si atom -5575.933977 kJ/mol
# Density = 2.038443 g / cm^3
# Si number density = 20.430929 Si / 1000 Ang^3
#
#
#
# Elastic Constant Matrix: (Units=GPa)
#
#
# Indices 1 2 3 4 5 6 
#
# 1 25.8137 4.8793 19.7696 0.0000 0.0000 0.0000
# 2 4.8793 155.7820 104.0782 0.0000 0.0000 0.0000
# 3 19.7696 104.0782 155.5693 0.0000 0.0000 0.0000
# 4 0.0000 0.0000 0.0000 -15.6979 0.0000 0.0000
# 5 0.0000 0.0000 0.0000 0.0000 15.3597 0.0000
# 6 0.0000 0.0000 0.0000 0.0000 0.0000 30.3326
#
#
#
# Elastic Compliance Matrix: (Units=1/GPa)
#
#
# Indices 1 2 3 4 5 6 
#
# 1 0.044459 0.004307 -0.008531 0.000000 0.000000 0.000000
# 2 0.004307 0.012025 -0.008592 0.000000 0.000000 0.000000
# 3 -0.008531 -0.008592 0.013260 0.000000 0.000000 0.000000
# 4 0.000000 0.000000 0.000000 -0.063703 0.000000 0.000000
# 5 0.000000 0.000000 0.000000 0.000000 0.065106 0.000000
# 6 0.000000 0.000000 0.000000 0.000000 0.000000 0.032968
#
#
# Mechanical properties :
#
#
# Convention : Reuss Voigt Hill
#
# Bulk Modulus (GPa) = 22.66978 66.06880 44.36929
# Shear Modulus (GPa) = 34.61386 19.89473 27.25430
#
# Velocity S-wave (km/s) = 4.12052 3.12389 3.65632
# Velocity P-wave (km/s) = 5.81017 6.73939 6.29196
#
# Compressibility (1/GPa) = 0.04411159
#
# Stress axis : x y z
#
# Youngs Moduli (GPa) = 22.49271 83.16218 75.41250
#
# Poissons Ratio (x) = -0.35821 0.64338
# Poissons Ratio (y) = -0.09688 0.64795
# Poissons Ratio (z) = 0.19190 0.71454
#
# Static dielectric constant tensor:
#      x y z
#    x 1.742800 0.000000 0.000000 
#    y 0.000000 1.702170 0.000000 
#    z 0.000000 0.000000 1.791490 
# 
# From -- ./inp_files/66887.got.cif
#   From: 2010.05.17/outbox.cif.g08.bks.cpg/sg65_34_cif.got.tgz:66887.got - 2010.06.03 17:01:31.
