data_PCOD9485908
_publ_section_title
;
Structure prediction by ZEFSAII (Michael W. Deem and Ramdas Pophale) SiO2 
 PCOD9485908
Probable space group: C M M M
;
_chemical_formula_sum "Si O2"
_cell_formula_units_Z 56
_cell_length_a 34.273773
_cell_length_b 9.014492
_cell_length_c 10.485336
_cell_angle_alpha 90.000000
_cell_angle_beta 90.000000
_cell_angle_gamma 90.000000
_cell_volume 3239.556252
_symmetry_space_group_name_H-M "C M M M"
_symmetry_group_IT_number 65
_symmetry_cell_setting 'orthorhombic'
loop_
_space_group_symop_operation_xyz
x,y,z
-x,-y,z
x,-y,-z
-x,y,-z
-x,-y,-z
x,y,-z
-x,y,z
x,-y,z
1/2+x,1/2+y,z
1/2-x,1/2-y,z
1/2+x,1/2-y,-z
1/2-x,1/2+y,-z
1/2-x,1/2-y,-z
1/2+x,1/2+y,-z
1/2-x,1/2+y,z
1/2+x,1/2-y,z
loop_
_atom_site_type_symbol
_atom_site_label
_atom_site_fract_x
_atom_site_fract_y
_atom_site_fract_z
Si Si1 0.418998 0.822677 0.348903
Si Si2 0.841876 0.821289 0.749008
Si Si3 0.500000 0.329412 0.345201
Si Si4 0.207840 0.177836 0.500000
Si Si5 0.792833 0.821262 0.000000
O O1 0.413001 0.784977 0.500000
O O2 0.383515 0.755586 0.268689
O O3 0.460367 0.753760 0.307842
O O4 0.420140 0.000000 0.339142
O O5 0.816174 0.780106 0.625737
O O6 0.817820 0.780044 0.875091
O O7 0.847179 0.000000 0.748944
O O8 0.500000 0.500000 0.302390
O O9 0.500000 0.329401 0.500000
O O10 0.250000 0.250000 0.500000
O O11 0.211965 0.000000 0.500000
O O12 0.750000 0.750000 0.000000
O O13 0.788319 0.000000 0.000000
#
# Coordination Sequence:
#
# PCOD9485908 Si02
#       5
#    16  16   8   8   8
#     4  10  19  31  50  79 110 139 175 219 262 308
#     4  10  20  35  53  75 104 139 176 216 263 317
#     4   9  17  29  49  76 109 146 175 208 258 316
#     4  10  20  32  50  73 100 131 168 214 263 312
#     4  10  22  38  56  77 104 139 180 222 265 318
#
# _framework density 17.286317
#
# number of rings (size 3 to 8) (size 9 to 14) (size 15 to 20)
#    0.000    2.143    1.429    2.143    0.000    5.143 
#    0.000    0.000    0.000    0.857    0.000    6.000 
#    0.000    0.000    0.000    0.000    0.000    0.000 
#
# Total GULP energy -156272.044477 kJ/mol
# GULP energy per Si atom -5581.144446 kJ/mol
# Density = 1.724697 g / cm^3
# Si number density = 17.286317 Si / 1000 Ang^3
#
#
#
# Elastic Constant Matrix: (Units=GPa)
#
#
# Indices 1 2 3 4 5 6 
#
# 1 210.5283 70.4509 83.1396 0.0000 0.0000 0.0000
# 2 70.4509 46.2509 39.6456 0.0000 0.0000 0.0000
# 3 83.1396 39.6456 116.5193 0.0000 0.0000 0.0000
# 4 0.0000 0.0000 0.0000 8.5923 0.0000 0.0000
# 5 0.0000 0.0000 0.0000 0.0000 23.8830 0.0000
# 6 0.0000 0.0000 0.0000 0.0000 0.0000 41.9083
#
#
#
# Elastic Compliance Matrix: (Units=1/GPa)
#
#
# Indices 1 2 3 4 5 6 
#
# 1 0.010315 -0.013275 -0.002843 0.000000 0.000000 0.000000
# 2 -0.013275 0.047608 -0.006726 0.000000 0.000000 0.000000
# 3 -0.002843 -0.006726 0.012900 0.000000 0.000000 0.000000
# 4 0.000000 0.000000 0.000000 0.116383 0.000000 0.000000
# 5 0.000000 0.000000 0.000000 0.000000 0.041871 0.000000
# 6 0.000000 0.000000 0.000000 0.000000 0.000000 0.023862
#
#
# Mechanical properties :
#
#
# Convention : Reuss Voigt Hill
#
# Bulk Modulus (GPa) = 39.78790 84.41894 62.10342
# Shear Modulus (GPa) = 16.28631 26.88087 21.58359
#
# Velocity S-wave (km/s) = 3.07278 3.94767 3.53738
# Velocity P-wave (km/s) = 5.97128 8.34988 7.25868
#
# Compressibility (1/GPa) = 0.02513327
#
# Stress axis : x y z
#
# Youngs Moduli (GPa) = 96.94432 21.00474 77.52127
#
# Poissons Ratio (x) = 0.27884 0.22041
# Poissons Ratio (y) = 1.28696 0.52144
# Poissons Ratio (z) = 0.27564 0.14129
#
# Static dielectric constant tensor:
#      x y z
#    x 1.558350 0.000000 0.000000 
#    y 0.000000 1.578940 0.000000 
#    z 0.000000 0.000000 1.579950 
# 
# From -- ./inp_files/20828.got.cif
#   From: 2010.05.17/outbox.cif.g08.bks.cpg/sg65_11_cif.got.tgz:20828.got - 2010.06.03 17:01:31.
