data_PCOD9485626
_publ_section_title
;
Structure prediction by ZEFSAII (Michael W. Deem and Ramdas Pophale) SiO2 
 PCOD9485626
Probable space group: C M M M
;
_chemical_formula_sum "Si O2"
_cell_formula_units_Z 120
_cell_length_a 18.400067
_cell_length_b 17.928848
_cell_length_c 19.762497
_cell_angle_alpha 90.000000
_cell_angle_beta 90.000000
_cell_angle_gamma 90.000000
_cell_volume 6519.489748
_symmetry_space_group_name_H-M "C M M M"
_symmetry_group_IT_number 65
_symmetry_cell_setting 'orthorhombic'
loop_
_space_group_symop_operation_xyz
x,y,z
-x,-y,z
x,-y,-z
-x,y,-z
-x,-y,-z
x,y,-z
-x,y,z
x,-y,z
1/2+x,1/2+y,z
1/2-x,1/2-y,z
1/2+x,1/2-y,-z
1/2-x,1/2+y,-z
1/2-x,1/2-y,-z
1/2+x,1/2+y,-z
1/2-x,1/2+y,z
1/2+x,1/2-y,z
loop_
_atom_site_type_symbol
_atom_site_label
_atom_site_fract_x
_atom_site_fract_y
_atom_site_fract_z
Si Si1 0.417619 0.841481 0.290026
Si Si2 0.416167 0.333943 0.686395
Si Si3 0.082646 0.910145 0.827429
Si Si4 0.787013 0.908966 0.077712
Si Si5 0.856258 0.590152 0.839828
Si Si6 0.000000 0.409269 0.077740
Si Si7 0.143427 0.411730 0.423739
Si Si8 0.790476 0.172100 0.578763
O O1 0.500000 0.864505 0.272147
O O2 0.413445 0.752496 0.291514
O O3 0.363948 0.875528 0.234499
O O4 0.399511 0.870881 0.364663
O O5 0.500000 0.350559 0.666497
O O6 0.397864 0.382276 0.752505
O O7 0.358256 0.343445 0.626802
O O8 0.140872 0.884411 0.882652
O O9 0.000000 0.884943 0.841779
O O10 0.083020 0.000000 0.827666
O O11 0.716001 0.887023 0.120212
O O12 0.787336 0.000000 0.076404
O O13 0.784335 0.883797 0.000000
O O14 0.856388 0.500000 0.834218
O O15 0.927225 0.613142 0.882842
O O16 0.000000 0.500000 0.076529
O O17 0.000000 0.383904 0.000000
O O18 0.122102 0.387698 0.500000
O O19 0.133010 0.500000 0.418337
O O20 0.228077 0.390276 0.415816
O O21 0.812562 0.178526 0.500000
O O22 0.750000 0.250000 0.597218
#
# Coordination Sequence:
#
# PCOD9485626 Si02
#       8
#    16  16  16  16  16   8  16  16
#     4  11  22  36  54  79 113 153 191 225 270 330
#     4  10  22  37  56  83 111 146 187 229 276 329
#     4   9  19  36  57  82 109 138 177 229 285 336
#     4   9  18  32  53  82 109 135 176 228 280 335
#     4  10  19  31  48  76 110 143 181 226 268 317
#     4   9  16  28  48  70  99 143 186 224 267 312
#     4  10  22  38  57  84 115 147 185 231 279 326
#     4  10  20  37  58  80 108 145 188 229 272 326
#
# _framework density 18.406348000000001
#
# number of rings (size 3 to 8) (size 9 to 14) (size 15 to 20)
#    0.000    2.200    2.000    0.800    1.867    3.733 
#    0.000    3.333    0.000    2.400    0.000    3.733 
#    0.000    0.000    0.000    0.000    0.000    0.000 
#
# Total GULP energy -334803.802781 kJ/mol
# GULP energy per Si atom -5580.063380 kJ/mol
# Density = 1.836445 g / cm^3
# Si number density = 18.406348 Si / 1000 Ang^3
#
#
#
# Elastic Constant Matrix: (Units=GPa)
#
#
# Indices 1 2 3 4 5 6 
#
# 1 97.3635 3.2148 66.8637 0.0000 0.0000 0.0000
# 2 3.2148 7.6815 5.8725 0.0000 0.0000 0.0000
# 3 66.8637 5.8725 115.7826 0.0000 0.0000 0.0000
# 4 0.0000 0.0000 0.0000 7.3244 0.0000 0.0000
# 5 0.0000 0.0000 0.0000 0.0000 31.8570 0.0000
# 6 0.0000 0.0000 0.0000 0.0000 0.0000 12.8725
#
#
#
# Elastic Compliance Matrix: (Units=1/GPa)
#
#
# Indices 1 2 3 4 5 6 
#
# 1 0.017022 0.000407 -0.009851 0.000000 0.000000 0.000000
# 2 0.000407 0.135444 -0.007105 0.000000 0.000000 0.000000
# 3 -0.009851 -0.007105 0.014686 0.000000 0.000000 0.000000
# 4 0.000000 0.000000 0.000000 0.136529 0.000000 0.000000
# 5 0.000000 0.000000 0.000000 0.000000 0.031390 0.000000
# 6 0.000000 0.000000 0.000000 0.000000 0.000000 0.077685
#
#
# Mechanical properties :
#
#
# Convention : Reuss Voigt Hill
#
# Bulk Modulus (GPa) = 7.45960 41.41441 24.43700
# Shear Modulus (GPa) = 10.19284 20.06923 15.13104
#
# Velocity S-wave (km/s) = 2.35578 3.30562 2.87026
# Velocity P-wave (km/s) = 3.38543 6.09249 4.92846
#
# Compressibility (1/GPa) = 0.13405541
#
# Stress axis : x y z
#
# Youngs Moduli (GPa) = 58.74598 7.38310 68.09153
#
# Poissons Ratio (x) = -0.00301 0.67077
# Poissons Ratio (y) = -0.02391 0.48378
# Poissons Ratio (z) = 0.57871 0.05246
#
# Static dielectric constant tensor:
#      x y z
#    x 1.635560 0.000000 0.000000 
#    y 0.000000 1.620630 0.000000 
#    z 0.000000 0.000000 1.617340 
# 
# From -- ./inp_files/54928.got.cif
#   From: 2010.05.17/outbox.cif.g08.bks.cpg/sg65_28_cif.got.tgz:54928.got - 2010.06.03 17:01:31.
