data_PCOD9485280
_publ_section_title
;
Structure prediction by ZEFSAII (Michael W. Deem and Ramdas Pophale) SiO2 
 PCOD9485280
Probable space group: C M M M
;
_chemical_formula_sum "Si O2"
_cell_formula_units_Z 50
_cell_length_a 22.226980
_cell_length_b 19.409908
_cell_length_c 5.386380
_cell_angle_alpha 90.000000
_cell_angle_beta 90.000000
_cell_angle_gamma 90.000000
_cell_volume 2323.811649
_symmetry_space_group_name_H-M "C M M M"
_symmetry_group_IT_number 65
_symmetry_cell_setting 'orthorhombic'
loop_
_space_group_symop_operation_xyz
x,y,z
-x,-y,z
x,-y,-z
-x,y,-z
-x,-y,-z
x,y,-z
-x,y,z
x,-y,z
1/2+x,1/2+y,z
1/2-x,1/2-y,z
1/2+x,1/2-y,-z
1/2-x,1/2+y,-z
1/2-x,1/2-y,-z
1/2+x,1/2+y,-z
1/2-x,1/2+y,z
1/2+x,1/2-y,z
loop_
_atom_site_type_symbol
_atom_site_label
_atom_site_fract_x
_atom_site_fract_y
_atom_site_fract_z
Si Si1 0.927273 0.344567 0.000000
Si Si2 0.893837 0.808092 0.000000
Si Si3 0.763101 0.915477 0.500000
Si Si4 0.243764 0.165198 0.000000
Si Si5 0.406344 0.376563 0.500000
Si Si6 0.500000 0.500000 0.500000
Si Si7 0.926999 0.576704 0.500000
O O1 0.892695 0.273410 0.000000
O O2 0.911199 0.385170 0.752036
O O3 0.000000 0.332652 0.000000
O O4 0.921825 0.833226 0.255237
O O5 0.828188 0.840739 0.000000
O O6 0.737654 0.875816 0.747339
O O7 0.835611 0.899208 0.500000
O O8 0.755033 0.000000 0.500000
O O9 0.250000 0.250000 0.000000
O O10 0.447819 0.441701 0.500000
O O11 0.902118 0.500000 0.500000
O O12 0.000000 0.572768 0.500000
#
# Coordination Sequence:
#
# PCOD9485280 Si02
#       7
#     8   8   8   8   8   2   8
#     4  10  19  30  49  72 100 134 167 210 266 313
#     4  10  22  38  53  79 111 144 190 234 274 323
#     4  10  19  38  58  87 115 146 193 237 287 338
#     4  10  21  37  62  83 108 148 191 236 291 346
#     4  10  23  35  54  79 113 158 190 228 265 326
#     4  12  24  38  56  82 124 162 198 222 280 326
#     4   9  17  30  48  70  94 127 172 209 250 313
#
# _framework density 21.516373000000002
#
# number of rings (size 3 to 8) (size 9 to 14) (size 15 to 20)
#    0.000    2.080    0.800    2.400    2.240    3.200 
#    0.000    0.000    0.000    5.760    0.000    0.000 
#    0.000    0.000    0.000    0.000    0.000    0.000 
#
# Total GULP energy -139202.487229 kJ/mol
# GULP energy per Si atom -5568.099489 kJ/mol
# Density = 2.146740 g / cm^3
# Si number density = 21.516373 Si / 1000 Ang^3
#
#
#
# Elastic Constant Matrix: (Units=GPa)
#
#
# Indices 1 2 3 4 5 6 
#
# 1 49.8971 -16.6360 8.1429 0.0000 0.0000 0.0000
# 2 -16.6360 177.1924 120.5816 0.0000 0.0000 0.0000
# 3 8.1429 120.5816 245.4027 0.0000 0.0000 0.0000
# 4 0.0000 0.0000 0.0000 20.6851 0.0000 0.0000
# 5 0.0000 0.0000 0.0000 0.0000 20.6124 0.0000
# 6 0.0000 0.0000 0.0000 0.0000 0.0000 34.2385
#
#
#
# Elastic Compliance Matrix: (Units=1/GPa)
#
#
# Indices 1 2 3 4 5 6 
#
# 1 0.021732 0.003803 -0.002590 0.000000 0.000000 0.000000
# 2 0.003803 0.009144 -0.004619 0.000000 0.000000 0.000000
# 3 -0.002590 -0.004619 0.006431 0.000000 0.000000 0.000000
# 4 0.000000 0.000000 0.000000 0.048344 0.000000 0.000000
# 5 0.000000 0.000000 0.000000 0.000000 0.048515 0.000000
# 6 0.000000 0.000000 0.000000 0.000000 0.000000 0.029207
#
#
# Mechanical properties :
#
#
# Convention : Reuss Voigt Hill
#
# Bulk Modulus (GPa) = 32.79355 77.40768 55.10061
# Shear Modulus (GPa) = 27.72409 39.13410 33.42910
#
# Velocity S-wave (km/s) = 3.59348 4.26937 3.94592
# Velocity P-wave (km/s) = 5.70015 7.76902 6.81357
#
# Compressibility (1/GPa) = 0.03049380
#
# Stress axis : x y z
#
# Youngs Moduli (GPa) = 46.01589 109.36125 155.50755
#
# Poissons Ratio (x) = -0.41585 0.40269
# Poissons Ratio (y) = -0.17498 0.71832
# Poissons Ratio (z) = 0.11916 0.50516
#
# Static dielectric constant tensor:
#      x y z
#    x 1.826220 0.000000 0.000000 
#    y 0.000000 1.731300 0.000000 
#    z 0.000000 0.000000 1.769180 
# 
# From -- ./inp_files/1596.got.cif
#   From: 2010.05.17/outbox.cif.g08.bks.cpg/sg65_1_cif.got.tgz:1596.got - 2010.06.03 17:01:31.
