data_PCOD9485697
_publ_section_title
;
Structure prediction by ZEFSAII (Michael W. Deem and Ramdas Pophale) SiO2 
 PCOD9485697
Probable space group: C M M M
;
_chemical_formula_sum "Si O2"
_cell_formula_units_Z 80
_cell_length_a 18.982768
_cell_length_b 27.619989
_cell_length_c 9.220100
_cell_angle_alpha 90.000000
_cell_angle_beta 90.000000
_cell_angle_gamma 90.000000
_cell_volume 4834.133866
_symmetry_space_group_name_H-M "C M M M"
_symmetry_group_IT_number 65
_symmetry_cell_setting 'orthorhombic'
loop_
_space_group_symop_operation_xyz
x,y,z
-x,-y,z
x,-y,-z
-x,y,-z
-x,-y,-z
x,y,-z
-x,y,z
x,-y,z
1/2+x,1/2+y,z
1/2-x,1/2-y,z
1/2+x,1/2-y,-z
1/2-x,1/2+y,-z
1/2-x,1/2-y,-z
1/2+x,1/2+y,-z
1/2-x,1/2+y,z
1/2+x,1/2-y,z
loop_
_atom_site_type_symbol
_atom_site_label
_atom_site_fract_x
_atom_site_fract_y
_atom_site_fract_z
Si Si1 0.641926 0.555127 0.673438
Si Si2 0.789235 0.605247 0.327799
Si Si3 0.276806 0.696863 0.174605
Si Si4 0.578931 0.352253 0.174125
Si Si5 0.919782 0.442128 0.171497
O O1 0.630446 0.558548 0.500000
O O2 0.627004 0.500000 0.718893
O O3 0.723855 0.568628 0.700686
O O4 0.597232 0.596315 0.753162
O O5 0.794157 0.611651 0.500000
O O6 0.768394 0.655295 0.251162
O O7 0.860745 0.584364 0.263154
O O8 0.250000 0.750000 0.216026
O O9 0.358322 0.684924 0.212707
O O10 0.270069 0.692428 0.000000
O O11 0.500000 0.336736 0.215217
O O12 0.581015 0.358033 0.000000
O O13 0.913809 0.500000 0.191677
O O14 0.000000 0.428184 0.209607
O O15 0.909727 0.432473 0.000000
#
# Coordination Sequence:
#
# PCOD9485697 Si02
#       5
#    16  16  16  16  16
#     4   9  18  31  46  67  96 129 161 189 223 274
#     4  10  19  31  49  72  98 126 159 201 245 290
#     4   9  18  34  54  72  92 123 163 202 243 292
#     4   9  18  32  49  70  95 121 153 195 238 278
#     4   9  18  32  49  70  98 132 167 201 239 286
#
# _framework density 16.548983
#
# number of rings (size 3 to 8) (size 9 to 14) (size 15 to 20)
#    0.000    2.800    0.000    1.800    0.000    4.000 
#    0.000    4.000    0.000    3.600    0.000    0.000 
#    0.000    0.000    0.000    0.000    0.000    0.000 
#
# Total GULP energy -222967.532083 kJ/mol
# GULP energy per Si atom -5574.188302 kJ/mol
# Density = 1.651132 g / cm^3
# Si number density = 16.548983 Si / 1000 Ang^3
#
#
#
# Elastic Constant Matrix: (Units=GPa)
#
#
# Indices 1 2 3 4 5 6 
#
# 1 123.7922 54.8318 42.9037 0.0000 0.0000 0.0000
# 2 54.8318 94.2580 29.6868 0.0000 0.0000 0.0000
# 3 42.9037 29.6868 22.0419 0.0000 0.0000 0.0000
# 4 0.0000 0.0000 0.0000 19.3262 0.0000 0.0000
# 5 0.0000 0.0000 0.0000 0.0000 21.0055 0.0000
# 6 0.0000 0.0000 0.0000 0.0000 0.0000 11.2585
#
#
#
# Elastic Compliance Matrix: (Units=1/GPa)
#
#
# Indices 1 2 3 4 5 6 
#
# 1 0.024924 0.001356 -0.050340 0.000000 0.000000 0.000000
# 2 0.001356 0.018498 -0.027553 0.000000 0.000000 0.000000
# 3 -0.050340 -0.027553 0.180463 0.000000 0.000000 0.000000
# 4 0.000000 0.000000 0.000000 0.051743 0.000000 0.000000
# 5 0.000000 0.000000 0.000000 0.000000 0.047607 0.000000
# 6 0.000000 0.000000 0.000000 0.000000 0.000000 0.088821
#
#
# Mechanical properties :
#
#
# Convention : Reuss Voigt Hill
#
# Bulk Modulus (GPa) = 14.12223 54.99296 34.55759
# Shear Modulus (GPa) = 8.49277 17.82939 13.16108
#
# Velocity S-wave (km/s) = 2.26783 3.28589 2.82313
# Velocity P-wave (km/s) = 3.92549 6.90642 5.61730
#
# Compressibility (1/GPa) = 0.07081037
#
# Stress axis : x y z
#
# Youngs Moduli (GPa) = 40.12134 54.05854 5.54130
#
# Poissons Ratio (x) = -0.07329 0.27895
# Poissons Ratio (y) = -0.05440 0.15268
# Poissons Ratio (z) = 2.01972 1.48949
#
# Static dielectric constant tensor:
#      x y z
#    x 1.563780 0.000000 0.000000 
#    y 0.000000 1.526940 0.000000 
#    z 0.000000 0.000000 1.544540 
# 
# From -- ./inp_files/9620.got.cif
#   From: 2010.05.17/outbox.cif.g08.bks.cpg/sg65_5_cif.got.tgz:9620.got - 2010.06.03 17:01:31.
