data_PCOD9485051
_publ_section_title
;
Structure prediction by ZEFSAII (Michael W. Deem and Ramdas Pophale) SiO2 
 PCOD9485051
Probable space group: C M M M
;
_chemical_formula_sum "Si O2"
_cell_formula_units_Z 64
_cell_length_a 34.835739
_cell_length_b 9.142773
_cell_length_c 12.993797
_cell_angle_alpha 90.000000
_cell_angle_beta 90.000000
_cell_angle_gamma 90.000000
_cell_volume 4138.462675
_symmetry_space_group_name_H-M "C M M M"
_symmetry_group_IT_number 65
_symmetry_cell_setting 'orthorhombic'
loop_
_space_group_symop_operation_xyz
x,y,z
-x,-y,z
x,-y,-z
-x,y,-z
-x,-y,-z
x,y,-z
-x,y,z
x,-y,z
1/2+x,1/2+y,z
1/2-x,1/2-y,z
1/2+x,1/2-y,-z
1/2-x,1/2+y,-z
1/2-x,1/2-y,-z
1/2+x,1/2+y,-z
1/2-x,1/2+y,z
1/2+x,1/2-y,z
loop_
_atom_site_type_symbol
_atom_site_label
_atom_site_fract_x
_atom_site_fract_y
_atom_site_fract_z
Si Si1 0.078615 0.326419 0.123321
Si Si2 0.709608 0.324495 0.618620
Si Si3 0.655364 0.323996 0.804914
Si Si4 0.708674 0.675220 0.000000
Si Si5 0.000000 0.831342 0.874932
O O1 0.076904 0.500000 0.139760
O O2 0.115143 0.255341 0.178034
O O3 0.038808 0.251187 0.156529
O O4 0.083004 0.301260 0.000000
O O5 0.700608 0.286032 0.500000
O O6 0.714368 0.500000 0.624393
O O7 0.750000 0.250000 0.646060
O O8 0.676685 0.283889 0.699178
O O9 0.649613 0.500000 0.807462
O O10 0.683843 0.286101 0.899255
O O11 0.750000 0.750000 0.000000
O O12 0.713912 0.500000 0.000000
O O13 0.000000 0.000000 0.841546
O O14 0.000000 0.830225 0.000000
#
# Coordination Sequence:
#
# PCOD9485051 Si02
#       5
#    16  16  16   8   8
#     4  10  19  30  45  68  96 124 155 192 228 270
#     4   9  18  32  49  68  90 119 157 200 240 276
#     4  10  19  31  46  65  92 124 156 190 230 279
#     4  10  20  30  42  61  88 121 154 186 225 274
#     4   9  17  29  47  67  92 127 158 185 223 273
#
# _framework density 15.464679
#
# number of rings (size 3 to 8) (size 9 to 14) (size 15 to 20)
#    0.000    2.375    1.250    1.875    0.000    4.500 
#    0.000    0.000    0.000    0.000    0.000    0.875 
#    0.000    7.000    0.000    0.000    0.000    0.000 
#
# Total GULP energy -178476.444289 kJ/mol
# GULP energy per Si atom -5577.388884 kJ/mol
# Density = 1.542948 g / cm^3
# Si number density = 15.464679 Si / 1000 Ang^3
#
#
#
# Elastic Constant Matrix: (Units=GPa)
#
#
# Indices 1 2 3 4 5 6 
#
# 1 185.6405 76.0564 73.0489 0.0000 0.0000 0.0000
# 2 76.0564 53.1106 41.5381 0.0000 0.0000 0.0000
# 3 73.0489 41.5381 67.7235 0.0000 0.0000 0.0000
# 4 0.0000 0.0000 0.0000 9.9579 0.0000 0.0000
# 5 0.0000 0.0000 0.0000 0.0000 19.8863 0.0000
# 6 0.0000 0.0000 0.0000 0.0000 0.0000 35.5797
#
#
#
# Elastic Compliance Matrix: (Units=1/GPa)
#
#
# Indices 1 2 3 4 5 6 
#
# 1 0.013985 -0.015817 -0.005384 0.000000 0.000000 0.000000
# 2 -0.015817 0.054077 -0.016107 0.000000 0.000000 0.000000
# 3 -0.005384 -0.016107 0.030453 0.000000 0.000000 0.000000
# 4 0.000000 0.000000 0.000000 0.100423 0.000000 0.000000
# 5 0.000000 0.000000 0.000000 0.000000 0.050286 0.000000
# 6 0.000000 0.000000 0.000000 0.000000 0.000000 0.028106
#
#
# Mechanical properties :
#
#
# Convention : Reuss Voigt Hill
#
# Bulk Modulus (GPa) = 41.84346 76.41792 59.13069
# Shear Modulus (GPa) = 13.89232 20.80685 17.34959
#
# Velocity S-wave (km/s) = 3.00046 3.67201 3.35309
# Velocity P-wave (km/s) = 6.25459 8.21584 7.30136
#
# Compressibility (1/GPa) = 0.02389860
#
# Stress axis : x y z
#
# Youngs Moduli (GPa) = 71.50293 18.49229 32.83802
#
# Poissons Ratio (x) = 0.29249 0.17680
# Poissons Ratio (y) = 1.13096 0.52893
# Poissons Ratio (z) = 0.38496 0.29786
#
# Static dielectric constant tensor:
#      x y z
#    x 1.485540 0.000000 0.000000 
#    y 0.000000 1.513810 0.000000 
#    z 0.000000 0.000000 1.508190 
# 
# From -- ./inp_files/33223.got.cif
#   From: 2010.05.17/outbox.cif.g08.bks.cpg/sg65_17_cif.got.tgz:33223.got - 2010.06.03 17:01:31.
