data_PCOD9485388
_publ_section_title
;
Structure prediction by ZEFSAII (Michael W. Deem and Ramdas Pophale) SiO2 
 PCOD9485388
Probable space group: C M M M
;
_chemical_formula_sum "Si O2"
_cell_formula_units_Z 72
_cell_length_a 9.880686
_cell_length_b 27.936447
_cell_length_c 17.378499
_cell_angle_alpha 90.000000
_cell_angle_beta 90.000000
_cell_angle_gamma 90.000000
_cell_volume 4797.008989
_symmetry_space_group_name_H-M "C M M M"
_symmetry_group_IT_number 65
_symmetry_cell_setting 'orthorhombic'
loop_
_space_group_symop_operation_xyz
x,y,z
-x,-y,z
x,-y,-z
-x,y,-z
-x,-y,-z
x,y,-z
-x,y,z
x,-y,z
1/2+x,1/2+y,z
1/2-x,1/2-y,z
1/2+x,1/2-y,-z
1/2-x,1/2+y,-z
1/2-x,1/2-y,-z
1/2+x,1/2+y,-z
1/2-x,1/2+y,z
1/2+x,1/2-y,z
loop_
_atom_site_type_symbol
_atom_site_label
_atom_site_fract_x
_atom_site_fract_y
_atom_site_fract_z
Si Si1 0.653304 0.556174 0.713869
Si Si2 0.500000 0.823819 0.406765
Si Si3 0.713875 0.635071 0.592309
Si Si4 0.156917 0.441851 0.144747
Si Si5 0.841806 0.058336 0.000000
Si Si6 0.500000 0.284926 0.407113
O O1 0.500000 0.560830 0.745975
O O2 0.672846 0.500000 0.695318
O O3 0.664742 0.589475 0.639440
O O4 0.765490 0.570665 0.776499
O O5 0.500000 0.820416 0.500000
O O6 0.366889 0.852748 0.386278
O O7 0.500000 0.769148 0.377249
O O8 0.701392 0.627969 0.500000
O O9 0.627973 0.682358 0.613061
O O10 0.152889 0.500000 0.142044
O O11 0.253817 0.426698 0.074333
O O12 0.000000 0.425595 0.140088
O O13 0.000000 0.073785 0.000000
O O14 0.845315 0.000000 0.000000
O O15 0.500000 0.281262 0.500000
#
# Coordination Sequence:
#
# PCOD9485388 Si02
#       6
#    16   8  16  16   8   8
#     4  10  20  32  44  60  87 124 161 192 222 259
#     4   9  18  30  47  67  87 108 138 187 244 291
#     4  10  19  31  46  66  88 116 154 191 230 274
#     4   9  17  28  43  62  85 115 150 186 224 263
#     4   9  15  25  43  65  87 111 144 183 222 267
#     4   9  16  30  49  67  85 108 142 187 238 287
#
# _framework density 15.009353000000001
#
# number of rings (size 3 to 8) (size 9 to 14) (size 15 to 20)
#    0.000    2.556    1.111    1.667    1.556    7.111 
#    0.000    1.111    0.000    2.000    0.000    0.000 
#    0.000    0.000    0.000    6.000    0.000    0.778 
#
# Total GULP energy -200404.778026 kJ/mol
# GULP energy per Si atom -5566.799390 kJ/mol
# Density = 1.497519 g / cm^3
# Si number density = 15.009353 Si / 1000 Ang^3
#
#
#
# Elastic Constant Matrix: (Units=GPa)
#
#
# Indices 1 2 3 4 5 6 
#
# 1 131.2701 22.3363 34.0297 0.0000 0.0000 0.0000
# 2 22.3363 40.1489 24.3027 0.0000 0.0000 0.0000
# 3 34.0297 24.3027 57.5869 0.0000 0.0000 0.0000
# 4 0.0000 0.0000 0.0000 -0.5550 0.0000 0.0000
# 5 0.0000 0.0000 0.0000 0.0000 17.6503 0.0000
# 6 0.0000 0.0000 0.0000 0.0000 0.0000 -2.7031
#
#
#
# Elastic Compliance Matrix: (Units=1/GPa)
#
#
# Indices 1 2 3 4 5 6 
#
# 1 0.009172 -0.002447 -0.004387 0.000000 0.000000 0.000000
# 2 -0.002447 0.034106 -0.012947 0.000000 0.000000 0.000000
# 3 -0.004387 -0.012947 0.025421 0.000000 0.000000 0.000000
# 4 0.000000 0.000000 0.000000 -1.801681 0.000000 0.000000
# 5 0.000000 0.000000 0.000000 0.000000 0.056656 0.000000
# 6 0.000000 0.000000 0.000000 0.000000 0.000000 -0.369943
#
#
# Mechanical properties :
#
#
# Convention : Reuss Voigt Hill
#
# Bulk Modulus (GPa) = 34.32152 43.37148 38.84650
# Shear Modulus (GPa) = -2.50376 12.76758 5.13191
#
# Velocity S-wave (km/s) = -1.29296 2.91974 1.85110
# Velocity P-wave (km/s) = 4.54834 6.35024 5.52327
#
# Compressibility (1/GPa) = 0.02913624
#
# Stress axis : x y z
#
# Youngs Moduli (GPa) = 109.03333 29.32062 39.33686
#
# Poissons Ratio (x) = 0.07174 0.17257
# Poissons Ratio (y) = 0.26679 0.50930
# Poissons Ratio (z) = 0.47834 0.37962
#
# Static dielectric constant tensor:
#      x y z
#    x 1.546930 0.000000 0.000000 
#    y 0.000000 1.464290 0.000000 
#    z 0.000000 0.000000 1.490790 
# 
# From -- ./inp_files/36681.got.cif
#   From: 2010.05.17/outbox.cif.g08.bks.cpg/sg65_19_cif.got.tgz:36681.got - 2010.06.03 17:01:31.
