data_PCOD9485106
_publ_section_title
;
Structure prediction by ZEFSAII (Michael W. Deem and Ramdas Pophale) SiO2 
 PCOD9485106
Probable space group: C M M M
;
_chemical_formula_sum "Si O2"
_cell_formula_units_Z 96
_cell_length_a 19.177151
_cell_length_b 23.807350
_cell_length_c 13.686411
_cell_angle_alpha 90.000000
_cell_angle_beta 90.000000
_cell_angle_gamma 90.000000
_cell_volume 6248.628743
_symmetry_space_group_name_H-M "C M M M"
_symmetry_group_IT_number 65
_symmetry_cell_setting 'orthorhombic'
loop_
_space_group_symop_operation_xyz
x,y,z
-x,-y,z
x,-y,-z
-x,y,-z
-x,-y,-z
x,y,-z
-x,y,z
x,-y,z
1/2+x,1/2+y,z
1/2-x,1/2-y,z
1/2+x,1/2-y,-z
1/2-x,1/2+y,-z
1/2-x,1/2-y,-z
1/2+x,1/2+y,-z
1/2-x,1/2+y,z
1/2+x,1/2-y,z
loop_
_atom_site_type_symbol
_atom_site_label
_atom_site_fract_x
_atom_site_fract_y
_atom_site_fract_z
Si Si1 0.917534 0.937160 0.722124
Si Si2 0.082806 0.176573 0.613658
Si Si3 0.819171 0.110995 0.115811
Si Si4 0.671323 0.268942 0.783266
Si Si5 0.334638 0.936430 0.118123
Si Si6 0.580954 0.828541 0.118059
O O1 0.903567 0.888302 0.643714
O O2 0.874957 0.922247 0.819396
O O3 0.000000 0.935124 0.743317
O O4 0.900208 0.000000 0.688260
O O5 0.097821 0.185997 0.500000
O O6 0.129282 0.213266 0.686464
O O7 0.000000 0.186930 0.630064
O O8 0.824455 0.175995 0.147703
O O9 0.742549 0.086852 0.140245
O O10 0.830268 0.105052 0.000000
O O11 0.750000 0.250000 0.761848
O O12 0.629237 0.219445 0.836439
O O13 0.390319 0.889644 0.149582
O O14 0.344578 0.000000 0.155012
O O15 0.338992 0.938974 0.000000
O O16 0.500000 0.821012 0.144383
O O17 0.586379 0.825571 0.000000
#
# Coordination Sequence:
#
# PCOD9485106 Si02
#       6
#    16  16  16  16  16  16
#     4   9  18  31  47  70  98 129 166 202 236 279
#     4   9  19  35  52  71  96 124 156 199 250 298
#     4  10  19  30  46  68  99 135 166 195 234 280
#     4  11  20  32  51  72  96 126 160 201 242 291
#     4   9  17  29  45  65  90 125 165 200 236 276
#     4  10  20  32  47  70  99 130 164 200 237 283
#
# _framework density 15.363371000000001
#
# number of rings (size 3 to 8) (size 9 to 14) (size 15 to 20)
#    0.000    2.333    1.667    1.500    0.000    3.667 
#    0.000    4.167    0.000    0.000    0.000    0.000 
#    0.000    0.667    0.000    3.500    0.000    0.167 
#
# Total GULP energy -267544.388416 kJ/mol
# GULP energy per Si atom -5573.841425 kJ/mol
# Density = 1.532840 g / cm^3
# Si number density = 15.363371 Si / 1000 Ang^3
#
#
#
# Elastic Constant Matrix: (Units=GPa)
#
#
# Indices 1 2 3 4 5 6 
#
# 1 80.0160 55.5720 32.7105 0.0000 0.0000 0.0000
# 2 55.5720 118.1135 18.5664 0.0000 0.0000 0.0000
# 3 32.7105 18.5664 48.0673 0.0000 0.0000 0.0000
# 4 0.0000 0.0000 0.0000 4.8039 0.0000 0.0000
# 5 0.0000 0.0000 0.0000 0.0000 15.7522 0.0000
# 6 0.0000 0.0000 0.0000 0.0000 0.0000 24.9861
#
#
#
# Elastic Compliance Matrix: (Units=1/GPa)
#
#
# Indices 1 2 3 4 5 6 
#
# 1 0.024308 -0.009408 -0.012908 0.000000 0.000000 0.000000
# 2 -0.009408 0.012655 0.001514 0.000000 0.000000 0.000000
# 3 -0.012908 0.001514 0.029004 0.000000 0.000000 0.000000
# 4 0.000000 0.000000 0.000000 0.208166 0.000000 0.000000
# 5 0.000000 0.000000 0.000000 0.000000 0.063483 0.000000
# 6 0.000000 0.000000 0.000000 0.000000 0.000000 0.040022
#
#
# Mechanical properties :
#
#
# Convention : Reuss Voigt Hill
#
# Bulk Modulus (GPa) = 41.04635 51.09940 46.07287
# Shear Modulus (GPa) = 11.69967 18.39830 15.04898
#
# Velocity S-wave (km/s) = 2.76258 3.46431 3.13315
# Velocity P-wave (km/s) = 6.07872 7.02386 6.56831
#
# Compressibility (1/GPa) = 0.02436270
#
# Stress axis : x y z
#
# Youngs Moduli (GPa) = 41.13824 79.02132 34.47856
#
# Poissons Ratio (x) = 0.74343 0.44506
# Poissons Ratio (y) = 0.38703 -0.05221
# Poissons Ratio (z) = 0.53102 -0.11965
#
# Static dielectric constant tensor:
#      x y z
#    x 1.502670 0.000000 0.000000 
#    y 0.000000 1.524450 0.000000 
#    z 0.000000 0.000000 1.471890 
# 
# From -- ./inp_files/27102.got.cif
#   From: 2010.05.17/outbox.cif.g08.bks.cpg/sg65_14_cif.got.tgz:27102.got - 2010.06.03 17:01:31.
