data_PCOD9485951
_publ_section_title
;
Structure prediction by ZEFSAII (Michael W. Deem and Ramdas Pophale) SiO2 
 PCOD9485951
Probable space group: C M M M
;
_chemical_formula_sum "Si O2"
_cell_formula_units_Z 72
_cell_length_a 14.611744
_cell_length_b 16.378270
_cell_length_c 15.157183
_cell_angle_alpha 90.000000
_cell_angle_beta 90.000000
_cell_angle_gamma 90.000000
_cell_volume 3627.342590
_symmetry_space_group_name_H-M "C M M M"
_symmetry_group_IT_number 65
_symmetry_cell_setting 'orthorhombic'
loop_
_space_group_symop_operation_xyz
x,y,z
-x,-y,z
x,-y,-z
-x,y,-z
-x,-y,-z
x,y,-z
-x,y,z
x,-y,z
1/2+x,1/2+y,z
1/2-x,1/2-y,z
1/2+x,1/2-y,-z
1/2-x,1/2+y,-z
1/2-x,1/2-y,-z
1/2+x,1/2+y,-z
1/2-x,1/2+y,z
1/2+x,1/2-y,z
loop_
_atom_site_type_symbol
_atom_site_label
_atom_site_fract_x
_atom_site_fract_y
_atom_site_fract_z
Si Si1 0.388443 0.666299 0.899447
Si Si2 0.683754 0.827802 0.405099
Si Si3 0.609348 0.176210 0.207410
Si Si4 0.744436 0.000000 0.644573
Si Si5 0.390502 0.500000 0.797450
Si Si6 0.610001 0.000000 0.199142
O O1 0.500000 0.669429 0.902207
O O2 0.356238 0.743566 0.842363
O O3 0.366813 0.581080 0.852341
O O4 0.355596 0.669429 0.000000
O O5 0.632298 0.826433 0.500000
O O6 0.750000 0.750000 0.404940
O O7 0.631739 0.822404 0.311619
O O8 0.739166 0.913347 0.403398
O O9 0.500000 0.177252 0.199189
O O10 0.640688 0.089254 0.165318
O O11 0.830784 0.000000 0.709457
O O12 0.651260 0.000000 0.702772
O O13 0.500000 0.500000 0.780665
O O14 0.500000 0.000000 0.198559
#
# Coordination Sequence:
#
# PCOD9485951 Si02
#       6
#    16  16  16   8   8   8
#     4   9  17  30  50  76 105 137 171 209 259 317
#     4  10  20  33  50  72  99 133 171 209 256 311
#     4   9  17  31  51  74  99 128 166 212 260 308
#     4  10  19  33  54  74 101 135 171 212 261 310
#     4  10  19  31  51  77 103 135 174 216 262 309
#     4   8  16  31  51  73  96 127 167 208 251 301
#
# _framework density 19.849242
#
# number of rings (size 3 to 8) (size 9 to 14) (size 15 to 20)
#    0.000    2.667    0.000    2.000    0.000    1.778 
#    0.000    0.556    0.000   34.667    0.000    0.000 
#    0.000    0.000    0.000    0.000    0.000    0.222 
#
# Total GULP energy -200428.250850 kJ/mol
# GULP energy per Si atom -5567.451413 kJ/mol
# Density = 1.980406 g / cm^3
# Si number density = 19.849242 Si / 1000 Ang^3
#
#
#
# Elastic Constant Matrix: (Units=GPa)
#
#
# Indices 1 2 3 4 5 6 
#
# 1 34.7821 10.3980 9.8487 0.0000 0.0000 0.0000
# 2 10.3980 205.7939 46.4432 0.0000 0.0000 0.0000
# 3 9.8487 46.4432 76.2921 0.0000 0.0000 0.0000
# 4 0.0000 0.0000 0.0000 22.0898 0.0000 0.0000
# 5 0.0000 0.0000 0.0000 0.0000 21.1112 0.0000
# 6 0.0000 0.0000 0.0000 0.0000 0.0000 7.7121
#
#
#
# Elastic Compliance Matrix: (Units=1/GPa)
#
#
# Indices 1 2 3 4 5 6 
#
# 1 0.029939 -0.000742 -0.003413 0.000000 0.000000 0.000000
# 2 -0.000742 0.005652 -0.003345 0.000000 0.000000 0.000000
# 3 -0.003413 -0.003345 0.015584 0.000000 0.000000 0.000000
# 4 0.000000 0.000000 0.000000 0.045270 0.000000 0.000000
# 5 0.000000 0.000000 0.000000 0.000000 0.047368 0.000000
# 6 0.000000 0.000000 0.000000 0.000000 0.000000 0.129666
#
#
# Mechanical properties :
#
#
# Convention : Reuss Voigt Hill
#
# Bulk Modulus (GPa) = 27.64371 50.02753 38.83562
# Shear Modulus (GPa) = 16.63694 26.86117 21.74906
#
# Velocity S-wave (km/s) = 2.89825 3.68266 3.31375
# Velocity P-wave (km/s) = 5.01566 6.58340 5.85226
#
# Compressibility (1/GPa) = 0.03617459
#
# Stress axis : x y z
#
# Youngs Moduli (GPa) = 33.40153 176.94300 64.16799
#
# Poissons Ratio (x) = 0.13138 0.21900
# Poissons Ratio (y) = 0.02480 0.21461
# Poissons Ratio (z) = 0.11399 0.59179
#
# Static dielectric constant tensor:
#      x y z
#    x 1.690930 0.000000 0.000000 
#    y 0.000000 1.740090 0.000000 
#    z 0.000000 0.000000 1.694950 
# 
# From -- ./inp_files/42192.got.cif
#   From: 2010.05.17/outbox.cif.g08.bks.cpg/sg65_22_cif.got.tgz:42192.got - 2010.06.03 17:01:31.
