data_PCOD9485763
_publ_section_title
;
Structure prediction by ZEFSAII (Michael W. Deem and Ramdas Pophale) SiO2 
 PCOD9485763
Probable space group: C M M M
;
_chemical_formula_sum "Si O2"
_cell_formula_units_Z 128
_cell_length_a 17.958527
_cell_length_b 14.989488
_cell_length_c 23.955504
_cell_angle_alpha 90.000000
_cell_angle_beta 90.000000
_cell_angle_gamma 90.000000
_cell_volume 6448.561160
_symmetry_space_group_name_H-M "C M M M"
_symmetry_group_IT_number 65
_symmetry_cell_setting 'orthorhombic'
loop_
_space_group_symop_operation_xyz
x,y,z
-x,-y,z
x,-y,-z
-x,y,-z
-x,-y,-z
x,y,-z
-x,y,z
x,-y,z
1/2+x,1/2+y,z
1/2-x,1/2-y,z
1/2+x,1/2-y,-z
1/2-x,1/2+y,-z
1/2-x,1/2-y,-z
1/2+x,1/2+y,-z
1/2-x,1/2+y,z
1/2+x,1/2-y,z
loop_
_atom_site_type_symbol
_atom_site_label
_atom_site_fract_x
_atom_site_fract_y
_atom_site_fract_z
Si Si1 0.117583 0.099567 0.568129
Si Si2 0.416392 0.789787 0.623928
Si Si3 0.205492 0.343390 0.149543
Si Si4 0.088459 0.282327 0.063131
Si Si5 0.331750 0.771427 0.735737
Si Si6 0.414611 0.400606 0.779431
Si Si7 0.722646 0.853100 0.437430
Si Si8 0.645134 0.405301 0.099341
O O1 0.112973 0.113384 0.500000
O O2 0.087007 0.187438 0.599431
O O3 0.204715 0.098031 0.585206
O O4 0.086637 0.000000 0.579620
O O5 0.500000 0.821277 0.616698
O O6 0.389867 0.792979 0.687774
O O7 0.355097 0.849614 0.593243
O O8 0.250000 0.250000 0.147327
O O9 0.134758 0.338018 0.108778
O O10 0.178788 0.343304 0.214150
O O11 0.270801 0.404410 0.124761
O O12 0.124364 0.183148 0.065879
O O13 0.000000 0.278323 0.075183
O O14 0.098101 0.316853 0.000000
O O15 0.250000 0.750000 0.711081
O O16 0.361515 0.678546 0.760961
O O17 0.500000 0.383845 0.762734
O O18 0.393110 0.500000 0.759298
O O19 0.407703 0.402012 0.846268
O O20 0.710930 0.885411 0.500000
O O21 0.750000 0.750000 0.439430
O O22 0.633595 0.500000 0.070108
#
# Coordination Sequence:
#
# PCOD9485763 Si02
#       8
#    16  16  16  16  16  16  16  16
#     4   9  18  34  55  77 102 134 170 209 255 305
#     4  11  22  31  47  76 106 134 167 208 255 305
#     4   9  18  34  52  73  97 133 177 215 249 297
#     4  10  20  33  52  78 107 139 172 208 253 304
#     4  11  19  34  51  70  99 136 177 211 245 295
#     4  10  19  31  49  74 104 131 154 193 252 309
#     4   8  15  31  51  70  95 130 170 207 245 297
#     4  10  19  33  52  76 103 131 164 207 256 306
#
# _framework density 19.84939
#
# number of rings (size 3 to 8) (size 9 to 14) (size 15 to 20)
#    0.000    2.250    3.750    3.000    0.000    5.500 
#    0.000    1.250    0.000    0.750    0.000    2.625 
#    0.000    1.500    0.000    0.000    0.000    0.000 
#
# Total GULP energy -356415.699806 kJ/mol
# GULP energy per Si atom -5568.995309 kJ/mol
# Density = 1.980421 g / cm^3
# Si number density = 19.849390 Si / 1000 Ang^3
#
#
#
# Elastic Constant Matrix: (Units=GPa)
#
#
# Indices 1 2 3 4 5 6 
#
# 1 128.5859 6.1837 35.3956 0.0000 0.0000 0.0000
# 2 6.1837 21.6155 -10.6446 0.0000 0.0000 0.0000
# 3 35.3956 -10.6446 51.4738 0.0000 0.0000 0.0000
# 4 0.0000 0.0000 0.0000 3.7939 0.0000 0.0000
# 5 0.0000 0.0000 0.0000 0.0000 58.2643 0.0000
# 6 0.0000 0.0000 0.0000 0.0000 0.0000 5.2171
#
#
#
# Elastic Compliance Matrix: (Units=1/GPa)
#
#
# Indices 1 2 3 4 5 6 
#
# 1 0.010542 -0.007333 -0.008766 0.000000 0.000000 0.000000
# 2 -0.007333 0.056609 0.016749 0.000000 0.000000 0.000000
# 3 -0.008766 0.016749 0.028919 0.000000 0.000000 0.000000
# 4 0.000000 0.000000 0.000000 0.263580 0.000000 0.000000
# 5 0.000000 0.000000 0.000000 0.000000 0.017163 0.000000
# 6 0.000000 0.000000 0.000000 0.000000 0.000000 0.191678
#
#
# Mechanical properties :
#
#
# Convention : Reuss Voigt Hill
#
# Bulk Modulus (GPa) = 10.27007 29.28274 19.77641
# Shear Modulus (GPa) = 8.33823 24.83775 16.58799
#
# Velocity S-wave (km/s) = 2.05180 3.54122 2.89397
# Velocity P-wave (km/s) = 3.28609 5.61292 4.59909
#
# Compressibility (1/GPa) = 0.09737029
#
# Stress axis : x y z
#
# Youngs Moduli (GPa) = 94.85430 17.66512 34.57969
#
# Poissons Ratio (x) = 0.12953 0.30312
# Poissons Ratio (y) = 0.69554 -0.57917
# Poissons Ratio (z) = 0.83148 -0.29587
#
# Static dielectric constant tensor:
#      x y z
#    x 1.707240 0.000000 0.000000 
#    y 0.000000 1.722720 0.000000 
#    z 0.000000 0.000000 1.749860 
# 
# From -- ./inp_files/70704.got.cif
#   From: 2010.05.17/outbox.cif.g08.bks.cpg/sg65_36_cif.got.tgz:70704.got - 2010.06.03 17:01:31.
