data_PCOD9485049
_publ_section_title
;
Structure prediction by ZEFSAII (Michael W. Deem and Ramdas Pophale) SiO2 
 PCOD9485049
Probable space group: C M M M
;
_chemical_formula_sum "Si O2"
_cell_formula_units_Z 104
_cell_length_a 8.576751
_cell_length_b 28.299165
_cell_length_c 27.369427
_cell_angle_alpha 90.000000
_cell_angle_beta 90.000000
_cell_angle_gamma 90.000000
_cell_volume 6642.967511
_symmetry_space_group_name_H-M "C M M M"
_symmetry_group_IT_number 65
_symmetry_cell_setting 'orthorhombic'
loop_
_space_group_symop_operation_xyz
x,y,z
-x,-y,z
x,-y,-z
-x,y,-z
-x,-y,-z
x,y,-z
-x,y,z
x,-y,z
1/2+x,1/2+y,z
1/2-x,1/2-y,z
1/2+x,1/2-y,-z
1/2-x,1/2+y,-z
1/2-x,1/2-y,-z
1/2+x,1/2+y,-z
1/2-x,1/2+y,z
1/2+x,1/2-y,z
loop_
_atom_site_type_symbol
_atom_site_label
_atom_site_fract_x
_atom_site_fract_y
_atom_site_fract_z
Si Si1 0.319980 0.442659 0.000000
Si Si2 0.189434 0.552942 0.702116
Si Si3 0.686758 0.302807 0.444307
Si Si4 0.812861 0.608434 0.200644
Si Si5 0.685958 0.697869 0.744652
Si Si6 0.810728 0.055099 0.892891
Si Si7 0.812725 0.353611 0.649125
O O1 0.252870 0.429721 0.947073
O O2 0.323347 0.500000 0.000000
O O3 0.500000 0.426429 0.000000
O O4 0.247394 0.500000 0.693418
O O5 0.233409 0.572368 0.755660
O O6 0.237290 0.593255 0.663805
O O7 0.000000 0.551537 0.701141
O O8 0.731326 0.315765 0.500000
O O9 0.500000 0.301949 0.441223
O O10 0.750000 0.250000 0.435189
O O11 0.753714 0.336958 0.403187
O O12 0.745645 0.659078 0.216541
O O13 0.751818 0.587911 0.149922
O O14 0.000000 0.611253 0.200166
O O15 0.500000 0.698424 0.743961
O O16 0.750000 0.750000 0.754729
O O17 0.747695 0.680216 0.691841
O O18 0.000000 0.056321 0.893485
O O19 0.765818 0.000000 0.884728
O O20 0.000000 0.351286 0.650860
#
# Coordination Sequence:
#
# PCOD9485049 Si02
#       7
#     8  16  16  16  16  16  16
#     4   7  12  24  41  61  88 123 160 195 231 273
#     4   8  15  28  45  65  90 120 152 185 221 261
#     4  10  20  33  49  69  93 120 151 188 230 275
#     4  10  19  30  45  68  95 123 155 191 234 278
#     4  11  21  34  50  68  93 122 153 188 227 274
#     4   9  16  27  44  66  93 126 162 197 233 273
#     4  10  19  31  49  72  96 122 152 186 226 272
#
# _framework density 15.655654
#
# number of rings (size 3 to 8) (size 9 to 14) (size 15 to 20)
#    0.000    2.538    0.000    5.538    0.000    1.846 
#    0.000    0.385    0.000   11.077    0.000    3.769 
#    0.000    0.000    0.000    0.000    0.000    0.000 
#
# Total GULP energy -289866.950330 kJ/mol
# GULP energy per Si atom -5574.364429 kJ/mol
# Density = 1.562002 g / cm^3
# Si number density = 15.655654 Si / 1000 Ang^3
#
#
#
# Elastic Constant Matrix: (Units=GPa)
#
#
# Indices 1 2 3 4 5 6 
#
# 1 54.4940 35.9211 39.2040 0.0000 0.0000 0.0000
# 2 35.9211 126.6693 87.1354 0.0000 0.0000 0.0000
# 3 39.2040 87.1354 149.8752 0.0000 0.0000 0.0000
# 4 0.0000 0.0000 0.0000 67.6899 0.0000 0.0000
# 5 0.0000 0.0000 0.0000 0.0000 20.2512 0.0000
# 6 0.0000 0.0000 0.0000 0.0000 0.0000 11.8982
#
#
#
# Elastic Compliance Matrix: (Units=1/GPa)
#
#
# Indices 1 2 3 4 5 6 
#
# 1 0.023826 -0.004115 -0.003840 0.000000 0.000000 0.000000
# 2 -0.004115 0.013867 -0.006986 0.000000 0.000000 0.000000
# 3 -0.003840 -0.006986 0.011738 0.000000 0.000000 0.000000
# 4 0.000000 0.000000 0.000000 0.014773 0.000000 0.000000
# 5 0.000000 0.000000 0.000000 0.000000 0.049380 0.000000
# 6 0.000000 0.000000 0.000000 0.000000 0.000000 0.084046
#
#
# Mechanical properties :
#
#
# Convention : Reuss Voigt Hill
#
# Bulk Modulus (GPa) = 51.15225 72.83995 61.99610
# Shear Modulus (GPa) = 21.36504 31.21973 26.29238
#
# Velocity S-wave (km/s) = 3.69817 4.47044 4.10252
# Velocity P-wave (km/s) = 7.14000 8.56000 7.88204
#
# Compressibility (1/GPa) = 0.01954948
#
# Stress axis : x y z
#
# Youngs Moduli (GPa) = 41.97151 72.11398 85.19372
#
# Poissons Ratio (x) = 0.29676 0.32712
# Poissons Ratio (y) = 0.17272 0.59513
# Poissons Ratio (z) = 0.16116 0.50376
#
# Static dielectric constant tensor:
#      x y z
#    x 1.531040 0.000000 0.000000 
#    y 0.000000 1.507450 0.000000 
#    z 0.000000 0.000000 1.524020 
# 
# From -- ./inp_files/73790.got.cif
#   From: 2010.05.17/outbox.cif.g08.bks.cpg/sg65_37_cif.got.tgz:73790.got - 2010.06.03 17:01:31.
