data_PCOD9485075
_publ_section_title
;
Structure prediction by ZEFSAII (Michael W. Deem and Ramdas Pophale) SiO2 
 PCOD9485075
Probable space group: C M M M
;
_chemical_formula_sum "Si O2"
_cell_formula_units_Z 96
_cell_length_a 19.052883
_cell_length_b 7.372281
_cell_length_c 32.358619
_cell_angle_alpha 90.000000
_cell_angle_beta 90.000000
_cell_angle_gamma 90.000000
_cell_volume 4545.195410
_symmetry_space_group_name_H-M "C M M M"
_symmetry_group_IT_number 65
_symmetry_cell_setting 'orthorhombic'
loop_
_space_group_symop_operation_xyz
x,y,z
-x,-y,z
x,-y,-z
-x,y,-z
-x,-y,-z
x,y,-z
-x,y,z
x,-y,z
1/2+x,1/2+y,z
1/2-x,1/2-y,z
1/2+x,1/2-y,-z
1/2-x,1/2+y,-z
1/2-x,1/2-y,-z
1/2+x,1/2+y,-z
1/2-x,1/2+y,z
1/2+x,1/2-y,z
loop_
_atom_site_type_symbol
_atom_site_label
_atom_site_fract_x
_atom_site_fract_y
_atom_site_fract_z
Si Si1 0.581036 0.222003 0.624915
Si Si2 0.581397 0.779169 0.124026
Si Si3 0.832794 0.716752 0.954517
Si Si4 0.332774 0.783422 0.704841
Si Si5 0.918465 0.278916 0.216160
Si Si6 0.331693 0.783338 0.546433
O O1 0.500000 0.276727 0.627852
O O2 0.626329 0.283035 0.664287
O O3 0.617928 0.283699 0.582600
O O4 0.582004 0.000000 0.624750
O O5 0.500000 0.729362 0.118915
O O6 0.626415 0.712996 0.085395
O O7 0.603815 0.721061 0.170057
O O8 0.584419 0.000000 0.124054
O O9 0.843571 0.500000 0.955288
O O10 0.750000 0.750000 0.950187
O O11 0.854563 0.786095 0.000000
O O12 0.250000 0.750000 0.703057
O O13 0.368947 0.715212 0.746892
O O14 0.342235 0.000000 0.705098
O O15 0.917635 0.500000 0.216158
O O16 0.000000 0.226771 0.222717
O O17 0.344725 0.712403 0.500000
O O18 0.250000 0.750000 0.556639
O O19 0.340924 0.000000 0.544688
#
# Coordination Sequence:
#
# PCOD9485075 Si02
#       6
#    16  16  16  16  16  16
#     4   9  17  29  46  67  88 112 146 184 215 246
#     4   8  14  25  42  64  86 107 137 178 215 245
#     4   9  17  28  42  61  85 112 140 171 209 251
#     4  10  19  30  46  67  89 113 142 176 213 253
#     4   8  14  26  44  64  85 110 141 175 210 249
#     4   9  17  29  46  67  90 116 144 176 215 256
#
# _framework density 21.121203999999999
#
# number of rings (size 3 to 8) (size 9 to 14) (size 15 to 20)
#    0.000    3.167    0.000    2.000    0.000    3.333 
#    0.000    3.333    0.000    4.000    0.000    7.000 
#    0.000    0.000    0.000    0.000    0.000    0.000 
#
# Total GULP energy -267884.584962 kJ/mol
# GULP energy per Si atom -5580.928853 kJ/mol
# Density = 2.107313 g / cm^3
# Si number density = 21.121204 Si / 1000 Ang^3
#
#
#
# Elastic Constant Matrix: (Units=GPa)
#
#
# Indices 1 2 3 4 5 6 
#
# 1 147.1043 -1.0569 153.8609 0.0000 0.0000 0.0000
# 2 -1.0569 76.5344 10.3706 0.0000 0.0000 0.0000
# 3 153.8609 10.3706 245.1611 0.0000 0.0000 0.0000
# 4 0.0000 0.0000 0.0000 -17.9884 0.0000 0.0000
# 5 0.0000 0.0000 0.0000 0.0000 51.1587 0.0000
# 6 0.0000 0.0000 0.0000 0.0000 0.0000 16.1722
#
#
#
# Elastic Compliance Matrix: (Units=1/GPa)
#
#
# Indices 1 2 3 4 5 6 
#
# 1 0.020084 0.001997 -0.012689 0.000000 0.000000 0.000000
# 2 0.001997 0.013340 -0.001817 0.000000 0.000000 0.000000
# 3 -0.012689 -0.001817 0.012119 0.000000 0.000000 0.000000
# 4 0.000000 0.000000 0.000000 -0.055591 0.000000 0.000000
# 5 0.000000 0.000000 0.000000 0.000000 0.019547 0.000000
# 6 0.000000 0.000000 0.000000 0.000000 0.000000 0.061834
#
#
# Mechanical properties :
#
#
# Convention : Reuss Voigt Hill
#
# Bulk Modulus (GPa) = 48.72376 88.34990 68.53683
# Shear Modulus (GPa) = 48.45227 30.24352 39.34789
#
# Velocity S-wave (km/s) = 4.79478 3.78816 4.32088
# Velocity P-wave (km/s) = 7.33294 7.81372 7.57714
#
# Compressibility (1/GPa) = 0.02052387
#
# Stress axis : x y z
#
# Youngs Moduli (GPa) = 49.79037 74.96328 82.51222
#
# Poissons Ratio (x) = -0.14968 1.04701
# Poissons Ratio (y) = -0.09942 0.14996
# Poissons Ratio (z) = 0.63180 0.13624
#
# Static dielectric constant tensor:
#      x y z
#    x 1.692710 0.000000 0.000000 
#    y 0.000000 1.812380 0.000000 
#    z 0.000000 0.000000 1.765720 
# 
# From -- ./inp_files/75171.got.cif
#   From: 2010.05.17/outbox.cif.g08.bks.cpg/sg65_38_cif.got.tgz:75171.got - 2010.06.03 17:01:31.
