data_PCOD9485053
_publ_section_title
;
Structure prediction by ZEFSAII (Michael W. Deem and Ramdas Pophale) SiO2 
 PCOD9485053
Probable space group: C M M M
;
_chemical_formula_sum "Si O2"
_cell_formula_units_Z 72
_cell_length_a 36.641930
_cell_length_b 14.932174
_cell_length_c 8.608191
_cell_angle_alpha 90.000000
_cell_angle_beta 90.000000
_cell_angle_gamma 90.000000
_cell_volume 4709.917254
_symmetry_space_group_name_H-M "C M M M"
_symmetry_group_IT_number 65
_symmetry_cell_setting 'orthorhombic'
loop_
_space_group_symop_operation_xyz
x,y,z
-x,-y,z
x,-y,-z
-x,y,-z
-x,-y,-z
x,y,-z
-x,y,z
x,-y,z
1/2+x,1/2+y,z
1/2-x,1/2-y,z
1/2+x,1/2-y,-z
1/2-x,1/2+y,-z
1/2-x,1/2-y,-z
1/2+x,1/2+y,-z
1/2-x,1/2+y,z
1/2+x,1/2-y,z
loop_
_atom_site_type_symbol
_atom_site_label
_atom_site_fract_x
_atom_site_fract_y
_atom_site_fract_z
Si Si1 0.421867 0.604814 0.185629
Si Si2 0.213140 0.694853 0.813651
Si Si3 0.771804 0.500000 0.686898
Si Si4 0.500000 0.608339 0.322144
Si Si5 0.312289 0.500000 0.688100
Si Si6 0.850265 0.182127 0.313227
O O1 0.416038 0.500000 0.238058
O O2 0.462438 0.632793 0.237637
O O3 0.391647 0.670805 0.256387
O O4 0.419289 0.605242 0.000000
O O5 0.250000 0.750000 0.761432
O O6 0.213192 0.593514 0.751080
O O7 0.176453 0.742831 0.754156
O O8 0.213718 0.694389 0.000000
O O9 0.774299 0.500000 0.500000
O O10 0.729421 0.500000 0.735441
O O11 0.500000 0.500000 0.324088
O O12 0.500000 0.639865 0.500000
O O13 0.313375 0.500000 0.500000
O O14 0.332016 0.410984 0.741350
O O15 0.849596 0.187229 0.500000
#
# Coordination Sequence:
#
# PCOD9485053 Si02
#       6
#    16  16   8   8   8  16
#     4  10  19  30  45  68  98 130 162 202 248 293
#     4  11  23  36  50  72  99 128 162 206 255 299
#     4  11  21  37  55  71  92 127 168 209 251 296
#     4   9  17  29  45  65  91 128 167 200 237 289
#     4   9  18  29  47  70  94 123 162 208 246 282
#     4  11  20  33  50  71  96 129 170 208 245 292
#
# _framework density 15.286892
#
# number of rings (size 3 to 8) (size 9 to 14) (size 15 to 20)
#    0.000    1.667    3.333    2.667    0.000    3.111 
#    0.000    0.000    0.000    0.000    0.000    0.000 
#    0.000    0.889    0.000    8.889    0.000    5.333 
#
# Total GULP energy -200772.137012 kJ/mol
# GULP energy per Si atom -5577.003806 kJ/mol
# Density = 1.525210 g / cm^3
# Si number density = 15.286892 Si / 1000 Ang^3
#
#
#
# Elastic Constant Matrix: (Units=GPa)
#
#
# Indices 1 2 3 4 5 6 
#
# 1 135.9596 60.3445 40.1078 0.0000 0.0000 0.0000
# 2 60.3445 96.7990 31.8614 0.0000 0.0000 0.0000
# 3 40.1078 31.8614 64.1841 0.0000 0.0000 0.0000
# 4 0.0000 0.0000 0.0000 19.9902 0.0000 0.0000
# 5 0.0000 0.0000 0.0000 0.0000 26.0016 0.0000
# 6 0.0000 0.0000 0.0000 0.0000 0.0000 -4.8178
#
#
#
# Elastic Compliance Matrix: (Units=1/GPa)
#
#
# Indices 1 2 3 4 5 6 
#
# 1 0.011024 -0.005505 -0.004157 0.000000 0.000000 0.000000
# 2 -0.005505 0.015097 -0.004054 0.000000 0.000000 0.000000
# 3 -0.004157 -0.004054 0.020190 0.000000 0.000000 0.000000
# 4 0.000000 0.000000 0.000000 0.050024 0.000000 0.000000
# 5 0.000000 0.000000 0.000000 0.000000 0.038459 0.000000
# 6 0.000000 0.000000 0.000000 0.000000 0.000000 -0.207564
#
#
# Mechanical properties :
#
#
# Convention : Reuss Voigt Hill
#
# Bulk Modulus (GPa) = 52.96498 62.39667 57.68083
# Shear Modulus (GPa) = -128.05791 19.21008 -54.42391
#
# Velocity S-wave (km/s) = -9.16251 3.54875 -5.97319
# Velocity P-wave (km/s) = 8.78709 7.59587 3.12375
#
# Compressibility (1/GPa) = 0.01888040
#
# Stress axis : x y z
#
# Youngs Moduli (GPa) = 90.70770 66.23969 49.52907
#
# Poissons Ratio (x) = 0.36462 0.20587
# Poissons Ratio (y) = 0.49930 0.20081
# Poissons Ratio (z) = 0.37703 0.26856
#
# Static dielectric constant tensor:
#      x y z
#    x 1.519320 0.000000 0.000000 
#    y 0.000000 2.125220 0.000000 
#    z 0.000000 0.000000 1.513840 
# 
# From -- ./inp_files/18056.got.cif
#   From: 2010.05.17/outbox.cif.g08.bks.cpg/sg65_10_cif.got.tgz:18056.got - 2010.06.03 17:01:31.
