data_PCOD9485325
_publ_section_title
;
Structure prediction by ZEFSAII (Michael W. Deem and Ramdas Pophale) SiO2 
 PCOD9485325
Probable space group: C M M M
;
_chemical_formula_sum "Si O2"
_cell_formula_units_Z 80
_cell_length_a 38.653299
_cell_length_b 7.669247
_cell_length_c 19.052312
_cell_angle_alpha 90.000000
_cell_angle_beta 90.000000
_cell_angle_gamma 90.000000
_cell_volume 5647.899709
_symmetry_space_group_name_H-M "C M M M"
_symmetry_group_IT_number 65
_symmetry_cell_setting 'orthorhombic'
loop_
_space_group_symop_operation_xyz
x,y,z
-x,-y,z
x,-y,-z
-x,y,-z
-x,-y,-z
x,y,-z
-x,y,z
x,-y,z
1/2+x,1/2+y,z
1/2-x,1/2-y,z
1/2+x,1/2-y,-z
1/2-x,1/2+y,-z
1/2-x,1/2-y,-z
1/2+x,1/2+y,-z
1/2-x,1/2+y,z
1/2+x,1/2-y,z
loop_
_atom_site_type_symbol
_atom_site_label
_atom_site_fract_x
_atom_site_fract_y
_atom_site_fract_z
Si Si1 0.667082 0.206032 0.361721
Si Si2 0.209251 0.289513 0.228906
Si Si3 0.290432 0.706015 0.500000
Si Si4 0.406707 0.206113 0.584386
Si Si5 0.539396 0.500000 0.585160
Si Si6 0.790973 0.290503 0.924601
O O1 0.686676 0.279000 0.293667
O O2 0.690899 0.226153 0.430242
O O3 0.628643 0.270720 0.379314
O O4 0.662783 0.000000 0.349982
O O5 0.206755 0.500000 0.228412
O O6 0.250000 0.250000 0.238361
O O7 0.197160 0.225604 0.151790
O O8 0.294410 0.500000 0.500000
O O9 0.250000 0.750000 0.500000
O O10 0.401576 0.221284 0.500000
O O11 0.438680 0.328525 0.604858
O O12 0.412378 0.000000 0.598833
O O13 0.500000 0.500000 0.611076
O O14 0.537984 0.500000 0.500000
O O15 0.795145 0.500000 0.924745
O O16 0.750000 0.250000 0.924913
O O17 0.804859 0.224656 0.000000
#
# Coordination Sequence:
#
# PCOD9485325 Si02
#       6
#    16  16   8  16   8  16
#     4  10  19  31  43  55  75 101 133 170 203 243
#     4   9  17  27  38  53  74  98 129 170 208 236
#     4  12  24  32  42  54  70  99 136 177 215 243
#     4   9  17  29  45  61  80 106 133 161 201 244
#     4   9  18  30  46  66  86 100 127 167 199 245
#     4   8  13  22  36  52  69  91 120 156 199 244
#
# _framework density 14.164557
#
# number of rings (size 3 to 8) (size 9 to 14) (size 15 to 20)
#    0.000    2.700    1.000    1.500    1.400    2.800 
#    0.000    2.000    0.000    0.000    0.000    0.000 
#    0.000    0.000    0.000    0.000    0.000    2.000 
#
# Total GULP energy -222698.920815 kJ/mol
# GULP energy per Si atom -5567.473020 kJ/mol
# Density = 1.413232 g / cm^3
# Si number density = 14.164557 Si / 1000 Ang^3
#
#
#
# Elastic Constant Matrix: (Units=GPa)
#
#
# Indices 1 2 3 4 5 6 
#
# 1 103.6891 25.7749 49.7264 0.0000 0.0000 0.0000
# 2 25.7749 41.9023 15.6579 0.0000 0.0000 0.0000
# 3 49.7264 15.6579 114.0194 0.0000 0.0000 0.0000
# 4 0.0000 0.0000 0.0000 -5.3640 0.0000 0.0000
# 5 0.0000 0.0000 0.0000 0.0000 3.1225 0.0000
# 6 0.0000 0.0000 0.0000 0.0000 0.0000 17.2688
#
#
#
# Elastic Compliance Matrix: (Units=1/GPa)
#
#
# Indices 1 2 3 4 5 6 
#
# 1 0.013704 -0.006531 -0.005080 0.000000 0.000000 0.000000
# 2 -0.006531 0.028269 -0.001034 0.000000 0.000000 0.000000
# 3 -0.005080 -0.001034 0.011128 0.000000 0.000000 0.000000
# 4 0.000000 0.000000 0.000000 -0.186428 0.000000 0.000000
# 5 0.000000 0.000000 0.000000 0.000000 0.320258 0.000000
# 6 0.000000 0.000000 0.000000 0.000000 0.000000 0.057908
#
#
# Mechanical properties :
#
#
# Convention : Reuss Voigt Hill
#
# Bulk Modulus (GPa) = 35.95668 49.10324 42.52996
# Shear Modulus (GPa) = 17.89567 14.23558 16.06562
#
# Velocity S-wave (km/s) = 3.55831 3.17363 3.37146
# Velocity P-wave (km/s) = 6.50555 6.94052 6.72655
#
# Compressibility (1/GPa) = 0.02781124
#
# Stress axis : x y z
#
# Youngs Moduli (GPa) = 72.97245 35.37466 89.86582
#
# Poissons Ratio (x) = 0.23104 0.45648
# Poissons Ratio (y) = 0.47661 0.09288
# Poissons Ratio (z) = 0.37067 0.03656
#
# Static dielectric constant tensor:
#      x y z
#    x 1.442700 0.000000 0.000000 
#    y 0.000000 1.508520 0.000000 
#    z 0.000000 0.000000 1.498770 
# 
# From -- ./inp_files/60599.got.cif
#   From: 2010.05.17/outbox.cif.g08.bks.cpg/sg65_31_cif.got.tgz:60599.got - 2010.06.03 17:01:31.
