data_PCOD9485742
_publ_section_title
;
Structure prediction by ZEFSAII (Michael W. Deem and Ramdas Pophale) SiO2 
 PCOD9485742
Probable space group: C M M M
;
_chemical_formula_sum "Si O2"
_cell_formula_units_Z 88
_cell_length_a 20.116361
_cell_length_b 7.772327
_cell_length_c 29.117359
_cell_angle_alpha 90.000000
_cell_angle_beta 90.000000
_cell_angle_gamma 90.000000
_cell_volume 4552.526326
_symmetry_space_group_name_H-M "C M M M"
_symmetry_group_IT_number 65
_symmetry_cell_setting 'orthorhombic'
loop_
_space_group_symop_operation_xyz
x,y,z
-x,-y,z
x,-y,-z
-x,y,-z
-x,-y,-z
x,y,-z
-x,y,z
x,-y,z
1/2+x,1/2+y,z
1/2-x,1/2-y,z
1/2+x,1/2-y,-z
1/2-x,1/2+y,-z
1/2-x,1/2-y,-z
1/2+x,1/2+y,-z
1/2-x,1/2+y,z
1/2+x,1/2-y,z
loop_
_atom_site_type_symbol
_atom_site_label
_atom_site_fract_x
_atom_site_fract_y
_atom_site_fract_z
Si Si1 0.576620 0.289839 0.081383
Si Si2 0.673773 0.203810 0.265788
Si Si3 0.925712 0.205917 0.184941
Si Si4 0.673159 0.207475 0.368228
Si Si5 0.576631 0.210132 0.551669
Si Si6 0.327945 0.292706 0.000000
O O1 0.500000 0.240108 0.070482
O O2 0.577274 0.500000 0.080654
O O3 0.591991 0.232677 0.133520
O O4 0.630863 0.230699 0.044582
O O5 0.750000 0.250000 0.255710
O O6 0.625681 0.256282 0.224926
O O7 0.657056 0.273894 0.316798
O O8 0.669760 0.000000 0.269240
O O9 0.000000 0.270787 0.196003
O O10 0.929471 0.000000 0.181416
O O11 0.750000 0.250000 0.377469
O O12 0.625033 0.272164 0.408271
O O13 0.667074 0.000000 0.367568
O O14 0.596014 0.264009 0.500000
O O15 0.500000 0.260701 0.559507
O O16 0.577913 0.000000 0.551930
O O17 0.250000 0.250000 0.000000
O O18 0.332056 0.500000 0.000000
#
# Coordination Sequence:
#
# PCOD9485742 Si02
#       6
#    16  16  16  16  16   8
#     4   8  15  30  52  73  92 121 160 195 227 271
#     4  10  20  33  49  69  96 129 163 199 239 283
#     4   9  18  33  52  74  99 125 157 198 241 285
#     4   9  18  31  47  68  93 121 154 192 231 274
#     4   8  14  26  45  68  92 118 150 188 229 273
#     4  10  19  31  49  73  99 124 154 192 232 276
#
# _framework density 19.329927000000001
#
# number of rings (size 3 to 8) (size 9 to 14) (size 15 to 20)
#    0.000    3.091    0.000    2.455    0.000    4.000 
#    0.000    4.545    0.000    2.727    0.000    1.273 
#    0.000    0.000    0.000    0.000    0.000    0.000 
#
# Total GULP energy -245274.699610 kJ/mol
# GULP energy per Si atom -5574.424991 kJ/mol
# Density = 1.928593 g / cm^3
# Si number density = 19.329927 Si / 1000 Ang^3
#
#
#
# Elastic Constant Matrix: (Units=GPa)
#
#
# Indices 1 2 3 4 5 6 
#
# 1 150.5370 4.3588 159.5299 0.0000 0.0000 0.0000
# 2 4.3588 24.4117 11.4839 0.0000 0.0000 0.0000
# 3 159.5299 11.4839 214.2843 0.0000 0.0000 0.0000
# 4 0.0000 0.0000 0.0000 3.1224 0.0000 0.0000
# 5 0.0000 0.0000 0.0000 0.0000 66.1623 0.0000
# 6 0.0000 0.0000 0.0000 0.0000 0.0000 19.1316
#
#
#
# Elastic Compliance Matrix: (Units=1/GPa)
#
#
# Indices 1 2 3 4 5 6 
#
# 1 0.032224 0.005675 -0.024294 0.000000 0.000000 0.000000
# 2 0.005675 0.043023 -0.006531 0.000000 0.000000 0.000000
# 3 -0.024294 -0.006531 0.023103 0.000000 0.000000 0.000000
# 4 0.000000 0.000000 0.000000 0.320266 0.000000 0.000000
# 5 0.000000 0.000000 0.000000 0.000000 0.015114 0.000000
# 6 0.000000 0.000000 0.000000 0.000000 0.000000 0.052270
#
#
# Mechanical properties :
#
#
# Convention : Reuss Voigt Hill
#
# Bulk Modulus (GPa) = 20.81146 82.21978 51.51562
# Shear Modulus (GPa) = 9.05276 31.94061 20.49669
#
# Velocity S-wave (km/s) = 2.16644 4.06937 3.25985
# Velocity P-wave (km/s) = 4.12889 8.04407 6.39354
#
# Compressibility (1/GPa) = 0.04805044
#
# Stress axis : x y z
#
# Youngs Moduli (GPa) = 31.03249 23.24348 43.28381
#
# Poissons Ratio (x) = -0.13191 1.05155
# Poissons Ratio (y) = -0.17611 0.28267
# Poissons Ratio (z) = 0.75392 0.15179
#
# Static dielectric constant tensor:
#      x y z
#    x 1.628310 0.000000 0.000000 
#    y 0.000000 1.717290 0.000000 
#    z 0.000000 0.000000 1.698470 
# 
# From -- ./inp_files/76589.got.cif
#   From: 2010.05.17/outbox.cif.g08.bks.cpg/sg65_39_cif.got.tgz:76589.got - 2010.06.03 17:01:31.
