data_PCOD9485647
_publ_section_title
;
Structure prediction by ZEFSAII (Michael W. Deem and Ramdas Pophale) SiO2 
 PCOD9485647
Probable space group: C M M M
;
_chemical_formula_sum "Si O2"
_cell_formula_units_Z 80
_cell_length_a 7.398000
_cell_length_b 18.671945
_cell_length_c 26.967784
_cell_angle_alpha 90.000000
_cell_angle_beta 90.000000
_cell_angle_gamma 90.000000
_cell_volume 3725.196167
_symmetry_space_group_name_H-M "C M M M"
_symmetry_group_IT_number 65
_symmetry_cell_setting 'orthorhombic'
loop_
_space_group_symop_operation_xyz
x,y,z
-x,-y,z
x,-y,-z
-x,y,-z
-x,-y,-z
x,y,-z
-x,y,z
x,-y,z
1/2+x,1/2+y,z
1/2-x,1/2-y,z
1/2+x,1/2-y,-z
1/2-x,1/2+y,-z
1/2-x,1/2-y,-z
1/2+x,1/2+y,-z
1/2-x,1/2+y,z
1/2+x,1/2-y,z
loop_
_atom_site_type_symbol
_atom_site_label
_atom_site_fract_x
_atom_site_fract_y
_atom_site_fract_z
Si Si1 0.215848 0.334578 0.901724
Si Si2 0.278757 0.082512 0.500000
Si Si3 0.215969 0.665890 0.403232
Si Si4 0.783851 0.665717 0.293067
Si Si5 0.221213 0.582744 0.196106
Si Si6 0.278794 0.083123 0.000000
O O1 0.250000 0.250000 0.903252
O O2 0.282562 0.371283 0.851206
O O3 0.282476 0.375216 0.950786
O O4 0.000000 0.343997 0.901575
O O5 0.500000 0.085692 0.500000
O O6 0.215689 0.121651 0.549958
O O7 0.226798 0.000000 0.500000
O O8 0.250000 0.750000 0.411082
O O9 0.286096 0.647314 0.348174
O O10 0.000000 0.655377 0.401755
O O11 0.750000 0.750000 0.284354
O O12 0.716594 0.618765 0.247345
O O13 0.000000 0.656264 0.294546
O O14 0.274807 0.500000 0.192036
O O15 0.000000 0.584182 0.196392
O O16 0.500000 0.083883 0.000000
O O17 0.224585 0.000000 0.000000
#
# Coordination Sequence:
#
# PCOD9485647 Si02
#       6
#    16   8  16  16  16   8
#     4  10  19  31  49  70  92 119 150 185 222 261
#     4   9  17  28  43  65  90 113 142 182 222 257
#     4   9  17  29  46  66  87 114 146 179 217 260
#     4   9  17  29  46  67  89 114 145 181 219 260
#     4   9  17  29  46  68  91 116 149 186 220 256
#     4   9  17  30  49  71  92 117 152 188 220 259
#
# _framework density 21.475380999999999
#
# number of rings (size 3 to 8) (size 9 to 14) (size 15 to 20)
#    0.000    2.800    0.000    1.800    0.000    3.200 
#    0.000    4.000    0.000    6.000    0.000    5.600 
#    0.000    0.000    0.000    0.000    0.000    0.000 
#
# Total GULP energy -223408.895134 kJ/mol
# GULP energy per Si atom -5585.222378 kJ/mol
# Density = 2.142650 g / cm^3
# Si number density = 21.475381 Si / 1000 Ang^3
#
#
#
# Elastic Constant Matrix: (Units=GPa)
#
#
# Indices 1 2 3 4 5 6 
#
# 1 74.5617 -2.6328 12.0587 0.0000 0.0000 0.0000
# 2 -2.6328 183.7584 167.4121 0.0000 0.0000 0.0000
# 3 12.0587 167.4121 265.3585 0.0000 0.0000 0.0000
# 4 0.0000 0.0000 0.0000 40.3348 0.0000 0.0000
# 5 0.0000 0.0000 0.0000 0.0000 -30.4372 0.0000
# 6 0.0000 0.0000 0.0000 0.0000 0.0000 20.4652
#
#
#
# Elastic Compliance Matrix: (Units=1/GPa)
#
#
# Indices 1 2 3 4 5 6 
#
# 1 0.013761 0.001803 -0.001763 0.000000 0.000000 0.000000
# 2 0.001803 0.013034 -0.008305 0.000000 0.000000 0.000000
# 3 -0.001763 -0.008305 0.009088 0.000000 0.000000 0.000000
# 4 0.000000 0.000000 0.000000 0.024793 0.000000 0.000000
# 5 0.000000 0.000000 0.000000 0.000000 -0.032855 0.000000
# 6 0.000000 0.000000 0.000000 0.000000 0.000000 0.048863
#
#
# Mechanical properties :
#
#
# Convention : Reuss Voigt Hill
#
# Bulk Modulus (GPa) = 51.67064 97.48383 74.57724
# Shear Modulus (GPa) = 50.16840 29.19526 39.68183
#
# Velocity S-wave (km/s) = 4.83855 3.69111 4.30325
# Velocity P-wave (km/s) = 7.43829 7.97857 7.71316
#
# Compressibility (1/GPa) = 0.01935335
#
# Stress axis : x y z
#
# Youngs Moduli (GPa) = 72.67162 76.72278 110.03388
#
# Poissons Ratio (x) = -0.13836 0.19400
# Poissons Ratio (y) = -0.13105 0.91382
# Poissons Ratio (z) = 0.12812 0.63718
#
# Static dielectric constant tensor:
#      x y z
#    x 1.823370 0.000000 0.000000 
#    y 0.000000 1.703040 0.000000 
#    z 0.000000 0.000000 1.771300 
# 
# From -- ./inp_files/74201.got.cif
#   From: 2010.05.17/outbox.cif.g08.bks.cpg/sg65_38_cif.got.tgz:74201.got - 2010.06.03 17:01:31.
