data_PCOD9485439
_publ_section_title
;
Structure prediction by ZEFSAII (Michael W. Deem and Ramdas Pophale) SiO2 
 PCOD9485439
Probable space group: C M M M
;
_chemical_formula_sum "Si O2"
_cell_formula_units_Z 88
_cell_length_a 28.079329
_cell_length_b 7.797115
_cell_length_c 22.147248
_cell_angle_alpha 90.000000
_cell_angle_beta 90.000000
_cell_angle_gamma 90.000000
_cell_volume 4848.868808
_symmetry_space_group_name_H-M "C M M M"
_symmetry_group_IT_number 65
_symmetry_cell_setting 'orthorhombic'
loop_
_space_group_symop_operation_xyz
x,y,z
-x,-y,z
x,-y,-z
-x,y,-z
-x,-y,-z
x,y,-z
-x,y,z
x,-y,z
1/2+x,1/2+y,z
1/2-x,1/2-y,z
1/2+x,1/2-y,-z
1/2-x,1/2+y,-z
1/2-x,1/2-y,-z
1/2+x,1/2+y,-z
1/2-x,1/2+y,z
1/2+x,1/2-y,z
loop_
_atom_site_type_symbol
_atom_site_label
_atom_site_fract_x
_atom_site_fract_y
_atom_site_fract_z
Si Si1 0.694428 0.706798 0.433253
Si Si2 0.148091 0.205111 0.688935
Si Si3 0.195507 0.204177 0.187617
Si Si4 0.398466 0.204219 0.875792
Si Si5 0.055526 0.289640 0.000000
Si Si6 0.553603 0.207443 0.752203
O O1 0.679868 0.770489 0.500000
O O2 0.690008 0.500000 0.434255
O O3 0.750000 0.750000 0.425203
O O4 0.665783 0.773241 0.375341
O O5 0.178238 0.272583 0.746601
O O6 0.093181 0.240128 0.703875
O O7 0.155041 0.000000 0.687828
O O8 0.250000 0.250000 0.175668
O O9 0.156942 0.265370 0.138721
O O10 0.191750 0.000000 0.189586
O O11 0.418072 0.270562 0.939264
O O12 0.427546 0.270760 0.817533
O O13 0.406090 0.000000 0.876789
O O14 0.056713 0.500000 0.000000
O O15 0.000000 0.240629 0.000000
O O16 0.500000 0.266896 0.740524
O O17 0.553116 0.000000 0.754140
#
# Coordination Sequence:
#
# PCOD9485439 Si02
#       6
#    16  16  16  16   8  16
#     4   9  17  29  45  66  92 119 147 180 219 264
#     4   9  18  30  45  67  92 118 148 183 222 264
#     4  10  19  31  47  67  92 120 151 185 221 262
#     4   9  17  30  48  70  94 118 146 181 222 266
#     4   9  16  28  50  75  94 115 146 183 222 267
#     4   9  17  29  46  68  92 117 147 184 223 262
#
# _framework density 18.148562999999999
#
# number of rings (size 3 to 8) (size 9 to 14) (size 15 to 20)
#    0.000    2.818    0.000    1.636    0.000    4.000 
#    0.000    0.909    0.000    2.727    0.000    3.818 
#    0.000    0.000    0.000    0.000    0.000    0.000 
#
# Total GULP energy -245308.516622 kJ/mol
# GULP energy per Si atom -5575.193560 kJ/mol
# Density = 1.810726 g / cm^3
# Si number density = 18.148563 Si / 1000 Ang^3
#
#
#
# Elastic Constant Matrix: (Units=GPa)
#
#
# Indices 1 2 3 4 5 6 
#
# 1 136.3575 -12.9041 99.1931 0.0000 0.0000 0.0000
# 2 -12.9041 17.7915 7.7079 0.0000 0.0000 0.0000
# 3 99.1931 7.7079 171.4737 0.0000 0.0000 0.0000
# 4 0.0000 0.0000 0.0000 8.7835 0.0000 0.0000
# 5 0.0000 0.0000 0.0000 0.0000 -9.3312 0.0000
# 6 0.0000 0.0000 0.0000 0.0000 0.0000 21.0904
#
#
#
# Elastic Compliance Matrix: (Units=1/GPa)
#
#
# Indices 1 2 3 4 5 6 
#
# 1 0.016209 0.016132 -0.010101 0.000000 0.000000 0.000000
# 2 0.016132 0.073379 -0.012631 0.000000 0.000000 0.000000
# 3 -0.010101 -0.012631 0.012243 0.000000 0.000000 0.000000
# 4 0.000000 0.000000 0.000000 0.113850 0.000000 0.000000
# 5 0.000000 0.000000 0.000000 0.000000 -0.107168 0.000000
# 6 0.000000 0.000000 0.000000 0.000000 0.000000 0.047415
#
#
# Mechanical properties :
#
#
# Convention : Reuss Voigt Hill
#
# Bulk Modulus (GPa) = 11.28267 57.06850 34.17558
# Shear Modulus (GPa) = 25.16725 19.55026 22.35876
#
# Velocity S-wave (km/s) = 3.72793 3.28569 3.51377
# Velocity P-wave (km/s) = 4.97597 6.77553 5.94424
#
# Compressibility (1/GPa) = 0.08863152
#
# Stress axis : x y z
#
# Youngs Moduli (GPa) = 61.69572 13.62781 81.67968
#
# Poissons Ratio (x) = -0.21985 0.82508
# Poissons Ratio (y) = -0.99529 1.03166
# Poissons Ratio (z) = 0.62321 0.17213
#
# Static dielectric constant tensor:
#      x y z
#    x 1.684870 0.000000 0.000000 
#    y 0.000000 1.675130 0.000000 
#    z 0.000000 0.000000 1.641600 
# 
# From -- ./inp_files/65171.got.cif
#   From: 2010.05.17/outbox.cif.g08.bks.cpg/sg65_33_cif.got.tgz:65171.got - 2010.06.03 17:01:31.
