data_PCOD9485650
_publ_section_title
;
Structure prediction by ZEFSAII (Michael W. Deem and Ramdas Pophale) SiO2 
 PCOD9485650
Probable space group: C M M M
;
_chemical_formula_sum "Si O2"
_cell_formula_units_Z 88
_cell_length_a 19.405627
_cell_length_b 8.426422
_cell_length_c 30.064345
_cell_angle_alpha 90.000000
_cell_angle_beta 90.000000
_cell_angle_gamma 90.000000
_cell_volume 4916.121763
_symmetry_space_group_name_H-M "C M M M"
_symmetry_group_IT_number 65
_symmetry_cell_setting 'orthorhombic'
loop_
_space_group_symop_operation_xyz
x,y,z
-x,-y,z
x,-y,-z
-x,y,-z
-x,-y,-z
x,y,-z
-x,y,z
x,-y,z
1/2+x,1/2+y,z
1/2-x,1/2-y,z
1/2+x,1/2-y,-z
1/2-x,1/2+y,-z
1/2-x,1/2-y,-z
1/2+x,1/2+y,-z
1/2-x,1/2+y,z
1/2+x,1/2-y,z
loop_
_atom_site_type_symbol
_atom_site_label
_atom_site_fract_x
_atom_site_fract_y
_atom_site_fract_z
Si Si1 0.420165 0.193519 0.450404
Si Si2 0.419097 0.189148 0.000000
Si Si3 0.328599 0.310190 0.177181
Si Si4 0.171539 0.307996 0.631687
Si Si5 0.920278 0.808595 0.094412
Si Si6 0.671028 0.809971 0.270833
O O1 0.397378 0.243460 0.500000
O O2 0.500000 0.239659 0.444690
O O3 0.373414 0.249788 0.409792
O O4 0.418608 0.000000 0.449946
O O5 0.391312 0.253636 0.046682
O O6 0.500000 0.238223 0.000000
O O7 0.415240 0.000000 0.000000
O O8 0.326741 0.500000 0.176673
O O9 0.250000 0.250000 0.173373
O O10 0.374473 0.253438 0.135829
O O11 0.358639 0.256771 0.224956
O O12 0.172211 0.500000 0.630854
O O13 0.250000 0.250000 0.627846
O O14 0.142976 0.261309 0.680625
O O15 0.000000 0.753733 0.098606
O O16 0.921079 0.000000 0.094691
O O17 0.750000 0.750000 0.271362
O O18 0.670492 0.000000 0.268191
#
# Coordination Sequence:
#
# PCOD9485650 Si02
#       6
#    16   8  16  16  16  16
#     4   8  14  26  44  64  87 117 151 184 219 264
#     4   9  17  29  48  73  96 119 149 187 228 265
#     4  10  19  31  49  70  92 120 153 187 223 266
#     4   9  17  28  44  67  90 113 146 186 225 264
#     4   9  18  33  51  69  91 121 154 185 220 266
#     4   9  16  27  43  63  89 119 148 180 221 268
#
# _framework density 17.900289999999998
#
# number of rings (size 3 to 8) (size 9 to 14) (size 15 to 20)
#    0.000    3.000    0.000    3.000    0.000    3.636 
#    0.000    1.364    0.000    1.636    0.000    1.273 
#    0.000    0.000    0.000    0.000    0.000    0.000 
#
# Total GULP energy -244986.732444 kJ/mol
# GULP energy per Si atom -5567.880283 kJ/mol
# Density = 1.785955 g / cm^3
# Si number density = 17.900290 Si / 1000 Ang^3
#
#
#
# Elastic Constant Matrix: (Units=GPa)
#
#
# Indices 1 2 3 4 5 6 
#
# 1 44.9129 8.4214 74.3927 0.0000 0.0000 0.0000
# 2 8.4214 14.7812 26.4481 0.0000 0.0000 0.0000
# 3 74.3927 26.4481 232.0393 0.0000 0.0000 0.0000
# 4 0.0000 0.0000 0.0000 7.1252 0.0000 0.0000
# 5 0.0000 0.0000 0.0000 0.0000 128.8879 0.0000
# 6 0.0000 0.0000 0.0000 0.0000 0.0000 11.2498
#
#
#
# Elastic Compliance Matrix: (Units=1/GPa)
#
#
# Indices 1 2 3 4 5 6 
#
# 1 0.047479 0.000234 -0.015249 0.000000 0.000000 0.000000
# 2 0.000234 0.084988 -0.009762 0.000000 0.000000 0.000000
# 3 -0.015249 -0.009762 0.010311 0.000000 0.000000 0.000000
# 4 0.000000 0.000000 0.000000 0.140347 0.000000 0.000000
# 5 0.000000 0.000000 0.000000 0.000000 0.007759 0.000000
# 6 0.000000 0.000000 0.000000 0.000000 0.000000 0.088890
#
#
# Mechanical properties :
#
#
# Convention : Reuss Voigt Hill
#
# Bulk Modulus (GPa) = 10.72681 56.69530 33.71106
# Shear Modulus (GPa) = 10.86009 41.61733 26.23871
#
# Velocity S-wave (km/s) = 2.46580 4.82701 3.83276
# Velocity P-wave (km/s) = 3.75665 7.92517 6.20164
#
# Compressibility (1/GPa) = 0.09322433
#
# Stress axis : x y z
#
# Youngs Moduli (GPa) = 21.06210 11.76642 96.98350
#
# Poissons Ratio (x) = -0.00275 1.47885
# Poissons Ratio (y) = -0.00493 0.94676
# Poissons Ratio (z) = 0.32117 0.11486
#
# Static dielectric constant tensor:
#      x y z
#    x 1.586410 0.000000 0.000000 
#    y 0.000000 1.608790 0.000000 
#    z 0.000000 0.000000 1.665550 
# 
# From -- ./inp_files/77914.got.cif
#   From: 2010.05.17/outbox.cif.g08.bks.cpg/sg65_39_cif.got.tgz:77914.got - 2010.06.03 17:01:31.
