data_PCOD9485654
_publ_section_title
;
Structure prediction by ZEFSAII (Michael W. Deem and Ramdas Pophale) SiO2 
 PCOD9485654
Probable space group: C M M M
;
_chemical_formula_sum "Si O2"
_cell_formula_units_Z 72
_cell_length_a 13.407289
_cell_length_b 14.577286
_cell_length_c 15.786585
_cell_angle_alpha 90.000000
_cell_angle_beta 90.000000
_cell_angle_gamma 90.000000
_cell_volume 3085.359950
_symmetry_space_group_name_H-M "C M M M"
_symmetry_group_IT_number 65
_symmetry_cell_setting 'orthorhombic'
loop_
_space_group_symop_operation_xyz
x,y,z
-x,-y,z
x,-y,-z
-x,y,-z
-x,-y,-z
x,y,-z
-x,y,z
x,-y,z
1/2+x,1/2+y,z
1/2-x,1/2-y,z
1/2+x,1/2-y,-z
1/2-x,1/2+y,-z
1/2-x,1/2-y,-z
1/2+x,1/2+y,-z
1/2-x,1/2+y,z
1/2+x,1/2-y,z
loop_
_atom_site_type_symbol
_atom_site_label
_atom_site_fract_x
_atom_site_fract_y
_atom_site_fract_z
Si Si1 0.117870 0.896538 0.500000
Si Si2 0.677168 0.386668 0.683731
Si Si3 0.664078 0.129916 0.093007
Si Si4 0.604548 0.103102 0.278662
Si Si5 0.113271 0.840544 0.867498
O O1 0.144857 0.855749 0.590828
O O2 0.000000 0.904649 0.500000
O O3 0.162835 0.000000 0.500000
O O4 0.670079 0.500000 0.688952
O O5 0.791432 0.355482 0.694365
O O6 0.619085 0.349074 0.765394
O O7 0.612990 0.093890 0.177323
O O8 0.783711 0.111302 0.102011
O O9 0.635926 0.237664 0.101177
O O10 0.632148 0.100142 0.000000
O O11 0.500000 0.149402 0.300525
O O12 0.603416 0.000000 0.314602
O O13 0.000000 0.867901 0.893291
#
# Coordination Sequence:
#
# PCOD9485654 Si02
#       5
#     8  16  16  16  16
#     4   9  16  28  49  74  99 127 159 197 238 281
#     4   9  18  32  50  75 102 126 160 201 238 285
#     4  10  21  34  49  72  97 124 166 210 241 283
#     4   9  18  33  52  72  97 129 161 199 248 292
#     4  10  19  31  49  70  96 130 160 194 244 292
#
# _framework density 23.336013999999999
#
# number of rings (size 3 to 8) (size 9 to 14) (size 15 to 20)
#    0.000    2.556    0.000    2.667    0.000    4.889 
#    0.000    1.667    0.000   16.000    0.000   20.222 
#    0.000    0.000    0.000    0.000    0.000    0.000 
#
# Total GULP energy -200684.953263 kJ/mol
# GULP energy per Si atom -5574.582035 kJ/mol
# Density = 2.328290 g / cm^3
# Si number density = 23.336014 Si / 1000 Ang^3
#
#
#
# Elastic Constant Matrix: (Units=GPa)
#
#
# Indices 1 2 3 4 5 6 
#
# 1 167.9763 -1.3208 27.3694 0.0000 0.0000 0.0000
# 2 -1.3208 58.2455 7.7534 0.0000 0.0000 0.0000
# 3 27.3694 7.7534 167.7328 0.0000 0.0000 0.0000
# 4 0.0000 0.0000 0.0000 12.3394 0.0000 0.0000
# 5 0.0000 0.0000 0.0000 0.0000 -10.5917 0.0000
# 6 0.0000 0.0000 0.0000 0.0000 0.0000 7.7222
#
#
#
# Elastic Compliance Matrix: (Units=1/GPa)
#
#
# Indices 1 2 3 4 5 6 
#
# 1 0.006120 0.000273 -0.001011 0.000000 0.000000 0.000000
# 2 0.000273 0.017287 -0.000844 0.000000 0.000000 0.000000
# 3 -0.001011 -0.000844 0.006166 0.000000 0.000000 0.000000
# 4 0.000000 0.000000 0.000000 0.081041 0.000000 0.000000
# 5 0.000000 0.000000 0.000000 0.000000 -0.094414 0.000000
# 6 0.000000 0.000000 0.000000 0.000000 0.000000 0.129497
#
#
# Mechanical properties :
#
#
# Convention : Reuss Voigt Hill
#
# Bulk Modulus (GPa) = 37.86436 51.28429 44.57433
# Shear Modulus (GPa) = 31.71294 25.90416 28.80855
#
# Velocity S-wave (km/s) = 3.69042 3.33536 3.51737
# Velocity P-wave (km/s) = 5.86685 6.07099 5.96979
#
# Compressibility (1/GPa) = 0.02641006
#
# Stress axis : x y z
#
# Youngs Moduli (GPa) = 163.39490 57.84622 162.18294
#
# Poissons Ratio (x) = -0.01582 0.16401
# Poissons Ratio (y) = -0.04467 0.13684
# Poissons Ratio (z) = 0.16524 0.04881
#
# Static dielectric constant tensor:
#      x y z
#    x 1.894350 0.000000 0.000000 
#    y 0.000000 2.002530 0.000000 
#    z 0.000000 0.000000 1.836310 
# 
# From -- ./inp_files/39743.got.cif
#   From: 2010.05.17/outbox.cif.g08.bks.cpg/sg65_20_cif.got.tgz:39743.got - 2010.06.03 17:01:31.
