data_PCOD9485342
_publ_section_title
;
Structure prediction by ZEFSAII (Michael W. Deem and Ramdas Pophale) SiO2 
 PCOD9485342
Probable space group: C M M M
;
_chemical_formula_sum "Si O2"
_cell_formula_units_Z 88
_cell_length_a 20.152935
_cell_length_b 32.140825
_cell_length_c 7.668002
_cell_angle_alpha 90.000000
_cell_angle_beta 90.000000
_cell_angle_gamma 90.000000
_cell_volume 4966.809942
_symmetry_space_group_name_H-M "C M M M"
_symmetry_group_IT_number 65
_symmetry_cell_setting 'orthorhombic'
loop_
_space_group_symop_operation_xyz
x,y,z
-x,-y,z
x,-y,-z
-x,y,-z
-x,-y,-z
x,y,-z
-x,y,z
x,-y,z
1/2+x,1/2+y,z
1/2-x,1/2-y,z
1/2+x,1/2-y,-z
1/2-x,1/2+y,-z
1/2-x,1/2-y,-z
1/2+x,1/2+y,-z
1/2-x,1/2+y,z
1/2+x,1/2-y,z
loop_
_atom_site_type_symbol
_atom_site_label
_atom_site_fract_x
_atom_site_fract_y
_atom_site_fract_z
Si Si1 0.500000 0.949540 0.802465
Si Si2 0.782569 0.207364 0.295066
Si Si3 0.072947 0.767656 0.789874
Si Si4 0.573615 0.169529 0.210620
Si Si5 0.791240 0.372033 0.299693
Si Si6 0.851427 0.453080 0.706841
O O1 0.428278 0.938953 0.726065
O O2 0.500000 0.000000 0.799518
O O3 0.500000 0.934189 0.000000
O O4 0.763935 0.206793 0.500000
O O5 0.750000 0.250000 0.221051
O O6 0.861556 0.210353 0.279247
O O7 0.753756 0.164422 0.218706
O O8 0.077575 0.718601 0.746755
O O9 0.000000 0.782433 0.730674
O O10 0.074375 0.770492 0.000000
O O11 0.500000 0.154544 0.260729
O O12 0.634921 0.147113 0.297330
O O13 0.579364 0.165647 0.000000
O O14 0.768865 0.378029 0.500000
O O15 0.802572 0.417747 0.219511
O O16 0.839405 0.455406 0.500000
O O17 0.844941 0.500000 0.779178
#
# Coordination Sequence:
#
# PCOD9485342 Si02
#       6
#     8  16  16  16  16  16
#     4   9  17  29  45  63  83 109 143 187 231 261
#     4  10  19  31  45  65  92 117 143 178 219 261
#     4   9  18  32  48  65  87 117 151 182 212 254
#     4   9  18  30  42  60  86 115 149 184 216 253
#     4  10  20  31  44  63  85 113 148 183 218 260
#     4   9  18  32  46  59  80 112 148 183 219 259
#
# _framework density 17.717610000000001
#
# number of rings (size 3 to 8) (size 9 to 14) (size 15 to 20)
#    0.000    2.636    1.818    1.364    1.273    3.636 
#    0.000    1.818    0.000    0.000    0.000    0.000 
#    0.000    0.727    0.000    9.091    0.000    1.455 
#
# Total GULP energy -245264.572234 kJ/mol
# GULP energy per Si atom -5574.194823 kJ/mol
# Density = 1.767728 g / cm^3
# Si number density = 17.717610 Si / 1000 Ang^3
#
#
#
# Elastic Constant Matrix: (Units=GPa)
#
#
# Indices 1 2 3 4 5 6 
#
# 1 81.3064 55.7296 -4.0020 0.0000 0.0000 0.0000
# 2 55.7296 117.6823 6.3369 0.0000 0.0000 0.0000
# 3 -4.0020 6.3369 29.9915 0.0000 0.0000 0.0000
# 4 0.0000 0.0000 0.0000 2.0011 0.0000 0.0000
# 5 0.0000 0.0000 0.0000 0.0000 15.6842 0.0000
# 6 0.0000 0.0000 0.0000 0.0000 0.0000 31.5161
#
#
#
# Elastic Compliance Matrix: (Units=1/GPa)
#
#
# Indices 1 2 3 4 5 6 
#
# 1 0.018775 -0.009130 0.004434 0.000000 0.000000 0.000000
# 2 -0.009130 0.013035 -0.003972 0.000000 0.000000 0.000000
# 3 0.004434 -0.003972 0.034774 0.000000 0.000000 0.000000
# 4 0.000000 0.000000 0.000000 0.499715 0.000000 0.000000
# 5 0.000000 0.000000 0.000000 0.000000 0.063758 0.000000
# 6 0.000000 0.000000 0.000000 0.000000 0.000000 0.031730
#
#
# Mechanical properties :
#
#
# Convention : Reuss Voigt Hill
#
# Bulk Modulus (GPa) = 20.30536 38.34547 29.32541
# Shear Modulus (GPa) = 7.18867 21.23468 14.21167
#
# Velocity S-wave (km/s) = 2.01647 3.46570 2.83525
# Velocity P-wave (km/s) = 4.11181 6.14039 5.22548
#
# Compressibility (1/GPa) = 0.04924809
#
# Stress axis : x y z
#
# Youngs Moduli (GPa) = 53.26120 76.71664 28.75725
#
# Poissons Ratio (x) = 0.70043 -0.12752
# Poissons Ratio (y) = 0.48628 0.11424
# Poissons Ratio (z) = -0.23618 0.30475
#
# Static dielectric constant tensor:
#      x y z
#    x 1.591050 0.000000 0.000000 
#    y 0.000000 1.677850 0.000000 
#    z 0.000000 0.000000 1.647570 
# 
# From -- ./inp_files/10150.got.cif
#   From: 2010.05.17/outbox.cif.g08.bks.cpg/sg65_6_cif.got.tgz:10150.got - 2010.06.03 17:01:31.
