data_PCOD9485844
_publ_section_title
;
Structure prediction by ZEFSAII (Michael W. Deem and Ramdas Pophale) SiO2 
 PCOD9485844
Probable space group: C M M M
;
_chemical_formula_sum "Si O2"
_cell_formula_units_Z 80
_cell_length_a 7.674657
_cell_length_b 18.843007
_cell_length_c 27.208494
_cell_angle_alpha 90.000000
_cell_angle_beta 90.000000
_cell_angle_gamma 90.000000
_cell_volume 3934.718692
_symmetry_space_group_name_H-M "C M M M"
_symmetry_group_IT_number 65
_symmetry_cell_setting 'orthorhombic'
loop_
_space_group_symop_operation_xyz
x,y,z
-x,-y,z
x,-y,-z
-x,y,-z
-x,-y,-z
x,y,-z
-x,y,z
x,-y,z
1/2+x,1/2+y,z
1/2-x,1/2-y,z
1/2+x,1/2-y,-z
1/2-x,1/2+y,-z
1/2-x,1/2-y,-z
1/2+x,1/2+y,-z
1/2-x,1/2+y,z
1/2+x,1/2-y,z
loop_
_atom_site_type_symbol
_atom_site_label
_atom_site_fract_x
_atom_site_fract_y
_atom_site_fract_z
Si Si1 0.290264 0.832718 0.649645
Si Si2 0.292429 0.666529 0.840272
Si Si3 0.209600 0.834188 0.947212
Si Si4 0.287458 0.917815 0.555056
Si Si5 0.707292 0.920029 0.743322
O O1 0.500000 0.839442 0.649260
O O2 0.250000 0.750000 0.652653
O O3 0.225669 0.868247 0.599148
O O4 0.222830 0.874819 0.697366
O O5 0.500000 0.660971 0.841767
O O6 0.250000 0.750000 0.834090
O O7 0.224281 0.641051 0.893900
O O8 0.231526 0.621226 0.794232
O O9 0.250000 0.750000 0.947375
O O10 0.000000 0.842796 0.947374
O O11 0.275119 0.862717 0.000000
O O12 0.230827 0.897075 0.500000
O O13 0.500000 0.916281 0.554960
O O14 0.237940 0.000000 0.563510
O O15 0.500000 0.925546 0.735680
O O16 0.778554 0.000000 0.745112
#
# Coordination Sequence:
#
# PCOD9485844 Si02
#       5
#    16  16  16  16  16
#     4  10  20  33  50  73  99 126 158 197 242 289
#     4  10  19  31  50  75 101 128 160 199 241 287
#     4   8  14  25  42  66  95 124 154 190 233 280
#     4   8  14  27  49  74  97 124 161 200 233 272
#     4  10  21  36  52  69  93 127 165 205 248 293
#
# _framework density 20.331823
#
# number of rings (size 3 to 8) (size 9 to 14) (size 15 to 20)
#    0.000    2.800    0.000    2.400    0.000    6.400 
#    0.000    0.000    0.000    2.400    0.000    5.600 
#    0.000    0.000    0.000    0.000    0.000    0.000 
#
# Total GULP energy -223002.658052 kJ/mol
# GULP energy per Si atom -5575.066451 kJ/mol
# Density = 2.028555 g / cm^3
# Si number density = 20.331823 Si / 1000 Ang^3
#
#
#
# Elastic Constant Matrix: (Units=GPa)
#
#
# Indices 1 2 3 4 5 6 
#
# 1 38.0618 1.8449 6.0636 0.0000 0.0000 0.0000
# 2 1.8449 120.3788 122.5007 0.0000 0.0000 0.0000
# 3 6.0636 122.5007 247.6053 0.0000 0.0000 0.0000
# 4 0.0000 0.0000 0.0000 -18.5705 0.0000 0.0000
# 5 0.0000 0.0000 0.0000 0.0000 10.7811 0.0000
# 6 0.0000 0.0000 0.0000 0.0000 0.0000 17.7960
#
#
#
# Elastic Compliance Matrix: (Units=1/GPa)
#
#
# Indices 1 2 3 4 5 6 
#
# 1 0.026392 0.000510 -0.000899 0.000000 0.000000 0.000000
# 2 0.000510 0.016740 -0.008294 0.000000 0.000000 0.000000
# 3 -0.000899 -0.008294 0.008164 0.000000 0.000000 0.000000
# 4 0.000000 0.000000 0.000000 -0.053849 0.000000 0.000000
# 5 0.000000 0.000000 0.000000 0.000000 0.092755 0.000000
# 6 0.000000 0.000000 0.000000 0.000000 0.000000 0.056192
#
#
# Mechanical properties :
#
#
# Convention : Reuss Voigt Hill
#
# Bulk Modulus (GPa) = 29.47279 74.09605 51.78442
# Shear Modulus (GPa) = 28.55994 20.37709 24.46852
#
# Velocity S-wave (km/s) = 3.75199 3.16923 3.47285
# Velocity P-wave (km/s) = 5.77038 7.06502 6.45026
#
# Compressibility (1/GPa) = 0.03392960
#
# Stress axis : x y z
#
# Youngs Moduli (GPa) = 37.89095 59.73739 122.48451
#
# Poissons Ratio (x) = -0.03046 0.11006
# Poissons Ratio (y) = -0.01932 1.01594
# Poissons Ratio (z) = 0.03405 0.49549
#
# Static dielectric constant tensor:
#      x y z
#    x 1.763300 0.000000 0.000000 
#    y 0.000000 1.671240 0.000000 
#    z 0.000000 0.000000 1.770190 
# 
# From -- ./inp_files/72735.got.cif
#   From: 2010.05.17/outbox.cif.g08.bks.cpg/sg65_37_cif.got.tgz:72735.got - 2010.06.03 17:01:31.
