data_PCOD9485220
_publ_section_title
;
Structure prediction by ZEFSAII (Michael W. Deem and Ramdas Pophale) SiO2 
 PCOD9485220
Probable space group: C M M M
;
_chemical_formula_sum "Si O2"
_cell_formula_units_Z 50
_cell_length_a 18.397142
_cell_length_b 20.784722
_cell_length_c 5.509220
_cell_angle_alpha 90.000000
_cell_angle_beta 90.000000
_cell_angle_gamma 90.000000
_cell_volume 2106.612690
_symmetry_space_group_name_H-M "C M M M"
_symmetry_group_IT_number 65
_symmetry_cell_setting 'orthorhombic'
loop_
_space_group_symop_operation_xyz
x,y,z
-x,-y,z
x,-y,-z
-x,y,-z
-x,-y,-z
x,y,-z
-x,y,z
x,-y,z
1/2+x,1/2+y,z
1/2-x,1/2-y,z
1/2+x,1/2-y,-z
1/2-x,1/2+y,-z
1/2-x,1/2-y,-z
1/2+x,1/2+y,-z
1/2-x,1/2+y,z
1/2+x,1/2-y,z
loop_
_atom_site_type_symbol
_atom_site_label
_atom_site_fract_x
_atom_site_fract_y
_atom_site_fract_z
Si Si1 0.000000 0.500000 0.000000
Si Si2 0.140521 0.586666 0.000000
Si Si3 0.919328 0.077399 0.000000
Si Si4 0.411478 0.234674 0.500000
Si Si5 0.337824 0.759455 0.000000
Si Si6 0.183425 0.393810 0.500000
Si Si7 0.663516 0.421581 0.500000
O O1 0.062184 0.556070 0.000000
O O2 0.148147 0.663684 0.000000
O O3 0.175922 0.567866 0.252286
O O4 0.879081 0.091621 0.748577
O O5 0.000000 0.105973 0.000000
O O6 0.925549 0.000000 0.000000
O O7 0.500000 0.235588 0.500000
O O8 0.377377 0.262604 0.750608
O O9 0.378750 0.161068 0.500000
O O10 0.250000 0.750000 0.000000
O O11 0.266974 0.374378 0.500000
O O12 0.679779 0.500000 0.500000
#
# Coordination Sequence:
#
# PCOD9485220 Si02
#       7
#     2   8   8   8   8   8   8
#     4  12  28  42  64  98 152 182 218 276 332 422
#     4  10  25  38  60  89 128 182 221 257 327 389
#     4   9  17  30  48  69  95 127 183 259 322 368
#     4  10  21  37  65  96 129 161 218 275 337 396
#     4  10  21  40  64  94 129 178 231 277 334 402
#     4  10  22  37  55  84 127 177 219 260 317 399
#     4  10  19  30  47  73 107 147 199 249 303 372
#
# _framework density 23.734783
#
# number of rings (size 3 to 8) (size 9 to 14) (size 15 to 20)
#    0.000    2.080    0.000    2.400   11.200    2.560 
#    0.000    0.000    0.000    0.000    0.000   89.600 
#    0.000    0.000    0.000    0.960    0.000    0.000 
#
# Total GULP energy -139191.872720 kJ/mol
# GULP energy per Si atom -5567.674909 kJ/mol
# Density = 2.368076 g / cm^3
# Si number density = 23.734783 Si / 1000 Ang^3
#
#
#
# Elastic Constant Matrix: (Units=GPa)
#
#
# Indices 1 2 3 4 5 6 
#
# 1 242.2721 26.3536 113.2656 0.0000 0.0000 0.0000
# 2 26.3536 126.8022 5.7029 0.0000 0.0000 0.0000
# 3 113.2656 5.7029 292.5104 0.0000 0.0000 0.0000
# 4 0.0000 0.0000 0.0000 32.2871 0.0000 0.0000
# 5 0.0000 0.0000 0.0000 0.0000 69.5275 0.0000
# 6 0.0000 0.0000 0.0000 0.0000 0.0000 31.2764
#
#
#
# Elastic Compliance Matrix: (Units=1/GPa)
#
#
# Indices 1 2 3 4 5 6 
#
# 1 0.005160 -0.000983 -0.001979 0.000000 0.000000 0.000000
# 2 -0.000983 0.008081 0.000223 0.000000 0.000000 0.000000
# 3 -0.001979 0.000223 0.004181 0.000000 0.000000 0.000000
# 4 0.000000 0.000000 0.000000 0.030972 0.000000 0.000000
# 5 0.000000 0.000000 0.000000 0.000000 0.014383 0.000000
# 6 0.000000 0.000000 0.000000 0.000000 0.000000 0.031973
#
#
# Mechanical properties :
#
#
# Convention : Reuss Voigt Hill
#
# Bulk Modulus (GPa) = 83.73045 105.80321 94.76683
# Shear Modulus (GPa) = 47.98119 61.03570 54.50845
#
# Velocity S-wave (km/s) = 4.50105 5.07657 4.79745
# Velocity P-wave (km/s) = 7.89726 8.89023 8.40841
#
# Compressibility (1/GPa) = 0.01194309
#
# Stress axis : x y z
#
# Youngs Moduli (GPa) = 193.81180 123.75278 239.20384
#
# Poissons Ratio (x) = 0.12169 0.47332
# Poissons Ratio (y) = 0.19058 -0.05340
# Poissons Ratio (z) = 0.38350 -0.02762
#
# Static dielectric constant tensor:
#      x y z
#    x 1.898080 0.000000 0.000000 
#    y 0.000000 1.899960 0.000000 
#    z 0.000000 0.000000 1.882880 
# 
# From -- ./inp_files/743.got.cif
#   From: 2010.05.17/outbox.cif.g08.bks.cpg/sg65_1_cif.got.tgz:743.got - 2010.06.03 17:01:31.
