data_PCOD9485031
_publ_section_title
;
Structure prediction by ZEFSAII (Michael W. Deem and Ramdas Pophale) SiO2 
 PCOD9485031
Probable space group: C M M M
;
_chemical_formula_sum "Si O2"
_cell_formula_units_Z 104
_cell_length_a 8.141994
_cell_length_b 28.292286
_cell_length_c 28.786578
_cell_angle_alpha 90.000000
_cell_angle_beta 90.000000
_cell_angle_gamma 90.000000
_cell_volume 6631.150105
_symmetry_space_group_name_H-M "C M M M"
_symmetry_group_IT_number 65
_symmetry_cell_setting 'orthorhombic'
loop_
_space_group_symop_operation_xyz
x,y,z
-x,-y,z
x,-y,-z
-x,y,-z
-x,-y,-z
x,y,-z
-x,y,z
x,-y,z
1/2+x,1/2+y,z
1/2-x,1/2-y,z
1/2+x,1/2-y,-z
1/2-x,1/2+y,-z
1/2-x,1/2-y,-z
1/2+x,1/2+y,-z
1/2-x,1/2+y,z
1/2+x,1/2-y,z
loop_
_atom_site_type_symbol
_atom_site_label
_atom_site_fract_x
_atom_site_fract_y
_atom_site_fract_z
Si Si1 0.500000 0.442706 0.446916
Si Si2 0.695387 0.447637 0.809123
Si Si3 0.807563 0.443092 0.382539
Si Si4 0.197845 0.853573 0.855442
Si Si5 0.696051 0.196015 0.948302
Si Si6 0.696480 0.696855 0.761792
Si Si7 0.694149 0.101946 0.716941
O O1 0.500000 0.500000 0.448175
O O2 0.500000 0.425573 0.500000
O O3 0.667790 0.429576 0.419830
O O4 0.500000 0.450264 0.817084
O O5 0.765689 0.500000 0.815550
O O6 0.760436 0.405821 0.842046
O O7 0.720661 0.429341 0.756685
O O8 0.797563 0.500000 0.375527
O O9 0.767489 0.416842 0.334298
O O10 0.000000 0.432995 0.394977
O O11 0.246132 0.835791 0.905857
O O12 0.254027 0.818870 0.813647
O O13 0.000000 0.854294 0.853232
O O14 0.500000 0.194901 0.949156
O O15 0.750000 0.250000 0.939973
O O16 0.757443 0.182377 0.000000
O O17 0.500000 0.694778 0.761335
O O18 0.750000 0.750000 0.751325
O O19 0.759955 0.656314 0.727070
O O20 0.500000 0.096362 0.723535
#
# Coordination Sequence:
#
# PCOD9485031 Si02
#       7
#     8  16  16  16  16  16  16
#     4   9  18  30  46  68  94 130 168 200 243 289
#     4   9  18  31  47  67  91 120 154 190 225 266
#     4   9  18  30  45  68  97 129 164 202 239 281
#     4   9  18  31  47  67  89 116 149 181 224 271
#     4  10  20  32  47  67  88 111 142 182 226 273
#     4  10  20  32  46  66  93 125 154 186 226 274
#     4  10  19  30  45  67  94 125 158 193 229 274
#
# _framework density 15.683553
#
# number of rings (size 3 to 8) (size 9 to 14) (size 15 to 20)
#    0.000    2.538    0.000    3.231    2.154    6.462 
#    0.000    1.538    0.000    0.462    0.000    3.231 
#    0.000    0.615    0.308    0.000    0.000    0.000 
#
# Total GULP energy -289766.218677 kJ/mol
# GULP energy per Si atom -5572.427282 kJ/mol
# Density = 1.564786 g / cm^3
# Si number density = 15.683553 Si / 1000 Ang^3
#
#
#
# Elastic Constant Matrix: (Units=GPa)
#
#
# Indices 1 2 3 4 5 6 
#
# 1 36.2771 19.4785 41.1838 0.0000 0.0000 0.0000
# 2 19.4785 87.1726 56.1871 0.0000 0.0000 0.0000
# 3 41.1838 56.1871 121.8699 0.0000 0.0000 0.0000
# 4 0.0000 0.0000 0.0000 12.4391 0.0000 0.0000
# 5 0.0000 0.0000 0.0000 0.0000 19.2967 0.0000
# 6 0.0000 0.0000 0.0000 0.0000 0.0000 15.1585
#
#
#
# Elastic Compliance Matrix: (Units=1/GPa)
#
#
# Indices 1 2 3 4 5 6 
#
# 1 0.044731 -0.000359 -0.014951 0.000000 0.000000 0.000000
# 2 -0.000359 0.016325 -0.007405 0.000000 0.000000 0.000000
# 3 -0.014951 -0.007405 0.016672 0.000000 0.000000 0.000000
# 4 0.000000 0.000000 0.000000 0.080392 0.000000 0.000000
# 5 0.000000 0.000000 0.000000 0.000000 0.051822 0.000000
# 6 0.000000 0.000000 0.000000 0.000000 0.000000 0.065970
#
#
# Mechanical properties :
#
#
# Convention : Reuss Voigt Hill
#
# Bulk Modulus (GPa) = 30.96111 53.22427 42.09269
# Shear Modulus (GPa) = 15.05543 17.94354 16.49948
#
# Velocity S-wave (km/s) = 3.10167 3.38612 3.24701
# Velocity P-wave (km/s) = 5.71061 7.02124 6.39957
#
# Compressibility (1/GPa) = 0.03229858
#
# Stress axis : x y z
#
# Youngs Moduli (GPa) = 22.35587 61.25723 59.98116
#
# Poissons Ratio (x) = 0.02196 0.89676
# Poissons Ratio (y) = 0.00802 0.44417
# Poissons Ratio (z) = 0.33424 0.45362
#
# Static dielectric constant tensor:
#      x y z
#    x 1.549860 0.000000 0.000000 
#    y 0.000000 1.525560 0.000000 
#    z 0.000000 0.000000 1.515670 
# 
# From -- ./inp_files/73739.got.cif
#   From: 2010.05.17/outbox.cif.g08.bks.cpg/sg65_37_cif.got.tgz:73739.got - 2010.06.03 17:01:31.
