data_PCOD9485879
_publ_section_title
;
Structure prediction by ZEFSAII (Michael W. Deem and Ramdas Pophale) SiO2 
 PCOD9485879
Probable space group: C M M M
;
_chemical_formula_sum "Si O2"
_cell_formula_units_Z 88
_cell_length_a 18.667525
_cell_length_b 8.058376
_cell_length_c 30.077497
_cell_angle_alpha 90.000000
_cell_angle_beta 90.000000
_cell_angle_gamma 90.000000
_cell_volume 4524.555932
_symmetry_space_group_name_H-M "C M M M"
_symmetry_group_IT_number 65
_symmetry_cell_setting 'orthorhombic'
loop_
_space_group_symop_operation_xyz
x,y,z
-x,-y,z
x,-y,-z
-x,y,-z
-x,-y,-z
x,y,-z
-x,y,z
x,-y,z
1/2+x,1/2+y,z
1/2-x,1/2-y,z
1/2+x,1/2-y,-z
1/2-x,1/2+y,-z
1/2-x,1/2-y,-z
1/2+x,1/2+y,-z
1/2-x,1/2+y,z
1/2+x,1/2-y,z
loop_
_atom_site_type_symbol
_atom_site_label
_atom_site_fract_x
_atom_site_fract_y
_atom_site_fract_z
Si Si1 0.417518 0.300502 0.404582
Si Si2 0.081281 0.800602 0.768312
Si Si3 0.917546 0.302272 0.500000
Si Si4 0.333221 0.198771 0.855315
Si Si5 0.832468 0.799355 0.681970
Si Si6 0.166199 0.700378 0.047741
O O1 0.500000 0.238570 0.401769
O O2 0.420307 0.500000 0.402152
O O3 0.386465 0.254869 0.452942
O O4 0.371445 0.239706 0.362951
O O5 0.121097 0.761378 0.814104
O O6 0.126039 0.738573 0.725864
O O7 0.000000 0.736544 0.768082
O O8 0.078048 0.000000 0.764290
O O9 0.919306 0.500000 0.500000
O O10 0.000000 0.236932 0.500000
O O11 0.250000 0.250000 0.850542
O O12 0.360710 0.258711 0.904005
O O13 0.335771 0.000000 0.855258
O O14 0.750000 0.750000 0.683175
O O15 0.836101 0.000000 0.681911
O O16 0.161458 0.500000 0.047667
O O17 0.250000 0.750000 0.047587
O O18 0.135813 0.759475 0.000000
#
# Coordination Sequence:
#
# PCOD9485879 Si02
#       6
#    16  16   8  16  16  16
#     4   9  17  32  54  76  99 131 170 205 238 284
#     4  10  21  37  55  74  99 132 169 210 256 304
#     4   9  17  29  48  77 108 133 161 201 246 287
#     4  10  19  31  50  76 104 133 167 207 251 300
#     4  10  21  36  54  76 101 130 165 205 250 299
#     4   8  14  25  42  66  96 128 162 201 244 290
#
# _framework density 19.449421999999998
#
# number of rings (size 3 to 8) (size 9 to 14) (size 15 to 20)
#    0.000    2.636    0.000    1.909    0.000    7.273 
#    0.000    0.455    0.000    3.818    0.000    3.818 
#    0.000    0.000    0.000    0.000    0.000    0.000 
#
# Total GULP energy -245244.781606 kJ/mol
# GULP energy per Si atom -5573.745037 kJ/mol
# Density = 1.940515 g / cm^3
# Si number density = 19.449422 Si / 1000 Ang^3
#
#
#
# Elastic Constant Matrix: (Units=GPa)
#
#
# Indices 1 2 3 4 5 6 
#
# 1 96.6311 6.4725 97.0476 0.0000 0.0000 0.0000
# 2 6.4725 14.0542 12.4488 0.0000 0.0000 0.0000
# 3 97.0476 12.4488 251.3337 0.0000 0.0000 0.0000
# 4 0.0000 0.0000 0.0000 20.4944 0.0000 0.0000
# 5 0.0000 0.0000 0.0000 0.0000 36.0136 0.0000
# 6 0.0000 0.0000 0.0000 0.0000 0.0000 19.9911
#
#
#
# Elastic Compliance Matrix: (Units=1/GPa)
#
#
# Indices 1 2 3 4 5 6 
#
# 1 0.016963 -0.002103 -0.006446 0.000000 0.000000 0.000000
# 2 -0.002103 0.074679 -0.002887 0.000000 0.000000 0.000000
# 3 -0.006446 -0.002887 0.006611 0.000000 0.000000 0.000000
# 4 0.000000 0.000000 0.000000 0.048794 0.000000 0.000000
# 5 0.000000 0.000000 0.000000 0.000000 0.027767 0.000000
# 6 0.000000 0.000000 0.000000 0.000000 0.000000 0.050022
#
#
# Mechanical properties :
#
#
# Convention : Reuss Voigt Hill
#
# Bulk Modulus (GPa) = 13.26583 65.99518 39.63051
# Shear Modulus (GPa) = 18.32614 31.70315 25.01464
#
# Velocity S-wave (km/s) = 3.07293 4.04174 3.59017
# Velocity P-wave (km/s) = 4.40750 7.46902 6.13239
#
# Compressibility (1/GPa) = 0.07538162
#
# Stress axis : x y z
#
# Youngs Moduli (GPa) = 58.95160 13.39067 151.27009
#
# Poissons Ratio (x) = 0.02816 0.97506
# Poissons Ratio (y) = 0.12396 0.43671
# Poissons Ratio (z) = 0.37999 0.03866
#
# Static dielectric constant tensor:
#      x y z
#    x 1.642370 0.000000 0.000000 
#    y 0.000000 1.719040 0.000000 
#    z 0.000000 0.000000 1.728800 
# 
# From -- ./inp_files/77818.got.cif
#   From: 2010.05.17/outbox.cif.g08.bks.cpg/sg65_39_cif.got.tgz:77818.got - 2010.06.03 17:01:31.
