data_PCOD9485703
_publ_section_title
;
Structure prediction by ZEFSAII (Michael W. Deem and Ramdas Pophale) SiO2 
 PCOD9485703
Probable space group: C M M M
;
_chemical_formula_sum "Si O2"
_cell_formula_units_Z 96
_cell_length_a 8.967932
_cell_length_b 19.260044
_cell_length_c 32.440370
_cell_angle_alpha 90.000000
_cell_angle_beta 90.000000
_cell_angle_gamma 90.000000
_cell_volume 5603.190401
_symmetry_space_group_name_H-M "C M M M"
_symmetry_group_IT_number 65
_symmetry_cell_setting 'orthorhombic'
loop_
_space_group_symop_operation_xyz
x,y,z
-x,-y,z
x,-y,-z
-x,y,-z
-x,-y,-z
x,y,-z
-x,y,z
x,-y,z
1/2+x,1/2+y,z
1/2-x,1/2-y,z
1/2+x,1/2-y,-z
1/2-x,1/2+y,-z
1/2-x,1/2-y,-z
1/2+x,1/2+y,-z
1/2-x,1/2+y,z
1/2+x,1/2-y,z
loop_
_atom_site_type_symbol
_atom_site_label
_atom_site_fract_x
_atom_site_fract_y
_atom_site_fract_z
Si Si1 0.672251 0.084367 0.290917
Si Si2 0.320100 0.081566 0.382508
Si Si3 0.321934 0.674124 0.546867
Si Si4 0.679121 0.173126 0.865125
Si Si5 0.820535 0.326792 0.044257
Si Si6 0.323265 0.417565 0.793751
O O1 0.500000 0.105672 0.285045
O O2 0.724081 0.106562 0.336448
O O3 0.768206 0.105401 0.251589
O O4 0.673197 0.000000 0.292295
O O5 0.500000 0.087474 0.384738
O O6 0.244646 0.124157 0.418697
O O7 0.282925 0.000000 0.386156
O O8 0.288327 0.650014 0.500000
O O9 0.500000 0.679068 0.550986
O O10 0.250000 0.750000 0.551544
O O11 0.500000 0.178479 0.862474
O O12 0.750000 0.250000 0.861833
O O13 0.719626 0.143464 0.910862
O O14 0.740680 0.124930 0.829125
O O15 0.750000 0.250000 0.044016
O O16 0.000000 0.320767 0.044212
O O17 0.777498 0.360117 0.000000
O O18 0.500000 0.407965 0.797281
O O19 0.290553 0.500000 0.797586
#
# Coordination Sequence:
#
# PCOD9485703 Si02
#       6
#    16  16  16  16  16  16
#     4   8  15  30  51  73  97 126 161 199 240 288
#     4   9  18  33  54  79 104 129 159 199 245 290
#     4  10  21  36  53  73 100 135 171 205 242 287
#     4  10  19  31  49  72  99 128 158 198 245 289
#     4   8  14  25  42  65  91 119 153 192 235 284
#     4  10  20  33  50  72  98 129 165 202 240 287
#
# _framework density 17.133095999999998
#
# number of rings (size 3 to 8) (size 9 to 14) (size 15 to 20)
#    0.000    2.833    0.000    2.500    0.000    4.000 
#    0.000    4.167    0.000    4.500    0.000    3.500 
#    0.000    0.000    0.000    0.000    0.000    0.000 
#
# Total GULP energy -267297.835069 kJ/mol
# GULP energy per Si atom -5568.704897 kJ/mol
# Density = 1.709410 g / cm^3
# Si number density = 17.133096 Si / 1000 Ang^3
#
#
#
# Elastic Constant Matrix: (Units=GPa)
#
#
# Indices 1 2 3 4 5 6 
#
# 1 48.6925 34.4762 72.1947 0.0000 0.0000 0.0000
# 2 34.4762 36.8094 67.9245 0.0000 0.0000 0.0000
# 3 72.1947 67.9245 210.4126 0.0000 0.0000 0.0000
# 4 0.0000 0.0000 0.0000 25.6078 0.0000 0.0000
# 5 0.0000 0.0000 0.0000 0.0000 26.1796 0.0000
# 6 0.0000 0.0000 0.0000 0.0000 0.0000 23.9326
#
#
#
# Elastic Compliance Matrix: (Units=1/GPa)
#
#
# Indices 1 2 3 4 5 6 
#
# 1 0.064362 -0.048310 -0.006488 0.000000 0.000000 0.000000
# 2 -0.048310 0.103455 -0.016821 0.000000 0.000000 0.000000
# 3 -0.006488 -0.016821 0.012409 0.000000 0.000000 0.000000
# 4 0.000000 0.000000 0.000000 0.039051 0.000000 0.000000
# 5 0.000000 0.000000 0.000000 0.000000 0.038198 0.000000
# 6 0.000000 0.000000 0.000000 0.000000 0.000000 0.041784
#
#
# Mechanical properties :
#
#
# Convention : Reuss Voigt Hill
#
# Bulk Modulus (GPa) = 27.03621 71.67837 49.35729
# Shear Modulus (GPa) = 10.99322 23.23195 17.11258
#
# Velocity S-wave (km/s) = 2.53580 3.68634 3.16381
# Velocity P-wave (km/s) = 4.93843 7.74893 6.49746
#
# Compressibility (1/GPa) = 0.03698743
#
# Stress axis : x y z
#
# Youngs Moduli (GPa) = 15.53715 9.66602 80.58753
#
# Poissons Ratio (x) = 0.46696 0.52285
# Poissons Ratio (y) = 0.75060 1.35559
# Poissons Ratio (z) = 0.10081 0.16260
#
# Static dielectric constant tensor:
#      x y z
#    x 1.571380 0.000000 0.000000 
#    y 0.000000 1.550130 0.000000 
#    z 0.000000 0.000000 1.620350 
# 
# From -- ./inp_files/73154.got.cif
#   From: 2010.05.17/outbox.cif.g08.bks.cpg/sg65_37_cif.got.tgz:73154.got - 2010.06.03 17:01:31.
