data_PCOD9485112
_publ_section_title
;
Structure prediction by ZEFSAII (Michael W. Deem and Ramdas Pophale) SiO2 
 PCOD9485112
Probable space group: C M M M
;
_chemical_formula_sum "Si O2"
_cell_formula_units_Z 104
_cell_length_a 9.053079
_cell_length_b 28.038486
_cell_length_c 26.987661
_cell_angle_alpha 90.000000
_cell_angle_beta 90.000000
_cell_angle_gamma 90.000000
_cell_volume 6850.402912
_symmetry_space_group_name_H-M "C M M M"
_symmetry_group_IT_number 65
_symmetry_cell_setting 'orthorhombic'
loop_
_space_group_symop_operation_xyz
x,y,z
-x,-y,z
x,-y,-z
-x,y,-z
-x,-y,-z
x,y,-z
-x,y,z
x,-y,z
1/2+x,1/2+y,z
1/2-x,1/2-y,z
1/2+x,1/2-y,-z
1/2-x,1/2+y,-z
1/2-x,1/2-y,-z
1/2+x,1/2+y,-z
1/2-x,1/2+y,z
1/2+x,1/2-y,z
loop_
_atom_site_type_symbol
_atom_site_label
_atom_site_fract_x
_atom_site_fract_y
_atom_site_fract_z
Si Si1 0.330119 0.442085 0.500000
Si Si2 0.676129 0.444932 0.792144
Si Si3 0.822652 0.444315 0.398085
Si Si4 0.175120 0.855266 0.855565
Si Si5 0.675833 0.198759 0.942996
Si Si6 0.676747 0.698577 0.752465
Si Si7 0.677339 0.109188 0.702488
O O1 0.325603 0.500000 0.500000
O O2 0.500000 0.426989 0.500000
O O3 0.250007 0.427615 0.550669
O O4 0.500000 0.439161 0.781874
O O5 0.704807 0.500000 0.803419
O O6 0.710976 0.408402 0.836460
O O7 0.765577 0.427450 0.744336
O O8 0.780779 0.500000 0.389210
O O9 0.782224 0.412179 0.351033
O O10 0.000000 0.443244 0.403380
O O11 0.263560 0.838150 0.903049
O O12 0.205873 0.821219 0.808174
O O13 0.000000 0.852506 0.865713
O O14 0.500000 0.203490 0.938607
O O15 0.750000 0.250000 0.933110
O O16 0.711207 0.185599 0.000000
O O17 0.500000 0.700744 0.746153
O O18 0.750000 0.750000 0.746210
O O19 0.746519 0.659333 0.715796
O O20 0.500000 0.113630 0.705247
#
# Coordination Sequence:
#
# PCOD9485112 Si02
#       7
#     8  16  16  16  16  16  16
#     4   9  17  27  41  63  88 117 154 191 227 267
#     4   9  18  32  48  67  93 123 154 189 227 266
#     4   9  17  29  44  63  91 124 154 186 224 266
#     4   9  18  31  48  69  91 118 150 183 222 267
#     4  10  20  32  47  68  92 117 146 182 225 271
#     4  10  20  33  48  68  94 122 152 187 227 270
#     4  10  19  30  46  69  94 122 156 189 225 271
#
# _framework density 15.18159
#
# number of rings (size 3 to 8) (size 9 to 14) (size 15 to 20)
#    0.000    2.538    0.000    3.462    0.000    8.308 
#    0.000    1.538    0.000    0.462    0.000    3.769 
#    0.000    0.000    0.000    0.000    0.000    0.000 
#
# Total GULP energy -289947.048567 kJ/mol
# GULP energy per Si atom -5575.904780 kJ/mol
# Density = 1.514704 g / cm^3
# Si number density = 15.181590 Si / 1000 Ang^3
#
#
#
# Elastic Constant Matrix: (Units=GPa)
#
#
# Indices 1 2 3 4 5 6 
#
# 1 53.3431 52.1730 61.6491 0.0000 0.0000 0.0000
# 2 52.1730 116.8352 73.1338 0.0000 0.0000 0.0000
# 3 61.6491 73.1338 122.7290 0.0000 0.0000 0.0000
# 4 0.0000 0.0000 0.0000 20.7909 0.0000 0.0000
# 5 0.0000 0.0000 0.0000 0.0000 24.2586 0.0000
# 6 0.0000 0.0000 0.0000 0.0000 0.0000 23.3173
#
#
#
# Elastic Compliance Matrix: (Units=1/GPa)
#
#
# Indices 1 2 3 4 5 6 
#
# 1 0.052294 -0.011019 -0.019702 0.000000 0.000000 0.000000
# 2 -0.011019 0.015973 -0.003983 0.000000 0.000000 0.000000
# 3 -0.019702 -0.003983 0.020418 0.000000 0.000000 0.000000
# 4 0.000000 0.000000 0.000000 0.048098 0.000000 0.000000
# 5 0.000000 0.000000 0.000000 0.000000 0.041222 0.000000
# 6 0.000000 0.000000 0.000000 0.000000 0.000000 0.042887
#
#
# Mechanical properties :
#
#
# Convention : Reuss Voigt Hill
#
# Bulk Modulus (GPa) = 51.87664 74.09102 62.98383
# Shear Modulus (GPa) = 16.85060 20.73679 18.79369
#
# Velocity S-wave (km/s) = 3.33518 3.69984 3.52224
# Velocity P-wave (km/s) = 7.00544 8.19518 7.62355
#
# Compressibility (1/GPa) = 0.01927650
#
# Stress axis : x y z
#
# Youngs Moduli (GPa) = 19.12276 62.60572 48.97636
#
# Poissons Ratio (x) = 0.68988 0.96492
# Poissons Ratio (y) = 0.21072 0.19507
# Poissons Ratio (z) = 0.37675 0.24936
#
# Static dielectric constant tensor:
#      x y z
#    x 1.506700 0.000000 0.000000 
#    y 0.000000 1.490660 0.000000 
#    z 0.000000 0.000000 1.487810 
# 
# From -- ./inp_files/73738.got.cif
#   From: 2010.05.17/outbox.cif.g08.bks.cpg/sg65_37_cif.got.tgz:73738.got - 2010.06.03 17:01:31.
