data_PCOD9485391
_publ_section_title
;
Structure prediction by ZEFSAII (Michael W. Deem and Ramdas Pophale) SiO2 
 PCOD9485391
Probable space group: C M M M
;
_chemical_formula_sum "Si O2"
_cell_formula_units_Z 120
_cell_length_a 29.377756
_cell_length_b 7.951310
_cell_length_c 29.738330
_cell_angle_alpha 90.000000
_cell_angle_beta 90.000000
_cell_angle_gamma 90.000000
_cell_volume 6946.625426
_symmetry_space_group_name_H-M "C M M M"
_symmetry_group_IT_number 65
_symmetry_cell_setting 'orthorhombic'
loop_
_space_group_symop_operation_xyz
x,y,z
-x,-y,z
x,-y,-z
-x,y,-z
-x,-y,-z
x,y,-z
-x,y,z
x,-y,z
1/2+x,1/2+y,z
1/2-x,1/2-y,z
1/2+x,1/2-y,-z
1/2-x,1/2+y,-z
1/2-x,1/2-y,-z
1/2+x,1/2+y,-z
1/2-x,1/2+y,z
1/2+x,1/2-y,z
loop_
_atom_site_type_symbol
_atom_site_label
_atom_site_fract_x
_atom_site_fract_y
_atom_site_fract_z
Si Si1 0.605270 0.201411 0.233052
Si Si2 0.447253 0.293493 0.500000
Si Si3 0.394101 0.701346 0.411723
Si Si4 0.447498 0.796228 0.321827
Si Si5 0.300469 0.299810 0.270169
Si Si6 0.947676 0.701781 0.145850
Si Si7 0.053262 0.202408 0.048491
Si Si8 0.300599 0.702777 0.626611
O O1 0.578887 0.264937 0.277412
O O2 0.658311 0.238143 0.239690
O O3 0.582451 0.266262 0.187251
O O4 0.599715 0.000000 0.232811
O O5 0.447563 0.500000 0.500000
O O6 0.500000 0.240652 0.500000
O O7 0.420637 0.235308 0.544516
O O8 0.391009 0.500000 0.416970
O O9 0.422504 0.737416 0.366743
O O10 0.342784 0.765254 0.403109
O O11 0.500000 0.741969 0.321170
O O12 0.446788 0.000000 0.321553
O O13 0.302945 0.500000 0.272144
O O14 0.250000 0.250000 0.254986
O O15 0.306169 0.234750 0.321716
O O16 0.950141 0.500000 0.149508
O O17 0.928015 0.740220 0.096396
O O18 0.000000 0.766254 0.148746
O O19 0.000000 0.255290 0.048882
O O20 0.054140 0.000000 0.048440
O O21 0.072491 0.259668 0.000000
O O22 0.302918 0.500000 0.627946
O O23 0.250000 0.750000 0.611228
#
# Coordination Sequence:
#
# PCOD9485391 Si02
#       8
#    16   8  16  16  16  16  16  16
#     4  10  19  31  46  66  95 127 156 189 231 277
#     4   9  18  32  52  73  93 121 153 189 234 275
#     4  10  19  34  52  72  93 118 155 194 229 272
#     4  10  20  32  47  68  94 125 157 188 226 272
#     4  10  19  32  49  70  93 119 153 190 233 279
#     4   9  17  28  42  62  91 127 163 197 233 275
#     4   8  14  25  40  58  83 118 160 203 243 279
#     4   9  18  31  49  71  94 117 145 185 229 275
#
# _framework density 17.274573
#
# number of rings (size 3 to 8) (size 9 to 14) (size 15 to 20)
#    0.000    2.600    1.333    1.600    0.000    4.267 
#    0.000    2.000    0.000    3.600    0.000    0.000 
#    0.000    0.533    0.000    1.733    0.000    2.533 
#
# Total GULP energy -334456.232456 kJ/mol
# GULP energy per Si atom -5574.270541 kJ/mol
# Density = 1.723526 g / cm^3
# Si number density = 17.274573 Si / 1000 Ang^3
#
#
#
# Elastic Constant Matrix: (Units=GPa)
#
#
# Indices 1 2 3 4 5 6 
#
# 1 131.8538 1.4987 86.2487 0.0000 0.0000 0.0000
# 2 1.4987 9.9192 7.8261 0.0000 0.0000 0.0000
# 3 86.2487 7.8261 163.2115 0.0000 0.0000 0.0000
# 4 0.0000 0.0000 0.0000 19.4653 0.0000 0.0000
# 5 0.0000 0.0000 0.0000 0.0000 0.9161 0.0000
# 6 0.0000 0.0000 0.0000 0.0000 0.0000 15.0939
#
#
#
# Elastic Compliance Matrix: (Units=1/GPa)
#
#
# Indices 1 2 3 4 5 6 
#
# 1 0.011689 0.003230 -0.006332 0.000000 0.000000 0.000000
# 2 0.003230 0.105671 -0.006774 0.000000 0.000000 0.000000
# 3 -0.006332 -0.006774 0.009798 0.000000 0.000000 0.000000
# 4 0.000000 0.000000 0.000000 0.051373 0.000000 0.000000
# 5 0.000000 0.000000 0.000000 0.000000 1.091539 0.000000
# 6 0.000000 0.000000 0.000000 0.000000 0.000000 0.066252
#
#
# Mechanical properties :
#
#
# Convention : Reuss Voigt Hill
#
# Bulk Modulus (GPa) = 9.31045 55.12573 32.21809
# Shear Modulus (GPa) = 3.59227 21.05579 12.32403
#
# Velocity S-wave (km/s) = 1.44362 3.49505 2.67389
# Velocity P-wave (km/s) = 2.86009 6.94751 5.31263
#
# Compressibility (1/GPa) = 0.10740618
#
# Stress axis : x y z
#
# Youngs Moduli (GPa) = 85.54723 9.46334 102.06131
#
# Poissons Ratio (x) = -0.03057 0.64627
# Poissons Ratio (y) = -0.27631 0.69135
# Poissons Ratio (z) = 0.54170 0.06410
#
# Static dielectric constant tensor:
#      x y z
#    x 1.593360 0.000000 0.000000 
#    y 0.000000 1.618100 0.000000 
#    z 0.000000 0.000000 1.602100 
# 
# From -- ./inp_files/76104.got.cif
#   From: 2010.05.17/outbox.cif.g08.bks.cpg/sg65_39_cif.got.tgz:76104.got - 2010.06.03 17:01:31.
