data_PCOD9485001
_publ_section_title
;
Structure prediction by ZEFSAII (Michael W. Deem and Ramdas Pophale) SiO2 
 PCOD9485001
Probable space group: C M M M
;
_chemical_formula_sum "Si O2"
_cell_formula_units_Z 88
_cell_length_a 18.612118
_cell_length_b 7.330418
_cell_length_c 30.369859
_cell_angle_alpha 90.000000
_cell_angle_beta 90.000000
_cell_angle_gamma 90.000000
_cell_volume 4143.499711
_symmetry_space_group_name_H-M "C M M M"
_symmetry_group_IT_number 65
_symmetry_cell_setting 'orthorhombic'
loop_
_space_group_symop_operation_xyz
x,y,z
-x,-y,z
x,-y,-z
-x,y,-z
-x,-y,-z
x,y,-z
-x,y,z
x,-y,z
1/2+x,1/2+y,z
1/2-x,1/2-y,z
1/2+x,1/2-y,-z
1/2-x,1/2+y,-z
1/2-x,1/2-y,-z
1/2+x,1/2+y,-z
1/2-x,1/2+y,z
1/2+x,1/2-y,z
loop_
_atom_site_type_symbol
_atom_site_label
_atom_site_fract_x
_atom_site_fract_y
_atom_site_fract_z
Si Si1 0.665029 0.217617 0.048235
Si Si2 0.083823 0.722947 0.673881
Si Si3 0.416257 0.777125 0.134565
Si Si4 0.586966 0.784046 0.230069
Si Si5 0.665316 0.217423 0.587276
Si Si6 0.416787 0.776937 0.500000
O O1 0.750000 0.250000 0.051810
O O2 0.625815 0.287626 0.091684
O O3 0.653223 0.000000 0.047609
O O4 0.641527 0.287460 0.000000
O O5 0.085023 0.500000 0.674846
O O6 0.110212 0.786479 0.722134
O O7 0.130763 0.785849 0.632747
O O8 0.000000 0.773717 0.668155
O O9 0.500000 0.727850 0.130859
O O10 0.388107 0.713737 0.182494
O O11 0.413440 0.000000 0.135335
O O12 0.500000 0.765103 0.229807
O O13 0.602502 0.000000 0.230170
O O14 0.750000 0.250000 0.584726
O O15 0.624262 0.285059 0.543902
O O16 0.654407 0.000000 0.587741
O O17 0.500000 0.722683 0.500000
O O18 0.415549 0.000000 0.500000
#
# Coordination Sequence:
#
# PCOD9485001 Si02
#       6
#    16  16  16  16  16   8
#     4   9  17  28  41  57  79 107 135 163 198 242
#     4   8  13  23  41  62  81 106 142 175 199 231
#     4   8  13  22  38  60  82 102 129 169 211 242
#     4   7  10  18  34  57  82 103 127 166 209 239
#     4  10  19  30  45  65  90 115 137 168 209 248
#     4   9  17  30  49  69  84 105 144 184 208 233
#
# _framework density 21.238084000000001
#
# number of rings (size 3 to 8) (size 9 to 14) (size 15 to 20)
#    0.000    3.545    0.000    3.000    0.000    2.545 
#    0.000    2.727    0.000    3.273    0.000    2.545 
#    0.000    4.364    0.000    0.000    0.000    0.000 
#
# Total GULP energy -245282.921778 kJ/mol
# GULP energy per Si atom -5574.611859 kJ/mol
# Density = 2.118975 g / cm^3
# Si number density = 21.238084 Si / 1000 Ang^3
#
#
#
# Elastic Constant Matrix: (Units=GPa)
#
#
# Indices 1 2 3 4 5 6 
#
# 1 87.6557 -4.7436 116.5862 0.0000 0.0000 0.0000
# 2 -4.7436 81.1093 16.4040 0.0000 0.0000 0.0000
# 3 116.5862 16.4040 304.9078 0.0000 0.0000 0.0000
# 4 0.0000 0.0000 0.0000 -32.5778 0.0000 0.0000
# 5 0.0000 0.0000 0.0000 0.0000 -9.6852 0.0000
# 6 0.0000 0.0000 0.0000 0.0000 0.0000 5.4674
#
#
#
# Elastic Compliance Matrix: (Units=1/GPa)
#
#
# Indices 1 2 3 4 5 6 
#
# 1 0.024059 0.003304 -0.009377 0.000000 0.000000 0.000000
# 2 0.003304 0.012918 -0.001958 0.000000 0.000000 0.000000
# 3 -0.009377 -0.001958 0.006970 0.000000 0.000000 0.000000
# 4 0.000000 0.000000 0.000000 -0.030696 0.000000 0.000000
# 5 0.000000 0.000000 0.000000 0.000000 -0.103250 0.000000
# 6 0.000000 0.000000 0.000000 0.000000 0.000000 0.182902
#
#
# Mechanical properties :
#
#
# Convention : Reuss Voigt Hill
#
# Bulk Modulus (GPa) = 35.86240 81.12957 58.49599
# Shear Modulus (GPa) = 42.27889 15.66928 28.97408
#
# Velocity S-wave (km/s) = 4.46658 2.71918 3.69758
# Velocity P-wave (km/s) = 6.59720 6.93841 6.76995
#
# Compressibility (1/GPa) = 0.02788436
#
# Stress axis : x y z
#
# Youngs Moduli (GPa) = 41.56460 77.40971 143.46213
#
# Poissons Ratio (x) = -0.25572 1.34525
# Poissons Ratio (y) = -0.13731 0.28092
# Poissons Ratio (z) = 0.38975 0.15158
#
# Static dielectric constant tensor:
#      x y z
#    x 1.691990 0.000000 0.000000 
#    y 0.000000 1.821920 0.000000 
#    z 0.000000 0.000000 1.807700 
# 
# From -- ./inp_files/77330.got.cif
#   From: 2010.05.17/outbox.cif.g08.bks.cpg/sg65_39_cif.got.tgz:77330.got - 2010.06.03 17:01:31.
