data_PCOD9485880
_publ_section_title
;
Structure prediction by ZEFSAII (Michael W. Deem and Ramdas Pophale) SiO2 
 PCOD9485880
Probable space group: C M M M
;
_chemical_formula_sum "Si O2"
_cell_formula_units_Z 96
_cell_length_a 8.160865
_cell_length_b 18.810008
_cell_length_c 32.292197
_cell_angle_alpha 90.000000
_cell_angle_beta 90.000000
_cell_angle_gamma 90.000000
_cell_volume 4957.043924
_symmetry_space_group_name_H-M "C M M M"
_symmetry_group_IT_number 65
_symmetry_cell_setting 'orthorhombic'
loop_
_space_group_symop_operation_xyz
x,y,z
-x,-y,z
x,-y,-z
-x,y,-z
-x,-y,-z
x,y,-z
-x,y,z
x,-y,z
1/2+x,1/2+y,z
1/2-x,1/2-y,z
1/2+x,1/2-y,-z
1/2-x,1/2+y,-z
1/2-x,1/2-y,-z
1/2+x,1/2+y,-z
1/2-x,1/2+y,z
1/2+x,1/2-y,z
loop_
_atom_site_type_symbol
_atom_site_label
_atom_site_fract_x
_atom_site_fract_y
_atom_site_fract_z
Si Si1 0.697919 0.332749 0.044453
Si Si2 0.803471 0.832316 0.134974
Si Si3 0.197266 0.418942 0.785028
Si Si4 0.801760 0.668358 0.295144
Si Si5 0.802786 0.419247 0.374917
Si Si6 0.803926 0.169471 0.453163
O O1 0.500000 0.336413 0.044405
O O2 0.750000 0.250000 0.044241
O O3 0.754141 0.359567 0.089468
O O4 0.755242 0.363437 0.000000
O O5 0.750000 0.750000 0.139693
O O6 0.740720 0.879233 0.172650
O O7 0.000000 0.833696 0.135385
O O8 0.258738 0.500000 0.784295
O O9 0.256711 0.373809 0.745548
O O10 0.000000 0.421608 0.782049
O O11 0.750000 0.750000 0.294241
O O12 0.742986 0.628850 0.336710
O O13 0.000000 0.666310 0.295168
O O14 0.741188 0.500000 0.372017
O O15 0.759179 0.383545 0.418393
O O16 0.000000 0.421583 0.371855
O O17 0.745261 0.153168 0.500000
O O18 0.750000 0.250000 0.443369
O O19 0.000000 0.167219 0.453250
#
# Coordination Sequence:
#
# PCOD9485880 Si02
#       6
#    16  16  16  16  16  16
#     4   8  14  25  42  66  96 128 162 203 251 299
#     4  10  19  31  50  76 104 133 169 212 255 304
#     4  10  21  37  55  74 101 137 173 211 258 309
#     4  10  21  37  57  80 105 135 172 213 258 308
#     4  10  21  37  57  81 110 143 178 216 259 309
#     4  10  21  37  57  81 110 144 182 223 265 310
#
# _framework density 19.366379999999999
#
# number of rings (size 3 to 8) (size 9 to 14) (size 15 to 20)
#    0.000    2.333    0.000    2.500    0.000    8.667 
#    0.000    1.667    0.000    3.500    0.000    3.500 
#    0.000    0.000    0.000    0.000    0.000    0.000 
#
# Total GULP energy -267768.595902 kJ/mol
# GULP energy per Si atom -5578.512415 kJ/mol
# Density = 1.932230 g / cm^3
# Si number density = 19.366380 Si / 1000 Ang^3
#
#
#
# Elastic Constant Matrix: (Units=GPa)
#
#
# Indices 1 2 3 4 5 6 
#
# 1 12.0577 11.1972 12.3596 0.0000 0.0000 0.0000
# 2 11.1972 145.4071 115.7490 0.0000 0.0000 0.0000
# 3 12.3596 115.7490 188.5362 0.0000 0.0000 0.0000
# 4 0.0000 0.0000 0.0000 -5.5112 0.0000 0.0000
# 5 0.0000 0.0000 0.0000 0.0000 13.9754 0.0000
# 6 0.0000 0.0000 0.0000 0.0000 0.0000 24.2881
#
#
#
# Elastic Compliance Matrix: (Units=1/GPa)
#
#
# Indices 1 2 3 4 5 6 
#
# 1 0.090316 -0.004385 -0.003229 0.000000 0.000000 0.000000
# 2 -0.004385 0.013664 -0.008101 0.000000 0.000000 0.000000
# 3 -0.003229 -0.008101 0.010489 0.000000 0.000000 0.000000
# 4 0.000000 0.000000 0.000000 -0.181449 0.000000 0.000000
# 5 0.000000 0.000000 0.000000 0.000000 0.071554 0.000000
# 6 0.000000 0.000000 0.000000 0.000000 0.000000 0.041172
#
#
# Mechanical properties :
#
#
# Convention : Reuss Voigt Hill
#
# Bulk Modulus (GPa) = 12.04239 69.40141 40.72190
# Shear Modulus (GPa) = 47.68408 20.33014 34.00711
#
# Velocity S-wave (km/s) = 4.96745 3.24352 4.19500
# Velocity P-wave (km/s) = 6.25559 7.06690 6.67359
#
# Compressibility (1/GPa) = 0.08304002
#
# Stress axis : x y z
#
# Youngs Moduli (GPa) = 11.07219 73.18658 95.33518
#
# Poissons Ratio (x) = 0.32089 0.30783
# Poissons Ratio (y) = 0.04855 0.77233
# Poissons Ratio (z) = 0.03575 0.59290
#
# Static dielectric constant tensor:
#      x y z
#    x 1.687710 0.000000 0.000000 
#    y 0.000000 1.624490 0.000000 
#    z 0.000000 0.000000 1.707140 
# 
# From -- ./inp_files/73121.got.cif
#   From: 2010.05.17/outbox.cif.g08.bks.cpg/sg65_37_cif.got.tgz:73121.got - 2010.06.03 17:01:31.
