data_PCOD9485197
_publ_section_title
;
Structure prediction by ZEFSAII (Michael W. Deem and Ramdas Pophale) SiO2 
 PCOD9485197
Probable space group: C M M M
;
_chemical_formula_sum "Si O2"
_cell_formula_units_Z 88
_cell_length_a 8.691532
_cell_length_b 16.018506
_cell_length_c 31.777619
_cell_angle_alpha 90.000000
_cell_angle_beta 90.000000
_cell_angle_gamma 90.000000
_cell_volume 4424.250365
_symmetry_space_group_name_H-M "C M M M"
_symmetry_group_IT_number 65
_symmetry_cell_setting 'orthorhombic'
loop_
_space_group_symop_operation_xyz
x,y,z
-x,-y,z
x,-y,-z
-x,y,-z
-x,-y,-z
x,y,-z
-x,y,z
x,-y,z
1/2+x,1/2+y,z
1/2-x,1/2-y,z
1/2+x,1/2-y,-z
1/2-x,1/2+y,-z
1/2-x,1/2-y,-z
1/2+x,1/2+y,-z
1/2-x,1/2+y,z
1/2+x,1/2-y,z
loop_
_atom_site_type_symbol
_atom_site_label
_atom_site_fract_x
_atom_site_fract_y
_atom_site_fract_z
Si Si1 0.184319 0.662341 0.600840
Si Si2 0.686309 0.155059 0.045257
Si Si3 0.312471 0.000000 0.548344
Si Si4 0.686366 0.598310 0.312892
Si Si5 0.826853 0.900497 0.778481
Si Si6 0.183367 0.656812 0.864092
O O1 0.250000 0.750000 0.585062
O O2 0.236291 0.583238 0.573022
O O3 0.242945 0.646993 0.648232
O O4 0.000000 0.665039 0.600643
O O5 0.500000 0.157628 0.045147
O O6 0.750000 0.250000 0.045277
O O7 0.733126 0.117893 0.090635
O O8 0.734138 0.117188 0.000000
O O9 0.500000 0.000000 0.548459
O O10 0.261537 0.000000 0.500000
O O11 0.500000 0.603695 0.313557
O O12 0.727365 0.500000 0.317779
O O13 0.737721 0.629305 0.266520
O O14 0.737175 0.884659 0.821139
O O15 0.000000 0.866306 0.783777
O O16 0.838150 0.000000 0.773043
O O17 0.250000 0.750000 0.863378
O O18 0.000000 0.659638 0.864103
#
# Coordination Sequence:
#
# PCOD9485197 Si02
#       6
#    16  16   8  16  16  16
#     4  11  22  37  60  90 120 155 196 239 287 337
#     4   8  14  25  41  62  88 118 155 200 252 307
#     4   9  20  40  63  87 121 161 197 239 290 339
#     4   9  18  35  58  80 106 141 182 229 279 331
#     4   9  19  35  53  73 100 137 174 212 263 316
#     4  10  19  30  47  71  98 128 163 209 259 310
#
# _framework density 19.890376
#
# number of rings (size 3 to 8) (size 9 to 14) (size 15 to 20)
#    0.000    2.636    0.909    2.182    0.000    2.909 
#    0.000    1.818    0.000    4.364    0.000    3.818 
#    0.000    0.000    0.000    0.000    0.000    0.000 
#
# Total GULP energy -245174.770667 kJ/mol
# GULP energy per Si atom -5572.153879 kJ/mol
# Density = 1.984510 g / cm^3
# Si number density = 19.890376 Si / 1000 Ang^3
#
#
#
# Elastic Constant Matrix: (Units=GPa)
#
#
# Indices 1 2 3 4 5 6 
#
# 1 22.9552 14.1814 32.0393 0.0000 0.0000 0.0000
# 2 14.1814 74.1053 56.7293 0.0000 0.0000 0.0000
# 3 32.0393 56.7293 192.0583 0.0000 0.0000 0.0000
# 4 0.0000 0.0000 0.0000 -12.7553 0.0000 0.0000
# 5 0.0000 0.0000 0.0000 0.0000 24.1717 0.0000
# 6 0.0000 0.0000 0.0000 0.0000 0.0000 19.3355
#
#
#
# Elastic Compliance Matrix: (Units=1/GPa)
#
#
# Indices 1 2 3 4 5 6 
#
# 1 0.058064 -0.004777 -0.008275 0.000000 0.000000 0.000000
# 2 -0.004777 0.017830 -0.004470 0.000000 0.000000 0.000000
# 3 -0.008275 -0.004470 0.007908 0.000000 0.000000 0.000000
# 4 0.000000 0.000000 0.000000 -0.078399 0.000000 0.000000
# 5 0.000000 0.000000 0.000000 0.000000 0.041371 0.000000
# 6 0.000000 0.000000 0.000000 0.000000 0.000000 0.051718
#
#
# Mechanical properties :
#
#
# Convention : Reuss Voigt Hill
#
# Bulk Modulus (GPa) = 20.50931 55.00211 37.75571
# Shear Modulus (GPa) = 33.38033 18.56163 25.97098
#
# Velocity S-wave (km/s) = 4.10105 3.05814 3.61738
# Velocity P-wave (km/s) = 5.72349 6.33895 6.03907
#
# Compressibility (1/GPa) = 0.04875834
#
# Stress axis : x y z
#
# Youngs Moduli (GPa) = 17.22226 56.08496 126.46196
#
# Poissons Ratio (x) = 0.26790 1.04653
# Poissons Ratio (y) = 0.08226 0.56525
# Poissons Ratio (z) = 0.14252 0.25068
#
# Static dielectric constant tensor:
#      x y z
#    x 1.661470 0.000000 0.000000 
#    y 0.000000 1.713110 0.000000 
#    z 0.000000 0.000000 1.756640 
# 
# From -- ./inp_files/76427.got.cif
#   From: 2010.05.17/outbox.cif.g08.bks.cpg/sg65_39_cif.got.tgz:76427.got - 2010.06.03 17:01:31.
