data_PCOD9485730
_publ_section_title
;
Structure prediction by ZEFSAII (Michael W. Deem and Ramdas Pophale) SiO2 
 PCOD9485730
Probable space group: C M M M
;
_chemical_formula_sum "Si O2"
_cell_formula_units_Z 96
_cell_length_a 16.241494
_cell_length_b 9.913165
_cell_length_c 30.739036
_cell_angle_alpha 90.000000
_cell_angle_beta 90.000000
_cell_angle_gamma 90.000000
_cell_volume 4949.126499
_symmetry_space_group_name_H-M "C M M M"
_symmetry_group_IT_number 65
_symmetry_cell_setting 'orthorhombic'
loop_
_space_group_symop_operation_xyz
x,y,z
-x,-y,z
x,-y,-z
-x,y,-z
-x,-y,-z
x,y,-z
-x,y,z
x,-y,z
1/2+x,1/2+y,z
1/2-x,1/2-y,z
1/2+x,1/2-y,-z
1/2-x,1/2+y,-z
1/2-x,1/2-y,-z
1/2+x,1/2+y,-z
1/2-x,1/2+y,z
1/2+x,1/2-y,z
loop_
_atom_site_type_symbol
_atom_site_label
_atom_site_fract_x
_atom_site_fract_y
_atom_site_fract_z
Si Si1 0.671012 0.337940 0.860822
Si Si2 0.403938 0.663543 0.952768
Si Si3 0.095625 0.500000 0.573362
Si Si4 0.592435 0.697767 0.602567
Si Si5 0.319646 0.653884 0.686889
Si Si6 0.210378 0.000000 0.449359
Si Si7 0.089748 0.162981 0.229357
O O1 0.686095 0.500000 0.861701
O O2 0.750000 0.250000 0.850797
O O3 0.639366 0.294577 0.908422
O O4 0.609841 0.310982 0.820866
O O5 0.500000 0.701489 0.950639
O O6 0.401295 0.500000 0.952959
O O7 0.370793 0.709621 0.000000
O O8 0.097136 0.359045 0.598746
O O9 0.188997 0.500000 0.552344
O O10 0.000000 0.500000 0.552599
O O11 0.500000 0.658211 0.588034
O O12 0.606449 0.657136 0.652565
O O13 0.664600 0.625741 0.574667
O O14 0.290298 0.500000 0.690611
O O15 0.250000 0.750000 0.668320
O O16 0.346342 0.707777 0.734151
O O17 0.187717 0.000000 0.500000
O O18 0.000000 0.217005 0.240046
O O19 0.088410 0.000000 0.233696
#
# Coordination Sequence:
#
# PCOD9485730 Si02
#       7
#    16  16   8  16  16   8  16
#     4  10  19  31  49  73 103 136 173 220 273 331
#     4   8  14  26  46  71  96 127 173 224 268 313
#     4  10  24  44  65  92 126 161 199 245 300 354
#     4  11  24  42  65  92 124 160 201 247 293 347
#     4  11  22  36  60  87 118 152 190 236 288 345
#     4  12  25  43  68  95 125 162 205 247 293 349
#     4   9  18  33  54  79 105 139 187 234 277 328
#
# _framework density 19.397362000000001
#
# number of rings (size 3 to 8) (size 9 to 14) (size 15 to 20)
#    0.000    2.000    0.833    3.750    1.167    5.167 
#    0.000    1.667    0.000    3.000    0.000    1.167 
#    0.000    0.000    0.000    0.000    0.000    0.000 
#
# Total GULP energy -267243.413515 kJ/mol
# GULP energy per Si atom -5567.571115 kJ/mol
# Density = 1.935321 g / cm^3
# Si number density = 19.397362 Si / 1000 Ang^3
#
#
#
# Elastic Constant Matrix: (Units=GPa)
#
#
# Indices 1 2 3 4 5 6 
#
# 1 99.3751 20.3040 21.5245 0.0000 0.0000 0.0000
# 2 20.3040 67.3675 15.6438 0.0000 0.0000 0.0000
# 3 21.5245 15.6438 93.5278 0.0000 0.0000 0.0000
# 4 0.0000 0.0000 0.0000 -72.6572 0.0000 0.0000
# 5 0.0000 0.0000 0.0000 0.0000 20.3076 0.0000
# 6 0.0000 0.0000 0.0000 0.0000 0.0000 16.9199
#
#
#
# Elastic Compliance Matrix: (Units=1/GPa)
#
#
# Indices 1 2 3 4 5 6 
#
# 1 0.011097 -0.002863 -0.002075 0.000000 0.000000 0.000000
# 2 -0.002863 0.016182 -0.002048 0.000000 0.000000 0.000000
# 3 -0.002075 -0.002048 0.011512 0.000000 0.000000 0.000000
# 4 0.000000 0.000000 0.000000 -0.013763 0.000000 0.000000
# 5 0.000000 0.000000 0.000000 0.000000 0.049243 0.000000
# 6 0.000000 0.000000 0.000000 0.000000 0.000000 0.059102
#
#
# Mechanical properties :
#
#
# Convention : Reuss Voigt Hill
#
# Bulk Modulus (GPa) = 40.28971 41.69056 40.99014
# Shear Modulus (GPa) = 32.12996 6.43393 19.28194
#
# Velocity S-wave (km/s) = 4.07432 1.82321 3.15628
# Velocity P-wave (km/s) = 6.55356 5.09624 5.87030
#
# Compressibility (1/GPa) = 0.02482023
#
# Stress axis : x y z
#
# Youngs Moduli (GPa) = 90.11242 61.79590 86.86511
#
# Poissons Ratio (x) = 0.17691 0.18025
# Poissons Ratio (y) = 0.25797 0.17789
# Poissons Ratio (z) = 0.18699 0.12655
#
# Static dielectric constant tensor:
#      x y z
#    x 1.727610 0.000000 0.000000 
#    y 0.000000 1.647460 0.000000 
#    z 0.000000 0.000000 1.687940 
# 
# From -- ./inp_files/77646.got.cif
#   From: 2010.05.17/outbox.cif.g08.bks.cpg/sg65_39_cif.got.tgz:77646.got - 2010.06.03 17:01:31.
