data_PCOD9485858
_publ_section_title
;
Structure prediction by ZEFSAII (Michael W. Deem and Ramdas Pophale) SiO2 
 PCOD9485858
Probable space group: C M M M
;
_chemical_formula_sum "Si O2"
_cell_formula_units_Z 104
_cell_length_a 22.698204
_cell_length_b 14.469602
_cell_length_c 17.465093
_cell_angle_alpha 90.000000
_cell_angle_beta 90.000000
_cell_angle_gamma 90.000000
_cell_volume 5736.129970
_symmetry_space_group_name_H-M "C M M M"
_symmetry_group_IT_number 65
_symmetry_cell_setting 'orthorhombic'
loop_
_space_group_symop_operation_xyz
x,y,z
-x,-y,z
x,-y,-z
-x,y,-z
-x,-y,-z
x,y,-z
-x,y,z
x,-y,z
1/2+x,1/2+y,z
1/2-x,1/2-y,z
1/2+x,1/2-y,-z
1/2-x,1/2+y,-z
1/2-x,1/2-y,-z
1/2+x,1/2+y,-z
1/2-x,1/2+y,z
1/2+x,1/2-y,z
loop_
_atom_site_type_symbol
_atom_site_label
_atom_site_fract_x
_atom_site_fract_y
_atom_site_fract_z
Si Si1 0.630336 0.605512 0.194405
Si Si2 0.068804 0.726715 0.265226
Si Si3 0.767183 0.112611 0.087218
Si Si4 0.064878 0.000000 0.408478
Si Si5 0.273866 0.606538 0.667629
Si Si6 0.824374 0.388975 0.783471
Si Si7 0.872641 0.194176 0.410799
O O1 0.609616 0.500000 0.185593
O O2 0.581214 0.676672 0.221346
O O3 0.668523 0.636458 0.120976
O O4 0.680402 0.605480 0.260909
O O5 0.111597 0.654661 0.222907
O O6 0.094900 0.738866 0.351302
O O7 0.000000 0.704508 0.266491
O O8 0.715170 0.143749 0.144525
O O9 0.765758 0.000000 0.089617
O O10 0.758885 0.141690 0.000000
O O11 0.098752 0.093652 0.391727
O O12 0.059211 0.000000 0.500000
O O13 0.000000 0.000000 0.373179
O O14 0.268926 0.500000 0.639483
O O15 0.212873 0.635507 0.706884
O O16 0.304162 0.674361 0.607374
O O17 0.827079 0.500000 0.786390
O O18 0.882114 0.215895 0.500000
#
# Coordination Sequence:
#
# PCOD9485858 Si02
#       7
#    16  16  16   8  16  16  16
#     4   8  16  30  48  75 109 135 157 194 247 311
#     4  11  23  35  50  71  99 141 187 218 247 301
#     4   8  14  29  58  89 109 129 162 209 266 317
#     4   9  16  26  42  68 102 136 160 186 240 305
#     4   8  14  28  49  72  99 128 156 197 260 319
#     4   9  19  36  55  75 101 132 172 223 267 304
#     4  10  19  31  50  75 103 132 164 213 265 310
#
# _framework density 18.130690999999999
#
# number of rings (size 3 to 8) (size 9 to 14) (size 15 to 20)
#    0.000    3.000    0.769    2.308    1.077    7.077 
#    0.000    3.077    0.000    3.231    0.000    5.385 
#    0.000    0.000    0.000    0.000    0.000    0.000 
#
# Total GULP energy -289829.082460 kJ/mol
# GULP energy per Si atom -5573.636201 kJ/mol
# Density = 1.808942 g / cm^3
# Si number density = 18.130691 Si / 1000 Ang^3
#
#
#
# Elastic Constant Matrix: (Units=GPa)
#
#
# Indices 1 2 3 4 5 6 
#
# 1 104.2592 15.1197 43.4537 0.0000 0.0000 0.0000
# 2 15.1197 28.2774 16.0901 0.0000 0.0000 0.0000
# 3 43.4537 16.0901 97.1947 0.0000 0.0000 0.0000
# 4 0.0000 0.0000 0.0000 7.5875 0.0000 0.0000
# 5 0.0000 0.0000 0.0000 0.0000 13.3195 0.0000
# 6 0.0000 0.0000 0.0000 0.0000 0.0000 10.5173
#
#
#
# Elastic Compliance Matrix: (Units=1/GPa)
#
#
# Indices 1 2 3 4 5 6 
#
# 1 0.012139 -0.003756 -0.004805 0.000000 0.000000 0.000000
# 2 -0.003756 0.040204 -0.004976 0.000000 0.000000 0.000000
# 3 -0.004805 -0.004976 0.013261 0.000000 0.000000 0.000000
# 4 0.000000 0.000000 0.000000 0.131795 0.000000 0.000000
# 5 0.000000 0.000000 0.000000 0.000000 0.075078 0.000000
# 6 0.000000 0.000000 0.000000 0.000000 0.000000 0.095082
#
#
# Mechanical properties :
#
#
# Convention : Reuss Voigt Hill
#
# Bulk Modulus (GPa) = 25.95507 42.11758 34.03632
# Shear Modulus (GPa) = 12.27064 16.62270 14.44667
#
# Velocity S-wave (km/s) = 2.60434 3.03120 2.82584
# Velocity P-wave (km/s) = 4.83633 5.96082 5.42777
#
# Compressibility (1/GPa) = 0.03852812
#
# Stress axis : x y z
#
# Youngs Moduli (GPa) = 82.37924 24.87316 75.41064
#
# Poissons Ratio (x) = 0.09343 0.36237
# Poissons Ratio (y) = 0.30945 0.37526
# Poissons Ratio (z) = 0.39585 0.12377
#
# Static dielectric constant tensor:
#      x y z
#    x 1.643350 0.000000 0.000000 
#    y 0.000000 1.680330 0.000000 
#    z 0.000000 0.000000 1.645030 
# 
# From -- ./inp_files/56830.got.cif
#   From: 2010.05.17/outbox.cif.g08.bks.cpg/sg65_29_cif.got.tgz:56830.got - 2010.06.03 17:01:31.
