data_PCOD9485636
_publ_section_title
;
Structure prediction by ZEFSAII (Michael W. Deem and Ramdas Pophale) SiO2 
 PCOD9485636
Probable space group: C M M M
;
_chemical_formula_sum "Si O2"
_cell_formula_units_Z 104
_cell_length_a 7.520249
_cell_length_b 18.513475
_cell_length_c 36.097479
_cell_angle_alpha 90.000000
_cell_angle_beta 90.000000
_cell_angle_gamma 90.000000
_cell_volume 5025.705512
_symmetry_space_group_name_H-M "C M M M"
_symmetry_group_IT_number 65
_symmetry_cell_setting 'orthorhombic'
loop_
_space_group_symop_operation_xyz
x,y,z
-x,-y,z
x,-y,-z
-x,y,-z
-x,-y,-z
x,y,-z
-x,y,z
x,-y,z
1/2+x,1/2+y,z
1/2-x,1/2-y,z
1/2+x,1/2-y,-z
1/2-x,1/2+y,-z
1/2-x,1/2-y,-z
1/2+x,1/2+y,-z
1/2-x,1/2+y,z
1/2+x,1/2-y,z
loop_
_atom_site_type_symbol
_atom_site_label
_atom_site_fract_x
_atom_site_fract_y
_atom_site_fract_z
Si Si1 0.282215 0.583494 0.573617
Si Si2 0.287036 0.335980 0.727653
Si Si3 0.711951 0.417942 0.879732
Si Si4 0.787136 0.834810 0.500000
Si Si5 0.286630 0.916052 0.960215
Si Si6 0.786334 0.164802 0.807912
Si Si7 0.713486 0.664530 0.647072
O O1 0.500000 0.585367 0.573813
O O2 0.229790 0.500000 0.571751
O O3 0.221246 0.627012 0.537407
O O4 0.220615 0.621269 0.611486
O O5 0.500000 0.346667 0.727585
O O6 0.250000 0.250000 0.727799
O O7 0.219426 0.362484 0.767646
O O8 0.218960 0.361209 0.687526
O O9 0.500000 0.422574 0.875244
O O10 0.783558 0.500000 0.880248
O O11 0.739529 0.383704 0.920398
O O12 0.783046 0.374974 0.844400
O O13 0.750000 0.750000 0.500000
O O14 0.000000 0.844002 0.500000
O O15 0.500000 0.917393 0.961283
O O16 0.224267 0.000000 0.959262
O O17 0.225113 0.885175 0.000000
O O18 0.750000 0.250000 0.810611
O O19 0.000000 0.156191 0.807282
O O20 0.500000 0.656421 0.647804
O O21 0.750000 0.750000 0.643073
#
# Coordination Sequence:
#
# PCOD9485636 Si02
#       7
#    16  16  16   8  16  16  16
#     4   9  17  29  45  66  91 118 148 180 217 263
#     4   8  14  25  41  61  83 108 140 176 212 248
#     4   9  17  28  42  62  87 111 135 168 211 255
#     4  10  19  31  49  69  89 116 150 188 224 258
#     4   8  14  25  41  61  84 109 138 172 208 247
#     4   9  17  29  44  62  85 113 144 175 209 252
#     4   9  16  27  45  66  86 110 143 182 217 252
#
# _framework density 20.693614
#
# number of rings (size 3 to 8) (size 9 to 14) (size 15 to 20)
#    0.000    3.231    0.000    1.154    0.000    1.846 
#    0.000    2.308    0.000    7.385    0.000    0.000 
#    0.000   12.308    0.000    0.000    0.000    0.000 
#
# Total GULP energy -289627.010644 kJ/mol
# GULP energy per Si atom -5569.750205 kJ/mol
# Density = 2.064651 g / cm^3
# Si number density = 20.693614 Si / 1000 Ang^3
#
#
#
# Elastic Constant Matrix: (Units=GPa)
#
#
# Indices 1 2 3 4 5 6 
#
# 1 55.1590 -2.3374 10.8147 0.0000 0.0000 0.0000
# 2 -2.3374 67.1135 90.6955 0.0000 0.0000 0.0000
# 3 10.8147 90.6955 293.0070 0.0000 0.0000 0.0000
# 4 0.0000 0.0000 0.0000 35.8811 0.0000 0.0000
# 5 0.0000 0.0000 0.0000 0.0000 -3.3058 0.0000
# 6 0.0000 0.0000 0.0000 0.0000 0.0000 12.1417
#
#
#
# Elastic Compliance Matrix: (Units=1/GPa)
#
#
# Indices 1 2 3 4 5 6 
#
# 1 0.018542 0.002700 -0.001520 0.000000 0.000000 0.000000
# 2 0.002700 0.026008 -0.008150 0.000000 0.000000 0.000000
# 3 -0.001520 -0.008150 0.005992 0.000000 0.000000 0.000000
# 4 0.000000 0.000000 0.000000 0.027870 0.000000 0.000000
# 5 0.000000 0.000000 0.000000 0.000000 -0.302500 0.000000
# 6 0.000000 0.000000 0.000000 0.000000 0.000000 0.082361
#
#
# Mechanical properties :
#
#
# Convention : Reuss Voigt Hill
#
# Bulk Modulus (GPa) = 27.32147 68.18056 47.75102
# Shear Modulus (GPa) = -43.25730 30.01717 -6.62007
#
# Velocity S-wave (km/s) = -4.57702 3.81274 -1.79054
# Velocity P-wave (km/s) = 3.83413 7.23891 4.34173
#
# Compressibility (1/GPa) = 0.03660125
#
# Stress axis : x y z
#
# Youngs Moduli (GPa) = 53.93198 38.45006 166.89835
#
# Poissons Ratio (x) = -0.10382 0.25371
# Poissons Ratio (y) = -0.14562 1.36021
# Poissons Ratio (z) = 0.08198 0.31337
#
# Static dielectric constant tensor:
#      x y z
#    x 1.775430 0.000000 0.000000 
#    y 0.000000 1.688300 0.000000 
#    z 0.000000 0.000000 1.813210 
# 
# From -- ./inp_files/77421.got.cif
#   From: 2010.05.17/outbox.cif.g08.bks.cpg/sg65_39_cif.got.tgz:77421.got - 2010.06.03 17:01:31.
