data_PCOD9485645
_publ_section_title
;
Structure prediction by ZEFSAII (Michael W. Deem and Ramdas Pophale) SiO2 
 PCOD9485645
Probable space group: C M M M
;
_chemical_formula_sum "Si O2"
_cell_formula_units_Z 104
_cell_length_a 7.574521
_cell_length_b 27.023023
_cell_length_c 22.700222
_cell_angle_alpha 90.000000
_cell_angle_beta 90.000000
_cell_angle_gamma 90.000000
_cell_volume 4646.427973
_symmetry_space_group_name_H-M "C M M M"
_symmetry_group_IT_number 65
_symmetry_cell_setting 'orthorhombic'
loop_
_space_group_symop_operation_xyz
x,y,z
-x,-y,z
x,-y,-z
-x,y,-z
-x,-y,-z
x,y,-z
-x,y,z
x,-y,z
1/2+x,1/2+y,z
1/2-x,1/2-y,z
1/2+x,1/2-y,-z
1/2-x,1/2+y,-z
1/2-x,1/2-y,-z
1/2+x,1/2+y,-z
1/2-x,1/2+y,z
1/2+x,1/2-y,z
loop_
_atom_site_type_symbol
_atom_site_label
_atom_site_fract_x
_atom_site_fract_y
_atom_site_fract_z
Si Si1 0.215028 0.413562 0.935790
Si Si2 0.711148 0.305091 0.651793
Si Si3 0.714941 0.337346 0.220945
Si Si4 0.295117 0.500000 0.571846
Si Si5 0.793692 0.053340 0.807040
Si Si6 0.783159 0.892563 0.568128
Si Si7 0.799125 0.305179 0.908018
O O1 0.280380 0.441161 0.877810
O O2 0.282896 0.356497 0.931041
O O3 0.000000 0.414300 0.932176
O O4 0.264356 0.433408 0.000000
O O5 0.500000 0.310644 0.654111
O O6 0.750000 0.250000 0.630683
O O7 0.775637 0.312837 0.718518
O O8 0.777518 0.348019 0.608980
O O9 0.500000 0.336939 0.218349
O O10 0.776775 0.394649 0.217686
O O11 0.779517 0.309677 0.162634
O O12 0.500000 0.500000 0.590694
O O13 0.293579 0.500000 0.500000
O O14 0.220670 0.446771 0.589338
O O15 0.000000 0.052567 0.790585
O O16 0.716568 0.000000 0.789535
O O17 0.731989 0.885589 0.500000
O O18 0.000000 0.893837 0.568775
O O19 0.750000 0.250000 0.926635
O O20 0.000000 0.309973 0.925583
#
# Coordination Sequence:
#
# PCOD9485645 Si02
#       7
#    16  16  16   8  16  16  16
#     4   9  19  34  49  68  95 124 155 190 228 277
#     4  10  20  32  47  70  98 129 163 199 239 286
#     4   9  18  33  49  67  93 123 158 195 235 284
#     4   7  10  20  40  64  91 121 151 189 236 279
#     4   9  18  33  51  70  94 122 152 192 240 285
#     4   8  14  26  44  68  98 128 159 198 243 288
#     4  10  19  31  49  70  91 120 156 193 235 279
#
# _framework density 22.382787
#
# number of rings (size 3 to 8) (size 9 to 14) (size 15 to 20)
#    0.000    3.000    0.000    1.846    0.000    4.000 
#    1.385    1.538    0.000    0.000    0.000    0.538 
#    0.000    1.846    0.000    0.000    0.000    0.000 
#
# Total GULP energy -290067.707595 kJ/mol
# GULP energy per Si atom -5578.225146 kJ/mol
# Density = 2.233184 g / cm^3
# Si number density = 22.382787 Si / 1000 Ang^3
#
#
#
# Elastic Constant Matrix: (Units=GPa)
#
#
# Indices 1 2 3 4 5 6 
#
# 1 47.2743 -2.1493 -7.1562 0.0000 0.0000 0.0000
# 2 -2.1493 155.8755 33.7134 0.0000 0.0000 0.0000
# 3 -7.1562 33.7134 65.0415 0.0000 0.0000 0.0000
# 4 0.0000 0.0000 0.0000 -149.3430 0.0000 0.0000
# 5 0.0000 0.0000 0.0000 0.0000 -4.9612 0.0000
# 6 0.0000 0.0000 0.0000 0.0000 0.0000 5.6887
#
#
#
# Elastic Compliance Matrix: (Units=1/GPa)
#
#
# Indices 1 2 3 4 5 6 
#
# 1 0.021520 -0.000243 0.002493 0.000000 0.000000 0.000000
# 2 -0.000243 0.007228 -0.003773 0.000000 0.000000 0.000000
# 3 0.002493 -0.003773 0.017605 0.000000 0.000000 0.000000
# 4 0.000000 0.000000 0.000000 -0.006696 0.000000 0.000000
# 5 0.000000 0.000000 0.000000 0.000000 -0.201564 0.000000
# 6 0.000000 0.000000 0.000000 0.000000 0.000000 0.175786
#
#
# Mechanical properties :
#
#
# Convention : Reuss Voigt Hill
#
# Bulk Modulus (GPa) = 23.09055 35.22303 29.15679
# Shear Modulus (GPa) = 159.44519 -13.47088 72.98716
#
# Velocity S-wave (km/s) = 8.44928 -2.45591 5.71659
# Velocity P-wave (km/s) = 10.27257 2.78008 7.52511
#
# Compressibility (1/GPa) = 0.04330776
#
# Stress axis : x y z
#
# Youngs Moduli (GPa) = 46.46936 138.34819 56.80213
#
# Poissons Ratio (x) = 0.03356 -0.14163
# Poissons Ratio (y) = 0.01127 0.21433
# Poissons Ratio (z) = -0.11587 0.52203
#
# Static dielectric constant tensor:
#      x y z
#    x 1.872230 0.000000 0.000000 
#    y 0.000000 1.865660 0.000000 
#    z 0.000000 0.000000 1.790520 
# 
# From -- ./inp_files/68220.got.cif
#   From: 2010.05.17/outbox.cif.g08.bks.cpg/sg65_35_cif.got.tgz:68220.got - 2010.06.03 17:01:31.
