data_PCOD9485998
_publ_section_title
;
Structure prediction by ZEFSAII (Michael W. Deem and Ramdas Pophale) SiO2 
 PCOD9485998
Probable space group: C M M M
;
_chemical_formula_sum "Si O2"
_cell_formula_units_Z 100
_cell_length_a 8.020487
_cell_length_b 33.084281
_cell_length_c 22.973956
_cell_angle_alpha 90.000000
_cell_angle_beta 90.000000
_cell_angle_gamma 90.000000
_cell_volume 6096.186222
_symmetry_space_group_name_H-M "C M M M"
_symmetry_group_IT_number 65
_symmetry_cell_setting 'orthorhombic'
loop_
_space_group_symop_operation_xyz
x,y,z
-x,-y,z
x,-y,-z
-x,y,-z
-x,-y,-z
x,y,-z
-x,y,z
x,-y,z
1/2+x,1/2+y,z
1/2-x,1/2-y,z
1/2+x,1/2-y,-z
1/2-x,1/2+y,-z
1/2-x,1/2-y,-z
1/2+x,1/2+y,-z
1/2-x,1/2+y,z
1/2+x,1/2-y,z
loop_
_atom_site_type_symbol
_atom_site_label
_atom_site_fract_x
_atom_site_fract_y
_atom_site_fract_z
Si Si1 0.192881 0.374486 0.634185
Si Si2 0.190681 0.166161 0.818514
Si Si3 0.201104 0.796119 0.301782
Si Si4 0.799478 0.500000 0.271357
Si Si5 0.500000 0.585447 0.430764
Si Si6 0.194506 0.411882 0.762270
Si Si7 0.697067 0.795951 0.064114
Si Si8 0.000000 0.000000 0.364125
O O1 0.224221 0.327923 0.652279
O O2 0.334630 0.390893 0.591282
O O3 0.218123 0.398737 0.694981
O O4 0.000000 0.380234 0.615642
O O5 0.264418 0.190135 0.762653
O O6 0.205303 0.119207 0.801634
O O7 0.261310 0.176333 0.881235
O O8 0.000000 0.178932 0.821082
O O9 0.250000 0.750000 0.312556
O O10 0.000000 0.800562 0.303113
O O11 0.767932 0.459166 0.235345
O O12 0.667752 0.500000 0.324340
O O13 0.000000 0.500000 0.287942
O O14 0.500000 0.582415 0.500000
O O15 0.500000 0.540899 0.401943
O O16 0.000000 0.405602 0.776081
O O17 0.500000 0.796011 0.059267
O O18 0.750000 0.750000 0.077049
O O19 0.768062 0.806984 0.000000
#
# Coordination Sequence:
#
# PCOD9485998 Si02
#       8
#    16  16  16   8   8  16  16   4
#     4  10  20  37  57  78 107 144 179 220 272 322
#     4  10  20  30  47  74 108 137 173 218 264 318
#     4  10  19  31  51  82 111 138 175 222 276 326
#     4  10  20  33  55  83 109 141 175 210 266 324
#     4  12  25  40  58  84 112 144 184 220 262 321
#     4   9  18  32  52  76 105 136 169 213 263 318
#     4  10  20  33  48  66  96 141 185 222 261 306
#     4  12  23  36  64  80 116 146 173 224 256 330
#
# _framework density 16.403697999999999
#
# number of rings (size 3 to 8) (size 9 to 14) (size 15 to 20)
#    0.000    1.920    2.400    2.040    2.240    4.480 
#    0.000    0.000    0.000    1.920    0.000    0.560 
#    0.000    4.480    0.000    0.000    0.000    0.000 
#
# Total GULP energy -278741.361437 kJ/mol
# GULP energy per Si atom -5574.827229 kJ/mol
# Density = 1.636636 g / cm^3
# Si number density = 16.403698 Si / 1000 Ang^3
#
#
#
# Elastic Constant Matrix: (Units=GPa)
#
#
# Indices 1 2 3 4 5 6 
#
# 1 73.9719 24.9721 45.9482 0.0000 0.0000 0.0000
# 2 24.9721 106.5643 36.6628 0.0000 0.0000 0.0000
# 3 45.9482 36.6628 81.4908 0.0000 0.0000 0.0000
# 4 0.0000 0.0000 0.0000 19.7262 0.0000 0.0000
# 5 0.0000 0.0000 0.0000 0.0000 19.2760 0.0000
# 6 0.0000 0.0000 0.0000 0.0000 0.0000 26.1958
#
#
#
# Elastic Compliance Matrix: (Units=1/GPa)
#
#
# Indices 1 2 3 4 5 6 
#
# 1 0.020895 -0.000998 -0.011333 0.000000 0.000000 0.000000
# 2 -0.000998 0.011150 -0.004454 0.000000 0.000000 0.000000
# 3 -0.011333 -0.004454 0.020665 0.000000 0.000000 0.000000
# 4 0.000000 0.000000 0.000000 0.050694 0.000000 0.000000
# 5 0.000000 0.000000 0.000000 0.000000 0.051878 0.000000
# 6 0.000000 0.000000 0.000000 0.000000 0.000000 0.038174
#
#
# Mechanical properties :
#
#
# Convention : Reuss Voigt Hill
#
# Bulk Modulus (GPa) = 52.24220 53.02146 52.63183
# Shear Modulus (GPa) = 21.42199 23.33585 22.37892
#
# Velocity S-wave (km/s) = 3.61768 3.77582 3.69760
# Velocity P-wave (km/s) = 7.02617 7.16953 7.09821
#
# Compressibility (1/GPa) = 0.01914161
#
# Stress axis : x y z
#
# Youngs Moduli (GPa) = 47.85892 89.68497 48.39085
#
# Poissons Ratio (x) = 0.08946 0.54840
# Poissons Ratio (y) = 0.04774 0.21553
# Poissons Ratio (z) = 0.54237 0.39946
#
# Static dielectric constant tensor:
#      x y z
#    x 1.556340 0.000000 0.000000 
#    y 0.000000 1.547530 0.000000 
#    z 0.000000 0.000000 1.555600 
# 
# From -- ./inp_files/60966.got.cif
#   From: 2010.05.17/outbox.cif.g08.bks.cpg/sg65_31_cif.got.tgz:60966.got - 2010.06.03 17:01:31.
