data_PCOD9485338
_publ_section_title
;
Structure prediction by ZEFSAII (Michael W. Deem and Ramdas Pophale) SiO2 
 PCOD9485338
Probable space group: C M M M
;
_chemical_formula_sum "Si O2"
_cell_formula_units_Z 80
_cell_length_a 29.572143
_cell_length_b 8.158913
_cell_length_c 22.641231
_cell_angle_alpha 90.000000
_cell_angle_beta 90.000000
_cell_angle_gamma 90.000000
_cell_volume 5462.797921
_symmetry_space_group_name_H-M "C M M M"
_symmetry_group_IT_number 65
_symmetry_cell_setting 'orthorhombic'
loop_
_space_group_symop_operation_xyz
x,y,z
-x,-y,z
x,-y,-z
-x,y,-z
-x,-y,-z
x,y,-z
-x,y,z
x,-y,z
1/2+x,1/2+y,z
1/2-x,1/2-y,z
1/2+x,1/2-y,-z
1/2-x,1/2+y,-z
1/2-x,1/2-y,-z
1/2+x,1/2+y,-z
1/2-x,1/2+y,z
1/2+x,1/2-y,z
loop_
_atom_site_type_symbol
_atom_site_label
_atom_site_fract_x
_atom_site_fract_y
_atom_site_fract_z
Si Si1 0.106015 0.195963 0.383123
Si Si2 0.054975 0.181952 0.858153
Si Si3 0.947386 0.302756 0.500000
Si Si4 0.552283 0.193427 0.269331
Si Si5 0.200625 0.197457 0.431858
Si Si6 0.444846 0.000000 0.068409
O O1 0.077549 0.238611 0.441665
O O2 0.082742 0.271833 0.325854
O O3 0.157385 0.253939 0.394823
O O4 0.106325 0.000000 0.376093
O O5 0.067191 0.213432 0.789822
O O6 0.070155 0.334755 0.898012
O O7 0.000000 0.184349 0.859728
O O8 0.069592 0.000000 0.877236
O O9 0.945473 0.500000 0.500000
O O10 0.000000 0.253064 0.500000
O O11 0.500000 0.239896 0.282577
O O12 0.552531 0.000000 0.255671
O O13 0.195949 0.255962 0.500000
O O14 0.250000 0.250000 0.410219
O O15 0.199239 0.000000 0.433281
O O16 0.500000 0.000000 0.070052
O O17 0.431337 0.000000 0.000000
#
# Coordination Sequence:
#
# PCOD9485338 Si02
#       6
#    16  16   8  16  16   8
#     4  11  21  33  47  65  85 107 141 182 224 274
#     4   9  16  27  42  59  82 114 150 187 225 263
#     4  11  23  35  44  59  84 111 140 179 226 269
#     4  10  19  31  45  62  86 116 151 188 221 264
#     4   9  18  33  49  65  83 103 132 174 222 271
#     4   9  16  26  40  60  86 113 147 191 227 258
#
# _framework density 14.644508999999999
#
# number of rings (size 3 to 8) (size 9 to 14) (size 15 to 20)
#    0.000    2.200    2.000    2.100    0.000    6.400 
#    0.000    2.000    0.000    0.000    0.000    0.000 
#    0.000    0.000    0.000    0.000    0.000    1.000 
#
# Total GULP energy -223044.094948 kJ/mol
# GULP energy per Si atom -5576.102374 kJ/mol
# Density = 1.461118 g / cm^3
# Si number density = 14.644509 Si / 1000 Ang^3
#
#
#
# Elastic Constant Matrix: (Units=GPa)
#
#
# Indices 1 2 3 4 5 6 
#
# 1 70.9923 15.0841 30.2151 0.0000 0.0000 0.0000
# 2 15.0841 68.0638 37.5756 0.0000 0.0000 0.0000
# 3 30.2151 37.5756 89.3609 0.0000 0.0000 0.0000
# 4 0.0000 0.0000 0.0000 10.8179 0.0000 0.0000
# 5 0.0000 0.0000 0.0000 0.0000 0.3739 0.0000
# 6 0.0000 0.0000 0.0000 0.0000 0.0000 16.2077
#
#
#
# Elastic Compliance Matrix: (Units=1/GPa)
#
#
# Indices 1 2 3 4 5 6 
#
# 1 0.016483 -0.000750 -0.005258 0.000000 0.000000 0.000000
# 2 -0.000750 0.019168 -0.007806 0.000000 0.000000 0.000000
# 3 -0.005258 -0.007806 0.016251 0.000000 0.000000 0.000000
# 4 0.000000 0.000000 0.000000 0.092439 0.000000 0.000000
# 5 0.000000 0.000000 0.000000 0.000000 2.674457 0.000000
# 6 0.000000 0.000000 0.000000 0.000000 0.000000 0.061699
#
#
# Mechanical properties :
#
#
# Convention : Reuss Voigt Hill
#
# Bulk Modulus (GPa) = 41.19778 43.79629 42.49703
# Shear Modulus (GPa) = 1.71455 15.18273 8.44864
#
# Velocity S-wave (km/s) = 1.08320 3.22336 2.40451
# Velocity P-wave (km/s) = 5.45503 6.62001 6.06556
#
# Compressibility (1/GPa) = 0.02427315
#
# Stress axis : x y z
#
# Youngs Moduli (GPa) = 60.66759 52.17042 61.53505
#
# Poissons Ratio (x) = 0.03914 0.32355
# Poissons Ratio (y) = 0.04552 0.48036
# Poissons Ratio (z) = 0.31898 0.40726
#
# Static dielectric constant tensor:
#      x y z
#    x 1.465710 0.000000 0.000000 
#    y 0.000000 1.520070 0.000000 
#    z 0.000000 0.000000 1.470520 
# 
# From -- ./inp_files/60547.got.cif
#   From: 2010.05.17/outbox.cif.g08.bks.cpg/sg65_31_cif.got.tgz:60547.got - 2010.06.03 17:01:31.
