data_PCOD9485913
_publ_section_title
;
Structure prediction by ZEFSAII (Michael W. Deem and Ramdas Pophale) SiO2 
 PCOD9485913
Probable space group: C M M M
;
_chemical_formula_sum "Si O2"
_cell_formula_units_Z 80
_cell_length_a 18.024591
_cell_length_b 15.197306
_cell_length_c 13.571156
_cell_angle_alpha 90.000000
_cell_angle_beta 90.000000
_cell_angle_gamma 90.000000
_cell_volume 3717.481960
_symmetry_space_group_name_H-M "C M M M"
_symmetry_group_IT_number 65
_symmetry_cell_setting 'orthorhombic'
loop_
_space_group_symop_operation_xyz
x,y,z
-x,-y,z
x,-y,-z
-x,y,-z
-x,-y,-z
x,y,-z
-x,y,z
x,-y,z
1/2+x,1/2+y,z
1/2-x,1/2-y,z
1/2+x,1/2-y,-z
1/2-x,1/2+y,-z
1/2-x,1/2-y,-z
1/2+x,1/2+y,-z
1/2-x,1/2+y,z
1/2+x,1/2-y,z
loop_
_atom_site_type_symbol
_atom_site_label
_atom_site_fract_x
_atom_site_fract_y
_atom_site_fract_z
Si Si1 0.586788 0.131587 0.611040
Si Si2 0.500000 0.102479 0.116374
Si Si3 0.672821 0.305574 0.391225
Si Si4 0.184792 0.106359 0.183959
Si Si5 0.584888 0.607771 0.000000
Si Si6 0.347891 0.099169 0.812818
O O1 0.601946 0.100207 0.500000
O O2 0.500000 0.114868 0.632810
O O3 0.606406 0.234758 0.610954
O O4 0.639576 0.094014 0.695395
O O5 0.576958 0.144475 0.150732
O O6 0.500000 0.000000 0.154527
O O7 0.500000 0.099009 0.000000
O O8 0.673263 0.348816 0.500000
O O9 0.750000 0.250000 0.385033
O O10 0.665990 0.363875 0.294348
O O11 0.128850 0.134888 0.098477
O O12 0.268769 0.139356 0.163394
O O13 0.187598 0.000000 0.182675
O O14 0.583968 0.500000 0.000000
O O15 0.500000 0.638521 0.000000
O O16 0.347490 0.000000 0.855315
#
# Coordination Sequence:
#
# PCOD9485913 Si02
#       6
#    16   8  16  16   8  16
#     4  10  20  34  53  76 108 151 189 224 272 334
#     4   9  18  30  47  71 107 151 181 216 266 316
#     4  10  20  36  56  80 114 154 188 227 281 336
#     4  10  21  36  60  88 112 144 190 241 287 343
#     4   9  20  40  63  85 111 147 189 241 305 355
#     4  10  19  31  50  80 112 144 186 229 267 323
#
# _framework density 21.519942
#
# number of rings (size 3 to 8) (size 9 to 14) (size 15 to 20)
#    0.000    2.200    3.000    0.000    1.400    1.600 
#    0.000    3.500    2.200    0.000    0.000    5.600 
#    0.000    0.000    0.000    0.000    0.000    0.000 
#
# Total GULP energy -223162.016133 kJ/mol
# GULP energy per Si atom -5579.050403 kJ/mol
# Density = 2.147096 g / cm^3
# Si number density = 21.519942 Si / 1000 Ang^3
#
#
#
# Elastic Constant Matrix: (Units=GPa)
#
#
# Indices 1 2 3 4 5 6 
#
# 1 157.2318 24.6951 85.7114 0.0000 0.0000 0.0000
# 2 24.6951 28.3975 18.4319 0.0000 0.0000 0.0000
# 3 85.7114 18.4319 154.8409 0.0000 0.0000 0.0000
# 4 0.0000 0.0000 0.0000 38.0576 0.0000 0.0000
# 5 0.0000 0.0000 0.0000 0.0000 33.5354 0.0000
# 6 0.0000 0.0000 0.0000 0.0000 0.0000 6.6985
#
#
#
# Elastic Compliance Matrix: (Units=1/GPa)
#
#
# Indices 1 2 3 4 5 6 
#
# 1 0.009826 -0.005434 -0.004792 0.000000 0.000000 0.000000
# 2 -0.005434 0.041169 -0.001892 0.000000 0.000000 0.000000
# 3 -0.004792 -0.001892 0.009336 0.000000 0.000000 0.000000
# 4 0.000000 0.000000 0.000000 0.026276 0.000000 0.000000
# 5 0.000000 0.000000 0.000000 0.000000 0.029819 0.000000
# 6 0.000000 0.000000 0.000000 0.000000 0.000000 0.149288
#
#
# Mechanical properties :
#
#
# Convention : Reuss Voigt Hill
#
# Bulk Modulus (GPa) = 27.70645 66.46078 47.08362
# Shear Modulus (GPa) = 16.55722 29.76708 23.16215
#
# Velocity S-wave (km/s) = 2.77680 3.72322 3.28428
# Velocity P-wave (km/s) = 4.81493 7.03090 6.02566
#
# Compressibility (1/GPa) = 0.03609267
#
# Stress axis : x y z
#
# Youngs Moduli (GPa) = 101.77155 24.29037 107.10986
#
# Poissons Ratio (x) = 0.13200 0.51329
# Poissons Ratio (y) = 0.55307 0.20270
# Poissons Ratio (z) = 0.48771 0.04597
#
# Static dielectric constant tensor:
#      x y z
#    x 1.810770 0.000000 0.000000 
#    y 0.000000 1.822670 0.000000 
#    z 0.000000 0.000000 1.793030 
# 
# From -- ./inp_files/26713.got.cif
#   From: 2010.05.17/outbox.cif.g08.bks.cpg/sg65_14_cif.got.tgz:26713.got - 2010.06.03 17:01:31.
