data_PCOD9485856
_publ_section_title
;
Structure prediction by ZEFSAII (Michael W. Deem and Ramdas Pophale) SiO2 
 PCOD9485856
Probable space group: C M M M
;
_chemical_formula_sum "Si O2"
_cell_formula_units_Z 72
_cell_length_a 8.538045
_cell_length_b 19.190590
_cell_length_c 24.455013
_cell_angle_alpha 90.000000
_cell_angle_beta 90.000000
_cell_angle_gamma 90.000000
_cell_volume 4006.956839
_symmetry_space_group_name_H-M "C M M M"
_symmetry_group_IT_number 65
_symmetry_cell_setting 'orthorhombic'
loop_
_space_group_symop_operation_xyz
x,y,z
-x,-y,z
x,-y,-z
-x,y,-z
-x,-y,-z
x,y,-z
-x,y,z
x,-y,z
1/2+x,1/2+y,z
1/2-x,1/2-y,z
1/2+x,1/2-y,-z
1/2-x,1/2+y,-z
1/2-x,1/2-y,-z
1/2+x,1/2+y,-z
1/2-x,1/2+y,z
1/2+x,1/2-y,z
loop_
_atom_site_type_symbol
_atom_site_label
_atom_site_fract_x
_atom_site_fract_y
_atom_site_fract_z
Si Si1 0.689049 0.580708 0.396196
Si Si2 0.812709 0.580639 0.721958
Si Si3 0.688039 0.670960 0.178215
Si Si4 0.310335 0.328493 0.500000
Si Si5 0.810800 0.829536 0.941259
O O1 0.500000 0.581292 0.395009
O O2 0.738595 0.500000 0.404702
O O3 0.750628 0.604372 0.337205
O O4 0.741049 0.629346 0.445991
O O5 0.761993 0.500000 0.728532
O O6 0.750484 0.625986 0.771827
O O7 0.000000 0.582948 0.721407
O O8 0.500000 0.672312 0.180031
O O9 0.750000 0.750000 0.182402
O O10 0.737804 0.641818 0.118098
O O11 0.500000 0.327776 0.500000
O O12 0.250000 0.250000 0.500000
O O13 0.750000 0.750000 0.941439
O O14 0.000000 0.828732 0.941332
O O15 0.760067 0.861031 0.000000
#
# Coordination Sequence:
#
# PCOD9485856 Si02
#       5
#    16  16  16   8  16
#     4   9  18  35  57  76  96 128 170 207 240 287
#     4  10  21  36  53  74 101 133 170 211 252 295
#     4  10  19  31  50  75 102 132 166 206 253 302
#     4  10  21  35  53  79 107 132 158 196 246 294
#     4   8  14  25  42  66  95 125 159 200 245 294
#
# _framework density 17.968747
#
# number of rings (size 3 to 8) (size 9 to 14) (size 15 to 20)
#    0.000    2.667    0.000    1.667    0.000    5.333 
#    0.000    2.222    0.000    4.000    0.000    4.667 
#    0.000    0.000    0.000    0.000    0.000    0.000 
#
# Total GULP energy -200578.618218 kJ/mol
# GULP energy per Si atom -5571.628284 kJ/mol
# Density = 1.792785 g / cm^3
# Si number density = 17.968747 Si / 1000 Ang^3
#
#
#
# Elastic Constant Matrix: (Units=GPa)
#
#
# Indices 1 2 3 4 5 6 
#
# 1 16.2690 15.5303 34.4985 0.0000 0.0000 0.0000
# 2 15.5303 58.5809 90.0951 0.0000 0.0000 0.0000
# 3 34.4985 90.0951 240.6482 0.0000 0.0000 0.0000
# 4 0.0000 0.0000 0.0000 -31.5312 0.0000 0.0000
# 5 0.0000 0.0000 0.0000 0.0000 17.3568 0.0000
# 6 0.0000 0.0000 0.0000 0.0000 0.0000 23.2513
#
#
#
# Elastic Compliance Matrix: (Units=1/GPa)
#
#
# Indices 1 2 3 4 5 6 
#
# 1 0.090512 -0.009523 -0.009410 0.000000 0.000000 0.000000
# 2 -0.009523 0.041242 -0.014075 0.000000 0.000000 0.000000
# 3 -0.009410 -0.014075 0.010774 0.000000 0.000000 0.000000
# 4 0.000000 0.000000 0.000000 -0.031715 0.000000 0.000000
# 5 0.000000 0.000000 0.000000 0.000000 0.057614 0.000000
# 6 0.000000 0.000000 0.000000 0.000000 0.000000 0.043008
#
#
# Mechanical properties :
#
#
# Convention : Reuss Voigt Hill
#
# Bulk Modulus (GPa) = 13.07000 66.19400 39.63200
# Shear Modulus (GPa) = 16.50399 13.50697 15.00548
#
# Velocity S-wave (km/s) = 3.03394 2.74468 2.89292
# Velocity P-wave (km/s) = 4.42296 6.85293 5.76738
#
# Compressibility (1/GPa) = 0.07651107
#
# Stress axis : x y z
#
# Youngs Moduli (GPa) = 11.04830 24.24690 92.81549
#
# Poissons Ratio (x) = 0.23090 0.87341
# Poissons Ratio (y) = 0.10521 1.30641
# Poissons Ratio (z) = 0.10397 0.34128
#
# Static dielectric constant tensor:
#      x y z
#    x 1.612860 0.000000 0.000000 
#    y 0.000000 1.669480 0.000000 
#    z 0.000000 0.000000 1.651740 
# 
# From -- ./inp_files/59249.got.cif
#   From: 2010.05.17/outbox.cif.g08.bks.cpg/sg65_30_cif.got.tgz:59249.got - 2010.06.03 17:01:31.
