data_PCOD9485976
_publ_section_title
;
Structure prediction by ZEFSAII (Michael W. Deem and Ramdas Pophale) SiO2 
 PCOD9485976
Probable space group: C M M M
;
_chemical_formula_sum "Si O2"
_cell_formula_units_Z 104
_cell_length_a 22.190283
_cell_length_b 14.416882
_cell_length_c 18.168301
_cell_angle_alpha 90.000000
_cell_angle_beta 90.000000
_cell_angle_gamma 90.000000
_cell_volume 5812.306411
_symmetry_space_group_name_H-M "C M M M"
_symmetry_group_IT_number 65
_symmetry_cell_setting 'orthorhombic'
loop_
_space_group_symop_operation_xyz
x,y,z
-x,-y,z
x,-y,-z
-x,y,-z
-x,-y,-z
x,y,-z
-x,y,z
x,-y,z
1/2+x,1/2+y,z
1/2-x,1/2-y,z
1/2+x,1/2-y,-z
1/2-x,1/2+y,-z
1/2-x,1/2-y,-z
1/2+x,1/2+y,-z
1/2-x,1/2+y,z
1/2+x,1/2-y,z
loop_
_atom_site_type_symbol
_atom_site_label
_atom_site_fract_x
_atom_site_fract_y
_atom_site_fract_z
Si Si1 0.628713 0.606875 0.198226
Si Si2 0.068653 0.739233 0.297589
Si Si3 0.677320 0.750471 0.086067
Si Si4 0.068263 0.000000 0.412019
Si Si5 0.257430 0.606343 0.692279
Si Si6 0.856007 0.389788 0.789652
Si Si7 0.850190 0.180651 0.412688
O O1 0.608867 0.500000 0.189337
O O2 0.583928 0.673432 0.243952
O O3 0.647804 0.659551 0.123642
O O4 0.689254 0.605952 0.247577
O O5 0.084627 0.649227 0.249442
O O6 0.113196 0.742567 0.367578
O O7 0.000000 0.743199 0.321492
O O8 0.750000 0.750000 0.093723
O O9 0.653797 0.837168 0.133734
O O10 0.662922 0.756580 0.000000
O O11 0.108599 0.910579 0.395353
O O12 0.061775 0.000000 0.500000
O O13 0.000000 0.000000 0.380669
O O14 0.245752 0.500000 0.669368
O O15 0.198923 0.641263 0.735491
O O16 0.285481 0.660758 0.623665
O O17 0.853975 0.500000 0.797150
O O18 0.847358 0.194224 0.500000
#
# Coordination Sequence:
#
# PCOD9485976 Si02
#       7
#    16  16  16   8  16  16  16
#     4   9  18  32  51  77 113 150 177 210 264 331
#     4  10  22  36  54  79 106 142 192 238 274 323
#     4  10  19  31  53  86 119 145 173 214 267 328
#     4   9  16  26  42  70 108 146 174 204 260 323
#     4   9  16  30  51  74 103 140 179 215 263 325
#     4  10  21  38  58  77 106 145 185 232 276 318
#     4  10  19  31  51  78 110 144 176 224 278 327
#
# _framework density 17.893068
#
# number of rings (size 3 to 8) (size 9 to 14) (size 15 to 20)
#    0.000    2.385    2.308    0.462    1.077    2.154 
#    0.000    3.077    0.000    8.769    0.000    9.692 
#    0.000    0.000    0.000    0.000    0.000    0.000 
#
# Total GULP energy -289956.106977 kJ/mol
# GULP energy per Si atom -5576.078980 kJ/mol
# Density = 1.785234 g / cm^3
# Si number density = 17.893068 Si / 1000 Ang^3
#
#
#
# Elastic Constant Matrix: (Units=GPa)
#
#
# Indices 1 2 3 4 5 6 
#
# 1 25.8695 10.1698 19.6522 0.0000 0.0000 0.0000
# 2 10.1698 77.7099 43.4700 0.0000 0.0000 0.0000
# 3 19.6522 43.4700 137.7310 0.0000 0.0000 0.0000
# 4 0.0000 0.0000 0.0000 20.2301 0.0000 0.0000
# 5 0.0000 0.0000 0.0000 0.0000 13.2420 0.0000
# 6 0.0000 0.0000 0.0000 0.0000 0.0000 2.1142
#
#
#
# Elastic Compliance Matrix: (Units=1/GPa)
#
#
# Indices 1 2 3 4 5 6 
#
# 1 0.043822 -0.002717 -0.005395 0.000000 0.000000 0.000000
# 2 -0.002717 0.015796 -0.004598 0.000000 0.000000 0.000000
# 3 -0.005395 -0.004598 0.009481 0.000000 0.000000 0.000000
# 4 0.000000 0.000000 0.000000 0.049431 0.000000 0.000000
# 5 0.000000 0.000000 0.000000 0.000000 0.075517 0.000000
# 6 0.000000 0.000000 0.000000 0.000000 0.000000 0.473000
#
#
# Mechanical properties :
#
#
# Convention : Reuss Voigt Hill
#
# Bulk Modulus (GPa) = 22.89394 43.09937 32.99666
# Shear Modulus (GPa) = 7.07186 18.31849 12.69517
#
# Velocity S-wave (km/s) = 1.99019 3.20312 2.66654
# Velocity P-wave (km/s) = 4.25486 6.14975 5.28788
#
# Compressibility (1/GPa) = 0.04367968
#
# Stress axis : x y z
#
# Youngs Moduli (GPa) = 22.81948 63.30775 105.46870
#
# Poissons Ratio (x) = 0.17200 0.56904
# Poissons Ratio (y) = 0.06200 0.48492
# Poissons Ratio (z) = 0.12312 0.29107
#
# Static dielectric constant tensor:
#      x y z
#    x 1.607660 0.000000 0.000000 
#    y 0.000000 1.644690 0.000000 
#    z 0.000000 0.000000 1.597440 
# 
# From -- ./inp_files/56831.got.cif
#   From: 2010.05.17/outbox.cif.g08.bks.cpg/sg65_29_cif.got.tgz:56831.got - 2010.06.03 17:01:31.
