data_PCOD9485715
_publ_section_title
;
Structure prediction by ZEFSAII (Michael W. Deem and Ramdas Pophale) SiO2 
 PCOD9485715
Probable space group: C M M M
;
_chemical_formula_sum "Si O2"
_cell_formula_units_Z 72
_cell_length_a 19.097728
_cell_length_b 7.945620
_cell_length_c 24.222241
_cell_angle_alpha 90.000000
_cell_angle_beta 90.000000
_cell_angle_gamma 90.000000
_cell_volume 3675.562530
_symmetry_space_group_name_H-M "C M M M"
_symmetry_group_IT_number 65
_symmetry_cell_setting 'orthorhombic'
loop_
_space_group_symop_operation_xyz
x,y,z
-x,-y,z
x,-y,-z
-x,y,-z
-x,-y,-z
x,y,-z
-x,y,z
x,-y,z
1/2+x,1/2+y,z
1/2-x,1/2-y,z
1/2+x,1/2-y,-z
1/2-x,1/2+y,-z
1/2-x,1/2-y,-z
1/2+x,1/2+y,-z
1/2-x,1/2+y,z
1/2+x,1/2-y,z
loop_
_atom_site_type_symbol
_atom_site_label
_atom_site_fract_x
_atom_site_fract_y
_atom_site_fract_z
Si Si1 0.579158 0.701832 0.834652
Si Si2 0.081165 0.793985 0.500000
Si Si3 0.831259 0.796946 0.393058
Si Si4 0.830936 0.700332 0.939667
Si Si5 0.418430 0.705404 0.711969
O O1 0.500000 0.765157 0.843400
O O2 0.575975 0.500000 0.830995
O O3 0.626453 0.742839 0.886628
O O4 0.602820 0.761056 0.773759
O O5 0.123478 0.738987 0.554324
O O6 0.000000 0.740426 0.500000
O O7 0.080570 0.000000 0.500000
O O8 0.750000 0.750000 0.397047
O O9 0.867950 0.735191 0.336725
O O10 0.834948 0.000000 0.392764
O O11 0.835341 0.500000 0.941346
O O12 0.750000 0.750000 0.933918
O O13 0.855440 0.766274 0.000000
O O14 0.500000 0.752737 0.702954
O O15 0.417022 0.500000 0.711082
#
# Coordination Sequence:
#
# PCOD9485715 Si02
#       5
#    16   8  16  16  16
#     4   9  18  33  53  76 101 130 165 204 247 296
#     4   9  17  30  51  75  94 123 170 210 238 279
#     4  10  19  31  49  73 101 129 160 202 246 288
#     4  10  21  36  53  73  99 131 166 205 249 297
#     4   8  15  30  51  72  95 127 166 203 238 281
#
# _framework density 19.588837999999999
#
# number of rings (size 3 to 8) (size 9 to 14) (size 15 to 20)
#    0.000    2.778    0.000    3.000    0.000    5.778 
#    0.000    5.556    0.000    4.667    0.000    0.000 
#    0.000    0.000    0.000    0.000    0.000    0.000 
#
# Total GULP energy -200768.540028 kJ/mol
# GULP energy per Si atom -5576.903890 kJ/mol
# Density = 1.954425 g / cm^3
# Si number density = 19.588838 Si / 1000 Ang^3
#
#
#
# Elastic Constant Matrix: (Units=GPa)
#
#
# Indices 1 2 3 4 5 6 
#
# 1 137.2106 4.0001 137.4789 0.0000 0.0000 0.0000
# 2 4.0001 14.2727 15.4030 0.0000 0.0000 0.0000
# 3 137.4789 15.4030 242.0206 0.0000 0.0000 0.0000
# 4 0.0000 0.0000 0.0000 -4.5952 0.0000 0.0000
# 5 0.0000 0.0000 0.0000 0.0000 129.3528 0.0000
# 6 0.0000 0.0000 0.0000 0.0000 0.0000 22.6703
#
#
#
# Elastic Compliance Matrix: (Units=1/GPa)
#
#
# Indices 1 2 3 4 5 6 
#
# 1 0.017416 0.006223 -0.010289 0.000000 0.000000 0.000000
# 2 0.006223 0.077455 -0.008464 0.000000 0.000000 0.000000
# 3 -0.010289 -0.008464 0.010515 0.000000 0.000000 0.000000
# 4 0.000000 0.000000 0.000000 -0.217619 0.000000 0.000000
# 5 0.000000 0.000000 0.000000 0.000000 0.007731 0.000000
# 6 0.000000 0.000000 0.000000 0.000000 0.000000 0.044111
#
#
# Mechanical properties :
#
#
# Convention : Reuss Voigt Hill
#
# Bulk Modulus (GPa) = 12.44947 78.58532 45.51740
# Shear Modulus (GPa) = -584.38009 45.26038 -269.55986
#
# Velocity S-wave (km/s) = -17.29077 4.81200 -11.74341
# Velocity P-wave (km/s) = 19.80551 8.43079 12.67241
#
# Compressibility (1/GPa) = 0.08032469
#
# Stress axis : x y z
#
# Youngs Moduli (GPa) = 57.41913 12.91078 95.10019
#
# Poissons Ratio (x) = -0.08034 0.97849
# Poissons Ratio (y) = -0.35731 0.80497
# Poissons Ratio (z) = 0.59079 0.10928
#
# Static dielectric constant tensor:
#      x y z
#    x 1.638900 0.000000 0.000000 
#    y 0.000000 1.723570 0.000000 
#    z 0.000000 0.000000 1.712110 
# 
# From -- ./inp_files/64339.got.cif
#   From: 2010.05.17/outbox.cif.g08.bks.cpg/sg65_33_cif.got.tgz:64339.got - 2010.06.03 17:01:31.
