data_PCOD9485275
_publ_section_title
;
Structure prediction by ZEFSAII (Michael W. Deem and Ramdas Pophale) SiO2 
 PCOD9485275
Probable space group: C M M M
;
_chemical_formula_sum "Si O2"
_cell_formula_units_Z 96
_cell_length_a 14.984796
_cell_length_b 24.842024
_cell_length_c 14.081649
_cell_angle_alpha 90.000000
_cell_angle_beta 90.000000
_cell_angle_gamma 90.000000
_cell_volume 5241.931324
_symmetry_space_group_name_H-M "C M M M"
_symmetry_group_IT_number 65
_symmetry_cell_setting 'orthorhombic'
loop_
_space_group_symop_operation_xyz
x,y,z
-x,-y,z
x,-y,-z
-x,y,-z
-x,-y,-z
x,y,-z
-x,y,z
x,-y,z
1/2+x,1/2+y,z
1/2-x,1/2-y,z
1/2+x,1/2-y,-z
1/2-x,1/2+y,-z
1/2-x,1/2-y,-z
1/2+x,1/2+y,-z
1/2-x,1/2+y,z
1/2+x,1/2-y,z
loop_
_atom_site_type_symbol
_atom_site_label
_atom_site_fract_x
_atom_site_fract_y
_atom_site_fract_z
Si Si1 0.265747 0.875322 0.387259
Si Si2 0.400421 0.780327 0.613649
Si Si3 0.396806 0.143643 0.106870
Si Si4 0.645364 0.736896 0.891227
Si Si5 0.394081 0.937623 0.267884
Si Si6 0.602381 0.333701 0.717335
O O1 0.248029 0.874982 0.500000
O O2 0.322423 0.821492 0.361273
O O3 0.332675 0.922811 0.357262
O O4 0.175334 0.873524 0.326358
O O5 0.398926 0.775525 0.500000
O O6 0.500000 0.800302 0.640972
O O7 0.388488 0.721660 0.657177
O O8 0.500000 0.128207 0.097513
O O9 0.395330 0.205697 0.140054
O O10 0.360740 0.101981 0.183685
O O11 0.356309 0.142130 0.000000
O O12 0.750000 0.750000 0.888648
O O13 0.622167 0.687611 0.823381
O O14 0.617879 0.727059 0.000000
O O15 0.500000 0.927871 0.286209
O O16 0.384994 0.000000 0.241321
O O17 0.500000 0.352232 0.709973
#
# Coordination Sequence:
#
# PCOD9485275 Si02
#       6
#    16  16  16  16  16  16
#     4  11  22  35  51  71  99 134 173 219 268 315
#     4   9  17  29  47  72  99 128 163 203 252 308
#     4   9  17  30  49  74 106 141 171 200 241 299
#     4  10  19  30  48  76 109 143 176 209 249 300
#     4  10  21  36  55  79 103 129 167 217 275 335
#     4  11  21  32  49  72 102 140 178 213 247 293
#
# _framework density 18.313860999999999
#
# number of rings (size 3 to 8) (size 9 to 14) (size 15 to 20)
#    0.000    2.000    0.000    5.000    0.000    7.667 
#    0.000    2.500    0.000    0.500    0.000    1.167 
#    0.000    0.000    0.000    9.333    0.000    0.167 
#
# Total GULP energy -267843.172447 kJ/mol
# GULP energy per Si atom -5580.066093 kJ/mol
# Density = 1.827218 g / cm^3
# Si number density = 18.313861 Si / 1000 Ang^3
#
#
#
# Elastic Constant Matrix: (Units=GPa)
#
#
# Indices 1 2 3 4 5 6 
#
# 1 86.5416 16.5300 39.1939 0.0000 0.0000 0.0000
# 2 16.5300 39.4019 30.0527 0.0000 0.0000 0.0000
# 3 39.1939 30.0527 85.1705 0.0000 0.0000 0.0000
# 4 0.0000 0.0000 0.0000 14.4311 0.0000 0.0000
# 5 0.0000 0.0000 0.0000 0.0000 17.9054 0.0000
# 6 0.0000 0.0000 0.0000 0.0000 0.0000 17.0409
#
#
#
# Elastic Compliance Matrix: (Units=1/GPa)
#
#
# Indices 1 2 3 4 5 6 
#
# 1 0.014652 -0.001374 -0.006258 0.000000 0.000000 0.000000
# 2 -0.001374 0.034854 -0.011666 0.000000 0.000000 0.000000
# 3 -0.006258 -0.011666 0.018737 0.000000 0.000000 0.000000
# 4 0.000000 0.000000 0.000000 0.069295 0.000000 0.000000
# 5 0.000000 0.000000 0.000000 0.000000 0.055849 0.000000
# 6 0.000000 0.000000 0.000000 0.000000 0.000000 0.058682
#
#
# Mechanical properties :
#
#
# Convention : Reuss Voigt Hill
#
# Bulk Modulus (GPa) = 33.72966 42.51861 38.12413
# Shear Modulus (GPa) = 16.63635 18.23129 17.43382
#
# Velocity S-wave (km/s) = 3.01724 3.15856 3.08871
# Velocity P-wave (km/s) = 5.53135 6.04724 5.79504
#
# Compressibility (1/GPa) = 0.02964750
#
# Stress axis : x y z
#
# Youngs Moduli (GPa) = 68.25206 28.69128 53.36975
#
# Poissons Ratio (x) = 0.03942 0.33397
# Poissons Ratio (y) = 0.09377 0.62261
# Poissons Ratio (z) = 0.42710 0.33471
#
# Static dielectric constant tensor:
#      x y z
#    x 1.675730 0.000000 0.000000 
#    y 0.000000 1.603910 0.000000 
#    z 0.000000 0.000000 1.703420 
# 
# From -- ./inp_files/40368.got.cif
#   From: 2010.05.17/outbox.cif.g08.bks.cpg/sg65_21_cif.got.tgz:40368.got - 2010.06.03 17:01:31.
