data_PCOD9485098
_publ_section_title
;
Structure prediction by ZEFSAII (Michael W. Deem and Ramdas Pophale) SiO2 
 PCOD9485098
Probable space group: C M M M
;
_chemical_formula_sum "Si O2"
_cell_formula_units_Z 120
_cell_length_a 8.834027
_cell_length_b 27.686179
_cell_length_c 28.702646
_cell_angle_alpha 90.000000
_cell_angle_beta 90.000000
_cell_angle_gamma 90.000000
_cell_volume 7020.106156
_symmetry_space_group_name_H-M "C M M M"
_symmetry_group_IT_number 65
_symmetry_cell_setting 'orthorhombic'
loop_
_space_group_symop_operation_xyz
x,y,z
-x,-y,z
x,-y,-z
-x,y,-z
-x,-y,-z
x,y,-z
-x,y,z
x,-y,z
1/2+x,1/2+y,z
1/2-x,1/2-y,z
1/2+x,1/2-y,-z
1/2-x,1/2+y,-z
1/2-x,1/2-y,-z
1/2+x,1/2+y,-z
1/2-x,1/2+y,z
1/2+x,1/2-y,z
loop_
_atom_site_type_symbol
_atom_site_label
_atom_site_fract_x
_atom_site_fract_y
_atom_site_fract_z
Si Si1 0.182349 0.053947 0.144919
Si Si2 0.682045 0.801582 0.713300
Si Si3 0.317837 0.197134 0.395014
Si Si4 0.181828 0.358498 0.197759
Si Si5 0.817348 0.891575 0.052406
Si Si6 0.180834 0.302115 0.895630
Si Si7 0.823264 0.500000 0.443442
Si Si8 0.178870 0.102823 0.444006
O O1 0.246885 0.091581 0.181630
O O2 0.227140 0.071077 0.092933
O O3 0.000000 0.055175 0.146699
O O4 0.235102 0.000000 0.153809
O O5 0.500000 0.798771 0.715234
O O6 0.750000 0.750000 0.726510
O O7 0.723170 0.810903 0.659561
O O8 0.732317 0.840062 0.751790
O O9 0.500000 0.199459 0.399330
O O10 0.250000 0.250000 0.408525
O O11 0.255656 0.150731 0.422694
O O12 0.221312 0.320710 0.156524
O O13 0.000000 0.362814 0.198025
O O14 0.747200 0.840912 0.068401
O O15 0.000000 0.887738 0.053281
O O16 0.771638 0.904778 0.000000
O O17 0.250000 0.250000 0.903756
O O18 0.000000 0.300878 0.899149
O O19 0.813048 0.500000 0.500000
O O20 0.747636 0.550866 0.428251
O O21 0.000000 0.500000 0.430594
O O22 0.197996 0.104927 0.500000
O O23 0.000000 0.103458 0.433713
#
# Coordination Sequence:
#
# PCOD9485098 Si02
#       8
#    16  16  16  16  16  16   8  16
#     4   9  18  32  50  72  95 119 152 195 239 282
#     4   9  18  32  51  75 101 129 163 200 242 291
#     4  10  20  34  52  75 105 139 175 215 260 312
#     4   9  18  32  50  72  96 122 155 193 235 286
#     4   9  18  32  48  66  90 121 155 190 231 279
#     4  10  19  30  46  68  94 122 152 189 230 277
#     4   9  17  31  53  79 103 131 171 217 263 307
#     4  10  20  34  53  77 106 140 178 220 263 308
#
# _framework density 17.093758000000001
#
# number of rings (size 3 to 8) (size 9 to 14) (size 15 to 20)
#    0.000    2.600    0.000    1.800    0.000    4.533 
#    0.000    1.333    1.467    0.000    0.000    3.733 
#    0.000    0.000    0.000    0.000    0.000    0.000 
#
# Total GULP energy -334450.234091 kJ/mol
# GULP energy per Si atom -5574.170568 kJ/mol
# Density = 1.705485 g / cm^3
# Si number density = 17.093758 Si / 1000 Ang^3
#
#
#
# Elastic Constant Matrix: (Units=GPa)
#
#
# Indices 1 2 3 4 5 6 
#
# 1 35.3347 47.1452 34.1446 0.0000 0.0000 0.0000
# 2 47.1452 138.3686 57.4234 0.0000 0.0000 0.0000
# 3 34.1446 57.4234 55.6340 0.0000 0.0000 0.0000
# 4 0.0000 0.0000 0.0000 6.0484 0.0000 0.0000
# 5 0.0000 0.0000 0.0000 0.0000 20.8564 0.0000
# 6 0.0000 0.0000 0.0000 0.0000 0.0000 31.0805
#
#
#
# Elastic Compliance Matrix: (Units=1/GPa)
#
#
# Indices 1 2 3 4 5 6 
#
# 1 0.079442 -0.011954 -0.036418 0.000000 0.000000 0.000000
# 2 -0.011954 0.014441 -0.007569 0.000000 0.000000 0.000000
# 3 -0.036418 -0.007569 0.048138 0.000000 0.000000 0.000000
# 4 0.000000 0.000000 0.000000 0.165333 0.000000 0.000000
# 5 0.000000 0.000000 0.000000 0.000000 0.047947 0.000000
# 6 0.000000 0.000000 0.000000 0.000000 0.000000 0.032174
#
#
# Mechanical properties :
#
#
# Convention : Reuss Voigt Hill
#
# Bulk Modulus (GPa) = 33.17937 56.30707 44.74322
# Shear Modulus (GPa) = 9.81539 17.63867 13.72703
#
# Velocity S-wave (km/s) = 2.39887 3.21577 2.83688
# Velocity P-wave (km/s) = 5.20818 6.84104 6.07968
#
# Compressibility (1/GPa) = 0.03013921
#
# Stress axis : x y z
#
# Youngs Moduli (GPa) = 12.58786 69.24589 20.77350
#
# Poissons Ratio (x) = 0.82776 0.75653
# Poissons Ratio (y) = 0.15047 0.15724
# Poissons Ratio (z) = 0.45842 0.52414
#
# Static dielectric constant tensor:
#      x y z
#    x 1.576540 0.000000 0.000000 
#    y 0.000000 1.559810 0.000000 
#    z 0.000000 0.000000 1.579630 
# 
# From -- ./inp_files/73904.got.cif
#   From: 2010.05.17/outbox.cif.g08.bks.cpg/sg65_37_cif.got.tgz:73904.got - 2010.06.03 17:01:31.
