data_PCOD9485870
_publ_section_title
;
Structure prediction by ZEFSAII (Michael W. Deem and Ramdas Pophale) SiO2 
 PCOD9485870
Probable space group: C M M M
;
_chemical_formula_sum "Si O2"
_cell_formula_units_Z 54
_cell_length_a 13.952978
_cell_length_b 5.289397
_cell_length_c 34.064389
_cell_angle_alpha 90.000000
_cell_angle_beta 90.000000
_cell_angle_gamma 90.000000
_cell_volume 2514.048650
_symmetry_space_group_name_H-M "C M M M"
_symmetry_group_IT_number 65
_symmetry_cell_setting 'orthorhombic'
loop_
_space_group_symop_operation_xyz
x,y,z
-x,-y,z
x,-y,-z
-x,y,-z
-x,-y,-z
x,y,-z
-x,y,z
x,-y,z
1/2+x,1/2+y,z
1/2-x,1/2-y,z
1/2+x,1/2-y,-z
1/2-x,1/2+y,-z
1/2-x,1/2-y,-z
1/2+x,1/2+y,-z
1/2-x,1/2+y,z
1/2+x,1/2-y,z
loop_
_atom_site_type_symbol
_atom_site_label
_atom_site_fract_x
_atom_site_fract_y
_atom_site_fract_z
Si Si1 0.382687 0.500000 0.216734
Si Si2 0.000000 0.500000 0.500000
Si Si3 0.182971 0.500000 0.000000
Si Si4 0.684666 0.000000 0.915256
Si Si5 0.884106 0.500000 0.354749
Si Si6 0.187476 0.500000 0.443429
Si Si7 0.616196 0.500000 0.306178
Si Si8 0.887246 0.500000 0.828203
O O1 0.500000 0.500000 0.218176
O O2 0.347688 0.500000 0.261557
O O3 0.352496 0.747140 0.192904
O O4 0.913618 0.500000 0.466272
O O5 0.250000 0.250000 0.000000
O O6 0.131399 0.500000 0.957633
O O7 0.750000 0.750000 0.914660
O O8 0.628468 0.000000 0.874690
O O9 0.835519 0.500000 0.397103
O O10 0.858530 0.748894 0.330068
O O11 0.000000 0.500000 0.360123
O O12 0.250000 0.750000 0.452722
O O13 0.500000 0.500000 0.303752
O O14 0.000000 0.500000 0.821537
#
# Coordination Sequence:
#
# PCOD9485870 Si02
#       8
#     8   2   4   8   8   8   8   8
#     4   9  17  30  49  80 110 147 193 239 274 345
#     4  12  28  54  76 108 144 178 232 274 320 396
#     4   8  16  30  49  70  91 124 172 220 268 334
#     4  10  19  33  52  72  97 132 175 222 276 344
#     4  10  19  37  61  93 124 162 206 261 303 362
#     4  12  27  47  74 106 141 181 221 271 333 386
#     4   9  17  30  58  86 116 156 209 247 292 346
#     4  10  19  31  50  75 110 141 183 233 287 333
#
# _framework density 21.479299000000001
#
# number of rings (size 3 to 8) (size 9 to 14) (size 15 to 20)
#    0.000    2.074    0.741    3.111    0.000    4.741 
#    0.000    0.370    0.000   17.778    0.000    9.333 
#    0.000    0.000    0.000    0.000    0.000    0.000 
#
# Total GULP energy -150613.181596 kJ/mol
# GULP energy per Si atom -5578.265985 kJ/mol
# Density = 2.143041 g / cm^3
# Si number density = 21.479299 Si / 1000 Ang^3
#
#
#
# Elastic Constant Matrix: (Units=GPa)
#
#
# Indices 1 2 3 4 5 6 
#
# 1 128.9110 46.5566 40.5394 0.0000 0.0000 0.0000
# 2 46.5566 214.5110 94.7973 0.0000 0.0000 0.0000
# 3 40.5394 94.7973 231.0340 0.0000 0.0000 0.0000
# 4 0.0000 0.0000 0.0000 96.8203 0.0000 0.0000
# 5 0.0000 0.0000 0.0000 0.0000 41.0193 0.0000
# 6 0.0000 0.0000 0.0000 0.0000 0.0000 -62.5333
#
#
#
# Elastic Compliance Matrix: (Units=1/GPa)
#
#
# Indices 1 2 3 4 5 6 
#
# 1 0.008569 -0.001460 -0.000905 0.000000 0.000000 0.000000
# 2 -0.001460 0.005943 -0.002182 0.000000 0.000000 0.000000
# 3 -0.000905 -0.002182 0.005383 0.000000 0.000000 0.000000
# 4 0.000000 0.000000 0.000000 0.010328 0.000000 0.000000
# 5 0.000000 0.000000 0.000000 0.000000 0.024379 0.000000
# 6 0.000000 0.000000 0.000000 0.000000 0.000000 -0.015991
#
#
# Mechanical properties :
#
#
# Convention : Reuss Voigt Hill
#
# Bulk Modulus (GPa) = 92.58572 104.24916 98.41744
# Shear Modulus (GPa) = 97.45729 41.23209 69.34469
#
# Velocity S-wave (km/s) = 6.74323 4.38610 5.68810
# Velocity P-wave (km/s) = 10.18952 8.61920 9.43708
#
# Compressibility (1/GPa) = 0.01080080
#
# Stress axis : x y z
#
# Youngs Moduli (GPa) = 116.69914 168.26281 185.78593
#
# Poissons Ratio (x) = 0.24567 0.16805
# Poissons Ratio (y) = 0.17039 0.40545
# Poissons Ratio (z) = 0.10556 0.36721
#
# Static dielectric constant tensor:
#      x y z
#    x 1.813490 0.000000 0.000000 
#    y 0.000000 1.792810 0.000000 
#    z 0.000000 0.000000 1.768270 
# 
# From -- ./inp_files/77556.got.cif
#   From: 2010.05.17/outbox.cif.g08.bks.cpg/sg65_39_cif.got.tgz:77556.got - 2010.06.03 17:01:31.
