data_PCOD9485002
_publ_section_title
;
Structure prediction by ZEFSAII (Michael W. Deem and Ramdas Pophale) SiO2 
 PCOD9485002
Probable space group: C M M M
;
_chemical_formula_sum "Si O2"
_cell_formula_units_Z 88
_cell_length_a 7.343336
_cell_length_b 18.566655
_cell_length_c 29.922682
_cell_angle_alpha 90.000000
_cell_angle_beta 90.000000
_cell_angle_gamma 90.000000
_cell_volume 4079.693954
_symmetry_space_group_name_H-M "C M M M"
_symmetry_group_IT_number 65
_symmetry_cell_setting 'orthorhombic'
loop_
_space_group_symop_operation_xyz
x,y,z
-x,-y,z
x,-y,-z
-x,y,-z
-x,-y,-z
x,y,-z
-x,y,z
x,-y,z
1/2+x,1/2+y,z
1/2-x,1/2-y,z
1/2+x,1/2-y,-z
1/2-x,1/2+y,-z
1/2-x,1/2-y,-z
1/2+x,1/2+y,-z
1/2-x,1/2+y,z
1/2+x,1/2-y,z
loop_
_atom_site_type_symbol
_atom_site_label
_atom_site_fract_x
_atom_site_fract_y
_atom_site_fract_z
Si Si1 0.278317 0.916326 0.450186
Si Si2 0.222698 0.583336 0.274076
Si Si3 0.777312 0.583913 0.097399
Si Si4 0.717163 0.834706 0.637300
Si Si5 0.213254 0.587506 0.000000
Si Si6 0.282935 0.834787 0.185409
O O1 0.219379 0.893824 0.500000
O O2 0.500000 0.914434 0.450420
O O3 0.213522 0.868041 0.409156
O O4 0.227491 0.000000 0.443499
O O5 0.276709 0.500000 0.273838
O O6 0.284817 0.623765 0.318849
O O7 0.284791 0.624450 0.229540
O O8 0.000000 0.584792 0.274090
O O9 0.726781 0.500000 0.103469
O O10 0.713177 0.609856 0.048395
O O11 0.714643 0.630857 0.139190
O O12 0.000000 0.585230 0.096177
O O13 0.500000 0.845694 0.636803
O O14 0.750000 0.750000 0.640447
O O15 0.223177 0.500000 0.000000
O O16 0.000000 0.607112 0.000000
O O17 0.500000 0.845882 0.184916
O O18 0.250000 0.750000 0.187982
#
# Coordination Sequence:
#
# PCOD9485002 Si02
#       6
#    16  16  16  16   8  16
#     4   8  14  26  45  67  88 113 150 190 218 244
#     4   9  17  30  49  69  85 108 148 189 216 245
#     4   8  13  23  41  63  84 109 144 182 215 247
#     4  10  19  30  46  68  93 118 143 176 219 263
#     4   7  10  18  35  60  85 105 134 181 222 244
#     4  10  19  30  45  65  90 116 141 174 216 260
#
# _framework density 21.570243999999999
#
# number of rings (size 3 to 8) (size 9 to 14) (size 15 to 20)
#    0.000    3.182    0.000    3.273    0.000    4.727 
#    0.000    0.455    0.000    5.455    0.000    1.273 
#    0.000    2.182    0.000    0.000    0.000    0.000 
#
# Total GULP energy -245608.081142 kJ/mol
# GULP energy per Si atom -5582.001844 kJ/mol
# Density = 2.152115 g / cm^3
# Si number density = 21.570244 Si / 1000 Ang^3
#
#
#
# Elastic Constant Matrix: (Units=GPa)
#
#
# Indices 1 2 3 4 5 6 
#
# 1 81.6949 -3.3150 13.0803 0.0000 0.0000 0.0000
# 2 -3.3150 157.5960 151.4163 0.0000 0.0000 0.0000
# 3 13.0803 151.4163 283.1842 0.0000 0.0000 0.0000
# 4 0.0000 0.0000 0.0000 -5.2715 0.0000 0.0000
# 5 0.0000 0.0000 0.0000 0.0000 118.2980 0.0000
# 6 0.0000 0.0000 0.0000 0.0000 0.0000 12.2676
#
#
#
# Elastic Compliance Matrix: (Units=1/GPa)
#
#
# Indices 1 2 3 4 5 6 
#
# 1 0.012546 0.001688 -0.001482 0.000000 0.000000 0.000000
# 2 0.001688 0.013276 -0.007176 0.000000 0.000000 0.000000
# 3 -0.001482 -0.007176 0.007437 0.000000 0.000000 0.000000
# 4 0.000000 0.000000 0.000000 -0.189700 0.000000 0.000000
# 5 0.000000 0.000000 0.000000 0.000000 0.008453 0.000000
# 6 0.000000 0.000000 0.000000 0.000000 0.000000 0.081515
#
#
# Mechanical properties :
#
#
# Convention : Reuss Voigt Hill
#
# Bulk Modulus (GPa) = 51.76541 93.87091 72.81816
# Shear Modulus (GPa) = -108.48090 49.14506 -29.66792
#
# Velocity S-wave (km/s) = -7.09937 4.77841 -3.71267
# Velocity P-wave (km/s) = 6.56893 8.60566 3.93107
#
# Compressibility (1/GPa) = 0.01931792
#
# Stress axis : x y z
#
# Youngs Moduli (GPa) = 79.70393 75.32436 134.46413
#
# Poissons Ratio (x) = -0.12713 0.19927
# Poissons Ratio (y) = -0.13452 0.96498
# Poissons Ratio (z) = 0.11812 0.54056
#
# Static dielectric constant tensor:
#      x y z
#    x 1.873880 0.000000 0.000000 
#    y 0.000000 1.707000 0.000000 
#    z 0.000000 0.000000 1.788220 
# 
# From -- ./inp_files/74230.got.cif
#   From: 2010.05.17/outbox.cif.g08.bks.cpg/sg65_38_cif.got.tgz:74230.got - 2010.06.03 17:01:31.
