data_PCOD9485836
_publ_section_title
;
Structure prediction by ZEFSAII (Michael W. Deem and Ramdas Pophale) SiO2 
 PCOD9485836
Probable space group: C M M M
;
_chemical_formula_sum "Si O2"
_cell_formula_units_Z 88
_cell_length_a 8.558284
_cell_length_b 28.148249
_cell_length_c 21.855269
_cell_angle_alpha 90.000000
_cell_angle_beta 90.000000
_cell_angle_gamma 90.000000
_cell_volume 5264.949798
_symmetry_space_group_name_H-M "C M M M"
_symmetry_group_IT_number 65
_symmetry_cell_setting 'orthorhombic'
loop_
_space_group_symop_operation_xyz
x,y,z
-x,-y,z
x,-y,-z
-x,y,-z
-x,-y,-z
x,y,-z
-x,y,z
x,-y,z
1/2+x,1/2+y,z
1/2-x,1/2-y,z
1/2+x,1/2-y,-z
1/2-x,1/2+y,-z
1/2-x,1/2-y,-z
1/2+x,1/2+y,-z
1/2-x,1/2+y,z
1/2+x,1/2-y,z
loop_
_atom_site_type_symbol
_atom_site_label
_atom_site_fract_x
_atom_site_fract_y
_atom_site_fract_z
Si Si1 0.812829 0.803462 0.068929
Si Si2 0.190845 0.555163 0.500000
Si Si3 0.812396 0.648249 0.811198
Si Si4 0.310123 0.052937 0.748623
Si Si5 0.686087 0.302242 0.310161
Si Si6 0.811013 0.606053 0.624953
O O1 0.750000 0.750000 0.076964
O O2 0.745695 0.835048 0.123184
O O3 0.000000 0.802643 0.072754
O O4 0.768229 0.818995 0.000000
O O5 0.241391 0.500000 0.500000
O O6 0.239517 0.583309 0.439080
O O7 0.000000 0.554334 0.500000
O O8 0.761310 0.594609 0.794587
O O9 0.748022 0.681417 0.756647
O O10 0.000000 0.650510 0.808732
O O11 0.500000 0.051535 0.750250
O O12 0.267527 0.070892 0.680732
O O13 0.251954 0.000000 0.761148
O O14 0.500000 0.301355 0.308928
O O15 0.750000 0.250000 0.324526
O O16 0.743903 0.342546 0.357484
O O17 0.000000 0.609792 0.624765
#
# Coordination Sequence:
#
# PCOD9485836 Si02
#       6
#    16   8  16  16  16  16
#     4  10  20  33  49  70  98 130 162 196 236 284
#     4   9  16  28  52  81 104 129 162 201 242 287
#     4  10  19  31  50  75 100 126 159 199 241 285
#     4   8  14  26  46  71  97 124 156 196 237 276
#     4  11  21  34  51  70  96 128 163 201 243 289
#     4   9  17  30  49  75 102 127 160 199 240 286
#
# _framework density 16.714309
#
# number of rings (size 3 to 8) (size 9 to 14) (size 15 to 20)
#    0.000    2.455    0.000    4.909    0.000    3.273 
#    0.000    0.909    0.000   19.636    0.000    3.818 
#    0.000    0.000    0.000    0.000    0.000    0.000 
#
# Total GULP energy -245405.033815 kJ/mol
# GULP energy per Si atom -5577.387132 kJ/mol
# Density = 1.667627 g / cm^3
# Si number density = 16.714309 Si / 1000 Ang^3
#
#
#
# Elastic Constant Matrix: (Units=GPa)
#
#
# Indices 1 2 3 4 5 6 
#
# 1 52.4464 36.4741 38.6320 0.0000 0.0000 0.0000
# 2 36.4741 154.7361 95.8700 0.0000 0.0000 0.0000
# 3 38.6320 95.8700 156.3235 0.0000 0.0000 0.0000
# 4 0.0000 0.0000 0.0000 18.3993 0.0000 0.0000
# 5 0.0000 0.0000 0.0000 0.0000 21.5635 0.0000
# 6 0.0000 0.0000 0.0000 0.0000 0.0000 19.7508
#
#
#
# Elastic Compliance Matrix: (Units=1/GPa)
#
#
# Indices 1 2 3 4 5 6 
#
# 1 0.024274 -0.003234 -0.004015 0.000000 0.000000 0.000000
# 2 -0.003234 0.010854 -0.005857 0.000000 0.000000 0.000000
# 3 -0.004015 -0.005857 0.010981 0.000000 0.000000 0.000000
# 4 0.000000 0.000000 0.000000 0.054350 0.000000 0.000000
# 5 0.000000 0.000000 0.000000 0.000000 0.046375 0.000000
# 6 0.000000 0.000000 0.000000 0.000000 0.000000 0.050631
#
#
# Mechanical properties :
#
#
# Convention : Reuss Voigt Hill
#
# Bulk Modulus (GPa) = 50.26150 78.38425 64.32288
# Shear Modulus (GPa) = 21.70986 24.77805 23.24395
#
# Velocity S-wave (km/s) = 3.60791 3.85443 3.73320
# Velocity P-wave (km/s) = 6.89146 8.17356 7.55974
#
# Compressibility (1/GPa) = 0.01989594
#
# Stress axis : x y z
#
# Youngs Moduli (GPa) = 41.19640 92.13257 91.06234
#
# Poissons Ratio (x) = 0.29795 0.36566
# Poissons Ratio (y) = 0.13323 0.53338
# Poissons Ratio (z) = 0.16542 0.53965
#
# Static dielectric constant tensor:
#      x y z
#    x 1.571220 0.000000 0.000000 
#    y 0.000000 1.556990 0.000000 
#    z 0.000000 0.000000 1.550240 
# 
# From -- ./inp_files/59811.got.cif
#   From: 2010.05.17/outbox.cif.g08.bks.cpg/sg65_30_cif.got.tgz:59811.got - 2010.06.03 17:01:31.
