data_PCOD9485279
_publ_section_title
;
Structure prediction by ZEFSAII (Michael W. Deem and Ramdas Pophale) SiO2 
 PCOD9485279
Probable space group: C M M M
;
_chemical_formula_sum "Si O2"
_cell_formula_units_Z 96
_cell_length_a 21.311024
_cell_length_b 14.570293
_cell_length_c 14.718288
_cell_angle_alpha 90.000000
_cell_angle_beta 90.000000
_cell_angle_gamma 90.000000
_cell_volume 4570.144166
_symmetry_space_group_name_H-M "C M M M"
_symmetry_group_IT_number 65
_symmetry_cell_setting 'orthorhombic'
loop_
_space_group_symop_operation_xyz
x,y,z
-x,-y,z
x,-y,-z
-x,y,-z
-x,-y,-z
x,y,-z
-x,y,z
x,-y,z
1/2+x,1/2+y,z
1/2-x,1/2-y,z
1/2+x,1/2-y,-z
1/2-x,1/2+y,-z
1/2-x,1/2-y,-z
1/2+x,1/2+y,-z
1/2-x,1/2+y,z
1/2+x,1/2-y,z
loop_
_atom_site_type_symbol
_atom_site_label
_atom_site_fract_x
_atom_site_fract_y
_atom_site_fract_z
Si Si1 0.071015 0.111381 0.697038
Si Si2 0.339429 0.895233 0.748483
Si Si3 0.758902 0.859191 0.100349
Si Si4 0.325648 0.255607 0.607855
Si Si5 0.407067 0.392323 0.901149
Si Si6 0.072301 0.611793 0.902252
O O1 0.129815 0.164242 0.650212
O O2 0.069574 0.140154 0.803471
O O3 0.000000 0.130146 0.659905
O O4 0.080584 0.000000 0.692352
O O5 0.276146 0.894170 0.809628
O O6 0.344574 0.837268 0.658306
O O7 0.387781 0.852494 0.820259
O O8 0.354718 0.000000 0.728693
O O9 0.750000 0.750000 0.101657
O O10 0.831852 0.883020 0.103827
O O11 0.736116 0.892434 0.000000
O O12 0.334328 0.256912 0.500000
O O13 0.250000 0.250000 0.625285
O O14 0.423236 0.500000 0.903977
O O15 0.426709 0.353037 0.000000
O O16 0.076293 0.500000 0.900943
O O17 0.000000 0.635706 0.894494
O O18 0.096326 0.642563 0.000000
#
# Coordination Sequence:
#
# PCOD9485279 Si02
#       6
#    16  16  16  16  16  16
#     4  10  22  42  70 101 130 165 212 265 323 387
#     4  11  21  34  57  85 115 156 205 253 305 372
#     4  10  19  30  48  79 121 166 210 255 304 363
#     4  11  26  46  65  88 120 158 206 268 335 396
#     4   9  17  30  51  83 124 163 195 234 291 363
#     4   8  15  29  49  76 112 151 190 232 277 332
#
# _framework density 21.005901999999999
#
# number of rings (size 3 to 8) (size 9 to 14) (size 15 to 20)
#    0.000    2.167    0.000    4.000    0.000    5.667 
#    0.000    5.000    0.000    0.000    0.000    3.500 
#    0.000    0.000    0.000    0.000    0.000    0.000 
#
# Total GULP energy -267696.020158 kJ/mol
# GULP energy per Si atom -5577.000420 kJ/mol
# Density = 2.095809 g / cm^3
# Si number density = 21.005902 Si / 1000 Ang^3
#
#
#
# Elastic Constant Matrix: (Units=GPa)
#
#
# Indices 1 2 3 4 5 6 
#
# 1 130.8160 29.2442 49.8061 0.0000 0.0000 0.0000
# 2 29.2442 105.0529 39.6231 0.0000 0.0000 0.0000
# 3 49.8061 39.6231 100.2254 0.0000 0.0000 0.0000
# 4 0.0000 0.0000 0.0000 57.4830 0.0000 0.0000
# 5 0.0000 0.0000 0.0000 0.0000 21.2601 0.0000
# 6 0.0000 0.0000 0.0000 0.0000 0.0000 14.6158
#
#
#
# Elastic Compliance Matrix: (Units=1/GPa)
#
#
# Indices 1 2 3 4 5 6 
#
# 1 0.009520 -0.001017 -0.004329 0.000000 0.000000 0.000000
# 2 -0.001017 0.011296 -0.003960 0.000000 0.000000 0.000000
# 3 -0.004329 -0.003960 0.013694 0.000000 0.000000 0.000000
# 4 0.000000 0.000000 0.000000 0.017396 0.000000 0.000000
# 5 0.000000 0.000000 0.000000 0.000000 0.047036 0.000000
# 6 0.000000 0.000000 0.000000 0.000000 0.000000 0.068419
#
#
# Mechanical properties :
#
#
# Convention : Reuss Voigt Hill
#
# Bulk Modulus (GPa) = 62.90253 63.71569 63.30911
# Shear Modulus (GPa) = 26.14063 33.16651 29.65357
#
# Velocity S-wave (km/s) = 3.53149 3.97787 3.76131
# Velocity P-wave (km/s) = 6.82926 7.17607 7.00481
#
# Compressibility (1/GPa) = 0.01589761
#
# Stress axis : x y z
#
# Youngs Moduli (GPa) = 105.04412 88.52779 73.02404
#
# Poissons Ratio (x) = 0.09008 0.31609
# Poissons Ratio (y) = 0.10688 0.28918
# Poissons Ratio (z) = 0.45469 0.35058
#
# Static dielectric constant tensor:
#      x y z
#    x 1.812500 0.000000 0.000000 
#    y 0.000000 1.788640 0.000000 
#    z 0.000000 0.000000 1.744580 
# 
# From -- ./inp_files/44124.got.cif
#   From: 2010.05.17/outbox.cif.g08.bks.cpg/sg65_23_cif.got.tgz:44124.got - 2010.06.03 17:01:31.
