data_PCOD9485411
_publ_section_title
;
Structure prediction by ZEFSAII (Michael W. Deem and Ramdas Pophale) SiO2 
 PCOD9485411
Probable space group: C M M M
;
_chemical_formula_sum "Si O2"
_cell_formula_units_Z 80
_cell_length_a 24.234450
_cell_length_b 26.364938
_cell_length_c 8.866040
_cell_angle_alpha 90.000000
_cell_angle_beta 90.000000
_cell_angle_gamma 90.000000
_cell_volume 5664.865574
_symmetry_space_group_name_H-M "C M M M"
_symmetry_group_IT_number 65
_symmetry_cell_setting 'orthorhombic'
loop_
_space_group_symop_operation_xyz
x,y,z
-x,-y,z
x,-y,-z
-x,y,-z
-x,-y,-z
x,y,-z
-x,y,z
x,-y,z
1/2+x,1/2+y,z
1/2-x,1/2-y,z
1/2+x,1/2-y,-z
1/2-x,1/2+y,-z
1/2-x,1/2-y,-z
1/2+x,1/2+y,-z
1/2-x,1/2+y,z
1/2+x,1/2-y,z
loop_
_atom_site_type_symbol
_atom_site_label
_atom_site_fract_x
_atom_site_fract_y
_atom_site_fract_z
Si Si1 0.612404 0.940500 0.180136
Si Si2 0.500000 0.897185 0.680032
Si Si3 0.616435 0.758133 0.818290
Si Si4 0.318116 0.146288 0.320954
Si Si5 0.500000 0.775950 0.320088
Si Si6 0.281641 0.695683 0.173489
O O1 0.554434 0.921596 0.248357
O O2 0.659737 0.905915 0.252613
O O3 0.619638 0.000000 0.211574
O O4 0.611562 0.933076 0.000000
O O5 0.500000 0.904944 0.500000
O O6 0.500000 0.836744 0.708383
O O7 0.644126 0.808866 0.749675
O O8 0.555327 0.753976 0.753533
O O9 0.656702 0.711057 0.778806
O O10 0.616284 0.762658 0.000000
O O11 0.324751 0.146882 0.500000
O O12 0.255396 0.159072 0.274189
O O13 0.500000 0.768531 0.500000
O O14 0.250000 0.750000 0.174530
O O15 0.281687 0.677784 0.000000
#
# Coordination Sequence:
#
# PCOD9485411 Si02
#       6
#    16   8  16  16   8  16
#     4  11  23  36  49  63  81 112 152 190 227 266
#     4  11  22  34  47  64  85 112 146 189 235 267
#     4  10  19  31  47  64  85 115 147 178 214 259
#     4  11  20  30  46  66  86 110 140 180 227 265
#     4  11  21  30  44  67  91 116 146 184 227 261
#     4   8  16  30  46  64  84 109 141 175 213 259
#
# _framework density 14.122135999999999
#
# number of rings (size 3 to 8) (size 9 to 14) (size 15 to 20)
#    0.000    1.800    2.000    5.100    0.000    8.000 
#    0.000    0.000    0.000    0.000    0.000    0.000 
#    0.000    0.000    0.000    0.900    0.000   17.400 
#
# Total GULP energy -223198.683058 kJ/mol
# GULP energy per Si atom -5579.967076 kJ/mol
# Density = 1.408999 g / cm^3
# Si number density = 14.122136 Si / 1000 Ang^3
#
#
#
# Elastic Constant Matrix: (Units=GPa)
#
#
# Indices 1 2 3 4 5 6 
#
# 1 126.3920 56.6225 60.0337 0.0000 0.0000 0.0000
# 2 56.6225 56.8261 45.5306 0.0000 0.0000 0.0000
# 3 60.0337 45.5306 77.6405 0.0000 0.0000 0.0000
# 4 0.0000 0.0000 0.0000 5.9149 0.0000 0.0000
# 5 0.0000 0.0000 0.0000 0.0000 -0.5080 0.0000
# 6 0.0000 0.0000 0.0000 0.0000 0.0000 10.1948
#
#
#
# Elastic Compliance Matrix: (Units=1/GPa)
#
#
# Indices 1 2 3 4 5 6 
#
# 1 0.015445 -0.010980 -0.005503 0.000000 0.000000 0.000000
# 2 -0.010980 0.041000 -0.015554 0.000000 0.000000 0.000000
# 3 -0.005503 -0.015554 0.026256 0.000000 0.000000 0.000000
# 4 0.000000 0.000000 0.000000 0.169066 0.000000 0.000000
# 5 0.000000 0.000000 0.000000 0.000000 -1.968453 0.000000
# 6 0.000000 0.000000 0.000000 0.000000 0.000000 0.098090
#
#
# Mechanical properties :
#
#
# Convention : Reuss Voigt Hill
#
# Bulk Modulus (GPa) = 53.68460 65.02581 59.35521
# Shear Modulus (GPa) = -3.22932 9.69844 3.23456
#
# Velocity S-wave (km/s) = -1.51383 2.62344 1.51505
# Velocity P-wave (km/s) = 5.91958 7.43787 6.72173
#
# Compressibility (1/GPa) = 0.01862732
#
# Stress axis : x y z
#
# Youngs Moduli (GPa) = 64.74647 24.39006 38.08610
#
# Poissons Ratio (x) = 0.26781 0.20960
# Poissons Ratio (y) = 0.71092 0.59238
# Poissons Ratio (z) = 0.35632 0.37935
#
# Static dielectric constant tensor:
#      x y z
#    x 1.479570 0.000000 0.000000 
#    y 0.000000 1.441050 0.000000 
#    z 0.000000 0.000000 1.468300 
# 
# From -- ./inp_files/12116.got.cif
#   From: 2010.05.17/outbox.cif.g08.bks.cpg/sg65_7_cif.got.tgz:12116.got - 2010.06.03 17:01:31.
