data_PCOD9485536
_publ_section_title
;
Structure prediction by ZEFSAII (Michael W. Deem and Ramdas Pophale) SiO2 
 PCOD9485536
Probable space group: C M M M
;
_chemical_formula_sum "Si O2"
_cell_formula_units_Z 112
_cell_length_a 32.023991
_cell_length_b 21.316463
_cell_length_c 7.462235
_cell_angle_alpha 90.000000
_cell_angle_beta 90.000000
_cell_angle_gamma 90.000000
_cell_volume 5094.006812
_symmetry_space_group_name_H-M "C M M M"
_symmetry_group_IT_number 65
_symmetry_cell_setting 'orthorhombic'
loop_
_space_group_symop_operation_xyz
x,y,z
-x,-y,z
x,-y,-z
-x,y,-z
-x,-y,-z
x,y,-z
-x,y,z
x,-y,z
1/2+x,1/2+y,z
1/2-x,1/2-y,z
1/2+x,1/2-y,-z
1/2-x,1/2+y,-z
1/2-x,1/2-y,-z
1/2+x,1/2+y,-z
1/2-x,1/2+y,z
1/2+x,1/2-y,z
loop_
_atom_site_type_symbol
_atom_site_label
_atom_site_fract_x
_atom_site_fract_y
_atom_site_fract_z
Si Si1 0.046944 0.322238 0.780668
Si Si2 0.710973 0.612173 0.716125
Si Si3 0.587725 0.300859 0.792632
Si Si4 0.198812 0.386886 0.716617
Si Si5 0.881580 0.068294 0.788604
Si Si6 0.392894 0.931746 0.788782
Si Si7 0.320436 0.253873 0.283091
O O1 0.057408 0.251963 0.715548
O O2 0.081000 0.372779 0.716676
O O3 0.000000 0.340772 0.733040
O O4 0.049373 0.319843 0.000000
O O5 0.710304 0.609061 0.500000
O O6 0.756088 0.587888 0.777191
O O7 0.668358 0.579416 0.775380
O O8 0.706893 0.685705 0.767682
O O9 0.595381 0.370024 0.712619
O O10 0.633269 0.268299 0.785918
O O11 0.575630 0.310021 0.000000
O O12 0.199339 0.387600 0.500000
O O13 0.156608 0.421126 0.771247
O O14 0.194494 0.314264 0.775177
O O15 0.891920 0.000000 0.712263
O O16 0.891036 0.066941 0.000000
O O17 0.403925 0.000000 0.712672
O O18 0.402354 0.933482 0.000000
O O19 0.321834 0.253110 0.500000
#
# Coordination Sequence:
#
# PCOD9485536 Si02
#       7
#    16  16  16  16  16  16  16
#     4   9  17  31  53  77  96 116 149 194 237 280
#     4   9  18  30  45  68  95 126 166 203 233 269
#     4   9  16  29  50  72  94 121 154 191 232 278
#     4  10  19  31  48  68  95 129 161 197 239 279
#     4   9  18  31  46  67  97 130 160 192 232 274
#     4  10  21  35  50  70  96 125 157 194 236 281
#     4   9  16  28  47  69  94 123 157 198 239 275
#
# _framework density 21.986622000000001
#
# number of rings (size 3 to 8) (size 9 to 14) (size 15 to 20)
#    0.000    2.714    1.429    0.429    0.000    3.714 
#    0.000    4.286    0.000    6.429    0.000    4.000 
#    0.000    0.000    0.000    7.143    0.000    7.429 
#
# Total GULP energy -312424.649847 kJ/mol
# GULP energy per Si atom -5579.011604 kJ/mol
# Density = 2.193658 g / cm^3
# Si number density = 21.986622 Si / 1000 Ang^3
#
#
#
# Elastic Constant Matrix: (Units=GPa)
#
#
# Indices 1 2 3 4 5 6 
#
# 1 66.8562 34.5160 -2.4293 0.0000 0.0000 0.0000
# 2 34.5160 140.2333 10.5552 0.0000 0.0000 0.0000
# 3 -2.4293 10.5552 63.1922 0.0000 0.0000 0.0000
# 4 0.0000 0.0000 0.0000 3.2374 0.0000 0.0000
# 5 0.0000 0.0000 0.0000 0.0000 10.6376 0.0000
# 6 0.0000 0.0000 0.0000 0.0000 0.0000 -2.5233
#
#
#
# Elastic Compliance Matrix: (Units=1/GPa)
#
#
# Indices 1 2 3 4 5 6 
#
# 1 0.017255 -0.004352 0.001390 0.000000 0.000000 0.000000
# 2 -0.004352 0.008319 -0.001557 0.000000 0.000000 0.000000
# 3 0.001390 -0.001557 0.016138 0.000000 0.000000 0.000000
# 4 0.000000 0.000000 0.000000 0.308886 0.000000 0.000000
# 5 0.000000 0.000000 0.000000 0.000000 0.094006 0.000000
# 6 0.000000 0.000000 0.000000 0.000000 0.000000 -0.396311
#
#
# Mechanical properties :
#
#
# Convention : Reuss Voigt Hill
#
# Bulk Modulus (GPa) = 30.60398 39.50729 35.05563
# Shear Modulus (GPa) = 73.29115 17.44634 45.36875
#
# Velocity S-wave (km/s) = 5.77986 2.81997 4.54747
# Velocity P-wave (km/s) = 7.64800 5.34890 6.59935
#
# Compressibility (1/GPa) = 0.03267549
#
# Stress axis : x y z
#
# Youngs Moduli (GPa) = 57.95568 120.20359 61.96466
#
# Poissons Ratio (x) = 0.52307 -0.08614
# Poissons Ratio (y) = 0.25220 0.09647
# Poissons Ratio (z) = -0.08057 0.18714
#
# Static dielectric constant tensor:
#      x y z
#    x 1.768600 0.000000 0.000000 
#    y 0.000000 1.838350 0.000000 
#    z 0.000000 0.000000 1.858820 
# 
# From -- ./inp_files/32769.got.cif
#   From: 2010.05.17/outbox.cif.g08.bks.cpg/sg65_17_cif.got.tgz:32769.got - 2010.06.03 17:01:31.
