data_PCOD9485212
_publ_section_title
;
Structure prediction by ZEFSAII (Michael W. Deem and Ramdas Pophale) SiO2 
 PCOD9485212
Probable space group: C M M M
;
_chemical_formula_sum "Si O2"
_cell_formula_units_Z 96
_cell_length_a 30.666528
_cell_length_b 19.944169
_cell_length_c 7.464525
_cell_angle_alpha 90.000000
_cell_angle_beta 90.000000
_cell_angle_gamma 90.000000
_cell_volume 4565.440965
_symmetry_space_group_name_H-M "C M M M"
_symmetry_group_IT_number 65
_symmetry_cell_setting 'orthorhombic'
loop_
_space_group_symop_operation_xyz
x,y,z
-x,-y,z
x,-y,-z
-x,y,-z
-x,-y,-z
x,y,-z
-x,y,z
x,-y,z
1/2+x,1/2+y,z
1/2-x,1/2-y,z
1/2+x,1/2-y,-z
1/2-x,1/2+y,-z
1/2-x,1/2-y,-z
1/2+x,1/2+y,-z
1/2-x,1/2+y,z
1/2+x,1/2-y,z
loop_
_atom_site_type_symbol
_atom_site_label
_atom_site_fract_x
_atom_site_fract_y
_atom_site_fract_z
Si Si1 0.450065 0.072141 0.718399
Si Si2 0.450318 0.422070 0.281589
Si Si3 0.618394 0.825716 0.714607
Si Si4 0.698969 0.075941 0.214670
Si Si5 0.770294 0.178147 0.784991
Si Si6 0.127749 0.175504 0.714564
O O1 0.449477 0.073112 0.500000
O O2 0.500000 0.074792 0.773548
O O3 0.423015 0.134261 0.784535
O O4 0.431037 0.000000 0.773020
O O5 0.450192 0.420805 0.500000
O O6 0.500000 0.401634 0.227673
O O7 0.444132 0.500000 0.228794
O O8 0.409875 0.375600 0.220002
O O9 0.614663 0.819727 0.500000
O O10 0.659106 0.874074 0.748563
O O11 0.621410 0.750935 0.786214
O O12 0.741108 0.116380 0.281879
O O13 0.693662 0.000000 0.284103
O O14 0.702595 0.070818 0.000000
O O15 0.750000 0.250000 0.719759
O O16 0.820889 0.163536 0.746308
O O17 0.766121 0.180842 0.000000
O O18 0.122416 0.176222 0.500000
#
# Coordination Sequence:
#
# PCOD9485212 Si02
#       6
#    16  16  16  16  16  16
#     4   8  14  25  41  62  90 123 155 188 231 282
#     4   8  15  30  51  75 107 144 176 209 256 313
#     4  10  19  30  47  73 102 128 158 202 252 296
#     4  10  21  36  53  72  94 126 169 207 242 296
#     4  10  20  36  54  70  95 135 171 203 254 313
#     4  10  20  31  50  80 105 129 167 213 254 296
#
# _framework density 21.027540999999999
#
# number of rings (size 3 to 8) (size 9 to 14) (size 15 to 20)
#    0.000    2.667    1.667    1.500    0.000    3.333 
#    0.000    3.333    0.000    1.000    0.000    5.833 
#    0.000    0.000    0.000    0.000    0.000    0.000 
#
# Total GULP energy -267662.581027 kJ/mol
# GULP energy per Si atom -5576.303771 kJ/mol
# Density = 2.097968 g / cm^3
# Si number density = 21.027541 Si / 1000 Ang^3
#
#
#
# Elastic Constant Matrix: (Units=GPa)
#
#
# Indices 1 2 3 4 5 6 
#
# 1 160.8787 103.4279 -5.0007 0.0000 0.0000 0.0000
# 2 103.4279 160.3001 5.3050 0.0000 0.0000 0.0000
# 3 -5.0007 5.3050 63.6634 0.0000 0.0000 0.0000
# 4 0.0000 0.0000 0.0000 4.5619 0.0000 0.0000
# 5 0.0000 0.0000 0.0000 0.0000 36.7103 0.0000
# 6 0.0000 0.0000 0.0000 0.0000 0.0000 44.2434
#
#
#
# Elastic Compliance Matrix: (Units=1/GPa)
#
#
# Indices 1 2 3 4 5 6 
#
# 1 0.010749 -0.006983 0.001426 0.000000 0.000000 0.000000
# 2 -0.006983 0.010792 -0.001448 0.000000 0.000000 0.000000
# 3 0.001426 -0.001448 0.015940 0.000000 0.000000 0.000000
# 4 0.000000 0.000000 0.000000 0.219209 0.000000 0.000000
# 5 0.000000 0.000000 0.000000 0.000000 0.027240 0.000000
# 6 0.000000 0.000000 0.000000 0.000000 0.000000 0.022602
#
#
# Mechanical properties :
#
#
# Convention : Reuss Voigt Hill
#
# Bulk Modulus (GPa) = 42.60291 65.81185 54.20738
# Shear Modulus (GPa) = 15.22691 35.84379 25.53535
#
# Velocity S-wave (km/s) = 2.69391 4.13317 3.48857
# Velocity P-wave (km/s) = 5.47546 7.35822 6.48552
#
# Compressibility (1/GPa) = 0.02347258
#
# Stress axis : x y z
#
# Youngs Moduli (GPa) = 93.02795 92.66401 62.73413
#
# Poissons Ratio (x) = 0.64706 -0.08947
# Poissons Ratio (y) = 0.64960 0.09082
# Poissons Ratio (z) = -0.13268 0.13416
#
# Static dielectric constant tensor:
#      x y z
#    x 1.752630 0.000000 0.000000 
#    y 0.000000 1.760850 0.000000 
#    z 0.000000 0.000000 1.816610 
# 
# From -- ./inp_files/12246.got.cif
#   From: 2010.05.17/outbox.cif.g08.bks.cpg/sg65_7_cif.got.tgz:12246.got - 2010.06.03 17:01:31.
