data_PCOD9485698
_publ_section_title
;
Structure prediction by ZEFSAII (Michael W. Deem and Ramdas Pophale) SiO2 
 PCOD9485698
Probable space group: C M M M
;
_chemical_formula_sum "Si O2"
_cell_formula_units_Z 88
_cell_length_a 18.799081
_cell_length_b 7.752297
_cell_length_c 29.742687
_cell_angle_alpha 90.000000
_cell_angle_beta 90.000000
_cell_angle_gamma 90.000000
_cell_volume 4334.581995
_symmetry_space_group_name_H-M "C M M M"
_symmetry_group_IT_number 65
_symmetry_cell_setting 'orthorhombic'
loop_
_space_group_symop_operation_xyz
x,y,z
-x,-y,z
x,-y,-z
-x,y,-z
-x,-y,-z
x,y,-z
-x,y,z
x,-y,z
1/2+x,1/2+y,z
1/2-x,1/2-y,z
1/2+x,1/2-y,-z
1/2-x,1/2+y,-z
1/2-x,1/2-y,-z
1/2+x,1/2+y,-z
1/2-x,1/2+y,z
1/2+x,1/2-y,z
loop_
_atom_site_type_symbol
_atom_site_label
_atom_site_fract_x
_atom_site_fract_y
_atom_site_fract_z
Si Si1 0.667116 0.204724 0.451187
Si Si2 0.166641 0.792559 0.000000
Si Si3 0.419894 0.706033 0.636839
Si Si4 0.667037 0.707629 0.176955
Si Si5 0.583203 0.289606 0.264070
Si Si6 0.082477 0.788687 0.911437
O O1 0.641836 0.274917 0.500000
O O2 0.750000 0.250000 0.447301
O O3 0.626531 0.260866 0.406778
O O4 0.660477 0.000000 0.452949
O O5 0.250000 0.750000 0.000000
O O6 0.126184 0.730828 0.955254
O O7 0.161073 0.000000 0.000000
O O8 0.500000 0.773713 0.630110
O O9 0.424505 0.500000 0.641123
O O10 0.393864 0.768478 0.685867
O O11 0.660950 0.500000 0.177264
O O12 0.750000 0.750000 0.173548
O O13 0.631758 0.772738 0.223229
O O14 0.622638 0.768912 0.133708
O O15 0.500000 0.242848 0.257952
O O16 0.585582 0.500000 0.263219
O O17 0.000000 0.735360 0.912607
O O18 0.082631 0.000000 0.911479
#
# Coordination Sequence:
#
# PCOD9485698 Si02
#       6
#    16   8  16  16  16  16
#     4  10  21  36  53  73  99 131 166 204 245 291
#     4  10  19  31  49  73 101 128 158 202 248 290
#     4   9  18  33  53  76 101 129 162 201 245 293
#     4  10  19  31  49  72  98 127 160 200 244 289
#     4   8  15  30  51  72  94 124 163 201 235 279
#     4   9  17  30  50  73  94 124 168 208 239 279
#
# _framework density 20.301843000000002
#
# number of rings (size 3 to 8) (size 9 to 14) (size 15 to 20)
#    0.000    2.727    0.000    3.000    0.000    5.818 
#    0.000    4.545    0.000    5.455    0.000    0.000 
#    0.000    0.000    0.000    0.000    0.000    0.000 
#
# Total GULP energy -245467.714607 kJ/mol
# GULP energy per Si atom -5578.811696 kJ/mol
# Density = 2.025563 g / cm^3
# Si number density = 20.301843 Si / 1000 Ang^3
#
#
#
# Elastic Constant Matrix: (Units=GPa)
#
#
# Indices 1 2 3 4 5 6 
#
# 1 148.8477 -0.5825 138.8137 0.0000 0.0000 0.0000
# 2 -0.5825 26.3486 12.6590 0.0000 0.0000 0.0000
# 3 138.8137 12.6590 258.0558 0.0000 0.0000 0.0000
# 4 0.0000 0.0000 0.0000 -59.7746 0.0000 0.0000
# 5 0.0000 0.0000 0.0000 0.0000 72.4639 0.0000
# 6 0.0000 0.0000 0.0000 0.0000 0.0000 21.4355
#
#
#
# Elastic Compliance Matrix: (Units=1/GPa)
#
#
# Indices 1 2 3 4 5 6 
#
# 1 0.013879 0.003988 -0.007661 0.000000 0.000000 0.000000
# 2 0.003988 0.040014 -0.004108 0.000000 0.000000 0.000000
# 3 -0.007661 -0.004108 0.008198 0.000000 0.000000 0.000000
# 4 0.000000 0.000000 0.000000 -0.016730 0.000000 0.000000
# 5 0.000000 0.000000 0.000000 0.000000 0.013800 0.000000
# 6 0.000000 0.000000 0.000000 0.000000 0.000000 0.046652
#
#
# Mechanical properties :
#
#
# Convention : Reuss Voigt Hill
#
# Bulk Modulus (GPa) = 21.49251 81.67026 51.58139
# Shear Modulus (GPa) = 36.52691 25.64911 31.08801
#
# Velocity S-wave (km/s) = 4.24629 3.55827 3.91742
# Velocity P-wave (km/s) = 5.88649 7.56288 6.77672
#
# Compressibility (1/GPa) = 0.04652783
#
# Stress axis : x y z
#
# Youngs Moduli (GPa) = 72.05307 24.99094 121.98415
#
# Poissons Ratio (x) = -0.09965 0.93455
# Poissons Ratio (y) = -0.28732 0.50110
# Poissons Ratio (z) = 0.55202 0.10266
#
# Static dielectric constant tensor:
#      x y z
#    x 1.666600 0.000000 0.000000 
#    y 0.000000 1.778690 0.000000 
#    z 0.000000 0.000000 1.746720 
# 
# From -- ./inp_files/70970.got.cif
#   From: 2010.05.17/outbox.cif.g08.bks.cpg/sg65_36_cif.got.tgz:70970.got - 2010.06.03 17:01:31.
