data_PCOD9485314
_publ_section_title
;
Structure prediction by ZEFSAII (Michael W. Deem and Ramdas Pophale) SiO2 
 PCOD9485314
Probable space group: C M M M
;
_chemical_formula_sum "Si O2"
_cell_formula_units_Z 88
_cell_length_a 14.613578
_cell_length_b 10.437321
_cell_length_c 25.325667
_cell_angle_alpha 90.000000
_cell_angle_beta 90.000000
_cell_angle_gamma 90.000000
_cell_volume 3862.837995
_symmetry_space_group_name_H-M "C M M M"
_symmetry_group_IT_number 65
_symmetry_cell_setting 'orthorhombic'
loop_
_space_group_symop_operation_xyz
x,y,z
-x,-y,z
x,-y,-z
-x,y,-z
-x,-y,-z
x,y,-z
-x,y,z
x,-y,z
1/2+x,1/2+y,z
1/2-x,1/2-y,z
1/2+x,1/2-y,-z
1/2-x,1/2+y,-z
1/2-x,1/2-y,-z
1/2+x,1/2+y,-z
1/2-x,1/2+y,z
1/2+x,1/2-y,z
loop_
_atom_site_type_symbol
_atom_site_label
_atom_site_fract_x
_atom_site_fract_y
_atom_site_fract_z
Si Si1 0.606499 0.000000 0.870405
Si Si2 0.611713 0.229766 0.059368
Si Si3 0.140445 0.767976 0.702972
Si Si4 0.388730 0.500000 0.106104
Si Si5 0.848211 0.000000 0.771543
Si Si6 0.111955 0.351768 0.500000
Si Si7 0.392046 0.356483 0.415816
Si Si8 0.365892 0.000000 0.253781
O O1 0.644970 0.872497 0.897531
O O2 0.608780 0.000000 0.807665
O O3 0.500000 0.000000 0.885438
O O4 0.500000 0.231031 0.059552
O O5 0.639281 0.372309 0.075525
O O6 0.640210 0.195579 0.000000
O O7 0.250000 0.750000 0.704678
O O8 0.117372 0.822467 0.645638
O O9 0.103388 0.627882 0.716631
O O10 0.110607 0.871060 0.746781
O O11 0.500000 0.500000 0.110171
O O12 0.351806 0.500000 0.165709
O O13 0.744446 0.000000 0.750190
O O14 0.143567 0.500000 0.500000
O O15 0.141526 0.264071 0.450236
O O16 0.000000 0.358640 0.500000
O O17 0.500000 0.365157 0.428063
O O18 0.353145 0.500000 0.426244
#
# Coordination Sequence:
#
# PCOD9485314 Si02
#       8
#     8  16  16   8   8   8  16   8
#     4  10  19  32  50  74  99 131 174 217 259 313
#     4   9  17  30  49  74 102 131 165 210 266 320
#     4  10  21  37  55  77 107 145 184 221 269 327
#     4  10  19  30  52  78 101 129 170 221 261 311
#     4  10  20  37  53  72 105 142 177 213 270 329
#     4   9  19  35  56  85 120 149 177 217 272 327
#     4  10  20  36  59  85 112 145 183 224 269 318
#     4  10  22  35  53  74 103 144 177 219 270 321
#
# _framework density 22.781179000000002
#
# number of rings (size 3 to 8) (size 9 to 14) (size 15 to 20)
#    0.000    2.273    0.909    1.909    1.273    4.727 
#    0.000    0.455    0.000    3.273    0.000    0.000 
#    0.000    0.000    0.000    0.000    0.000    0.000 
#
# Total GULP energy -245858.413122 kJ/mol
# GULP energy per Si atom -5587.691207 kJ/mol
# Density = 2.272933 g / cm^3
# Si number density = 22.781179 Si / 1000 Ang^3
#
#
#
# Elastic Constant Matrix: (Units=GPa)
#
#
# Indices 1 2 3 4 5 6 
#
# 1 67.7187 2.9312 -21.0268 0.0000 0.0000 0.0000
# 2 2.9312 220.9206 63.1182 0.0000 0.0000 0.0000
# 3 -21.0268 63.1182 105.7647 0.0000 0.0000 0.0000
# 4 0.0000 0.0000 0.0000 26.4006 0.0000 0.0000
# 5 0.0000 0.0000 0.0000 0.0000 33.2947 0.0000
# 6 0.0000 0.0000 0.0000 0.0000 0.0000 -18.1732
#
#
#
# Elastic Compliance Matrix: (Units=1/GPa)
#
#
# Indices 1 2 3 4 5 6 
#
# 1 0.016069 -0.001357 0.004005 0.000000 0.000000 0.000000
# 2 -0.001357 0.005572 -0.003595 0.000000 0.000000 0.000000
# 3 0.004005 -0.003595 0.012396 0.000000 0.000000 0.000000
# 4 0.000000 0.000000 0.000000 0.037878 0.000000 0.000000
# 5 0.000000 0.000000 0.000000 0.000000 0.030035 0.000000
# 6 0.000000 0.000000 0.000000 0.000000 0.000000 -0.055026
#
#
# Mechanical properties :
#
#
# Convention : Reuss Voigt Hill
#
# Bulk Modulus (GPa) = 31.11174 53.82769 42.46971
# Shear Modulus (GPa) = 83.98675 31.59650 57.79162
#
# Velocity S-wave (km/s) = 6.07838 3.72823 5.04214
# Velocity P-wave (km/s) = 7.93403 6.49710 7.25124
#
# Compressibility (1/GPa) = 0.03214221
#
# Stress axis : x y z
#
# Youngs Moduli (GPa) = 62.23088 179.48183 80.66820
#
# Poissons Ratio (x) = 0.24362 -0.32305
# Poissons Ratio (y) = 0.08447 0.28999
# Poissons Ratio (z) = -0.24922 0.64521
#
# Static dielectric constant tensor:
#      x y z
#    x 1.906770 0.000000 0.000000 
#    y 0.000000 1.847990 0.000000 
#    z 0.000000 0.000000 1.775160 
# 
# From -- ./inp_files/71139.got.cif
#   From: 2010.05.17/outbox.cif.g08.bks.cpg/sg65_36_cif.got.tgz:71139.got - 2010.06.03 17:01:31.
