data_PCOD9485140
_publ_section_title
;
Structure prediction by ZEFSAII (Michael W. Deem and Ramdas Pophale) SiO2 
 PCOD9485140
Probable space group: C M M M
;
_chemical_formula_sum "Si O2"
_cell_formula_units_Z 104
_cell_length_a 29.510043
_cell_length_b 8.825858
_cell_length_c 21.111731
_cell_angle_alpha 90.000000
_cell_angle_beta 90.000000
_cell_angle_gamma 90.000000
_cell_volume 5498.580932
_symmetry_space_group_name_H-M "C M M M"
_symmetry_group_IT_number 65
_symmetry_cell_setting 'orthorhombic'
loop_
_space_group_symop_operation_xyz
x,y,z
-x,-y,z
x,-y,-z
-x,y,-z
-x,-y,-z
x,y,-z
-x,y,z
x,-y,z
1/2+x,1/2+y,z
1/2-x,1/2-y,z
1/2+x,1/2-y,-z
1/2-x,1/2+y,-z
1/2-x,1/2-y,-z
1/2+x,1/2+y,-z
1/2-x,1/2+y,z
1/2+x,1/2-y,z
loop_
_atom_site_type_symbol
_atom_site_label
_atom_site_fract_x
_atom_site_fract_y
_atom_site_fract_z
Si Si1 0.053087 0.318478 0.000000
Si Si2 0.296057 0.180222 0.365039
Si Si3 0.052563 0.181622 0.754082
Si Si4 0.394535 0.316673 0.119852
Si Si5 0.804027 0.171172 0.500000
Si Si6 0.702557 0.681884 0.925845
Si Si7 0.588068 0.331266 0.500000
Si Si8 0.599699 0.181074 0.633804
O O1 0.077376 0.251872 0.061854
O O2 0.056941 0.500000 0.000000
O O3 0.000000 0.277576 0.000000
O O4 0.250000 0.250000 0.334694
O O5 0.294114 0.232657 0.437973
O O6 0.347947 0.229238 0.348796
O O7 0.293320 0.000000 0.358763
O O8 0.083324 0.227618 0.813686
O O9 0.068547 0.263515 0.690766
O O10 0.000000 0.213348 0.768095
O O11 0.057333 0.000000 0.745485
O O12 0.396499 0.500000 0.114823
O O13 0.342076 0.270642 0.112121
O O14 0.857780 0.152534 0.500000
O O15 0.784405 0.000000 0.500000
O O16 0.705572 0.500000 0.923774
O O17 0.750000 0.750000 0.903462
O O18 0.696336 0.725748 0.000000
O O19 0.567412 0.500000 0.500000
O O20 0.581059 0.246743 0.566962
O O21 0.600662 0.000000 0.628112
#
# Coordination Sequence:
#
# PCOD9485140 Si02
#       8
#     8  16  16  16   8  16   8  16
#     4  11  23  35  52  85 122 151 186 237 292 337
#     4  10  19  30  46  71 103 140 179 217 263 322
#     4  10  22  40  62  85 109 144 190 236 287 347
#     4  10  20  38  61  85 114 153 197 237 278 334
#     4   9  16  26  43  70 104 140 174 213 265 320
#     4   9  17  31  53  83 117 154 195 235 277 327
#     4   9  17  32  57  84 110 142 185 236 285 338
#     4  10  21  37  57  82 113 148 185 232 290 349
#
# _framework density 18.913971
#
# number of rings (size 3 to 8) (size 9 to 14) (size 15 to 20)
#    0.000    2.231    0.769    2.308    0.000    6.462 
#    0.000    1.154    0.000    6.000    0.000    0.000 
#    0.000    0.000    0.000    0.000    0.000    0.000 
#
# Total GULP energy -289869.383605 kJ/mol
# GULP energy per Si atom -5574.411223 kJ/mol
# Density = 1.887092 g / cm^3
# Si number density = 18.913971 Si / 1000 Ang^3
#
#
#
# Elastic Constant Matrix: (Units=GPa)
#
#
# Indices 1 2 3 4 5 6 
#
# 1 121.9724 33.7455 61.9088 0.0000 0.0000 0.0000
# 2 33.7455 33.4207 34.5508 0.0000 0.0000 0.0000
# 3 61.9088 34.5508 114.2630 0.0000 0.0000 0.0000
# 4 0.0000 0.0000 0.0000 5.9196 0.0000 0.0000
# 5 0.0000 0.0000 0.0000 0.0000 -24.5188 0.0000
# 6 0.0000 0.0000 0.0000 0.0000 0.0000 28.7541
#
#
#
# Elastic Compliance Matrix: (Units=1/GPa)
#
#
# Indices 1 2 3 4 5 6 
#
# 1 0.012722 -0.008321 -0.004377 0.000000 0.000000 0.000000
# 2 -0.008321 0.048971 -0.010299 0.000000 0.000000 0.000000
# 3 -0.004377 -0.010299 0.014238 0.000000 0.000000 0.000000
# 4 0.000000 0.000000 0.000000 0.168932 0.000000 0.000000
# 5 0.000000 0.000000 0.000000 0.000000 -0.040785 0.000000
# 6 0.000000 0.000000 0.000000 0.000000 0.000000 0.034778
#
#
# Mechanical properties :
#
#
# Convention : Reuss Voigt Hill
#
# Bulk Modulus (GPa) = 33.40441 58.89626 46.15034
# Shear Modulus (GPa) = 16.95900 11.32771 14.14335
#
# Velocity S-wave (km/s) = 2.99764 2.44991 2.73751
# Velocity P-wave (km/s) = 5.44800 6.26174 5.86899
#
# Compressibility (1/GPa) = 0.02993616
#
# Stress axis : x y z
#
# Youngs Moduli (GPa) = 78.60225 20.42018 70.23670
#
# Poissons Ratio (x) = 0.16992 0.30742
# Poissons Ratio (y) = 0.65405 0.72340
# Poissons Ratio (z) = 0.34404 0.21032
#
# Static dielectric constant tensor:
#      x y z
#    x 1.701440 0.000000 0.000000 
#    y 0.000000 1.662460 0.000000 
#    z 0.000000 0.000000 1.625270 
# 
# From -- ./inp_files/65966.got.cif
#   From: 2010.05.17/outbox.cif.g08.bks.cpg/sg65_33_cif.got.tgz:65966.got - 2010.06.03 17:01:31.
