data_PCOD9485794
_publ_section_title
;
Structure prediction by ZEFSAII (Michael W. Deem and Ramdas Pophale) SiO2 
 PCOD9485794
Probable space group: C M M M
;
_chemical_formula_sum "Si O2"
_cell_formula_units_Z 100
_cell_length_a 21.426083
_cell_length_b 15.384380
_cell_length_c 17.445875
_cell_angle_alpha 90.000000
_cell_angle_beta 90.000000
_cell_angle_gamma 90.000000
_cell_volume 5750.631487
_symmetry_space_group_name_H-M "C M M M"
_symmetry_group_IT_number 65
_symmetry_cell_setting 'orthorhombic'
loop_
_space_group_symop_operation_xyz
x,y,z
-x,-y,z
x,-y,-z
-x,y,-z
-x,-y,-z
x,y,-z
-x,y,z
x,-y,z
1/2+x,1/2+y,z
1/2-x,1/2-y,z
1/2+x,1/2-y,-z
1/2-x,1/2+y,-z
1/2-x,1/2-y,-z
1/2+x,1/2+y,-z
1/2-x,1/2+y,z
1/2+x,1/2-y,z
loop_
_atom_site_type_symbol
_atom_site_label
_atom_site_fract_x
_atom_site_fract_y
_atom_site_fract_z
Si Si1 0.236102 0.105082 0.232719
Si Si2 0.571385 0.843854 0.815552
Si Si3 0.854278 0.400735 0.331281
Si Si4 0.184653 0.605290 0.086346
Si Si5 0.404832 0.658620 0.258927
Si Si6 0.427414 0.246021 0.587008
Si Si7 0.000000 0.000000 0.766576
O O1 0.286879 0.127488 0.298128
O O2 0.265761 0.132514 0.151263
O O3 0.168432 0.143701 0.246184
O O4 0.231695 0.000000 0.232514
O O5 0.500000 0.868114 0.829905
O O6 0.600580 0.895526 0.743276
O O7 0.617454 0.860834 0.886027
O O8 0.575097 0.743694 0.788700
O O9 0.851076 0.500000 0.358318
O O10 0.882732 0.334120 0.391768
O O11 0.182535 0.500000 0.088163
O O12 0.199908 0.632679 0.000000
O O13 0.416372 0.681594 0.348275
O O14 0.445604 0.576332 0.235919
O O15 0.417367 0.275830 0.500000
O O16 0.500000 0.218194 0.594124
#
# Coordination Sequence:
#
# PCOD9485794 Si02
#       7
#    16  16  16  16  16  16   4
#     4   9  18  33  56  79 105 138 179 225 265 303
#     4  10  19  31  49  78 112 140 175 227 263 297
#     4   9  18  32  50  76 106 143 183 217 253 315
#     4   9  19  35  54  81 112 142 175 208 258 320
#     4  11  20  36  57  83 102 134 182 225 267 318
#     4  10  21  36  52  76 111 140 172 221 268 313
#     4  12  20  36  65  84  99 132 182 226 264 316
#
# _framework density 17.389393999999999
#
# number of rings (size 3 to 8) (size 9 to 14) (size 15 to 20)
#    0.000    2.240    2.400    2.880    0.000    8.640 
#    0.000    5.600    0.000    0.960    0.000    2.240 
#    0.000    0.000    0.000    0.000    0.000    0.000 
#
# Total GULP energy -278367.872867 kJ/mol
# GULP energy per Si atom -5567.357457 kJ/mol
# Density = 1.734982 g / cm^3
# Si number density = 17.389394 Si / 1000 Ang^3
#
#
#
# Elastic Constant Matrix: (Units=GPa)
#
#
# Indices 1 2 3 4 5 6 
#
# 1 144.3784 13.2133 29.5528 0.0000 0.0000 0.0000
# 2 13.2133 40.8127 -1.1943 0.0000 0.0000 0.0000
# 3 29.5528 -1.1943 64.8677 0.0000 0.0000 0.0000
# 4 0.0000 0.0000 0.0000 4.4922 0.0000 0.0000
# 5 0.0000 0.0000 0.0000 0.0000 13.0701 0.0000
# 6 0.0000 0.0000 0.0000 0.0000 0.0000 -2.9361
#
#
#
# Elastic Compliance Matrix: (Units=1/GPa)
#
#
# Indices 1 2 3 4 5 6 
#
# 1 0.007919 -0.002671 -0.003657 0.000000 0.000000 0.000000
# 2 -0.002671 0.025416 0.001685 0.000000 0.000000 0.000000
# 3 -0.003657 0.001685 0.017113 0.000000 0.000000 0.000000
# 4 0.000000 0.000000 0.000000 0.222607 0.000000 0.000000
# 5 0.000000 0.000000 0.000000 0.000000 0.076511 0.000000
# 6 0.000000 0.000000 0.000000 0.000000 0.000000 -0.340585
#
#
# Mechanical properties :
#
#
# Convention : Reuss Voigt Hill
#
# Bulk Modulus (GPa) = 24.29416 37.02249 30.65833
# Shear Modulus (GPa) = 156.30678 16.82437 86.56557
#
# Velocity S-wave (km/s) = 9.49112 3.11385 7.06320
# Velocity P-wave (km/s) = 11.58057 5.85360 9.17535
#
# Compressibility (1/GPa) = 0.04116216
#
# Stress axis : x y z
#
# Youngs Moduli (GPa) = 126.27465 39.34500 58.43465
#
# Poissons Ratio (x) = 0.10509 0.21370
# Poissons Ratio (y) = 0.33727 -0.09845
# Poissons Ratio (z) = 0.46180 -0.06629
#
# Static dielectric constant tensor:
#      x y z
#    x 1.588220 0.000000 0.000000 
#    y 0.000000 1.597200 0.000000 
#    z 0.000000 0.000000 1.583880 
# 
# From -- ./inp_files/55849.got.cif
#   From: 2010.05.17/outbox.cif.g08.bks.cpg/sg65_28_cif.got.tgz:55849.got - 2010.06.03 17:01:31.
