data_PCOD9485582
_publ_section_title
;
Structure prediction by ZEFSAII (Michael W. Deem and Ramdas Pophale) SiO2 
 PCOD9485582
Probable space group: C M M M
;
_chemical_formula_sum "Si O2"
_cell_formula_units_Z 88
_cell_length_a 7.633392
_cell_length_b 18.788512
_cell_length_c 30.130094
_cell_angle_alpha 90.000000
_cell_angle_beta 90.000000
_cell_angle_gamma 90.000000
_cell_volume 4321.260407
_symmetry_space_group_name_H-M "C M M M"
_symmetry_group_IT_number 65
_symmetry_cell_setting 'orthorhombic'
loop_
_space_group_symop_operation_xyz
x,y,z
-x,-y,z
x,-y,-z
-x,y,-z
-x,-y,-z
x,y,-z
-x,y,z
x,-y,z
1/2+x,1/2+y,z
1/2-x,1/2-y,z
1/2+x,1/2-y,-z
1/2-x,1/2+y,-z
1/2-x,1/2-y,-z
1/2+x,1/2+y,-z
1/2-x,1/2+y,z
1/2+x,1/2-y,z
loop_
_atom_site_type_symbol
_atom_site_label
_atom_site_fract_x
_atom_site_fract_y
_atom_site_fract_z
Si Si1 0.208494 0.833794 0.308049
Si Si2 0.791841 0.580091 0.220122
Si Si3 0.789426 0.165468 0.404542
Si Si4 0.286336 0.082492 0.950360
Si Si5 0.289126 0.334789 0.500000
Si Si6 0.789282 0.333028 0.864639
O O1 0.250000 0.750000 0.302558
O O2 0.269101 0.878673 0.266193
O O3 0.277474 0.859329 0.356423
O O4 0.000000 0.839795 0.309566
O O5 0.719799 0.500000 0.221898
O O6 0.721196 0.625257 0.178609
O O7 0.000000 0.574405 0.212976
O O8 0.750000 0.250000 0.404631
O O9 0.723359 0.137171 0.452239
O O10 0.000000 0.156396 0.404744
O O11 0.500000 0.084106 0.950452
O O12 0.224019 0.131580 0.910266
O O13 0.236700 0.000000 0.943042
O O14 0.229395 0.103760 0.000000
O O15 0.500000 0.342857 0.500000
O O16 0.250000 0.250000 0.500000
O O17 0.750000 0.250000 0.861988
O O18 0.000000 0.340210 0.865049
#
# Coordination Sequence:
#
# PCOD9485582 Si02
#       6
#    16  16  16  16   8  16
#     4  10  19  31  48  71  98 126 157 194 236 282
#     4  10  21  36  52  69  91 122 160 201 244 288
#     4   8  14  23  37  59  87 118 149 183 224 270
#     4   8  14  27  49  74  97 124 160 197 229 266
#     4   8  12  20  34  54  83 116 147 179 219 267
#     4  10  20  33  50  73  99 125 155 193 236 282
#
# _framework density 20.364429000000001
#
# number of rings (size 3 to 8) (size 9 to 14) (size 15 to 20)
#    0.000    2.909    0.000    2.182    0.000    5.818 
#    0.000    0.000    0.000    1.636    0.000    1.909 
#    0.000    5.091    0.000    0.000    0.000    0.364 
#
# Total GULP energy -245197.671880 kJ/mol
# GULP energy per Si atom -5572.674361 kJ/mol
# Density = 2.031808 g / cm^3
# Si number density = 20.364429 Si / 1000 Ang^3
#
#
#
# Elastic Constant Matrix: (Units=GPa)
#
#
# Indices 1 2 3 4 5 6 
#
# 1 42.6877 1.2945 6.4016 0.0000 0.0000 0.0000
# 2 1.2945 101.8040 113.4132 0.0000 0.0000 0.0000
# 3 6.4016 113.4132 257.7549 0.0000 0.0000 0.0000
# 4 0.0000 0.0000 0.0000 -12.8301 0.0000 0.0000
# 5 0.0000 0.0000 0.0000 0.0000 6.9572 0.0000
# 6 0.0000 0.0000 0.0000 0.0000 0.0000 15.5189
#
#
#
# Elastic Compliance Matrix: (Units=1/GPa)
#
#
# Indices 1 2 3 4 5 6 
#
# 1 0.023538 0.000690 -0.000888 0.000000 0.000000 0.000000
# 2 0.000690 0.019287 -0.008504 0.000000 0.000000 0.000000
# 3 -0.000888 -0.008504 0.007643 0.000000 0.000000 0.000000
# 4 0.000000 0.000000 0.000000 -0.077941 0.000000 0.000000
# 5 0.000000 0.000000 0.000000 0.000000 0.143737 0.000000
# 6 0.000000 0.000000 0.000000 0.000000 0.000000 0.064437
#
#
# Mechanical properties :
#
#
# Convention : Reuss Voigt Hill
#
# Bulk Modulus (GPa) = 30.24288 71.60727 50.92507
# Shear Modulus (GPa) = 23.90892 20.67167 22.29030
#
# Velocity S-wave (km/s) = 3.43016 3.18950 3.31202
# Velocity P-wave (km/s) = 5.52911 6.98592 6.29977
#
# Compressibility (1/GPa) = 0.03306564
#
# Stress axis : x y z
#
# Youngs Moduli (GPa) = 42.48411 51.84716 130.83209
#
# Poissons Ratio (x) = -0.03579 0.11623
# Poissons Ratio (y) = -0.02933 1.11256
# Poissons Ratio (z) = 0.03774 0.44089
#
# Static dielectric constant tensor:
#      x y z
#    x 1.772160 0.000000 0.000000 
#    y 0.000000 1.671380 0.000000 
#    z 0.000000 0.000000 1.786480 
# 
# From -- ./inp_files/76425.got.cif
#   From: 2010.05.17/outbox.cif.g08.bks.cpg/sg65_39_cif.got.tgz:76425.got - 2010.06.03 17:01:31.
