data_PCOD9485477
_publ_section_title
;
Structure prediction by ZEFSAII (Michael W. Deem and Ramdas Pophale) SiO2 
 PCOD9485477
Probable space group: C M M M
;
_chemical_formula_sum "Si O2"
_cell_formula_units_Z 120
_cell_length_a 20.425599
_cell_length_b 18.141800
_cell_length_c 18.300866
_cell_angle_alpha 90.000000
_cell_angle_beta 90.000000
_cell_angle_gamma 90.000000
_cell_volume 6781.516417
_symmetry_space_group_name_H-M "C M M M"
_symmetry_group_IT_number 65
_symmetry_cell_setting 'orthorhombic'
loop_
_space_group_symop_operation_xyz
x,y,z
-x,-y,z
x,-y,-z
-x,y,-z
-x,-y,-z
x,y,-z
-x,y,z
x,-y,z
1/2+x,1/2+y,z
1/2-x,1/2-y,z
1/2+x,1/2-y,-z
1/2-x,1/2+y,-z
1/2-x,1/2-y,-z
1/2+x,1/2+y,-z
1/2-x,1/2+y,z
1/2+x,1/2-y,z
loop_
_atom_site_type_symbol
_atom_site_label
_atom_site_fract_x
_atom_site_fract_y
_atom_site_fract_z
Si Si1 0.072003 0.311252 0.415587
Si Si2 0.924558 0.668926 0.797801
Si Si3 0.355346 0.082575 0.684838
Si Si4 0.179838 0.785933 0.263641
Si Si5 0.425433 0.500000 0.588187
Si Si6 0.636317 0.341354 0.415063
Si Si7 0.152463 0.413187 0.914036
Si Si8 0.763929 0.083223 0.797395
O O1 0.073512 0.333157 0.500000
O O2 0.129159 0.355607 0.374977
O O3 0.081365 0.222988 0.414198
O O4 0.000000 0.329453 0.384938
O O5 0.909935 0.598158 0.746464
O O6 0.878272 0.731667 0.761252
O O7 0.898451 0.642427 0.876339
O O8 0.000000 0.689727 0.798271
O O9 0.287173 0.089615 0.728862
O O10 0.359693 0.000000 0.655105
O O11 0.250000 0.750000 0.247199
O O12 0.179893 0.811292 0.348394
O O13 0.179007 0.859348 0.215330
O O14 0.500000 0.500000 0.616667
O O15 0.429466 0.500000 0.500000
O O16 0.389015 0.423048 0.605268
O O17 0.661224 0.343096 0.500000
O O18 0.134336 0.500000 0.903111
O O19 0.219628 0.402392 0.868596
O O20 0.159700 0.400925 0.000000
O O21 0.787612 0.000000 0.799583
#
# Coordination Sequence:
#
# PCOD9485477 Si02
#       8
#    16  16  16  16   8  16  16  16
#     4  10  19  31  47  69 101 141 180 222 272 326
#     4  11  22  35  53  82 115 146 183 228 276 332
#     4  10  19  33  51  73 101 140 182 224 271 324
#     4  12  21  37  59  79 106 152 194 228 280 339
#     4   9  18  34  54  78 108 140 178 234 301 354
#     4  10  21  34  52  78 106 138 187 242 291 337
#     4   9  18  35  60  89 118 149 183 220 269 334
#     4   9  19  36  57  80 109 144 185 229 275 328
#
# _framework density 17.695156999999998
#
# number of rings (size 3 to 8) (size 9 to 14) (size 15 to 20)
#    0.000    1.933    4.000    2.000    0.933    4.800 
#    0.000    3.333    0.000    0.800    0.000    0.000 
#    0.000    0.000    0.000    4.533    0.000    0.000 
#
# Total GULP energy -334078.705319 kJ/mol
# GULP energy per Si atom -5567.978422 kJ/mol
# Density = 1.765488 g / cm^3
# Si number density = 17.695157 Si / 1000 Ang^3
#
#
#
# Elastic Constant Matrix: (Units=GPa)
#
#
# Indices 1 2 3 4 5 6 
#
# 1 42.1109 29.5794 15.6327 0.0000 0.0000 0.0000
# 2 29.5794 108.2693 35.7886 0.0000 0.0000 0.0000
# 3 15.6327 35.7886 85.5603 0.0000 0.0000 0.0000
# 4 0.0000 0.0000 0.0000 23.7097 0.0000 0.0000
# 5 0.0000 0.0000 0.0000 0.0000 8.4001 0.0000
# 6 0.0000 0.0000 0.0000 0.0000 0.0000 13.4665
#
#
#
# Elastic Compliance Matrix: (Units=1/GPa)
#
#
# Indices 1 2 3 4 5 6 
#
# 1 0.029793 -0.007357 -0.002366 0.000000 0.000000 0.000000
# 2 -0.007357 0.012535 -0.003899 0.000000 0.000000 0.000000
# 3 -0.002366 -0.003899 0.013751 0.000000 0.000000 0.000000
# 4 0.000000 0.000000 0.000000 0.042177 0.000000 0.000000
# 5 0.000000 0.000000 0.000000 0.000000 0.119046 0.000000
# 6 0.000000 0.000000 0.000000 0.000000 0.000000 0.074258
#
#
# Mechanical properties :
#
#
# Convention : Reuss Voigt Hill
#
# Bulk Modulus (GPa) = 34.68095 44.21576 39.44836
# Shear Modulus (GPa) = 15.22459 19.44458 17.33458
#
# Velocity S-wave (km/s) = 2.93641 3.31851 3.13329
# Velocity P-wave (km/s) = 5.58017 6.30278 5.95245
#
# Compressibility (1/GPa) = 0.02883427
#
# Stress axis : x y z
#
# Youngs Moduli (GPa) = 33.56472 79.77582 72.72288
#
# Poissons Ratio (x) = 0.58695 0.17206
# Poissons Ratio (y) = 0.24695 0.28354
# Poissons Ratio (z) = 0.07941 0.31104
#
# Static dielectric constant tensor:
#      x y z
#    x 1.618440 0.000000 0.000000 
#    y 0.000000 1.652520 0.000000 
#    z 0.000000 0.000000 1.625870 
# 
# From -- ./inp_files/56102.got.cif
#   From: 2010.05.17/outbox.cif.g08.bks.cpg/sg65_29_cif.got.tgz:56102.got - 2010.06.03 17:01:31.
