data_PCOD9485263
_publ_section_title
;
Structure prediction by ZEFSAII (Michael W. Deem and Ramdas Pophale) SiO2 
 PCOD9485263
Probable space group: C M M M
;
_chemical_formula_sum "Si O2"
_cell_formula_units_Z 96
_cell_length_a 11.113147
_cell_length_b 18.198037
_cell_length_c 29.159957
_cell_angle_alpha 90.000000
_cell_angle_beta 90.000000
_cell_angle_gamma 90.000000
_cell_volume 5897.235646
_symmetry_space_group_name_H-M "C M M M"
_symmetry_group_IT_number 65
_symmetry_cell_setting 'orthorhombic'
loop_
_space_group_symop_operation_xyz
x,y,z
-x,-y,z
x,-y,-z
-x,y,-z
-x,-y,-z
x,y,-z
-x,y,z
x,-y,z
1/2+x,1/2+y,z
1/2-x,1/2-y,z
1/2+x,1/2-y,-z
1/2-x,1/2+y,-z
1/2-x,1/2-y,-z
1/2+x,1/2+y,-z
1/2-x,1/2+y,z
1/2+x,1/2-y,z
loop_
_atom_site_type_symbol
_atom_site_label
_atom_site_fract_x
_atom_site_fract_y
_atom_site_fract_z
Si Si1 0.354957 0.416969 0.723124
Si Si2 0.744819 0.837848 0.913964
Si Si3 0.358335 0.417462 0.000000
Si Si4 0.000000 0.412549 0.944627
Si Si5 0.853257 0.811938 0.637151
Si Si6 0.856158 0.912605 0.173756
Si Si7 0.145278 0.083568 0.551340
O O1 0.500000 0.421513 0.726087
O O2 0.311352 0.500000 0.713254
O O3 0.330595 0.361411 0.682244
O O4 0.314887 0.394873 0.774301
O O5 0.750000 0.750000 0.916622
O O6 0.822218 0.873484 0.954831
O O7 0.614418 0.871695 0.923682
O O8 0.792380 0.866043 0.865227
O O9 0.302360 0.500000 0.000000
O O10 0.500000 0.425360 0.000000
O O11 0.000000 0.500000 0.934775
O O12 0.000000 0.404165 0.000000
O O13 0.750000 0.750000 0.637615
O O14 0.827815 0.860854 0.591994
O O15 0.000000 0.792665 0.636792
O O16 0.000000 0.900832 0.170670
O O17 0.835593 0.000000 0.166558
O O18 0.186676 0.104938 0.500000
O O19 0.000000 0.080437 0.549740
O O20 0.187022 0.000000 0.560734
#
# Coordination Sequence:
#
# PCOD9485263 Si02
#       7
#    16  16   8   8  16  16  16
#     4   8  15  30  54  78  95 125 172 217 253 298
#     4  12  25  36  57  81 111 137 169 213 256 303
#     4  11  23  39  61  81 101 131 169 211 255 305
#     4  11  24  42  60  76 106 152 184 202 245 319
#     4  10  19  30  48  74 105 138 170 211 262 317
#     4   9  18  35  58  79 102 129 165 214 263 308
#     4   8  14  26  46  72  99 130 176 229 266 297
#
# _framework density 16.278814000000001
#
# number of rings (size 3 to 8) (size 9 to 14) (size 15 to 20)
#    0.000    2.333    0.833    4.250    2.333    4.333 
#    0.000    0.000    1.833    2.000    0.000    1.167 
#    0.000    0.000    0.000    0.000    0.000    0.000 
#
# Total GULP energy -267345.998212 kJ/mol
# GULP energy per Si atom -5569.708296 kJ/mol
# Density = 1.624176 g / cm^3
# Si number density = 16.278814 Si / 1000 Ang^3
#
#
#
# Elastic Constant Matrix: (Units=GPa)
#
#
# Indices 1 2 3 4 5 6 
#
# 1 69.0151 60.5686 50.6466 0.0000 0.0000 0.0000
# 2 60.5686 135.7041 107.0818 0.0000 0.0000 0.0000
# 3 50.6466 107.0818 156.5244 0.0000 0.0000 0.0000
# 4 0.0000 0.0000 0.0000 -14.6221 0.0000 0.0000
# 5 0.0000 0.0000 0.0000 0.0000 8.4331 0.0000
# 6 0.0000 0.0000 0.0000 0.0000 0.0000 28.3440
#
#
#
# Elastic Compliance Matrix: (Units=1/GPa)
#
#
# Indices 1 2 3 4 5 6 
#
# 1 0.023884 -0.009914 -0.000946 0.000000 0.000000 0.000000
# 2 -0.009914 0.020129 -0.010563 0.000000 0.000000 0.000000
# 3 -0.000946 -0.010563 0.013921 0.000000 0.000000 0.000000
# 4 0.000000 0.000000 0.000000 -0.068390 0.000000 0.000000
# 5 0.000000 0.000000 0.000000 0.000000 0.118581 0.000000
# 6 0.000000 0.000000 0.000000 0.000000 0.000000 0.035281
#
#
# Mechanical properties :
#
#
# Convention : Reuss Voigt Hill
#
# Bulk Modulus (GPa) = 66.27309 88.64863 77.46086
# Shear Modulus (GPa) = 26.13970 13.96076 20.05023
#
# Velocity S-wave (km/s) = 4.01153 2.93166 3.51333
# Velocity P-wave (km/s) = 7.89025 8.12614 8.00907
#
# Compressibility (1/GPa) = 0.01508908
#
# Stress axis : x y z
#
# Youngs Moduli (GPa) = 41.86856 49.68079 71.83412
#
# Poissons Ratio (x) = 0.49252 0.06796
# Poissons Ratio (y) = 0.41507 0.75875
# Poissons Ratio (z) = 0.03961 0.52476
#
# Static dielectric constant tensor:
#      x y z
#    x 1.605620 0.000000 0.000000 
#    y 0.000000 1.545370 0.000000 
#    z 0.000000 0.000000 1.557810 
# 
# From -- ./inp_files/77346.got.cif
#   From: 2010.05.17/outbox.cif.g08.bks.cpg/sg65_39_cif.got.tgz:77346.got - 2010.06.03 17:01:31.
