data_PCOD9485380
_publ_section_title
;
Structure prediction by ZEFSAII (Michael W. Deem and Ramdas Pophale) SiO2 
 PCOD9485380
Probable space group: C M M M
;
_chemical_formula_sum "Si O2"
_cell_formula_units_Z 96
_cell_length_a 14.416014
_cell_length_b 30.861657
_cell_length_c 14.124077
_cell_angle_alpha 90.000000
_cell_angle_beta 90.000000
_cell_angle_gamma 90.000000
_cell_volume 6283.831227
_symmetry_space_group_name_H-M "C M M M"
_symmetry_group_IT_number 65
_symmetry_cell_setting 'orthorhombic'
loop_
_space_group_symop_operation_xyz
x,y,z
-x,-y,z
x,-y,-z
-x,y,-z
-x,-y,-z
x,y,-z
-x,y,z
x,-y,z
1/2+x,1/2+y,z
1/2-x,1/2-y,z
1/2+x,1/2-y,-z
1/2-x,1/2+y,-z
1/2-x,1/2-y,-z
1/2+x,1/2+y,-z
1/2-x,1/2+y,z
1/2+x,1/2-y,z
loop_
_atom_site_type_symbol
_atom_site_label
_atom_site_fract_x
_atom_site_fract_y
_atom_site_fract_z
Si Si1 0.892148 0.133783 0.387345
Si Si2 0.611280 0.452324 0.287670
Si Si3 0.852304 0.768933 0.607318
Si Si4 0.221485 0.813192 0.113485
Si Si5 0.391946 0.399409 0.889992
Si Si6 0.105083 0.266936 0.806722
O O1 0.890103 0.128502 0.500000
O O2 0.852662 0.089990 0.342447
O O3 0.848073 0.180232 0.365707
O O4 0.000000 0.137919 0.357288
O O5 0.500000 0.453592 0.306222
O O6 0.648189 0.500000 0.311449
O O7 0.623957 0.440042 0.178019
O O8 0.892764 0.766272 0.500000
O O9 0.750000 0.750000 0.601814
O O10 0.897314 0.743400 0.694415
O O11 0.174768 0.859393 0.134756
O O12 0.148803 0.775976 0.144551
O O13 0.318401 0.803156 0.166351
O O14 0.235766 0.810231 0.000000
O O15 0.500000 0.385886 0.876625
O O16 0.379591 0.409906 0.000000
O O17 0.000000 0.275628 0.838943
#
# Coordination Sequence:
#
# PCOD9485380 Si02
#       6
#    16  16  16  16  16  16
#     4   9  17  28  42  60  84 117 152 182 216 262
#     4   9  17  27  41  63  88 115 148 184 220 262
#     4  10  19  31  46  65  89 119 157 194 226 266
#     4  10  20  32  44  63  88 118 157 192 224 270
#     4   9  17  29  45  62  84 117 151 184 221 262
#     4  11  20  30  45  64  88 118 151 192 234 267
#
# _framework density 15.277304000000001
#
# number of rings (size 3 to 8) (size 9 to 14) (size 15 to 20)
#    0.000    2.333    1.667    3.000    0.000    5.000 
#    0.000    3.333    0.000    0.000    0.000    0.000 
#    0.000    0.667    0.000    3.667    0.000    9.500 
#
# Total GULP energy -267292.019701 kJ/mol
# GULP energy per Si atom -5568.583744 kJ/mol
# Density = 1.524253 g / cm^3
# Si number density = 15.277304 Si / 1000 Ang^3
#
#
#
# Elastic Constant Matrix: (Units=GPa)
#
#
# Indices 1 2 3 4 5 6 
#
# 1 72.0793 30.5014 14.6483 0.0000 0.0000 0.0000
# 2 30.5014 86.7044 23.8131 0.0000 0.0000 0.0000
# 3 14.6483 23.8131 61.6254 0.0000 0.0000 0.0000
# 4 0.0000 0.0000 0.0000 11.2830 0.0000 0.0000
# 5 0.0000 0.0000 0.0000 0.0000 7.4225 0.0000
# 6 0.0000 0.0000 0.0000 0.0000 0.0000 11.3115
#
#
#
# Elastic Compliance Matrix: (Units=1/GPa)
#
#
# Indices 1 2 3 4 5 6 
#
# 1 0.016492 -0.005286 -0.001878 0.000000 0.000000 0.000000
# 2 -0.005286 0.014597 -0.004384 0.000000 0.000000 0.000000
# 3 -0.001878 -0.004384 0.018367 0.000000 0.000000 0.000000
# 4 0.000000 0.000000 0.000000 0.088629 0.000000 0.000000
# 5 0.000000 0.000000 0.000000 0.000000 0.134725 0.000000
# 6 0.000000 0.000000 0.000000 0.000000 0.000000 0.088406
#
#
# Mechanical properties :
#
#
# Convention : Reuss Voigt Hill
#
# Bulk Modulus (GPa) = 37.93439 39.81496 38.87467
# Shear Modulus (GPa) = 12.71946 16.09983 14.40964
#
# Velocity S-wave (km/s) = 2.88856 3.24981 3.07450
# Velocity P-wave (km/s) = 6.00079 6.34033 6.17290
#
# Compressibility (1/GPa) = 0.02636131
#
# Stress axis : x y z
#
# Youngs Moduli (GPa) = 60.63543 68.50704 54.44417
#
# Poissons Ratio (x) = 0.36213 0.10222
# Poissons Ratio (y) = 0.32052 0.23869
# Poissons Ratio (z) = 0.11384 0.30034
#
# Static dielectric constant tensor:
#      x y z
#    x 1.498800 0.000000 0.000000 
#    y 0.000000 1.506950 0.000000 
#    z 0.000000 0.000000 1.574800 
# 
# From -- ./inp_files/41243.got.cif
#   From: 2010.05.17/outbox.cif.g08.bks.cpg/sg65_21_cif.got.tgz:41243.got - 2010.06.03 17:01:31.
