data_PCOD9485631
_publ_section_title
;
Structure prediction by ZEFSAII (Michael W. Deem and Ramdas Pophale) SiO2 
 PCOD9485631
Probable space group: C M M M
;
_chemical_formula_sum "Si O2"
_cell_formula_units_Z 88
_cell_length_a 18.578736
_cell_length_b 7.389769
_cell_length_c 29.926476
_cell_angle_alpha 90.000000
_cell_angle_beta 90.000000
_cell_angle_gamma 90.000000
_cell_volume 4108.682722
_symmetry_space_group_name_H-M "C M M M"
_symmetry_group_IT_number 65
_symmetry_cell_setting 'orthorhombic'
loop_
_space_group_symop_operation_xyz
x,y,z
-x,-y,z
x,-y,-z
-x,y,-z
-x,-y,-z
x,y,-z
-x,y,z
x,-y,z
1/2+x,1/2+y,z
1/2-x,1/2-y,z
1/2+x,1/2-y,-z
1/2-x,1/2+y,-z
1/2-x,1/2-y,-z
1/2+x,1/2+y,-z
1/2-x,1/2+y,z
1/2+x,1/2-y,z
loop_
_atom_site_type_symbol
_atom_site_label
_atom_site_fract_x
_atom_site_fract_y
_atom_site_fract_z
Si Si1 0.665197 0.715961 0.225761
Si Si2 0.834577 0.783730 0.049716
Si Si3 0.164122 0.216006 0.500000
Si Si4 0.083059 0.221425 0.862627
Si Si5 0.083254 0.221428 0.685649
Si Si6 0.335469 0.716624 0.597220
O O1 0.654931 0.500000 0.225690
O O2 0.750000 0.750000 0.226326
O O3 0.628163 0.783290 0.180368
O O4 0.626602 0.783266 0.270646
O O5 0.750000 0.750000 0.057670
O O6 0.881112 0.715987 0.091140
O O7 0.844555 0.000000 0.048289
O O8 0.852431 0.713464 0.000000
O O9 0.250000 0.250000 0.500000
O O10 0.139399 0.285928 0.451596
O O11 0.151972 0.000000 0.500000
O O12 0.000000 0.274589 0.859146
O O13 0.084960 0.000000 0.862943
O O14 0.121429 0.283754 0.640112
O O15 0.000000 0.274637 0.687711
O O16 0.085061 0.000000 0.685417
O O17 0.344554 0.500000 0.596154
O O18 0.250000 0.750000 0.602214
#
# Coordination Sequence:
#
# PCOD9485631 Si02
#       6
#    16  16   8  16  16  16
#     4  10  19  31  49  69  88 113 145 180 216 256
#     4   9  17  29  46  67  90 117 148 182 218 255
#     4   8  14  24  39  61  85 109 139 174 212 250
#     4   9  17  29  46  68  91 115 146 182 217 255
#     4   9  17  29  45  65  88 114 144 177 214 256
#     4   9  16  27  44  64  86 112 143 178 213 252
#
# _framework density 21.418057999999998
#
# number of rings (size 3 to 8) (size 9 to 14) (size 15 to 20)
#    0.000    2.909    0.000    1.636    0.000    2.545 
#    0.000    2.273    0.000    8.182    0.000    2.545 
#    0.000    7.273    0.000    0.000    0.000    0.000 
#
# Total GULP energy -245610.138103 kJ/mol
# GULP energy per Si atom -5582.048593 kJ/mol
# Density = 2.136931 g / cm^3
# Si number density = 21.418058 Si / 1000 Ang^3
#
#
#
# Elastic Constant Matrix: (Units=GPa)
#
#
# Indices 1 2 3 4 5 6 
#
# 1 158.3010 -3.2269 150.9856 0.0000 0.0000 0.0000
# 2 -3.2269 76.5841 12.4273 0.0000 0.0000 0.0000
# 3 150.9856 12.4273 274.9993 0.0000 0.0000 0.0000
# 4 0.0000 0.0000 0.0000 -29.7219 0.0000 0.0000
# 5 0.0000 0.0000 0.0000 0.0000 0.0249 0.0000
# 6 0.0000 0.0000 0.0000 0.0000 0.0000 17.9160
#
#
#
# Elastic Compliance Matrix: (Units=1/GPa)
#
#
# Indices 1 2 3 4 5 6 
#
# 1 0.013500 0.001785 -0.007493 0.000000 0.000000 0.000000
# 2 0.001785 0.013390 -0.001585 0.000000 0.000000 0.000000
# 3 -0.007493 -0.001585 0.007822 0.000000 0.000000 0.000000
# 4 0.000000 0.000000 0.000000 -0.033645 0.000000 0.000000
# 5 0.000000 0.000000 0.000000 0.000000 40.092351 0.000000
# 6 0.000000 0.000000 0.000000 0.000000 0.000000 0.055816
#
#
# Mechanical properties :
#
#
# Convention : Reuss Voigt Hill
#
# Bulk Modulus (GPa) = 49.68773 92.25069 70.96921
# Shear Modulus (GPa) = 0.12447 20.95703 10.54075
#
# Velocity S-wave (km/s) = 0.24133 3.13145 2.22084
# Velocity P-wave (km/s) = 4.82980 7.49931 6.30740
#
# Compressibility (1/GPa) = 0.02012569
#
# Stress axis : x y z
#
# Youngs Moduli (GPa) = 74.07528 74.68307 127.84922
#
# Poissons Ratio (x) = -0.13328 0.95792
# Poissons Ratio (y) = -0.13220 0.20263
# Poissons Ratio (z) = 0.55501 0.11837
#
# Static dielectric constant tensor:
#      x y z
#    x 1.700850 0.000000 0.000000 
#    y 0.000000 1.815480 0.000000 
#    z 0.000000 0.000000 1.787580 
# 
# From -- ./inp_files/74244.got.cif
#   From: 2010.05.17/outbox.cif.g08.bks.cpg/sg65_38_cif.got.tgz:74244.got - 2010.06.03 17:01:31.
