data_PCOD9485969
_publ_section_title
;
Structure prediction by ZEFSAII (Michael W. Deem and Ramdas Pophale) SiO2 
 PCOD9485969
Probable space group: C M M M
;
_chemical_formula_sum "Si O2"
_cell_formula_units_Z 72
_cell_length_a 30.628992
_cell_length_b 15.071364
_cell_length_c 7.839116
_cell_angle_alpha 90.000000
_cell_angle_beta 90.000000
_cell_angle_gamma 90.000000
_cell_volume 3618.698116
_symmetry_space_group_name_H-M "C M M M"
_symmetry_group_IT_number 65
_symmetry_cell_setting 'orthorhombic'
loop_
_space_group_symop_operation_xyz
x,y,z
-x,-y,z
x,-y,-z
-x,y,-z
-x,-y,-z
x,y,-z
-x,y,z
x,-y,z
1/2+x,1/2+y,z
1/2-x,1/2-y,z
1/2+x,1/2-y,-z
1/2-x,1/2+y,-z
1/2-x,1/2-y,-z
1/2+x,1/2+y,-z
1/2-x,1/2+y,z
1/2+x,1/2-y,z
loop_
_atom_site_type_symbol
_atom_site_label
_atom_site_fract_x
_atom_site_fract_y
_atom_site_fract_z
Si Si1 0.049587 0.807900 0.797884
Si Si2 0.262883 0.500000 0.291547
Si Si3 0.660724 0.000000 0.291125
Si Si4 0.207811 0.808345 0.708471
Si Si5 0.950125 0.000000 0.296987
Si Si6 0.871877 0.689437 0.296412
O O1 0.080872 0.730280 0.735972
O O2 0.000000 0.803801 0.726367
O O3 0.069030 0.905403 0.755858
O O4 0.046764 0.801628 0.000000
O O5 0.263497 0.500000 0.500000
O O6 0.211792 0.500000 0.242623
O O7 0.285654 0.409309 0.234071
O O8 0.637700 0.909570 0.231620
O O9 0.659856 0.000000 0.500000
O O10 0.206666 0.810402 0.500000
O O11 0.250000 0.750000 0.755358
O O12 0.164626 0.758157 0.769689
O O13 0.951835 0.000000 0.500000
O O14 0.000000 0.000000 0.226106
O O15 0.865753 0.685241 0.500000
#
# Coordination Sequence:
#
# PCOD9485969 Si02
#       6
#    16   8   8  16   8  16
#     4  10  21  37  55  76 106 144 179 213 263 324
#     4   9  14  23  41  68 104 137 167 207 261 319
#     4   9  16  28  47  73 103 138 177 220 270 317
#     4   9  15  24  41  69 102 133 166 213 268 319
#     4   9  17  32  57  84 106 131 166 211 260 309
#     4  10  19  31  51  78 105 136 180 228 272 314
#
# _framework density 19.896657999999999
#
# number of rings (size 3 to 8) (size 9 to 14) (size 15 to 20)
#    0.000    2.556    2.222    1.000    0.000    3.556 
#    0.000    3.333    0.000    4.000    0.000    0.000 
#    0.000    0.000    0.000    0.000    0.000    0.000 
#
# Total GULP energy -200820.230965 kJ/mol
# GULP energy per Si atom -5578.339749 kJ/mol
# Density = 1.985137 g / cm^3
# Si number density = 19.896658 Si / 1000 Ang^3
#
#
#
# Elastic Constant Matrix: (Units=GPa)
#
#
# Indices 1 2 3 4 5 6 
#
# 1 95.0172 86.8677 0.8176 0.0000 0.0000 0.0000
# 2 86.8677 222.0344 12.7557 0.0000 0.0000 0.0000
# 3 0.8176 12.7557 18.4900 0.0000 0.0000 0.0000
# 4 0.0000 0.0000 0.0000 -17.0824 0.0000 0.0000
# 5 0.0000 0.0000 0.0000 0.0000 -24.3059 0.0000
# 6 0.0000 0.0000 0.0000 0.0000 0.0000 31.0337
#
#
#
# Elastic Compliance Matrix: (Units=1/GPa)
#
#
# Indices 1 2 3 4 5 6 
#
# 1 0.016653 -0.006740 0.003913 0.000000 0.000000 0.000000
# 2 -0.006740 0.007418 -0.004819 0.000000 0.000000 0.000000
# 3 0.003913 -0.004819 0.057235 0.000000 0.000000 0.000000
# 4 0.000000 0.000000 0.000000 -0.058540 0.000000 0.000000
# 5 0.000000 0.000000 0.000000 0.000000 -0.041142 0.000000
# 6 0.000000 0.000000 0.000000 0.000000 0.000000 0.032223
#
#
# Mechanical properties :
#
#
# Convention : Reuss Voigt Hill
#
# Bulk Modulus (GPa) = 15.14842 59.60261 37.37552
# Shear Modulus (GPa) = 97.76776 13.60247 55.68512
#
# Velocity S-wave (km/s) = 7.01744 2.61752 5.29603
# Velocity P-wave (km/s) = 8.56092 6.25750 7.49819
#
# Compressibility (1/GPa) = 0.06601348
#
# Stress axis : x y z
#
# Youngs Moduli (GPa) = 60.05096 134.81574 17.47189
#
# Poissons Ratio (x) = 0.90864 -0.06837
# Poissons Ratio (y) = 0.40474 0.08420
# Poissons Ratio (z) = -0.23500 0.64969
#
# Static dielectric constant tensor:
#      x y z
#    x 1.707130 0.000000 0.000000 
#    y 0.000000 1.707690 0.000000 
#    z 0.000000 0.000000 1.719670 
# 
# From -- ./inp_files/7742.got.cif
#   From: 2010.05.17/outbox.cif.g08.bks.cpg/sg65_4_cif.got.tgz:7742.got - 2010.06.03 17:01:31.
