data_PCOD9485868
_publ_section_title
;
Structure prediction by ZEFSAII (Michael W. Deem and Ramdas Pophale) SiO2 
 PCOD9485868
Probable space group: C M M M
;
_chemical_formula_sum "Si O2"
_cell_formula_units_Z 64
_cell_length_a 9.246766
_cell_length_b 17.377820
_cell_length_c 23.039988
_cell_angle_alpha 90.000000
_cell_angle_beta 90.000000
_cell_angle_gamma 90.000000
_cell_volume 3702.264225
_symmetry_space_group_name_H-M "C M M M"
_symmetry_group_IT_number 65
_symmetry_cell_setting 'orthorhombic'
loop_
_space_group_symop_operation_xyz
x,y,z
-x,-y,z
x,-y,-z
-x,y,-z
-x,-y,-z
x,y,-z
-x,y,z
x,-y,z
1/2+x,1/2+y,z
1/2-x,1/2-y,z
1/2+x,1/2-y,-z
1/2-x,1/2+y,-z
1/2-x,1/2-y,-z
1/2+x,1/2+y,-z
1/2-x,1/2+y,z
1/2+x,1/2-y,z
loop_
_atom_site_type_symbol
_atom_site_label
_atom_site_fract_x
_atom_site_fract_y
_atom_site_fract_z
Si Si1 0.831782 0.092932 0.233207
Si Si2 0.832950 0.406045 0.883667
Si Si3 0.164176 0.327468 0.662333
Si Si4 0.500000 0.091806 0.433174
Si Si5 0.667185 0.594029 0.000000
O O1 0.751995 0.118053 0.174127
O O2 0.748792 0.126095 0.288566
O O3 0.000000 0.115807 0.232785
O O4 0.825982 0.000000 0.235196
O O5 0.832849 0.500000 0.883954
O O6 0.750635 0.381282 0.941959
O O7 0.000000 0.381395 0.883018
O O8 0.250000 0.250000 0.650080
O O9 0.000000 0.310375 0.683362
O O10 0.135542 0.375817 0.603684
O O11 0.500000 0.116701 0.500000
O O12 0.500000 0.000000 0.431017
O O13 0.667431 0.500000 0.000000
O O14 0.500000 0.618327 0.000000
#
# Coordination Sequence:
#
# PCOD9485868 Si02
#       5
#    16  16  16   8   8
#     4  10  19  31  50  75 106 142 184 233 285 339
#     4   9  16  25  39  62  93 133 179 229 285 341
#     4  10  21  35  56  81 113 146 185 227 277 330
#     4   9  20  38  62  88 115 150 190 228 272 330
#     4   9  15  23  35  55  90 131 176 229 287 342
#
# _framework density 17.286718
#
# number of rings (size 3 to 8) (size 9 to 14) (size 15 to 20)
#    0.750    1.750    0.000    3.375    0.000    6.000 
#    0.000    0.000    0.000    0.000    0.000    6.125 
#    0.000    0.000    0.000    0.000    0.000    0.000 
#
# Total GULP energy -178292.619047 kJ/mol
# GULP energy per Si atom -5571.644345 kJ/mol
# Density = 1.724737 g / cm^3
# Si number density = 17.286718 Si / 1000 Ang^3
#
#
#
# Elastic Constant Matrix: (Units=GPa)
#
#
# Indices 1 2 3 4 5 6 
#
# 1 172.5244 34.8312 100.3466 0.0000 0.0000 0.0000
# 2 34.8312 25.4693 40.1569 0.0000 0.0000 0.0000
# 3 100.3466 40.1569 197.9629 0.0000 0.0000 0.0000
# 4 0.0000 0.0000 0.0000 -9.3163 0.0000 0.0000
# 5 0.0000 0.0000 0.0000 0.0000 -26.1860 0.0000
# 6 0.0000 0.0000 0.0000 0.0000 0.0000 23.3349
#
#
#
# Elastic Compliance Matrix: (Units=1/GPa)
#
#
# Indices 1 2 3 4 5 6 
#
# 1 0.009127 -0.007627 -0.003079 0.000000 0.000000 0.000000
# 2 -0.007627 0.064099 -0.009136 0.000000 0.000000 0.000000
# 3 -0.003079 -0.009136 0.008466 0.000000 0.000000 0.000000
# 4 0.000000 0.000000 0.000000 -0.107339 0.000000 0.000000
# 5 0.000000 0.000000 0.000000 0.000000 -0.038188 0.000000
# 6 0.000000 0.000000 0.000000 0.000000 0.000000 0.042854
#
#
# Mechanical properties :
#
#
# Convention : Reuss Voigt Hill
#
# Bulk Modulus (GPa) = 23.80609 82.95843 53.38226
# Shear Modulus (GPa) = 152.87869 12.27465 82.57667
#
# Velocity S-wave (km/s) = 9.41430 2.66759 6.91900
# Velocity P-wave (km/s) = 11.48796 7.58828 9.73538
#
# Compressibility (1/GPa) = 0.04200606
#
# Stress axis : x y z
#
# Youngs Moduli (GPa) = 109.56277 15.60099 118.12352
#
# Poissons Ratio (x) = 0.11899 0.36375
# Poissons Ratio (y) = 0.83562 1.07922
# Poissons Ratio (z) = 0.33739 0.14254
#
# Static dielectric constant tensor:
#      x y z
#    x 1.574050 0.000000 0.000000 
#    y 0.000000 1.578040 0.000000 
#    z 0.000000 0.000000 1.565110 
# 
# From -- ./inp_files/67201.got.cif
#   From: 2010.05.17/outbox.cif.g08.bks.cpg/sg65_34_cif.got.tgz:67201.got - 2010.06.03 17:01:31.
