data_PCOD9485300
_publ_section_title
;
Structure prediction by ZEFSAII (Michael W. Deem and Ramdas Pophale) SiO2 
 PCOD9485300
Probable space group: C M M M
;
_chemical_formula_sum "Si O2"
_cell_formula_units_Z 96
_cell_length_a 15.494225
_cell_length_b 15.891075
_cell_length_c 20.088761
_cell_angle_alpha 90.000000
_cell_angle_beta 90.000000
_cell_angle_gamma 90.000000
_cell_volume 4946.252555
_symmetry_space_group_name_H-M "C M M M"
_symmetry_group_IT_number 65
_symmetry_cell_setting 'orthorhombic'
loop_
_space_group_symop_operation_xyz
x,y,z
-x,-y,z
x,-y,-z
-x,y,-z
-x,-y,-z
x,y,-z
-x,y,z
x,-y,z
1/2+x,1/2+y,z
1/2-x,1/2-y,z
1/2+x,1/2-y,-z
1/2-x,1/2+y,-z
1/2-x,1/2-y,-z
1/2+x,1/2+y,-z
1/2-x,1/2+y,z
1/2+x,1/2-y,z
loop_
_atom_site_type_symbol
_atom_site_label
_atom_site_fract_x
_atom_site_fract_y
_atom_site_fract_z
Si Si1 0.818879 0.826739 0.793450
Si Si2 0.331424 0.906872 0.274837
Si Si3 0.394947 0.406493 0.577815
Si Si4 0.906238 0.599840 0.870813
Si Si5 0.279427 0.398067 0.924758
Si Si6 0.900994 0.243562 0.671016
O O1 0.750000 0.750000 0.796759
O O2 0.764364 0.898614 0.755518
O O3 0.837687 0.857314 0.867388
O O4 0.893370 0.796627 0.744841
O O5 0.390716 0.893768 0.208691
O O6 0.349638 0.830861 0.324744
O O7 0.347278 0.000000 0.301282
O O8 0.373098 0.396972 0.500000
O O9 0.500000 0.406846 0.582337
O O10 0.365695 0.500000 0.599998
O O11 0.365490 0.327403 0.621206
O O12 0.909366 0.500000 0.885520
O O13 0.819374 0.629805 0.907280
O O14 0.000000 0.636322 0.888557
O O15 0.282220 0.500000 0.919143
O O16 0.300848 0.374742 0.000000
O O17 0.000000 0.261455 0.654504
#
# Coordination Sequence:
#
# PCOD9485300 Si02
#       6
#    16  16  16  16  16  16
#     4   9  18  31  46  66  93 126 163 200 237 283
#     4   9  17  30  48  69  98 134 162 190 238 298
#     4   8  15  29  48  71 100 130 159 197 246 290
#     4   8  13  22  38  61  88 117 153 200 247 284
#     4   9  17  28  42  60  84 120 162 199 242 296
#     4  10  19  30  50  79 101 121 159 207 248 285
#
# _framework density 19.408632999999998
#
# number of rings (size 3 to 8) (size 9 to 14) (size 15 to 20)
#    0.000    3.167    0.000    2.500    0.000    3.000 
#    0.000    1.667    0.000    5.500    0.000    3.500 
#    0.000    0.000    0.000    0.000    0.000    0.000 
#
# Total GULP energy -267338.825932 kJ/mol
# GULP energy per Si atom -5569.558874 kJ/mol
# Density = 1.936446 g / cm^3
# Si number density = 19.408633 Si / 1000 Ang^3
#
#
#
# Elastic Constant Matrix: (Units=GPa)
#
#
# Indices 1 2 3 4 5 6 
#
# 1 13.5883 4.5527 -0.4809 0.0000 0.0000 0.0000
# 2 4.5527 121.9244 64.8812 0.0000 0.0000 0.0000
# 3 -0.4809 64.8812 72.0844 0.0000 0.0000 0.0000
# 4 0.0000 0.0000 0.0000 26.8497 0.0000 0.0000
# 5 0.0000 0.0000 0.0000 0.0000 15.4677 0.0000
# 6 0.0000 0.0000 0.0000 0.0000 0.0000 16.4411
#
#
#
# Elastic Compliance Matrix: (Units=1/GPa)
#
#
# Indices 1 2 3 4 5 6 
#
# 1 0.075793 -0.005948 0.005860 0.000000 0.000000 0.000000
# 2 -0.005948 0.016208 -0.014628 0.000000 0.000000 0.000000
# 3 0.005860 -0.014628 0.027078 0.000000 0.000000 0.000000
# 4 0.000000 0.000000 0.000000 0.037244 0.000000 0.000000
# 5 0.000000 0.000000 0.000000 0.000000 0.064651 0.000000
# 6 0.000000 0.000000 0.000000 0.000000 0.000000 0.060823
#
#
# Mechanical properties :
#
#
# Convention : Reuss Voigt Hill
#
# Bulk Modulus (GPa) = 11.15503 38.38923 24.77213
# Shear Modulus (GPa) = 14.65786 20.99465 17.82626
#
# Velocity S-wave (km/s) = 2.75112 3.29251 3.03392
# Velocity P-wave (km/s) = 3.98139 5.85462 5.00640
#
# Compressibility (1/GPa) = 0.08964564
#
# Stress axis : x y z
#
# Youngs Moduli (GPa) = 13.19379 61.69700 36.93004
#
# Poissons Ratio (x) = 0.36699 -0.21639
# Poissons Ratio (y) = 0.07848 0.54022
# Poissons Ratio (z) = -0.07731 0.90252
#
# Static dielectric constant tensor:
#      x y z
#    x 1.689800 0.000000 0.000000 
#    y 0.000000 1.737160 0.000000 
#    z 0.000000 0.000000 1.690440 
# 
# From -- ./inp_files/54478.got.cif
#   From: 2010.05.17/outbox.cif.g08.bks.cpg/sg65_28_cif.got.tgz:54478.got - 2010.06.03 17:01:31.
