data_PCOD9485657
_publ_section_title
;
Structure prediction by ZEFSAII (Michael W. Deem and Ramdas Pophale) SiO2 
 PCOD9485657
Probable space group: C M M M
;
_chemical_formula_sum "Si O2"
_cell_formula_units_Z 88
_cell_length_a 18.819123
_cell_length_b 7.777902
_cell_length_c 30.238390
_cell_angle_alpha 90.000000
_cell_angle_beta 90.000000
_cell_angle_gamma 90.000000
_cell_volume 4426.092762
_symmetry_space_group_name_H-M "C M M M"
_symmetry_group_IT_number 65
_symmetry_cell_setting 'orthorhombic'
loop_
_space_group_symop_operation_xyz
x,y,z
-x,-y,z
x,-y,-z
-x,y,-z
-x,-y,-z
x,y,-z
-x,y,z
x,-y,z
1/2+x,1/2+y,z
1/2-x,1/2-y,z
1/2+x,1/2-y,-z
1/2-x,1/2+y,-z
1/2-x,1/2-y,-z
1/2+x,1/2+y,-z
1/2-x,1/2+y,z
1/2+x,1/2-y,z
loop_
_atom_site_type_symbol
_atom_site_label
_atom_site_fract_x
_atom_site_fract_y
_atom_site_fract_z
Si Si1 0.582206 0.710721 0.413228
Si Si2 0.166084 0.206954 0.230460
Si Si3 0.919109 0.293869 0.951704
Si Si4 0.166512 0.207349 0.673077
Si Si5 0.166955 0.206790 0.500000
Si Si6 0.832783 0.796286 0.864774
O O1 0.500000 0.763206 0.415605
O O2 0.582984 0.500000 0.413132
O O3 0.620558 0.769344 0.368263
O O4 0.626887 0.768446 0.455896
O O5 0.250000 0.250000 0.230017
O O6 0.140921 0.271017 0.278470
O O7 0.139133 0.273259 0.182812
O O8 0.157526 0.000000 0.230924
O O9 0.922159 0.500000 0.954011
O O10 0.873667 0.253920 0.908805
O O11 0.000000 0.229779 0.946588
O O12 0.891999 0.232644 0.000000
O O13 0.250000 0.250000 0.667632
O O14 0.161481 0.000000 0.673584
O O15 0.250000 0.250000 0.500000
O O16 0.161330 0.000000 0.500000
O O17 0.750000 0.750000 0.868893
O O18 0.837437 0.000000 0.861619
#
# Coordination Sequence:
#
# PCOD9485657 Si02
#       6
#    16  16  16  16   8  16
#     4   9  17  29  46  68  93 122 155 190 229 273
#     4   8  15  27  43  66  93 120 151 187 228 271
#     4   9  19  36  54  70  92 124 159 194 235 284
#     4   9  16  28  47  68  90 119 155 191 227 270
#     4  10  19  31  49  71  93 118 154 196 232 272
#     4  10  19  31  49  73  99 125 156 195 237 280
#
# _framework density 19.882096000000001
#
# number of rings (size 3 to 8) (size 9 to 14) (size 15 to 20)
#    0.000    2.909    0.000    1.909    0.000    2.909 
#    0.000    1.818    0.000    6.000    0.000    0.000 
#    0.000    0.000    0.000    0.000    0.000    0.000 
#
# Total GULP energy -245133.154171 kJ/mol
# GULP energy per Si atom -5571.208049 kJ/mol
# Density = 1.983684 g / cm^3
# Si number density = 19.882096 Si / 1000 Ang^3
#
#
#
# Elastic Constant Matrix: (Units=GPa)
#
#
# Indices 1 2 3 4 5 6 
#
# 1 97.1890 1.9187 112.6349 0.0000 0.0000 0.0000
# 2 1.9187 26.3838 15.3224 0.0000 0.0000 0.0000
# 3 112.6349 15.3224 281.1355 0.0000 0.0000 0.0000
# 4 0.0000 0.0000 0.0000 24.3665 0.0000 0.0000
# 5 0.0000 0.0000 0.0000 0.0000 -24.3595 0.0000
# 6 0.0000 0.0000 0.0000 0.0000 0.0000 13.4276
#
#
#
# Elastic Compliance Matrix: (Units=1/GPa)
#
#
# Indices 1 2 3 4 5 6 
#
# 1 0.019468 0.003216 -0.007975 0.000000 0.000000 0.000000
# 2 0.003216 0.039672 -0.003451 0.000000 0.000000 0.000000
# 3 -0.007975 -0.003451 0.006940 0.000000 0.000000 0.000000
# 4 0.000000 0.000000 0.000000 0.041040 0.000000 0.000000
# 5 0.000000 0.000000 0.000000 0.000000 -0.041052 0.000000
# 6 0.000000 0.000000 0.000000 0.000000 0.000000 0.074474
#
#
# Mechanical properties :
#
#
# Convention : Reuss Voigt Hill
#
# Bulk Modulus (GPa) = 20.13658 73.82890 46.98274
# Shear Modulus (GPa) = 28.81581 21.00907 24.91244
#
# Velocity S-wave (km/s) = 3.81114 3.25419 3.54363
# Velocity P-wave (km/s) = 5.43290 7.16475 6.35807
#
# Compressibility (1/GPa) = 0.04966085
#
# Stress axis : x y z
#
# Youngs Moduli (GPa) = 51.36560 25.20662 144.08753
#
# Poissons Ratio (x) = -0.08106 1.14911
# Poissons Ratio (y) = -0.16518 0.49718
# Poissons Ratio (z) = 0.40965 0.08698
#
# Static dielectric constant tensor:
#      x y z
#    x 1.639870 0.000000 0.000000 
#    y 0.000000 1.915040 0.000000 
#    z 0.000000 0.000000 1.775330 
# 
# From -- ./inp_files/76645.got.cif
#   From: 2010.05.17/outbox.cif.g08.bks.cpg/sg65_39_cif.got.tgz:76645.got - 2010.06.03 17:01:31.
