data_PCOD9485828
_publ_section_title
;
Structure prediction by ZEFSAII (Michael W. Deem and Ramdas Pophale) SiO2 
 PCOD9485828
Probable space group: C M M M
;
_chemical_formula_sum "Si O2"
_cell_formula_units_Z 80
_cell_length_a 26.995756
_cell_length_b 19.726361
_cell_length_c 8.523754
_cell_angle_alpha 90.000000
_cell_angle_beta 90.000000
_cell_angle_gamma 90.000000
_cell_volume 4539.137912
_symmetry_space_group_name_H-M "C M M M"
_symmetry_group_IT_number 65
_symmetry_cell_setting 'orthorhombic'
loop_
_space_group_symop_operation_xyz
x,y,z
-x,-y,z
x,-y,-z
-x,y,-z
-x,-y,-z
x,y,-z
-x,y,z
x,-y,z
1/2+x,1/2+y,z
1/2-x,1/2-y,z
1/2+x,1/2-y,-z
1/2-x,1/2+y,-z
1/2-x,1/2-y,-z
1/2+x,1/2+y,-z
1/2-x,1/2+y,z
1/2+x,1/2-y,z
loop_
_atom_site_type_symbol
_atom_site_label
_atom_site_fract_x
_atom_site_fract_y
_atom_site_fract_z
Si Si1 0.806106 0.578128 0.689379
Si Si2 0.000000 0.328157 0.180535
Si Si3 0.500000 0.663208 0.181426
Si Si4 0.605714 0.176161 0.312238
Si Si5 0.801180 0.078358 0.810631
Si Si6 0.607540 0.671092 0.190734
O O1 0.805551 0.578576 0.500000
O O2 0.813139 0.500000 0.741126
O O3 0.850768 0.626121 0.742192
O O4 0.752327 0.601169 0.748854
O O5 0.000000 0.245549 0.182959
O O6 0.051247 0.348820 0.261050
O O7 0.000000 0.349416 0.000000
O O8 0.553687 0.644534 0.249213
O O9 0.500000 0.640311 0.000000
O O10 0.606973 0.180197 0.500000
O O11 0.613444 0.251456 0.244380
O O12 0.846582 0.125149 0.758011
O O13 0.808288 0.000000 0.761322
O O14 0.800130 0.079779 0.000000
O O15 0.605676 0.670868 0.000000
#
# Coordination Sequence:
#
# PCOD9485828 Si02
#       6
#    16   8   8  16  16  16
#     4   9  19  35  51  67  92 127 162 197 241 287
#     4   9  17  31  50  71  98 128 154 186 236 288
#     4   7  12  25  44  64  88 120 150 177 220 276
#     4  10  19  31  50  74  96 121 159 200 234 279
#     4   9  18  32  49  69  94 126 164 202 239 284
#     4   9  17  30  48  70  97 127 159 197 241 284
#
# _framework density 17.624490999999999
#
# number of rings (size 3 to 8) (size 9 to 14) (size 15 to 20)
#    0.000    3.000    0.000    2.100    0.000    3.200 
#    0.000    5.000    0.000    6.000    0.000    0.000 
#    0.000    8.000    0.000    0.000    0.000    0.000 
#
# Total GULP energy -222800.075230 kJ/mol
# GULP energy per Si atom -5570.001881 kJ/mol
# Density = 1.758438 g / cm^3
# Si number density = 17.624491 Si / 1000 Ang^3
#
#
#
# Elastic Constant Matrix: (Units=GPa)
#
#
# Indices 1 2 3 4 5 6 
#
# 1 219.7390 88.8748 24.1456 0.0000 0.0000 0.0000
# 2 88.8748 56.3286 11.6285 0.0000 0.0000 0.0000
# 3 24.1456 11.6285 12.7395 0.0000 0.0000 0.0000
# 4 0.0000 0.0000 0.0000 17.9434 0.0000 0.0000
# 5 0.0000 0.0000 0.0000 0.0000 17.9035 0.0000
# 6 0.0000 0.0000 0.0000 0.0000 0.0000 -19.6227
#
#
#
# Elastic Compliance Matrix: (Units=1/GPa)
#
#
# Indices 1 2 3 4 5 6 
#
# 1 0.013113 -0.019171 -0.007354 0.000000 0.000000 0.000000
# 2 -0.019171 0.049903 -0.009216 0.000000 0.000000 0.000000
# 3 -0.007354 -0.009216 0.100846 0.000000 0.000000 0.000000
# 4 0.000000 0.000000 0.000000 0.055731 0.000000 0.000000
# 5 0.000000 0.000000 0.000000 0.000000 0.055855 0.000000
# 6 0.000000 0.000000 0.000000 0.000000 0.000000 -0.050961
#
#
# Mechanical properties :
#
#
# Convention : Reuss Voigt Hill
#
# Bulk Modulus (GPa) = 10.82479 59.78943 35.30711
# Shear Modulus (GPa) = 15.30166 14.18873 14.74519
#
# Velocity S-wave (km/s) = 2.94973 2.84043 2.89559
# Velocity P-wave (km/s) = 4.21384 6.68993 5.59069
#
# Compressibility (1/GPa) = 0.09238055
#
# Stress axis : x y z
#
# Youngs Moduli (GPa) = 76.26160 20.03870 9.91610
#
# Poissons Ratio (x) = 0.38416 0.07292
# Poissons Ratio (y) = 1.46202 0.09139
# Poissons Ratio (z) = 0.56081 0.18468
#
# Static dielectric constant tensor:
#      x y z
#    x 1.621950 0.000000 0.000000 
#    y 0.000000 1.580250 0.000000 
#    z 0.000000 0.000000 1.608390 
# 
# From -- ./inp_files/9707.got.cif
#   From: 2010.05.17/outbox.cif.g08.bks.cpg/sg65_5_cif.got.tgz:9707.got - 2010.06.03 17:01:31.
