data_PCOD9485408
_publ_section_title
;
Structure prediction by ZEFSAII (Michael W. Deem and Ramdas Pophale) SiO2 
 PCOD9485408
Probable space group: C M M M
;
_chemical_formula_sum "Si O2"
_cell_formula_units_Z 104
_cell_length_a 18.572599
_cell_length_b 21.654686
_cell_length_c 14.394498
_cell_angle_alpha 90.000000
_cell_angle_beta 90.000000
_cell_angle_gamma 90.000000
_cell_volume 5789.233898
_symmetry_space_group_name_H-M "C M M M"
_symmetry_group_IT_number 65
_symmetry_cell_setting 'orthorhombic'
loop_
_space_group_symop_operation_xyz
x,y,z
-x,-y,z
x,-y,-z
-x,y,-z
-x,-y,-z
x,y,-z
-x,y,z
x,-y,z
1/2+x,1/2+y,z
1/2-x,1/2-y,z
1/2+x,1/2-y,-z
1/2-x,1/2+y,-z
1/2-x,1/2-y,-z
1/2+x,1/2+y,-z
1/2-x,1/2+y,z
1/2+x,1/2-y,z
loop_
_atom_site_type_symbol
_atom_site_label
_atom_site_fract_x
_atom_site_fract_y
_atom_site_fract_z
Si Si1 0.187803 0.341344 0.602318
Si Si2 0.000000 0.573981 0.888405
Si Si3 0.849756 0.195029 0.396726
Si Si4 0.918185 0.775591 0.208876
Si Si5 0.861860 0.358824 0.798896
Si Si6 0.578764 0.399679 0.890283
Si Si7 0.764029 0.068335 0.111689
O O1 0.171220 0.366777 0.500000
O O2 0.167673 0.268481 0.600684
O O3 0.274178 0.340606 0.615894
O O4 0.146545 0.370635 0.688581
O O5 0.929132 0.605821 0.844455
O O6 0.000000 0.500000 0.872247
O O7 0.000000 0.583804 0.000000
O O8 0.878918 0.179291 0.500000
O O9 0.897422 0.189774 0.304815
O O10 0.871087 0.715051 0.191103
O O11 0.914544 0.826562 0.128821
O O12 0.000000 0.753068 0.217604
O O13 0.788266 0.381454 0.845301
O O14 0.500000 0.418860 0.852073
O O15 0.653411 0.427475 0.854618
O O16 0.576913 0.412671 0.000000
O O17 0.735198 0.000000 0.133239
O O18 0.764587 0.075281 0.000000
#
# Coordination Sequence:
#
# PCOD9485408 Si02
#       7
#    16   8  16  16  16  16  16
#     4   8  15  28  48  73  99 129 166 208 257 311
#     4  11  24  40  55  71  97 139 189 235 274 309
#     4   8  14  26  45  70 102 136 166 201 247 304
#     4  10  19  31  46  75 109 138 170 205 256 313
#     4  11  20  34  53  76 102 137 175 218 266 306
#     4   9  19  34  51  74 105 135 160 201 262 324
#     4  10  21  36  54  75  96 126 175 223 259 306
#
# _framework density 17.964379999999998
#
# number of rings (size 3 to 8) (size 9 to 14) (size 15 to 20)
#    0.000    2.538    0.769    2.769    0.000    4.923 
#    0.000    3.462    0.000    2.308    0.000    0.000 
#    0.000    0.000    0.000   13.231    0.000    0.923 
#
# Total GULP energy -289566.525013 kJ/mol
# GULP energy per Si atom -5568.587019 kJ/mol
# Density = 1.792349 g / cm^3
# Si number density = 17.964380 Si / 1000 Ang^3
#
#
#
# Elastic Constant Matrix: (Units=GPa)
#
#
# Indices 1 2 3 4 5 6 
#
# 1 78.8986 17.4336 30.8591 0.0000 0.0000 0.0000
# 2 17.4336 40.4707 22.0760 0.0000 0.0000 0.0000
# 3 30.8591 22.0760 64.9464 0.0000 0.0000 0.0000
# 4 0.0000 0.0000 0.0000 1.1964 0.0000 0.0000
# 5 0.0000 0.0000 0.0000 0.0000 27.5009 0.0000
# 6 0.0000 0.0000 0.0000 0.0000 0.0000 17.7839
#
#
#
# Elastic Compliance Matrix: (Units=1/GPa)
#
#
# Indices 1 2 3 4 5 6 
#
# 1 0.015930 -0.003356 -0.006429 0.000000 0.000000 0.000000
# 2 -0.003356 0.031040 -0.008957 0.000000 0.000000 0.000000
# 3 -0.006429 -0.008957 0.021496 0.000000 0.000000 0.000000
# 4 0.000000 0.000000 0.000000 0.835842 0.000000 0.000000
# 5 0.000000 0.000000 0.000000 0.000000 0.036362 0.000000
# 6 0.000000 0.000000 0.000000 0.000000 0.000000 0.056231
#
#
# Mechanical properties :
#
#
# Convention : Reuss Voigt Hill
#
# Bulk Modulus (GPa) = 32.27330 36.11701 34.19515
# Shear Modulus (GPa) = 4.78601 16.89270 10.83935
#
# Velocity S-wave (km/s) = 1.63400 3.06983 2.45904
# Velocity P-wave (km/s) = 4.64372 5.71958 5.20949
#
# Compressibility (1/GPa) = 0.03098537
#
# Stress axis : x y z
#
# Youngs Moduli (GPa) = 62.77319 32.21618 46.51964
#
# Poissons Ratio (x) = 0.10811 0.29906
# Poissons Ratio (y) = 0.21064 0.41665
# Poissons Ratio (z) = 0.40355 0.28854
#
# Static dielectric constant tensor:
#      x y z
#    x 1.646080 0.000000 0.000000 
#    y 0.000000 1.611610 0.000000 
#    z 0.000000 0.000000 1.642990 
# 
# From -- ./inp_files/43077.got.cif
#   From: 2010.05.17/outbox.cif.g08.bks.cpg/sg65_22_cif.got.tgz:43077.got - 2010.06.03 17:01:31.
