data_PCOD9485629
_publ_section_title
;
Structure prediction by ZEFSAII (Michael W. Deem and Ramdas Pophale) SiO2 
 PCOD9485629
Probable space group: C M M M
;
_chemical_formula_sum "Si O2"
_cell_formula_units_Z 88
_cell_length_a 7.364991
_cell_length_b 18.578333
_cell_length_c 30.404389
_cell_angle_alpha 90.000000
_cell_angle_beta 90.000000
_cell_angle_gamma 90.000000
_cell_volume 4160.209906
_symmetry_space_group_name_H-M "C M M M"
_symmetry_group_IT_number 65
_symmetry_cell_setting 'orthorhombic'
loop_
_space_group_symop_operation_xyz
x,y,z
-x,-y,z
x,-y,-z
-x,y,-z
-x,-y,-z
x,y,-z
-x,y,z
x,-y,z
1/2+x,1/2+y,z
1/2-x,1/2-y,z
1/2+x,1/2-y,-z
1/2-x,1/2+y,-z
1/2-x,1/2-y,-z
1/2+x,1/2+y,-z
1/2-x,1/2+y,z
1/2+x,1/2-y,z
loop_
_atom_site_type_symbol
_atom_site_label
_atom_site_fract_x
_atom_site_fract_y
_atom_site_fract_z
Si Si1 0.222110 0.083282 0.087259
Si Si2 0.283318 0.336012 0.270088
Si Si3 0.282845 0.335275 0.365396
Si Si4 0.782789 0.835519 0.825673
Si Si5 0.716575 0.665059 0.000000
Si Si6 0.221030 0.916048 0.548307
O O1 0.284540 0.121232 0.132163
O O2 0.284027 0.127101 0.044398
O O3 0.000000 0.085016 0.087501
O O4 0.275485 0.000000 0.084998
O O5 0.500000 0.348048 0.270063
O O6 0.250000 0.250000 0.270245
O O7 0.213559 0.361873 0.317590
O O8 0.213117 0.360392 0.222400
O O9 0.500000 0.346137 0.364704
O O10 0.250000 0.250000 0.368335
O O11 0.212694 0.373607 0.409103
O O12 0.750000 0.750000 0.830688
O O13 0.000000 0.844804 0.824585
O O14 0.750000 0.750000 0.000000
O O15 0.500000 0.654745 0.000000
O O16 0.279555 0.889152 0.500000
O O17 0.000000 0.912816 0.548464
O O18 0.270008 0.000000 0.551656
#
# Coordination Sequence:
#
# PCOD9485629 Si02
#       6
#    16  16  16  16   8  16
#     4   9  17  29  45  65  88 113 140 170 206 246
#     4   8  14  24  38  58  82 106 132 163 201 240
#     4   9  16  26  41  61  83 105 132 167 204 241
#     4   9  16  27  44  63  83 109 140 171 201 238
#     4  10  19  31  49  69  87 110 142 176 206 242
#     4   8  14  25  40  57  78 105 135 165 199 241
#
# _framework density 21.15278
#
# number of rings (size 3 to 8) (size 9 to 14) (size 15 to 20)
#    0.000    3.273    0.000    1.364    0.000    1.455 
#    0.000    0.909    0.000    8.727    0.000    1.273 
#    0.000   14.545    0.000    0.000    0.000    0.000 
#
# Total GULP energy -245285.569595 kJ/mol
# GULP energy per Si atom -5574.672036 kJ/mol
# Density = 2.110464 g / cm^3
# Si number density = 21.152780 Si / 1000 Ang^3
#
#
#
# Elastic Constant Matrix: (Units=GPa)
#
#
# Indices 1 2 3 4 5 6 
#
# 1 80.5145 -2.6921 14.1765 0.0000 0.0000 0.0000
# 2 -2.6921 88.9801 113.0942 0.0000 0.0000 0.0000
# 3 14.1765 113.0942 307.7555 0.0000 0.0000 0.0000
# 4 0.0000 0.0000 0.0000 -42.8285 0.0000 0.0000
# 5 0.0000 0.0000 0.0000 0.0000 -9.2370 0.0000
# 6 0.0000 0.0000 0.0000 0.0000 0.0000 10.9211
#
#
#
# Elastic Compliance Matrix: (Units=1/GPa)
#
#
# Indices 1 2 3 4 5 6 
#
# 1 0.012732 0.002121 -0.001366 0.000000 0.000000 0.000000
# 2 0.002121 0.021442 -0.007977 0.000000 0.000000 0.000000
# 3 -0.001366 -0.007977 0.006244 0.000000 0.000000 0.000000
# 4 0.000000 0.000000 0.000000 -0.023349 0.000000 0.000000
# 5 0.000000 0.000000 0.000000 0.000000 -0.108261 0.000000
# 6 0.000000 0.000000 0.000000 0.000000 0.000000 0.091565
#
#
# Mechanical properties :
#
#
# Convention : Reuss Voigt Hill
#
# Bulk Modulus (GPa) = 38.50082 80.71194 59.60638
# Shear Modulus (GPa) = 213.00316 15.28258 114.14287
#
# Velocity S-wave (km/s) = 10.04570 2.69083 7.35380
# Velocity P-wave (km/s) = 12.36105 6.92052 10.01721
#
# Compressibility (1/GPa) = 0.02597347
#
# Stress axis : x y z
#
# Youngs Moduli (GPa) = 78.54483 46.63836 160.16173
#
# Poissons Ratio (x) = -0.09894 0.21879
# Poissons Ratio (y) = -0.16663 1.27763
# Poissons Ratio (z) = 0.10730 0.37204
#
# Static dielectric constant tensor:
#      x y z
#    x 1.801160 0.000000 0.000000 
#    y 0.000000 1.688300 0.000000 
#    z 0.000000 0.000000 1.810940 
# 
# From -- ./inp_files/74762.got.cif
#   From: 2010.05.17/outbox.cif.g08.bks.cpg/sg65_38_cif.got.tgz:74762.got - 2010.06.03 17:01:31.
