data_PCOD9485416
_publ_section_title
;
Structure prediction by ZEFSAII (Michael W. Deem and Ramdas Pophale) SiO2 
 PCOD9485416
Probable space group: C M M M
;
_chemical_formula_sum "Si O2"
_cell_formula_units_Z 96
_cell_length_a 27.981635
_cell_length_b 7.702641
_cell_length_c 25.214112
_cell_angle_alpha 90.000000
_cell_angle_beta 90.000000
_cell_angle_gamma 90.000000
_cell_volume 5434.460317
_symmetry_space_group_name_H-M "C M M M"
_symmetry_group_IT_number 65
_symmetry_cell_setting 'orthorhombic'
loop_
_space_group_symop_operation_xyz
x,y,z
-x,-y,z
x,-y,-z
-x,y,-z
-x,-y,-z
x,y,-z
-x,y,z
x,-y,z
1/2+x,1/2+y,z
1/2-x,1/2-y,z
1/2+x,1/2-y,-z
1/2-x,1/2+y,-z
1/2-x,1/2-y,-z
1/2+x,1/2+y,-z
1/2-x,1/2+y,z
1/2+x,1/2-y,z
loop_
_atom_site_type_symbol
_atom_site_label
_atom_site_fract_x
_atom_site_fract_y
_atom_site_fract_z
Si Si1 0.052643 0.796622 0.668250
Si Si2 0.693783 0.709024 0.172214
Si Si3 0.306623 0.708879 0.942952
Si Si4 0.804061 0.206658 0.608832
Si Si5 0.597666 0.797295 0.558560
Si Si6 0.350089 0.287136 0.718085
O O1 0.068887 0.785195 0.607002
O O2 0.096962 0.725156 0.702100
O O3 0.000000 0.719638 0.675716
O O4 0.049896 0.000000 0.681723
O O5 0.689163 0.500000 0.171762
O O6 0.750000 0.750000 0.176671
O O7 0.675873 0.773563 0.114476
O O8 0.667430 0.774022 0.224737
O O9 0.311931 0.500000 0.943103
O O10 0.250000 0.750000 0.942914
O O11 0.325662 0.774063 0.000000
O O12 0.750000 0.250000 0.593934
O O13 0.846047 0.281391 0.572327
O O14 0.815523 0.264686 0.669357
O O15 0.809953 0.000000 0.607173
O O16 0.588329 0.724939 0.500000
O O17 0.585180 0.000000 0.558516
O O18 0.350165 0.500000 0.718636
#
# Coordination Sequence:
#
# PCOD9485416 Si02
#       6
#    16  16  16  16  16  16
#     4   9  18  33  51  67  83 104 130 164 208 254
#     4   9  15  23  36  54  79 108 136 166 197 231
#     4   8  13  20  30  46  70 102 137 167 194 225
#     4  10  19  31  47  65  87 114 142 171 203 240
#     4  10  21  35  49  66  87 109 135 166 199 240
#     4   8  15  27  42  61  82 104 133 168 203 241
#
# _framework density 17.665047999999999
#
# number of rings (size 3 to 8) (size 9 to 14) (size 15 to 20)
#    0.000    3.000    0.000    2.500    0.000    2.333 
#    0.000    5.000    0.000    0.000    0.000    0.000 
#    0.000    0.667    0.000    9.333    0.000    0.000 
#
# Total GULP energy -267349.000464 kJ/mol
# GULP energy per Si atom -5569.770843 kJ/mol
# Density = 1.762484 g / cm^3
# Si number density = 17.665048 Si / 1000 Ang^3
#
#
#
# Elastic Constant Matrix: (Units=GPa)
#
#
# Indices 1 2 3 4 5 6 
#
# 1 60.4142 -7.9397 15.8892 0.0000 0.0000 0.0000
# 2 -7.9397 31.4198 -3.8921 0.0000 0.0000 0.0000
# 3 15.8892 -3.8921 125.2836 0.0000 0.0000 0.0000
# 4 0.0000 0.0000 0.0000 194.1701 0.0000 0.0000
# 5 0.0000 0.0000 0.0000 0.0000 7.8385 0.0000
# 6 0.0000 0.0000 0.0000 0.0000 0.0000 9.2274
#
#
#
# Elastic Compliance Matrix: (Units=1/GPa)
#
#
# Indices 1 2 3 4 5 6 
#
# 1 0.017659 0.004201 -0.002109 0.000000 0.000000 0.000000
# 2 0.004201 0.032950 0.000491 0.000000 0.000000 0.000000
# 3 -0.002109 0.000491 0.008265 0.000000 0.000000 0.000000
# 4 0.000000 0.000000 0.000000 0.005150 0.000000 0.000000
# 5 0.000000 0.000000 0.000000 0.000000 0.127575 0.000000
# 6 0.000000 0.000000 0.000000 0.000000 0.000000 0.108373
#
#
# Mechanical properties :
#
#
# Convention : Reuss Voigt Hill
#
# Bulk Modulus (GPa) = 15.61545 25.02581 20.32063
# Shear Modulus (GPa) = 15.81513 56.45119 36.13316
#
# Velocity S-wave (km/s) = 2.99537 5.65914 4.52758
# Velocity P-wave (km/s) = 4.56310 7.54312 6.23380
#
# Compressibility (1/GPa) = 0.06403914
#
# Stress axis : x y z
#
# Youngs Moduli (GPa) = 56.62755 30.34944 120.99751
#
# Poissons Ratio (x) = -0.12750 0.25520
# Poissons Ratio (y) = -0.23790 -0.05939
# Poissons Ratio (z) = 0.11944 -0.01490
#
# Static dielectric constant tensor:
#      x y z
#    x 1.620490 0.000000 0.000000 
#    y 0.000000 1.670170 0.000000 
#    z 0.000000 0.000000 1.651930 
# 
# From -- ./inp_files/68044.got.cif
#   From: 2010.05.17/outbox.cif.g08.bks.cpg/sg65_35_cif.got.tgz:68044.got - 2010.06.03 17:01:31.
