data_PCOD9485384
_publ_section_title
;
Structure prediction by ZEFSAII (Michael W. Deem and Ramdas Pophale) SiO2 
 PCOD9485384
Probable space group: C M M M
;
_chemical_formula_sum "Si O2"
_cell_formula_units_Z 72
_cell_length_a 24.170521
_cell_length_b 7.321779
_cell_length_c 18.613474
_cell_angle_alpha 90.000000
_cell_angle_beta 90.000000
_cell_angle_gamma 90.000000
_cell_volume 3294.049073
_symmetry_space_group_name_H-M "C M M M"
_symmetry_group_IT_number 65
_symmetry_cell_setting 'orthorhombic'
loop_
_space_group_symop_operation_xyz
x,y,z
-x,-y,z
x,-y,-z
-x,y,-z
-x,-y,-z
x,y,-z
-x,y,z
x,-y,z
1/2+x,1/2+y,z
1/2-x,1/2-y,z
1/2+x,1/2-y,-z
1/2-x,1/2+y,-z
1/2-x,1/2-y,-z
1/2+x,1/2+y,-z
1/2-x,1/2+y,z
1/2+x,1/2-y,z
loop_
_atom_site_type_symbol
_atom_site_label
_atom_site_fract_x
_atom_site_fract_y
_atom_site_fract_z
Si Si1 0.315590 0.782158 0.000000
Si Si2 0.116210 0.722947 0.581196
Si Si3 0.000000 0.722253 0.816874
Si Si4 0.121151 0.276554 0.857904
Si Si5 0.000000 0.277909 0.350093
Si Si6 0.314875 0.782678 0.715889
O O1 0.250000 0.750000 0.000000
O O2 0.345571 0.714421 0.927951
O O3 0.322881 0.000000 0.000000
O O4 0.126755 0.783673 0.500000
O O5 0.116739 0.500000 0.580018
O O6 0.160087 0.785033 0.640828
O O7 0.055536 0.778063 0.609100
O O8 0.942961 0.779050 0.854181
O O9 0.000000 0.779338 0.733179
O O10 0.000000 0.500000 0.816371
O O11 0.121957 0.500000 0.857982
O O12 0.151772 0.214966 0.785239
O O13 0.000000 0.500000 0.349217
O O14 0.250000 0.750000 0.722746
O O15 0.323635 0.000000 0.715415
#
# Coordination Sequence:
#
# PCOD9485384 Si02
#       6
#     8  16   8  16   8  16
#     4  10  20  33  49  71  97 126 157 188 220 264
#     4   9  16  25  40  64  91 118 150 188 229 273
#     4   9  14  24  44  68  94 119 143 184 238 280
#     4   9  17  29  46  69  95 120 150 188 232 274
#     4   9  13  22  40  64  92 118 144 182 235 279
#     4  10  19  31  46  65  91 123 155 188 225 268
#
# _framework density 21.857597999999999
#
# number of rings (size 3 to 8) (size 9 to 14) (size 15 to 20)
#    0.000    2.667    2.222    1.000    0.000    2.222 
#    0.000    2.222    0.000    0.000    0.000    6.222 
#    0.000    1.778    0.000    0.000    0.000    0.000 
#
# Total GULP energy -201159.272044 kJ/mol
# GULP energy per Si atom -5587.757557 kJ/mol
# Density = 2.180785 g / cm^3
# Si number density = 21.857598 Si / 1000 Ang^3
#
#
#
# Elastic Constant Matrix: (Units=GPa)
#
#
# Indices 1 2 3 4 5 6 
#
# 1 217.3476 -2.7100 131.2426 0.0000 0.0000 0.0000
# 2 -2.7100 86.3078 9.9714 0.0000 0.0000 0.0000
# 3 131.2426 9.9714 215.1945 0.0000 0.0000 0.0000
# 4 0.0000 0.0000 0.0000 -15.5221 0.0000 0.0000
# 5 0.0000 0.0000 0.0000 0.0000 35.9925 0.0000
# 6 0.0000 0.0000 0.0000 0.0000 0.0000 8.5356
#
#
#
# Elastic Compliance Matrix: (Units=1/GPa)
#
#
# Indices 1 2 3 4 5 6 
#
# 1 0.007331 0.000751 -0.004506 0.000000 0.000000 0.000000
# 2 0.000751 0.011726 -0.001001 0.000000 0.000000 0.000000
# 3 -0.004506 -0.001001 0.007441 0.000000 0.000000 0.000000
# 4 0.000000 0.000000 0.000000 -0.064424 0.000000 0.000000
# 5 0.000000 0.000000 0.000000 0.000000 0.027784 0.000000
# 6 0.000000 0.000000 0.000000 0.000000 0.000000 0.117156
#
#
# Mechanical properties :
#
#
# Convention : Reuss Voigt Hill
#
# Bulk Modulus (GPa) = 58.87358 88.42866 73.65112
# Shear Modulus (GPa) = 40.92050 31.15761 36.03906
#
# Velocity S-wave (km/s) = 4.33152 3.77965 4.06496
# Velocity P-wave (km/s) = 7.21177 7.71960 7.47000
#
# Compressibility (1/GPa) = 0.01698555
#
# Stress axis : x y z
#
# Youngs Moduli (GPa) = 136.40523 85.28288 134.38355
#
# Poissons Ratio (x) = -0.06403 0.60551
# Poissons Ratio (y) = -0.10241 0.13455
# Poissons Ratio (z) = 0.61462 0.08539
#
# Static dielectric constant tensor:
#      x y z
#    x 1.748290 0.000000 0.000000 
#    y 0.000000 1.889560 0.000000 
#    z 0.000000 0.000000 1.758980 
# 
# From -- ./inp_files/51330.got.cif
#   From: 2010.05.17/outbox.cif.g08.bks.cpg/sg65_26_cif.got.tgz:51330.got - 2010.06.03 17:01:31.
