data_PCOD9485459
_publ_section_title
;
Structure prediction by ZEFSAII (Michael W. Deem and Ramdas Pophale) SiO2 
 PCOD9485459
Probable space group: C M M M
;
_chemical_formula_sum "Si O2"
_cell_formula_units_Z 88
_cell_length_a 24.476677
_cell_length_b 24.449156
_cell_length_c 10.114195
_cell_angle_alpha 90.000000
_cell_angle_beta 90.000000
_cell_angle_gamma 90.000000
_cell_volume 6052.679125
_symmetry_space_group_name_H-M "C M M M"
_symmetry_group_IT_number 65
_symmetry_cell_setting 'orthorhombic'
loop_
_space_group_symop_operation_xyz
x,y,z
-x,-y,z
x,-y,-z
-x,y,-z
-x,-y,-z
x,y,-z
-x,y,z
x,-y,z
1/2+x,1/2+y,z
1/2-x,1/2-y,z
1/2+x,1/2-y,-z
1/2-x,1/2+y,-z
1/2-x,1/2-y,-z
1/2+x,1/2+y,-z
1/2-x,1/2+y,z
1/2+x,1/2-y,z
loop_
_atom_site_type_symbol
_atom_site_label
_atom_site_fract_x
_atom_site_fract_y
_atom_site_fract_z
Si Si1 0.745183 0.158738 0.155875
Si Si2 0.500000 0.064631 0.147220
Si Si3 0.341180 0.254433 0.155655
Si Si4 0.911791 0.601541 0.646671
Si Si5 0.435616 0.230851 0.349175
Si Si6 0.786212 0.564239 0.653517
O O1 0.693984 0.199333 0.185298
O O2 0.799113 0.195596 0.175992
O O3 0.743489 0.105804 0.247864
O O4 0.741924 0.144793 0.000000
O O5 0.552084 0.080632 0.233529
O O6 0.500000 0.000000 0.134710
O O7 0.500000 0.089420 0.000000
O O8 0.394242 0.258161 0.246677
O O9 0.355219 0.252493 0.000000
O O10 0.931072 0.583174 0.500000
O O11 0.918705 0.666916 0.648959
O O12 0.850144 0.580775 0.660792
O O13 0.428751 0.251270 0.500000
O O14 0.500000 0.234719 0.315134
O O15 0.769517 0.572227 0.500000
O O16 0.779860 0.500000 0.685704
#
# Coordination Sequence:
#
# PCOD9485459 Si02
#       6
#    16   8  16  16  16  16
#     4   9  18  32  49  69  93 120 153 193 236 282
#     4  11  23  33  41  57  79 109 157 207 240 269
#     4   9  18  32  49  69  92 120 154 192 236 283
#     4  10  19  33  47  60  84 120 156 192 232 271
#     4  10  19  31  47  68  92 119 156 196 232 273
#     4  10  20  32  47  68  92 120 157 195 231 274
#
# _framework density 14.539016999999999
#
# number of rings (size 3 to 8) (size 9 to 14) (size 15 to 20)
#    0.000    2.273    2.727    1.909    0.000    4.364 
#    0.000    1.818    0.000    0.000    0.000    0.000 
#    0.000    0.727    0.000    8.000    0.000    5.818 
#
# Total GULP energy -245191.157788 kJ/mol
# GULP energy per Si atom -5572.526313 kJ/mol
# Density = 1.450593 g / cm^3
# Si number density = 14.539017 Si / 1000 Ang^3
#
#
#
# Elastic Constant Matrix: (Units=GPa)
#
#
# Indices 1 2 3 4 5 6 
#
# 1 73.2922 36.0197 59.8564 0.0000 0.0000 0.0000
# 2 36.0197 68.7281 57.3427 0.0000 0.0000 0.0000
# 3 59.8564 57.3427 106.8038 0.0000 0.0000 0.0000
# 4 0.0000 0.0000 0.0000 26.4089 0.0000 0.0000
# 5 0.0000 0.0000 0.0000 0.0000 29.4518 0.0000
# 6 0.0000 0.0000 0.0000 0.0000 0.0000 19.3016
#
#
#
# Elastic Compliance Matrix: (Units=1/GPa)
#
#
# Indices 1 2 3 4 5 6 
#
# 1 0.025413 -0.002601 -0.012846 0.000000 0.000000 0.000000
# 2 -0.002601 0.026623 -0.012836 0.000000 0.000000 0.000000
# 3 -0.012846 -0.012836 0.023454 0.000000 0.000000 0.000000
# 4 0.000000 0.000000 0.000000 0.037866 0.000000 0.000000
# 5 0.000000 0.000000 0.000000 0.000000 0.033954 0.000000
# 6 0.000000 0.000000 0.000000 0.000000 0.000000 0.051809
#
#
# Mechanical properties :
#
#
# Convention : Reuss Voigt Hill
#
# Bulk Modulus (GPa) = 52.84270 61.69577 57.26924
# Shear Modulus (GPa) = 19.08441 21.40615 20.24528
#
# Velocity S-wave (km/s) = 3.62696 3.84125 3.73564
# Velocity P-wave (km/s) = 7.34603 7.88672 7.62117
#
# Compressibility (1/GPa) = 0.01892409
#
# Stress axis : x y z
#
# Youngs Moduli (GPa) = 39.34925 37.56152 42.63645
#
# Poissons Ratio (x) = 0.09769 0.54771
# Poissons Ratio (y) = 0.10234 0.54729
# Poissons Ratio (z) = 0.50549 0.48215
#
# Static dielectric constant tensor:
#      x y z
#    x 1.469330 0.000000 0.000000 
#    y 0.000000 1.468170 0.000000 
#    z 0.000000 0.000000 1.504000 
# 
# From -- ./inp_files/13950.got.cif
#   From: 2010.05.17/outbox.cif.g08.bks.cpg/sg65_7_cif.got.tgz:13950.got - 2010.06.03 17:01:31.
