data_PCOD9485611
_publ_section_title
;
Structure prediction by ZEFSAII (Michael W. Deem and Ramdas Pophale) SiO2 
 PCOD9485611
Probable space group: C M M M
;
_chemical_formula_sum "Si O2"
_cell_formula_units_Z 104
_cell_length_a 22.685957
_cell_length_b 34.359093
_cell_length_c 7.827959
_cell_angle_alpha 90.000000
_cell_angle_beta 90.000000
_cell_angle_gamma 90.000000
_cell_volume 6101.650641
_symmetry_space_group_name_H-M "C M M M"
_symmetry_group_IT_number 65
_symmetry_cell_setting 'orthorhombic'
loop_
_space_group_symop_operation_xyz
x,y,z
-x,-y,z
x,-y,-z
-x,y,-z
-x,-y,-z
x,y,-z
-x,y,z
x,-y,z
1/2+x,1/2+y,z
1/2-x,1/2-y,z
1/2+x,1/2-y,-z
1/2-x,1/2+y,-z
1/2-x,1/2-y,-z
1/2+x,1/2+y,-z
1/2-x,1/2+y,z
1/2+x,1/2-y,z
loop_
_atom_site_type_symbol
_atom_site_label
_atom_site_fract_x
_atom_site_fract_y
_atom_site_fract_z
Si Si1 0.220368 0.955974 0.706121
Si Si2 0.613245 0.403823 0.297085
Si Si3 0.071756 0.234840 0.500000
Si Si4 0.644630 0.956392 0.795477
Si Si5 0.929253 0.381983 0.200916
Si Si6 0.429643 0.320584 0.191584
Si Si7 0.500000 0.544954 0.794458
Si Si8 0.571580 0.823740 0.500000
O O1 0.216985 0.956504 0.500000
O O2 0.171766 0.925552 0.767529
O O3 0.287407 0.946918 0.755226
O O4 0.207270 0.000000 0.767172
O O5 0.618531 0.397286 0.500000
O O6 0.600927 0.362215 0.213995
O O7 0.557761 0.432163 0.266826
O O8 0.089479 0.210277 0.333605
O O9 0.092756 0.279279 0.500000
O O10 0.000000 0.236110 0.500000
O O11 0.602008 0.921790 0.739699
O O12 0.632395 0.000000 0.726722
O O13 0.638383 0.958385 0.000000
O O14 0.911377 0.347588 0.329891
O O15 0.000000 0.386428 0.210708
O O16 0.914747 0.374692 0.000000
O O17 0.500000 0.327468 0.215156
O O18 0.420673 0.305725 0.000000
O O19 0.500000 0.500000 0.736732
O O20 0.500000 0.545471 0.000000
O O21 0.500000 0.822569 0.500000
#
# Coordination Sequence:
#
# PCOD9485611 Si02
#       8
#    16  16   8  16  16  16   8   8
#     4   9  19  33  48  68  95 130 173 217 253 290
#     4  11  20  32  49  67  95 131 171 215 261 309
#     4   9  18  32  50  72 100 132 163 200 251 310
#     4   9  18  32  50  73 102 138 175 208 245 287
#     4   9  18  32  51  78 111 140 167 203 245 292
#     4  10  19  31  48  72  99 128 164 207 258 309
#     4  11  23  33  43  65  95 131 175 216 261 313
#     4   9  18  32  51  77 105 135 169 199 243 306
#
# _framework density 17.044568000000002
#
# number of rings (size 3 to 8) (size 9 to 14) (size 15 to 20)
#    0.000    2.385    1.538    1.154    1.077    3.385 
#    0.000    6.154    0.000    1.385    0.000    2.154 
#    0.000    3.692    0.000    0.000    0.000    0.000 
#
# Total GULP energy -289972.789155 kJ/mol
# GULP energy per Si atom -5576.399791 kJ/mol
# Density = 1.700577 g / cm^3
# Si number density = 17.044568 Si / 1000 Ang^3
#
#
#
# Elastic Constant Matrix: (Units=GPa)
#
#
# Indices 1 2 3 4 5 6 
#
# 1 33.2324 51.5089 21.9132 0.0000 0.0000 0.0000
# 2 51.5089 151.3981 59.1881 0.0000 0.0000 0.0000
# 3 21.9132 59.1881 76.1454 0.0000 0.0000 0.0000
# 4 0.0000 0.0000 0.0000 13.7456 0.0000 0.0000
# 5 0.0000 0.0000 0.0000 0.0000 17.7661 0.0000
# 6 0.0000 0.0000 0.0000 0.0000 0.0000 8.6462
#
#
#
# Elastic Compliance Matrix: (Units=1/GPa)
#
#
# Indices 1 2 3 4 5 6 
#
# 1 0.063904 -0.020904 -0.002141 0.000000 0.000000 0.000000
# 2 -0.020904 0.016327 -0.006675 0.000000 0.000000 0.000000
# 3 -0.002141 -0.006675 0.018937 0.000000 0.000000 0.000000
# 4 0.000000 0.000000 0.000000 0.072751 0.000000 0.000000
# 5 0.000000 0.000000 0.000000 0.000000 0.056287 0.000000
# 6 0.000000 0.000000 0.000000 0.000000 0.000000 0.115658
#
#
# Mechanical properties :
#
#
# Convention : Reuss Voigt Hill
#
# Bulk Modulus (GPa) = 25.17184 58.44402 41.80793
# Shear Modulus (GPa) = 12.00343 16.57595 14.28969
#
# Velocity S-wave (km/s) = 2.65663 3.12189 2.89861
# Velocity P-wave (km/s) = 4.92042 6.88174 5.98201
#
# Compressibility (1/GPa) = 0.03972694
#
# Stress axis : x y z
#
# Youngs Moduli (GPa) = 15.64849 61.24917 52.80536
#
# Poissons Ratio (x) = 1.28038 0.11307
# Poissons Ratio (y) = 0.32712 0.35247
# Poissons Ratio (z) = 0.03351 0.40884
#
# Static dielectric constant tensor:
#      x y z
#    x 1.549500 0.000000 0.000000 
#    y 0.000000 1.568750 0.000000 
#    z 0.000000 0.000000 1.608890 
# 
# From -- ./inp_files/12854.got.cif
#   From: 2010.05.17/outbox.cif.g08.bks.cpg/sg65_7_cif.got.tgz:12854.got - 2010.06.03 17:01:31.
