data_PCOD9485633
_publ_section_title
;
Structure prediction by ZEFSAII (Michael W. Deem and Ramdas Pophale) SiO2 
 PCOD9485633
Probable space group: C M M M
;
_chemical_formula_sum "Si O2"
_cell_formula_units_Z 80
_cell_length_a 18.809696
_cell_length_b 7.362118
_cell_length_c 27.359318
_cell_angle_alpha 90.000000
_cell_angle_beta 90.000000
_cell_angle_gamma 90.000000
_cell_volume 3788.696510
_symmetry_space_group_name_H-M "C M M M"
_symmetry_group_IT_number 65
_symmetry_cell_setting 'orthorhombic'
loop_
_space_group_symop_operation_xyz
x,y,z
-x,-y,z
x,-y,-z
-x,y,-z
-x,-y,-z
x,y,-z
-x,y,z
x,-y,z
1/2+x,1/2+y,z
1/2-x,1/2-y,z
1/2+x,1/2-y,-z
1/2-x,1/2+y,-z
1/2-x,1/2-y,-z
1/2+x,1/2+y,-z
1/2-x,1/2+y,z
1/2+x,1/2-y,z
loop_
_atom_site_type_symbol
_atom_site_label
_atom_site_fract_x
_atom_site_fract_y
_atom_site_fract_z
Si Si1 0.166371 0.283195 0.700630
Si Si2 0.166078 0.282938 0.808941
Si Si3 0.917090 0.278137 0.606072
Si Si4 0.417764 0.222249 0.095919
Si Si5 0.834040 0.283304 0.000000
Si Si6 0.414496 0.217325 0.500000
O O1 0.154759 0.500000 0.701739
O O2 0.250000 0.250000 0.694464
O O3 0.146817 0.212964 0.754746
O O4 0.124601 0.213229 0.653606
O O5 0.156738 0.500000 0.807533
O O6 0.250000 0.250000 0.817128
O O7 0.119454 0.215603 0.854027
O O8 0.914317 0.500000 0.605533
O O9 0.888725 0.215948 0.552882
O O10 0.000000 0.228935 0.609839
O O11 0.500000 0.276341 0.092650
O O12 0.372586 0.283674 0.049038
O O13 0.416551 0.000000 0.096133
O O14 0.750000 0.250000 0.000000
O O15 0.843619 0.500000 0.000000
O O16 0.500000 0.246201 0.500000
O O17 0.403608 0.000000 0.500000
#
# Coordination Sequence:
#
# PCOD9485633 Si02
#       6
#    16  16  16  16   8   8
#     4   9  17  28  42  61  85 111 137 168 207 248
#     4   9  17  29  45  63  84 112 142 171 205 247
#     4   8  13  22  38  59  80 103 135 173 208 242
#     4   9  17  29  46  68  90 111 140 178 214 245
#     4  10  19  31  49  69  89 116 146 174 206 248
#     4   7  10  18  33  54  79 103 128 165 210 246
#
# _framework density 21.115441000000001
#
# number of rings (size 3 to 8) (size 9 to 14) (size 15 to 20)
#    0.000    3.300    0.000    2.100    0.000    2.000 
#    0.000    4.500    0.000    3.600    0.000    5.600 
#    0.000    2.400    0.000    0.000    0.000    0.000 
#
# Total GULP energy -223091.213013 kJ/mol
# GULP energy per Si atom -5577.280325 kJ/mol
# Density = 2.106738 g / cm^3
# Si number density = 21.115441 Si / 1000 Ang^3
#
#
#
# Elastic Constant Matrix: (Units=GPa)
#
#
# Indices 1 2 3 4 5 6 
#
# 1 109.2795 -2.5428 135.6513 0.0000 0.0000 0.0000
# 2 -2.5428 77.3129 12.6703 0.0000 0.0000 0.0000
# 3 135.6513 12.6703 287.5475 0.0000 0.0000 0.0000
# 4 0.0000 0.0000 0.0000 -0.3500 0.0000 0.0000
# 5 0.0000 0.0000 0.0000 0.0000 21.8335 0.0000
# 6 0.0000 0.0000 0.0000 0.0000 0.0000 12.4479
#
#
#
# Elastic Compliance Matrix: (Units=1/GPa)
#
#
# Indices 1 2 3 4 5 6 
#
# 1 0.022553 0.002503 -0.010750 0.000000 0.000000 0.000000
# 2 0.002503 0.013306 -0.001767 0.000000 0.000000 0.000000
# 3 -0.010750 -0.001767 0.008627 0.000000 0.000000 0.000000
# 4 0.000000 0.000000 0.000000 -2.857237 0.000000 0.000000
# 5 0.000000 0.000000 0.000000 0.000000 0.045801 0.000000
# 6 0.000000 0.000000 0.000000 0.000000 0.000000 0.080335
#
#
# Mechanical properties :
#
#
# Convention : Reuss Voigt Hill
#
# Bulk Modulus (GPa) = 40.88476 85.07749 62.98113
# Shear Modulus (GPa) = -1.88081 28.67701 13.39810
#
# Velocity S-wave (km/s) = -0.94481 3.68925 2.52169
# Velocity P-wave (km/s) = 4.26782 7.65026 6.19438
#
# Compressibility (1/GPa) = 0.02445899
#
# Stress axis : x y z
#
# Youngs Moduli (GPa) = 44.33987 75.15164 115.91786
#
# Poissons Ratio (x) = -0.18814 1.24609
# Poissons Ratio (y) = -0.11100 0.20487
# Poissons Ratio (z) = 0.47664 0.13282
#
# Static dielectric constant tensor:
#      x y z
#    x 1.687780 0.000000 0.000000 
#    y 0.000000 1.808800 0.000000 
#    z 0.000000 0.000000 1.788410 
# 
# From -- ./inp_files/75055.got.cif
#   From: 2010.05.17/outbox.cif.g08.bks.cpg/sg65_38_cif.got.tgz:75055.got - 2010.06.03 17:01:31.
