data_PCOD9485179
_publ_section_title
;
Structure prediction by ZEFSAII (Michael W. Deem and Ramdas Pophale) SiO2 
 PCOD9485179
Probable space group: C M M M
;
_chemical_formula_sum "Si O2"
_cell_formula_units_Z 72
_cell_length_a 17.858640
_cell_length_b 26.515153
_cell_length_c 7.852751
_cell_angle_alpha 90.000000
_cell_angle_beta 90.000000
_cell_angle_gamma 90.000000
_cell_volume 3718.470556
_symmetry_space_group_name_H-M "C M M M"
_symmetry_group_IT_number 65
_symmetry_cell_setting 'orthorhombic'
loop_
_space_group_symop_operation_xyz
x,y,z
-x,-y,z
x,-y,-z
-x,y,-z
-x,-y,-z
x,y,-z
-x,y,z
x,-y,z
1/2+x,1/2+y,z
1/2-x,1/2-y,z
1/2+x,1/2-y,-z
1/2-x,1/2+y,-z
1/2-x,1/2-y,-z
1/2+x,1/2+y,-z
1/2-x,1/2+y,z
1/2+x,1/2-y,z
loop_
_atom_site_type_symbol
_atom_site_label
_atom_site_fract_x
_atom_site_fract_y
_atom_site_fract_z
Si Si1 0.239710 0.307546 0.708602
Si Si2 0.079152 0.659832 0.302704
Si Si3 0.296284 0.586211 0.703875
Si Si4 0.629841 0.944532 0.799806
Si Si5 0.586243 0.500000 0.796865
O O1 0.240595 0.307664 0.500000
O O2 0.250000 0.250000 0.763064
O O3 0.156755 0.321445 0.772688
O O4 0.294334 0.354306 0.757779
O O5 0.078720 0.676023 0.500000
O O6 0.087719 0.599780 0.295383
O O7 0.000000 0.675267 0.224392
O O8 0.288639 0.585493 0.500000
O O9 0.219286 0.563248 0.777390
O O10 0.365942 0.549975 0.747023
O O11 0.610052 0.000000 0.738634
O O12 0.612452 0.940567 0.000000
O O13 0.500000 0.500000 0.731058
O O14 0.582495 0.500000 0.000000
#
# Coordination Sequence:
#
# PCOD9485179 Si02
#       5
#    16  16  16  16   8
#     4   8  15  30  52  77 102 130 169 216 266 316
#     4   9  18  31  47  69  97 130 168 210 255 299
#     4  10  19  32  54  79 103 133 172 217 260 308
#     4  10  19  30  47  70  98 133 166 197 242 301
#     4  11  23  37  53  75 108 147 180 219 273 323
#
# _framework density 19.3628
#
# number of rings (size 3 to 8) (size 9 to 14) (size 15 to 20)
#    0.000    2.556    1.111    3.000    0.000    3.111 
#    0.000    3.333    0.000   20.667    0.000    0.000 
#    0.000    0.000    0.000    0.000    0.000    0.000 
#
# Total GULP energy -200474.816529 kJ/mol
# GULP energy per Si atom -5568.744904 kJ/mol
# Density = 1.931873 g / cm^3
# Si number density = 19.362800 Si / 1000 Ang^3
#
#
#
# Elastic Constant Matrix: (Units=GPa)
#
#
# Indices 1 2 3 4 5 6 
#
# 1 114.4625 59.1027 -2.8916 0.0000 0.0000 0.0000
# 2 59.1027 155.1742 2.7993 0.0000 0.0000 0.0000
# 3 -2.8916 2.7993 32.2816 0.0000 0.0000 0.0000
# 4 0.0000 0.0000 0.0000 61.2428 0.0000 0.0000
# 5 0.0000 0.0000 0.0000 0.0000 6.9418 0.0000
# 6 0.0000 0.0000 0.0000 0.0000 0.0000 2.5159
#
#
#
# Elastic Compliance Matrix: (Units=1/GPa)
#
#
# Indices 1 2 3 4 5 6 
#
# 1 0.010933 -0.004188 0.001343 0.000000 0.000000 0.000000
# 2 -0.004188 0.008059 -0.001074 0.000000 0.000000 0.000000
# 3 0.001343 -0.001074 0.031191 0.000000 0.000000 0.000000
# 4 0.000000 0.000000 0.000000 0.016328 0.000000 0.000000
# 5 0.000000 0.000000 0.000000 0.000000 0.144055 0.000000
# 6 0.000000 0.000000 0.000000 0.000000 0.000000 0.397465
#
#
# Mechanical properties :
#
#
# Convention : Reuss Voigt Hill
#
# Bulk Modulus (GPa) = 23.61663 46.65992 35.13828
# Shear Modulus (GPa) = 7.93670 30.33398 19.13534
#
# Velocity S-wave (km/s) = 2.02678 3.96234 3.14706
# Velocity P-wave (km/s) = 4.20720 6.71443 5.60286
#
# Compressibility (1/GPa) = 0.04234304
#
# Stress axis : x y z
#
# Youngs Moduli (GPa) = 91.46552 124.08454 32.06079
#
# Poissons Ratio (x) = 0.51972 -0.04304
# Poissons Ratio (y) = 0.38309 0.03443
# Poissons Ratio (z) = -0.12279 0.13327
#
# Static dielectric constant tensor:
#      x y z
#    x 1.700380 0.000000 0.000000 
#    y 0.000000 1.708550 0.000000 
#    z 0.000000 0.000000 1.706460 
# 
# From -- ./inp_files/9510.got.cif
#   From: 2010.05.17/outbox.cif.g08.bks.cpg/sg65_5_cif.got.tgz:9510.got - 2010.06.03 17:01:31.
