data_PCOD9485962
_publ_section_title
;
Structure prediction by ZEFSAII (Michael W. Deem and Ramdas Pophale) SiO2 
 PCOD9485962
Probable space group: C M M M
;
_chemical_formula_sum "Si O2"
_cell_formula_units_Z 80
_cell_length_a 7.940463
_cell_length_b 29.823363
_cell_length_c 17.417652
_cell_angle_alpha 90.000000
_cell_angle_beta 90.000000
_cell_angle_gamma 90.000000
_cell_volume 4124.696995
_symmetry_space_group_name_H-M "C M M M"
_symmetry_group_IT_number 65
_symmetry_cell_setting 'orthorhombic'
loop_
_space_group_symop_operation_xyz
x,y,z
-x,-y,z
x,-y,-z
-x,y,-z
-x,-y,-z
x,y,-z
-x,y,z
x,-y,z
1/2+x,1/2+y,z
1/2-x,1/2-y,z
1/2+x,1/2-y,-z
1/2-x,1/2+y,-z
1/2-x,1/2-y,-z
1/2+x,1/2+y,-z
1/2-x,1/2+y,z
1/2+x,1/2-y,z
loop_
_atom_site_type_symbol
_atom_site_label
_atom_site_fract_x
_atom_site_fract_y
_atom_site_fract_z
Si Si1 0.205711 0.051664 0.585758
Si Si2 0.700770 0.624497 0.704520
Si Si3 0.301044 0.198014 0.000000
Si Si4 0.298747 0.801834 0.585190
Si Si5 0.293827 0.448216 0.000000
Si Si6 0.702304 0.624921 0.877704
O O1 0.259606 0.065785 0.500000
O O2 0.268772 0.083916 0.652449
O O3 0.000000 0.052973 0.585987
O O4 0.254290 0.000000 0.597137
O O5 0.500000 0.617811 0.711236
O O6 0.729055 0.668677 0.654107
O O7 0.768918 0.626613 0.790949
O O8 0.250000 0.250000 0.000000
O O9 0.240017 0.169617 0.926323
O O10 0.500000 0.196190 0.000000
O O11 0.236946 0.816451 0.500000
O O12 0.500000 0.805580 0.585719
O O13 0.250000 0.750000 0.593958
O O14 0.239324 0.418419 0.073399
O O15 0.238234 0.500000 0.000000
O O16 0.500000 0.448885 0.000000
O O17 0.500000 0.621509 0.874618
#
# Coordination Sequence:
#
# PCOD9485962 Si02
#       6
#    16  16   8  16   8  16
#     4   8  14  25  43  71 106 140 174 211 249 290
#     4  10  19  31  51  77 106 138 169 208 255 299
#     4  11  22  38  60  78  97 130 166 204 253 306
#     4  10  21  36  53  73  99 133 173 215 257 302
#     4   8  14  28  51  75 102 136 168 202 246 295
#     4   9  19  34  51  78 110 134 165 207 250 302
#
# _framework density 19.395365999999999
#
# number of rings (size 3 to 8) (size 9 to 14) (size 15 to 20)
#    0.000    2.700    0.000    3.300    0.000    4.400 
#    0.000    4.000    0.000    5.400    0.000    8.400 
#    0.000    0.000    0.000    0.000    0.000    0.000 
#
# Total GULP energy -223104.046219 kJ/mol
# GULP energy per Si atom -5577.601155 kJ/mol
# Density = 1.935122 g / cm^3
# Si number density = 19.395366 Si / 1000 Ang^3
#
#
#
# Elastic Constant Matrix: (Units=GPa)
#
#
# Indices 1 2 3 4 5 6 
#
# 1 20.5777 -2.3957 11.6537 0.0000 0.0000 0.0000
# 2 -2.3957 149.4929 112.7194 0.0000 0.0000 0.0000
# 3 11.6537 112.7194 221.9022 0.0000 0.0000 0.0000
# 4 0.0000 0.0000 0.0000 69.3242 0.0000 0.0000
# 5 0.0000 0.0000 0.0000 0.0000 10.7965 0.0000
# 6 0.0000 0.0000 0.0000 0.0000 0.0000 12.0695
#
#
#
# Elastic Compliance Matrix: (Units=1/GPa)
#
#
# Indices 1 2 3 4 5 6 
#
# 1 0.052040 0.004692 -0.005116 0.000000 0.000000 0.000000
# 2 0.004692 0.011265 -0.005969 0.000000 0.000000 0.000000
# 3 -0.005116 -0.005969 0.007807 0.000000 0.000000 0.000000
# 4 0.000000 0.000000 0.000000 0.014425 0.000000 0.000000
# 5 0.000000 0.000000 0.000000 0.000000 0.092623 0.000000
# 6 0.000000 0.000000 0.000000 0.000000 0.000000 0.082854
#
#
# Mechanical properties :
#
#
# Convention : Reuss Voigt Hill
#
# Bulk Modulus (GPa) = 17.14515 70.65863 43.90189
# Shear Modulus (GPa) = 17.05079 36.43772 26.74425
#
# Velocity S-wave (km/s) = 2.96821 4.33908 3.71738
# Velocity P-wave (km/s) = 4.53938 7.84941 6.41168
#
# Compressibility (1/GPa) = 0.05832555
#
# Stress axis : x y z
#
# Youngs Moduli (GPa) = 19.21601 88.77161 128.08944
#
# Poissons Ratio (x) = -0.41649 0.65533
# Poissons Ratio (y) = -0.09016 0.76451
# Poissons Ratio (z) = 0.09831 0.52984
#
# Static dielectric constant tensor:
#      x y z
#    x 1.707560 0.000000 0.000000 
#    y 0.000000 1.636650 0.000000 
#    z 0.000000 0.000000 1.673570 
# 
# From -- ./inp_files/49968.got.cif
#   From: 2010.05.17/outbox.cif.g08.bks.cpg/sg65_25_cif.got.tgz:49968.got - 2010.06.03 17:01:31.
