data_PCOD9485298
_publ_section_title
;
Structure prediction by ZEFSAII (Michael W. Deem and Ramdas Pophale) SiO2 
 PCOD9485298
Probable space group: C M M M
;
_chemical_formula_sum "Si O2"
_cell_formula_units_Z 72
_cell_length_a 8.660614
_cell_length_b 32.235817
_cell_length_c 14.638545
_cell_angle_alpha 90.000000
_cell_angle_beta 90.000000
_cell_angle_gamma 90.000000
_cell_volume 4086.817802
_symmetry_space_group_name_H-M "C M M M"
_symmetry_group_IT_number 65
_symmetry_cell_setting 'orthorhombic'
loop_
_space_group_symop_operation_xyz
x,y,z
-x,-y,z
x,-y,-z
-x,y,-z
-x,-y,-z
x,y,-z
-x,y,z
x,-y,z
1/2+x,1/2+y,z
1/2-x,1/2-y,z
1/2+x,1/2-y,-z
1/2-x,1/2+y,-z
1/2-x,1/2-y,-z
1/2+x,1/2+y,-z
1/2-x,1/2+y,z
1/2+x,1/2-y,z
loop_
_atom_site_type_symbol
_atom_site_label
_atom_site_fract_x
_atom_site_fract_y
_atom_site_fract_z
Si Si1 0.325378 0.500000 0.889123
Si Si2 0.815714 0.588325 0.894699
Si Si3 0.313696 0.705101 0.605616
Si Si4 0.187817 0.046039 0.393337
Si Si5 0.313269 0.374182 0.278357
O O1 0.500000 0.500000 0.852800
O O2 0.242380 0.457339 0.864688
O O3 0.330997 0.500000 0.000000
O O4 0.747261 0.620996 0.824010
O O5 0.000000 0.588977 0.892392
O O6 0.765663 0.594783 0.000000
O O7 0.267048 0.697405 0.500000
O O8 0.500000 0.706418 0.607500
O O9 0.250000 0.750000 0.632896
O O10 0.262869 0.667422 0.669889
O O11 0.230773 0.050810 0.500000
O O12 0.240511 0.085105 0.334473
O O13 0.000000 0.046212 0.390577
O O14 0.238082 0.000000 0.362114
O O15 0.500000 0.374719 0.277482
#
# Coordination Sequence:
#
# PCOD9485298 Si02
#       5
#     8  16  16  16  16
#     4   9  17  31  51  71  92 125 172 219 255 290
#     4  10  21  35  49  69 101 138 172 210 258 307
#     4   9  18  33  53  78 107 135 166 208 256 307
#     4   8  14  25  42  67  99 130 160 196 239 290
#     4  10  19  30  50  77 101 129 170 214 251 297
#
# _framework density 17.617619999999999
#
# number of rings (size 3 to 8) (size 9 to 14) (size 15 to 20)
#    0.000    2.778    0.000    2.333    1.556    6.222 
#    0.000    0.000    0.000    2.667    0.000    1.556 
#    0.000    0.000    0.000    0.000    0.000    0.000 
#
# Total GULP energy -200791.658062 kJ/mol
# GULP energy per Si atom -5577.546057 kJ/mol
# Density = 1.757752 g / cm^3
# Si number density = 17.617620 Si / 1000 Ang^3
#
#
#
# Elastic Constant Matrix: (Units=GPa)
#
#
# Indices 1 2 3 4 5 6 
#
# 1 12.9718 27.8914 21.2260 0.0000 0.0000 0.0000
# 2 27.8914 148.4490 93.6720 0.0000 0.0000 0.0000
# 3 21.2260 93.6720 104.7855 0.0000 0.0000 0.0000
# 4 0.0000 0.0000 0.0000 27.8986 0.0000 0.0000
# 5 0.0000 0.0000 0.0000 0.0000 14.6763 0.0000
# 6 0.0000 0.0000 0.0000 0.0000 0.0000 24.6945
#
#
#
# Elastic Compliance Matrix: (Units=1/GPa)
#
#
# Indices 1 2 3 4 5 6 
#
# 1 0.134346 -0.018512 -0.010666 0.000000 0.000000 0.000000
# 2 -0.018512 0.018004 -0.012345 0.000000 0.000000 0.000000
# 3 -0.010666 -0.012345 0.022739 0.000000 0.000000 0.000000
# 4 0.000000 0.000000 0.000000 0.035844 0.000000 0.000000
# 5 0.000000 0.000000 0.000000 0.000000 0.068137 0.000000
# 6 0.000000 0.000000 0.000000 0.000000 0.000000 0.040495
#
#
# Mechanical properties :
#
#
# Convention : Reuss Voigt Hill
#
# Bulk Modulus (GPa) = 10.86424 61.30943 36.08684
# Shear Modulus (GPa) = 11.53962 21.68168 16.61065
#
# Velocity S-wave (km/s) = 2.56208 3.51191 3.07391
# Velocity P-wave (km/s) = 3.86425 7.16382 5.75555
#
# Compressibility (1/GPa) = 0.09204511
#
# Stress axis : x y z
#
# Youngs Moduli (GPa) = 7.44349 55.54366 43.97715
#
# Poissons Ratio (x) = 1.02820 0.46904
# Poissons Ratio (y) = 0.13779 0.54288
# Poissons Ratio (z) = 0.07939 0.68566
#
# Static dielectric constant tensor:
#      x y z
#    x 1.602780 0.000000 0.000000 
#    y 0.000000 1.584610 0.000000 
#    z 0.000000 0.000000 1.623950 
# 
# From -- ./inp_files/36982.got.cif
#   From: 2010.05.17/outbox.cif.g08.bks.cpg/sg65_19_cif.got.tgz:36982.got - 2010.06.03 17:01:31.
