data_PCOD9485533
_publ_section_title
;
Structure prediction by ZEFSAII (Michael W. Deem and Ramdas Pophale) SiO2 
 PCOD9485533
Probable space group: C M M M
;
_chemical_formula_sum "Si O2"
_cell_formula_units_Z 80
_cell_length_a 7.744796
_cell_length_b 30.959346
_cell_length_c 16.797369
_cell_angle_alpha 90.000000
_cell_angle_beta 90.000000
_cell_angle_gamma 90.000000
_cell_volume 4027.569315
_symmetry_space_group_name_H-M "C M M M"
_symmetry_group_IT_number 65
_symmetry_cell_setting 'orthorhombic'
loop_
_space_group_symop_operation_xyz
x,y,z
-x,-y,z
x,-y,-z
-x,y,-z
-x,-y,-z
x,y,-z
-x,y,z
x,-y,z
1/2+x,1/2+y,z
1/2-x,1/2-y,z
1/2+x,1/2-y,-z
1/2-x,1/2+y,-z
1/2-x,1/2-y,-z
1/2+x,1/2+y,-z
1/2-x,1/2+y,z
1/2+x,1/2-y,z
loop_
_atom_site_type_symbol
_atom_site_label
_atom_site_fract_x
_atom_site_fract_y
_atom_site_fract_z
Si Si1 0.704447 0.669770 0.000000
Si Si2 0.291905 0.428369 0.000000
Si Si3 0.789870 0.450685 0.592406
Si Si4 0.211072 0.620443 0.720652
Si Si5 0.297083 0.045079 0.171156
Si Si6 0.795665 0.700746 0.821759
O O1 0.774062 0.620911 0.000000
O O2 0.749181 0.691002 0.914609
O O3 0.000000 0.832885 0.000000
O O4 0.225598 0.451371 0.922006
O O5 0.500000 0.428935 0.000000
O O6 0.741249 0.445364 0.500000
O O7 0.735938 0.500000 0.616515
O O8 0.734487 0.408787 0.644195
O O9 0.000000 0.451257 0.596847
O O10 0.270326 0.588424 0.790890
O O11 0.272079 0.666990 0.754327
O O12 0.000000 0.623262 0.714868
O O13 0.500000 0.044398 0.191332
O O14 0.219793 0.000000 0.199604
O O15 0.750000 0.750000 0.803502
O O16 0.000000 0.696042 0.819590
#
# Coordination Sequence:
#
# PCOD9485533 Si02
#       6
#     8   8  16  16  16  16
#     4  11  22  37  54  72  95 128 170 214 259 301
#     4  11  22  33  46  65  96 130 162 202 243 289
#     4   8  13  23  43  73 106 134 160 195 241 291
#     4   9  17  29  46  69  97 129 163 200 246 294
#     4  10  19  31  48  68  93 128 168 203 237 287
#     4  11  22  36  54  73  97 129 167 212 255 300
#
# _framework density 19.863098000000001
#
# number of rings (size 3 to 8) (size 9 to 14) (size 15 to 20)
#    0.000    2.200    2.000    3.000    0.000    4.800 
#    0.000    0.000    0.000    0.600    0.000    0.000 
#    0.000    6.400    0.000   22.200    0.000   20.200 
#
# Total GULP energy -222729.344582 kJ/mol
# GULP energy per Si atom -5568.233615 kJ/mol
# Density = 1.981789 g / cm^3
# Si number density = 19.863098 Si / 1000 Ang^3
#
#
#
# Elastic Constant Matrix: (Units=GPa)
#
#
# Indices 1 2 3 4 5 6 
#
# 1 29.9249 5.6169 -3.9831 0.0000 0.0000 0.0000
# 2 5.6169 197.5385 78.8223 0.0000 0.0000 0.0000
# 3 -3.9831 78.8223 136.8644 0.0000 0.0000 0.0000
# 4 0.0000 0.0000 0.0000 23.8032 0.0000 0.0000
# 5 0.0000 0.0000 0.0000 0.0000 -12.0509 0.0000
# 6 0.0000 0.0000 0.0000 0.0000 0.0000 8.1534
#
#
#
# Elastic Compliance Matrix: (Units=1/GPa)
#
#
# Indices 1 2 3 4 5 6 
#
# 1 0.034016 -0.001769 0.002009 0.000000 0.000000 0.000000
# 2 -0.001769 0.006665 -0.003890 0.000000 0.000000 0.000000
# 3 0.002009 -0.003890 0.009605 0.000000 0.000000 0.000000
# 4 0.000000 0.000000 0.000000 0.042011 0.000000 0.000000
# 5 0.000000 0.000000 0.000000 0.000000 -0.082981 0.000000
# 6 0.000000 0.000000 0.000000 0.000000 0.000000 0.122648
#
#
# Mechanical properties :
#
#
# Convention : Reuss Voigt Hill
#
# Bulk Modulus (GPa) = 23.26318 58.35998 40.81158
# Shear Modulus (GPa) = 32.55375 22.90594 27.72985
#
# Velocity S-wave (km/s) = 4.05273 3.39955 3.74043
# Velocity P-wave (km/s) = 5.79972 6.69732 6.26462
#
# Compressibility (1/GPa) = 0.04298638
#
# Stress axis : x y z
#
# Youngs Moduli (GPa) = 29.39766 150.04409 104.11086
#
# Poissons Ratio (x) = 0.26538 -0.20912
# Poissons Ratio (y) = 0.05200 0.40497
# Poissons Ratio (z) = -0.05905 0.58364
#
# Static dielectric constant tensor:
#      x y z
#    x 1.741560 0.000000 0.000000 
#    y 0.000000 1.609550 0.000000 
#    z 0.000000 0.000000 1.702230 
# 
# From -- ./inp_files/50183.got.cif
#   From: 2010.05.17/outbox.cif.g08.bks.cpg/sg65_26_cif.got.tgz:50183.got - 2010.06.03 17:01:31.
