data_PCOD9485774
_publ_section_title
;
Structure prediction by ZEFSAII (Michael W. Deem and Ramdas Pophale) SiO2 
 PCOD9485774
Probable space group: C M M M
;
_chemical_formula_sum "Si O2"
_cell_formula_units_Z 80
_cell_length_a 15.910307
_cell_length_b 30.301047
_cell_length_c 7.371826
_cell_angle_alpha 90.000000
_cell_angle_beta 90.000000
_cell_angle_gamma 90.000000
_cell_volume 3553.949649
_symmetry_space_group_name_H-M "C M M M"
_symmetry_group_IT_number 65
_symmetry_cell_setting 'orthorhombic'
loop_
_space_group_symop_operation_xyz
x,y,z
-x,-y,z
x,-y,-z
-x,y,-z
-x,-y,-z
x,y,-z
-x,y,z
x,-y,z
1/2+x,1/2+y,z
1/2-x,1/2-y,z
1/2+x,1/2-y,-z
1/2-x,1/2+y,-z
1/2-x,1/2-y,-z
1/2+x,1/2+y,-z
1/2-x,1/2+y,z
1/2+x,1/2-y,z
loop_
_atom_site_type_symbol
_atom_site_label
_atom_site_fract_x
_atom_site_fract_y
_atom_site_fract_z
Si Si1 0.169642 0.858441 0.713183
Si Si2 0.000000 0.713872 0.289756
Si Si3 0.588775 0.053595 0.213441
Si Si4 0.308650 0.792735 0.721318
Si Si5 0.771245 0.950194 0.218613
Si Si6 0.500000 0.319186 0.712718
O O1 0.170782 0.847779 0.500000
O O2 0.254064 0.834947 0.781751
O O3 0.167451 0.910835 0.734439
O O4 0.085984 0.837266 0.792807
O O5 0.906042 0.703069 0.215216
O O6 0.000000 0.698470 0.500000
O O7 0.000000 0.766861 0.284604
O O8 0.500000 0.069865 0.290890
O O9 0.679406 0.064997 0.289770
O O10 0.587682 0.000000 0.223019
O O11 0.588574 0.065000 0.000000
O O12 0.315062 0.790036 0.500000
O O13 0.250000 0.750000 0.772087
O O14 0.789994 0.000000 0.281135
O O15 0.765579 0.952373 0.000000
O O16 0.500000 0.332854 0.500000
#
# Coordination Sequence:
#
# PCOD9485774 Si02
#       6
#    16   8  16  16  16   8
#     4  10  19  31  49  75 100 125 161 205 247 286
#     4   9  14  24  44  70  99 130 160 193 233 284
#     4   7  10  20  41  64  81 105 149 195 226 264
#     4   9  15  25  44  71 100 127 158 195 237 287
#     4   9  18  33  51  69  93 129 169 205 244 290
#     4   9  16  28  48  72  97 127 165 200 235 288
#
# _framework density 22.510169000000001
#
# number of rings (size 3 to 8) (size 9 to 14) (size 15 to 20)
#    0.000    3.200    2.000    1.800    0.000    0.400 
#    1.800    1.000    0.000    3.600    0.000    2.800 
#    0.000    0.000    0.000    0.000    0.000    0.000 
#
# Total GULP energy -222787.582787 kJ/mol
# GULP energy per Si atom -5569.689570 kJ/mol
# Density = 2.245893 g / cm^3
# Si number density = 22.510169 Si / 1000 Ang^3
#
#
#
# Elastic Constant Matrix: (Units=GPa)
#
#
# Indices 1 2 3 4 5 6 
#
# 1 166.0722 49.0168 13.3267 0.0000 0.0000 0.0000
# 2 49.0168 62.2236 -6.7809 0.0000 0.0000 0.0000
# 3 13.3267 -6.7809 80.2812 0.0000 0.0000 0.0000
# 4 0.0000 0.0000 0.0000 10.0415 0.0000 0.0000
# 5 0.0000 0.0000 0.0000 0.0000 -12.8568 0.0000
# 6 0.0000 0.0000 0.0000 0.0000 0.0000 -9.8129
#
#
#
# Elastic Compliance Matrix: (Units=1/GPa)
#
#
# Indices 1 2 3 4 5 6 
#
# 1 0.008125 -0.006608 -0.001907 0.000000 0.000000 0.000000
# 2 -0.006608 0.021595 0.002921 0.000000 0.000000 0.000000
# 3 -0.001907 0.002921 0.013019 0.000000 0.000000 0.000000
# 4 0.000000 0.000000 0.000000 0.099586 0.000000 0.000000
# 5 0.000000 0.000000 0.000000 0.000000 -0.077780 0.000000
# 6 0.000000 0.000000 0.000000 0.000000 0.000000 -0.101906
#
#
# Mechanical properties :
#
#
# Convention : Reuss Voigt Hill
#
# Bulk Modulus (GPa) = 31.69459 46.63360 39.16409
# Shear Modulus (GPa) = -319.38834 14.34198 -152.52318
#
# Velocity S-wave (km/s) = -11.92452 2.52689 -8.24042
# Velocity P-wave (km/s) = 13.24695 5.41066 8.55004
#
# Compressibility (1/GPa) = 0.03155113
#
# Stress axis : x y z
#
# Youngs Moduli (GPa) = 123.07761 46.30684 76.80795
#
# Poissons Ratio (x) = 0.30601 0.14647
# Poissons Ratio (y) = 0.81333 -0.22435
# Poissons Ratio (z) = 0.23470 -0.13526
#
# Static dielectric constant tensor:
#      x y z
#    x 1.922750 0.000000 0.000000 
#    y 0.000000 1.794940 0.000000 
#    z 0.000000 0.000000 1.910140 
# 
# From -- ./inp_files/24703.got.cif
#   From: 2010.05.17/outbox.cif.g08.bks.cpg/sg65_13_cif.got.tgz:24703.got - 2010.06.03 17:01:31.
