data_PCOD9485046
_publ_section_title
;
Structure prediction by ZEFSAII (Michael W. Deem and Ramdas Pophale) SiO2 
 PCOD9485046
Probable space group: C M M M
;
_chemical_formula_sum "Si O2"
_cell_formula_units_Z 104
_cell_length_a 30.732535
_cell_length_b 23.277766
_cell_length_c 8.776548
_cell_angle_alpha 90.000000
_cell_angle_beta 90.000000
_cell_angle_gamma 90.000000
_cell_volume 6278.608670
_symmetry_space_group_name_H-M "C M M M"
_symmetry_group_IT_number 65
_symmetry_cell_setting 'orthorhombic'
loop_
_space_group_symop_operation_xyz
x,y,z
-x,-y,z
x,-y,-z
-x,y,-z
-x,-y,-z
x,y,-z
-x,y,z
x,-y,z
1/2+x,1/2+y,z
1/2-x,1/2-y,z
1/2+x,1/2-y,-z
1/2-x,1/2+y,-z
1/2-x,1/2-y,-z
1/2+x,1/2+y,-z
1/2-x,1/2+y,z
1/2+x,1/2-y,z
loop_
_atom_site_type_symbol
_atom_site_label
_atom_site_fract_x
_atom_site_fract_y
_atom_site_fract_z
Si Si1 0.449562 0.717503 0.317685
Si Si2 0.896296 0.112785 0.182637
Si Si3 0.877665 0.566123 0.186106
Si Si4 0.781587 0.569739 0.175792
Si Si5 0.050044 0.657181 0.183978
Si Si6 0.449991 0.500000 0.185468
Si Si7 0.809150 0.067572 0.681172
O O1 0.446533 0.717565 0.500000
O O2 0.500000 0.704633 0.275166
O O3 0.418314 0.669529 0.248936
O O4 0.439628 0.780843 0.254255
O O5 0.924419 0.057138 0.233689
O O6 0.847355 0.102642 0.239088
O O7 0.897191 0.114876 0.000000
O O8 0.884448 0.500000 0.235044
O O9 0.829437 0.586920 0.233767
O O10 0.915940 0.608624 0.233736
O O11 0.876739 0.565310 0.000000
O O12 0.782998 0.500000 0.175977
O O13 0.739090 0.586730 0.269244
O O14 0.776478 0.588086 0.000000
O O15 0.000000 0.642744 0.224371
O O16 0.052236 0.661495 0.000000
O O17 0.500000 0.500000 0.237246
O O18 0.450342 0.500000 0.000000
O O19 0.813631 0.071166 0.500000
O O20 0.813733 0.000000 0.725886
#
# Coordination Sequence:
#
# PCOD9485046 Si02
#       7
#    16  16  16  16  16   8  16
#     4  10  21  36  51  68  94 130 169 205 243 287
#     4  11  20  32  51  72  96 125 162 205 248 293
#     4   8  14  26  47  77 107 131 159 200 245 286
#     4   8  14  26  45  67  94 129 165 197 235 286
#     4   9  17  30  50  75 101 131 167 202 238 286
#     4   9  18  30  45  69  97 121 149 193 244 289
#     4  10  19  30  45  68 100 130 160 199 244 292
#
# _framework density 16.564178999999999
#
# number of rings (size 3 to 8) (size 9 to 14) (size 15 to 20)
#    0.000    2.692    0.769    2.769    0.000    2.462 
#    0.000    2.308    0.000    4.154    0.000    8.615 
#    0.000    0.000    0.000    0.000    0.000    0.000 
#
# Total GULP energy -289847.592401 kJ/mol
# GULP energy per Si atom -5573.992162 kJ/mol
# Density = 1.652648 g / cm^3
# Si number density = 16.564179 Si / 1000 Ang^3
#
#
#
# Elastic Constant Matrix: (Units=GPa)
#
#
# Indices 1 2 3 4 5 6 
#
# 1 155.1253 91.1306 36.4821 0.0000 0.0000 0.0000
# 2 91.1306 91.9453 29.1753 0.0000 0.0000 0.0000
# 3 36.4821 29.1753 27.0655 0.0000 0.0000 0.0000
# 4 0.0000 0.0000 0.0000 11.4416 0.0000 0.0000
# 5 0.0000 0.0000 0.0000 0.0000 14.0464 0.0000
# 6 0.0000 0.0000 0.0000 0.0000 0.0000 16.1611
#
#
#
# Elastic Compliance Matrix: (Units=1/GPa)
#
#
# Indices 1 2 3 4 5 6 
#
# 1 0.016237 -0.013904 -0.006898 0.000000 0.000000 0.000000
# 2 -0.013904 0.028437 -0.011912 0.000000 0.000000 0.000000
# 3 -0.006898 -0.011912 0.059086 0.000000 0.000000 0.000000
# 4 0.000000 0.000000 0.000000 0.087400 0.000000 0.000000
# 5 0.000000 0.000000 0.000000 0.000000 0.071193 0.000000
# 6 0.000000 0.000000 0.000000 0.000000 0.000000 0.061877
#
#
# Mechanical properties :
#
#
# Convention : Reuss Voigt Hill
#
# Bulk Modulus (GPa) = 26.08820 65.30135 45.69478
# Shear Modulus (GPa) = 12.42440 16.15303 14.28871
#
# Velocity S-wave (km/s) = 2.74172 3.12617 2.94024
# Velocity P-wave (km/s) = 5.08003 7.24841 6.25884
#
# Compressibility (1/GPa) = 0.03833150
#
# Stress axis : x y z
#
# Youngs Moduli (GPa) = 61.58822 35.16570 16.92460
#
# Poissons Ratio (x) = 0.48895 0.11674
# Poissons Ratio (y) = 0.85634 0.20160
# Poissons Ratio (z) = 0.42483 0.41889
#
# Static dielectric constant tensor:
#      x y z
#    x 1.567720 0.000000 0.000000 
#    y 0.000000 1.529020 0.000000 
#    z 0.000000 0.000000 1.549700 
# 
# From -- ./inp_files/16733.got.cif
#   From: 2010.05.17/outbox.cif.g08.bks.cpg/sg65_9_cif.got.tgz:16733.got - 2010.06.03 17:01:31.
