data_PCOD9485718
_publ_section_title
;
Structure prediction by ZEFSAII (Michael W. Deem and Ramdas Pophale) SiO2 
 PCOD9485718
Probable space group: C M M M
;
_chemical_formula_sum "Si O2"
_cell_formula_units_Z 72
_cell_length_a 19.574283
_cell_length_b 7.808372
_cell_length_c 23.731601
_cell_angle_alpha 90.000000
_cell_angle_beta 90.000000
_cell_angle_gamma 90.000000
_cell_volume 3627.215815
_symmetry_space_group_name_H-M "C M M M"
_symmetry_group_IT_number 65
_symmetry_cell_setting 'orthorhombic'
loop_
_space_group_symop_operation_xyz
x,y,z
-x,-y,z
x,-y,-z
-x,y,-z
-x,-y,-z
x,y,-z
-x,y,z
x,-y,z
1/2+x,1/2+y,z
1/2-x,1/2-y,z
1/2+x,1/2-y,-z
1/2-x,1/2+y,-z
1/2-x,1/2-y,-z
1/2+x,1/2+y,-z
1/2-x,1/2+y,z
1/2+x,1/2-y,z
loop_
_atom_site_type_symbol
_atom_site_label
_atom_site_fract_x
_atom_site_fract_y
_atom_site_fract_z
Si Si1 0.578403 0.709288 0.063894
Si Si2 0.829421 0.293614 0.500000
Si Si3 0.578432 0.209050 0.602999
Si Si4 0.077055 0.294082 0.730419
Si Si5 0.670942 0.297567 0.165309
O O1 0.500000 0.759868 0.076187
O O2 0.579262 0.500000 0.063997
O O3 0.629835 0.774711 0.111441
O O4 0.595455 0.762891 0.000000
O O5 0.834992 0.500000 0.500000
O O6 0.750000 0.250000 0.500000
O O7 0.869036 0.230757 0.555708
O O8 0.500000 0.257778 0.589903
O O9 0.594105 0.265356 0.666928
O O10 0.579902 0.000000 0.602910
O O11 0.074277 0.500000 0.728160
O O12 0.131230 0.247529 0.777616
O O13 0.000000 0.232705 0.744541
O O14 0.667770 0.500000 0.159649
O O15 0.750000 0.250000 0.166728
#
# Coordination Sequence:
#
# PCOD9485718 Si02
#       5
#    16   8  16  16  16
#     4   8  15  30  52  75  97 124 162 207 251 295
#     4  10  19  31  49  73 101 130 162 200 242 290
#     4   8  15  30  53  76  95 123 165 206 242 286
#     4   9  18  34  55  77 101 129 164 208 255 300
#     4  11  22  34  50  74 104 137 171 205 246 296
#
# _framework density 19.849937000000001
#
# number of rings (size 3 to 8) (size 9 to 14) (size 15 to 20)
#    0.000    2.889    0.000    3.667    0.000    4.000 
#    0.000    3.333    0.000    4.667    0.000    7.778 
#    0.000    0.000    0.000    0.000    0.000    0.000 
#
# Total GULP energy -200841.466371 kJ/mol
# GULP energy per Si atom -5578.929621 kJ/mol
# Density = 1.980476 g / cm^3
# Si number density = 19.849937 Si / 1000 Ang^3
#
#
#
# Elastic Constant Matrix: (Units=GPa)
#
#
# Indices 1 2 3 4 5 6 
#
# 1 188.7058 7.7966 162.8868 0.0000 0.0000 0.0000
# 2 7.7966 24.4020 10.9997 0.0000 0.0000 0.0000
# 3 162.8868 10.9997 193.8631 0.0000 0.0000 0.0000
# 4 0.0000 0.0000 0.0000 8.8672 0.0000 0.0000
# 5 0.0000 0.0000 0.0000 0.0000 1.5446 0.0000
# 6 0.0000 0.0000 0.0000 0.0000 0.0000 4.8178
#
#
#
# Elastic Compliance Matrix: (Units=1/GPa)
#
#
# Indices 1 2 3 4 5 6 
#
# 1 0.019321 0.001175 -0.016300 0.000000 0.000000 0.000000
# 2 0.001175 0.042127 -0.003377 0.000000 0.000000 0.000000
# 3 -0.016300 -0.003377 0.019046 0.000000 0.000000 0.000000
# 4 0.000000 0.000000 0.000000 0.112775 0.000000 0.000000
# 5 0.000000 0.000000 0.000000 0.000000 0.647413 0.000000
# 6 0.000000 0.000000 0.000000 0.000000 0.000000 0.207565
#
#
# Mechanical properties :
#
#
# Convention : Reuss Voigt Hill
#
# Bulk Modulus (GPa) = 22.99484 85.59301 54.29393
# Shear Modulus (GPa) = 4.54649 18.06511 11.30580
#
# Velocity S-wave (km/s) = 1.51506 3.02003 2.38914
# Velocity P-wave (km/s) = 3.83015 7.44140 5.91796
#
# Compressibility (1/GPa) = 0.04348801
#
# Stress axis : x y z
#
# Youngs Moduli (GPa) = 51.75791 23.73755 52.50556
#
# Poissons Ratio (x) = -0.02788 0.85585
# Poissons Ratio (y) = -0.06080 0.17732
# Poissons Ratio (z) = 0.84367 0.08017
#
# Static dielectric constant tensor:
#      x y z
#    x 1.623420 0.000000 0.000000 
#    y 0.000000 1.735110 0.000000 
#    z 0.000000 0.000000 1.711630 
# 
# From -- ./inp_files/70345.got.cif
#   From: 2010.05.17/outbox.cif.g08.bks.cpg/sg65_36_cif.got.tgz:70345.got - 2010.06.03 17:01:31.
