data_PCOD9485974
_publ_section_title
;
Structure prediction by ZEFSAII (Michael W. Deem and Ramdas Pophale) SiO2 
 PCOD9485974
Probable space group: C M M M
;
_chemical_formula_sum "Si O2"
_cell_formula_units_Z 112
_cell_length_a 15.014041
_cell_length_b 25.140232
_cell_length_c 16.211240
_cell_angle_alpha 90.000000
_cell_angle_beta 90.000000
_cell_angle_gamma 90.000000
_cell_volume 6119.037490
_symmetry_space_group_name_H-M "C M M M"
_symmetry_group_IT_number 65
_symmetry_cell_setting 'orthorhombic'
loop_
_space_group_symop_operation_xyz
x,y,z
-x,-y,z
x,-y,-z
-x,y,-z
-x,-y,-z
x,y,-z
-x,y,z
x,-y,z
1/2+x,1/2+y,z
1/2-x,1/2-y,z
1/2+x,1/2-y,-z
1/2-x,1/2+y,-z
1/2-x,1/2-y,-z
1/2+x,1/2+y,-z
1/2-x,1/2+y,z
1/2+x,1/2-y,z
loop_
_atom_site_type_symbol
_atom_site_label
_atom_site_fract_x
_atom_site_fract_y
_atom_site_fract_z
Si Si1 0.296891 0.832814 0.092987
Si Si2 0.897492 0.559563 0.900309
Si Si3 0.399135 0.341378 0.138541
Si Si4 0.856135 0.754148 0.408506
Si Si5 0.893544 0.120543 0.590091
Si Si6 0.107098 0.940718 0.251136
Si Si7 0.901235 0.267324 0.227524
O O1 0.332239 0.891579 0.118114
O O2 0.190088 0.830029 0.088483
O O3 0.332646 0.794593 0.165033
O O4 0.331840 0.820435 0.000000
O O5 0.871859 0.500000 0.871295
O O6 0.000000 0.570084 0.873710
O O7 0.899117 0.557262 0.000000
O O8 0.500000 0.339718 0.102344
O O9 0.382927 0.399122 0.177591
O O10 0.399129 0.295887 0.209006
O O11 0.888504 0.736539 0.500000
O O12 0.750000 0.750000 0.408950
O O13 0.879747 0.816450 0.400392
O O14 0.887335 0.725210 0.325151
O O15 0.857802 0.104872 0.500000
O O16 0.856493 0.086635 0.665802
O O17 0.000000 0.112446 0.588943
O O18 0.000000 0.944735 0.261372
O O19 0.141902 0.000000 0.236928
O O20 0.000000 0.286567 0.204492
#
# Coordination Sequence:
#
# PCOD9485974 Si02
#       7
#    16  16  16  16  16  16  16
#     4  11  23  37  56  81 108 139 180 230 280 334
#     4   8  15  31  55  80 105 132 165 213 274 329
#     4  10  21  36  52  72 104 145 184 223 273 333
#     4  10  19  31  51  78 108 146 185 221 266 324
#     4   9  16  27  46  72 101 134 176 223 269 316
#     4   9  17  30  48  70  99 138 181 221 264 317
#     4  11  22  36  55  78 108 143 181 228 280 333
#
# _framework density 18.303533000000002
#
# number of rings (size 3 to 8) (size 9 to 14) (size 15 to 20)
#    0.000    2.286    1.429    2.571    0.000    4.000 
#    0.000    2.857    0.000    0.000    0.000    4.000 
#    0.000    0.571    0.000    3.000    0.000    0.143 
#
# Total GULP energy -311782.273440 kJ/mol
# GULP energy per Si atom -5567.540597 kJ/mol
# Density = 1.826187 g / cm^3
# Si number density = 18.303533 Si / 1000 Ang^3
#
#
#
# Elastic Constant Matrix: (Units=GPa)
#
#
# Indices 1 2 3 4 5 6 
#
# 1 80.5336 18.9944 29.9370 0.0000 0.0000 0.0000
# 2 18.9944 68.9693 35.3006 0.0000 0.0000 0.0000
# 3 29.9370 35.3006 98.6999 0.0000 0.0000 0.0000
# 4 0.0000 0.0000 0.0000 16.5904 0.0000 0.0000
# 5 0.0000 0.0000 0.0000 0.0000 11.9935 0.0000
# 6 0.0000 0.0000 0.0000 0.0000 0.0000 15.4226
#
#
#
# Elastic Compliance Matrix: (Units=1/GPa)
#
#
# Indices 1 2 3 4 5 6 
#
# 1 0.014238 -0.002094 -0.003570 0.000000 0.000000 0.000000
# 2 -0.002094 0.018056 -0.005823 0.000000 0.000000 0.000000
# 3 -0.003570 -0.005823 0.013297 0.000000 0.000000 0.000000
# 4 0.000000 0.000000 0.000000 0.060276 0.000000 0.000000
# 5 0.000000 0.000000 0.000000 0.000000 0.083378 0.000000
# 6 0.000000 0.000000 0.000000 0.000000 0.000000 0.064840
#
#
# Mechanical properties :
#
#
# Convention : Reuss Voigt Hill
#
# Bulk Modulus (GPa) = 44.21215 46.29632 45.25423
# Shear Modulus (GPa) = 17.56866 19.73268 18.65067
#
# Velocity S-wave (km/s) = 3.10151 3.28698 3.19559
# Velocity P-wave (km/s) = 6.08549 6.30509 6.19626
#
# Compressibility (1/GPa) = 0.02261822
#
# Stress axis : x y z
#
# Youngs Moduli (GPa) = 70.23436 55.38262 75.20519
#
# Poissons Ratio (x) = 0.11598 0.26845
# Poissons Ratio (y) = 0.14708 0.43790
# Poissons Ratio (z) = 0.25071 0.32248
#
# Static dielectric constant tensor:
#      x y z
#    x 1.651450 0.000000 0.000000 
#    y 0.000000 1.657860 0.000000 
#    z 0.000000 0.000000 1.656340 
# 
# From -- ./inp_files/41067.got.cif
#   From: 2010.05.17/outbox.cif.g08.bks.cpg/sg65_21_cif.got.tgz:41067.got - 2010.06.03 17:01:31.
