data_PCOD9485618
_publ_section_title
;
Structure prediction by ZEFSAII (Michael W. Deem and Ramdas Pophale) SiO2 
 PCOD9485618
Probable space group: C M M M
;
_chemical_formula_sum "Si O2"
_cell_formula_units_Z 96
_cell_length_a 30.552102
_cell_length_b 19.996813
_cell_length_c 7.542357
_cell_angle_alpha 90.000000
_cell_angle_beta 90.000000
_cell_angle_gamma 90.000000
_cell_volume 4607.962812
_symmetry_space_group_name_H-M "C M M M"
_symmetry_group_IT_number 65
_symmetry_cell_setting 'orthorhombic'
loop_
_space_group_symop_operation_xyz
x,y,z
-x,-y,z
x,-y,-z
-x,y,-z
-x,-y,-z
x,y,-z
-x,y,z
x,-y,z
1/2+x,1/2+y,z
1/2-x,1/2-y,z
1/2+x,1/2-y,-z
1/2-x,1/2+y,-z
1/2-x,1/2-y,-z
1/2+x,1/2+y,-z
1/2-x,1/2+y,z
1/2+x,1/2-y,z
loop_
_atom_site_type_symbol
_atom_site_label
_atom_site_fract_x
_atom_site_fract_y
_atom_site_fract_z
Si Si1 0.772179 0.679186 0.284140
Si Si2 0.450934 0.923922 0.787972
Si Si3 0.449224 0.427216 0.786107
Si Si4 0.622371 0.326768 0.296255
Si Si5 0.698293 0.576534 0.716952
Si Si6 0.627774 0.821988 0.286803
O O1 0.772535 0.682073 0.500000
O O2 0.750000 0.750000 0.227164
O O3 0.741709 0.617131 0.233035
O O4 0.822109 0.667182 0.225386
O O5 0.500000 0.902915 0.724470
O O6 0.410540 0.874447 0.753929
O O7 0.442816 0.000000 0.722519
O O8 0.453829 0.927628 0.000000
O O9 0.500000 0.424322 0.737523
O O10 0.431472 0.500000 0.729329
O O11 0.422457 0.366690 0.709376
O O12 0.446665 0.424505 0.000000
O O13 0.636640 0.316648 0.500000
O O14 0.658322 0.377100 0.218299
O O15 0.617251 0.252988 0.220188
O O16 0.696605 0.574196 0.500000
O O17 0.696349 0.500000 0.778203
O O18 0.629330 0.821878 0.500000
#
# Coordination Sequence:
#
# PCOD9485618 Si02
#       6
#    16  16  16  16  16  16
#     4   9  15  28  47  69 105 144 170 205 260 312
#     4   9  20  40  61  78 102 140 181 220 268 325
#     4   9  19  35  51  67  92 129 171 213 256 301
#     4  10  19  31  48  74 105 134 164 206 257 306
#     4   9  16  26  44  70  98 133 175 210 244 296
#     4  10  20  32  53  83 111 138 170 213 266 315
#
# _framework density 20.833500999999998
#
# number of rings (size 3 to 8) (size 9 to 14) (size 15 to 20)
#    0.000    2.667    1.667    1.500    0.000    4.000 
#    0.000    6.667    0.000    1.500    0.000    2.333 
#    0.000    0.000    0.000    0.000    0.000    0.000 
#
# Total GULP energy -267677.790770 kJ/mol
# GULP energy per Si atom -5576.620641 kJ/mol
# Density = 2.078608 g / cm^3
# Si number density = 20.833501 Si / 1000 Ang^3
#
#
#
# Elastic Constant Matrix: (Units=GPa)
#
#
# Indices 1 2 3 4 5 6 
#
# 1 159.3215 115.1862 6.5219 0.0000 0.0000 0.0000
# 2 115.1862 182.9574 8.8248 0.0000 0.0000 0.0000
# 3 6.5219 8.8248 47.8032 0.0000 0.0000 0.0000
# 4 0.0000 0.0000 0.0000 11.8194 0.0000 0.0000
# 5 0.0000 0.0000 0.0000 0.0000 43.8609 0.0000
# 6 0.0000 0.0000 0.0000 0.0000 0.0000 42.1422
#
#
#
# Elastic Compliance Matrix: (Units=1/GPa)
#
#
# Indices 1 2 3 4 5 6 
#
# 1 0.011523 -0.007243 -0.000235 0.000000 0.000000 0.000000
# 2 -0.007243 0.010068 -0.000870 0.000000 0.000000 0.000000
# 3 -0.000235 -0.000870 0.021112 0.000000 0.000000 0.000000
# 4 0.000000 0.000000 0.000000 0.084606 0.000000 0.000000
# 5 0.000000 0.000000 0.000000 0.000000 0.022799 0.000000
# 6 0.000000 0.000000 0.000000 0.000000 0.000000 0.023729
#
#
# Mechanical properties :
#
#
# Convention : Reuss Voigt Hill
#
# Bulk Modulus (GPa) = 38.45338 72.34977 55.40158
# Shear Modulus (GPa) = 25.09996 36.86778 30.98387
#
# Velocity S-wave (km/s) = 3.47477 4.21127 3.86062
# Velocity P-wave (km/s) = 5.88186 7.64522 6.82077
#
# Compressibility (1/GPa) = 0.02600552
#
# Stress axis : x y z
#
# Youngs Moduli (GPa) = 86.78289 99.32481 47.36678
#
# Poissons Ratio (x) = 0.71944 0.01113
# Poissons Ratio (y) = 0.62860 0.04123
# Poissons Ratio (z) = 0.02039 0.08645
#
# Static dielectric constant tensor:
#      x y z
#    x 1.743270 0.000000 0.000000 
#    y 0.000000 1.733150 0.000000 
#    z 0.000000 0.000000 1.812100 
# 
# From -- ./inp_files/12209.got.cif
#   From: 2010.05.17/outbox.cif.g08.bks.cpg/sg65_7_cif.got.tgz:12209.got - 2010.06.03 17:01:31.
