data_PCOD9485713
_publ_section_title
;
Structure prediction by ZEFSAII (Michael W. Deem and Ramdas Pophale) SiO2 
 PCOD9485713
Probable space group: C M M M
;
_chemical_formula_sum "Si O2"
_cell_formula_units_Z 64
_cell_length_a 7.671946
_cell_length_b 28.278849
_cell_length_c 19.048266
_cell_angle_alpha 90.000000
_cell_angle_beta 90.000000
_cell_angle_gamma 90.000000
_cell_volume 4132.593739
_symmetry_space_group_name_H-M "C M M M"
_symmetry_group_IT_number 65
_symmetry_cell_setting 'orthorhombic'
loop_
_space_group_symop_operation_xyz
x,y,z
-x,-y,z
x,-y,-z
-x,y,-z
-x,-y,-z
x,y,-z
-x,y,z
x,-y,z
1/2+x,1/2+y,z
1/2-x,1/2-y,z
1/2+x,1/2-y,-z
1/2-x,1/2+y,-z
1/2-x,1/2-y,-z
1/2+x,1/2+y,-z
1/2-x,1/2+y,z
1/2+x,1/2-y,z
loop_
_atom_site_type_symbol
_atom_site_label
_atom_site_fract_x
_atom_site_fract_y
_atom_site_fract_z
Si Si1 0.000000 0.442973 0.920662
Si Si2 0.294851 0.555995 0.810051
Si Si3 0.000000 0.055940 0.421884
Si Si4 0.708214 0.195814 0.420407
Si Si5 0.292772 0.894768 0.665329
O O1 0.829183 0.431035 0.875082
O O2 0.000000 0.500000 0.925560
O O3 0.000000 0.424069 0.000000
O O4 0.500000 0.559814 0.825953
O O5 0.261176 0.500000 0.792183
O O6 0.248794 0.589634 0.744652
O O7 0.827161 0.071888 0.381878
O O8 0.000000 0.076121 0.500000
O O9 0.000000 0.000000 0.424903
O O10 0.776822 0.186190 0.500000
O O11 0.500000 0.192215 0.424751
O O12 0.750000 0.250000 0.402832
O O13 0.760715 0.157636 0.361818
O O14 0.500000 0.900619 0.653986
#
# Coordination Sequence:
#
# PCOD9485713 Si02
#       5
#     8  16   8  16  16
#     4   9  18  32  50  73 101 131 161 198 246 297
#     4  10  19  31  49  73 100 133 168 201 243 295
#     4  11  24  36  48  69  95 131 177 216 253 294
#     4   9  19  33  49  70  94 126 166 210 264 310
#     4  11  21  34  52  72  98 132 169 214 254 304
#
# _framework density 15.486643000000001
#
# number of rings (size 3 to 8) (size 9 to 14) (size 15 to 20)
#    0.000    2.000    2.500    1.500    1.750    3.500 
#    0.000    3.750    0.000    0.000    0.000    0.000 
#    0.000    1.000    0.500    0.000    0.000    0.000 
#
# Total GULP energy -178296.771041 kJ/mol
# GULP energy per Si atom -5571.774095 kJ/mol
# Density = 1.545139 g / cm^3
# Si number density = 15.486643 Si / 1000 Ang^3
#
#
#
# Elastic Constant Matrix: (Units=GPa)
#
#
# Indices 1 2 3 4 5 6 
#
# 1 96.5034 30.1254 55.7814 0.0000 0.0000 0.0000
# 2 30.1254 84.0096 55.6272 0.0000 0.0000 0.0000
# 3 55.7814 55.6272 145.1858 0.0000 0.0000 0.0000
# 4 0.0000 0.0000 0.0000 20.8156 0.0000 0.0000
# 5 0.0000 0.0000 0.0000 0.0000 19.2983 0.0000
# 6 0.0000 0.0000 0.0000 0.0000 0.0000 48.4820
#
#
#
# Elastic Compliance Matrix: (Units=1/GPa)
#
#
# Indices 1 2 3 4 5 6 
#
# 1 0.013541 -0.001890 -0.004478 0.000000 0.000000 0.000000
# 2 -0.001890 0.016214 -0.005486 0.000000 0.000000 0.000000
# 3 -0.004478 -0.005486 0.010710 0.000000 0.000000 0.000000
# 4 0.000000 0.000000 0.000000 0.048041 0.000000 0.000000
# 5 0.000000 0.000000 0.000000 0.000000 0.051818 0.000000
# 6 0.000000 0.000000 0.000000 0.000000 0.000000 0.020626
#
#
# Mechanical properties :
#
#
# Convention : Reuss Voigt Hill
#
# Bulk Modulus (GPa) = 59.68082 67.64077 63.66079
# Shear Modulus (GPa) = 26.28194 29.99683 28.13939
#
# Velocity S-wave (km/s) = 4.12402 4.40585 4.26726
# Velocity P-wave (km/s) = 7.82926 8.34588 8.09170
#
# Compressibility (1/GPa) = 0.01675580
#
# Stress axis : x y z
#
# Youngs Moduli (GPa) = 73.84979 61.67575 93.36898
#
# Poissons Ratio (x) = 0.11660 0.41813
# Poissons Ratio (y) = 0.13961 0.51221
# Poissons Ratio (z) = 0.33072 0.33835
#
# Static dielectric constant tensor:
#      x y z
#    x 1.540100 0.000000 0.000000 
#    y 0.000000 1.515220 0.000000 
#    z 0.000000 0.000000 1.516890 
# 
# From -- ./inp_files/49384.got.cif
#   From: 2010.05.17/outbox.cif.g08.bks.cpg/sg65_25_cif.got.tgz:49384.got - 2010.06.03 17:01:31.
