data_PCOD9485623
_publ_section_title
;
Structure prediction by ZEFSAII (Michael W. Deem and Ramdas Pophale) SiO2 
 PCOD9485623
Probable space group: C M M M
;
_chemical_formula_sum "Si O2"
_cell_formula_units_Z 104
_cell_length_a 29.747538
_cell_length_b 20.602031
_cell_length_c 9.705686
_cell_angle_alpha 90.000000
_cell_angle_beta 90.000000
_cell_angle_gamma 90.000000
_cell_volume 5948.223811
_symmetry_space_group_name_H-M "C M M M"
_symmetry_group_IT_number 65
_symmetry_cell_setting 'orthorhombic'
loop_
_space_group_symop_operation_xyz
x,y,z
-x,-y,z
x,-y,-z
-x,y,-z
-x,-y,-z
x,y,-z
-x,y,z
x,-y,z
1/2+x,1/2+y,z
1/2-x,1/2-y,z
1/2+x,1/2-y,-z
1/2-x,1/2+y,-z
1/2-x,1/2-y,-z
1/2+x,1/2+y,-z
1/2-x,1/2+y,z
1/2+x,1/2-y,z
loop_
_atom_site_type_symbol
_atom_site_label
_atom_site_fract_x
_atom_site_fract_y
_atom_site_fract_z
Si Si1 0.554614 0.379113 0.842875
Si Si2 0.207526 0.796732 0.662833
Si Si3 0.361619 0.817339 0.657968
Si Si4 0.552405 0.744072 0.340796
Si Si5 0.555129 0.500000 0.659062
Si Si6 0.287518 0.426175 0.839038
Si Si7 0.678995 0.070978 0.840047
O O1 0.500000 0.383943 0.848523
O O2 0.564473 0.312040 0.766655
O O3 0.570149 0.437416 0.745192
O O4 0.571136 0.383146 0.000000
O O5 0.214180 0.811741 0.500000
O O6 0.250000 0.750000 0.704997
O O7 0.164396 0.750565 0.678232
O O8 0.200726 0.863348 0.747192
O O9 0.353337 0.836649 0.500000
O O10 0.414070 0.803485 0.678462
O O11 0.341872 0.871095 0.755969
O O12 0.558246 0.720739 0.500000
O O13 0.500000 0.760205 0.323782
O O14 0.500000 0.500000 0.656910
O O15 0.569647 0.500000 0.500000
O O16 0.302146 0.500000 0.797211
O O17 0.233079 0.426645 0.834057
O O18 0.300654 0.417226 0.000000
O O19 0.664851 0.000000 0.787822
O O20 0.666455 0.076100 0.000000
#
# Coordination Sequence:
#
# PCOD9485623 Si02
#       7
#    16  16  16  16   8  16  16
#     4   9  16  26  42  65  90 114 146 193 245 293
#     4  10  19  31  48  75 108 135 162 201 249 300
#     4  10  20  33  51  76 103 131 167 207 248 298
#     4   9  18  33  51  69  92 124 164 209 253 297
#     4   9  15  23  39  63  89 117 149 187 239 299
#     4   9  18  32  50  73 102 137 174 206 239 288
#     4   9  18  32  50  75 105 134 166 203 243 291
#
# _framework density 17.484210000000001
#
# number of rings (size 3 to 8) (size 9 to 14) (size 15 to 20)
#    0.000    2.692    1.538    1.615    0.000    4.923 
#    0.000    1.538    1.692    0.462    0.000    3.231 
#    0.000    0.000    0.000    0.000    0.000    0.000 
#
# Total GULP energy -289774.567607 kJ/mol
# GULP energy per Si atom -5572.587839 kJ/mol
# Density = 1.744442 g / cm^3
# Si number density = 17.484210 Si / 1000 Ang^3
#
#
#
# Elastic Constant Matrix: (Units=GPa)
#
#
# Indices 1 2 3 4 5 6 
#
# 1 21.2498 5.1028 10.8180 0.0000 0.0000 0.0000
# 2 5.1028 98.3209 58.9788 0.0000 0.0000 0.0000
# 3 10.8180 58.9788 83.0557 0.0000 0.0000 0.0000
# 4 0.0000 0.0000 0.0000 31.9464 0.0000 0.0000
# 5 0.0000 0.0000 0.0000 0.0000 12.4124 0.0000
# 6 0.0000 0.0000 0.0000 0.0000 0.0000 8.8255
#
#
#
# Elastic Compliance Matrix: (Units=1/GPa)
#
#
# Indices 1 2 3 4 5 6 
#
# 1 0.050702 0.002317 -0.008249 0.000000 0.000000 0.000000
# 2 0.002317 0.017824 -0.012959 0.000000 0.000000 0.000000
# 3 -0.008249 -0.012959 0.022317 0.000000 0.000000 0.000000
# 4 0.000000 0.000000 0.000000 0.031302 0.000000 0.000000
# 5 0.000000 0.000000 0.000000 0.000000 0.080565 0.000000
# 6 0.000000 0.000000 0.000000 0.000000 0.000000 0.113308
#
#
# Mechanical properties :
#
#
# Convention : Reuss Voigt Hill
#
# Bulk Modulus (GPa) = 18.84625 39.15840 29.00232
# Shear Modulus (GPa) = 13.45941 19.15199 16.30570
#
# Velocity S-wave (km/s) = 2.77754 3.31325 3.05716
# Velocity P-wave (km/s) = 4.59225 6.08949 5.39308
#
# Compressibility (1/GPa) = 0.05306097
#
# Stress axis : x y z
#
# Youngs Moduli (GPa) = 19.72293 56.10420 44.80938
#
# Poissons Ratio (x) = -0.12999 0.36965
# Poissons Ratio (y) = -0.04570 0.58068
# Poissons Ratio (z) = 0.16270 0.72704
#
# Static dielectric constant tensor:
#      x y z
#    x 1.617620 0.000000 0.000000 
#    y 0.000000 1.585250 0.000000 
#    z 0.000000 0.000000 1.594820 
# 
# From -- ./inp_files/16464.got.cif
#   From: 2010.05.17/outbox.cif.g08.bks.cpg/sg65_9_cif.got.tgz:16464.got - 2010.06.03 17:01:31.
