data_PCOD9485903
_publ_section_title
;
Structure prediction by ZEFSAII (Michael W. Deem and Ramdas Pophale) SiO2 
 PCOD9485903
Probable space group: C M M M
;
_chemical_formula_sum "Si O2"
_cell_formula_units_Z 104
_cell_length_a 9.752161
_cell_length_b 29.953073
_cell_length_c 20.432268
_cell_angle_alpha 90.000000
_cell_angle_beta 90.000000
_cell_angle_gamma 90.000000
_cell_volume 5968.412398
_symmetry_space_group_name_H-M "C M M M"
_symmetry_group_IT_number 65
_symmetry_cell_setting 'orthorhombic'
loop_
_space_group_symop_operation_xyz
x,y,z
-x,-y,z
x,-y,-z
-x,y,-z
-x,-y,-z
x,y,-z
-x,y,z
x,-y,z
1/2+x,1/2+y,z
1/2-x,1/2-y,z
1/2+x,1/2-y,-z
1/2-x,1/2+y,-z
1/2-x,1/2-y,-z
1/2+x,1/2+y,-z
1/2-x,1/2+y,z
1/2+x,1/2-y,z
loop_
_atom_site_type_symbol
_atom_site_label
_atom_site_fract_x
_atom_site_fract_y
_atom_site_fract_z
Si Si1 0.836365 0.863455 0.879875
Si Si2 0.162547 0.551361 0.078861
Si Si3 0.643833 0.288130 0.500000
Si Si4 0.844614 0.000000 0.578768
Si Si5 0.161651 0.414448 0.421606
Si Si6 0.339019 0.706552 0.769177
Si Si7 0.345229 0.658253 0.365680
Si Si8 0.336563 0.295871 0.000000
O O1 0.751361 0.908913 0.889773
O O2 0.804294 0.836315 0.813698
O O3 0.000000 0.873209 0.881763
O O4 0.807629 0.827598 0.937639
O O5 0.199532 0.500000 0.097629
O O6 0.000000 0.557258 0.092543
O O7 0.179698 0.554419 0.000000
O O8 0.500000 0.263693 0.500000
O O9 0.750000 0.250000 0.500000
O O10 0.651811 0.317124 0.435114
O O11 0.754241 0.957097 0.594631
O O12 0.856477 0.000000 0.500000
O O13 0.000000 0.000000 0.605242
O O14 0.181015 0.404402 0.500000
O O15 0.223350 0.376506 0.375261
O O16 0.000000 0.421912 0.412371
O O17 0.500000 0.716439 0.780704
O O18 0.250000 0.750000 0.784825
O O19 0.321684 0.691920 0.693878
O O20 0.500000 0.638536 0.356159
O O21 0.250000 0.250000 0.000000
O O22 0.500000 0.285402 0.000000
#
# Coordination Sequence:
#
# PCOD9485903 Si02
#       8
#    16  16   8   8  16  16  16   8
#     4  10  20  35  54  80 111 144 182 223 266 316
#     4   9  18  33  55  85 116 144 179 223 269 319
#     4  10  20  32  50  73  98 127 166 214 263 316
#     4   9  17  29  49  75 105 139 169 204 259 324
#     4  10  19  31  50  78 106 132 167 216 265 314
#     4  10  22  38  56  78 108 144 184 226 271 327
#     4  10  20  35  53  74 102 137 176 220 269 326
#     4  10  20  32  49  76 109 141 178 221 261 306
#
# _framework density 17.425070000000002
#
# number of rings (size 3 to 8) (size 9 to 14) (size 15 to 20)
#    0.000    2.231    1.538    2.077    0.000    4.308 
#    0.000    0.769    1.692    0.000    0.000    0.000 
#    0.000    0.000    0.000    0.000    0.000    0.000 
#
# Total GULP energy -289741.113877 kJ/mol
# GULP energy per Si atom -5571.944498 kJ/mol
# Density = 1.738541 g / cm^3
# Si number density = 17.425070 Si / 1000 Ang^3
#
#
#
# Elastic Constant Matrix: (Units=GPa)
#
#
# Indices 1 2 3 4 5 6 
#
# 1 115.8365 88.2234 22.9036 0.0000 0.0000 0.0000
# 2 88.2234 131.4656 34.8207 0.0000 0.0000 0.0000
# 3 22.9036 34.8207 65.8984 0.0000 0.0000 0.0000
# 4 0.0000 0.0000 0.0000 16.6027 0.0000 0.0000
# 5 0.0000 0.0000 0.0000 0.0000 17.3025 0.0000
# 6 0.0000 0.0000 0.0000 0.0000 0.0000 36.1828
#
#
#
# Elastic Compliance Matrix: (Units=1/GPa)
#
#
# Indices 1 2 3 4 5 6 
#
# 1 0.017659 -0.011889 0.000144 0.000000 0.000000 0.000000
# 2 -0.011889 0.016848 -0.004771 0.000000 0.000000 0.000000
# 3 0.000144 -0.004771 0.017645 0.000000 0.000000 0.000000
# 4 0.000000 0.000000 0.000000 0.060231 0.000000 0.000000
# 5 0.000000 0.000000 0.000000 0.000000 0.057795 0.000000
# 6 0.000000 0.000000 0.000000 0.000000 0.000000 0.027637
#
#
# Mechanical properties :
#
#
# Convention : Reuss Voigt Hill
#
# Bulk Modulus (GPa) = 52.29309 67.23287 59.76298
# Shear Modulus (GPa) = 21.07738 25.16778 23.12258
#
# Velocity S-wave (km/s) = 3.48170 3.80457 3.64671
# Velocity P-wave (km/s) = 6.79988 7.61364 7.21824
#
# Compressibility (1/GPa) = 0.01912298
#
# Stress axis : x y z
#
# Youngs Moduli (GPa) = 56.62806 59.35260 56.67184
#
# Poissons Ratio (x) = 0.70563 -0.00819
# Poissons Ratio (y) = 0.67324 0.27036
# Poissons Ratio (z) = -0.00818 0.28315
#
# Static dielectric constant tensor:
#      x y z
#    x 1.596790 0.000000 0.000000 
#    y 0.000000 1.590710 0.000000 
#    z 0.000000 0.000000 1.591220 
# 
# From -- ./inp_files/60963.got.cif
#   From: 2010.05.17/outbox.cif.g08.bks.cpg/sg65_31_cif.got.tgz:60963.got - 2010.06.03 17:01:31.
