data_PCOD9485352
_publ_section_title
;
Structure prediction by ZEFSAII (Michael W. Deem and Ramdas Pophale) SiO2 
 PCOD9485352
Probable space group: C M M M
;
_chemical_formula_sum "Si O2"
_cell_formula_units_Z 88
_cell_length_a 31.029099
_cell_length_b 24.085866
_cell_length_c 8.869365
_cell_angle_alpha 90.000000
_cell_angle_beta 90.000000
_cell_angle_gamma 90.000000
_cell_volume 6628.632757
_symmetry_space_group_name_H-M "C M M M"
_symmetry_group_IT_number 65
_symmetry_cell_setting 'orthorhombic'
loop_
_space_group_symop_operation_xyz
x,y,z
-x,-y,z
x,-y,-z
-x,y,-z
-x,-y,-z
x,y,-z
-x,y,z
x,-y,z
1/2+x,1/2+y,z
1/2-x,1/2-y,z
1/2+x,1/2-y,-z
1/2-x,1/2+y,-z
1/2-x,1/2-y,-z
1/2+x,1/2+y,-z
1/2-x,1/2+y,z
1/2+x,1/2-y,z
loop_
_atom_site_type_symbol
_atom_site_label
_atom_site_fract_x
_atom_site_fract_y
_atom_site_fract_z
Si Si1 0.793482 0.212621 0.327241
Si Si2 0.000000 0.565548 0.318930
Si Si3 0.838863 0.321431 0.681474
Si Si4 0.755438 0.382865 0.178865
Si Si5 0.912484 0.390597 0.823079
Si Si6 0.353931 0.000000 0.828471
Si Si7 0.236125 0.500000 0.677346
O O1 0.801369 0.194846 0.500000
O O2 0.750000 0.250000 0.328904
O O3 0.829385 0.257071 0.278588
O O4 0.781973 0.160253 0.225512
O O5 0.042366 0.595212 0.254265
O O6 0.000000 0.500000 0.274006
O O7 0.000000 0.567629 0.500000
O O8 0.836317 0.326146 0.500000
O O9 0.800067 0.358371 0.751561
O O10 0.884033 0.343599 0.742807
O O11 0.747269 0.443437 0.247301
O O12 0.760274 0.385664 0.000000
O O13 0.883475 0.446188 0.811632
O O14 0.918434 0.378345 0.000000
O O15 0.315125 0.000000 0.711823
O O16 0.335769 0.000000 0.000000
O O17 0.244155 0.500000 0.500000
#
# Coordination Sequence:
#
# PCOD9485352 Si02
#       7
#    16   8  16  16  16   8   8
#     4   8  16  30  44  59  80 105 133 166 204 246
#     4  11  23  35  47  61  81 107 139 174 215 266
#     4  10  19  31  46  62  81 105 136 171 208 251
#     4  11  20  29  42  61  84 106 135 172 209 247
#     4  11  21  33  48  62  81 105 136 176 219 259
#     4  10  20  31  43  60  81 104 134 175 216 255
#     4  12  22  30  43  59  82 112 141 172 210 254
#
# _framework density 13.275740000000001
#
# number of rings (size 3 to 8) (size 9 to 14) (size 15 to 20)
#    0.000    1.727    2.727    4.909    0.000    5.091 
#    0.000    0.000    0.000    0.000    0.000    0.000 
#    0.000    0.000    0.000    0.000    0.000    0.909 
#
# Total GULP energy -245471.407154 kJ/mol
# GULP energy per Si atom -5578.895617 kJ/mol
# Density = 1.324552 g / cm^3
# Si number density = 13.275740 Si / 1000 Ang^3
#
#
#
# Elastic Constant Matrix: (Units=GPa)
#
#
# Indices 1 2 3 4 5 6 
#
# 1 66.5134 47.7555 36.4330 0.0000 0.0000 0.0000
# 2 47.7555 95.0921 57.8333 0.0000 0.0000 0.0000
# 3 36.4330 57.8333 93.1536 0.0000 0.0000 0.0000
# 4 0.0000 0.0000 0.0000 13.7221 0.0000 0.0000
# 5 0.0000 0.0000 0.0000 0.0000 12.3863 0.0000
# 6 0.0000 0.0000 0.0000 0.0000 0.0000 18.3832
#
#
#
# Elastic Compliance Matrix: (Units=1/GPa)
#
#
# Indices 1 2 3 4 5 6 
#
# 1 0.024045 -0.010212 -0.003064 0.000000 0.000000 0.000000
# 2 -0.010212 0.021233 -0.009188 0.000000 0.000000 0.000000
# 3 -0.003064 -0.009188 0.017638 0.000000 0.000000 0.000000
# 4 0.000000 0.000000 0.000000 0.072875 0.000000 0.000000
# 5 0.000000 0.000000 0.000000 0.000000 0.080735 0.000000
# 6 0.000000 0.000000 0.000000 0.000000 0.000000 0.054398
#
#
# Mechanical properties :
#
#
# Convention : Reuss Voigt Hill
#
# Bulk Modulus (GPa) = 55.59593 59.86696 57.73145
# Shear Modulus (GPa) = 15.53536 16.41412 15.97474
#
# Velocity S-wave (km/s) = 3.42454 3.52006 3.47263
# Velocity P-wave (km/s) = 7.58982 7.85583 7.72397
#
# Compressibility (1/GPa) = 0.01798693
#
# Stress axis : x y z
#
# Youngs Moduli (GPa) = 41.58882 47.09749 56.69669
#
# Poissons Ratio (x) = 0.48095 0.17373
# Poissons Ratio (y) = 0.42470 0.52093
# Poissons Ratio (z) = 0.12744 0.43274
#
# Static dielectric constant tensor:
#      x y z
#    x 1.415360 0.000000 0.000000 
#    y 0.000000 1.446060 0.000000 
#    z 0.000000 0.000000 1.448780 
# 
# From -- ./inp_files/18822.got.cif
#   From: 2010.05.17/outbox.cif.g08.bks.cpg/sg65_10_cif.got.tgz:18822.got - 2010.06.03 17:01:31.
