data_PCOD9485563
_publ_section_title
;
Structure prediction by ZEFSAII (Michael W. Deem and Ramdas Pophale) SiO2 
 PCOD9485563
Probable space group: C M M M
;
_chemical_formula_sum "Si O2"
_cell_formula_units_Z 88
_cell_length_a 18.683352
_cell_length_b 7.538707
_cell_length_c 30.223345
_cell_angle_alpha 90.000000
_cell_angle_beta 90.000000
_cell_angle_gamma 90.000000
_cell_volume 4256.907262
_symmetry_space_group_name_H-M "C M M M"
_symmetry_group_IT_number 65
_symmetry_cell_setting 'orthorhombic'
loop_
_space_group_symop_operation_xyz
x,y,z
-x,-y,z
x,-y,-z
-x,y,-z
-x,-y,-z
x,y,-z
-x,y,z
x,-y,z
1/2+x,1/2+y,z
1/2-x,1/2-y,z
1/2+x,1/2-y,-z
1/2-x,1/2+y,-z
1/2-x,1/2-y,-z
1/2+x,1/2+y,-z
1/2-x,1/2+y,z
1/2+x,1/2-y,z
loop_
_atom_site_type_symbol
_atom_site_label
_atom_site_fract_x
_atom_site_fract_y
_atom_site_fract_z
Si Si1 0.581391 0.788266 0.133497
Si Si2 0.334100 0.787060 0.048617
Si Si3 0.665998 0.712655 0.587429
Si Si4 0.416122 0.716463 0.674061
Si Si5 0.417114 0.717234 0.500000
Si Si6 0.917388 0.212688 0.770562
O O1 0.500000 0.717191 0.133836
O O2 0.624248 0.717604 0.091370
O O3 0.615403 0.758554 0.181982
O O4 0.576998 0.000000 0.128526
O O5 0.250000 0.750000 0.053000
O O6 0.343008 0.000000 0.047952
O O7 0.357502 0.720431 0.000000
O O8 0.657415 0.500000 0.587776
O O9 0.750000 0.750000 0.585046
O O10 0.630279 0.780061 0.632776
O O11 0.624159 0.777381 0.544012
O O12 0.500000 0.765849 0.669466
O O13 0.414706 0.500000 0.673588
O O14 0.389002 0.773696 0.722810
O O15 0.416302 0.500000 0.500000
O O16 0.500000 0.771029 0.500000
O O17 0.000000 0.277227 0.772214
O O18 0.919141 0.000000 0.768828
#
# Coordination Sequence:
#
# PCOD9485563 Si02
#       6
#    16  16  16  16   8  16
#     4   9  17  29  46  69  94 117 144 182 227 270
#     4   9  18  32  48  65  87 117 150 182 219 265
#     4  10  19  31  48  70  97 124 150 186 231 274
#     4   8  14  27  48  69  87 115 157 194 219 254
#     4   9  17  30  51  75  92 115 158 200 226 259
#     4   8  14  26  45  67  89 115 149 187 224 261
#
# _framework density 20.672284999999999
#
# number of rings (size 3 to 8) (size 9 to 14) (size 15 to 20)
#    0.000    3.182    0.000    1.909    0.000    3.273 
#    0.000    3.636    0.000    8.182    0.000    5.091 
#    0.000    0.000    0.000    0.000    0.000    0.000 
#
# Total GULP energy -245225.159975 kJ/mol
# GULP energy per Si atom -5573.299090 kJ/mol
# Density = 2.062523 g / cm^3
# Si number density = 20.672285 Si / 1000 Ang^3
#
#
#
# Elastic Constant Matrix: (Units=GPa)
#
#
# Indices 1 2 3 4 5 6 
#
# 1 89.3411 -1.7510 107.1781 0.0000 0.0000 0.0000
# 2 -1.7510 50.2667 10.5860 0.0000 0.0000 0.0000
# 3 107.1781 10.5860 278.7489 0.0000 0.0000 0.0000
# 4 0.0000 0.0000 0.0000 18.2793 0.0000 0.0000
# 5 0.0000 0.0000 0.0000 0.0000 19.6679 0.0000
# 6 0.0000 0.0000 0.0000 0.0000 0.0000 15.3884
#
#
#
# Elastic Compliance Matrix: (Units=1/GPa)
#
#
# Indices 1 2 3 4 5 6 
#
# 1 0.021074 0.002460 -0.008196 0.000000 0.000000 0.000000
# 2 0.002460 0.020341 -0.001718 0.000000 0.000000 0.000000
# 3 -0.008196 -0.001718 0.006804 0.000000 0.000000 0.000000
# 4 0.000000 0.000000 0.000000 0.054707 0.000000 0.000000
# 5 0.000000 0.000000 0.000000 0.000000 0.050844 0.000000
# 6 0.000000 0.000000 0.000000 0.000000 0.000000 0.064984
#
#
# Mechanical properties :
#
#
# Convention : Reuss Voigt Hill
#
# Bulk Modulus (GPa) = 30.02055 72.26477 51.14266
# Shear Modulus (GPa) = 20.42755 30.82334 25.62544
#
# Velocity S-wave (km/s) = 3.14691 3.86560 3.52462
# Velocity P-wave (km/s) = 5.26856 7.41330 6.43097
#
# Compressibility (1/GPa) = 0.03331052
#
# Stress axis : x y z
#
# Youngs Moduli (GPa) = 47.45193 49.16062 146.96864
#
# Poissons Ratio (x) = -0.12094 1.20460
# Poissons Ratio (y) = -0.11674 0.25256
# Poissons Ratio (z) = 0.38893 0.08448
#
# Static dielectric constant tensor:
#      x y z
#    x 1.687510 0.000000 0.000000 
#    y 0.000000 1.803780 0.000000 
#    z 0.000000 0.000000 1.785410 
# 
# From -- ./inp_files/63629.got.cif
#   From: 2010.05.17/outbox.cif.g08.bks.cpg/sg65_32_cif.got.tgz:63629.got - 2010.06.03 17:01:31.
