data_PCOD9485474
_publ_section_title
;
Structure prediction by ZEFSAII (Michael W. Deem and Ramdas Pophale) SiO2 
 PCOD9485474
Probable space group: C M M M
;
_chemical_formula_sum "Si O2"
_cell_formula_units_Z 104
_cell_length_a 7.848154
_cell_length_b 29.513427
_cell_length_c 23.965253
_cell_angle_alpha 90.000000
_cell_angle_beta 90.000000
_cell_angle_gamma 90.000000
_cell_volume 5550.973778
_symmetry_space_group_name_H-M "C M M M"
_symmetry_group_IT_number 65
_symmetry_cell_setting 'orthorhombic'
loop_
_space_group_symop_operation_xyz
x,y,z
-x,-y,z
x,-y,-z
-x,y,-z
-x,-y,-z
x,y,-z
-x,y,z
x,-y,z
1/2+x,1/2+y,z
1/2-x,1/2-y,z
1/2+x,1/2-y,-z
1/2-x,1/2+y,-z
1/2-x,1/2-y,-z
1/2+x,1/2+y,-z
1/2-x,1/2+y,z
1/2+x,1/2-y,z
loop_
_atom_site_type_symbol
_atom_site_label
_atom_site_fract_x
_atom_site_fract_y
_atom_site_fract_z
Si Si1 0.291118 0.104776 0.111180
Si Si2 0.201010 0.105866 0.669655
Si Si3 0.703100 0.051028 0.779484
Si Si4 0.292018 0.552322 0.437135
Si Si5 0.791483 0.447525 0.000000
Si Si6 0.202918 0.300409 0.717274
Si Si7 0.704798 0.199636 0.845404
O O1 0.500000 0.104616 0.110835
O O2 0.232774 0.077767 0.166258
O O3 0.236279 0.156993 0.118236
O O4 0.236390 0.079166 0.055386
O O5 0.269151 0.079149 0.723358
O O6 0.269777 0.084929 0.612063
O O7 0.233178 0.158832 0.679295
O O8 0.000000 0.098203 0.669291
O O9 0.500000 0.047685 0.787144
O O10 0.772519 0.000000 0.775267
O O11 0.235556 0.563998 0.500000
O O12 0.500000 0.553587 0.437843
O O13 0.244296 0.500000 0.425610
O O14 0.737090 0.500000 0.000000
O O15 0.000000 0.447931 0.000000
O O16 0.250000 0.250000 0.698200
O O17 0.268743 0.305397 0.781288
O O18 0.000000 0.304117 0.719708
O O19 0.500000 0.197261 0.842974
O O20 0.750000 0.250000 0.865206
#
# Coordination Sequence:
#
# PCOD9485474 Si02
#       7
#    16  16  16  16   8  16  16
#     4   9  16  29  45  67  96 127 161 204 251 293
#     4  11  20  30  49  77 104 129 164 207 250 298
#     4  10  19  31  47  68  99 134 164 202 255 304
#     4   8  15  29  48  70  99 135 171 206 244 288
#     4   9  16  26  45  70  93 123 167 209 242 287
#     4  10  19  33  51  73 102 133 165 201 249 303
#     4   9  17  30  48  68  95 125 156 195 242 295
#
# _framework density 18.735451999999999
#
# number of rings (size 3 to 8) (size 9 to 14) (size 15 to 20)
#    0.000    2.538    1.538    2.308    0.000    3.385 
#    0.000    0.385    0.000    2.308    0.000    7.000 
#    0.000    3.692    0.000    0.000    0.000    0.000 
#
# Total GULP energy -290073.729725 kJ/mol
# GULP energy per Si atom -5578.340956 kJ/mol
# Density = 1.869281 g / cm^3
# Si number density = 18.735452 Si / 1000 Ang^3
#
#
#
# Elastic Constant Matrix: (Units=GPa)
#
#
# Indices 1 2 3 4 5 6 
#
# 1 16.6925 -4.0201 1.5247 0.0000 0.0000 0.0000
# 2 -4.0201 178.3183 107.1574 0.0000 0.0000 0.0000
# 3 1.5247 107.1574 148.5377 0.0000 0.0000 0.0000
# 4 0.0000 0.0000 0.0000 29.7310 0.0000 0.0000
# 5 0.0000 0.0000 0.0000 0.0000 8.0146 0.0000
# 6 0.0000 0.0000 0.0000 0.0000 0.0000 19.0115
#
#
#
# Elastic Compliance Matrix: (Units=1/GPa)
#
#
# Indices 1 2 3 4 5 6 
#
# 1 0.060911 0.003087 -0.002853 0.000000 0.000000 0.000000
# 2 0.003087 0.010056 -0.007286 0.000000 0.000000 0.000000
# 3 -0.002853 -0.007286 0.012018 0.000000 0.000000 0.000000
# 4 0.000000 0.000000 0.000000 0.033635 0.000000 0.000000
# 5 0.000000 0.000000 0.000000 0.000000 0.124773 0.000000
# 6 0.000000 0.000000 0.000000 0.000000 0.000000 0.052600
#
#
# Mechanical properties :
#
#
# Convention : Reuss Voigt Hill
#
# Bulk Modulus (GPa) = 14.51751 61.43027 37.97389
# Shear Modulus (GPa) = 15.10316 27.27720 21.19018
#
# Velocity S-wave (km/s) = 2.84232 3.81978 3.36671
# Velocity P-wave (km/s) = 4.30549 7.23282 5.95193
#
# Compressibility (1/GPa) = 0.06888231
#
# Stress axis : x y z
#
# Youngs Moduli (GPa) = 16.41738 99.44142 83.20797
#
# Poissons Ratio (x) = -0.30702 0.23735
# Poissons Ratio (y) = -0.05069 0.60628
# Poissons Ratio (z) = 0.04683 0.72457
#
# Static dielectric constant tensor:
#      x y z
#    x 1.657260 0.000000 0.000000 
#    y 0.000000 1.643860 0.000000 
#    z 0.000000 0.000000 1.636230 
# 
# From -- ./inp_files/60909.got.cif
#   From: 2010.05.17/outbox.cif.g08.bks.cpg/sg65_31_cif.got.tgz:60909.got - 2010.06.03 17:01:31.
