data_PCOD9485160
_publ_section_title
;
Structure prediction by ZEFSAII (Michael W. Deem and Ramdas Pophale) SiO2 
 PCOD9485160
Probable space group: C M M M
;
_chemical_formula_sum "Si O2"
_cell_formula_units_Z 88
_cell_length_a 16.859867
_cell_length_b 7.346412
_cell_length_c 31.200117
_cell_angle_alpha 90.000000
_cell_angle_beta 90.000000
_cell_angle_gamma 90.000000
_cell_volume 3864.431804
_symmetry_space_group_name_H-M "C M M M"
_symmetry_group_IT_number 65
_symmetry_cell_setting 'orthorhombic'
loop_
_space_group_symop_operation_xyz
x,y,z
-x,-y,z
x,-y,-z
-x,y,-z
-x,-y,-z
x,y,-z
-x,y,z
x,-y,z
1/2+x,1/2+y,z
1/2-x,1/2-y,z
1/2+x,1/2-y,-z
1/2-x,1/2+y,-z
1/2-x,1/2-y,-z
1/2+x,1/2+y,-z
1/2-x,1/2+y,z
1/2+x,1/2-y,z
loop_
_atom_site_type_symbol
_atom_site_label
_atom_site_fract_x
_atom_site_fract_y
_atom_site_fract_z
Si Si1 0.091779 0.720916 0.863046
Si Si2 0.655878 0.217226 0.046463
Si Si3 0.000000 0.277693 0.450319
Si Si4 0.841603 0.716503 0.226262
Si Si5 0.839995 0.282871 0.401682
Si Si6 0.910115 0.721616 0.685117
O O1 0.100289 0.500000 0.864393
O O2 0.120089 0.788845 0.909349
O O3 0.137425 0.787725 0.820971
O O4 0.000000 0.762792 0.857076
O O5 0.750000 0.250000 0.048024
O O6 0.642009 0.000000 0.046051
O O7 0.626989 0.286875 0.000000
O O8 0.082832 0.217399 0.428222
O O9 0.000000 0.500000 0.448235
O O10 0.000000 0.225729 0.500000
O O11 0.856793 0.500000 0.224387
O O12 0.750000 0.750000 0.235057
O O13 0.889538 0.786698 0.267235
O O14 0.848014 0.500000 0.400916
O O15 0.750000 0.250000 0.417195
O O16 0.851811 0.217003 0.352661
O O17 0.906499 0.500000 0.686451
O O18 0.000000 0.770344 0.673449
#
# Coordination Sequence:
#
# PCOD9485160 Si02
#       6
#    16  16   8  16  16  16
#     4   9  17  29  45  66  89 114 149 190 227 266
#     4   9  17  29  46  66  87 113 144 180 223 270
#     4   9  18  34  55  77 103 139 179 213 250 304
#     4  10  19  30  47  69  93 121 154 193 235 280
#     4  10  19  33  54  78 104 135 173 214 255 302
#     4   9  16  29  50  73  96 127 167 203 237 287
#
# _framework density 22.771781000000001
#
# number of rings (size 3 to 8) (size 9 to 14) (size 15 to 20)
#    0.000    2.636    0.909    1.636    0.000    2.909 
#    0.000    2.273    0.000    5.455    0.000    2.545 
#    0.000    0.000    0.000    0.000    0.000    0.000 
#
# Total GULP energy -245611.016034 kJ/mol
# GULP energy per Si atom -5582.068546 kJ/mol
# Density = 2.271995 g / cm^3
# Si number density = 22.771781 Si / 1000 Ang^3
#
#
#
# Elastic Constant Matrix: (Units=GPa)
#
#
# Indices 1 2 3 4 5 6 
#
# 1 116.8358 -6.5899 63.8464 0.0000 0.0000 0.0000
# 2 -6.5899 87.8111 10.5280 0.0000 0.0000 0.0000
# 3 63.8464 10.5280 154.4689 0.0000 0.0000 0.0000
# 4 0.0000 0.0000 0.0000 -78.0605 0.0000 0.0000
# 5 0.0000 0.0000 0.0000 0.0000 37.5051 0.0000
# 6 0.0000 0.0000 0.0000 0.0000 0.0000 14.6712
#
#
#
# Elastic Compliance Matrix: (Units=1/GPa)
#
#
# Indices 1 2 3 4 5 6 
#
# 1 0.011227 0.001410 -0.004737 0.000000 0.000000 0.000000
# 2 0.001410 0.011659 -0.001378 0.000000 0.000000 0.000000
# 3 -0.004737 -0.001378 0.008525 0.000000 0.000000 0.000000
# 4 0.000000 0.000000 0.000000 -0.012811 0.000000 0.000000
# 5 0.000000 0.000000 0.000000 0.000000 0.026663 0.000000
# 6 0.000000 0.000000 0.000000 0.000000 0.000000 0.068161
#
#
# Mechanical properties :
#
#
# Convention : Reuss Voigt Hill
#
# Bulk Modulus (GPa) = 45.44627 54.96497 50.20562
# Shear Modulus (GPa) = 38.41229 14.24527 26.32878
#
# Velocity S-wave (km/s) = 4.11157 2.50385 3.40399
# Velocity P-wave (km/s) = 6.52231 5.70515 6.12737
#
# Compressibility (1/GPa) = 0.02200401
#
# Stress axis : x y z
#
# Youngs Moduli (GPa) = 89.07171 85.76998 117.29617
#
# Poissons Ratio (x) = -0.12097 0.55558
# Poissons Ratio (y) = -0.12563 0.16159
# Poissons Ratio (z) = 0.42189 0.11816
#
# Static dielectric constant tensor:
#      x y z
#    x 1.794550 0.000000 0.000000 
#    y 0.000000 1.892580 0.000000 
#    z 0.000000 0.000000 1.850290 
# 
# From -- ./inp_files/74761.got.cif
#   From: 2010.05.17/outbox.cif.g08.bks.cpg/sg65_38_cif.got.tgz:74761.got - 2010.06.03 17:01:31.
