data_PCOD9485353
_publ_section_title
;
Structure prediction by ZEFSAII (Michael W. Deem and Ramdas Pophale) SiO2 
 PCOD9485353
Probable space group: C M M M
;
_chemical_formula_sum "Si O2"
_cell_formula_units_Z 104
_cell_length_a 27.789781
_cell_length_b 7.848574
_cell_length_c 27.940663
_cell_angle_alpha 90.000000
_cell_angle_beta 90.000000
_cell_angle_gamma 90.000000
_cell_volume 6094.142271
_symmetry_space_group_name_H-M "C M M M"
_symmetry_group_IT_number 65
_symmetry_cell_setting 'orthorhombic'
loop_
_space_group_symop_operation_xyz
x,y,z
-x,-y,z
x,-y,-z
-x,y,-z
-x,-y,-z
x,y,-z
-x,y,z
x,-y,z
1/2+x,1/2+y,z
1/2-x,1/2-y,z
1/2+x,1/2-y,-z
1/2-x,1/2+y,-z
1/2-x,1/2-y,-z
1/2+x,1/2+y,-z
1/2-x,1/2+y,z
1/2+x,1/2-y,z
loop_
_atom_site_type_symbol
_atom_site_label
_atom_site_fract_x
_atom_site_fract_y
_atom_site_fract_z
Si Si1 0.597014 0.700217 0.305639
Si Si2 0.346624 0.791525 0.552822
Si Si3 0.803538 0.703171 0.651873
Si Si4 0.053154 0.299430 0.594665
Si Si5 0.558499 0.202735 0.000000
Si Si6 0.055253 0.204831 0.205967
Si Si7 0.055585 0.705205 0.102847
O O1 0.585530 0.500000 0.307668
O O2 0.653330 0.724375 0.316302
O O3 0.567970 0.782649 0.349618
O O4 0.582251 0.766350 0.253443
O O5 0.331815 0.735292 0.500000
O O6 0.313709 0.736699 0.597260
O O7 0.401088 0.732444 0.565063
O O8 0.346908 0.000000 0.552982
O O9 0.808781 0.500000 0.652431
O O10 0.750000 0.750000 0.666850
O O11 0.050627 0.500000 0.583387
O O12 0.000000 0.225416 0.586253
O O13 0.575654 0.269493 0.948258
O O14 0.500000 0.219632 0.000000
O O15 0.568492 0.000000 0.000000
O O16 0.077275 0.249540 0.154233
O O17 0.000000 0.268813 0.207613
O O18 0.053827 0.000000 0.208023
O O19 0.054418 0.500000 0.100131
O O20 0.000000 0.766773 0.105006
#
# Coordination Sequence:
#
# PCOD9485353 Si02
#       7
#    16  16  16  16   8  16  16
#     4  10  19  31  46  62  83 112 142 174 212 251
#     4   8  15  28  45  66  90 112 135 165 201 243
#     4  10  20  34  51  69  86 105 132 166 206 254
#     4   9  17  28  43  64  88 114 144 175 205 241
#     4   7  10  18  31  47  69  99 138 179 212 241
#     4   9  17  27  38  56  83 112 142 175 210 246
#     4   8  13  21  34  51  72 103 142 179 211 242
#
# _framework density 17.065567999999999
#
# number of rings (size 3 to 8) (size 9 to 14) (size 15 to 20)
#    0.000    3.154    0.000    3.231    0.000    2.769 
#    0.000    3.462    0.000   13.385    0.000    4.308 
#    0.000    0.000    0.000    0.692    0.000    9.000 
#
# Total GULP energy -289478.138804 kJ/mol
# GULP energy per Si atom -5566.887285 kJ/mol
# Density = 1.702673 g / cm^3
# Si number density = 17.065568 Si / 1000 Ang^3
#
#
#
# Elastic Constant Matrix: (Units=GPa)
#
#
# Indices 1 2 3 4 5 6 
#
# 1 38.1528 -8.2085 2.7578 0.0000 0.0000 0.0000
# 2 -8.2085 18.4141 -5.2021 0.0000 0.0000 0.0000
# 3 2.7578 -5.2021 116.7610 0.0000 0.0000 0.0000
# 4 0.0000 0.0000 0.0000 41.3592 0.0000 0.0000
# 5 0.0000 0.0000 0.0000 0.0000 9.2009 0.0000
# 6 0.0000 0.0000 0.0000 0.0000 0.0000 10.3522
#
#
#
# Elastic Compliance Matrix: (Units=1/GPa)
#
#
# Indices 1 2 3 4 5 6 
#
# 1 0.028992 0.012893 -0.000110 0.000000 0.000000 0.000000
# 2 0.012893 0.060732 0.002401 0.000000 0.000000 0.000000
# 3 -0.000110 0.002401 0.008674 0.000000 0.000000 0.000000
# 4 0.000000 0.000000 0.000000 0.024178 0.000000 0.000000
# 5 0.000000 0.000000 0.000000 0.000000 0.108685 0.000000
# 6 0.000000 0.000000 0.000000 0.000000 0.000000 0.096598
#
#
# Mechanical properties :
#
#
# Convention : Reuss Voigt Hill
#
# Bulk Modulus (GPa) = 7.76604 16.89136 12.32870
# Shear Modulus (GPa) = 14.68799 24.44783 19.56791
#
# Velocity S-wave (km/s) = 2.93692 3.78905 3.38987
# Velocity P-wave (km/s) = 4.00765 5.39092 4.74991
#
# Compressibility (1/GPa) = 0.12876572
#
# Stress axis : x y z
#
# Youngs Moduli (GPa) = 34.49201 16.46581 115.28579
#
# Poissons Ratio (x) = -0.21229 0.01272
# Poissons Ratio (y) = -0.44470 -0.27683
# Poissons Ratio (z) = 0.00381 -0.03954
#
# Static dielectric constant tensor:
#      x y z
#    x 1.561510 0.000000 0.000000 
#    y 0.000000 1.627310 0.000000 
#    z 0.000000 0.000000 1.629370 
# 
# From -- ./inp_files/75970.got.cif
#   From: 2010.05.17/outbox.cif.g08.bks.cpg/sg65_38_cif.got.tgz:75970.got - 2010.06.03 17:01:31.
