data_PCOD9485412
_publ_section_title
;
Structure prediction by ZEFSAII (Michael W. Deem and Ramdas Pophale) SiO2 
 PCOD9485412
Probable space group: C M M M
;
_chemical_formula_sum "Si O2"
_cell_formula_units_Z 104
_cell_length_a 8.918186
_cell_length_b 27.865781
_cell_length_c 27.551412
_cell_angle_alpha 90.000000
_cell_angle_beta 90.000000
_cell_angle_gamma 90.000000
_cell_volume 6846.862505
_symmetry_space_group_name_H-M "C M M M"
_symmetry_group_IT_number 65
_symmetry_cell_setting 'orthorhombic'
loop_
_space_group_symop_operation_xyz
x,y,z
-x,-y,z
x,-y,-z
-x,y,-z
-x,-y,-z
x,y,-z
-x,y,z
x,-y,z
1/2+x,1/2+y,z
1/2-x,1/2-y,z
1/2+x,1/2-y,-z
1/2-x,1/2+y,-z
1/2-x,1/2-y,-z
1/2+x,1/2+y,-z
1/2-x,1/2+y,z
1/2+x,1/2-y,z
loop_
_atom_site_type_symbol
_atom_site_label
_atom_site_fract_x
_atom_site_fract_y
_atom_site_fract_z
Si Si1 0.179169 0.699693 0.195910
Si Si2 0.681008 0.348451 0.897730
Si Si3 0.180621 0.053752 0.848125
Si Si4 0.180986 0.802916 0.000000
Si Si5 0.322327 0.557901 0.553019
Si Si6 0.180505 0.399272 0.754182
Si Si7 0.819715 0.443893 0.652942
O O1 0.250000 0.750000 0.210925
O O2 0.244624 0.684378 0.143563
O O3 0.216721 0.655569 0.231774
O O4 0.000000 0.703764 0.192807
O O5 0.500000 0.344499 0.893586
O O6 0.723202 0.403383 0.884845
O O7 0.724898 0.331083 0.951129
O O8 0.247480 0.067900 0.795908
O O9 0.000000 0.054248 0.844676
O O10 0.227909 0.000000 0.862163
O O11 0.250000 0.750000 0.000000
O O12 0.000000 0.799007 0.000000
O O13 0.268104 0.575412 0.500000
O O14 0.500000 0.566982 0.555938
O O15 0.302429 0.500000 0.552657
O O16 0.243724 0.575087 0.601964
O O17 0.229430 0.415164 0.700675
O O18 0.000000 0.404650 0.756863
O O19 0.775319 0.500000 0.658588
O O20 0.000000 0.442499 0.650686
#
# Coordination Sequence:
#
# PCOD9485412 Si02
#       7
#    16  16  16   8  16  16  16
#     4  10  19  31  47  65  85 110 138 169 209 253
#     4   9  18  32  47  65  88 111 138 170 205 248
#     4   9  17  29  45  64  86 112 141 172 204 241
#     4  10  20  32  47  65  85 109 136 172 215 254
#     4   8  14  24  36  51  75 108 142 172 202 237
#     4   9  18  30  43  61  85 112 141 172 207 249
#     4   9  16  25  38  57  81 108 138 171 202 234
#
# _framework density 15.189439
#
# number of rings (size 3 to 8) (size 9 to 14) (size 15 to 20)
#    0.000    2.923    0.000    1.846    0.000    4.308 
#    0.000    3.462    0.000    2.308    0.000    0.000 
#    0.000    6.154    0.000    1.385    0.000    2.462 
#
# Total GULP energy -289611.420242 kJ/mol
# GULP energy per Si atom -5569.450389 kJ/mol
# Density = 1.515487 g / cm^3
# Si number density = 15.189439 Si / 1000 Ang^3
#
#
#
# Elastic Constant Matrix: (Units=GPa)
#
#
# Indices 1 2 3 4 5 6 
#
# 1 8.6152 22.7845 29.1281 0.0000 0.0000 0.0000
# 2 22.7845 89.5646 59.2409 0.0000 0.0000 0.0000
# 3 29.1281 59.2409 153.0529 0.0000 0.0000 0.0000
# 4 0.0000 0.0000 0.0000 15.1060 0.0000 0.0000
# 5 0.0000 0.0000 0.0000 0.0000 21.1552 0.0000
# 6 0.0000 0.0000 0.0000 0.0000 0.0000 16.9323
#
#
#
# Elastic Compliance Matrix: (Units=1/GPa)
#
#
# Indices 1 2 3 4 5 6 
#
# 1 0.922929 -0.159422 -0.113940 0.000000 0.000000 0.000000
# 2 -0.159422 0.042545 0.013873 0.000000 0.000000 0.000000
# 3 -0.113940 0.013873 0.022849 0.000000 0.000000 0.000000
# 4 0.000000 0.000000 0.000000 0.066199 0.000000 0.000000
# 5 0.000000 0.000000 0.000000 0.000000 0.047270 0.000000
# 6 0.000000 0.000000 0.000000 0.000000 0.000000 0.059059
#
#
# Mechanical properties :
#
#
# Convention : Reuss Voigt Hill
#
# Bulk Modulus (GPa) = 2.13064 52.61554 27.37309
# Shear Modulus (GPa) = 2.72290 19.97730 11.35010
#
# Velocity S-wave (km/s) = 1.34034 3.63052 2.73653
# Velocity P-wave (km/s) = 1.94964 7.23111 5.29576
#
# Compressibility (1/GPa) = 0.46934325
#
# Stress axis : x y z
#
# Youngs Moduli (GPa) = 1.08351 23.50456 43.76653
#
# Poissons Ratio (x) = 3.74714 4.98677
# Poissons Ratio (y) = 0.17273 -0.60716
# Poissons Ratio (z) = 0.12346 -0.32607
#
# Static dielectric constant tensor:
#      x y z
#    x 1.510090 0.000000 0.000000 
#    y 0.000000 1.501810 0.000000 
#    z 0.000000 0.000000 1.505460 
# 
# From -- ./inp_files/73778.got.cif
#   From: 2010.05.17/outbox.cif.g08.bks.cpg/sg65_37_cif.got.tgz:73778.got - 2010.06.03 17:01:31.
