data_PCOD9485735
_publ_section_title
;
Structure prediction by ZEFSAII (Michael W. Deem and Ramdas Pophale) SiO2 
 PCOD9485735
Probable space group: C M M M
;
_chemical_formula_sum "Si O2"
_cell_formula_units_Z 120
_cell_length_a 7.922390
_cell_length_b 29.234302
_cell_length_c 28.506371
_cell_angle_alpha 90.000000
_cell_angle_beta 90.000000
_cell_angle_gamma 90.000000
_cell_volume 6602.233501
_symmetry_space_group_name_H-M "C M M M"
_symmetry_group_IT_number 65
_symmetry_cell_setting 'orthorhombic'
loop_
_space_group_symop_operation_xyz
x,y,z
-x,-y,z
x,-y,-z
-x,y,-z
-x,-y,-z
x,y,-z
-x,y,z
x,-y,z
1/2+x,1/2+y,z
1/2-x,1/2-y,z
1/2+x,1/2-y,-z
1/2-x,1/2+y,-z
1/2-x,1/2-y,-z
1/2+x,1/2+y,-z
1/2-x,1/2+y,z
1/2+x,1/2-y,z
loop_
_atom_site_type_symbol
_atom_site_label
_atom_site_fract_x
_atom_site_fract_y
_atom_site_fract_z
Si Si1 0.197692 0.645733 0.050501
Si Si2 0.299960 0.945060 0.623188
Si Si3 0.500000 0.555383 0.553398
Si Si4 0.197392 0.603998 0.718039
Si Si5 0.302988 0.551472 0.915331
Si Si6 0.196256 0.802768 0.247414
Si Si7 0.202586 0.697423 0.858610
Si Si8 0.801044 0.553960 0.809549
O O1 0.212450 0.591479 0.057002
O O2 0.269729 0.668539 0.097486
O O3 0.000000 0.658250 0.049763
O O4 0.272025 0.659244 0.000000
O O5 0.500000 0.935118 0.613922
O O6 0.241309 0.918709 0.670123
O O7 0.170301 0.932311 0.581793
O O8 0.288453 0.000000 0.630797
O O9 0.500000 0.500000 0.551532
O O10 0.500000 0.427458 0.500000
O O11 0.214925 0.658488 0.721721
O O12 0.270457 0.582125 0.765764
O O13 0.000000 0.591544 0.719442
O O14 0.500000 0.552366 0.927806
O O15 0.237216 0.500000 0.923206
O O16 0.284586 0.561197 0.859707
O O17 0.250000 0.750000 0.254015
O O18 0.228779 0.814668 0.192695
O O19 0.000000 0.805893 0.257202
O O20 0.250000 0.750000 0.866949
O O21 0.000000 0.692563 0.855455
O O22 0.790253 0.500000 0.798417
O O23 0.000000 0.565576 0.816473
#
# Coordination Sequence:
#
# PCOD9485735 Si02
#       8
#    16  16   8  16  16  16  16  16
#     4  10  22  38  54  72  92 117 152 193 238 294
#     4   9  18  32  50  75 110 150 188 229 274 318
#     4   9  18  32  50  74 108 150 196 240 273 311
#     4  10  19  31  49  73 104 138 170 212 255 305
#     4  10  21  35  49  69  96 122 154 197 239 285
#     4  11  22  35  52  73  99 132 168 204 245 302
#     4  10  20  36  56  75  97 122 153 193 240 295
#     4   9  17  30  49  71  96 130 167 196 233 290
#
# _framework density 18.175668000000002
#
# number of rings (size 3 to 8) (size 9 to 14) (size 15 to 20)
#    0.000    2.200    0.000    4.000    0.933    8.267 
#    0.000    2.667    0.000    0.000    0.000    0.000 
#    0.000    0.533    0.267    0.000    0.000    0.000 
#
# Total GULP energy -334757.092720 kJ/mol
# GULP energy per Si atom -5579.284879 kJ/mol
# Density = 1.813430 g / cm^3
# Si number density = 18.175668 Si / 1000 Ang^3
#
#
#
# Elastic Constant Matrix: (Units=GPa)
#
#
# Indices 1 2 3 4 5 6 
#
# 1 27.9832 0.0089 3.7777 0.0000 0.0000 0.0000
# 2 0.0089 50.1839 42.7003 0.0000 0.0000 0.0000
# 3 3.7777 42.7003 65.9434 0.0000 0.0000 0.0000
# 4 0.0000 0.0000 0.0000 13.3346 0.0000 0.0000
# 5 0.0000 0.0000 0.0000 0.0000 -16.2204 0.0000
# 6 0.0000 0.0000 0.0000 0.0000 0.0000 18.3443
#
#
#
# Elastic Compliance Matrix: (Units=1/GPa)
#
#
# Indices 1 2 3 4 5 6 
#
# 1 0.036359 0.003933 -0.004629 0.000000 0.000000 0.000000
# 2 0.003933 0.044802 -0.029236 0.000000 0.000000 0.000000
# 3 -0.004629 -0.029236 0.034361 0.000000 0.000000 0.000000
# 4 0.000000 0.000000 0.000000 0.074993 0.000000 0.000000
# 5 0.000000 0.000000 0.000000 0.000000 -0.061651 0.000000
# 6 0.000000 0.000000 0.000000 0.000000 0.000000 0.054513
#
#
# Mechanical properties :
#
#
# Convention : Reuss Voigt Hill
#
# Bulk Modulus (GPa) = 17.96723 26.34272 22.15497
# Shear Modulus (GPa) = 19.09882 9.59993 14.34938
#
# Velocity S-wave (km/s) = 3.24511 2.30070 2.81282
# Velocity P-wave (km/s) = 4.89364 4.64570 4.77128
#
# Compressibility (1/GPa) = 0.05565690
#
# Stress axis : x y z
#
# Youngs Moduli (GPa) = 27.50313 22.32022 29.10268
#
# Poissons Ratio (x) = -0.08778 0.13473
# Poissons Ratio (y) = -0.10816 0.85085
# Poissons Ratio (z) = 0.12732 0.65256
#
# Static dielectric constant tensor:
#      x y z
#    x 1.645980 0.000000 0.000000 
#    y 0.000000 1.655570 0.000000 
#    z 0.000000 0.000000 1.632280 
# 
# From -- ./inp_files/73872.got.cif
#   From: 2010.05.17/outbox.cif.g08.bks.cpg/sg65_37_cif.got.tgz:73872.got - 2010.06.03 17:01:31.
