data_PCOD9485231
_publ_section_title
;
Structure prediction by ZEFSAII (Michael W. Deem and Ramdas Pophale) SiO2 
 PCOD9485231
Probable space group: C M M M
;
_chemical_formula_sum "Si O2"
_cell_formula_units_Z 56
_cell_length_a 23.720644
_cell_length_b 13.840466
_cell_length_c 8.922946
_cell_angle_alpha 90.000000
_cell_angle_beta 90.000000
_cell_angle_gamma 90.000000
_cell_volume 2929.445706
_symmetry_space_group_name_H-M "C M M M"
_symmetry_group_IT_number 65
_symmetry_cell_setting 'orthorhombic'
loop_
_space_group_symop_operation_xyz
x,y,z
-x,-y,z
x,-y,-z
-x,y,-z
-x,-y,-z
x,y,-z
-x,y,z
x,-y,z
1/2+x,1/2+y,z
1/2-x,1/2-y,z
1/2+x,1/2-y,-z
1/2-x,1/2+y,-z
1/2-x,1/2-y,-z
1/2+x,1/2+y,-z
1/2-x,1/2+y,z
1/2+x,1/2-y,z
loop_
_atom_site_type_symbol
_atom_site_label
_atom_site_fract_x
_atom_site_fract_y
_atom_site_fract_z
Si Si1 0.141112 0.393237 0.180382
Si Si2 0.567362 0.500000 0.326098
Si Si3 0.764651 0.888129 0.325481
Si Si4 0.625338 0.684690 0.821512
O O1 0.117461 0.500000 0.218875
O O2 0.202231 0.386033 0.257686
O O3 0.108239 0.294769 0.220026
O O4 0.148815 0.391168 0.000000
O O5 0.500000 0.500000 0.315403
O O6 0.584421 0.500000 0.500000
O O7 0.590835 0.402215 0.251970
O O8 0.764235 0.860062 0.500000
O O9 0.810153 0.828447 0.232779
O O10 0.783360 0.000000 0.317159
O O11 0.622315 0.674431 0.000000
#
# Coordination Sequence:
#
# PCOD9485231 Si02
#       4
#    16   8  16  16
#     4   9  19  34  51  76 112 149 183 217 258 314
#     4  11  25  43  61  81 105 135 175 229 288 335
#     4  10  19  30  47  75 112 151 186 220 261 313
#     4  11  21  34  56  80 105 141 181 224 272 321
#
# _framework density 19.116244999999999
#
# number of rings (size 3 to 8) (size 9 to 14) (size 15 to 20)
#    0.000    1.857    1.429    3.000    0.000    8.000 
#    0.000    0.000    0.000    0.857    0.000    6.000 
#    0.000    0.000    0.000    0.000    0.000    0.000 
#
# Total GULP energy -156220.413740 kJ/mol
# GULP energy per Si atom -5579.300491 kJ/mol
# Density = 1.907274 g / cm^3
# Si number density = 19.116245 Si / 1000 Ang^3
#
#
#
# Elastic Constant Matrix: (Units=GPa)
#
#
# Indices 1 2 3 4 5 6 
#
# 1 19.9492 36.9011 11.5871 0.0000 0.0000 0.0000
# 2 36.9011 223.2294 64.6912 0.0000 0.0000 0.0000
# 3 11.5871 64.6912 57.0377 0.0000 0.0000 0.0000
# 4 0.0000 0.0000 0.0000 -0.2147 0.0000 0.0000
# 5 0.0000 0.0000 0.0000 0.0000 38.7213 0.0000
# 6 0.0000 0.0000 0.0000 0.0000 0.0000 12.4612
#
#
#
# Elastic Compliance Matrix: (Units=1/GPa)
#
#
# Indices 1 2 3 4 5 6 
#
# 1 0.072315 -0.011465 -0.001687 0.000000 0.000000 0.000000
# 2 -0.011465 0.008491 -0.007301 0.000000 0.000000 0.000000
# 3 -0.001687 -0.007301 0.026156 0.000000 0.000000 0.000000
# 4 0.000000 0.000000 0.000000 -4.657282 0.000000 0.000000
# 5 0.000000 0.000000 0.000000 0.000000 0.025826 0.000000
# 6 0.000000 0.000000 0.000000 0.000000 0.000000 0.080249
#
#
# Mechanical properties :
#
#
# Convention : Reuss Voigt Hill
#
# Bulk Modulus (GPa) = 15.13888 58.50834 36.82361
# Shear Modulus (GPa) = -1.14121 22.66269 10.76074
#
# Velocity S-wave (km/s) = -0.77349 3.44687 2.37515
# Velocity P-wave (km/s) = 2.67187 6.82014 5.17944
#
# Compressibility (1/GPa) = 0.06605507
#
# Stress axis : x y z
#
# Youngs Moduli (GPa) = 13.82838 117.77521 38.23277
#
# Poissons Ratio (x) = 1.35032 0.06450
# Poissons Ratio (y) = 0.15855 0.27914
# Poissons Ratio (z) = 0.02333 0.85987
#
# Static dielectric constant tensor:
#      x y z
#    x 1.618450 0.000000 0.000000 
#    y 0.000000 1.770480 0.000000 
#    z 0.000000 0.000000 1.633470 
# 
# From -- ./inp_files/6543.got.cif
#   From: 2010.05.17/outbox.cif.g08.bks.cpg/sg65_4_cif.got.tgz:6543.got - 2010.06.03 17:01:31.
