data_PCOD9485326
_publ_section_title
;
Structure prediction by ZEFSAII (Michael W. Deem and Ramdas Pophale) SiO2 
 PCOD9485326
Probable space group: C M M M
;
_chemical_formula_sum "Si O2"
_cell_formula_units_Z 88
_cell_length_a 34.551153
_cell_length_b 8.656816
_cell_length_c 21.815623
_cell_angle_alpha 90.000000
_cell_angle_beta 90.000000
_cell_angle_gamma 90.000000
_cell_volume 6525.117721
_symmetry_space_group_name_H-M "C M M M"
_symmetry_group_IT_number 65
_symmetry_cell_setting 'orthorhombic'
loop_
_space_group_symop_operation_xyz
x,y,z
-x,-y,z
x,-y,-z
-x,y,-z
-x,-y,-z
x,y,-z
-x,y,z
x,-y,z
1/2+x,1/2+y,z
1/2-x,1/2-y,z
1/2+x,1/2-y,-z
1/2-x,1/2+y,-z
1/2-x,1/2-y,-z
1/2+x,1/2+y,-z
1/2-x,1/2+y,z
1/2+x,1/2-y,z
loop_
_atom_site_type_symbol
_atom_site_label
_atom_site_fract_x
_atom_site_fract_y
_atom_site_fract_z
Si Si1 0.661139 0.683839 0.882879
Si Si2 0.793708 0.313773 0.631884
Si Si3 0.793319 0.315317 0.000000
Si Si4 0.794023 0.313059 0.500000
Si Si5 0.500000 0.678555 0.074386
Si Si6 0.293883 0.813802 0.233069
Si Si7 0.582231 0.184230 0.072681
O O1 0.664464 0.500000 0.885442
O O2 0.684414 0.756216 0.939974
O O3 0.679960 0.746519 0.820652
O O4 0.616753 0.734754 0.891187
O O5 0.792395 0.500000 0.631795
O O6 0.750000 0.250000 0.631489
O O7 0.811478 0.264797 0.566070
O O8 0.809324 0.268763 0.698832
O O9 0.750000 0.250000 0.000000
O O10 0.792646 0.500000 0.000000
O O11 0.792731 0.500000 0.500000
O O12 0.750000 0.250000 0.500000
O O13 0.500000 0.500000 0.093307
O O14 0.460278 0.761085 0.093119
O O15 0.500000 0.683006 0.000000
O O16 0.250000 0.750000 0.227019
O O17 0.292640 0.000000 0.228699
O O18 0.585553 0.000000 0.078205
O O19 0.586479 0.223019 0.000000
#
# Coordination Sequence:
#
# PCOD9485326 Si02
#       7
#    16  16   8   8   8  16  16
#     4  12  23  34  47  62  80 104 135 172 210 248
#     4   8  14  23  37  54  74  98 126 162 200 240
#     4  12  24  38  50  61  76  99 132 174 216 254
#     4   8  12  20  34  54  74  94 122 157 198 237
#     4   9  17  29  47  69  91 109 127 154 192 241
#     4  10  19  31  43  57  78 106 139 173 210 248
#     4  10  19  32  49  67  86 106 130 162 201 245
#
# _framework density 13.486345999999999
#
# number of rings (size 3 to 8) (size 9 to 14) (size 15 to 20)
#    0.000    2.091    0.909    4.364    0.000    2.545 
#    0.000    0.000    0.000    0.000    0.000    0.000 
#    0.000    0.000    0.000    0.000    0.000    0.909 
#
# Total GULP energy -245131.920683 kJ/mol
# GULP energy per Si atom -5571.180016 kJ/mol
# Density = 1.345565 g / cm^3
# Si number density = 13.486346 Si / 1000 Ang^3
#
#
#
# Elastic Constant Matrix: (Units=GPa)
#
#
# Indices 1 2 3 4 5 6 
#
# 1 75.9815 32.1508 47.1240 0.0000 0.0000 0.0000
# 2 32.1508 68.2620 39.6693 0.0000 0.0000 0.0000
# 3 47.1240 39.6693 131.5047 0.0000 0.0000 0.0000
# 4 0.0000 0.0000 0.0000 9.2016 0.0000 0.0000
# 5 0.0000 0.0000 0.0000 0.0000 -0.1753 0.0000
# 6 0.0000 0.0000 0.0000 0.0000 0.0000 21.3711
#
#
#
# Elastic Compliance Matrix: (Units=1/GPa)
#
#
# Indices 1 2 3 4 5 6 
#
# 1 0.018733 -0.005968 -0.004913 0.000000 0.000000 0.000000
# 2 -0.005968 0.019665 -0.003793 0.000000 0.000000 0.000000
# 3 -0.004913 -0.003793 0.010509 0.000000 0.000000 0.000000
# 4 0.000000 0.000000 0.000000 0.108677 0.000000 0.000000
# 5 0.000000 0.000000 0.000000 0.000000 -5.702950 0.000000
# 6 0.000000 0.000000 0.000000 0.000000 0.000000 0.046792
#
#
# Mechanical properties :
#
#
# Convention : Reuss Voigt Hill
#
# Bulk Modulus (GPa) = 51.12826 57.07073 54.09949
# Shear Modulus (GPa) = -0.91530 16.53307 7.80889
#
# Velocity S-wave (km/s) = -0.82472 3.50510 2.40890
# Velocity P-wave (km/s) = 6.08987 7.66748 6.92376
#
# Compressibility (1/GPa) = 0.01955865
#
# Stress axis : x y z
#
# Youngs Moduli (GPa) = 53.38071 50.85198 95.15671
#
# Poissons Ratio (x) = 0.30350 0.46747
# Poissons Ratio (y) = 0.31860 0.36096
# Poissons Ratio (z) = 0.26224 0.19290
#
# Static dielectric constant tensor:
#      x y z
#    x 1.409930 0.000000 0.000000 
#    y 0.000000 1.449250 0.000000 
#    z 0.000000 0.000000 1.479700 
# 
# From -- ./inp_files/66271.got.cif
#   From: 2010.05.17/outbox.cif.g08.bks.cpg/sg65_34_cif.got.tgz:66271.got - 2010.06.03 17:01:31.
