data_PCOD9485457
_publ_section_title
;
Structure prediction by ZEFSAII (Michael W. Deem and Ramdas Pophale) SiO2 
 PCOD9485457
Probable space group: C M M M
;
_chemical_formula_sum "Si O2"
_cell_formula_units_Z 64
_cell_length_a 7.713997
_cell_length_b 16.330345
_cell_length_c 23.376331
_cell_angle_alpha 90.000000
_cell_angle_beta 90.000000
_cell_angle_gamma 90.000000
_cell_volume 2944.768600
_symmetry_space_group_name_H-M "C M M M"
_symmetry_group_IT_number 65
_symmetry_cell_setting 'orthorhombic'
loop_
_space_group_symop_operation_xyz
x,y,z
-x,-y,z
x,-y,-z
-x,y,-z
-x,-y,-z
x,y,-z
-x,y,z
x,-y,z
1/2+x,1/2+y,z
1/2-x,1/2-y,z
1/2+x,1/2-y,-z
1/2-x,1/2+y,-z
1/2-x,1/2-y,-z
1/2+x,1/2+y,-z
1/2-x,1/2+y,z
1/2+x,1/2-y,z
loop_
_atom_site_type_symbol
_atom_site_label
_atom_site_fract_x
_atom_site_fract_y
_atom_site_fract_z
Si Si1 0.295479 0.341023 0.134187
Si Si2 0.787073 0.000000 0.066187
Si Si3 0.791286 0.654986 0.500000
Si Si4 0.799983 0.401605 0.378618
Si Si5 0.291608 0.093889 0.744082
O O1 0.500000 0.347797 0.130441
O O2 0.250000 0.250000 0.114064
O O3 0.224001 0.418016 0.098394
O O4 0.247488 0.353183 0.200563
O O5 0.000000 0.000000 0.067646
O O6 0.736259 0.000000 0.000000
O O7 0.750000 0.750000 0.500000
O O8 0.721055 0.620982 0.560231
O O9 0.000000 0.638051 0.500000
O O10 0.803744 0.500000 0.375175
O O11 0.723394 0.374745 0.317458
O O12 0.000000 0.371514 0.380339
O O13 0.500000 0.089818 0.738448
O O14 0.229314 0.000000 0.753920
#
# Coordination Sequence:
#
# PCOD9485457 Si02
#       5
#    16   8   8  16  16
#     4  11  22  37  59  87 117 151 190 229 277 330
#     4   9  20  40  63  85 115 152 187 228 276 329
#     4  10  19  31  47  67  97 132 172 218 268 320
#     4   8  15  29  51  75  96 129 176 222 265 316
#     4   9  17  32  55  81 110 141 179 229 282 331
#
# _framework density 21.733457000000001
#
# number of rings (size 3 to 8) (size 9 to 14) (size 15 to 20)
#    0.000    2.625    1.250    2.625    0.000    3.000 
#    0.000    3.750    0.000    8.250    0.000    0.000 
#    0.000    0.000    0.000    0.000    0.000    0.000 
#
# Total GULP energy -178447.897150 kJ/mol
# GULP energy per Si atom -5576.496786 kJ/mol
# Density = 2.168399 g / cm^3
# Si number density = 21.733457 Si / 1000 Ang^3
#
#
#
# Elastic Constant Matrix: (Units=GPa)
#
#
# Indices 1 2 3 4 5 6 
#
# 1 39.0723 2.9622 8.5327 0.0000 0.0000 0.0000
# 2 2.9622 104.3662 83.7399 0.0000 0.0000 0.0000
# 3 8.5327 83.7399 185.5793 0.0000 0.0000 0.0000
# 4 0.0000 0.0000 0.0000 4.8043 0.0000 0.0000
# 5 0.0000 0.0000 0.0000 0.0000 13.3838 0.0000
# 6 0.0000 0.0000 0.0000 0.0000 0.0000 16.9309
#
#
#
# Elastic Compliance Matrix: (Units=1/GPa)
#
#
# Indices 1 2 3 4 5 6 
#
# 1 0.025861 0.000345 -0.001345 0.000000 0.000000 0.000000
# 2 0.000345 0.015024 -0.006795 0.000000 0.000000 0.000000
# 3 -0.001345 -0.006795 0.008517 0.000000 0.000000 0.000000
# 4 0.000000 0.000000 0.000000 0.208149 0.000000 0.000000
# 5 0.000000 0.000000 0.000000 0.000000 0.074717 0.000000
# 6 0.000000 0.000000 0.000000 0.000000 0.000000 0.059064
#
#
# Mechanical properties :
#
#
# Convention : Reuss Voigt Hill
#
# Bulk Modulus (GPa) = 29.57549 57.72081 43.64815
# Shear Modulus (GPa) = 11.95623 22.60932 17.28278
#
# Velocity S-wave (km/s) = 2.34803 3.22887 2.82302
# Velocity P-wave (km/s) = 4.58135 6.36529 5.54553
#
# Compressibility (1/GPa) = 0.03381179
#
# Stress axis : x y z
#
# Youngs Moduli (GPa) = 38.66811 66.55949 117.41733
#
# Poissons Ratio (x) = -0.02296 0.15789
# Poissons Ratio (y) = -0.01334 0.79788
# Poissons Ratio (z) = 0.05200 0.45229
#
# Static dielectric constant tensor:
#      x y z
#    x 1.820780 0.000000 0.000000 
#    y 0.000000 1.757100 0.000000 
#    z 0.000000 0.000000 1.843900 
# 
# From -- ./inp_files/66748.got.cif
#   From: 2010.05.17/outbox.cif.g08.bks.cpg/sg65_34_cif.got.tgz:66748.got - 2010.06.03 17:01:31.
