data_PCOD9485188
_publ_section_title
;
Structure prediction by ZEFSAII (Michael W. Deem and Ramdas Pophale) SiO2 
 PCOD9485188
Probable space group: C M M M
;
_chemical_formula_sum "Si O2"
_cell_formula_units_Z 112
_cell_length_a 7.511352
_cell_length_b 18.811468
_cell_length_c 37.772969
_cell_angle_alpha 90.000000
_cell_angle_beta 90.000000
_cell_angle_gamma 90.000000
_cell_volume 5337.303816
_symmetry_space_group_name_H-M "C M M M"
_symmetry_group_IT_number 65
_symmetry_cell_setting 'orthorhombic'
loop_
_space_group_symop_operation_xyz
x,y,z
-x,-y,z
x,-y,-z
-x,y,-z
-x,-y,-z
x,y,-z
-x,y,z
x,-y,z
1/2+x,1/2+y,z
1/2-x,1/2-y,z
1/2+x,1/2-y,-z
1/2-x,1/2+y,-z
1/2-x,1/2-y,-z
1/2+x,1/2+y,-z
1/2-x,1/2+y,z
1/2+x,1/2-y,z
loop_
_atom_site_type_symbol
_atom_site_label
_atom_site_fract_x
_atom_site_fract_y
_atom_site_fract_z
Si Si1 0.286960 0.918543 0.185133
Si Si2 0.217082 0.582314 0.539718
Si Si3 0.786323 0.080983 0.893513
Si Si4 0.786750 0.333374 0.392082
Si Si5 0.286579 0.166467 0.746908
Si Si6 0.713535 0.666431 0.038910
Si Si7 0.281982 0.917657 0.322648
O O1 0.500000 0.922570 0.188757
O O2 0.251721 0.890042 0.145687
O O3 0.218658 0.869871 0.216994
O O4 0.218274 0.000000 0.187308
O O5 0.274875 0.602510 0.500000
O O6 0.267335 0.500000 0.546090
O O7 0.280334 0.632606 0.571257
O O8 0.000000 0.583888 0.539567
O O9 0.717147 0.125025 0.926893
O O10 0.000000 0.078413 0.896528
O O11 0.718536 0.000000 0.894544
O O12 0.750000 0.250000 0.389266
O O13 0.721778 0.376779 0.357918
O O14 0.000000 0.341978 0.392431
O O15 0.500000 0.158633 0.747003
O O16 0.250000 0.250000 0.745136
O O17 0.221916 0.124396 0.712289
O O18 0.500000 0.657190 0.038328
O O19 0.750000 0.750000 0.042459
O O20 0.780742 0.643400 0.000000
O O21 0.500000 0.917113 0.322667
O O22 0.227703 0.000000 0.322290
#
# Coordination Sequence:
#
# PCOD9485188 Si02
#       7
#    16  16  16  16  16  16  16
#     4   9  18  33  51  69  91 122 158 191 225 269
#     4   8  14  26  45  68  92 120 159 202 235 269
#     4   9  18  32  50  72  96 122 154 193 234 273
#     4  10  19  30  47  71  97 124 154 192 238 283
#     4  10  20  33  50  72  97 123 152 190 234 277
#     4   9  18  32  49  69  94 124 156 190 229 274
#     4   9  17  31  52  73  91 118 160 201 231 268
#
# _framework density 20.984376999999999
#
# number of rings (size 3 to 8) (size 9 to 14) (size 15 to 20)
#    0.000    2.857    0.000    1.714    0.000    5.714 
#    0.000    4.286    0.000    3.857    0.000    5.000 
#    0.000    0.000    0.000    0.000    0.000    0.000 
#
# Total GULP energy -312564.838235 kJ/mol
# GULP energy per Si atom -5581.514968 kJ/mol
# Density = 2.093662 g / cm^3
# Si number density = 20.984377 Si / 1000 Ang^3
#
#
#
# Elastic Constant Matrix: (Units=GPa)
#
#
# Indices 1 2 3 4 5 6 
#
# 1 55.8093 -1.2113 8.3980 0.0000 0.0000 0.0000
# 2 -1.2113 144.2407 141.6898 0.0000 0.0000 0.0000
# 3 8.3980 141.6898 257.7758 0.0000 0.0000 0.0000
# 4 0.0000 0.0000 0.0000 13.1293 0.0000 0.0000
# 5 0.0000 0.0000 0.0000 0.0000 14.6356 0.0000
# 6 0.0000 0.0000 0.0000 0.0000 0.0000 19.7659
#
#
#
# Elastic Compliance Matrix: (Units=1/GPa)
#
#
# Indices 1 2 3 4 5 6 
#
# 1 0.018174 0.001596 -0.001469 0.000000 0.000000 0.000000
# 2 0.001596 0.015210 -0.008412 0.000000 0.000000 0.000000
# 3 -0.001469 -0.008412 0.008551 0.000000 0.000000 0.000000
# 4 0.000000 0.000000 0.000000 0.076166 0.000000 0.000000
# 5 0.000000 0.000000 0.000000 0.000000 0.068326 0.000000
# 6 0.000000 0.000000 0.000000 0.000000 0.000000 0.050592
#
#
# Mechanical properties :
#
#
# Convention : Reuss Voigt Hill
#
# Bulk Modulus (GPa) = 39.42665 83.95317 61.68991
# Shear Modulus (GPa) = 19.08073 30.10279 24.59176
#
# Velocity S-wave (km/s) = 3.01870 3.79163 3.42703
# Velocity P-wave (km/s) = 5.56592 7.69824 6.71723
#
# Compressibility (1/GPa) = 0.02536356
#
# Stress axis : x y z
#
# Youngs Moduli (GPa) = 55.02394 65.74762 116.94439
#
# Poissons Ratio (x) = -0.10493 0.17183
# Poissons Ratio (y) = -0.08782 0.98376
# Poissons Ratio (z) = 0.08085 0.55308
#
# Static dielectric constant tensor:
#      x y z
#    x 2.023520 0.000000 0.000000 
#    y 0.000000 1.703620 0.000000 
#    z 0.000000 0.000000 1.756270 
# 
# From -- ./inp_files/77423.got.cif
#   From: 2010.05.17/outbox.cif.g08.bks.cpg/sg65_39_cif.got.tgz:77423.got - 2010.06.03 17:01:31.
