data_PCOD9485344
_publ_section_title
;
Structure prediction by ZEFSAII (Michael W. Deem and Ramdas Pophale) SiO2 
 PCOD9485344
Probable space group: C M M M
;
_chemical_formula_sum "Si O2"
_cell_formula_units_Z 112
_cell_length_a 16.320326
_cell_length_b 19.469635
_cell_length_c 21.277975
_cell_angle_alpha 90.000000
_cell_angle_beta 90.000000
_cell_angle_gamma 90.000000
_cell_volume 6761.093372
_symmetry_space_group_name_H-M "C M M M"
_symmetry_group_IT_number 65
_symmetry_cell_setting 'orthorhombic'
loop_
_space_group_symop_operation_xyz
x,y,z
-x,-y,z
x,-y,-z
-x,y,-z
-x,-y,-z
x,y,-z
-x,y,z
x,-y,z
1/2+x,1/2+y,z
1/2-x,1/2-y,z
1/2+x,1/2-y,-z
1/2-x,1/2+y,-z
1/2-x,1/2-y,-z
1/2+x,1/2+y,-z
1/2-x,1/2+y,z
1/2+x,1/2-y,z
loop_
_atom_site_type_symbol
_atom_site_label
_atom_site_fract_x
_atom_site_fract_y
_atom_site_fract_z
Si Si1 0.347738 0.423504 0.322725
Si Si2 0.092969 0.210769 0.263089
Si Si3 0.808284 0.422788 0.772268
Si Si4 0.719821 0.918696 0.573435
Si Si5 0.595656 0.149669 0.667448
Si Si6 0.904977 0.078475 0.924333
Si Si7 0.286797 0.681144 0.852252
O O1 0.384610 0.500000 0.321954
O O2 0.402800 0.361315 0.299745
O O3 0.271043 0.424451 0.273958
O O4 0.305639 0.409668 0.389930
O O5 0.114901 0.273060 0.309655
O O6 0.157629 0.206403 0.206593
O O7 0.000000 0.222707 0.240353
O O8 0.821592 0.500000 0.795865
O O9 0.881098 0.397315 0.727512
O O10 0.784785 0.367803 0.825090
O O11 0.724566 0.902557 0.500000
O O12 0.652137 0.874856 0.610272
O O13 0.699291 0.000000 0.580378
O O14 0.500000 0.144542 0.652305
O O15 0.844891 0.133723 0.894506
O O16 0.000000 0.090940 0.906098
O O17 0.884340 0.000000 0.904365
O O18 0.901024 0.080602 0.000000
O O19 0.250000 0.750000 0.882437
#
# Coordination Sequence:
#
# PCOD9485344 Si02
#       7
#    16  16  16  16  16  16  16
#     4   8  16  30  48  67  91 119 154 202 249 297
#     4  10  20  32  47  70 100 130 162 200 246 298
#     4   9  17  29  45  68  93 124 164 202 242 293
#     4   9  18  32  50  70  90 118 160 206 250 302
#     4  10  19  31  45  65  96 131 160 200 252 297
#     4   9  19  36  56  78 106 139 174 214 257 297
#     4  11  19  31  51  76 104 137 166 205 248 296
#
# _framework density 16.565367999999999
#
# number of rings (size 3 to 8) (size 9 to 14) (size 15 to 20)
#    0.000    2.571    1.429    2.571    0.000    2.571 
#    0.000    2.143    0.000    1.286    0.000    2.000 
#    0.000    0.000    0.000    9.429    0.000    0.000 
#
# Total GULP energy -312081.865176 kJ/mol
# GULP energy per Si atom -5572.890450 kJ/mol
# Density = 1.652766 g / cm^3
# Si number density = 16.565368 Si / 1000 Ang^3
#
#
#
# Elastic Constant Matrix: (Units=GPa)
#
#
# Indices 1 2 3 4 5 6 
#
# 1 30.2876 27.4234 10.6328 0.0000 0.0000 0.0000
# 2 27.4234 104.7099 24.3467 0.0000 0.0000 0.0000
# 3 10.6328 24.3467 29.5788 0.0000 0.0000 0.0000
# 4 0.0000 0.0000 0.0000 21.7466 0.0000 0.0000
# 5 0.0000 0.0000 0.0000 0.0000 15.5589 0.0000
# 6 0.0000 0.0000 0.0000 0.0000 0.0000 23.9897
#
#
#
# Elastic Compliance Matrix: (Units=1/GPa)
#
#
# Indices 1 2 3 4 5 6 
#
# 1 0.044747 -0.009868 -0.007963 0.000000 0.000000 0.000000
# 2 -0.009868 0.013987 -0.007965 0.000000 0.000000 0.000000
# 3 -0.007963 -0.007965 0.043227 0.000000 0.000000 0.000000
# 4 0.000000 0.000000 0.000000 0.045984 0.000000 0.000000
# 5 0.000000 0.000000 0.000000 0.000000 0.064272 0.000000
# 6 0.000000 0.000000 0.000000 0.000000 0.000000 0.041685
#
#
# Mechanical properties :
#
#
# Convention : Reuss Voigt Hill
#
# Bulk Modulus (GPa) = 19.85387 32.15357 26.00372
# Shear Modulus (GPa) = 15.51432 19.07059 17.29245
#
# Velocity S-wave (km/s) = 3.06363 3.39666 3.23444
# Velocity P-wave (km/s) = 4.95234 5.90215 5.44798
#
# Compressibility (1/GPa) = 0.05036802
#
# Stress axis : x y z
#
# Youngs Moduli (GPa) = 22.34796 71.49709 23.13368
#
# Poissons Ratio (x) = 0.70550 0.18422
# Poissons Ratio (y) = 0.22052 0.18427
# Poissons Ratio (z) = 0.17796 0.56950
#
# Static dielectric constant tensor:
#      x y z
#    x 1.551030 0.000000 0.000000 
#    y 0.000000 1.582330 0.000000 
#    z 0.000000 0.000000 1.542640 
# 
# From -- ./inp_files/63917.got.cif
#   From: 2010.05.17/outbox.cif.g08.bks.cpg/sg65_32_cif.got.tgz:63917.got - 2010.06.03 17:01:31.
