data_PCOD9485815
_publ_section_title
;
Structure prediction by ZEFSAII (Michael W. Deem and Ramdas Pophale) SiO2 
 PCOD9485815
Probable space group: C M M M
;
_chemical_formula_sum "Si O2"
_cell_formula_units_Z 88
_cell_length_a 8.871406
_cell_length_b 27.790348
_cell_length_c 21.650776
_cell_angle_alpha 90.000000
_cell_angle_beta 90.000000
_cell_angle_gamma 90.000000
_cell_volume 5337.770623
_symmetry_space_group_name_H-M "C M M M"
_symmetry_group_IT_number 65
_symmetry_cell_setting 'orthorhombic'
loop_
_space_group_symop_operation_xyz
x,y,z
-x,-y,z
x,-y,-z
-x,y,-z
-x,-y,-z
x,y,-z
-x,y,z
x,-y,z
1/2+x,1/2+y,z
1/2-x,1/2-y,z
1/2+x,1/2-y,-z
1/2-x,1/2+y,-z
1/2-x,1/2-y,-z
1/2+x,1/2+y,-z
1/2-x,1/2+y,z
1/2+x,1/2-y,z
loop_
_atom_site_type_symbol
_atom_site_label
_atom_site_fract_x
_atom_site_fract_y
_atom_site_fract_z
Si Si1 0.820225 0.054125 0.258144
Si Si2 0.180787 0.301151 0.308811
Si Si3 0.680096 0.349695 0.811498
Si Si4 0.680067 0.196907 0.070434
Si Si5 0.180708 0.056386 0.500000
Si Si6 0.179695 0.600909 0.377327
O O1 0.786550 0.095453 0.208490
O O2 0.734079 0.067758 0.320650
O O3 0.000000 0.056667 0.270806
O O4 0.783994 0.000000 0.238291
O O5 0.250000 0.250000 0.326968
O O6 0.248391 0.316840 0.242513
O O7 0.218226 0.344513 0.356159
O O8 0.000000 0.297920 0.304096
O O9 0.749268 0.336177 0.877043
O O10 0.000000 0.157318 0.812009
O O11 0.500000 0.199626 0.077798
O O12 0.750000 0.250000 0.077977
O O13 0.712876 0.181122 0.000000
O O14 0.242471 0.082929 0.560603
O O15 0.000000 0.057678 0.500000
O O16 0.227496 0.000000 0.500000
O O17 0.000000 0.597929 0.384025
#
# Coordination Sequence:
#
# PCOD9485815 Si02
#       6
#    16  16  16  16   8  16
#     4   9  18  33  52  74 100 129 162 200 243 290
#     4  10  20  34  52  74 101 131 164 201 241 287
#     4  10  19  31  50  74 100 130 163 201 243 287
#     4  10  20  33  49  70  98 130 163 200 242 289
#     4  11  23  37  54  75 100 131 164 199 242 293
#     4  10  21  35  52  76 102 128 162 203 244 288
#
# _framework density 16.486283
#
# number of rings (size 3 to 8) (size 9 to 14) (size 15 to 20)
#    0.000    2.091    0.000    3.545    0.000    7.273 
#    0.000    0.455    0.000    0.545    0.000    3.818 
#    0.000    0.000    0.000    0.000    0.000    0.000 
#
# Total GULP energy -245597.001229 kJ/mol
# GULP energy per Si atom -5581.750028 kJ/mol
# Density = 1.644876 g / cm^3
# Si number density = 16.486283 Si / 1000 Ang^3
#
#
#
# Elastic Constant Matrix: (Units=GPa)
#
#
# Indices 1 2 3 4 5 6 
#
# 1 63.7096 54.5525 64.7208 0.0000 0.0000 0.0000
# 2 54.5525 123.3579 75.9171 0.0000 0.0000 0.0000
# 3 64.7208 75.9171 143.9017 0.0000 0.0000 0.0000
# 4 0.0000 0.0000 0.0000 13.4584 0.0000 0.0000
# 5 0.0000 0.0000 0.0000 0.0000 30.4957 0.0000
# 6 0.0000 0.0000 0.0000 0.0000 0.0000 25.1344
#
#
#
# Elastic Compliance Matrix: (Units=1/GPa)
#
#
# Indices 1 2 3 4 5 6 
#
# 1 0.033782 -0.008276 -0.010828 0.000000 0.000000 0.000000
# 2 -0.008276 0.014031 -0.003680 0.000000 0.000000 0.000000
# 3 -0.010828 -0.003680 0.013761 0.000000 0.000000 0.000000
# 4 0.000000 0.000000 0.000000 0.074303 0.000000 0.000000
# 5 0.000000 0.000000 0.000000 0.000000 0.032791 0.000000
# 6 0.000000 0.000000 0.000000 0.000000 0.000000 0.039786
#
#
# Mechanical properties :
#
#
# Convention : Reuss Voigt Hill
#
# Bulk Modulus (GPa) = 62.47521 80.15000 71.31260
# Shear Modulus (GPa) = 19.27839 22.86962 21.07401
#
# Velocity S-wave (km/s) = 3.42330 3.72854 3.57918
# Velocity P-wave (km/s) = 7.32140 8.20108 7.77369
#
# Compressibility (1/GPa) = 0.01600635
#
# Stress axis : x y z
#
# Youngs Moduli (GPa) = 29.60142 71.26983 72.67141
#
# Poissons Ratio (x) = 0.58982 0.78687
# Poissons Ratio (y) = 0.24498 0.26745
# Poissons Ratio (z) = 0.32052 0.26229
#
# Static dielectric constant tensor:
#      x y z
#    x 1.550160 0.000000 0.000000 
#    y 0.000000 1.554680 0.000000 
#    z 0.000000 0.000000 1.525250 
# 
# From -- ./inp_files/59802.got.cif
#   From: 2010.05.17/outbox.cif.g08.bks.cpg/sg65_30_cif.got.tgz:59802.got - 2010.06.03 17:01:31.
