data_PCOD9485042
_publ_section_title
;
Structure prediction by ZEFSAII (Michael W. Deem and Ramdas Pophale) SiO2 
 PCOD9485042
Probable space group: C M M M
;
_chemical_formula_sum "Si O2"
_cell_formula_units_Z 104
_cell_length_a 8.963743
_cell_length_b 28.006164
_cell_length_c 26.825696
_cell_angle_alpha 90.000000
_cell_angle_beta 90.000000
_cell_angle_gamma 90.000000
_cell_volume 6734.324240
_symmetry_space_group_name_H-M "C M M M"
_symmetry_group_IT_number 65
_symmetry_cell_setting 'orthorhombic'
loop_
_space_group_symop_operation_xyz
x,y,z
-x,-y,z
x,-y,-z
-x,y,-z
-x,-y,-z
x,y,-z
-x,y,z
x,-y,z
1/2+x,1/2+y,z
1/2-x,1/2-y,z
1/2+x,1/2-y,-z
1/2-x,1/2+y,-z
1/2-x,1/2-y,-z
1/2+x,1/2+y,-z
1/2-x,1/2+y,z
1/2+x,1/2-y,z
loop_
_atom_site_type_symbol
_atom_site_label
_atom_site_fract_x
_atom_site_fract_y
_atom_site_fract_z
Si Si1 0.178164 0.609618 0.697425
Si Si2 0.671629 0.057896 0.500000
Si Si3 0.322118 0.198158 0.942415
Si Si4 0.321284 0.301968 0.751441
Si Si5 0.678407 0.443369 0.395858
Si Si6 0.322543 0.642132 0.853552
Si Si7 0.178271 0.555069 0.199972
O O1 0.251530 0.659776 0.713249
O O2 0.248412 0.586901 0.648203
O O3 0.207349 0.574024 0.744036
O O4 0.000000 0.614755 0.692259
O O5 0.500000 0.074121 0.500000
O O6 0.755646 0.071795 0.449390
O O7 0.670741 0.000000 0.500000
O O8 0.500000 0.201587 0.936597
O O9 0.250000 0.250000 0.933257
O O10 0.255502 0.161622 0.902844
O O11 0.289611 0.185117 0.000000
O O12 0.500000 0.300067 0.745789
O O13 0.250000 0.250000 0.745747
O O14 0.288187 0.322662 0.806865
O O15 0.500000 0.438265 0.395645
O O16 0.712662 0.500000 0.388837
O O17 0.500000 0.641245 0.859964
O O18 0.262322 0.590610 0.837025
O O19 0.222170 0.500000 0.194964
O O20 0.000000 0.558935 0.191839
#
# Coordination Sequence:
#
# PCOD9485042 Si02
#       7
#    16   8  16  16  16  16  16
#     4  10  19  31  48  70  95 125 160 195 233 278
#     4   9  17  29  45  65  90 123 162 199 235 279
#     4  10  20  33  50  72  97 124 154 190 233 280
#     4  10  20  33  48  69  96 125 157 192 233 279
#     4  10  19  30  45  67  97 129 159 195 238 281
#     4  10  20  32  49  72  97 126 157 191 232 279
#     4   9  18  32  49  69  95 127 161 196 233 275
#
# _framework density 15.443272
#
# number of rings (size 3 to 8) (size 9 to 14) (size 15 to 20)
#    0.000    2.231    0.000    3.462    0.000    7.385 
#    0.000    0.000    0.000    0.462    0.000    3.769 
#    0.000    0.000    0.000    0.000    0.000    0.000 
#
# Total GULP energy -290179.834496 kJ/mol
# GULP energy per Si atom -5580.381433 kJ/mol
# Density = 1.540812 g / cm^3
# Si number density = 15.443272 Si / 1000 Ang^3
#
#
#
# Elastic Constant Matrix: (Units=GPa)
#
#
# Indices 1 2 3 4 5 6 
#
# 1 76.8997 65.2211 69.8664 0.0000 0.0000 0.0000
# 2 65.2211 125.7059 78.1676 0.0000 0.0000 0.0000
# 3 69.8664 78.1676 126.0019 0.0000 0.0000 0.0000
# 4 0.0000 0.0000 0.0000 24.1023 0.0000 0.0000
# 5 0.0000 0.0000 0.0000 0.0000 28.5709 0.0000
# 6 0.0000 0.0000 0.0000 0.0000 0.0000 27.9535
#
#
#
# Elastic Compliance Matrix: (Units=1/GPa)
#
#
# Indices 1 2 3 4 5 6 
#
# 1 0.031289 -0.008866 -0.011849 0.000000 0.000000 0.000000
# 2 -0.008866 0.015463 -0.004677 0.000000 0.000000 0.000000
# 3 -0.011849 -0.004677 0.017408 0.000000 0.000000 0.000000
# 4 0.000000 0.000000 0.000000 0.041490 0.000000 0.000000
# 5 0.000000 0.000000 0.000000 0.000000 0.035001 0.000000
# 6 0.000000 0.000000 0.000000 0.000000 0.000000 0.035774
#
#
# Mechanical properties :
#
#
# Convention : Reuss Voigt Hill
#
# Bulk Modulus (GPa) = 74.75920 83.90197 79.33058
# Shear Modulus (GPa) = 21.58276 23.81550 22.69913
#
# Velocity S-wave (km/s) = 3.74244 3.93125 3.83801
# Velocity P-wave (km/s) = 8.19686 8.66334 8.43332
#
# Compressibility (1/GPa) = 0.01337628
#
# Stress axis : x y z
#
# Youngs Moduli (GPa) = 31.96056 64.66965 57.44453
#
# Poissons Ratio (x) = 0.57333 0.68067
# Poissons Ratio (y) = 0.28335 0.26867
# Poissons Ratio (z) = 0.37871 0.30246
#
# Static dielectric constant tensor:
#      x y z
#    x 1.513620 0.000000 0.000000 
#    y 0.000000 1.486160 0.000000 
#    z 0.000000 0.000000 1.496110 
# 
# From -- ./inp_files/68237.got.cif
#   From: 2010.05.17/outbox.cif.g08.bks.cpg/sg65_35_cif.got.tgz:68237.got - 2010.06.03 17:01:31.
