data_PCOD9485813
_publ_section_title
;
Structure prediction by ZEFSAII (Michael W. Deem and Ramdas Pophale) SiO2 
 PCOD9485813
Probable space group: C M M M
;
_chemical_formula_sum "Si O2"
_cell_formula_units_Z 104
_cell_length_a 7.703167
_cell_length_b 18.660648
_cell_length_c 37.354009
_cell_angle_alpha 90.000000
_cell_angle_beta 90.000000
_cell_angle_gamma 90.000000
_cell_volume 5369.492660
_symmetry_space_group_name_H-M "C M M M"
_symmetry_group_IT_number 65
_symmetry_cell_setting 'orthorhombic'
loop_
_space_group_symop_operation_xyz
x,y,z
-x,-y,z
x,-y,-z
-x,y,-z
-x,-y,-z
x,y,-z
-x,y,z
x,-y,z
1/2+x,1/2+y,z
1/2-x,1/2-y,z
1/2+x,1/2-y,-z
1/2-x,1/2+y,-z
1/2-x,1/2-y,-z
1/2+x,1/2+y,-z
1/2-x,1/2+y,z
1/2+x,1/2-y,z
loop_
_atom_site_type_symbol
_atom_site_label
_atom_site_fract_x
_atom_site_fract_y
_atom_site_fract_z
Si Si1 0.500000 0.587511 0.041078
Si Si2 0.208942 0.834971 0.538458
Si Si3 0.211936 0.582641 0.173948
Si Si4 0.291058 0.833377 0.243673
Si Si5 0.706837 0.334189 0.616250
Si Si6 0.293250 0.919389 0.312563
Si Si7 0.800773 0.412632 0.905663
O O1 0.500000 0.500000 0.040763
O O2 0.669474 0.610092 0.063445
O O3 0.500000 0.611376 0.000000
O O4 0.225991 0.636194 0.500000
O O5 0.250000 0.750000 0.538391
O O6 0.274474 0.860450 0.577251
O O7 0.000000 0.843314 0.538331
O O8 0.266803 0.500000 0.178898
O O9 0.272590 0.630513 0.206939
O O10 0.261698 0.608273 0.134203
O O11 0.000000 0.582257 0.173698
O O12 0.500000 0.840389 0.243343
O O13 0.250000 0.750000 0.245484
O O14 0.223876 0.874517 0.278832
O O15 0.500000 0.339902 0.615248
O O16 0.750000 0.250000 0.620342
O O17 0.767931 0.378530 0.650203
O O18 0.500000 0.924654 0.307208
O O19 0.222123 0.000000 0.313764
O O20 0.802616 0.500000 0.905084
O O21 0.000000 0.389418 0.911224
#
# Coordination Sequence:
#
# PCOD9485813 Si02
#       7
#     8  16  16  16  16  16  16
#     4   9  16  24  36  60  96 132 164 202 247 297
#     4   8  14  25  42  66  94 122 154 192 237 288
#     4   8  14  28  50  69  88 123 165 199 234 285
#     4  10  20  34  51  72  98 125 155 199 246 294
#     4  10  19  31  50  74 100 129 160 201 247 292
#     4  10  21  36  53  71  94 129 170 206 245 297
#     4   8  14  25  41  61  87 124 166 204 245 294
#
# _framework density 19.368682
#
# number of rings (size 3 to 8) (size 9 to 14) (size 15 to 20)
#    0.000    3.000    0.000    2.308    0.000    4.923 
#    1.385    1.538    0.000    1.385    0.000    3.231 
#    0.000    0.615    0.308    0.000    0.000    0.000 
#
# Total GULP energy -289764.557617 kJ/mol
# GULP energy per Si atom -5572.395339 kJ/mol
# Density = 1.932460 g / cm^3
# Si number density = 19.368682 Si / 1000 Ang^3
#
#
#
# Elastic Constant Matrix: (Units=GPa)
#
#
# Indices 1 2 3 4 5 6 
#
# 1 50.4602 11.4296 41.7993 0.0000 0.0000 0.0000
# 2 11.4296 70.4067 78.4278 0.0000 0.0000 0.0000
# 3 41.7993 78.4278 239.6804 0.0000 0.0000 0.0000
# 4 0.0000 0.0000 0.0000 20.3102 0.0000 0.0000
# 5 0.0000 0.0000 0.0000 0.0000 17.6770 0.0000
# 6 0.0000 0.0000 0.0000 0.0000 0.0000 14.0147
#
#
#
# Elastic Compliance Matrix: (Units=1/GPa)
#
#
# Indices 1 2 3 4 5 6 
#
# 1 0.023225 0.001167 -0.004432 0.000000 0.000000 0.000000
# 2 0.001167 0.022408 -0.007536 0.000000 0.000000 0.000000
# 3 -0.004432 -0.007536 0.007411 0.000000 0.000000 0.000000
# 4 0.000000 0.000000 0.000000 0.049236 0.000000 0.000000
# 5 0.000000 0.000000 0.000000 0.000000 0.056571 0.000000
# 6 0.000000 0.000000 0.000000 0.000000 0.000000 0.071354
#
#
# Mechanical properties :
#
#
# Convention : Reuss Voigt Hill
#
# Bulk Modulus (GPa) = 31.80500 69.31786 50.56143
# Shear Modulus (GPa) = 19.06308 25.65976 22.36142
#
# Velocity S-wave (km/s) = 3.14063 3.64374 3.40150
# Velocity P-wave (km/s) = 5.44132 7.31907 6.44890
#
# Compressibility (1/GPa) = 0.03144159
#
# Stress axis : x y z
#
# Youngs Moduli (GPa) = 43.05766 44.62661 134.93397
#
# Poissons Ratio (x) = -0.05207 0.59804
# Poissons Ratio (y) = -0.05024 1.01684
# Poissons Ratio (z) = 0.19084 0.33630
#
# Static dielectric constant tensor:
#      x y z
#    x 1.735540 0.000000 0.000000 
#    y 0.000000 1.639210 0.000000 
#    z 0.000000 0.000000 1.713330 
# 
# From -- ./inp_files/76849.got.cif
#   From: 2010.05.17/outbox.cif.g08.bks.cpg/sg65_39_cif.got.tgz:76849.got - 2010.06.03 17:01:31.
