data_PCOD9485323
_publ_section_title
;
Structure prediction by ZEFSAII (Michael W. Deem and Ramdas Pophale) SiO2 
 PCOD9485323
Probable space group: C M M M
;
_chemical_formula_sum "Si O2"
_cell_formula_units_Z 72
_cell_length_a 14.637372
_cell_length_b 10.888365
_cell_length_c 24.098434
_cell_angle_alpha 90.000000
_cell_angle_beta 90.000000
_cell_angle_gamma 90.000000
_cell_volume 3840.737296
_symmetry_space_group_name_H-M "C M M M"
_symmetry_group_IT_number 65
_symmetry_cell_setting 'orthorhombic'
loop_
_space_group_symop_operation_xyz
x,y,z
-x,-y,z
x,-y,-z
-x,y,-z
-x,-y,-z
x,y,-z
-x,y,z
x,-y,z
1/2+x,1/2+y,z
1/2-x,1/2-y,z
1/2+x,1/2-y,-z
1/2-x,1/2+y,-z
1/2-x,1/2-y,-z
1/2+x,1/2+y,-z
1/2-x,1/2+y,z
1/2+x,1/2-y,z
loop_
_atom_site_type_symbol
_atom_site_label
_atom_site_fract_x
_atom_site_fract_y
_atom_site_fract_z
Si Si1 0.500000 0.638798 0.721414
Si Si2 0.608433 0.356234 0.935262
Si Si3 0.750000 0.750000 0.145042
Si Si4 0.000000 0.637245 0.636421
Si Si5 0.184801 0.362810 0.433766
Si Si6 0.794029 0.132181 0.251489
O O1 0.500000 0.500000 0.696515
O O2 0.500000 0.750578 0.678901
O O3 0.596408 0.646789 0.753790
O O4 0.500000 0.343433 0.927735
O O5 0.631460 0.500000 0.924696
O O6 0.664161 0.269662 0.894450
O O7 0.629291 0.331267 0.000000
O O8 0.750342 0.859778 0.190051
O O9 0.089882 0.646074 0.598648
O O10 0.000000 0.500000 0.662690
O O11 0.167897 0.354698 0.500000
O O12 0.223994 0.500000 0.423116
O O13 0.250000 0.250000 0.418583
O O14 0.750000 0.250000 0.281475
O O15 0.774828 0.000000 0.277333
#
# Coordination Sequence:
#
# PCOD9485323 Si02
#       6
#     8  16   8   8  16  16
#     4  10  22  41  57  77 107 145 182 227 275 320
#     4   9  18  32  52  79 108 139 175 212 254 314
#     4  10  19  30  56  78 106 132 177 214 270 308
#     4  10  21  36  56  82 110 147 183 222 273 327
#     4   9  18  34  56  82 113 146 183 224 269 321
#     4   9  21  37  57  79 103 134 179 226 270 316
#
# _framework density 18.746400999999999
#
# number of rings (size 3 to 8) (size 9 to 14) (size 15 to 20)
#    0.667    2.000    0.000    2.000    1.556    4.000 
#    0.000    4.444    0.000    5.333    0.000    7.778 
#    0.000    0.000    0.000    0.000    0.000    0.000 
#
# Total GULP energy -200405.317115 kJ/mol
# GULP energy per Si atom -5566.814364 kJ/mol
# Density = 1.870373 g / cm^3
# Si number density = 18.746401 Si / 1000 Ang^3
#
#
#
# Elastic Constant Matrix: (Units=GPa)
#
#
# Indices 1 2 3 4 5 6 
#
# 1 65.3049 68.2068 24.5122 0.0000 0.0000 0.0000
# 2 68.2068 149.9645 44.6733 0.0000 0.0000 0.0000
# 3 24.5122 44.6733 64.2475 0.0000 0.0000 0.0000
# 4 0.0000 0.0000 0.0000 14.0898 0.0000 0.0000
# 5 0.0000 0.0000 0.0000 0.0000 282.5676 0.0000
# 6 0.0000 0.0000 0.0000 0.0000 0.0000 28.7021
#
#
#
# Elastic Compliance Matrix: (Units=1/GPa)
#
#
# Indices 1 2 3 4 5 6 
#
# 1 0.029466 -0.012679 -0.002426 0.000000 0.000000 0.000000
# 2 -0.012679 0.013866 -0.004804 0.000000 0.000000 0.000000
# 3 -0.002426 -0.004804 0.019831 0.000000 0.000000 0.000000
# 4 0.000000 0.000000 0.000000 0.070973 0.000000 0.000000
# 5 0.000000 0.000000 0.000000 0.000000 0.003539 0.000000
# 6 0.000000 0.000000 0.000000 0.000000 0.000000 0.034841
#
#
# Mechanical properties :
#
#
# Convention : Reuss Voigt Hill
#
# Bulk Modulus (GPa) = 42.83645 61.58906 52.21276
# Shear Modulus (GPa) = 22.71543 74.54688 48.63116
#
# Velocity S-wave (km/s) = 3.48476 6.31287 5.09881
# Velocity P-wave (km/s) = 6.25232 9.27694 7.91053
#
# Compressibility (1/GPa) = 0.02334460
#
# Stress axis : x y z
#
# Youngs Moduli (GPa) = 33.93783 72.11907 50.42660
#
# Poissons Ratio (x) = 0.91439 0.12233
# Poissons Ratio (y) = 0.43029 0.24225
# Poissons Ratio (z) = 0.08233 0.34647
#
# Static dielectric constant tensor:
#      x y z
#    x 1.630270 0.000000 0.000000 
#    y 0.000000 1.703800 0.000000 
#    z 0.000000 0.000000 1.648240 
# 
# From -- ./inp_files/77577.got.cif
#   From: 2010.05.17/outbox.cif.g08.bks.cpg/sg65_39_cif.got.tgz:77577.got - 2010.06.03 17:01:31.
