data_PCOD9485134
_publ_section_title
;
Structure prediction by ZEFSAII (Michael W. Deem and Ramdas Pophale) SiO2 
 PCOD9485134
Probable space group: C M M M
;
_chemical_formula_sum "Si O2"
_cell_formula_units_Z 88
_cell_length_a 8.449396
_cell_length_b 15.833512
_cell_length_c 31.911465
_cell_angle_alpha 90.000000
_cell_angle_beta 90.000000
_cell_angle_gamma 90.000000
_cell_volume 4269.231083
_symmetry_space_group_name_H-M "C M M M"
_symmetry_group_IT_number 65
_symmetry_cell_setting 'orthorhombic'
loop_
_space_group_symop_operation_xyz
x,y,z
-x,-y,z
x,-y,-z
-x,y,-z
-x,-y,-z
x,y,-z
-x,y,z
x,-y,z
1/2+x,1/2+y,z
1/2-x,1/2-y,z
1/2+x,1/2-y,-z
1/2-x,1/2+y,-z
1/2-x,1/2-y,-z
1/2+x,1/2+y,-z
1/2-x,1/2+y,z
1/2+x,1/2-y,z
loop_
_atom_site_type_symbol
_atom_site_label
_atom_site_fract_x
_atom_site_fract_y
_atom_site_fract_z
Si Si1 0.690031 0.160525 0.599673
Si Si2 0.688454 0.345875 0.774379
Si Si3 0.817460 0.598085 0.312874
Si Si4 0.808151 0.847513 0.045098
Si Si5 0.689822 0.500000 0.548483
Si Si6 0.191769 0.152588 0.135242
O O1 0.500000 0.158800 0.601153
O O2 0.750000 0.250000 0.583322
O O3 0.751046 0.148281 0.647603
O O4 0.748002 0.082853 0.571989
O O5 0.500000 0.344210 0.775584
O O6 0.750000 0.250000 0.771623
O O7 0.738663 0.391220 0.732037
O O8 0.744008 0.382808 0.819506
O O9 0.813775 0.500000 0.325235
O O10 0.000000 0.624177 0.307292
O O11 0.750000 0.750000 0.045127
O O12 0.756185 0.884478 0.090181
O O13 0.000000 0.848210 0.045072
O O14 0.756529 0.884497 0.000000
O O15 0.500000 0.500000 0.550049
O O16 0.740408 0.500000 0.500000
O O17 0.250000 0.250000 0.135424
O O18 0.000000 0.151359 0.134955
#
# Coordination Sequence:
#
# PCOD9485134 Si02
#       6
#    16  16  16  16   8  16
#     4  11  23  42  67  96 128 166 208 253 305 358
#     4  10  19  30  46  70  99 135 174 214 265 325
#     4  10  21  38  57  80 110 143 184 234 285 338
#     4   8  12  18  29  45  68 103 145 189 240 298
#     4  11  25  45  69  99 133 169 211 257 302 351
#     4   8  14  23  34  52  81 114 153 199 247 306
#
# _framework density 20.612611999999999
#
# number of rings (size 3 to 8) (size 9 to 14) (size 15 to 20)
#    0.000    2.455    0.909    1.909    0.000    5.091 
#    0.000    0.000    0.000    0.000    0.000    0.000 
#    0.000    0.727    0.000    9.091    0.000    4.727 
#
# Total GULP energy -245200.597259 kJ/mol
# GULP energy per Si atom -5572.740847 kJ/mol
# Density = 2.056570 g / cm^3
# Si number density = 20.612612 Si / 1000 Ang^3
#
#
#
# Elastic Constant Matrix: (Units=GPa)
#
#
# Indices 1 2 3 4 5 6 
#
# 1 25.6063 10.9999 32.3144 0.0000 0.0000 0.0000
# 2 10.9999 68.8472 56.1163 0.0000 0.0000 0.0000
# 3 32.3144 56.1163 187.0165 0.0000 0.0000 0.0000
# 4 0.0000 0.0000 0.0000 40.4660 0.0000 0.0000
# 5 0.0000 0.0000 0.0000 0.0000 49.3105 0.0000
# 6 0.0000 0.0000 0.0000 0.0000 0.0000 17.6641
#
#
#
# Elastic Compliance Matrix: (Units=1/GPa)
#
#
# Indices 1 2 3 4 5 6 
#
# 1 0.050025 -0.001254 -0.008267 0.000000 0.000000 0.000000
# 2 -0.001254 0.019259 -0.005562 0.000000 0.000000 0.000000
# 3 -0.008267 -0.005562 0.008445 0.000000 0.000000 0.000000
# 4 0.000000 0.000000 0.000000 0.024712 0.000000 0.000000
# 5 0.000000 0.000000 0.000000 0.000000 0.020280 0.000000
# 6 0.000000 0.000000 0.000000 0.000000 0.000000 0.056612
#
#
# Mechanical properties :
#
#
# Convention : Reuss Voigt Hill
#
# Bulk Modulus (GPa) = 21.02556 53.37014 37.19785
# Shear Modulus (GPa) = 22.18741 33.62408 27.90575
#
# Velocity S-wave (km/s) = 3.28441 4.04324 3.68342
# Velocity P-wave (km/s) = 4.96041 6.90979 6.01460
#
# Compressibility (1/GPa) = 0.04756117
#
# Stress axis : x y z
#
# Youngs Moduli (GPa) = 19.99009 51.92406 118.41831
#
# Poissons Ratio (x) = 0.06511 0.97902
# Poissons Ratio (y) = 0.02507 0.65866
# Poissons Ratio (z) = 0.16527 0.28881
#
# Static dielectric constant tensor:
#      x y z
#    x 1.726430 0.000000 0.000000 
#    y 0.000000 2.312520 0.000000 
#    z 0.000000 0.000000 1.821620 
# 
# From -- ./inp_files/76522.got.cif
#   From: 2010.05.17/outbox.cif.g08.bks.cpg/sg65_39_cif.got.tgz:76522.got - 2010.06.03 17:01:31.
