data_PCOD9485899
_publ_section_title
;
Structure prediction by ZEFSAII (Michael W. Deem and Ramdas Pophale) SiO2 
 PCOD9485899
Probable space group: C M M M
;
_chemical_formula_sum "Si O2"
_cell_formula_units_Z 66
_cell_length_a 8.319171
_cell_length_b 15.041973
_cell_length_c 26.493758
_cell_angle_alpha 90.000000
_cell_angle_beta 90.000000
_cell_angle_gamma 90.000000
_cell_volume 3315.342654
_symmetry_space_group_name_H-M "C M M M"
_symmetry_group_IT_number 65
_symmetry_cell_setting 'orthorhombic'
loop_
_space_group_symop_operation_xyz
x,y,z
-x,-y,z
x,-y,-z
-x,y,-z
-x,-y,-z
x,y,-z
-x,y,z
x,-y,z
1/2+x,1/2+y,z
1/2-x,1/2-y,z
1/2+x,1/2-y,-z
1/2-x,1/2+y,-z
1/2-x,1/2-y,-z
1/2+x,1/2+y,-z
1/2-x,1/2+y,z
1/2+x,1/2-y,z
loop_
_atom_site_type_symbol
_atom_site_label
_atom_site_fract_x
_atom_site_fract_y
_atom_site_fract_z
Si Si1 0.808088 0.351136 0.367546
Si Si2 0.500000 0.000000 0.000000
Si Si3 0.191506 0.000000 0.442801
Si Si4 0.193883 0.647573 0.745127
Si Si5 0.677089 0.602539 0.148798
Si Si6 0.000000 0.599925 0.103976
O O1 0.750000 0.250000 0.373278
O O2 0.744918 0.414393 0.411105
O O3 0.761574 0.384008 0.311167
O O4 0.000000 0.351449 0.368743
O O5 0.500000 0.076258 0.954863
O O6 0.256044 0.000000 0.500000
O O7 0.000000 0.000000 0.445308
O O8 0.250000 0.750000 0.747125
O O9 0.282471 0.602875 0.791863
O O10 0.000000 0.640720 0.751216
O O11 0.500000 0.642575 0.140363
O O12 0.668206 0.500000 0.130774
O O13 0.833678 0.643556 0.121828
O O14 0.000000 0.500000 0.129721
#
# Coordination Sequence:
#
# PCOD9485899 Si02
#       6
#    16   2   8  16  16   8
#     4  10  22  40  62  88 119 155 193 242 300 362
#     4   8  16  32  54  72 108 146 184 236 302 308
#     4  11  25  43  62  85 113 151 204 254 300 352
#     4  10  20  34  53  80 116 147 181 222 276 348
#     4  10  19  31  50  77 111 145 181 223 277 333
#     4   8  16  32  48  74 108 136 183 230 272 331
#
# _framework density 19.907443000000001
#
# number of rings (size 3 to 8) (size 9 to 14) (size 15 to 20)
#    0.364    1.818    1.212    1.818    1.697    4.364 
#    0.000    1.212    0.000    0.000    0.000    0.848 
#    0.000    0.000    0.000    0.000    0.000    0.000 
#
# Total GULP energy -183760.855594 kJ/mol
# GULP energy per Si atom -5568.510776 kJ/mol
# Density = 1.986213 g / cm^3
# Si number density = 19.907443 Si / 1000 Ang^3
#
#
#
# Elastic Constant Matrix: (Units=GPa)
#
#
# Indices 1 2 3 4 5 6 
#
# 1 140.5250 18.7298 66.6072 0.0000 0.0000 0.0000
# 2 18.7298 48.8222 29.5157 0.0000 0.0000 0.0000
# 3 66.6072 29.5157 144.9520 0.0000 0.0000 0.0000
# 4 0.0000 0.0000 0.0000 278.5343 0.0000 0.0000
# 5 0.0000 0.0000 0.0000 0.0000 3.5363 0.0000
# 6 0.0000 0.0000 0.0000 0.0000 0.0000 23.4486
#
#
#
# Elastic Compliance Matrix: (Units=1/GPa)
#
#
# Indices 1 2 3 4 5 6 
#
# 1 0.009150 -0.001104 -0.003979 0.000000 0.000000 0.000000
# 2 -0.001104 0.023491 -0.004276 0.000000 0.000000 0.000000
# 3 -0.003979 -0.004276 0.009598 0.000000 0.000000 0.000000
# 4 0.000000 0.000000 0.000000 0.003590 0.000000 0.000000
# 5 0.000000 0.000000 0.000000 0.000000 0.282785 0.000000
# 6 0.000000 0.000000 0.000000 0.000000 0.000000 0.042647
#
#
# Mechanical properties :
#
#
# Convention : Reuss Voigt Hill
#
# Bulk Modulus (GPa) = 42.51789 62.66716 52.59253
# Shear Modulus (GPa) = 12.56849 75.73359 44.15104
#
# Velocity S-wave (km/s) = 2.51539 6.17458 4.71448
# Velocity P-wave (km/s) = 5.46263 9.07643 7.49072
#
# Compressibility (1/GPa) = 0.02351951
#
# Stress axis : x y z
#
# Youngs Moduli (GPa) = 109.29454 42.56920 104.18680
#
# Poissons Ratio (x) = 0.04701 0.41461
# Poissons Ratio (y) = 0.12069 0.44550
# Poissons Ratio (z) = 0.43494 0.18202
#
# Static dielectric constant tensor:
#      x y z
#    x 1.753800 0.000000 0.000000 
#    y 0.000000 1.731440 0.000000 
#    z 0.000000 0.000000 1.683320 
# 
# From -- ./inp_files/72437.got.cif
#   From: 2010.05.17/outbox.cif.g08.bks.cpg/sg65_37_cif.got.tgz:72437.got - 2010.06.03 17:01:31.
