data_PCOD9485451
_publ_section_title
;
Structure prediction by ZEFSAII (Michael W. Deem and Ramdas Pophale) SiO2 
 PCOD9485451
Probable space group: C M M M
;
_chemical_formula_sum "Si O2"
_cell_formula_units_Z 80
_cell_length_a 8.788894
_cell_length_b 28.173314
_cell_length_c 19.222289
_cell_angle_alpha 90.000000
_cell_angle_beta 90.000000
_cell_angle_gamma 90.000000
_cell_volume 4759.674621
_symmetry_space_group_name_H-M "C M M M"
_symmetry_group_IT_number 65
_symmetry_cell_setting 'orthorhombic'
loop_
_space_group_symop_operation_xyz
x,y,z
-x,-y,z
x,-y,-z
-x,y,-z
-x,-y,-z
x,y,-z
-x,y,z
x,-y,z
1/2+x,1/2+y,z
1/2-x,1/2-y,z
1/2+x,1/2-y,-z
1/2-x,1/2+y,-z
1/2-x,1/2-y,-z
1/2+x,1/2+y,-z
1/2-x,1/2+y,z
1/2+x,1/2-y,z
loop_
_atom_site_type_symbol
_atom_site_label
_atom_site_fract_x
_atom_site_fract_y
_atom_site_fract_z
Si Si1 0.318149 0.302232 0.580413
Si Si2 0.317997 0.300508 0.841839
Si Si3 0.817254 0.352703 0.709940
Si Si4 0.316700 0.053152 0.789224
Si Si5 0.316977 0.396492 0.079016
O O1 0.282602 0.314222 0.500000
O O2 0.500000 0.300352 0.588179
O O3 0.250000 0.250000 0.594199
O O4 0.247992 0.338279 0.635597
O O5 0.500000 0.297257 0.835679
O O6 0.250000 0.250000 0.862549
O O7 0.248090 0.316858 0.768113
O O8 0.281117 0.342933 0.895536
O O9 0.770761 0.405340 0.735707
O O10 0.000000 0.349653 0.709604
O O11 0.500000 0.053526 0.791658
O O12 0.255166 0.068578 0.864554
O O13 0.265852 0.000000 0.771101
O O14 0.500000 0.401433 0.081617
O O15 0.266415 0.404539 0.000000
#
# Coordination Sequence:
#
# PCOD9485451 Si02
#       5
#    16  16  16  16  16
#     4  10  20  33  50  74 104 134 162 192 228 273
#     4  10  19  31  47  67  94 127 162 198 236 281
#     4  10  19  32  51  72  96 126 160 198 237 280
#     4   9  19  35  53  73  95 121 157 200 244 287
#     4   9  19  34  49  68  95 125 158 197 241 289
#
# _framework density 16.807870999999999
#
# number of rings (size 3 to 8) (size 9 to 14) (size 15 to 20)
#    0.000    2.400    0.000    2.400    0.000    4.400 
#    0.000    2.000    0.000    0.600    0.000    4.200 
#    0.000    0.000    0.000    0.000    0.000    0.000 
#
# Total GULP energy -223175.861148 kJ/mol
# GULP energy per Si atom -5579.396529 kJ/mol
# Density = 1.676962 g / cm^3
# Si number density = 16.807871 Si / 1000 Ang^3
#
#
#
# Elastic Constant Matrix: (Units=GPa)
#
#
# Indices 1 2 3 4 5 6 
#
# 1 32.9323 22.8255 31.5963 0.0000 0.0000 0.0000
# 2 22.8255 89.7094 50.2577 0.0000 0.0000 0.0000
# 3 31.5963 50.2577 116.1048 0.0000 0.0000 0.0000
# 4 0.0000 0.0000 0.0000 9.6194 0.0000 0.0000
# 5 0.0000 0.0000 0.0000 0.0000 24.7949 0.0000
# 6 0.0000 0.0000 0.0000 0.0000 0.0000 21.9047
#
#
#
# Elastic Compliance Matrix: (Units=1/GPa)
#
#
# Indices 1 2 3 4 5 6 
#
# 1 0.043286 -0.005828 -0.009257 0.000000 0.000000 0.000000
# 2 -0.005828 0.015500 -0.005124 0.000000 0.000000 0.000000
# 3 -0.009257 -0.005124 0.013350 0.000000 0.000000 0.000000
# 4 0.000000 0.000000 0.000000 0.103957 0.000000 0.000000
# 5 0.000000 0.000000 0.000000 0.000000 0.040331 0.000000
# 6 0.000000 0.000000 0.000000 0.000000 0.000000 0.045652
#
#
# Mechanical properties :
#
#
# Convention : Reuss Voigt Hill
#
# Bulk Modulus (GPa) = 31.52622 49.78950 40.65786
# Shear Modulus (GPa) = 15.97108 20.20160 18.08634
#
# Velocity S-wave (km/s) = 3.08590 3.47062 3.28390
# Velocity P-wave (km/s) = 5.61200 6.76368 6.21458
#
# Compressibility (1/GPa) = 0.03171963
#
# Stress axis : x y z
#
# Youngs Moduli (GPa) = 23.10216 64.51503 74.90664
#
# Poissons Ratio (x) = 0.37596 0.69342
# Poissons Ratio (y) = 0.13463 0.38380
# Poissons Ratio (z) = 0.21386 0.33055
#
# Static dielectric constant tensor:
#      x y z
#    x 1.563180 0.000000 0.000000 
#    y 0.000000 1.565770 0.000000 
#    z 0.000000 0.000000 1.551090 
# 
# From -- ./inp_files/49844.got.cif
#   From: 2010.05.17/outbox.cif.g08.bks.cpg/sg65_25_cif.got.tgz:49844.got - 2010.06.03 17:01:31.
