data_PCOD9485274
_publ_section_title
;
Structure prediction by ZEFSAII (Michael W. Deem and Ramdas Pophale) SiO2 
 PCOD9485274
Probable space group: C M M M
;
_chemical_formula_sum "Si O2"
_cell_formula_units_Z 104
_cell_length_a 22.811932
_cell_length_b 27.554269
_cell_length_c 7.876039
_cell_angle_alpha 90.000000
_cell_angle_beta 90.000000
_cell_angle_gamma 90.000000
_cell_volume 4950.611202
_symmetry_space_group_name_H-M "C M M M"
_symmetry_group_IT_number 65
_symmetry_cell_setting 'orthorhombic'
loop_
_space_group_symop_operation_xyz
x,y,z
-x,-y,z
x,-y,-z
-x,y,-z
-x,-y,-z
x,y,-z
-x,y,z
x,-y,z
1/2+x,1/2+y,z
1/2-x,1/2-y,z
1/2+x,1/2-y,-z
1/2-x,1/2+y,-z
1/2-x,1/2-y,-z
1/2+x,1/2+y,-z
1/2-x,1/2+y,z
1/2+x,1/2-y,z
loop_
_atom_site_type_symbol
_atom_site_label
_atom_site_fract_x
_atom_site_fract_y
_atom_site_fract_z
Si Si1 0.812771 0.691573 0.299253
Si Si2 0.568725 0.000000 0.292146
Si Si3 0.860704 0.406308 0.304816
Si Si4 0.182129 0.198023 0.801821
Si Si5 0.606266 0.444734 0.700963
Si Si6 0.261716 0.558123 0.194196
Si Si7 0.937348 0.845296 0.199100
O O1 0.823642 0.696791 0.500000
O O2 0.853842 0.648052 0.231087
O O3 0.821177 0.743754 0.214650
O O4 0.743321 0.680543 0.277786
O O5 0.600717 0.049520 0.230664
O O6 0.500000 0.000000 0.250257
O O7 0.574172 0.000000 0.500000
O O8 0.880138 0.400660 0.500000
O O9 0.793512 0.424045 0.299223
O O10 0.122303 0.176586 0.725822
O O11 0.185460 0.184889 0.000000
O O12 0.595262 0.444175 0.500000
O O13 0.597240 0.500000 0.762839
O O14 0.674175 0.431062 0.734508
O O15 0.568396 0.403239 0.786428
O O16 0.257848 0.500000 0.191207
O O17 0.256856 0.575860 0.000000
O O18 0.000000 0.829868 0.273406
O O19 0.937524 0.831924 0.000000
#
# Coordination Sequence:
#
# PCOD9485274 Si02
#       7
#    16   8  16  16  16  16  16
#     4  10  20  33  54  84 112 136 169 222 280 326
#     4   9  18  34  55  77 107 149 190 225 266 325
#     4  10  19  32  53  79 107 141 181 223 270 324
#     4  10  20  36  57  80 106 140 178 219 269 327
#     4  10  21  35  52  77 109 142 178 220 264 312
#     4  10  19  30  48  76 107 139 174 215 264 314
#     4  10  22  39  57  77 104 142 185 223 262 314
#
# _framework density 21.007505999999999
#
# number of rings (size 3 to 8) (size 9 to 14) (size 15 to 20)
#    0.000    2.077    0.769    3.692    0.000    7.077 
#    0.000    2.308    0.000    1.846    0.000    0.000 
#    0.000    0.000    0.000    0.000    0.000    0.000 
#
# Total GULP energy -290158.206282 kJ/mol
# GULP energy per Si atom -5579.965505 kJ/mol
# Density = 2.095969 g / cm^3
# Si number density = 21.007506 Si / 1000 Ang^3
#
#
#
# Elastic Constant Matrix: (Units=GPa)
#
#
# Indices 1 2 3 4 5 6 
#
# 1 96.1579 63.5389 -11.5876 0.0000 0.0000 0.0000
# 2 63.5389 106.9752 -7.2134 0.0000 0.0000 0.0000
# 3 -11.5876 -7.2134 32.4383 0.0000 0.0000 0.0000
# 4 0.0000 0.0000 0.0000 12.4914 0.0000 0.0000
# 5 0.0000 0.0000 0.0000 0.0000 9.6267 0.0000
# 6 0.0000 0.0000 0.0000 0.0000 0.0000 13.1240
#
#
#
# Elastic Compliance Matrix: (Units=1/GPa)
#
#
# Indices 1 2 3 4 5 6 
#
# 1 0.017621 -0.010195 0.004028 0.000000 0.000000 0.000000
# 2 -0.010195 0.015388 -0.000220 0.000000 0.000000 0.000000
# 3 0.004028 -0.000220 0.032218 0.000000 0.000000 0.000000
# 4 0.000000 0.000000 0.000000 0.080055 0.000000 0.000000
# 5 0.000000 0.000000 0.000000 0.000000 0.103878 0.000000
# 6 0.000000 0.000000 0.000000 0.000000 0.000000 0.076197
#
#
# Mechanical properties :
#
#
# Convention : Reuss Voigt Hill
#
# Bulk Modulus (GPa) = 19.06446 36.11633 27.59040
# Shear Modulus (GPa) = 14.06011 19.77063 16.91537
#
# Velocity S-wave (km/s) = 2.58987 3.07110 2.84069
# Velocity P-wave (km/s) = 4.24712 5.45939 4.89096
#
# Compressibility (1/GPa) = 0.05245361
#
# Stress axis : x y z
#
# Youngs Moduli (GPa) = 56.74915 64.98391 31.03889
#
# Poissons Ratio (x) = 0.66250 -0.12501
# Poissons Ratio (y) = 0.57855 0.00682
# Poissons Ratio (z) = -0.22857 0.01428
#
# Static dielectric constant tensor:
#      x y z
#    x 1.748910 0.000000 0.000000 
#    y 0.000000 1.805290 0.000000 
#    z 0.000000 0.000000 1.754820 
# 
# From -- ./inp_files/12415.got.cif
#   From: 2010.05.17/outbox.cif.g08.bks.cpg/sg65_7_cif.got.tgz:12415.got - 2010.06.03 17:01:31.
