data_PCOD9485468
_publ_section_title
;
Structure prediction by ZEFSAII (Michael W. Deem and Ramdas Pophale) SiO2 
 PCOD9485468
Probable space group: C M M M
;
_chemical_formula_sum "Si O2"
_cell_formula_units_Z 120
_cell_length_a 29.665886
_cell_length_b 8.186099
_cell_length_c 30.641681
_cell_angle_alpha 90.000000
_cell_angle_beta 90.000000
_cell_angle_gamma 90.000000
_cell_volume 7441.267262
_symmetry_space_group_name_H-M "C M M M"
_symmetry_group_IT_number 65
_symmetry_cell_setting 'orthorhombic'
loop_
_space_group_symop_operation_xyz
x,y,z
-x,-y,z
x,-y,-z
-x,y,-z
-x,-y,-z
x,y,-z
-x,y,z
x,-y,z
1/2+x,1/2+y,z
1/2-x,1/2-y,z
1/2+x,1/2-y,-z
1/2-x,1/2+y,-z
1/2-x,1/2-y,-z
1/2+x,1/2+y,-z
1/2-x,1/2+y,z
1/2+x,1/2-y,z
loop_
_atom_site_type_symbol
_atom_site_label
_atom_site_fract_x
_atom_site_fract_y
_atom_site_fract_z
Si Si1 0.448527 0.696911 0.132787
Si Si2 0.054974 0.500000 0.449398
Si Si3 0.200740 0.695526 0.185442
Si Si4 0.947936 0.306986 0.301155
Si Si5 0.894071 0.302424 0.951751
Si Si6 0.054757 0.181595 0.395679
Si Si7 0.893559 0.194677 0.782245
Si Si8 0.298901 0.196483 0.915649
O O1 0.500000 0.755683 0.135790
O O2 0.449066 0.500000 0.134575
O O3 0.425645 0.746675 0.087514
O O4 0.419048 0.755345 0.173944
O O5 0.068221 0.500000 0.500000
O O6 0.070023 0.334755 0.424834
O O7 0.000000 0.500000 0.447920
O O8 0.198372 0.500000 0.185411
O O9 0.250000 0.750000 0.201085
O O10 0.158873 0.763917 0.212247
O O11 0.196683 0.753208 0.134811
O O12 0.947591 0.500000 0.311021
O O13 0.933729 0.214148 0.345100
O O14 0.916605 0.270359 0.260182
O O15 0.000000 0.260867 0.290831
O O16 0.893952 0.500000 0.951583
O O17 0.842787 0.247374 0.941777
O O18 0.908169 0.247053 0.000000
O O19 0.000000 0.182990 0.397486
O O20 0.069691 0.000000 0.409393
O O21 0.899176 0.000000 0.779778
O O22 0.250000 0.250000 0.932375
O O23 0.299364 0.000000 0.915370
#
# Coordination Sequence:
#
# PCOD9485468 Si02
#       8
#    16   8  16  16  16  16  16  16
#     4  10  22  38  53  70  94 120 150 192 235 276
#     4   9  16  26  40  60  88 124 172 224 265 307
#     4  10  19  33  52  73  97 123 151 186 229 277
#     4  10  19  31  47  68  96 130 167 209 256 302
#     4  10  21  37  54  72  94 119 148 183 226 279
#     4   9  16  27  42  60  88 126 167 216 266 306
#     4  11  21  33  51  74  97 122 157 197 239 290
#     4   9  18  32  51  73  96 118 143 176 221 271
#
# _framework density 16.126286
#
# number of rings (size 3 to 8) (size 9 to 14) (size 15 to 20)
#    0.000    2.200    2.000    1.600    0.000    4.267 
#    0.000    2.667    0.000    0.000    0.000    0.000 
#    0.000    0.000    0.000    0.000    0.000    0.667 
#
# Total GULP energy -334733.793106 kJ/mol
# GULP energy per Si atom -5578.896552 kJ/mol
# Density = 1.608958 g / cm^3
# Si number density = 16.126286 Si / 1000 Ang^3
#
#
#
# Elastic Constant Matrix: (Units=GPa)
#
#
# Indices 1 2 3 4 5 6 
#
# 1 74.3584 13.9253 35.0734 0.0000 0.0000 0.0000
# 2 13.9253 55.5841 34.2893 0.0000 0.0000 0.0000
# 3 35.0734 34.2893 96.0168 0.0000 0.0000 0.0000
# 4 0.0000 0.0000 0.0000 15.3129 0.0000 0.0000
# 5 0.0000 0.0000 0.0000 0.0000 2.0914 0.0000
# 6 0.0000 0.0000 0.0000 0.0000 0.0000 19.6257
#
#
#
# Elastic Compliance Matrix: (Units=1/GPa)
#
#
# Indices 1 2 3 4 5 6 
#
# 1 0.016260 -0.000525 -0.005752 0.000000 0.000000 0.000000
# 2 -0.000525 0.023091 -0.008054 0.000000 0.000000 0.000000
# 3 -0.005752 -0.008054 0.015392 0.000000 0.000000 0.000000
# 4 0.000000 0.000000 0.000000 0.065304 0.000000 0.000000
# 5 0.000000 0.000000 0.000000 0.000000 0.478157 0.000000
# 6 0.000000 0.000000 0.000000 0.000000 0.000000 0.050954
#
#
# Mechanical properties :
#
#
# Convention : Reuss Voigt Hill
#
# Bulk Modulus (GPa) = 38.34335 43.61504 40.97920
# Shear Modulus (GPa) = 7.28316 16.91741 12.10029
#
# Velocity S-wave (km/s) = 2.12747 3.24243 2.74222
# Velocity P-wave (km/s) = 5.46474 6.41268 5.95759
#
# Compressibility (1/GPa) = 0.02608014
#
# Stress axis : x y z
#
# Youngs Moduli (GPa) = 61.50139 43.30692 64.96773
#
# Poissons Ratio (x) = 0.02275 0.37369
# Poissons Ratio (y) = 0.03230 0.52327
# Poissons Ratio (z) = 0.35375 0.34881
#
# Static dielectric constant tensor:
#      x y z
#    x 1.521600 0.000000 0.000000 
#    y 0.000000 1.571930 0.000000 
#    z 0.000000 0.000000 1.528500 
# 
# From -- ./inp_files/76154.got.cif
#   From: 2010.05.17/outbox.cif.g08.bks.cpg/sg65_39_cif.got.tgz:76154.got - 2010.06.03 17:01:31.
