data_PCOD9485756
_publ_section_title
;
Structure prediction by ZEFSAII (Michael W. Deem and Ramdas Pophale) SiO2 
 PCOD9485756
Probable space group: C M M M
;
_chemical_formula_sum "Si O2"
_cell_formula_units_Z 104
_cell_length_a 33.979522
_cell_length_b 22.324557
_cell_length_c 7.970031
_cell_angle_alpha 90.000000
_cell_angle_beta 90.000000
_cell_angle_gamma 90.000000
_cell_volume 6045.888388
_symmetry_space_group_name_H-M "C M M M"
_symmetry_group_IT_number 65
_symmetry_cell_setting 'orthorhombic'
loop_
_space_group_symop_operation_xyz
x,y,z
-x,-y,z
x,-y,-z
-x,y,-z
-x,-y,-z
x,y,-z
-x,y,z
x,-y,z
1/2+x,1/2+y,z
1/2-x,1/2-y,z
1/2+x,1/2-y,-z
1/2-x,1/2+y,-z
1/2-x,1/2-y,-z
1/2+x,1/2+y,-z
1/2-x,1/2+y,z
1/2+x,1/2-y,z
loop_
_atom_site_type_symbol
_atom_site_label
_atom_site_fract_x
_atom_site_fract_y
_atom_site_fract_z
Si Si1 0.955353 0.720711 0.201642
Si Si2 0.401917 0.888204 0.301294
Si Si3 0.879793 0.928278 0.812333
Si Si4 0.263962 0.072762 0.500000
Si Si5 0.955380 0.141586 0.300537
Si Si6 0.181588 0.571669 0.189114
Si Si7 0.326090 0.427075 0.500000
Si Si8 0.044956 0.500000 0.295228
O O1 0.923753 0.674073 0.269419
O O2 0.948904 0.788053 0.265722
O O3 0.000000 0.702788 0.252630
O O4 0.953745 0.721171 0.000000
O O5 0.395249 0.896519 0.500000
O O6 0.359987 0.895685 0.213646
O O7 0.431113 0.941180 0.242744
O O8 0.921644 0.896768 0.786017
O O9 0.850076 0.908648 0.665790
O O10 0.884764 0.000000 0.797213
O O11 0.864899 0.915452 0.000000
O O12 0.287989 0.090311 0.666466
O O13 0.218948 0.093912 0.500000
O O14 0.262770 0.000000 0.500000
O O15 0.953320 0.130986 0.500000
O O16 0.000000 0.127465 0.243566
O O17 0.174256 0.500000 0.210271
O O18 0.196517 0.580921 0.000000
O O19 0.325238 0.500000 0.500000
O O20 0.043907 0.500000 0.500000
O O21 0.000000 0.500000 0.235911
#
# Coordination Sequence:
#
# PCOD9485756 Si02
#       8
#    16  16  16   8  16  16   8   8
#     4  10  21  35  49  70 102 138 181 229 268 307
#     4  11  19  31  50  69  99 137 178 224 270 318
#     4  10  20  34  55  83 115 147 176 210 255 305
#     4   9  18  32  52  74 104 138 169 210 267 322
#     4  10  20  35  55  78 106 143 185 222 257 300
#     4  10  19  31  49  74 102 134 174 219 270 323
#     4   9  18  34  53  79 111 141 173 211 255 316
#     4   9  18  28  43  67  95 134 179 221 268 321
#
# _framework density 17.201774
#
# number of rings (size 3 to 8) (size 9 to 14) (size 15 to 20)
#    0.000    2.077    2.308    1.846    0.000    3.385 
#    0.000    4.615    0.000    1.846    0.000    2.154 
#    0.000    3.692    0.000    0.000    0.000    0.000 
#
# Total GULP energy -290178.846122 kJ/mol
# GULP energy per Si atom -5580.362425 kJ/mol
# Density = 1.716262 g / cm^3
# Si number density = 17.201774 Si / 1000 Ang^3
#
#
#
# Elastic Constant Matrix: (Units=GPa)
#
#
# Indices 1 2 3 4 5 6 
#
# 1 133.3633 34.6073 62.5117 0.0000 0.0000 0.0000
# 2 34.6073 22.4110 24.3666 0.0000 0.0000 0.0000
# 3 62.5117 24.3666 104.8736 0.0000 0.0000 0.0000
# 4 0.0000 0.0000 0.0000 18.4434 0.0000 0.0000
# 5 0.0000 0.0000 0.0000 0.0000 10.1713 0.0000
# 6 0.0000 0.0000 0.0000 0.0000 0.0000 5.8711
#
#
#
# Elastic Compliance Matrix: (Units=1/GPa)
#
#
# Indices 1 2 3 4 5 6 
#
# 1 0.013885 -0.016648 -0.004408 0.000000 0.000000 0.000000
# 2 -0.016648 0.079664 -0.008586 0.000000 0.000000 0.000000
# 3 -0.004408 -0.008586 0.014158 0.000000 0.000000 0.000000
# 4 0.000000 0.000000 0.000000 0.054220 0.000000 0.000000
# 5 0.000000 0.000000 0.000000 0.000000 0.098316 0.000000
# 6 0.000000 0.000000 0.000000 0.000000 0.000000 0.170327
#
#
# Mechanical properties :
#
#
# Convention : Reuss Voigt Hill
#
# Bulk Modulus (GPa) = 20.65163 55.95765 38.30464
# Shear Modulus (GPa) = 9.88152 16.17464 13.02808
#
# Velocity S-wave (km/s) = 2.39936 3.06974 2.75502
# Velocity P-wave (km/s) = 4.43931 6.72051 5.69529
#
# Compressibility (1/GPa) = 0.04842234
#
# Stress axis : x y z
#
# Youngs Moduli (GPa) = 72.02194 12.55265 70.63274
#
# Poissons Ratio (x) = 0.20898 0.31136
# Poissons Ratio (y) = 1.19902 0.60646
# Poissons Ratio (z) = 0.31748 0.10778
#
# Static dielectric constant tensor:
#      x y z
#    x 1.562520 0.000000 0.000000 
#    y 0.000000 1.551060 0.000000 
#    z 0.000000 0.000000 1.613780 
# 
# From -- ./inp_files/18724.got.cif
#   From: 2010.05.17/outbox.cif.g08.bks.cpg/sg65_10_cif.got.tgz:18724.got - 2010.06.03 17:01:31.
