data_PCOD9485590
_publ_section_title
;
Structure prediction by ZEFSAII (Michael W. Deem and Ramdas Pophale) SiO2 
 PCOD9485590
Probable space group: C M M M
;
_chemical_formula_sum "Si O2"
_cell_formula_units_Z 72
_cell_length_a 13.253881
_cell_length_b 30.243950
_cell_length_c 7.340745
_cell_angle_alpha 90.000000
_cell_angle_beta 90.000000
_cell_angle_gamma 90.000000
_cell_volume 2942.535536
_symmetry_space_group_name_H-M "C M M M"
_symmetry_group_IT_number 65
_symmetry_cell_setting 'orthorhombic'
loop_
_space_group_symop_operation_xyz
x,y,z
-x,-y,z
x,-y,-z
-x,y,-z
-x,-y,-z
x,y,-z
-x,y,z
x,-y,z
1/2+x,1/2+y,z
1/2-x,1/2-y,z
1/2+x,1/2-y,-z
1/2-x,1/2+y,-z
1/2-x,1/2-y,-z
1/2+x,1/2+y,-z
1/2-x,1/2+y,z
1/2+x,1/2-y,z
loop_
_atom_site_type_symbol
_atom_site_label
_atom_site_fract_x
_atom_site_fract_y
_atom_site_fract_z
Si Si1 0.637761 0.756174 0.218756
Si Si2 0.500000 0.322459 0.219631
Si Si3 0.608666 0.857538 0.288788
Si Si4 0.227473 0.077565 0.278676
Si Si5 0.000000 0.923517 0.704457
Si Si6 0.382826 0.000000 0.279465
O O1 0.750000 0.750000 0.274635
O O2 0.588706 0.710277 0.275496
O O3 0.605946 0.804524 0.281826
O O4 0.625970 0.757842 0.000000
O O5 0.500000 0.370257 0.303350
O O6 0.500000 0.328722 0.000000
O O7 0.606804 0.871338 0.500000
O O8 0.500000 0.873138 0.209891
O O9 0.715089 0.877205 0.218239
O O10 0.216348 0.078213 0.500000
O O11 0.312612 0.041613 0.228801
O O12 0.112569 0.067387 0.213689
O O13 0.000000 0.942955 0.500000
O O14 0.500000 0.000000 0.216427
O O15 0.388062 0.000000 0.500000
#
# Coordination Sequence:
#
# PCOD9485590 Si02
#       6
#    16   8  16  16   8   8
#     4  10  20  33  49  69  95 129 170 214 255 299
#     4  10  20  34  49  69  99 133 175 214 245 300
#     4  10  19  31  48  72 100 129 166 211 256 302
#     4   9  18  31  48  74 105 136 170 208 253 308
#     4  10  20  33  50  74 106 138 169 211 258 300
#     4   9  16  29  51  77 107 139 166 200 254 311
#
# _framework density 24.468693999999999
#
# number of rings (size 3 to 8) (size 9 to 14) (size 15 to 20)
#    0.000    2.333    1.111    2.000    0.000    4.444 
#    0.000    2.222    0.000    0.000    0.000    3.889 
#    0.000    5.333    0.000    0.000    0.000    0.000 
#
# Total GULP energy -200624.430418 kJ/mol
# GULP energy per Si atom -5572.900845 kJ/mol
# Density = 2.441300 g / cm^3
# Si number density = 24.468694 Si / 1000 Ang^3
#
#
#
# Elastic Constant Matrix: (Units=GPa)
#
#
# Indices 1 2 3 4 5 6 
#
# 1 255.8171 43.4107 4.0727 0.0000 0.0000 0.0000
# 2 43.4107 87.9648 -8.6298 0.0000 0.0000 0.0000
# 3 4.0727 -8.6298 90.4744 0.0000 0.0000 0.0000
# 4 0.0000 0.0000 0.0000 13.4720 0.0000 0.0000
# 5 0.0000 0.0000 0.0000 0.0000 60.8171 0.0000
# 6 0.0000 0.0000 0.0000 0.0000 0.0000 47.6613
#
#
#
# Elastic Compliance Matrix: (Units=1/GPa)
#
#
# Indices 1 2 3 4 5 6 
#
# 1 0.004280 -0.002151 -0.000398 0.000000 0.000000 0.000000
# 2 -0.002151 0.012557 0.001295 0.000000 0.000000 0.000000
# 3 -0.000398 0.001295 0.011194 0.000000 0.000000 0.000000
# 4 0.000000 0.000000 0.000000 0.074228 0.000000 0.000000
# 5 0.000000 0.000000 0.000000 0.000000 0.016443 0.000000
# 6 0.000000 0.000000 0.000000 0.000000 0.000000 0.020981
#
#
# Mechanical properties :
#
#
# Convention : Reuss Voigt Hill
#
# Bulk Modulus (GPa) = 39.18175 56.88484 48.03329
# Shear Modulus (GPa) = 33.17839 50.75026 41.96432
#
# Velocity S-wave (km/s) = 3.68632 4.55916 4.14577
# Velocity P-wave (km/s) = 5.84520 7.14234 6.52608
#
# Compressibility (1/GPa) = 0.02552209
#
# Stress axis : x y z
#
# Youngs Moduli (GPa) = 233.61935 79.63731 89.33164
#
# Poissons Ratio (x) = 0.17134 0.03554
# Poissons Ratio (y) = 0.50262 -0.11565
# Poissons Ratio (z) = 0.09296 -0.10310
#
# Static dielectric constant tensor:
#      x y z
#    x 2.042770 0.000000 0.000000 
#    y 0.000000 1.912460 0.000000 
#    z 0.000000 0.000000 1.968800 
# 
# From -- ./inp_files/22784.got.cif
#   From: 2010.05.17/outbox.cif.g08.bks.cpg/sg65_12_cif.got.tgz:22784.got - 2010.06.03 17:01:31.
