data_PCOD9485395
_publ_section_title
;
Structure prediction by ZEFSAII (Michael W. Deem and Ramdas Pophale) SiO2 
 PCOD9485395
Probable space group: C M M M
;
_chemical_formula_sum "Si O2"
_cell_formula_units_Z 120
_cell_length_a 8.334152
_cell_length_b 28.868001
_cell_length_c 27.373291
_cell_angle_alpha 90.000000
_cell_angle_beta 90.000000
_cell_angle_gamma 90.000000
_cell_volume 6585.748520
_symmetry_space_group_name_H-M "C M M M"
_symmetry_group_IT_number 65
_symmetry_cell_setting 'orthorhombic'
loop_
_space_group_symop_operation_xyz
x,y,z
-x,-y,z
x,-y,-z
-x,y,-z
-x,-y,-z
x,y,-z
-x,y,z
x,-y,z
1/2+x,1/2+y,z
1/2-x,1/2-y,z
1/2+x,1/2-y,-z
1/2-x,1/2+y,-z
1/2-x,1/2-y,-z
1/2+x,1/2+y,-z
1/2-x,1/2+y,z
1/2+x,1/2-y,z
loop_
_atom_site_type_symbol
_atom_site_label
_atom_site_fract_x
_atom_site_fract_y
_atom_site_fract_z
Si Si1 0.806785 0.947942 0.801954
Si Si2 0.308739 0.198164 0.755491
Si Si3 0.803956 0.395282 0.598005
Si Si4 0.805446 0.602799 0.706406
Si Si5 0.307996 0.646158 0.149208
Si Si6 0.807872 0.302064 0.055542
Si Si7 0.307191 0.200524 0.443629
Si Si8 0.804121 0.553248 0.500000
O O1 0.759353 0.931375 0.747729
O O2 0.750457 0.905698 0.836643
O O3 0.000000 0.949073 0.805108
O O4 0.746964 0.000000 0.812291
O O5 0.500000 0.199228 0.753667
O O6 0.250000 0.250000 0.744360
O O7 0.255141 0.155572 0.720448
O O8 0.256180 0.181473 0.809508
O O9 0.752506 0.410267 0.651799
O O10 0.754582 0.342340 0.588717
O O11 0.749551 0.423105 0.550257
O O12 0.000000 0.397018 0.597850
O O13 0.000000 0.601665 0.708097
O O14 0.500000 0.646699 0.152275
O O15 0.255646 0.663113 0.096211
O O16 0.750000 0.250000 0.067092
O O17 0.000000 0.302414 0.056519
O O18 0.754133 0.312697 0.000000
O O19 0.251451 0.194667 0.500000
O O20 0.500000 0.200188 0.444882
O O21 0.250000 0.250000 0.425536
O O22 0.759172 0.500000 0.500000
O O23 0.000000 0.556544 0.500000
#
# Coordination Sequence:
#
# PCOD9485395 Si02
#       8
#    16  16  16  16  16  16  16   8
#     4   9  19  36  55  74  97 126 162 204 252 303
#     4  10  19  31  46  67  97 131 164 199 240 289
#     4   9  16  29  45  65  94 122 148 187 236 281
#     4   9  19  32  48  71  97 123 156 198 244 291
#     4  10  19  32  52  75  99 131 170 210 249 290
#     4  10  20  33  50  75 109 145 177 208 243 285
#     4   9  16  27  44  64  88 118 149 183 223 268
#     4   9  16  26  43  66  89 115 147 183 228 283
#
# _framework density 18.221164000000002
#
# number of rings (size 3 to 8) (size 9 to 14) (size 15 to 20)
#    0.000    2.600    0.667    1.600    0.000    3.200 
#    0.000    2.000    0.000    0.400    0.000    2.800 
#    0.000    2.133    0.000    0.000    0.000    0.000 
#
# Total GULP energy -334545.184618 kJ/mol
# GULP energy per Si atom -5575.753077 kJ/mol
# Density = 1.817969 g / cm^3
# Si number density = 18.221164 Si / 1000 Ang^3
#
#
#
# Elastic Constant Matrix: (Units=GPa)
#
#
# Indices 1 2 3 4 5 6 
#
# 1 9.3793 8.6508 5.6933 0.0000 0.0000 0.0000
# 2 8.6508 104.5468 60.1444 0.0000 0.0000 0.0000
# 3 5.6933 60.1444 119.8134 0.0000 0.0000 0.0000
# 4 0.0000 0.0000 0.0000 9.8353 0.0000 0.0000
# 5 0.0000 0.0000 0.0000 0.0000 12.1357 0.0000
# 6 0.0000 0.0000 0.0000 0.0000 0.0000 14.5961
#
#
#
# Elastic Compliance Matrix: (Units=1/GPa)
#
#
# Indices 1 2 3 4 5 6 
#
# 1 0.115508 -0.008999 -0.000971 0.000000 0.000000 0.000000
# 2 -0.008999 0.014150 -0.006675 0.000000 0.000000 0.000000
# 3 -0.000971 -0.006675 0.011743 0.000000 0.000000 0.000000
# 4 0.000000 0.000000 0.000000 0.101675 0.000000 0.000000
# 5 0.000000 0.000000 0.000000 0.000000 0.082401 0.000000
# 6 0.000000 0.000000 0.000000 0.000000 0.000000 0.068512
#
#
# Mechanical properties :
#
#
# Convention : Reuss Voigt Hill
#
# Bulk Modulus (GPa) = 9.24988 42.52406 25.88697
# Shear Modulus (GPa) = 10.79174 17.93014 14.36094
#
# Velocity S-wave (km/s) = 2.43629 3.14033 2.81044
# Velocity P-wave (km/s) = 3.60575 6.04461 4.97688
#
# Compressibility (1/GPa) = 0.10810953
#
# Stress axis : x y z
#
# Youngs Moduli (GPa) = 8.65743 70.67124 85.15387
#
# Poissons Ratio (x) = 0.63597 0.08272
# Poissons Ratio (y) = 0.07791 0.56844
# Poissons Ratio (z) = 0.00841 0.47176
#
# Static dielectric constant tensor:
#      x y z
#    x 1.634970 0.000000 0.000000 
#    y 0.000000 1.627770 0.000000 
#    z 0.000000 0.000000 1.629900 
# 
# From -- ./inp_files/73944.got.cif
#   From: 2010.05.17/outbox.cif.g08.bks.cpg/sg65_37_cif.got.tgz:73944.got - 2010.06.03 17:01:31.
