data_PCOD9485483
_publ_section_title
;
Structure prediction by ZEFSAII (Michael W. Deem and Ramdas Pophale) SiO2 
 PCOD9485483
Probable space group: C M M M
;
_chemical_formula_sum "Si O2"
_cell_formula_units_Z 96
_cell_length_a 13.948375
_cell_length_b 23.179917
_cell_length_c 17.550328
_cell_angle_alpha 90.000000
_cell_angle_beta 90.000000
_cell_angle_gamma 90.000000
_cell_volume 5674.410217
_symmetry_space_group_name_H-M "C M M M"
_symmetry_group_IT_number 65
_symmetry_cell_setting 'orthorhombic'
loop_
_space_group_symop_operation_xyz
x,y,z
-x,-y,z
x,-y,-z
-x,y,-z
-x,-y,-z
x,y,-z
-x,y,z
x,-y,z
1/2+x,1/2+y,z
1/2-x,1/2-y,z
1/2+x,1/2-y,-z
1/2-x,1/2+y,-z
1/2-x,1/2-y,-z
1/2+x,1/2+y,-z
1/2-x,1/2+y,z
1/2+x,1/2-y,z
loop_
_atom_site_type_symbol
_atom_site_label
_atom_site_fract_x
_atom_site_fract_y
_atom_site_fract_z
Si Si1 0.891011 0.569689 0.586386
Si Si2 0.383954 0.730683 0.087922
Si Si3 0.884285 0.435744 0.000000
Si Si4 0.885487 0.888080 0.163456
Si Si5 0.107178 0.932025 0.000000
Si Si6 0.778346 0.430904 0.265037
Si Si7 0.385066 0.143644 0.141993
O O1 0.872307 0.590171 0.500000
O O2 0.894429 0.500000 0.583518
O O3 0.809562 0.582767 0.648365
O O4 0.000000 0.588229 0.608709
O O5 0.500000 0.734052 0.083146
O O6 0.364847 0.679191 0.146921
O O7 0.350120 0.792416 0.119431
O O8 0.351716 0.719722 0.000000
O O9 0.859773 0.398713 0.073002
O O10 0.842689 0.500000 0.000000
O O11 0.000000 0.440656 0.000000
O O12 0.853273 0.915421 0.082359
O O13 0.826950 0.915073 0.233259
O O14 0.000000 0.896830 0.172262
O O15 0.000000 0.904326 0.000000
O O16 0.099133 0.000000 0.000000
O O17 0.795380 0.500000 0.252378
O O18 0.844215 0.388545 0.214968
O O19 0.500000 0.146763 0.148013
#
# Coordination Sequence:
#
# PCOD9485483 Si02
#       7
#    16  16   8  16   8  16  16
#     4   8  15  31  55  79 103 131 159 189 234 300
#     4   9  16  32  53  67  87 129 181 226 257 283
#     4   9  16  26  40  59  93 137 162 180 234 312
#     4  10  20  34  50  68  93 131 179 226 261 283
#     4   9  16  28  46  63  85 123 168 214 260 292
#     4  11  22  32  47  75 105 130 158 199 252 306
#     4  10  19  31  47  69  97 129 164 204 251 300
#
# _framework density 16.918057000000001
#
# number of rings (size 3 to 8) (size 9 to 14) (size 15 to 20)
#    0.000    2.500    1.667    2.000    0.000    4.000 
#    0.000    2.500    0.000    0.500    0.000    4.667 
#    0.000    4.000    0.000    0.000    0.000    0.000 
#
# Total GULP energy -267453.252143 kJ/mol
# GULP energy per Si atom -5571.942753 kJ/mol
# Density = 1.687955 g / cm^3
# Si number density = 16.918057 Si / 1000 Ang^3
#
#
#
# Elastic Constant Matrix: (Units=GPa)
#
#
# Indices 1 2 3 4 5 6 
#
# 1 89.9544 7.2642 44.9343 0.0000 0.0000 0.0000
# 2 7.2642 95.2800 34.3487 0.0000 0.0000 0.0000
# 3 44.9343 34.3487 111.8807 0.0000 0.0000 0.0000
# 4 0.0000 0.0000 0.0000 -26.2774 0.0000 0.0000
# 5 0.0000 0.0000 0.0000 0.0000 27.6661 0.0000
# 6 0.0000 0.0000 0.0000 0.0000 0.0000 14.0514
#
#
#
# Elastic Compliance Matrix: (Units=1/GPa)
#
#
# Indices 1 2 3 4 5 6 
#
# 1 0.014005 0.001079 -0.005956 0.000000 0.000000 0.000000
# 2 0.001079 0.011885 -0.004082 0.000000 0.000000 0.000000
# 3 -0.005956 -0.004082 0.012584 0.000000 0.000000 0.000000
# 4 0.000000 0.000000 0.000000 -0.038056 0.000000 0.000000
# 5 0.000000 0.000000 0.000000 0.000000 0.036145 0.000000
# 6 0.000000 0.000000 0.000000 0.000000 0.000000 0.071167
#
#
# Mechanical properties :
#
#
# Convention : Reuss Voigt Hill
#
# Bulk Modulus (GPa) = 48.64953 52.24552 50.44752
# Shear Modulus (GPa) = 37.73588 17.12588 27.43088
#
# Velocity S-wave (km/s) = 4.72795 3.18509 4.03102
# Velocity P-wave (km/s) = 7.65657 6.66896 7.17977
#
# Compressibility (1/GPa) = 0.02055518
#
# Stress axis : x y z
#
# Youngs Moduli (GPa) = 71.40418 84.14131 79.46888
#
# Poissons Ratio (x) = -0.09083 0.47333
# Poissons Ratio (y) = -0.07708 0.32442
# Poissons Ratio (z) = 0.42529 0.34349
#
# Static dielectric constant tensor:
#      x y z
#    x 1.671940 0.000000 0.000000 
#    y 0.000000 1.584670 0.000000 
#    z 0.000000 0.000000 1.558930 
# 
# From -- ./inp_files/40689.got.cif
#   From: 2010.05.17/outbox.cif.g08.bks.cpg/sg65_21_cif.got.tgz:40689.got - 2010.06.03 17:01:31.
