data_PCOD9485857
_publ_section_title
;
Structure prediction by ZEFSAII (Michael W. Deem and Ramdas Pophale) SiO2 
 PCOD9485857
Probable space group: C M M M
;
_chemical_formula_sum "Si O2"
_cell_formula_units_Z 72
_cell_length_a 18.896251
_cell_length_b 8.479927
_cell_length_c 24.087543
_cell_angle_alpha 90.000000
_cell_angle_beta 90.000000
_cell_angle_gamma 90.000000
_cell_volume 3859.759685
_symmetry_space_group_name_H-M "C M M M"
_symmetry_group_IT_number 65
_symmetry_cell_setting 'orthorhombic'
loop_
_space_group_symop_operation_xyz
x,y,z
-x,-y,z
x,-y,-z
-x,y,-z
-x,-y,-z
x,y,-z
-x,y,z
x,-y,z
1/2+x,1/2+y,z
1/2-x,1/2-y,z
1/2+x,1/2-y,-z
1/2-x,1/2+y,-z
1/2-x,1/2-y,-z
1/2+x,1/2+y,-z
1/2-x,1/2+y,z
1/2+x,1/2-y,z
loop_
_atom_site_type_symbol
_atom_site_label
_atom_site_fract_x
_atom_site_fract_y
_atom_site_fract_z
Si Si1 0.830306 0.812313 0.000000
Si Si2 0.330294 0.189138 0.213303
Si Si3 0.329906 0.689455 0.332644
Si Si4 0.082217 0.192047 0.561184
Si Si5 0.581907 0.190935 0.105294
O O1 0.750000 0.750000 0.000000
O O2 0.872587 0.753189 0.946050
O O3 0.828234 0.000000 0.000000
O O4 0.250000 0.250000 0.204937
O O5 0.356385 0.250566 0.272962
O O6 0.380300 0.239278 0.162660
O O7 0.327900 0.000000 0.214913
O O8 0.330086 0.500000 0.331838
O O9 0.250000 0.750000 0.338028
O O10 0.374150 0.746495 0.385689
O O11 0.108265 0.243009 0.500000
O O12 0.000000 0.237199 0.566047
O O13 0.084405 0.000000 0.561499
O O14 0.500000 0.242157 0.102438
O O15 0.582611 0.000000 0.103230
#
# Coordination Sequence:
#
# PCOD9485857 Si02
#       5
#     8  16  16  16  16
#     4  12  25  40  61  87 113 145 183 222 265 312
#     4  10  20  35  55  77 104 140 178 215 258 310
#     4  10  19  31  50  75 102 133 169 213 262 308
#     4   8  15  29  48  70  97 130 169 211 255 306
#     4  10  22  40  60  83 113 146 178 217 267 318
#
# _framework density 18.654012000000002
#
# number of rings (size 3 to 8) (size 9 to 14) (size 15 to 20)
#    0.000    2.222    0.000    5.333    0.000    6.667 
#    0.000    0.000    0.000    4.000    0.000    6.222 
#    0.000    0.000    0.000    0.000    0.000    0.000 
#
# Total GULP energy -200940.501746 kJ/mol
# GULP energy per Si atom -5581.680604 kJ/mol
# Density = 1.861156 g / cm^3
# Si number density = 18.654012 Si / 1000 Ang^3
#
#
#
# Elastic Constant Matrix: (Units=GPa)
#
#
# Indices 1 2 3 4 5 6 
#
# 1 117.3642 25.2549 118.2600 0.0000 0.0000 0.0000
# 2 25.2549 33.1187 37.7930 0.0000 0.0000 0.0000
# 3 118.2600 37.7930 233.2017 0.0000 0.0000 0.0000
# 4 0.0000 0.0000 0.0000 17.6118 0.0000 0.0000
# 5 0.0000 0.0000 0.0000 0.0000 41.1306 0.0000
# 6 0.0000 0.0000 0.0000 0.0000 0.0000 16.9772
#
#
#
# Elastic Compliance Matrix: (Units=1/GPa)
#
#
# Indices 1 2 3 4 5 6 
#
# 1 0.017851 -0.004027 -0.008400 0.000000 0.000000 0.000000
# 2 -0.004027 0.037954 -0.004109 0.000000 0.000000 0.000000
# 3 -0.008400 -0.004109 0.009214 0.000000 0.000000 0.000000
# 4 0.000000 0.000000 0.000000 0.056780 0.000000 0.000000
# 5 0.000000 0.000000 0.000000 0.000000 0.024313 0.000000
# 6 0.000000 0.000000 0.000000 0.000000 0.000000 0.058902
#
#
# Mechanical properties :
#
#
# Convention : Reuss Voigt Hill
#
# Bulk Modulus (GPa) = 31.30150 82.92227 57.11189
# Shear Modulus (GPa) = 20.10179 28.63571 24.36875
#
# Velocity S-wave (km/s) = 3.28626 3.92228 3.61827
# Velocity P-wave (km/s) = 5.58711 8.06608 6.93821
#
# Compressibility (1/GPa) = 0.03194735
#
# Stress axis : x y z
#
# Youngs Moduli (GPa) = 56.01915 26.34785 108.53391
#
# Poissons Ratio (x) = 0.10610 0.91167
# Poissons Ratio (y) = 0.22559 0.44593
# Poissons Ratio (z) = 0.47056 0.10826
#
# Static dielectric constant tensor:
#      x y z
#    x 1.613560 0.000000 0.000000 
#    y 0.000000 1.645540 0.000000 
#    z 0.000000 0.000000 1.650750 
# 
# From -- ./inp_files/70314.got.cif
#   From: 2010.05.17/outbox.cif.g08.bks.cpg/sg65_36_cif.got.tgz:70314.got - 2010.06.03 17:01:31.
