data_PCOD9485228
_publ_section_title
;
Structure prediction by ZEFSAII (Michael W. Deem and Ramdas Pophale) SiO2 
 PCOD9485228
Probable space group: C M M M
;
_chemical_formula_sum "Si O2"
_cell_formula_units_Z 104
_cell_length_a 24.206992
_cell_length_b 16.964987
_cell_length_c 13.426467
_cell_angle_alpha 90.000000
_cell_angle_beta 90.000000
_cell_angle_gamma 90.000000
_cell_volume 5513.864719
_symmetry_space_group_name_H-M "C M M M"
_symmetry_group_IT_number 65
_symmetry_cell_setting 'orthorhombic'
loop_
_space_group_symop_operation_xyz
x,y,z
-x,-y,z
x,-y,-z
-x,y,-z
-x,-y,-z
x,y,-z
-x,y,z
x,-y,z
1/2+x,1/2+y,z
1/2-x,1/2-y,z
1/2+x,1/2-y,-z
1/2-x,1/2+y,-z
1/2-x,1/2-y,-z
1/2+x,1/2+y,-z
1/2-x,1/2+y,z
1/2+x,1/2-y,z
loop_
_atom_site_type_symbol
_atom_site_label
_atom_site_fract_x
_atom_site_fract_y
_atom_site_fract_z
Si Si1 0.658411 0.407461 0.315982
Si Si2 0.172886 0.595435 0.805514
Si Si3 0.209692 0.904174 0.891072
Si Si4 0.563747 0.854756 0.755518
Si Si5 0.434277 0.000000 0.390511
Si Si6 0.269635 0.840113 0.611816
Si Si7 0.937014 0.205223 0.386634
O O1 0.646444 0.500000 0.313035
O O2 0.673741 0.378543 0.203855
O O3 0.714311 0.391968 0.377427
O O4 0.608421 0.359626 0.362651
O O5 0.169788 0.500000 0.803412
O O6 0.226099 0.616675 0.872299
O O7 0.113708 0.632609 0.832747
O O8 0.189807 0.629918 0.697257
O O9 0.207607 0.000000 0.889706
O O10 0.191417 0.876875 0.000000
O O11 0.500000 0.863551 0.790638
O O12 0.576011 0.923506 0.675371
O O13 0.567951 0.773996 0.694464
O O14 0.500000 0.000000 0.403710
O O15 0.407911 0.000000 0.500000
O O16 0.292423 0.845196 0.500000
O O17 0.250000 0.750000 0.629023
O O18 0.929044 0.235498 0.500000
O O19 0.000000 0.174614 0.381146
#
# Coordination Sequence:
#
# PCOD9485228 Si02
#       7
#    16  16  16  16   8  16  16
#     4  10  20  34  54  77 101 131 171 214 257 307
#     4  10  19  30  47  75 100 124 165 210 254 304
#     4   8  16  33  56  78 100 126 161 211 266 317
#     4  10  19  32  48  68 101 141 176 213 252 296
#     4   9  16  26  42  64  91 129 175 213 241 278
#     4  10  20  32  46  66  97 136 169 202 249 301
#     4  10  21  35  51  73 104 144 182 211 247 297
#
# _framework density 18.861543000000001
#
# number of rings (size 3 to 8) (size 9 to 14) (size 15 to 20)
#    0.000    2.385    0.769    3.231    0.000    6.769 
#    0.000    0.769    0.000   17.538    0.000    6.462 
#    0.000    0.000    0.000    0.000    0.000    0.000 
#
# Total GULP energy -289940.129802 kJ/mol
# GULP energy per Si atom -5575.771727 kJ/mol
# Density = 1.881861 g / cm^3
# Si number density = 18.861543 Si / 1000 Ang^3
#
#
#
# Elastic Constant Matrix: (Units=GPa)
#
#
# Indices 1 2 3 4 5 6 
#
# 1 80.0034 15.7934 -7.6512 0.0000 0.0000 0.0000
# 2 15.7934 34.4817 -8.4103 0.0000 0.0000 0.0000
# 3 -7.6512 -8.4103 38.1519 0.0000 0.0000 0.0000
# 4 0.0000 0.0000 0.0000 9.2345 0.0000 0.0000
# 5 0.0000 0.0000 0.0000 0.0000 8.6449 0.0000
# 6 0.0000 0.0000 0.0000 0.0000 0.0000 14.0097
#
#
#
# Elastic Compliance Matrix: (Units=1/GPa)
#
#
# Indices 1 2 3 4 5 6 
#
# 1 0.013818 -0.005974 0.001454 0.000000 0.000000 0.000000
# 2 -0.005974 0.033232 0.006128 0.000000 0.000000 0.000000
# 3 0.001454 0.006128 0.027853 0.000000 0.000000 0.000000
# 4 0.000000 0.000000 0.000000 0.108290 0.000000 0.000000
# 5 0.000000 0.000000 0.000000 0.000000 0.115675 0.000000
# 6 0.000000 0.000000 0.000000 0.000000 0.000000 0.071379
#
#
# Mechanical properties :
#
#
# Convention : Reuss Voigt Hill
#
# Bulk Modulus (GPa) = 12.80114 16.90010 14.85062
# Shear Modulus (GPa) = 12.72034 16.57149 14.64592
#
# Velocity S-wave (km/s) = 2.59975 2.96731 2.78959
# Velocity P-wave (km/s) = 3.97659 4.55186 4.27391
#
# Compressibility (1/GPa) = 0.07811806
#
# Stress axis : x y z
#
# Youngs Moduli (GPa) = 72.36985 30.09166 35.90228
#
# Poissons Ratio (x) = 0.17978 -0.05221
# Poissons Ratio (y) = 0.43236 -0.21999
# Poissons Ratio (z) = -0.10524 -0.18439
#
# Static dielectric constant tensor:
#      x y z
#    x 1.676720 0.000000 0.000000 
#    y 0.000000 1.641530 0.000000 
#    z 0.000000 0.000000 1.673810 
# 
# From -- ./inp_files/45777.got.cif
#   From: 2010.05.17/outbox.cif.g08.bks.cpg/sg65_23_cif.got.tgz:45777.got - 2010.06.03 17:01:31.
