data_PCOD9485562
_publ_section_title
;
Structure prediction by ZEFSAII (Michael W. Deem and Ramdas Pophale) SiO2 
 PCOD9485562
Probable space group: C M M M
;
_chemical_formula_sum "Si O2"
_cell_formula_units_Z 104
_cell_length_a 18.999314
_cell_length_b 17.649160
_cell_length_c 19.119971
_cell_angle_alpha 90.000000
_cell_angle_beta 90.000000
_cell_angle_gamma 90.000000
_cell_volume 6411.345628
_symmetry_space_group_name_H-M "C M M M"
_symmetry_group_IT_number 65
_symmetry_cell_setting 'orthorhombic'
loop_
_space_group_symop_operation_xyz
x,y,z
-x,-y,z
x,-y,-z
-x,y,-z
-x,-y,-z
x,y,-z
-x,y,z
x,-y,z
1/2+x,1/2+y,z
1/2-x,1/2-y,z
1/2+x,1/2-y,-z
1/2-x,1/2+y,-z
1/2-x,1/2-y,-z
1/2+x,1/2+y,-z
1/2-x,1/2+y,z
1/2+x,1/2-y,z
loop_
_atom_site_type_symbol
_atom_site_label
_atom_site_fract_x
_atom_site_fract_y
_atom_site_fract_z
Si Si1 0.081912 0.322803 0.358712
Si Si2 0.918848 0.142895 0.641674
Si Si3 0.085173 0.413387 0.500000
Si Si4 0.157481 0.909593 0.781901
Si Si5 0.283382 0.412441 0.579001
Si Si6 0.418306 0.592043 0.921780
Si Si7 0.720815 0.166102 0.287451
O O1 0.086530 0.232751 0.373034
O O2 0.102796 0.369185 0.428592
O O3 0.137062 0.338527 0.296390
O O4 0.000000 0.340126 0.342496
O O5 0.889025 0.126509 0.719555
O O6 0.866848 0.099028 0.589983
O O7 0.000000 0.120186 0.636759
O O8 0.111856 0.500000 0.500000
O O9 0.000000 0.416614 0.500000
O O10 0.129513 0.883231 0.857146
O O11 0.238073 0.887414 0.766385
O O12 0.149345 0.000000 0.776774
O O13 0.262994 0.394387 0.500000
O O14 0.265870 0.500000 0.594033
O O15 0.249015 0.358727 0.636236
O O16 0.500000 0.613416 0.910099
O O17 0.416552 0.500000 0.922208
O O18 0.397452 0.617155 0.000000
O O19 0.750000 0.250000 0.273582
#
# Coordination Sequence:
#
# PCOD9485562 Si02
#       7
#    16  16   8  16  16  16  16
#     4  10  21  35  52  71  90 118 162 211 257 307
#     4  10  19  31  48  70  96 129 162 192 236 296
#     4   9  20  36  51  68  89 115 157 222 281 301
#     4  10  19  31  49  74 103 132 162 196 235 285
#     4  10  22  35  47  67  93 123 161 204 248 296
#     4   8  14  26  47  77 110 139 164 191 227 275
#     4  11  20  34  50  67  92 128 162 198 245 297
#
# _framework density 16.221243999999999
#
# number of rings (size 3 to 8) (size 9 to 14) (size 15 to 20)
#    0.000    2.231    3.077    2.769    2.154    3.692 
#    0.000    0.769    0.000    0.462    0.000    0.000 
#    0.000    0.615    0.000    3.846    0.000    0.154 
#
# Total GULP energy -289846.522552 kJ/mol
# GULP energy per Si atom -5573.971588 kJ/mol
# Density = 1.618432 g / cm^3
# Si number density = 16.221244 Si / 1000 Ang^3
#
#
#
# Elastic Constant Matrix: (Units=GPa)
#
#
# Indices 1 2 3 4 5 6 
#
# 1 83.1678 8.5833 23.0912 0.0000 0.0000 0.0000
# 2 8.5833 54.1413 23.8433 0.0000 0.0000 0.0000
# 3 23.0912 23.8433 81.4060 0.0000 0.0000 0.0000
# 4 0.0000 0.0000 0.0000 -21.2947 0.0000 0.0000
# 5 0.0000 0.0000 0.0000 0.0000 23.1045 0.0000
# 6 0.0000 0.0000 0.0000 0.0000 0.0000 18.7135
#
#
#
# Elastic Compliance Matrix: (Units=1/GPa)
#
#
# Indices 1 2 3 4 5 6 
#
# 1 0.013064 -0.000504 -0.003558 0.000000 0.000000 0.000000
# 2 -0.000504 0.021225 -0.006074 0.000000 0.000000 0.000000
# 3 -0.003558 -0.006074 0.015072 0.000000 0.000000 0.000000
# 4 0.000000 0.000000 0.000000 -0.046960 0.000000 0.000000
# 5 0.000000 0.000000 0.000000 0.000000 0.043282 0.000000
# 6 0.000000 0.000000 0.000000 0.000000 0.000000 0.053437
#
#
# Mechanical properties :
#
#
# Convention : Reuss Voigt Hill
#
# Bulk Modulus (GPa) = 34.37674 36.63896 35.50785
# Shear Modulus (GPa) = 38.73340 14.98450 26.85895
#
# Velocity S-wave (km/s) = 4.89183 3.04264 4.07355
# Velocity P-wave (km/s) = 7.29007 5.91435 6.63795
#
# Compressibility (1/GPa) = 0.02908943
#
# Stress axis : x y z
#
# Youngs Moduli (GPa) = 76.54761 47.11456 66.34716
#
# Poissons Ratio (x) = 0.02376 0.23606
# Poissons Ratio (y) = 0.03860 0.40297
# Poissons Ratio (z) = 0.27235 0.28615
#
# Static dielectric constant tensor:
#      x y z
#    x 1.602370 0.000000 0.000000 
#    y 0.000000 1.545260 0.000000 
#    z 0.000000 0.000000 1.531300 
# 
# From -- ./inp_files/55895.got.cif
#   From: 2010.05.17/outbox.cif.g08.bks.cpg/sg65_28_cif.got.tgz:55895.got - 2010.06.03 17:01:31.
