data_PCOD9485830
_publ_section_title
;
Structure prediction by ZEFSAII (Michael W. Deem and Ramdas Pophale) SiO2 
 PCOD9485830
Probable space group: C M M M
;
_chemical_formula_sum "Si O2"
_cell_formula_units_Z 112
_cell_length_a 18.573650
_cell_length_b 36.274616
_cell_length_c 7.400378
_cell_angle_alpha 90.000000
_cell_angle_beta 90.000000
_cell_angle_gamma 90.000000
_cell_volume 4986.019637
_symmetry_space_group_name_H-M "C M M M"
_symmetry_group_IT_number 65
_symmetry_cell_setting 'orthorhombic'
loop_
_space_group_symop_operation_xyz
x,y,z
-x,-y,z
x,-y,-z
-x,y,-z
-x,-y,-z
x,y,-z
-x,y,z
x,-y,z
1/2+x,1/2+y,z
1/2-x,1/2-y,z
1/2+x,1/2-y,-z
1/2-x,1/2+y,-z
1/2-x,1/2-y,-z
1/2+x,1/2+y,-z
1/2-x,1/2+y,z
1/2+x,1/2-y,z
loop_
_atom_site_type_symbol
_atom_site_label
_atom_site_fract_x
_atom_site_fract_y
_atom_site_fract_z
Si Si1 0.078056 0.381177 0.211373
Si Si2 0.195733 0.041701 0.279920
Si Si3 0.310248 0.822313 0.220670
Si Si4 0.145648 0.180440 0.217343
Si Si5 0.581284 0.757820 0.220366
Si Si6 0.080428 0.899292 0.285502
Si Si7 0.138947 0.458909 0.281981
O O1 0.146073 0.358449 0.282919
O O2 0.091329 0.424644 0.224535
O O3 0.000000 0.371533 0.290189
O O4 0.074858 0.371369 0.000000
O O5 0.196864 0.042726 0.500000
O O6 0.140544 0.072518 0.214121
O O7 0.278373 0.047725 0.222648
O O8 0.174800 0.000000 0.228488
O O9 0.228097 0.820680 0.283476
O O10 0.358919 0.787505 0.274915
O O11 0.306615 0.822348 0.000000
O O12 0.104474 0.217010 0.279998
O O13 0.105602 0.142624 0.261301
O O14 0.148090 0.182939 0.000000
O O15 0.500000 0.766890 0.278131
O O16 0.580796 0.758145 0.000000
O O17 0.076904 0.906113 0.500000
O O18 0.000000 0.904673 0.212033
O O19 0.138486 0.459267 0.500000
O O20 0.117092 0.500000 0.222018
#
# Coordination Sequence:
#
# PCOD9485830 Si02
#       7
#    16  16  16  16  16  16  16
#     4  10  20  32  47  69  96 125 157 195 239 281
#     4   8  15  30  51  72  93 120 158 199 233 272
#     4   9  17  30  48  70  96 125 159 198 236 275
#     4  10  19  31  50  74  97 124 160 197 232 276
#     4   9  16  27  46  72  99 125 156 196 238 277
#     4  10  20  32  48  72 100 128 156 190 236 283
#     4   9  18  33  52  71  92 122 158 194 234 281
#
# _framework density 22.462807999999999
#
# number of rings (size 3 to 8) (size 9 to 14) (size 15 to 20)
#    0.000    2.714    0.000    3.000    0.000    5.429 
#    0.000    2.857    0.000    3.857    0.000    1.000 
#    0.000    0.000    0.000    0.000    0.000    0.000 
#
# Total GULP energy -312868.410462 kJ/mol
# GULP energy per Si atom -5586.935901 kJ/mol
# Density = 2.241168 g / cm^3
# Si number density = 22.462808 Si / 1000 Ang^3
#
#
#
# Elastic Constant Matrix: (Units=GPa)
#
#
# Indices 1 2 3 4 5 6 
#
# 1 63.8051 -4.6026 -1.8355 0.0000 0.0000 0.0000
# 2 -4.6026 63.0055 -12.7456 0.0000 0.0000 0.0000
# 3 -1.8355 -12.7456 74.2029 0.0000 0.0000 0.0000
# 4 0.0000 0.0000 0.0000 18.0960 0.0000 0.0000
# 5 0.0000 0.0000 0.0000 0.0000 0.9898 0.0000
# 6 0.0000 0.0000 0.0000 0.0000 0.0000 125.4510
#
#
#
# Elastic Compliance Matrix: (Units=1/GPa)
#
#
# Indices 1 2 3 4 5 6 
#
# 1 0.015782 0.001276 0.000610 0.000000 0.000000 0.000000
# 2 0.001276 0.016546 0.002874 0.000000 0.000000 0.000000
# 3 0.000610 0.002874 0.013985 0.000000 0.000000 0.000000
# 4 0.000000 0.000000 0.000000 0.055261 0.000000 0.000000
# 5 0.000000 0.000000 0.000000 0.000000 1.010298 0.000000
# 6 0.000000 0.000000 0.000000 0.000000 0.000000 0.007971
#
#
# Mechanical properties :
#
#
# Convention : Reuss Voigt Hill
#
# Bulk Modulus (GPa) = 17.91064 18.07179 17.99122
# Shear Modulus (GPa) = 4.42895 43.58718 24.00807
#
# Velocity S-wave (km/s) = 1.40569 4.40979 3.27278
# Velocity P-wave (km/s) = 3.25966 5.83018 4.72316
#
# Compressibility (1/GPa) = 0.05583273
#
# Stress axis : x y z
#
# Youngs Moduli (GPa) = 63.36198 60.43691 71.50391
#
# Poissons Ratio (x) = -0.07713 -0.04359
# Poissons Ratio (y) = -0.08086 -0.20548
# Poissons Ratio (z) = -0.03863 -0.17368
#
# Static dielectric constant tensor:
#      x y z
#    x 1.803770 0.000000 0.000000 
#    y 0.000000 1.787500 0.000000 
#    z 0.000000 0.000000 1.900720 
# 
# From -- ./inp_files/25537.got.cif
#   From: 2010.05.17/outbox.cif.g08.bks.cpg/sg65_13_cif.got.tgz:25537.got - 2010.06.03 17:01:31.
