data_PCOD9485790
_publ_section_title
;
Structure prediction by ZEFSAII (Michael W. Deem and Ramdas Pophale) SiO2 
 PCOD9485790
Probable space group: C M M M
;
_chemical_formula_sum "Si O2"
_cell_formula_units_Z 88
_cell_length_a 21.721732
_cell_length_b 24.301203
_cell_length_c 9.712586
_cell_angle_alpha 90.000000
_cell_angle_beta 90.000000
_cell_angle_gamma 90.000000
_cell_volume 5126.926622
_symmetry_space_group_name_H-M "C M M M"
_symmetry_group_IT_number 65
_symmetry_cell_setting 'orthorhombic'
loop_
_space_group_symop_operation_xyz
x,y,z
-x,-y,z
x,-y,-z
-x,y,-z
-x,-y,-z
x,y,-z
-x,y,z
x,-y,z
1/2+x,1/2+y,z
1/2-x,1/2-y,z
1/2+x,1/2-y,-z
1/2-x,1/2+y,-z
1/2-x,1/2-y,-z
1/2+x,1/2+y,-z
1/2-x,1/2+y,z
1/2+x,1/2-y,z
loop_
_atom_site_type_symbol
_atom_site_label
_atom_site_fract_x
_atom_site_fract_y
_atom_site_fract_z
Si Si1 0.430185 0.770066 0.343860
Si Si2 0.642916 0.850554 0.159201
Si Si3 0.108688 0.146842 0.660993
Si Si4 0.000000 0.064506 0.667469
Si Si5 0.776720 0.189692 0.161050
Si Si6 0.071928 0.434803 0.658897
O O1 0.411417 0.784920 0.500000
O O2 0.500000 0.789328 0.322255
O O3 0.385497 0.797375 0.234555
O O4 0.428318 0.704339 0.335751
O O5 0.716359 0.848299 0.167570
O O6 0.614395 0.901617 0.238915
O O7 0.624981 0.850298 0.000000
O O8 0.125337 0.136345 0.500000
O O9 0.169017 0.162064 0.750430
O O10 0.061955 0.098452 0.708475
O O11 0.000000 0.065849 0.500000
O O12 0.000000 0.000000 0.709460
O O13 0.750000 0.250000 0.205990
O O14 0.795746 0.196051 0.000000
O O15 0.084264 0.419588 0.500000
O O16 0.080581 0.500000 0.671677
O O17 0.000000 0.423189 0.686049
#
# Coordination Sequence:
#
# PCOD9485790 Si02
#       6
#    16  16  16   8  16  16
#     4  10  19  31  49  76 110 140 173 221 274 324
#     4  11  22  34  51  77 109 144 183 219 261 317
#     4  10  19  33  56  83 106 137 182 226 273 329
#     4   9  18  36  61  87 115 143 178 233 290 331
#     4  10  21  37  52  73 111 151 180 216 272 327
#     4   9  19  37  58  78 104 139 176 217 266 314
#
# _framework density 17.164279000000001
#
# number of rings (size 3 to 8) (size 9 to 14) (size 15 to 20)
#    0.000    2.091    2.727    1.636    0.000    5.091 
#    0.000    2.273    0.000    4.364    0.000    0.000 
#    0.000    0.000    0.000    0.000    0.000    0.000 
#
# Total GULP energy -245254.072010 kJ/mol
# GULP energy per Si atom -5573.956182 kJ/mol
# Density = 1.712521 g / cm^3
# Si number density = 17.164279 Si / 1000 Ang^3
#
#
#
# Elastic Constant Matrix: (Units=GPa)
#
#
# Indices 1 2 3 4 5 6 
#
# 1 100.6145 52.0233 74.8917 0.0000 0.0000 0.0000
# 2 52.0233 108.3419 43.3564 0.0000 0.0000 0.0000
# 3 74.8917 43.3564 83.2446 0.0000 0.0000 0.0000
# 4 0.0000 0.0000 0.0000 201.7456 0.0000 0.0000
# 5 0.0000 0.0000 0.0000 0.0000 -5.3982 0.0000
# 6 0.0000 0.0000 0.0000 0.0000 0.0000 119.6263
#
#
#
# Elastic Compliance Matrix: (Units=1/GPa)
#
#
# Indices 1 2 3 4 5 6 
#
# 1 0.031988 -0.004855 -0.026250 0.000000 0.000000 0.000000
# 2 -0.004855 0.012397 -0.002089 0.000000 0.000000 0.000000
# 3 -0.026250 -0.002089 0.036716 0.000000 0.000000 0.000000
# 4 0.000000 0.000000 0.000000 0.004957 0.000000 0.000000
# 5 0.000000 0.000000 0.000000 0.000000 -0.185247 0.000000
# 6 0.000000 0.000000 0.000000 0.000000 0.000000 0.008359
#
#
# Mechanical properties :
#
#
# Convention : Reuss Voigt Hill
#
# Bulk Modulus (GPa) = 67.96049 70.30486 69.13268
# Shear Modulus (GPa) = -255.92457 71.32340 -92.30059
#
# Velocity S-wave (km/s) = -12.22402 6.45319 -7.34109
# Velocity P-wave (km/s) = 12.63153 9.82719 5.61168
#
# Compressibility (1/GPa) = 0.01471443
#
# Stress axis : x y z
#
# Youngs Moduli (GPa) = 31.26167 80.66235 27.23588
#
# Poissons Ratio (x) = 0.39165 0.71493
# Poissons Ratio (y) = 0.15179 0.05689
# Poissons Ratio (z) = 0.82060 0.16848
#
# Static dielectric constant tensor:
#      x y z
#    x 1.580780 0.000000 0.000000 
#    y 0.000000 1.602850 0.000000 
#    z 0.000000 0.000000 1.578150 
# 
# From -- ./inp_files/11746.got.cif
#   From: 2010.05.17/outbox.cif.g08.bks.cpg/sg65_6_cif.got.tgz:11746.got - 2010.06.03 17:01:31.
