data_PCOD9485239
_publ_section_title
;
Structure prediction by ZEFSAII (Michael W. Deem and Ramdas Pophale) SiO2 
 PCOD9485239
Probable space group: C M M M
;
_chemical_formula_sum "Si O2"
_cell_formula_units_Z 80
_cell_length_a 21.877397
_cell_length_b 27.143657
_cell_length_c 8.054271
_cell_angle_alpha 90.000000
_cell_angle_beta 90.000000
_cell_angle_gamma 90.000000
_cell_volume 4782.888369
_symmetry_space_group_name_H-M "C M M M"
_symmetry_group_IT_number 65
_symmetry_cell_setting 'orthorhombic'
loop_
_space_group_symop_operation_xyz
x,y,z
-x,-y,z
x,-y,-z
-x,y,-z
-x,-y,-z
x,y,-z
-x,y,z
x,-y,z
1/2+x,1/2+y,z
1/2-x,1/2-y,z
1/2+x,1/2-y,-z
1/2-x,1/2+y,-z
1/2-x,1/2-y,-z
1/2+x,1/2+y,-z
1/2-x,1/2+y,z
1/2+x,1/2-y,z
loop_
_atom_site_type_symbol
_atom_site_label
_atom_site_fract_x
_atom_site_fract_y
_atom_site_fract_z
Si Si1 0.066215 0.821769 0.000000
Si Si2 0.271639 0.605584 0.801362
Si Si3 0.911107 0.892396 0.305839
Si Si4 0.404475 0.500000 0.299260
Si Si5 0.763706 0.000000 0.699856
Si Si6 0.703165 0.203348 0.680888
Si Si7 0.325931 0.245487 0.000000
O O1 0.067588 0.854274 0.832264
O O2 0.130637 0.792636 0.000000
O O3 0.000000 0.794794 0.000000
O O4 0.337385 0.605796 0.711150
O O5 0.239925 0.552897 0.762326
O O6 0.237186 0.653239 0.731094
O O7 0.279331 0.610131 0.000000
O O8 0.926454 0.882653 0.500000
O O9 0.932096 0.947486 0.255563
O O10 0.402216 0.500000 0.500000
O O11 0.334410 0.500000 0.238431
O O12 0.762454 0.000000 0.500000
O O13 0.674684 0.198356 0.500000
O O14 0.750000 0.250000 0.670551
O O15 0.659573 0.216733 0.832193
O O16 0.250000 0.250000 0.000000
#
# Coordination Sequence:
#
# PCOD9485239 Si02
#       7
#     8  16  16   8   8  16   8
#     4  12  26  39  54  78 104 131 168 220 278 323
#     4  11  18  29  49  76 106 138 179 223 271 315
#     4  10  19  34  52  70  97 134 176 222 269 315
#     4   7  14  28  48  69  90 125 176 224 259 298
#     4   9  17  27  41  69 107 143 176 214 266 323
#     4  10  19  30  48  72  98 131 170 216 264 310
#     4  10  20  36  55  74  99 126 169 212 253 313
#
# _framework density 16.726293999999999
#
# number of rings (size 3 to 8) (size 9 to 14) (size 15 to 20)
#    0.000    2.000    2.000    5.700    0.000    3.200 
#    0.000    1.000    0.000    1.800    0.000    0.000 
#    0.000    0.000    0.000    1.800    0.000    5.600 
#
# Total GULP energy -222695.787121 kJ/mol
# GULP energy per Si atom -5567.394678 kJ/mol
# Density = 1.668822 g / cm^3
# Si number density = 16.726294 Si / 1000 Ang^3
#
#
#
# Elastic Constant Matrix: (Units=GPa)
#
#
# Indices 1 2 3 4 5 6 
#
# 1 37.9505 35.6624 19.7517 0.0000 0.0000 0.0000
# 2 35.6624 124.4768 41.9379 0.0000 0.0000 0.0000
# 3 19.7517 41.9379 144.0133 0.0000 0.0000 0.0000
# 4 0.0000 0.0000 0.0000 45.5610 0.0000 0.0000
# 5 0.0000 0.0000 0.0000 0.0000 -17.5425 0.0000
# 6 0.0000 0.0000 0.0000 0.0000 0.0000 -7.3985
#
#
#
# Elastic Compliance Matrix: (Units=1/GPa)
#
#
# Indices 1 2 3 4 5 6 
#
# 1 0.036667 -0.009769 -0.002184 0.000000 0.000000 0.000000
# 2 -0.009769 0.011510 -0.002012 0.000000 0.000000 0.000000
# 3 -0.002184 -0.002012 0.007829 0.000000 0.000000 0.000000
# 4 0.000000 0.000000 0.000000 0.021949 0.000000 0.000000
# 5 0.000000 0.000000 0.000000 0.000000 -0.057005 0.000000
# 6 0.000000 0.000000 0.000000 0.000000 0.000000 -0.135163
#
#
# Mechanical properties :
#
#
# Convention : Reuss Voigt Hill
#
# Bulk Modulus (GPa) = 35.61754 55.68272 45.65013
# Shear Modulus (GPa) = -65.00049 18.06325 -23.46862
#
# Velocity S-wave (km/s) = -6.24064 3.28980 -3.74986
# Velocity P-wave (km/s) = 5.53055 6.91326 2.93310
#
# Compressibility (1/GPa) = 0.02807606
#
# Stress axis : x y z
#
# Youngs Moduli (GPa) = 27.27239 86.87804 127.72573
#
# Poissons Ratio (x) = 0.84873 0.27896
# Poissons Ratio (y) = 0.26643 0.25699
# Poissons Ratio (z) = 0.05956 0.17480
#
# Static dielectric constant tensor:
#      x y z
#    x 1.546130 0.000000 0.000000 
#    y 0.000000 1.636950 0.000000 
#    z 0.000000 0.000000 1.612660 
# 
# From -- ./inp_files/11644.got.cif
#   From: 2010.05.17/outbox.cif.g08.bks.cpg/sg65_6_cif.got.tgz:11644.got - 2010.06.03 17:01:31.
