data_PCOD9485849
_publ_section_title
;
Structure prediction by ZEFSAII (Michael W. Deem and Ramdas Pophale) SiO2 
 PCOD9485849
Probable space group: C M M M
;
_chemical_formula_sum "Si O2"
_cell_formula_units_Z 72
_cell_length_a 18.542412
_cell_length_b 7.758054
_cell_length_c 24.541296
_cell_angle_alpha 90.000000
_cell_angle_beta 90.000000
_cell_angle_gamma 90.000000
_cell_volume 3530.339878
_symmetry_space_group_name_H-M "C M M M"
_symmetry_group_IT_number 65
_symmetry_cell_setting 'orthorhombic'
loop_
_space_group_symop_operation_xyz
x,y,z
-x,-y,z
x,-y,-z
-x,y,-z
-x,-y,-z
x,y,-z
-x,y,z
x,-y,z
1/2+x,1/2+y,z
1/2-x,1/2-y,z
1/2+x,1/2-y,-z
1/2-x,1/2+y,-z
1/2-x,1/2-y,-z
1/2+x,1/2+y,-z
1/2-x,1/2+y,z
1/2+x,1/2-y,z
loop_
_atom_site_type_symbol
_atom_site_label
_atom_site_fract_x
_atom_site_fract_y
_atom_site_fract_z
Si Si1 0.664640 0.292384 0.058528
Si Si2 0.665923 0.207552 0.391630
Si Si3 0.918640 0.705609 0.714147
Si Si4 0.916595 0.288925 0.500000
Si Si5 0.165376 0.205593 0.823007
O O1 0.656767 0.500000 0.058360
O O2 0.750000 0.250000 0.058409
O O3 0.638792 0.227923 0.117589
O O4 0.635375 0.228221 0.000000
O O5 0.750000 0.250000 0.393092
O O6 0.628249 0.273821 0.336461
O O7 0.624639 0.269237 0.445646
O O8 0.660143 0.000000 0.391561
O O9 0.923562 0.500000 0.706405
O O10 0.879447 0.733105 0.771480
O O11 0.000000 0.775621 0.714270
O O12 0.915905 0.500000 0.500000
O O13 0.000000 0.235943 0.500000
O O14 0.250000 0.250000 0.816797
O O15 0.160137 0.000000 0.824286
#
# Coordination Sequence:
#
# PCOD9485849 Si02
#       5
#    16  16  16   8  16
#     4   8  14  25  42  66  95 124 156 197 243 290
#     4  10  20  34  54  78 102 130 165 205 248 293
#     4  10  21  36  52  71  98 132 169 209 253 299
#     4   9  17  32  55  79 102 131 168 204 238 285
#     4  10  19  31  50  75 101 130 165 204 248 298
#
# _framework density 20.394636999999999
#
# number of rings (size 3 to 8) (size 9 to 14) (size 15 to 20)
#    0.000    2.556    0.000    2.333    0.000    6.667 
#    0.000    0.000    0.000    3.333    0.000    4.667 
#    0.000    0.000    0.000    0.000    0.000    0.000 
#
# Total GULP energy -200766.647338 kJ/mol
# GULP energy per Si atom -5576.851315 kJ/mol
# Density = 2.034822 g / cm^3
# Si number density = 20.394637 Si / 1000 Ang^3
#
#
#
# Elastic Constant Matrix: (Units=GPa)
#
#
# Indices 1 2 3 4 5 6 
#
# 1 138.4678 1.7021 118.1535 0.0000 0.0000 0.0000
# 2 1.7021 31.3292 7.0877 0.0000 0.0000 0.0000
# 3 118.1535 7.0877 258.2491 0.0000 0.0000 0.0000
# 4 0.0000 0.0000 0.0000 14.9075 0.0000 0.0000
# 5 0.0000 0.0000 0.0000 0.0000 -8.2004 0.0000
# 6 0.0000 0.0000 0.0000 0.0000 0.0000 19.6770
#
#
#
# Elastic Compliance Matrix: (Units=1/GPa)
#
#
# Indices 1 2 3 4 5 6 
#
# 1 0.011858 0.000587 -0.005441 0.000000 0.000000 0.000000
# 2 0.000587 0.032148 -0.001151 0.000000 0.000000 0.000000
# 3 -0.005441 -0.001151 0.006393 0.000000 0.000000 0.000000
# 4 0.000000 0.000000 0.000000 0.067080 0.000000 0.000000
# 5 0.000000 0.000000 0.000000 0.000000 -0.121946 0.000000
# 6 0.000000 0.000000 0.000000 0.000000 0.000000 0.050821
#
#
# Mechanical properties :
#
#
# Convention : Reuss Voigt Hill
#
# Bulk Modulus (GPa) = 26.04975 75.77031 50.91003
# Shear Modulus (GPa) = 70.26427 25.35034 47.80730
#
# Velocity S-wave (km/s) = 5.87598 3.52943 4.84686
# Velocity P-wave (km/s) = 7.67051 7.33771 7.50595
#
# Compressibility (1/GPa) = 0.03838808
#
# Stress axis : x y z
#
# Youngs Moduli (GPa) = 84.33421 31.10654 156.41522
#
# Poissons Ratio (x) = -0.01825 0.85108
# Poissons Ratio (y) = -0.04948 0.17999
# Poissons Ratio (z) = 0.45888 0.03580
#
# Static dielectric constant tensor:
#      x y z
#    x 1.671230 0.000000 0.000000 
#    y 0.000000 1.734450 0.000000 
#    z 0.000000 0.000000 1.770260 
# 
# From -- ./inp_files/66990.got.cif
#   From: 2010.05.17/outbox.cif.g08.bks.cpg/sg65_34_cif.got.tgz:66990.got - 2010.06.03 17:01:31.
