data_PCOD9485311
_publ_section_title
;
Structure prediction by ZEFSAII (Michael W. Deem and Ramdas Pophale) SiO2 
 PCOD9485311
Probable space group: C M M M
;
_chemical_formula_sum "Si O2"
_cell_formula_units_Z 96
_cell_length_a 14.043591
_cell_length_b 14.417938
_cell_length_c 24.785412
_cell_angle_alpha 90.000000
_cell_angle_beta 90.000000
_cell_angle_gamma 90.000000
_cell_volume 5018.540911
_symmetry_space_group_name_H-M "C M M M"
_symmetry_group_IT_number 65
_symmetry_cell_setting 'orthorhombic'
loop_
_space_group_symop_operation_xyz
x,y,z
-x,-y,z
x,-y,-z
-x,y,-z
-x,-y,-z
x,y,-z
-x,y,z
x,-y,z
1/2+x,1/2+y,z
1/2-x,1/2-y,z
1/2+x,1/2-y,-z
1/2-x,1/2+y,-z
1/2-x,1/2-y,-z
1/2+x,1/2+y,-z
1/2-x,1/2+y,z
1/2+x,1/2-y,z
loop_
_atom_site_type_symbol
_atom_site_label
_atom_site_fract_x
_atom_site_fract_y
_atom_site_fract_z
Si Si1 0.384164 0.891137 0.440625
Si Si2 0.608603 0.396268 0.712924
Si Si3 0.609381 0.710527 0.063780
Si Si4 0.206042 0.388933 0.893676
Si Si5 0.613080 0.207258 0.666804
Si Si6 0.798062 0.392935 0.230652
O O1 0.351487 0.858946 0.500000
O O2 0.500000 0.884205 0.440846
O O3 0.349079 0.837602 0.387960
O O4 0.361542 0.000000 0.435318
O O5 0.500000 0.384971 0.731733
O O6 0.619578 0.500000 0.690824
O O7 0.628029 0.317209 0.669429
O O8 0.684632 0.385842 0.760312
O O9 0.500000 0.696544 0.080863
O O10 0.686503 0.646032 0.093948
O O11 0.640335 0.817868 0.072930
O O12 0.616733 0.690557 0.000000
O O13 0.196552 0.500000 0.903520
O O14 0.180922 0.369814 0.830941
O O15 0.500000 0.189351 0.668756
O O16 0.655864 0.166530 0.721894
O O17 0.825986 0.500000 0.239760
#
# Coordination Sequence:
#
# PCOD9485311 Si02
#       6
#    16  16  16  16  16  16
#     4   8  14  26  45  71 104 139 176 220 269 323
#     4   9  19  34  50  70  99 139 183 219 256 311
#     4  10  23  41  61  87 117 151 193 240 285 333
#     4  10  22  39  60  86 117 153 190 235 289 343
#     4  10  19  30  51  79 107 141 175 216 272 331
#     4  10  21  35  52  78 110 140 173 218 270 326
#
# _framework density 19.129066000000002
#
# number of rings (size 3 to 8) (size 9 to 14) (size 15 to 20)
#    0.000    2.500    0.000    2.500    4.667    4.333 
#    0.000    5.000    0.000    2.500    0.000    5.833 
#    0.000    0.000    0.000    0.000    0.000    0.000 
#
# Total GULP energy -267577.171590 kJ/mol
# GULP energy per Si atom -5574.524408 kJ/mol
# Density = 1.908553 g / cm^3
# Si number density = 19.129066 Si / 1000 Ang^3
#
#
#
# Elastic Constant Matrix: (Units=GPa)
#
#
# Indices 1 2 3 4 5 6 
#
# 1 38.0674 -5.1497 6.7918 0.0000 0.0000 0.0000
# 2 -5.1497 39.3270 20.1968 0.0000 0.0000 0.0000
# 3 6.7918 20.1968 74.5819 0.0000 0.0000 0.0000
# 4 0.0000 0.0000 0.0000 25.2247 0.0000 0.0000
# 5 0.0000 0.0000 0.0000 0.0000 18.3683 0.0000
# 6 0.0000 0.0000 0.0000 0.0000 0.0000 16.1976
#
#
#
# Elastic Compliance Matrix: (Units=1/GPa)
#
#
# Indices 1 2 3 4 5 6 
#
# 1 0.027773 0.005733 -0.004082 0.000000 0.000000 0.000000
# 2 0.005733 0.030719 -0.008841 0.000000 0.000000 0.000000
# 3 -0.004082 -0.008841 0.016174 0.000000 0.000000 0.000000
# 4 0.000000 0.000000 0.000000 0.039644 0.000000 0.000000
# 5 0.000000 0.000000 0.000000 0.000000 0.054442 0.000000
# 6 0.000000 0.000000 0.000000 0.000000 0.000000 0.061738
#
#
# Mechanical properties :
#
#
# Convention : Reuss Voigt Hill
#
# Bulk Modulus (GPa) = 16.58743 21.73937 19.16340
# Shear Modulus (GPa) = 18.87058 20.63395 19.75226
#
# Velocity S-wave (km/s) = 3.14425 3.28787 3.21686
# Velocity P-wave (km/s) = 4.67674 5.07964 4.88235
#
# Compressibility (1/GPa) = 0.06028662
#
# Stress axis : x y z
#
# Youngs Moduli (GPa) = 36.00626 32.55342 61.82825
#
# Poissons Ratio (x) = -0.18662 0.25236
# Poissons Ratio (y) = -0.20642 0.54661
# Poissons Ratio (z) = 0.14696 0.28780
#
# Static dielectric constant tensor:
#      x y z
#    x 1.691510 0.000000 0.000000 
#    y 0.000000 1.683830 0.000000 
#    z 0.000000 0.000000 1.657880 
# 
# From -- ./inp_files/62602.got.cif
#   From: 2010.05.17/outbox.cif.g08.bks.cpg/sg65_32_cif.got.tgz:62602.got - 2010.06.03 17:01:31.
