data_PCOD9485882
_publ_section_title
;
Structure prediction by ZEFSAII (Michael W. Deem and Ramdas Pophale) SiO2 
 PCOD9485882
Probable space group: C M M M
;
_chemical_formula_sum "Si O2"
_cell_formula_units_Z 72
_cell_length_a 10.175583
_cell_length_b 22.979153
_cell_length_c 19.578158
_cell_angle_alpha 90.000000
_cell_angle_beta 90.000000
_cell_angle_gamma 90.000000
_cell_volume 4577.887827
_symmetry_space_group_name_H-M "C M M M"
_symmetry_group_IT_number 65
_symmetry_cell_setting 'orthorhombic'
loop_
_space_group_symop_operation_xyz
x,y,z
-x,-y,z
x,-y,-z
-x,y,-z
-x,-y,-z
x,y,-z
-x,y,z
x,-y,z
1/2+x,1/2+y,z
1/2-x,1/2-y,z
1/2+x,1/2-y,-z
1/2-x,1/2+y,-z
1/2-x,1/2-y,-z
1/2+x,1/2+y,-z
1/2-x,1/2+y,z
1/2+x,1/2-y,z
loop_
_atom_site_type_symbol
_atom_site_label
_atom_site_fract_x
_atom_site_fract_y
_atom_site_fract_z
Si Si1 0.157336 0.000000 0.579599
Si Si2 0.152733 0.195392 0.926598
Si Si3 0.270204 0.376970 0.642502
Si Si4 0.000000 0.800456 0.419376
Si Si5 0.158667 0.191317 0.773804
Si Si6 0.500000 0.166710 0.582769
O O1 0.198842 0.942648 0.620834
O O2 0.205729 0.000000 0.500000
O O3 0.000000 0.000000 0.575713
O O4 0.250000 0.250000 0.927892
O O5 0.173962 0.168529 0.851823
O O6 0.000000 0.214651 0.925843
O O7 0.171748 0.163697 0.000000
O O8 0.372982 0.335039 0.604313
O O9 0.291863 0.357105 0.720548
O O10 0.127623 0.362287 0.614400
O O11 0.000000 0.734260 0.395354
O O12 0.000000 0.798546 0.500000
O O13 0.250000 0.250000 0.765949
O O14 0.000000 0.202606 0.762793
O O15 0.500000 0.163034 0.500000
#
# Coordination Sequence:
#
# PCOD9485882 Si02
#       6
#     8  16  16   8  16   8
#     4  11  22  39  59  73  94 132 177 220 257 306
#     4   8  14  25  42  67 100 135 165 194 239 301
#     4  12  23  36  54  76 100 133 174 214 258 307
#     4  11  20  35  55  75 100 129 163 204 259 318
#     4  10  19  31  50  76 105 135 167 209 259 307
#     4  11  24  37  53  77 104 129 161 214 271 318
#
# _framework density 15.727776
#
# number of rings (size 3 to 8) (size 9 to 14) (size 15 to 20)
#    0.000    1.667    2.222    4.000    1.556    2.222 
#    0.000    1.111    0.000    0.000    0.000    0.778 
#    0.000    4.444    0.000    2.000    0.000    0.667 
#
# Total GULP energy -200436.790511 kJ/mol
# GULP energy per Si atom -5567.688625 kJ/mol
# Density = 1.569198 g / cm^3
# Si number density = 15.727776 Si / 1000 Ang^3
#
#
#
# Elastic Constant Matrix: (Units=GPa)
#
#
# Indices 1 2 3 4 5 6 
#
# 1 108.2052 40.9388 44.1744 0.0000 0.0000 0.0000
# 2 40.9388 102.4998 65.8988 0.0000 0.0000 0.0000
# 3 44.1744 65.8988 155.4782 0.0000 0.0000 0.0000
# 4 0.0000 0.0000 0.0000 -22.7551 0.0000 0.0000
# 5 0.0000 0.0000 0.0000 0.0000 23.4795 0.0000
# 6 0.0000 0.0000 0.0000 0.0000 0.0000 18.3976
#
#
#
# Elastic Compliance Matrix: (Units=1/GPa)
#
#
# Indices 1 2 3 4 5 6 
#
# 1 0.011231 -0.003346 -0.001773 0.000000 0.000000 0.000000
# 2 -0.003346 0.014407 -0.005156 0.000000 0.000000 0.000000
# 3 -0.001773 -0.005156 0.009121 0.000000 0.000000 0.000000
# 4 0.000000 0.000000 0.000000 -0.043946 0.000000 0.000000
# 5 0.000000 0.000000 0.000000 0.000000 0.042590 0.000000
# 6 0.000000 0.000000 0.000000 0.000000 0.000000 0.054355
#
#
# Mechanical properties :
#
#
# Convention : Reuss Voigt Hill
#
# Bulk Modulus (GPa) = 70.37288 74.24526 72.30907
# Shear Modulus (GPa) = 44.23028 18.16913 31.19970
#
# Velocity S-wave (km/s) = 5.30881 3.40255 4.45874
# Velocity P-wave (km/s) = 9.07851 7.92120 8.51953
#
# Compressibility (1/GPa) = 0.01421002
#
# Stress axis : x y z
#
# Youngs Moduli (GPa) = 89.03587 69.40921 109.64032
#
# Poissons Ratio (x) = 0.23225 0.19437
# Poissons Ratio (y) = 0.29792 0.56528
# Poissons Ratio (z) = 0.15785 0.35786
#
# Static dielectric constant tensor:
#      x y z
#    x 1.612380 0.000000 0.000000 
#    y 0.000000 1.491840 0.000000 
#    z 0.000000 0.000000 1.596820 
# 
# From -- ./inp_files/59557.got.cif
#   From: 2010.05.17/outbox.cif.g08.bks.cpg/sg65_30_cif.got.tgz:59557.got - 2010.06.03 17:01:31.
