data_PCOD9485954
_publ_section_title
;
Structure prediction by ZEFSAII (Michael W. Deem and Ramdas Pophale) SiO2 
 PCOD9485954
Probable space group: C M M M
;
_chemical_formula_sum "Si O2"
_cell_formula_units_Z 116
_cell_length_a 29.152389
_cell_length_b 28.143855
_cell_length_c 7.632477
_cell_angle_alpha 90.000000
_cell_angle_beta 90.000000
_cell_angle_gamma 90.000000
_cell_volume 6262.146727
_symmetry_space_group_name_H-M "C M M M"
_symmetry_group_IT_number 65
_symmetry_cell_setting 'orthorhombic'
loop_
_space_group_symop_operation_xyz
x,y,z
-x,-y,z
x,-y,-z
-x,y,-z
-x,-y,-z
x,y,-z
-x,y,z
x,-y,z
1/2+x,1/2+y,z
1/2-x,1/2-y,z
1/2+x,1/2-y,-z
1/2-x,1/2+y,-z
1/2-x,1/2-y,-z
1/2+x,1/2+y,-z
1/2-x,1/2+y,z
1/2+x,1/2-y,z
loop_
_atom_site_type_symbol
_atom_site_label
_atom_site_fract_x
_atom_site_fract_y
_atom_site_fract_z
Si Si1 0.448881 0.179156 0.708074
Si Si2 0.842055 0.000000 0.500000
Si Si3 0.853160 0.356871 0.709113
Si Si4 0.551526 0.289766 0.210105
Si Si5 0.812657 0.072496 0.202123
Si Si6 0.301046 0.236348 0.285811
Si Si7 0.145577 0.829136 0.295779
Si Si8 0.292491 0.946350 0.209861
O O1 0.451407 0.170025 0.500000
O O2 0.500000 0.169492 0.781608
O O3 0.404846 0.150855 0.778744
O O4 0.439679 0.235438 0.731050
O O5 0.839045 0.958944 0.655779
O O6 0.856225 0.350148 0.500000
O O7 0.820337 0.314318 0.775624
O O8 0.829884 0.407513 0.738465
O O9 0.500000 0.302197 0.268820
O O10 0.591054 0.324283 0.276563
O O11 0.552467 0.290206 0.000000
O O12 0.831992 0.125700 0.206074
O O13 0.759005 0.069936 0.258294
O O14 0.815303 0.055400 0.000000
O O15 0.300698 0.234887 0.500000
O O16 0.250000 0.250000 0.229120
O O17 0.334032 0.279201 0.230217
O O18 0.157686 0.832883 0.500000
O O19 0.299943 0.000000 0.277885
O O20 0.293304 0.948523 0.000000
#
# Coordination Sequence:
#
# PCOD9485954 Si02
#       8
#    16   4  16  16  16  16  16  16
#     4   9  17  32  52  75 104 140 184 233 281 339
#     4  12  22  40  64  86 111 158 195 240 286 342
#     4  10  19  31  51  77 103 142 186 227 282 342
#     4  10  20  33  51  77 112 151 188 232 283 335
#     4  11  23  39  59  87 118 149 193 244 285 335
#     4   9  17  29  45  73 112 146 179 219 267 336
#     4  11  20  34  56  82 114 152 189 228 285 342
#     4  10  22  38  54  76 109 142 183 239 286 329
#
# _framework density 18.523997999999999
#
# number of rings (size 3 to 8) (size 9 to 14) (size 15 to 20)
#    0.000    1.931    2.759    1.862    0.966    2.759 
#    0.000    0.000    0.000    3.310    0.000    3.862 
#    0.000    2.207    0.000    0.000    0.000    0.000 
#
# Total GULP energy -323126.349051 kJ/mol
# GULP energy per Si atom -5571.143949 kJ/mol
# Density = 1.848184 g / cm^3
# Si number density = 18.523998 Si / 1000 Ang^3
#
#
#
# Elastic Constant Matrix: (Units=GPa)
#
#
# Indices 1 2 3 4 5 6 
#
# 1 117.7264 79.5357 3.8034 0.0000 0.0000 0.0000
# 2 79.5357 130.9403 6.7221 0.0000 0.0000 0.0000
# 3 3.8034 6.7221 58.2313 0.0000 0.0000 0.0000
# 4 0.0000 0.0000 0.0000 9.6531 0.0000 0.0000
# 5 0.0000 0.0000 0.0000 0.0000 6.1254 0.0000
# 6 0.0000 0.0000 0.0000 0.0000 0.0000 90.5274
#
#
#
# Elastic Compliance Matrix: (Units=1/GPa)
#
#
# Indices 1 2 3 4 5 6 
#
# 1 0.014406 -0.008754 0.000070 0.000000 0.000000 0.000000
# 2 -0.008754 0.013002 -0.000929 0.000000 0.000000 0.000000
# 3 0.000070 -0.000929 0.017276 0.000000 0.000000 0.000000
# 4 0.000000 0.000000 0.000000 0.103594 0.000000 0.000000
# 5 0.000000 0.000000 0.000000 0.000000 0.163256 0.000000
# 6 0.000000 0.000000 0.000000 0.000000 0.000000 0.011046
#
#
# Mechanical properties :
#
#
# Convention : Reuss Voigt Hill
#
# Bulk Modulus (GPa) = 39.28252 54.11337 46.69795
# Shear Modulus (GPa) = 14.27375 35.71696 24.99535
#
# Velocity S-wave (km/s) = 2.77890 4.39583 3.67733
# Velocity P-wave (km/s) = 5.61682 7.41892 6.57986
#
# Compressibility (1/GPa) = 0.02545661
#
# Stress axis : x y z
#
# Youngs Moduli (GPa) = 69.41354 76.90940 57.88508
#
# Poissons Ratio (x) = 0.67329 -0.00403
# Poissons Ratio (y) = 0.60767 0.05378
# Poissons Ratio (z) = -0.00483 0.07146
#
# Static dielectric constant tensor:
#      x y z
#    x 1.683590 0.000000 0.000000 
#    y 0.000000 1.622620 0.000000 
#    z 0.000000 0.000000 1.662360 
# 
# From -- ./inp_files/18949.got.cif
#   From: 2010.05.17/outbox.cif.g08.bks.cpg/sg65_10_cif.got.tgz:18949.got - 2010.06.03 17:01:31.
