data_PCOD9485120
_publ_section_title
;
Structure prediction by ZEFSAII (Michael W. Deem and Ramdas Pophale) SiO2 
 PCOD9485120
Probable space group: C M M M
;
_chemical_formula_sum "Si O2"
_cell_formula_units_Z 96
_cell_length_a 22.283955
_cell_length_b 25.725130
_cell_length_c 8.738393
_cell_angle_alpha 90.000000
_cell_angle_beta 90.000000
_cell_angle_gamma 90.000000
_cell_volume 5009.350542
_symmetry_space_group_name_H-M "C M M M"
_symmetry_group_IT_number 65
_symmetry_cell_setting 'orthorhombic'
loop_
_space_group_symop_operation_xyz
x,y,z
-x,-y,z
x,-y,-z
-x,y,-z
-x,-y,-z
x,y,-z
-x,y,z
x,-y,z
1/2+x,1/2+y,z
1/2-x,1/2-y,z
1/2+x,1/2-y,-z
1/2-x,1/2+y,-z
1/2-x,1/2-y,-z
1/2+x,1/2+y,-z
1/2-x,1/2+y,z
1/2+x,1/2-y,z
loop_
_atom_site_type_symbol
_atom_site_label
_atom_site_fract_x
_atom_site_fract_y
_atom_site_fract_z
Si Si1 0.774081 0.807264 0.829921
Si Si2 0.808782 0.560192 0.817660
Si Si3 0.107496 0.229180 0.679912
Si Si4 0.565390 0.372481 0.182312
Si Si5 0.674401 0.439396 0.680633
Si Si6 0.348747 0.841713 0.683039
O O1 0.750000 0.750000 0.856302
O O2 0.828043 0.797519 0.713645
O O3 0.717676 0.833146 0.750371
O O4 0.790725 0.828541 0.000000
O O5 0.823774 0.500000 0.784309
O O6 0.739956 0.567216 0.757209
O O7 0.857302 0.599955 0.744922
O O8 0.808106 0.568061 0.000000
O O9 0.093547 0.228186 0.500000
O O10 0.067141 0.188467 0.771046
O O11 0.112984 0.290060 0.729391
O O12 0.500000 0.393439 0.232453
O O13 0.621582 0.403495 0.252996
O O14 0.569340 0.376489 0.000000
O O15 0.680915 0.429005 0.500000
O O16 0.657796 0.500000 0.701955
O O17 0.348247 0.841476 0.500000
#
# Coordination Sequence:
#
# PCOD9485120 Si02
#       6
#    16  16  16  16  16  16
#     4   9  16  26  42  64  90 120 152 186 225 274
#     4  10  20  33  50  73 102 135 168 201 238 284
#     4  10  20  33  49  69  94 124 158 198 244 293
#     4  11  24  39  54  72  95 125 163 210 259 300
#     4  10  21  37  56  75  97 129 167 207 251 295
#     4  10  19  30  46  69  97 128 160 194 236 287
#
# _framework density 19.164161
#
# number of rings (size 3 to 8) (size 9 to 14) (size 15 to 20)
#    0.000    2.000    0.000    4.000    0.000    7.667 
#    0.000    1.667    0.000    0.000    0.000    0.000 
#    0.000    0.667    0.000    7.333    0.000    5.333 
#
# Total GULP energy -267268.129879 kJ/mol
# GULP energy per Si atom -5568.086039 kJ/mol
# Density = 1.912054 g / cm^3
# Si number density = 19.164161 Si / 1000 Ang^3
#
#
#
# Elastic Constant Matrix: (Units=GPa)
#
#
# Indices 1 2 3 4 5 6 
#
# 1 11.9878 16.3721 2.4065 0.0000 0.0000 0.0000
# 2 16.3721 121.9824 43.7602 0.0000 0.0000 0.0000
# 3 2.4065 43.7602 65.4049 0.0000 0.0000 0.0000
# 4 0.0000 0.0000 0.0000 35.1691 0.0000 0.0000
# 5 0.0000 0.0000 0.0000 0.0000 36.9402 0.0000
# 6 0.0000 0.0000 0.0000 0.0000 0.0000 11.0385
#
#
#
# Elastic Compliance Matrix: (Units=1/GPa)
#
#
# Indices 1 2 3 4 5 6 
#
# 1 0.104728 -0.016677 0.007304 0.000000 0.000000 0.000000
# 2 -0.016677 0.013443 -0.008380 0.000000 0.000000 0.000000
# 3 0.007304 -0.008380 0.020628 0.000000 0.000000 0.000000
# 4 0.000000 0.000000 0.000000 0.028434 0.000000 0.000000
# 5 0.000000 0.000000 0.000000 0.000000 0.027071 0.000000
# 6 0.000000 0.000000 0.000000 0.000000 0.000000 0.090592
#
#
# Mechanical properties :
#
#
# Convention : Reuss Voigt Hill
#
# Bulk Modulus (GPa) = 9.68120 36.05030 22.86575
# Shear Modulus (GPa) = 14.09121 25.75199 19.92160
#
# Velocity S-wave (km/s) = 2.71456 3.66971 3.22766
# Velocity P-wave (km/s) = 3.85848 6.06694 5.08408
#
# Compressibility (1/GPa) = 0.10329299
#
# Stress axis : x y z
#
# Youngs Moduli (GPa) = 9.54855 74.39046 48.47864
#
# Poissons Ratio (x) = 1.24058 -0.35411
# Poissons Ratio (y) = 0.15924 0.40627
# Poissons Ratio (z) = -0.06975 0.62342
#
# Static dielectric constant tensor:
#      x y z
#    x 1.616810 0.000000 0.000000 
#    y 0.000000 1.799050 0.000000 
#    z 0.000000 0.000000 1.661030 
# 
# From -- ./inp_files/14560.got.cif
#   From: 2010.05.17/outbox.cif.g08.bks.cpg/sg65_8_cif.got.tgz:14560.got - 2010.06.03 17:01:31.
