data_PCOD9485328
_publ_section_title
;
Structure prediction by ZEFSAII (Michael W. Deem and Ramdas Pophale) SiO2 
 PCOD9485328
Probable space group: C M M M
;
_chemical_formula_sum "Si O2"
_cell_formula_units_Z 80
_cell_length_a 29.119760
_cell_length_b 8.613198
_cell_length_c 21.874403
_cell_angle_alpha 90.000000
_cell_angle_beta 90.000000
_cell_angle_gamma 90.000000
_cell_volume 5486.412171
_symmetry_space_group_name_H-M "C M M M"
_symmetry_group_IT_number 65
_symmetry_cell_setting 'orthorhombic'
loop_
_space_group_symop_operation_xyz
x,y,z
-x,-y,z
x,-y,-z
-x,y,-z
-x,-y,-z
x,y,-z
-x,y,z
x,-y,z
1/2+x,1/2+y,z
1/2-x,1/2-y,z
1/2+x,1/2-y,-z
1/2-x,1/2+y,-z
1/2-x,1/2-y,-z
1/2+x,1/2+y,-z
1/2-x,1/2+y,z
1/2+x,1/2-y,z
loop_
_atom_site_type_symbol
_atom_site_label
_atom_site_fract_x
_atom_site_fract_y
_atom_site_fract_z
Si Si1 0.802117 0.686913 0.765969
Si Si2 0.801555 0.685291 0.000000
Si Si3 0.552298 0.186754 0.072021
Si Si4 0.302033 0.812723 0.368455
Si Si5 0.854982 0.815793 0.117699
Si Si6 0.802370 0.687911 0.500000
O O1 0.800726 0.500000 0.769635
O O2 0.750000 0.750000 0.771947
O O3 0.820539 0.733540 0.698237
O O4 0.832760 0.752420 0.820291
O O5 0.750000 0.750000 0.000000
O O6 0.827991 0.743374 0.060119
O O7 0.800665 0.500000 0.000000
O O8 0.500000 0.228924 0.088742
O O9 0.592058 0.267104 0.110161
O O10 0.556648 0.000000 0.077281
O O11 0.558613 0.224766 0.000000
O O12 0.250000 0.750000 0.368811
O O13 0.322967 0.763044 0.434116
O O14 0.300864 0.000000 0.368530
O O15 0.850255 0.000000 0.115241
O O16 0.801147 0.500000 0.500000
O O17 0.750000 0.750000 0.500000
#
# Coordination Sequence:
#
# PCOD9485328 Si02
#       6
#    16   8  16  16  16   8
#     4  10  19  31  44  60  85 119 153 184 218 258
#     4  12  24  38  51  64  85 112 146 185 221 257
#     4   9  18  34  55  74  90 109 134 169 216 265
#     4   8  14  23  37  55  77 106 141 178 215 251
#     4  12  23  34  48  68  89 113 144 179 218 258
#     4   8  12  20  34  54  76 100 135 178 215 248
#
# _framework density 14.581477
#
# number of rings (size 3 to 8) (size 9 to 14) (size 15 to 20)
#    0.000    2.200    1.000    4.500    0.000    1.200 
#    0.000    1.000    0.000    0.000    0.000    0.000 
#    0.000    0.000    0.000    0.900    0.000   20.700 
#
# Total GULP energy -222819.450386 kJ/mol
# GULP energy per Si atom -5570.486260 kJ/mol
# Density = 1.454829 g / cm^3
# Si number density = 14.581477 Si / 1000 Ang^3
#
#
#
# Elastic Constant Matrix: (Units=GPa)
#
#
# Indices 1 2 3 4 5 6 
#
# 1 70.6405 31.8637 56.3195 0.0000 0.0000 0.0000
# 2 31.8637 62.1803 44.0129 0.0000 0.0000 0.0000
# 3 56.3195 44.0129 163.9804 0.0000 0.0000 0.0000
# 4 0.0000 0.0000 0.0000 10.3247 0.0000 0.0000
# 5 0.0000 0.0000 0.0000 0.0000 0.9270 0.0000
# 6 0.0000 0.0000 0.0000 0.0000 0.0000 20.0592
#
#
#
# Elastic Compliance Matrix: (Units=1/GPa)
#
#
# Indices 1 2 3 4 5 6 
#
# 1 0.021868 -0.007271 -0.005559 0.000000 0.000000 0.000000
# 2 -0.007271 0.022272 -0.003481 0.000000 0.000000 0.000000
# 3 -0.005559 -0.003481 0.008942 0.000000 0.000000 0.000000
# 4 0.000000 0.000000 0.000000 0.096855 0.000000 0.000000
# 5 0.000000 0.000000 0.000000 0.000000 1.078694 0.000000
# 6 0.000000 0.000000 0.000000 0.000000 0.000000 0.049852
#
#
# Mechanical properties :
#
#
# Convention : Reuss Voigt Hill
#
# Bulk Modulus (GPa) = 48.87551 62.35482 55.61516
# Shear Modulus (GPa) = 3.79384 17.23587 10.51485
#
# Velocity S-wave (km/s) = 1.61477 3.44181 2.68826
# Velocity P-wave (km/s) = 6.08837 7.65837 6.91805
#
# Compressibility (1/GPa) = 0.02046014
#
# Stress axis : x y z
#
# Youngs Moduli (GPa) = 45.72875 44.89946 111.83513
#
# Poissons Ratio (x) = 0.32648 0.62169
# Poissons Ratio (y) = 0.33251 0.38925
# Poissons Ratio (z) = 0.25421 0.15627
#
# Static dielectric constant tensor:
#      x y z
#    x 1.446500 0.000000 0.000000 
#    y 0.000000 1.487720 0.000000 
#    z 0.000000 0.000000 1.531670 
# 
# From -- ./inp_files/65687.got.cif
#   From: 2010.05.17/outbox.cif.g08.bks.cpg/sg65_33_cif.got.tgz:65687.got - 2010.06.03 17:01:31.
