data_PCOD9485860
_publ_section_title
;
Structure prediction by ZEFSAII (Michael W. Deem and Ramdas Pophale) SiO2 
 PCOD9485860
Probable space group: C M M M
;
_chemical_formula_sum "Si O2"
_cell_formula_units_Z 96
_cell_length_a 19.242925
_cell_length_b 8.712101
_cell_length_c 32.130931
_cell_angle_alpha 90.000000
_cell_angle_beta 90.000000
_cell_angle_gamma 90.000000
_cell_volume 5386.631895
_symmetry_space_group_name_H-M "C M M M"
_symmetry_group_IT_number 65
_symmetry_cell_setting 'orthorhombic'
loop_
_space_group_symop_operation_xyz
x,y,z
-x,-y,z
x,-y,-z
-x,y,-z
-x,-y,-z
x,y,-z
-x,y,z
x,-y,z
1/2+x,1/2+y,z
1/2-x,1/2-y,z
1/2+x,1/2-y,-z
1/2-x,1/2+y,-z
1/2-x,1/2-y,-z
1/2+x,1/2+y,-z
1/2-x,1/2+y,z
1/2+x,1/2-y,z
loop_
_atom_site_type_symbol
_atom_site_label
_atom_site_fract_x
_atom_site_fract_y
_atom_site_fract_z
Si Si1 0.918744 0.816586 0.289574
Si Si2 0.919638 0.184973 0.951981
Si Si3 0.171598 0.685212 0.455300
Si Si4 0.827246 0.316048 0.878613
Si Si5 0.171867 0.684457 0.364145
Si Si6 0.919373 0.314902 0.799837
O O1 0.874000 0.747506 0.326751
O O2 0.896924 0.753718 0.244387
O O3 0.000000 0.774439 0.294842
O O4 0.913016 0.000000 0.289811
O O5 0.868172 0.260114 0.919326
O O6 0.000000 0.227776 0.943140
O O7 0.914956 0.000000 0.949032
O O8 0.904623 0.227003 0.000000
O O9 0.139406 0.732840 0.500000
O O10 0.174503 0.500000 0.455345
O O11 0.250000 0.750000 0.455472
O O12 0.142451 0.730188 0.410072
O O13 0.824373 0.500000 0.878579
O O14 0.750000 0.250000 0.877639
O O15 0.870985 0.265882 0.837955
O O16 0.174696 0.500000 0.362104
O O17 0.250000 0.750000 0.361043
O O18 0.917342 0.500000 0.797134
O O19 0.000000 0.269737 0.807271
#
# Coordination Sequence:
#
# PCOD9485860 Si02
#       6
#    16  16  16  16  16  16
#     4  10  21  36  54  76 102 134 172 212 255 306
#     4   9  19  37  60  84 110 142 180 220 261 307
#     4   8  14  25  42  66  95 126 162 203 247 297
#     4  11  23  37  55  81 112 144 176 214 261 309
#     4  10  19  31  50  75 103 134 167 208 257 305
#     4   9  19  37  58  77  99 131 173 217 260 309
#
# _framework density 17.821897
#
# number of rings (size 3 to 8) (size 9 to 14) (size 15 to 20)
#    0.000    2.500    0.000    2.500    0.000    5.333 
#    0.000    4.167    0.000    0.500    0.000    3.500 
#    0.000    0.000    0.000    0.000    0.000    0.000 
#
# Total GULP energy -267627.163175 kJ/mol
# GULP energy per Si atom -5575.565899 kJ/mol
# Density = 1.778133 g / cm^3
# Si number density = 17.821897 Si / 1000 Ang^3
#
#
#
# Elastic Constant Matrix: (Units=GPa)
#
#
# Indices 1 2 3 4 5 6 
#
# 1 84.5702 32.4048 105.4139 0.0000 0.0000 0.0000
# 2 32.4048 26.5706 47.7428 0.0000 0.0000 0.0000
# 3 105.4139 47.7428 201.1182 0.0000 0.0000 0.0000
# 4 0.0000 0.0000 0.0000 21.2601 0.0000 0.0000
# 5 0.0000 0.0000 0.0000 0.0000 29.3270 0.0000
# 6 0.0000 0.0000 0.0000 0.0000 0.0000 16.8964
#
#
#
# Elastic Compliance Matrix: (Units=1/GPa)
#
#
# Indices 1 2 3 4 5 6 
#
# 1 0.038845 -0.018817 -0.015893 0.000000 0.000000 0.000000
# 2 -0.018817 0.074744 -0.007881 0.000000 0.000000 0.000000
# 3 -0.015893 -0.007881 0.015173 0.000000 0.000000 0.000000
# 4 0.000000 0.000000 0.000000 0.047036 0.000000 0.000000
# 5 0.000000 0.000000 0.000000 0.000000 0.034098 0.000000
# 6 0.000000 0.000000 0.000000 0.000000 0.000000 0.059184
#
#
# Mechanical properties :
#
#
# Convention : Reuss Voigt Hill
#
# Bulk Modulus (GPa) = 22.94574 75.93133 49.43853
# Shear Modulus (GPa) = 13.55783 21.94321 17.75052
#
# Velocity S-wave (km/s) = 2.76114 3.51272 3.15936
# Velocity P-wave (km/s) = 4.80294 7.69093 6.41165
#
# Compressibility (1/GPa) = 0.04358108
#
# Stress axis : x y z
#
# Youngs Moduli (GPa) = 25.74328 13.37892 65.90510
#
# Poissons Ratio (x) = 0.25175 1.04745
# Poissons Ratio (y) = 0.48441 0.51938
# Poissons Ratio (z) = 0.40915 0.10544
#
# Static dielectric constant tensor:
#      x y z
#    x 1.585550 0.000000 0.000000 
#    y 0.000000 1.600560 0.000000 
#    z 0.000000 0.000000 1.628610 
# 
# From -- ./inp_files/73116.got.cif
#   From: 2010.05.17/outbox.cif.g08.bks.cpg/sg65_37_cif.got.tgz:73116.got - 2010.06.03 17:01:31.
