data_PCOD9485864
_publ_section_title
;
Structure prediction by ZEFSAII (Michael W. Deem and Ramdas Pophale) SiO2 
 PCOD9485864
Probable space group: C M M M
;
_chemical_formula_sum "Si O2"
_cell_formula_units_Z 72
_cell_length_a 27.987368
_cell_length_b 18.197103
_cell_length_c 7.590673
_cell_angle_alpha 90.000000
_cell_angle_beta 90.000000
_cell_angle_gamma 90.000000
_cell_volume 3865.846400
_symmetry_space_group_name_H-M "C M M M"
_symmetry_group_IT_number 65
_symmetry_cell_setting 'orthorhombic'
loop_
_space_group_symop_operation_xyz
x,y,z
-x,-y,z
x,-y,-z
-x,y,-z
-x,-y,-z
x,y,-z
-x,y,z
x,-y,z
1/2+x,1/2+y,z
1/2-x,1/2-y,z
1/2+x,1/2-y,-z
1/2-x,1/2+y,-z
1/2-x,1/2-y,-z
1/2+x,1/2+y,-z
1/2-x,1/2+y,z
1/2+x,1/2-y,z
loop_
_atom_site_type_symbol
_atom_site_label
_atom_site_fract_x
_atom_site_fract_y
_atom_site_fract_z
Si Si1 0.603707 0.184217 0.202338
Si Si2 0.443355 0.087542 0.500000
Si Si3 0.553869 0.664397 0.289041
Si Si4 0.696975 0.729603 0.784797
Si Si5 0.148000 0.081077 0.210484
O O1 0.580880 0.124896 0.330597
O O2 0.571951 0.258499 0.210557
O O3 0.656176 0.211559 0.263366
O O4 0.606277 0.159210 0.000000
O O5 0.500000 0.104284 0.500000
O O6 0.437350 0.000000 0.500000
O O7 0.554149 0.673318 0.500000
O O8 0.500000 0.647241 0.232488
O O9 0.593053 0.603526 0.242292
O O10 0.750000 0.750000 0.726631
O O11 0.679509 0.649381 0.722563
O O12 0.696778 0.728158 0.000000
O O13 0.158536 0.000000 0.281410
O O14 0.155114 0.078952 0.000000
#
# Coordination Sequence:
#
# PCOD9485864 Si02
#       5
#    16   8  16  16  16
#     4  10  20  36  59  84 110 143 186 231 276 334
#     4  11  24  40  57  80 113 149 186 235 292 342
#     4  10  19  31  50  75 103 139 180 218 261 316
#     4   8  15  31  56  83 107 139 186 230 273 329
#     4   9  18  31  47  71 105 142 178 220 269 318
#
# _framework density 18.624642000000001
#
# number of rings (size 3 to 8) (size 9 to 14) (size 15 to 20)
#    0.000    2.556    1.111    2.667    0.000    4.444 
#    0.000    5.000    0.000    4.000    0.000    0.000 
#    0.000    0.000    0.000    0.000    0.000    0.000 
#
# Total GULP energy -200879.857104 kJ/mol
# GULP energy per Si atom -5579.996031 kJ/mol
# Density = 1.858225 g / cm^3
# Si number density = 18.624642 Si / 1000 Ang^3
#
#
#
# Elastic Constant Matrix: (Units=GPa)
#
#
# Indices 1 2 3 4 5 6 
#
# 1 168.4497 90.6329 25.9329 0.0000 0.0000 0.0000
# 2 90.6329 114.7153 39.8765 0.0000 0.0000 0.0000
# 3 25.9329 39.8765 76.2235 0.0000 0.0000 0.0000
# 4 0.0000 0.0000 0.0000 16.0929 0.0000 0.0000
# 5 0.0000 0.0000 0.0000 0.0000 32.0793 0.0000
# 6 0.0000 0.0000 0.0000 0.0000 0.0000 9.4866
#
#
#
# Elastic Compliance Matrix: (Units=1/GPa)
#
#
# Indices 1 2 3 4 5 6 
#
# 1 0.010379 -0.008523 0.000927 0.000000 0.000000 0.000000
# 2 -0.008523 0.017653 -0.006336 0.000000 0.000000 0.000000
# 3 0.000927 -0.006336 0.016118 0.000000 0.000000 0.000000
# 4 0.000000 0.000000 0.000000 0.062139 0.000000 0.000000
# 5 0.000000 0.000000 0.000000 0.000000 0.031173 0.000000
# 6 0.000000 0.000000 0.000000 0.000000 0.000000 0.105412
#
#
# Mechanical properties :
#
#
# Convention : Reuss Voigt Hill
#
# Bulk Modulus (GPa) = 61.39190 74.69700 68.04445
# Shear Modulus (GPa) = 18.10504 25.06151 21.58328
#
# Velocity S-wave (km/s) = 3.12124 3.67224 3.40789
# Velocity P-wave (km/s) = 6.78408 7.62719 7.21796
#
# Compressibility (1/GPa) = 0.01628879
#
# Stress axis : x y z
#
# Youngs Moduli (GPa) = 96.34564 56.64721 62.04131
#
# Poissons Ratio (x) = 0.48279 -0.05754
# Poissons Ratio (y) = 0.82113 0.39307
# Poissons Ratio (z) = -0.08935 0.35890
#
# Static dielectric constant tensor:
#      x y z
#    x 1.636170 0.000000 0.000000 
#    y 0.000000 1.617760 0.000000 
#    z 0.000000 0.000000 1.683550 
# 
# From -- ./inp_files/9286.got.cif
#   From: 2010.05.17/outbox.cif.g08.bks.cpg/sg65_5_cif.got.tgz:9286.got - 2010.06.03 17:01:31.
