data_PCOD9485854
_publ_section_title
;
Structure prediction by ZEFSAII (Michael W. Deem and Ramdas Pophale) SiO2 
 PCOD9485854
Probable space group: C M M M
;
_chemical_formula_sum "Si O2"
_cell_formula_units_Z 96
_cell_length_a 19.351775
_cell_length_b 8.084342
_cell_length_c 32.494549
_cell_angle_alpha 90.000000
_cell_angle_beta 90.000000
_cell_angle_gamma 90.000000
_cell_volume 5083.654152
_symmetry_space_group_name_H-M "C M M M"
_symmetry_group_IT_number 65
_symmetry_cell_setting 'orthorhombic'
loop_
_space_group_symop_operation_xyz
x,y,z
-x,-y,z
x,-y,-z
-x,y,-z
-x,-y,-z
x,y,-z
-x,y,z
x,-y,z
1/2+x,1/2+y,z
1/2-x,1/2-y,z
1/2+x,1/2-y,-z
1/2-x,1/2+y,-z
1/2-x,1/2-y,-z
1/2+x,1/2+y,-z
1/2-x,1/2+y,z
1/2+x,1/2-y,z
loop_
_atom_site_type_symbol
_atom_site_label
_atom_site_fract_x
_atom_site_fract_y
_atom_site_fract_z
Si Si1 0.421468 0.803117 0.210481
Si Si2 0.670524 0.299952 0.376980
Si Si3 0.170059 0.802243 0.133764
Si Si4 0.330759 0.699809 0.955792
Si Si5 0.920901 0.198541 0.300671
Si Si6 0.079500 0.201764 0.453479
O O1 0.500000 0.738502 0.204847
O O2 0.374328 0.756964 0.172113
O O3 0.395981 0.739476 0.254730
O O4 0.424312 0.000000 0.213078
O O5 0.667419 0.500000 0.377011
O O6 0.750000 0.250000 0.376162
O O7 0.628718 0.239926 0.336811
O O8 0.631261 0.241150 0.418143
O O9 0.250000 0.750000 0.137911
O O10 0.142957 0.741633 0.088814
O O11 0.167972 0.000000 0.133232
O O12 0.335102 0.500000 0.955921
O O13 0.250000 0.750000 0.955894
O O14 0.360081 0.758599 0.000000
O O15 0.000000 0.261451 0.304893
O O16 0.923917 0.000000 0.304255
O O17 0.097174 0.254897 0.500000
O O18 0.000000 0.250080 0.444765
O O19 0.080423 0.000000 0.453409
#
# Coordination Sequence:
#
# PCOD9485854 Si02
#       6
#    16  16  16  16  16  16
#     4  10  21  36  53  73  98 128 163 204 249 297
#     4  10  20  32  48  73 102 129 157 194 242 290
#     4  10  19  31  50  75 102 131 163 201 245 292
#     4   8  14  25  42  66  95 125 158 196 237 282
#     4   9  18  34  54  71  89 120 164 206 240 282
#     4   8  14  27  49  74  97 125 165 206 236 269
#
# _framework density 18.884053000000002
#
# number of rings (size 3 to 8) (size 9 to 14) (size 15 to 20)
#    0.000    2.833    0.000    2.000    0.000    5.333 
#    0.000    1.667    0.000    2.000    0.000    4.667 
#    0.000    0.000    0.000    0.000    0.000    0.000 
#
# Total GULP energy -267472.093978 kJ/mol
# GULP energy per Si atom -5572.335291 kJ/mol
# Density = 1.884107 g / cm^3
# Si number density = 18.884053 Si / 1000 Ang^3
#
#
#
# Elastic Constant Matrix: (Units=GPa)
#
#
# Indices 1 2 3 4 5 6 
#
# 1 82.0692 5.9425 108.1522 0.0000 0.0000 0.0000
# 2 5.9425 14.7000 12.3320 0.0000 0.0000 0.0000
# 3 108.1522 12.3320 225.4606 0.0000 0.0000 0.0000
# 4 0.0000 0.0000 0.0000 8.3124 0.0000 0.0000
# 5 0.0000 0.0000 0.0000 0.0000 38.4409 0.0000
# 6 0.0000 0.0000 0.0000 0.0000 0.0000 21.2616
#
#
#
# Elastic Compliance Matrix: (Units=1/GPa)
#
#
# Indices 1 2 3 4 5 6 
#
# 1 0.033124 -0.000064 -0.015886 0.000000 0.000000 0.000000
# 2 -0.000064 0.071299 -0.003869 0.000000 0.000000 0.000000
# 3 -0.015886 -0.003869 0.012267 0.000000 0.000000 0.000000
# 4 0.000000 0.000000 0.000000 0.120302 0.000000 0.000000
# 5 0.000000 0.000000 0.000000 0.000000 0.026014 0.000000
# 6 0.000000 0.000000 0.000000 0.000000 0.000000 0.047033
#
#
# Mechanical properties :
#
#
# Convention : Reuss Voigt Hill
#
# Bulk Modulus (GPa) = 12.97810 63.89814 38.43812
# Shear Modulus (GPa) = 13.32047 26.65653 19.98850
#
# Velocity S-wave (km/s) = 2.65878 3.76119 3.25697
# Velocity P-wave (km/s) = 4.03893 7.26448 5.87731
#
# Compressibility (1/GPa) = 0.07705289
#
# Stress axis : x y z
#
# Youngs Moduli (GPa) = 30.18918 14.02542 81.51623
#
# Poissons Ratio (x) = 0.00089 1.29498
# Poissons Ratio (y) = 0.00192 0.31541
# Poissons Ratio (z) = 0.47959 0.05427
#
# Static dielectric constant tensor:
#      x y z
#    x 1.621920 0.000000 0.000000 
#    y 0.000000 1.678310 0.000000 
#    z 0.000000 0.000000 1.692630 
# 
# From -- ./inp_files/75326.got.cif
#   From: 2010.05.17/outbox.cif.g08.bks.cpg/sg65_38_cif.got.tgz:75326.got - 2010.06.03 17:01:31.
