data_PCOD9485241
_publ_section_title
;
Structure prediction by ZEFSAII (Michael W. Deem and Ramdas Pophale) SiO2 
 PCOD9485241
Probable space group: C M M M
;
_chemical_formula_sum "Si O2"
_cell_formula_units_Z 72
_cell_length_a 8.782486
_cell_length_b 18.935402
_cell_length_c 24.144732
_cell_angle_alpha 90.000000
_cell_angle_beta 90.000000
_cell_angle_gamma 90.000000
_cell_volume 4015.266589
_symmetry_space_group_name_H-M "C M M M"
_symmetry_group_IT_number 65
_symmetry_cell_setting 'orthorhombic'
loop_
_space_group_symop_operation_xyz
x,y,z
-x,-y,z
x,-y,-z
-x,y,-z
-x,-y,-z
x,y,-z
-x,y,z
x,-y,z
1/2+x,1/2+y,z
1/2-x,1/2-y,z
1/2+x,1/2-y,-z
1/2-x,1/2+y,-z
1/2-x,1/2-y,-z
1/2+x,1/2+y,-z
1/2-x,1/2+y,z
1/2+x,1/2-y,z
loop_
_atom_site_type_symbol
_atom_site_label
_atom_site_fract_x
_atom_site_fract_y
_atom_site_fract_z
Si Si1 0.182759 0.328814 0.173445
Si Si2 0.317495 0.329523 0.060586
Si Si3 0.818813 0.328234 0.500000
Si Si4 0.182051 0.417137 0.718239
Si Si5 0.318450 0.416798 0.600386
O O1 0.250000 0.250000 0.178511
O O2 0.246962 0.361524 0.116249
O O3 0.225660 0.372969 0.227725
O O4 0.000000 0.325095 0.169802
O O5 0.500000 0.325821 0.065789
O O6 0.250000 0.250000 0.059227
O O7 0.281547 0.361595 0.000000
O O8 0.750000 0.250000 0.500000
O O9 0.761558 0.370631 0.446239
O O10 0.000000 0.324274 0.500000
O O11 0.214100 0.500000 0.727510
O O12 0.265725 0.395382 0.661907
O O13 0.000000 0.409521 0.710087
O O14 0.500000 0.410085 0.595145
O O15 0.278933 0.500000 0.593424
#
# Coordination Sequence:
#
# PCOD9485241 Si02
#       5
#    16  16   8  16  16
#     4  10  19  30  48  73 100 130 164 208 257 304
#     4   9  16  26  42  65  94 127 163 204 249 300
#     4  12  25  40  59  83 113 145 175 214 263 308
#     4   9  19  36  55  75 101 136 177 214 251 299
#     4  10  21  38  60  84 109 139 177 217 256 306
#
# _framework density 17.931560999999999
#
# number of rings (size 3 to 8) (size 9 to 14) (size 15 to 20)
#    0.000    2.222    0.000    4.667    0.000    6.667 
#    0.000    2.222    0.000    0.667    0.000    4.667 
#    0.000    0.000    0.000    0.000    0.000    0.000 
#
# Total GULP energy -200828.752801 kJ/mol
# GULP energy per Si atom -5578.576467 kJ/mol
# Density = 1.789075 g / cm^3
# Si number density = 17.931561 Si / 1000 Ang^3
#
#
#
# Elastic Constant Matrix: (Units=GPa)
#
#
# Indices 1 2 3 4 5 6 
#
# 1 78.9926 41.7147 83.7254 0.0000 0.0000 0.0000
# 2 41.7147 52.3034 80.2657 0.0000 0.0000 0.0000
# 3 83.7254 80.2657 209.4326 0.0000 0.0000 0.0000
# 4 0.0000 0.0000 0.0000 48.0082 0.0000 0.0000
# 5 0.0000 0.0000 0.0000 0.0000 34.4516 0.0000
# 6 0.0000 0.0000 0.0000 0.0000 0.0000 20.9888
#
#
#
# Elastic Compliance Matrix: (Units=1/GPa)
#
#
# Indices 1 2 3 4 5 6 
#
# 1 0.024260 -0.010842 -0.005544 0.000000 0.000000 0.000000
# 2 -0.010842 0.051267 -0.015314 0.000000 0.000000 0.000000
# 3 -0.005544 -0.015314 0.012860 0.000000 0.000000 0.000000
# 4 0.000000 0.000000 0.000000 0.020830 0.000000 0.000000
# 5 0.000000 0.000000 0.000000 0.000000 0.029026 0.000000
# 6 0.000000 0.000000 0.000000 0.000000 0.000000 0.047645
#
#
# Mechanical properties :
#
#
# Convention : Reuss Voigt Hill
#
# Bulk Modulus (GPa) = 40.01744 83.57113 61.79428
# Shear Modulus (GPa) = 19.40866 29.69125 24.54995
#
# Velocity S-wave (km/s) = 3.29351 4.07358 3.70414
# Velocity P-wave (km/s) = 6.06862 8.29652 7.26844
#
# Compressibility (1/GPa) = 0.02498911
#
# Stress axis : x y z
#
# Youngs Moduli (GPa) = 41.21939 19.50558 77.75968
#
# Poissons Ratio (x) = 0.21148 0.43106
# Poissons Ratio (y) = 0.44689 1.19082
# Poissons Ratio (z) = 0.22850 0.29871
#
# Static dielectric constant tensor:
#      x y z
#    x 1.603640 0.000000 0.000000 
#    y 0.000000 1.590290 0.000000 
#    z 0.000000 0.000000 1.637830 
# 
# From -- ./inp_files/67061.got.cif
#   From: 2010.05.17/outbox.cif.g08.bks.cpg/sg65_34_cif.got.tgz:67061.got - 2010.06.03 17:01:31.
