data_PCOD9485902
_publ_section_title
;
Structure prediction by ZEFSAII (Michael W. Deem and Ramdas Pophale) SiO2 
 PCOD9485902
Probable space group: C M M M
;
_chemical_formula_sum "Si O2"
_cell_formula_units_Z 72
_cell_length_a 30.587612
_cell_length_b 15.195298
_cell_length_c 7.515275
_cell_angle_alpha 90.000000
_cell_angle_beta 90.000000
_cell_angle_gamma 90.000000
_cell_volume 3493.008731
_symmetry_space_group_name_H-M "C M M M"
_symmetry_group_IT_number 65
_symmetry_cell_setting 'orthorhombic'
loop_
_space_group_symop_operation_xyz
x,y,z
-x,-y,z
x,-y,-z
-x,y,-z
-x,-y,-z
x,y,-z
-x,y,z
x,-y,z
1/2+x,1/2+y,z
1/2-x,1/2-y,z
1/2+x,1/2-y,-z
1/2-x,1/2+y,-z
1/2-x,1/2-y,-z
1/2+x,1/2+y,-z
1/2-x,1/2+y,z
1/2+x,1/2-y,z
loop_
_atom_site_type_symbol
_atom_site_label
_atom_site_fract_x
_atom_site_fract_y
_atom_site_fract_z
Si Si1 0.733530 0.654084 0.785572
Si Si2 0.947724 0.396501 0.000000
Si Si3 0.864812 0.098047 0.709010
Si Si4 0.401021 0.780042 0.295958
Si Si5 0.173731 0.405619 0.784669
O O1 0.750000 0.750000 0.726555
O O2 0.686628 0.621864 0.722217
O O3 0.775333 0.595869 0.738103
O O4 0.729782 0.656495 0.000000
O O5 0.929366 0.342840 0.169588
O O6 0.934048 0.500000 0.000000
O O7 0.000000 0.394717 0.000000
O O8 0.875152 0.094344 0.500000
O O9 0.892821 0.181252 0.777048
O O10 0.871965 0.000000 0.784778
O O11 0.416971 0.777405 0.500000
O O12 0.353294 0.825915 0.294616
O O13 0.154635 0.500000 0.732610
O O14 0.170988 0.397080 0.000000
#
# Coordination Sequence:
#
# PCOD9485902 Si02
#       5
#    16   8  16  16  16
#     4  10  19  31  50  77 115 164 216 266 309 350
#     4  11  26  48  73 100 129 155 185 237 305 385
#     4  10  22  38  56  83 122 168 218 268 310 352
#     4  11  23  40  65  94 126 162 204 253 307 367
#     4  10  19  32  51  78 118 163 206 255 305 352
#
# _framework density 20.612601999999999
#
# number of rings (size 3 to 8) (size 9 to 14) (size 15 to 20)
#    0.000    1.667    3.333    1.333    1.556    4.889 
#    0.000    1.111    0.000    1.333    0.000    3.111 
#    0.000    0.000    0.000    0.000    0.000    0.000 
#
# Total GULP energy -200946.043324 kJ/mol
# GULP energy per Si atom -5581.834537 kJ/mol
# Density = 2.056569 g / cm^3
# Si number density = 20.612602 Si / 1000 Ang^3
#
#
#
# Elastic Constant Matrix: (Units=GPa)
#
#
# Indices 1 2 3 4 5 6 
#
# 1 71.1228 47.2265 23.5852 0.0000 0.0000 0.0000
# 2 47.2265 202.8069 39.6813 0.0000 0.0000 0.0000
# 3 23.5852 39.6813 83.0522 0.0000 0.0000 0.0000
# 4 0.0000 0.0000 0.0000 12.6511 0.0000 0.0000
# 5 0.0000 0.0000 0.0000 0.0000 23.2096 0.0000
# 6 0.0000 0.0000 0.0000 0.0000 0.0000 26.2688
#
#
#
# Elastic Compliance Matrix: (Units=1/GPa)
#
#
# Indices 1 2 3 4 5 6 
#
# 1 0.017424 -0.003408 -0.003320 0.000000 0.000000 0.000000
# 2 -0.003408 0.006106 -0.001950 0.000000 0.000000 0.000000
# 3 -0.003320 -0.001950 0.013915 0.000000 0.000000 0.000000
# 4 0.000000 0.000000 0.000000 0.079044 0.000000 0.000000
# 5 0.000000 0.000000 0.000000 0.000000 0.043086 0.000000
# 6 0.000000 0.000000 0.000000 0.000000 0.000000 0.038068
#
#
# Mechanical properties :
#
#
# Convention : Reuss Voigt Hill
#
# Bulk Modulus (GPa) = 49.77553 64.21866 56.99709
# Shear Modulus (GPa) = 22.55363 28.85849 25.70606
#
# Velocity S-wave (km/s) = 3.31141 3.74577 3.53527
# Velocity P-wave (km/s) = 6.23066 7.06615 6.66151
#
# Compressibility (1/GPa) = 0.02009019
#
# Stress axis : x y z
#
# Youngs Moduli (GPa) = 57.39227 163.77852 71.86571
#
# Poissons Ratio (x) = 0.55813 0.23858
# Poissons Ratio (y) = 0.19558 0.14010
# Poissons Ratio (z) = 0.19053 0.31929
#
# Static dielectric constant tensor:
#      x y z
#    x 1.699750 0.000000 0.000000 
#    y 0.000000 1.807890 0.000000 
#    z 0.000000 0.000000 1.782590 
# 
# From -- ./inp_files/18034.got.cif
#   From: 2010.05.17/outbox.cif.g08.bks.cpg/sg65_10_cif.got.tgz:18034.got - 2010.06.03 17:01:31.
