data_PCOD9485992
_publ_section_title
;
Structure prediction by ZEFSAII (Michael W. Deem and Ramdas Pophale) SiO2 
 PCOD9485992
Probable space group: C M M M
;
_chemical_formula_sum "Si O2"
_cell_formula_units_Z 96
_cell_length_a 13.922609
_cell_length_b 23.647442
_cell_length_c 14.762285
_cell_angle_alpha 90.000000
_cell_angle_beta 90.000000
_cell_angle_gamma 90.000000
_cell_volume 4860.247451
_symmetry_space_group_name_H-M "C M M M"
_symmetry_group_IT_number 65
_symmetry_cell_setting 'orthorhombic'
loop_
_space_group_symop_operation_xyz
x,y,z
-x,-y,z
x,-y,-z
-x,y,-z
-x,-y,-z
x,y,-z
-x,y,z
x,-y,z
1/2+x,1/2+y,z
1/2-x,1/2-y,z
1/2+x,1/2-y,-z
1/2-x,1/2+y,-z
1/2-x,1/2-y,-z
1/2+x,1/2+y,-z
1/2-x,1/2+y,z
1/2+x,1/2-y,z
loop_
_atom_site_type_symbol
_atom_site_label
_atom_site_fract_x
_atom_site_fract_y
_atom_site_fract_z
Si Si1 0.608897 0.207064 0.354120
Si Si2 0.890718 0.339763 0.847864
Si Si3 0.606846 0.716625 0.894096
Si Si4 0.708462 0.397447 0.893133
Si Si5 0.819235 0.170554 0.396275
Si Si6 0.114409 0.062778 0.282055
O O1 0.500000 0.200986 0.391386
O O2 0.608865 0.174515 0.258328
O O3 0.704507 0.182316 0.400430
O O4 0.632459 0.274349 0.348695
O O5 0.854656 0.279866 0.887561
O O6 0.821721 0.389996 0.877072
O O7 0.000000 0.348426 0.878660
O O8 0.500000 0.716906 0.851628
O O9 0.667807 0.664147 0.861918
O O10 0.596719 0.705316 0.000000
O O11 0.658950 0.436472 0.819075
O O12 0.689319 0.408475 0.000000
O O13 0.855166 0.167936 0.500000
O O14 0.841879 0.113455 0.341839
O O15 0.000000 0.071524 0.275400
O O16 0.131674 0.000000 0.321477
#
# Coordination Sequence:
#
# PCOD9485992 Si02
#       6
#    16  16  16  16  16  16
#     4  10  20  35  59  93 131 164 193 236 296 362
#     4  10  19  31  51  80 119 161 195 232 284 353
#     4   9  17  27  42  72 111 149 189 231 279 339
#     4  11  21  35  57  82 114 154 199 250 298 347
#     4  11  23  39  62  93 127 161 200 247 301 362
#     4  11  25  44  64  86 116 156 203 254 305 360
#
# _framework density 19.752079999999999
#
# number of rings (size 3 to 8) (size 9 to 14) (size 15 to 20)
#    0.000    1.667    1.667    4.000    2.333    7.667 
#    0.000    1.667    0.000    2.000    0.000    2.333 
#    0.000    0.000    0.000    0.000    0.000    0.000 
#
# Total GULP energy -267627.996200 kJ/mol
# GULP energy per Si atom -5575.583254 kJ/mol
# Density = 1.970712 g / cm^3
# Si number density = 19.752080 Si / 1000 Ang^3
#
#
#
# Elastic Constant Matrix: (Units=GPa)
#
#
# Indices 1 2 3 4 5 6 
#
# 1 94.3301 42.3922 7.2337 0.0000 0.0000 0.0000
# 2 42.3922 92.8698 22.5977 0.0000 0.0000 0.0000
# 3 7.2337 22.5977 69.1164 0.0000 0.0000 0.0000
# 4 0.0000 0.0000 0.0000 4.8612 0.0000 0.0000
# 5 0.0000 0.0000 0.0000 0.0000 10.7099 0.0000
# 6 0.0000 0.0000 0.0000 0.0000 0.0000 19.8206
#
#
#
# Elastic Compliance Matrix: (Units=1/GPa)
#
#
# Indices 1 2 3 4 5 6 
#
# 1 0.013364 -0.006258 0.000647 0.000000 0.000000 0.000000
# 2 -0.006258 0.014629 -0.004128 0.000000 0.000000 0.000000
# 3 0.000647 -0.004128 0.015750 0.000000 0.000000 0.000000
# 4 0.000000 0.000000 0.000000 0.205710 0.000000 0.000000
# 5 0.000000 0.000000 0.000000 0.000000 0.093372 0.000000
# 6 0.000000 0.000000 0.000000 0.000000 0.000000 0.050453
#
#
# Mechanical properties :
#
#
# Convention : Reuss Voigt Hill
#
# Bulk Modulus (GPa) = 41.20991 44.52929 42.86960
# Shear Modulus (GPa) = 11.88095 19.35118 15.61607
#
# Velocity S-wave (km/s) = 2.45522 3.13342 2.81482
# Velocity P-wave (km/s) = 5.38018 5.97362 5.68465
#
# Compressibility (1/GPa) = 0.02426601
#
# Stress axis : x y z
#
# Youngs Moduli (GPa) = 74.83009 68.35932 63.49118
#
# Poissons Ratio (x) = 0.42776 -0.04110
# Poissons Ratio (y) = 0.46826 0.26209
# Poissons Ratio (z) = -0.04844 0.28218
#
# Static dielectric constant tensor:
#      x y z
#    x 1.770030 0.000000 0.000000 
#    y 0.000000 1.679800 0.000000 
#    z 0.000000 0.000000 1.732100 
# 
# From -- ./inp_files/40402.got.cif
#   From: 2010.05.17/outbox.cif.g08.bks.cpg/sg65_21_cif.got.tgz:40402.got - 2010.06.03 17:01:31.
