data_PCOD9485669
_publ_section_title
;
Structure prediction by ZEFSAII (Michael W. Deem and Ramdas Pophale) SiO2 
 PCOD9485669
Probable space group: C M M M
;
_chemical_formula_sum "Si O2"
_cell_formula_units_Z 104
_cell_length_a 8.204210
_cell_length_b 19.314172
_cell_length_c 34.719665
_cell_angle_alpha 90.000000
_cell_angle_beta 90.000000
_cell_angle_gamma 90.000000
_cell_volume 5501.592118
_symmetry_space_group_name_H-M "C M M M"
_symmetry_group_IT_number 65
_symmetry_cell_setting 'orthorhombic'
loop_
_space_group_symop_operation_xyz
x,y,z
-x,-y,z
x,-y,-z
-x,y,-z
-x,-y,-z
x,y,-z
-x,y,z
x,-y,z
1/2+x,1/2+y,z
1/2-x,1/2-y,z
1/2+x,1/2-y,-z
1/2-x,1/2+y,-z
1/2-x,1/2-y,-z
1/2+x,1/2+y,-z
1/2-x,1/2+y,z
1/2+x,1/2-y,z
loop_
_atom_site_type_symbol
_atom_site_label
_atom_site_fract_x
_atom_site_fract_y
_atom_site_fract_z
Si Si1 0.699414 0.419968 0.573671
Si Si2 0.803002 0.828528 0.732339
Si Si3 0.196912 0.171111 0.354420
Si Si4 0.803619 0.920719 0.803102
Si Si5 0.805109 0.171020 0.042934
Si Si6 0.194199 0.579011 0.113970
Si Si7 0.196862 0.829925 0.500000
O O1 0.500000 0.420749 0.573491
O O2 0.751946 0.500000 0.570722
O O3 0.752620 0.382276 0.612980
O O4 0.751380 0.372538 0.537704
O O5 0.750000 0.750000 0.739463
O O6 0.747460 0.847066 0.688977
O O7 0.743081 0.877071 0.766757
O O8 0.000000 0.831501 0.732178
O O9 0.250000 0.250000 0.362840
O O10 0.000000 0.170228 0.354492
O O11 0.755854 0.892468 0.845044
O O12 0.000000 0.921956 0.801311
O O13 0.743976 0.000000 0.800960
O O14 0.750000 0.250000 0.048850
O O15 0.744098 0.123398 0.077302
O O16 0.000000 0.169120 0.042881
O O17 0.747085 0.149547 0.000000
O O18 0.257671 0.500000 0.110313
O O19 0.000000 0.576660 0.115737
O O20 0.250000 0.750000 0.500000
O O21 0.000000 0.830274 0.500000
#
# Coordination Sequence:
#
# PCOD9485669 Si02
#       7
#    16  16  16  16  16  16   8
#     4   9  17  29  47  71  96 123 159 202 242 283
#     4   9  18  31  48  71  96 124 159 199 244 292
#     4   9  17  30  48  69  94 124 158 197 241 290
#     4   9  18  33  51  70  95 127 163 204 247 291
#     4  10  21  37  57  80 106 136 170 209 253 300
#     4  10  21  36  54  77 105 137 172 209 250 298
#     4  10  19  31  49  71  95 126 162 198 240 290
#
# _framework density 18.903618999999999
#
# number of rings (size 3 to 8) (size 9 to 14) (size 15 to 20)
#    0.000    2.615    0.000    1.615    0.000    4.923 
#    0.000    6.154    0.000    2.308    0.000    4.308 
#    0.000    0.000    0.000    0.000    0.000    0.000 
#
# Total GULP energy -290051.967803 kJ/mol
# GULP energy per Si atom -5577.922458 kJ/mol
# Density = 1.886059 g / cm^3
# Si number density = 18.903619 Si / 1000 Ang^3
#
#
#
# Elastic Constant Matrix: (Units=GPa)
#
#
# Indices 1 2 3 4 5 6 
#
# 1 10.8076 8.1138 15.7166 0.0000 0.0000 0.0000
# 2 8.1138 119.5003 122.5665 0.0000 0.0000 0.0000
# 3 15.7166 122.5665 202.7463 0.0000 0.0000 0.0000
# 4 0.0000 0.0000 0.0000 60.0591 0.0000 0.0000
# 5 0.0000 0.0000 0.0000 0.0000 9.9380 0.0000
# 6 0.0000 0.0000 0.0000 0.0000 0.0000 24.5881
#
#
#
# Elastic Compliance Matrix: (Units=1/GPa)
#
#
# Indices 1 2 3 4 5 6 
#
# 1 0.104746 0.003201 -0.010055 0.000000 0.000000 0.000000
# 2 0.003201 0.022122 -0.013621 0.000000 0.000000 0.000000
# 3 -0.010055 -0.013621 0.013946 0.000000 0.000000 0.000000
# 4 0.000000 0.000000 0.000000 0.016650 0.000000 0.000000
# 5 0.000000 0.000000 0.000000 0.000000 0.100623 0.000000
# 6 0.000000 0.000000 0.000000 0.000000 0.000000 0.040670
#
#
# Mechanical properties :
#
#
# Convention : Reuss Voigt Hill
#
# Bulk Modulus (GPa) = 10.01367 69.53866 39.77617
# Shear Modulus (GPa) = 13.40494 31.36087 22.38290
#
# Velocity S-wave (km/s) = 2.66582 4.07749 3.44474
# Velocity P-wave (km/s) = 3.84502 7.68333 6.07527
#
# Compressibility (1/GPa) = 0.09986351
#
# Stress axis : x y z
#
# Youngs Moduli (GPa) = 9.54688 45.20423 71.70358
#
# Poissons Ratio (x) = -0.14469 0.72096
# Poissons Ratio (y) = -0.03056 0.97671
# Poissons Ratio (z) = 0.09599 0.61575
#
# Static dielectric constant tensor:
#      x y z
#    x 1.662140 0.000000 0.000000 
#    y 0.000000 1.622960 0.000000 
#    z 0.000000 0.000000 1.664960 
# 
# From -- ./inp_files/73308.got.cif
#   From: 2010.05.17/outbox.cif.g08.bks.cpg/sg65_37_cif.got.tgz:73308.got - 2010.06.03 17:01:31.
