data_PCOD9485982
_publ_section_title
;
Structure prediction by ZEFSAII (Michael W. Deem and Ramdas Pophale) SiO2 
 PCOD9485982
Probable space group: C M M M
;
_chemical_formula_sum "Si O2"
_cell_formula_units_Z 96
_cell_length_a 22.604908
_cell_length_b 26.333723
_cell_length_c 9.105819
_cell_angle_alpha 90.000000
_cell_angle_beta 90.000000
_cell_angle_gamma 90.000000
_cell_volume 5420.433494
_symmetry_space_group_name_H-M "C M M M"
_symmetry_group_IT_number 65
_symmetry_cell_setting 'orthorhombic'
loop_
_space_group_symop_operation_xyz
x,y,z
-x,-y,z
x,-y,-z
-x,y,-z
-x,-y,-z
x,y,-z
-x,y,z
x,-y,z
1/2+x,1/2+y,z
1/2-x,1/2-y,z
1/2+x,1/2-y,-z
1/2-x,1/2+y,-z
1/2-x,1/2-y,-z
1/2+x,1/2+y,-z
1/2-x,1/2+y,z
1/2+x,1/2-y,z
loop_
_atom_site_type_symbol
_atom_site_label
_atom_site_fract_x
_atom_site_fract_y
_atom_site_fract_z
Si Si1 0.667418 0.941059 0.176249
Si Si2 0.571324 0.754865 0.330962
Si Si3 0.284123 0.399700 0.330553
Si Si4 0.883674 0.845646 0.825450
Si Si5 0.908006 0.055742 0.329901
Si Si6 0.568922 0.859256 0.824295
O O1 0.724850 0.919317 0.257306
O O2 0.610923 0.906377 0.212222
O O3 0.658407 0.000000 0.214800
O O4 0.676697 0.938235 0.000000
O O5 0.590993 0.751433 0.500000
O O6 0.500000 0.753744 0.328742
O O7 0.593669 0.706800 0.240184
O O8 0.588880 0.808320 0.258505
O O9 0.275126 0.384753 0.500000
O O10 0.317622 0.356282 0.237380
O O11 0.336083 0.442244 0.329301
O O12 0.921610 0.893841 0.763124
O O13 0.884463 0.845930 0.000000
O O14 0.926443 0.062213 0.500000
O O15 0.927543 0.000000 0.278427
O O16 0.500000 0.869147 0.788116
O O17 0.572209 0.850613 0.000000
#
# Coordination Sequence:
#
# PCOD9485982 Si02
#       6
#    16  16  16  16  16  16
#     4  10  20  33  52  80 111 142 178 218 261 314
#     4  10  20  36  58  80 103 135 178 223 266 317
#     4   9  18  32  49  73 105 140 177 213 255 308
#     4  10  19  31  51  79 108 138 174 218 266 315
#     4   8  15  28  46  69 100 137 173 207 248 302
#     4   9  19  36  56  78 106 140 177 220 269 316
#
# _framework density 17.710761999999999
#
# number of rings (size 3 to 8) (size 9 to 14) (size 15 to 20)
#    1.000    1.667    0.000    2.500    0.000    3.333 
#    0.000    2.500    0.000    5.500    0.000    7.000 
#    0.000    0.000    0.000    0.000    0.000    0.000 
#
# Total GULP energy -267227.817219 kJ/mol
# GULP energy per Si atom -5567.246192 kJ/mol
# Density = 1.767045 g / cm^3
# Si number density = 17.710762 Si / 1000 Ang^3
#
#
#
# Elastic Constant Matrix: (Units=GPa)
#
#
# Indices 1 2 3 4 5 6 
#
# 1 59.5552 51.5049 37.7638 0.0000 0.0000 0.0000
# 2 51.5049 113.1782 64.3642 0.0000 0.0000 0.0000
# 3 37.7638 64.3642 90.0832 0.0000 0.0000 0.0000
# 4 0.0000 0.0000 0.0000 14.8252 0.0000 0.0000
# 5 0.0000 0.0000 0.0000 0.0000 19.4018 0.0000
# 6 0.0000 0.0000 0.0000 0.0000 0.0000 22.0723
#
#
#
# Elastic Compliance Matrix: (Units=1/GPa)
#
#
# Indices 1 2 3 4 5 6 
#
# 1 0.028757 -0.010496 -0.004556 0.000000 0.000000 0.000000
# 2 -0.010496 0.018714 -0.008971 0.000000 0.000000 0.000000
# 3 -0.004556 -0.008971 0.019421 0.000000 0.000000 0.000000
# 4 0.000000 0.000000 0.000000 0.067453 0.000000 0.000000
# 5 0.000000 0.000000 0.000000 0.000000 0.051542 0.000000
# 6 0.000000 0.000000 0.000000 0.000000 0.000000 0.045306
#
#
# Mechanical properties :
#
#
# Convention : Reuss Voigt Hill
#
# Bulk Modulus (GPa) = 53.06226 63.34249 58.20237
# Shear Modulus (GPa) = 17.51195 18.53876 18.02535
#
# Velocity S-wave (km/s) = 3.14789 3.23886 3.19370
# Velocity P-wave (km/s) = 6.57554 7.05901 6.82156
#
# Compressibility (1/GPa) = 0.01884579
#
# Stress axis : x y z
#
# Youngs Moduli (GPa) = 34.77400 53.43661 51.49161
#
# Poissons Ratio (x) = 0.56085 0.23461
# Poissons Ratio (y) = 0.36497 0.46193
# Poissons Ratio (z) = 0.15844 0.47938
#
# Static dielectric constant tensor:
#      x y z
#    x 1.607450 0.000000 0.000000 
#    y 0.000000 1.590500 0.000000 
#    z 0.000000 0.000000 1.596130 
# 
# From -- ./inp_files/12266.got.cif
#   From: 2010.05.17/outbox.cif.g08.bks.cpg/sg65_7_cif.got.tgz:12266.got - 2010.06.03 17:01:31.
