data_PCOD9485469
_publ_section_title
;
Structure prediction by ZEFSAII (Michael W. Deem and Ramdas Pophale) SiO2 
 PCOD9485469
Probable space group: C M M M
;
_chemical_formula_sum "Si O2"
_cell_formula_units_Z 80
_cell_length_a 8.653945
_cell_length_b 28.261950
_cell_length_c 19.249933
_cell_angle_alpha 90.000000
_cell_angle_beta 90.000000
_cell_angle_gamma 90.000000
_cell_volume 4708.097811
_symmetry_space_group_name_H-M "C M M M"
_symmetry_group_IT_number 65
_symmetry_cell_setting 'orthorhombic'
loop_
_space_group_symop_operation_xyz
x,y,z
-x,-y,z
x,-y,-z
-x,y,-z
-x,-y,-z
x,y,-z
-x,y,z
x,-y,z
1/2+x,1/2+y,z
1/2-x,1/2-y,z
1/2+x,1/2-y,-z
1/2-x,1/2+y,-z
1/2-x,1/2-y,-z
1/2+x,1/2+y,-z
1/2-x,1/2+y,z
1/2+x,1/2-y,z
loop_
_atom_site_type_symbol
_atom_site_label
_atom_site_fract_x
_atom_site_fract_y
_atom_site_fract_z
Si Si1 0.683984 0.644498 0.709275
Si Si2 0.315030 0.197646 0.419671
Si Si3 0.312330 0.105182 0.922538
Si Si4 0.685310 0.801512 0.841533
Si Si5 0.812863 0.445994 0.217130
O O1 0.500000 0.646322 0.711424
O O2 0.744886 0.661202 0.634890
O O3 0.751391 0.680064 0.767687
O O4 0.742788 0.592606 0.731135
O O5 0.275754 0.186753 0.500000
O O6 0.500000 0.198492 0.413024
O O7 0.250000 0.250000 0.404308
O O8 0.500000 0.103508 0.924526
O O9 0.270177 0.157983 0.897083
O O10 0.265193 0.069848 0.860888
O O11 0.255296 0.094781 0.000000
O O12 0.500000 0.799907 0.838037
O O13 0.750000 0.750000 0.857994
O O14 0.768596 0.500000 0.231054
O O15 0.000000 0.442514 0.220393
#
# Coordination Sequence:
#
# PCOD9485469 Si02
#       5
#    16  16  16  16  16
#     4  11  21  33  51  73 100 132 166 205 244 287
#     4  10  20  34  53  78 108 138 166 197 236 284
#     4   8  15  28  46  70  98 126 159 201 248 298
#     4  10  19  31  47  68  96 130 168 206 245 292
#     4   9  18  33  53  75  98 126 162 205 252 300
#
# _framework density 16.992000999999998
#
# number of rings (size 3 to 8) (size 9 to 14) (size 15 to 20)
#    0.000    2.400    0.000    4.800    0.000    2.400 
#    0.000    2.000    0.000   15.000    0.000    9.800 
#    0.000    0.000    0.000    0.000    0.000    0.000 
#
# Total GULP energy -223164.729616 kJ/mol
# GULP energy per Si atom -5579.118240 kJ/mol
# Density = 1.695333 g / cm^3
# Si number density = 16.992001 Si / 1000 Ang^3
#
#
#
# Elastic Constant Matrix: (Units=GPa)
#
#
# Indices 1 2 3 4 5 6 
#
# 1 52.4238 30.3574 34.5045 0.0000 0.0000 0.0000
# 2 30.3574 97.1885 59.5743 0.0000 0.0000 0.0000
# 3 34.5045 59.5743 115.8644 0.0000 0.0000 0.0000
# 4 0.0000 0.0000 0.0000 9.5892 0.0000 0.0000
# 5 0.0000 0.0000 0.0000 0.0000 10.6217 0.0000
# 6 0.0000 0.0000 0.0000 0.0000 0.0000 26.2195
#
#
#
# Elastic Compliance Matrix: (Units=1/GPa)
#
#
# Indices 1 2 3 4 5 6 
#
# 1 0.025153 -0.004768 -0.005039 0.000000 0.000000 0.000000
# 2 -0.004768 0.015928 -0.006770 0.000000 0.000000 0.000000
# 3 -0.005039 -0.006770 0.013612 0.000000 0.000000 0.000000
# 4 0.000000 0.000000 0.000000 0.104284 0.000000 0.000000
# 5 0.000000 0.000000 0.000000 0.000000 0.094147 0.000000
# 6 0.000000 0.000000 0.000000 0.000000 0.000000 0.038139
#
#
# Mechanical properties :
#
#
# Convention : Reuss Voigt Hill
#
# Bulk Modulus (GPa) = 46.42577 57.14987 51.78782
# Shear Modulus (GPa) = 15.07851 18.68880 16.88366
#
# Velocity S-wave (km/s) = 2.98214 3.32001 3.15560
# Velocity P-wave (km/s) = 6.26410 6.95723 6.61974
#
# Compressibility (1/GPa) = 0.02153976
#
# Stress axis : x y z
#
# Youngs Moduli (GPa) = 39.75694 62.78071 73.46236
#
# Poissons Ratio (x) = 0.29933 0.37018
# Poissons Ratio (y) = 0.18955 0.49735
# Poissons Ratio (z) = 0.20034 0.42503
#
# Static dielectric constant tensor:
#      x y z
#    x 1.574910 0.000000 0.000000 
#    y 0.000000 1.555760 0.000000 
#    z 0.000000 0.000000 1.572500 
# 
# From -- ./inp_files/49854.got.cif
#   From: 2010.05.17/outbox.cif.g08.bks.cpg/sg65_25_cif.got.tgz:49854.got - 2010.06.03 17:01:31.
