data_PCOD9485691
_publ_section_title
;
Structure prediction by ZEFSAII (Michael W. Deem and Ramdas Pophale) SiO2 
 PCOD9485691
Probable space group: C M M M
;
_chemical_formula_sum "Si O2"
_cell_formula_units_Z 96
_cell_length_a 14.512818
_cell_length_b 9.254244
_cell_length_c 32.687341
_cell_angle_alpha 90.000000
_cell_angle_beta 90.000000
_cell_angle_gamma 90.000000
_cell_volume 4390.078527
_symmetry_space_group_name_H-M "C M M M"
_symmetry_group_IT_number 65
_symmetry_cell_setting 'orthorhombic'
loop_
_space_group_symop_operation_xyz
x,y,z
-x,-y,z
x,-y,-z
-x,y,-z
-x,-y,-z
x,y,-z
-x,y,z
x,-y,z
1/2+x,1/2+y,z
1/2-x,1/2-y,z
1/2+x,1/2-y,-z
1/2-x,1/2+y,-z
1/2-x,1/2-y,-z
1/2+x,1/2+y,-z
1/2-x,1/2+y,z
1/2+x,1/2-y,z
loop_
_atom_site_type_symbol
_atom_site_label
_atom_site_fract_x
_atom_site_fract_y
_atom_site_fract_z
Si Si1 0.112939 0.164649 0.293008
Si Si2 0.612344 0.666903 0.454417
Si Si3 0.349618 0.326442 0.955884
Si Si4 0.392543 0.839292 0.214490
Si Si5 0.150822 0.173828 0.867117
Si Si6 0.387356 0.835758 0.625848
O O1 0.144935 0.254003 0.253509
O O2 0.139872 0.241355 0.335112
O O3 0.000000 0.161156 0.292491
O O4 0.145104 0.000000 0.291200
O O5 0.640036 0.715333 0.500000
O O6 0.500000 0.667007 0.453964
O O7 0.640691 0.500000 0.448697
O O8 0.642244 0.765416 0.416890
O O9 0.337044 0.500000 0.955545
O O10 0.250000 0.250000 0.956223
O O11 0.393496 0.292716 0.911697
O O12 0.393665 0.289626 0.000000
O O13 0.500000 0.857919 0.223738
O O14 0.389460 0.745293 0.173367
O O15 0.351382 0.000000 0.208635
O O16 0.250000 0.250000 0.869446
O O17 0.154988 0.000000 0.862771
O O18 0.500000 0.837677 0.625656
O O19 0.355450 0.000000 0.629847
#
# Coordination Sequence:
#
# PCOD9485691 Si02
#       6
#    16  16  16  16  16  16
#     4   9  16  26  40  56  74  99 134 174 215 260
#     4   8  13  20  28  38  55  82 117 157 201 248
#     4   8  14  25  42  65  91 117 146 181 219 259
#     4  10  20  33  48  66  90 119 152 191 232 272
#     4  10  19  31  49  72  97 123 152 186 225 270
#     4   9  15  21  30  45  65  89 120 161 207 252
#
# _framework density 21.867491000000001
#
# number of rings (size 3 to 8) (size 9 to 14) (size 15 to 20)
#    0.000    3.000    0.000    2.500    0.000    6.000 
#    0.000    1.667    0.000    0.500    0.000    3.500 
#    0.000    0.000    0.000    0.000    0.000    0.833 
#
# Total GULP energy -267709.812390 kJ/mol
# GULP energy per Si atom -5577.287758 kJ/mol
# Density = 2.181772 g / cm^3
# Si number density = 21.867491 Si / 1000 Ang^3
#
#
#
# Elastic Constant Matrix: (Units=GPa)
#
#
# Indices 1 2 3 4 5 6 
#
# 1 57.3328 11.7517 7.2043 0.0000 0.0000 0.0000
# 2 11.7517 150.8367 122.3202 0.0000 0.0000 0.0000
# 3 7.2043 122.3202 241.1397 0.0000 0.0000 0.0000
# 4 0.0000 0.0000 0.0000 40.7467 0.0000 0.0000
# 5 0.0000 0.0000 0.0000 0.0000 -4.7944 0.0000
# 6 0.0000 0.0000 0.0000 0.0000 0.0000 4.9422
#
#
#
# Elastic Compliance Matrix: (Units=1/GPa)
#
#
# Indices 1 2 3 4 5 6 
#
# 1 0.017737 -0.001618 0.000291 0.000000 0.000000 0.000000
# 2 -0.001618 0.011410 -0.005740 0.000000 0.000000 0.000000
# 3 0.000291 -0.005740 0.007050 0.000000 0.000000 0.000000
# 4 0.000000 0.000000 0.000000 0.024542 0.000000 0.000000
# 5 0.000000 0.000000 0.000000 0.000000 -0.208576 0.000000
# 6 0.000000 0.000000 0.000000 0.000000 0.000000 0.202339
#
#
# Mechanical properties :
#
#
# Convention : Reuss Voigt Hill
#
# Bulk Modulus (GPa) = 45.32286 81.31795 63.32041
# Shear Modulus (GPa) = 65.79883 28.71443 47.25663
#
# Velocity S-wave (km/s) = 5.49137 3.62762 4.65375
# Velocity P-wave (km/s) = 7.80884 7.40362 7.60893
#
# Compressibility (1/GPa) = 0.02206392
#
# Stress axis : x y z
#
# Youngs Moduli (GPa) = 56.37907 87.64079 141.84890
#
# Poissons Ratio (x) = 0.14177 -0.04122
# Poissons Ratio (y) = 0.09120 0.81416
# Poissons Ratio (z) = -0.01638 0.50302
#
# Static dielectric constant tensor:
#      x y z
#    x 1.941610 0.000000 0.000000 
#    y 0.000000 1.757600 0.000000 
#    z 0.000000 0.000000 1.811600 
# 
# From -- ./inp_files/73456.got.cif
#   From: 2010.05.17/outbox.cif.g08.bks.cpg/sg65_37_cif.got.tgz:73456.got - 2010.06.03 17:01:31.
