data_PCOD9485845
_publ_section_title
;
Structure prediction by ZEFSAII (Michael W. Deem and Ramdas Pophale) SiO2 
 PCOD9485845
Probable space group: C M M M
;
_chemical_formula_sum "Si O2"
_cell_formula_units_Z 80
_cell_length_a 8.382129
_cell_length_b 19.846332
_cell_length_c 27.048307
_cell_angle_alpha 90.000000
_cell_angle_beta 90.000000
_cell_angle_gamma 90.000000
_cell_volume 4499.607993
_symmetry_space_group_name_H-M "C M M M"
_symmetry_group_IT_number 65
_symmetry_cell_setting 'orthorhombic'
loop_
_space_group_symop_operation_xyz
x,y,z
-x,-y,z
x,-y,-z
-x,y,-z
-x,-y,-z
x,y,-z
-x,y,z
x,-y,z
1/2+x,1/2+y,z
1/2-x,1/2-y,z
1/2+x,1/2-y,-z
1/2-x,1/2+y,-z
1/2-x,1/2-y,-z
1/2+x,1/2+y,-z
1/2-x,1/2+y,z
1/2+x,1/2-y,z
loop_
_atom_site_type_symbol
_atom_site_label
_atom_site_fract_x
_atom_site_fract_y
_atom_site_fract_z
Si Si1 0.807249 0.577479 0.356554
Si Si2 0.192753 0.672482 0.946930
Si Si3 0.307121 0.826017 0.555680
Si Si4 0.309273 0.422487 0.751435
Si Si5 0.691369 0.827103 0.838616
O O1 0.754284 0.500000 0.363249
O O2 0.750511 0.624372 0.401253
O O3 0.750688 0.600240 0.302509
O O4 0.000000 0.577991 0.356790
O O5 0.250000 0.750000 0.947262
O O6 0.245067 0.646347 0.893135
O O7 0.000000 0.671254 0.947005
O O8 0.246318 0.642456 0.000000
O O9 0.255828 0.845752 0.500000
O O10 0.500000 0.826561 0.556194
O O11 0.250000 0.750000 0.564512
O O12 0.500000 0.422867 0.750962
O O13 0.252746 0.500000 0.758657
O O14 0.251350 0.374154 0.794827
O O15 0.500000 0.826189 0.837890
O O16 0.750000 0.750000 0.833067
#
# Coordination Sequence:
#
# PCOD9485845 Si02
#       5
#    16  16  16  16  16
#     4   9  18  33  52  72  94 123 161 201 239 283
#     4   8  14  25  42  66  95 124 154 191 236 284
#     4   9  18  32  50  73 100 128 156 189 233 283
#     4  10  21  36  52  70  96 130 166 205 248 292
#     4  10  19  31  50  75 101 128 161 201 243 290
#
# _framework density 17.779326999999999
#
# number of rings (size 3 to 8) (size 9 to 14) (size 15 to 20)
#    0.000    2.800    0.000    1.200    0.000    4.000 
#    0.000    4.000    0.000    0.600    0.000    9.800 
#    0.000    0.000    0.000    0.000    0.000    0.000 
#
# Total GULP energy -222792.820545 kJ/mol
# GULP energy per Si atom -5569.820514 kJ/mol
# Density = 1.773886 g / cm^3
# Si number density = 17.779327 Si / 1000 Ang^3
#
#
#
# Elastic Constant Matrix: (Units=GPa)
#
#
# Indices 1 2 3 4 5 6 
#
# 1 14.4482 11.8490 24.9877 0.0000 0.0000 0.0000
# 2 11.8490 59.2188 97.3978 0.0000 0.0000 0.0000
# 3 24.9877 97.3978 229.2421 0.0000 0.0000 0.0000
# 4 0.0000 0.0000 0.0000 -27.0709 0.0000 0.0000
# 5 0.0000 0.0000 0.0000 0.0000 15.8430 0.0000
# 6 0.0000 0.0000 0.0000 0.0000 0.0000 20.6495
#
#
#
# Elastic Compliance Matrix: (Units=1/GPa)
#
#
# Indices 1 2 3 4 5 6 
#
# 1 0.085915 -0.005936 -0.006843 0.000000 0.000000 0.000000
# 2 -0.005936 0.056472 -0.023346 0.000000 0.000000 0.000000
# 3 -0.006843 -0.023346 0.015027 0.000000 0.000000 0.000000
# 4 0.000000 0.000000 0.000000 -0.036940 0.000000 0.000000
# 5 0.000000 0.000000 0.000000 0.000000 0.063119 0.000000
# 6 0.000000 0.000000 0.000000 0.000000 0.000000 0.048427
#
#
# Mechanical properties :
#
#
# Convention : Reuss Voigt Hill
#
# Bulk Modulus (GPa) = 11.74205 63.48647 37.61426
# Shear Modulus (GPa) = 15.03042 13.12930 14.07986
#
# Velocity S-wave (km/s) = 2.91071 2.72041 2.81717
# Velocity P-wave (km/s) = 4.23261 6.75670 5.63773
#
# Compressibility (1/GPa) = 0.08516402
#
# Stress axis : x y z
#
# Youngs Moduli (GPa) = 11.63939 17.70796 66.54652
#
# Poissons Ratio (x) = 0.10512 0.45536
# Poissons Ratio (y) = 0.06909 1.55360
# Poissons Ratio (z) = 0.07965 0.41341
#
# Static dielectric constant tensor:
#      x y z
#    x 1.612980 0.000000 0.000000 
#    y 0.000000 1.540000 0.000000 
#    z 0.000000 0.000000 1.644600 
# 
# From -- ./inp_files/72712.got.cif
#   From: 2010.05.17/outbox.cif.g08.bks.cpg/sg65_37_cif.got.tgz:72712.got - 2010.06.03 17:01:31.
