data_PCOD9485651
_publ_section_title
;
Structure prediction by ZEFSAII (Michael W. Deem and Ramdas Pophale) SiO2 
 PCOD9485651
Probable space group: C M M M
;
_chemical_formula_sum "Si O2"
_cell_formula_units_Z 80
_cell_length_a 15.577031
_cell_length_b 33.203491
_cell_length_c 7.464396
_cell_angle_alpha 90.000000
_cell_angle_beta 90.000000
_cell_angle_gamma 90.000000
_cell_volume 3860.673755
_symmetry_space_group_name_H-M "C M M M"
_symmetry_group_IT_number 65
_symmetry_cell_setting 'orthorhombic'
loop_
_space_group_symop_operation_xyz
x,y,z
-x,-y,z
x,-y,-z
-x,y,-z
-x,-y,-z
x,y,-z
-x,y,z
x,-y,z
1/2+x,1/2+y,z
1/2-x,1/2-y,z
1/2+x,1/2-y,-z
1/2-x,1/2+y,-z
1/2-x,1/2-y,-z
1/2+x,1/2+y,-z
1/2-x,1/2+y,z
1/2+x,1/2-y,z
loop_
_atom_site_type_symbol
_atom_site_label
_atom_site_fract_x
_atom_site_fract_y
_atom_site_fract_z
Si Si1 0.346336 0.739203 0.216149
Si Si2 0.596505 0.046710 0.718546
Si Si3 0.232630 0.610687 0.707800
Si Si4 0.907693 0.324760 0.216743
Si Si5 0.595516 0.648878 0.711164
O O1 0.250000 0.750000 0.275384
O O2 0.401117 0.778069 0.269117
O O3 0.379902 0.696043 0.275856
O O4 0.345672 0.737407 0.000000
O O5 0.596044 0.048839 0.500000
O O6 0.500000 0.058505 0.777279
O O7 0.672309 0.075549 0.785331
O O8 0.609794 0.000000 0.766480
O O9 0.247135 0.600025 0.500000
O O10 0.172361 0.650116 0.714320
O O11 0.324892 0.622921 0.786763
O O12 0.000000 0.341410 0.275077
O O13 0.903689 0.326411 0.000000
O O14 0.591428 0.639707 0.500000
O O15 0.500000 0.642490 0.786849
#
# Coordination Sequence:
#
# PCOD9485651 Si02
#       5
#    16  16  16  16  16
#     4  10  19  33  51  67  88 122 163 201 234 275
#     4   8  14  26  46  72  97 118 145 184 229 279
#     4  10  19  31  49  70  93 121 156 194 230 275
#     4  10  20  32  46  67  95 123 151 190 238 280
#     4  10  21  34  47  66  94 127 161 199 240 276
#
# _framework density 20.721771
#
# number of rings (size 3 to 8) (size 9 to 14) (size 15 to 20)
#    0.000    2.400    2.000    1.800    0.000    3.600 
#    0.000    0.000    0.000    1.200    0.000    7.000 
#    0.000    0.000    0.000    3.600    0.000    4.200 
#
# Total GULP energy -223264.166082 kJ/mol
# GULP energy per Si atom -5581.604152 kJ/mol
# Density = 2.067461 g / cm^3
# Si number density = 20.721771 Si / 1000 Ang^3
#
#
#
# Elastic Constant Matrix: (Units=GPa)
#
#
# Indices 1 2 3 4 5 6 
#
# 1 215.8669 84.5777 7.7437 0.0000 0.0000 0.0000
# 2 84.5777 113.8669 -0.5009 0.0000 0.0000 0.0000
# 3 7.7437 -0.5009 59.9886 0.0000 0.0000 0.0000
# 4 0.0000 0.0000 0.0000 36.2264 0.0000 0.0000
# 5 0.0000 0.0000 0.0000 0.0000 -0.3227 0.0000
# 6 0.0000 0.0000 0.0000 0.0000 0.0000 32.2058
#
#
#
# Elastic Compliance Matrix: (Units=1/GPa)
#
#
# Indices 1 2 3 4 5 6 
#
# 1 0.006581 -0.004892 -0.000890 0.000000 0.000000 0.000000
# 2 -0.004892 0.012419 0.000735 0.000000 0.000000 0.000000
# 3 -0.000890 0.000735 0.016791 0.000000 0.000000 0.000000
# 4 0.000000 0.000000 0.000000 0.027604 0.000000 0.000000
# 5 0.000000 0.000000 0.000000 0.000000 -3.098376 0.000000
# 6 0.000000 0.000000 0.000000 0.000000 0.000000 0.031050
#
#
# Mechanical properties :
#
#
# Convention : Reuss Voigt Hill
#
# Bulk Modulus (GPa) = 38.91580 63.70705 51.31143
# Shear Modulus (GPa) = -1.67489 33.48201 15.90356
#
# Velocity S-wave (km/s) = -0.90002 4.02405 2.77335
# Velocity P-wave (km/s) = 4.21199 7.23888 5.92209
#
# Compressibility (1/GPa) = 0.02569650
#
# Stress axis : x y z
#
# Youngs Moduli (GPa) = 151.94654 80.51965 59.55603
#
# Poissons Ratio (x) = 0.39393 0.05303
# Poissons Ratio (y) = 0.74337 -0.04379
# Poissons Ratio (z) = 0.13529 -0.05920
#
# Static dielectric constant tensor:
#      x y z
#    x 1.779000 0.000000 0.000000 
#    y 0.000000 1.712240 0.000000 
#    z 0.000000 0.000000 1.796850 
# 
# From -- ./inp_files/24974.got.cif
#   From: 2010.05.17/outbox.cif.g08.bks.cpg/sg65_13_cif.got.tgz:24974.got - 2010.06.03 17:01:31.
