data_PCOD9485400
_publ_section_title
;
Structure prediction by ZEFSAII (Michael W. Deem and Ramdas Pophale) SiO2 
 PCOD9485400
Probable space group: C M M M
;
_chemical_formula_sum "Si O2"
_cell_formula_units_Z 74
_cell_length_a 25.820788
_cell_length_b 14.758227
_cell_length_c 14.012950
_cell_angle_alpha 90.000000
_cell_angle_beta 90.000000
_cell_angle_gamma 90.000000
_cell_volume 5339.901553
_symmetry_space_group_name_H-M "C M M M"
_symmetry_group_IT_number 65
_symmetry_cell_setting 'orthorhombic'
loop_
_space_group_symop_operation_xyz
x,y,z
-x,-y,z
x,-y,-z
-x,y,-z
-x,-y,-z
x,y,-z
-x,y,z
x,-y,z
1/2+x,1/2+y,z
1/2-x,1/2-y,z
1/2+x,1/2-y,-z
1/2-x,1/2+y,-z
1/2-x,1/2-y,-z
1/2+x,1/2+y,-z
1/2-x,1/2+y,z
1/2+x,1/2-y,z
loop_
_atom_site_type_symbol
_atom_site_label
_atom_site_fract_x
_atom_site_fract_y
_atom_site_fract_z
Si Si1 0.061283 0.892277 0.111565
Si Si2 0.500000 0.309911 0.604705
Si Si3 0.352362 0.500000 0.614957
Si Si4 0.393550 0.684942 0.294985
Si Si5 0.195202 0.302275 0.386337
Si Si6 0.768657 0.500000 0.384817
Si Si7 0.000000 0.000000 0.500000
O O1 0.096200 0.835812 0.184147
O O2 0.000000 0.876407 0.130937
O O3 0.070114 0.000000 0.126587
O O4 0.070569 0.872944 0.000000
O O5 0.500000 0.266087 0.500000
O O6 0.448168 0.285910 0.660251
O O7 0.500000 0.418423 0.581707
O O8 0.357804 0.500000 0.500000
O O9 0.378357 0.410148 0.655300
O O10 0.291826 0.500000 0.642418
O O11 0.348487 0.753784 0.324150
O O12 0.181649 0.297601 0.500000
O O13 0.250000 0.250000 0.376803
O O14 0.204329 0.406371 0.356913
O O15 0.768030 0.500000 0.500000
#
# Coordination Sequence:
#
# PCOD9485400 Si02
#       7
#    16   8   8  16  16   8   2
#     4   9  18  31  45  65  95 128 160 192 234 290
#     4  10  20  26  35  65 102 127 146 179 231 290
#     4  11  19  25  43  70 100 130 153 191 226 275
#     4  12  19  28  46  68  96 129 160 189 234 282
#     4  10  19  31  46  69  96 129 164 194 227 273
#     4   9  18  33  45  64  96 129 166 199 223 257
#     4   8  20  28  32  56 110 134 136 176 236 286
#
# _framework density 13.857932999999999
#
# number of rings (size 3 to 8) (size 9 to 14) (size 15 to 20)
#    0.324    1.514    4.324    3.243    1.514    0.000 
#    0.000    0.000    0.000    1.297    0.000    3.784 
#    0.000    1.730    0.000    0.000    0.000    0.000 
#
# Total GULP energy -205973.653695 kJ/mol
# GULP energy per Si atom -5566.855505 kJ/mol
# Density = 1.382639 g / cm^3
# Si number density = 13.857933 Si / 1000 Ang^3
#
#
#
# Elastic Constant Matrix: (Units=GPa)
#
#
# Indices 1 2 3 4 5 6 
#
# 1 98.1729 44.6615 49.4932 0.0000 0.0000 0.0000
# 2 44.6615 77.2536 31.5251 0.0000 0.0000 0.0000
# 3 49.4932 31.5251 81.0576 0.0000 0.0000 0.0000
# 4 0.0000 0.0000 0.0000 16.2713 0.0000 0.0000
# 5 0.0000 0.0000 0.0000 0.0000 9.5533 0.0000
# 6 0.0000 0.0000 0.0000 0.0000 0.0000 22.9923
#
#
#
# Elastic Compliance Matrix: (Units=1/GPa)
#
#
# Indices 1 2 3 4 5 6 
#
# 1 0.017237 -0.006740 -0.007903 0.000000 0.000000 0.000000
# 2 -0.006740 0.018022 -0.002894 0.000000 0.000000 0.000000
# 3 -0.007903 -0.002894 0.018288 0.000000 0.000000 0.000000
# 4 0.000000 0.000000 0.000000 0.061458 0.000000 0.000000
# 5 0.000000 0.000000 0.000000 0.000000 0.104676 0.000000
# 6 0.000000 0.000000 0.000000 0.000000 0.000000 0.043493
#
#
# Mechanical properties :
#
#
# Convention : Reuss Voigt Hill
#
# Bulk Modulus (GPa) = 54.13398 56.42705 55.28052
# Shear Modulus (GPa) = 16.42552 18.48364 17.45458
#
# Velocity S-wave (km/s) = 3.44652 3.65608 3.55285
# Velocity P-wave (km/s) = 7.41528 7.65697 7.53709
#
# Compressibility (1/GPa) = 0.01847269
#
# Stress axis : x y z
#
# Youngs Moduli (GPa) = 58.01627 55.48920 54.68031
#
# Poissons Ratio (x) = 0.37397 0.43216
# Poissons Ratio (y) = 0.39100 0.15824
# Poissons Ratio (z) = 0.45852 0.16058
#
# Static dielectric constant tensor:
#      x y z
#    x 1.464700 0.000000 0.000000 
#    y 0.000000 1.445160 0.000000 
#    z 0.000000 0.000000 1.455760 
# 
# From -- ./inp_files/45529.got.cif
#   From: 2010.05.17/outbox.cif.g08.bks.cpg/sg65_23_cif.got.tgz:45529.got - 2010.06.03 17:01:31.
