data_PCOD9485641
_publ_section_title
;
Structure prediction by ZEFSAII (Michael W. Deem and Ramdas Pophale) SiO2 
 PCOD9485641
Probable space group: C M M M
;
_chemical_formula_sum "Si O2"
_cell_formula_units_Z 80
_cell_length_a 7.370137
_cell_length_b 18.267419
_cell_length_c 27.691446
_cell_angle_alpha 90.000000
_cell_angle_beta 90.000000
_cell_angle_gamma 90.000000
_cell_volume 3728.192991
_symmetry_space_group_name_H-M "C M M M"
_symmetry_group_IT_number 65
_symmetry_cell_setting 'orthorhombic'
loop_
_space_group_symop_operation_xyz
x,y,z
-x,-y,z
x,-y,-z
-x,y,-z
-x,-y,-z
x,y,-z
-x,y,z
x,-y,z
1/2+x,1/2+y,z
1/2-x,1/2-y,z
1/2+x,1/2-y,-z
1/2-x,1/2+y,-z
1/2-x,1/2-y,-z
1/2+x,1/2+y,-z
1/2-x,1/2+y,z
1/2+x,1/2-y,z
loop_
_atom_site_type_symbol
_atom_site_label
_atom_site_fract_x
_atom_site_fract_y
_atom_site_fract_z
Si Si1 0.216373 0.336177 0.902836
Si Si2 0.282831 0.162172 0.500000
Si Si3 0.216848 0.662368 0.396024
Si Si4 0.717001 0.836920 0.291056
Si Si5 0.221851 0.584606 0.194140
Si Si6 0.278123 0.084734 0.000000
O O1 0.250000 0.250000 0.903939
O O2 0.284451 0.371937 0.853244
O O3 0.284453 0.374798 0.951470
O O4 0.000000 0.347466 0.902673
O O5 0.500000 0.151379 0.500000
O O6 0.250000 0.250000 0.500000
O O7 0.213447 0.134424 0.552016
O O8 0.250000 0.750000 0.395974
O O9 0.286475 0.637115 0.343705
O O10 0.000000 0.650802 0.396258
O O11 0.500000 0.846965 0.292188
O O12 0.750000 0.750000 0.286350
O O13 0.785023 0.878504 0.243890
O O14 0.274018 0.500000 0.191377
O O15 0.000000 0.587210 0.194526
O O16 0.500000 0.086786 0.000000
O O17 0.225239 0.000000 0.000000
#
# Coordination Sequence:
#
# PCOD9485641 Si02
#       6
#    16   8  16  16  16   8
#     4  10  19  31  49  70  91 115 143 177 213 248
#     4   8  12  18  28  44  69  97 123 153 191 236
#     4   8  13  20  31  49  72  98 126 157 196 238
#     4   9  16  26  41  60  81 105 134 169 207 246
#     4   9  17  29  45  64  84 109 143 177 206 242
#     4   9  17  30  49  71  92 117 150 180 204 239
#
# _framework density 21.458117000000001
#
# number of rings (size 3 to 8) (size 9 to 14) (size 15 to 20)
#    0.000    3.100    0.000    1.500    0.000    2.400 
#    0.000    0.000    0.000    4.800    0.000    0.700 
#    0.000    5.600    0.000    0.000    0.000  190.200 
#
# Total GULP energy -223046.200003 kJ/mol
# GULP energy per Si atom -5576.155000 kJ/mol
# Density = 2.140928 g / cm^3
# Si number density = 21.458117 Si / 1000 Ang^3
#
#
#
# Elastic Constant Matrix: (Units=GPa)
#
#
# Indices 1 2 3 4 5 6 
#
# 1 81.6946 -4.4058 14.3086 0.0000 0.0000 0.0000
# 2 -4.4058 109.8822 116.6419 0.0000 0.0000 0.0000
# 3 14.3086 116.6419 312.6453 0.0000 0.0000 0.0000
# 4 0.0000 0.0000 0.0000 -11.2643 0.0000 0.0000
# 5 0.0000 0.0000 0.0000 0.0000 -6.8130 0.0000
# 6 0.0000 0.0000 0.0000 0.0000 0.0000 12.1155
#
#
#
# Elastic Compliance Matrix: (Units=1/GPa)
#
#
# Indices 1 2 3 4 5 6 
#
# 1 0.012561 0.001844 -0.001263 0.000000 0.000000 0.000000
# 2 0.001844 0.015339 -0.005807 0.000000 0.000000 0.000000
# 3 -0.001263 -0.005807 0.005423 0.000000 0.000000 0.000000
# 4 0.000000 0.000000 0.000000 -0.088776 0.000000 0.000000
# 5 0.000000 0.000000 0.000000 0.000000 -0.146778 0.000000
# 6 0.000000 0.000000 0.000000 0.000000 0.000000 0.082539
#
#
# Mechanical properties :
#
#
# Convention : Reuss Voigt Hill
#
# Bulk Modulus (GPa) = 43.72218 84.14571 63.93395
# Shear Modulus (GPa) = -49.20434 23.98613 -12.60910
#
# Velocity S-wave (km/s) = -4.79377 3.34700 -2.42671
# Velocity P-wave (km/s) = 3.19694 7.36448 4.69122
#
# Compressibility (1/GPa) = 0.02287169
#
# Stress axis : x y z
#
# Youngs Moduli (GPa) = 79.60907 65.19377 184.40623
#
# Poissons Ratio (x) = -0.12024 0.23290
# Poissons Ratio (y) = -0.14682 1.07086
# Poissons Ratio (z) = 0.10054 0.37858
#
# Static dielectric constant tensor:
#      x y z
#    x 1.805840 0.000000 0.000000 
#    y 0.000000 1.731480 0.000000 
#    z 0.000000 0.000000 1.827040 
# 
# From -- ./inp_files/67274.got.cif
#   From: 2010.05.17/outbox.cif.g08.bks.cpg/sg65_34_cif.got.tgz:67274.got - 2010.06.03 17:01:31.
