data_PCOD9485255
_publ_section_title
;
Structure prediction by ZEFSAII (Michael W. Deem and Ramdas Pophale) SiO2 
 PCOD9485255
Probable space group: C M M M
;
_chemical_formula_sum "Si O2"
_cell_formula_units_Z 96
_cell_length_a 19.584178
_cell_length_b 8.372174
_cell_length_c 32.202478
_cell_angle_alpha 90.000000
_cell_angle_beta 90.000000
_cell_angle_gamma 90.000000
_cell_volume 5279.987395
_symmetry_space_group_name_H-M "C M M M"
_symmetry_group_IT_number 65
_symmetry_cell_setting 'orthorhombic'
loop_
_space_group_symop_operation_xyz
x,y,z
-x,-y,z
x,-y,-z
-x,y,-z
-x,-y,-z
x,y,-z
-x,y,z
x,-y,z
1/2+x,1/2+y,z
1/2-x,1/2-y,z
1/2+x,1/2-y,-z
1/2-x,1/2+y,-z
1/2-x,1/2-y,-z
1/2+x,1/2+y,-z
1/2-x,1/2+y,z
1/2+x,1/2-y,z
loop_
_atom_site_type_symbol
_atom_site_label
_atom_site_fract_x
_atom_site_fract_y
_atom_site_fract_z
Si Si1 0.078126 0.194742 0.452739
Si Si2 0.327874 0.691132 0.135108
Si Si3 0.172639 0.190831 0.377807
Si Si4 0.421186 0.807021 0.696669
Si Si5 0.328706 0.306903 0.955385
Si Si6 0.421991 0.192541 0.790774
O O1 0.093976 0.244744 0.500000
O O2 0.131303 0.251354 0.418316
O O3 0.000000 0.243152 0.442981
O O4 0.078735 0.000000 0.452456
O O5 0.327209 0.500000 0.135132
O O6 0.250000 0.750000 0.138942
O O7 0.355914 0.746023 0.089661
O O8 0.372385 0.749198 0.173456
O O9 0.250000 0.250000 0.376785
O O10 0.130310 0.241933 0.337334
O O11 0.173538 0.000000 0.379668
O O12 0.500000 0.758222 0.688350
O O13 0.403454 0.756350 0.743819
O O14 0.419492 0.000000 0.695502
O O15 0.329993 0.500000 0.955506
O O16 0.250000 0.250000 0.955492
O O17 0.358821 0.253087 0.000000
O O18 0.500000 0.245092 0.798566
O O19 0.421493 0.000000 0.790725
#
# Coordination Sequence:
#
# PCOD9485255 Si02
#       6
#    16  16  16  16  16  16
#     4   8  15  30  52  76 101 131 169 210 249 291
#     4  10  19  30  48  74 101 129 162 202 246 291
#     4  11  22  34  51  77 107 138 170 205 248 294
#     4   9  19  37  58  76  96 126 164 206 252 300
#     4   8  14  25  41  63  92 124 158 196 238 284
#     4   9  19  36  55  73  96 128 163 201 249 300
#
# _framework density 18.181863
#
# number of rings (size 3 to 8) (size 9 to 14) (size 15 to 20)
#    0.000    2.833    0.000    3.000    0.000    3.667 
#    0.000    1.667    0.000    2.000    0.000    9.333 
#    0.000    0.000    0.000    0.000    0.000    0.000 
#
# Total GULP energy -267441.215595 kJ/mol
# GULP energy per Si atom -5571.691992 kJ/mol
# Density = 1.814048 g / cm^3
# Si number density = 18.181863 Si / 1000 Ang^3
#
#
#
# Elastic Constant Matrix: (Units=GPa)
#
#
# Indices 1 2 3 4 5 6 
#
# 1 108.7949 21.0100 122.9327 0.0000 0.0000 0.0000
# 2 21.0100 16.2807 28.2076 0.0000 0.0000 0.0000
# 3 122.9327 28.2076 204.8473 0.0000 0.0000 0.0000
# 4 0.0000 0.0000 0.0000 15.5674 0.0000 0.0000
# 5 0.0000 0.0000 0.0000 0.0000 34.9819 0.0000
# 6 0.0000 0.0000 0.0000 0.0000 0.0000 11.6240
#
#
#
# Elastic Compliance Matrix: (Units=1/GPa)
#
#
# Indices 1 2 3 4 5 6 
#
# 1 0.029694 -0.009778 -0.016474 0.000000 0.000000 0.000000
# 2 -0.009778 0.083888 -0.005683 0.000000 0.000000 0.000000
# 3 -0.016474 -0.005683 0.015550 0.000000 0.000000 0.000000
# 4 0.000000 0.000000 0.000000 0.064237 0.000000 0.000000
# 5 0.000000 0.000000 0.000000 0.000000 0.028586 0.000000
# 6 0.000000 0.000000 0.000000 0.000000 0.000000 0.086029
#
#
# Mechanical properties :
#
#
# Convention : Reuss Voigt Hill
#
# Bulk Modulus (GPa) = 15.32279 74.91374 45.11826
# Shear Modulus (GPa) = 12.70296 22.95282 17.82789
#
# Velocity S-wave (km/s) = 2.64609 3.55688 3.13474
# Velocity P-wave (km/s) = 4.21681 7.62630 6.16206
#
# Compressibility (1/GPa) = 0.06526226
#
# Stress axis : x y z
#
# Youngs Moduli (GPa) = 33.67647 11.92068 64.30682
#
# Poissons Ratio (x) = 0.11656 1.05937
# Poissons Ratio (y) = 0.32929 0.36548
# Poissons Ratio (z) = 0.55478 0.06775
#
# Static dielectric constant tensor:
#      x y z
#    x 2.118650 0.000000 0.000000 
#    y 0.000000 1.639200 0.000000 
#    z 0.000000 0.000000 1.663340 
# 
# From -- ./inp_files/75392.got.cif
#   From: 2010.05.17/outbox.cif.g08.bks.cpg/sg65_38_cif.got.tgz:75392.got - 2010.06.03 17:01:31.
