data_PCOD9485725
_publ_section_title
;
Structure prediction by ZEFSAII (Michael W. Deem and Ramdas Pophale) SiO2 
 PCOD9485725
Probable space group: C M M M
;
_chemical_formula_sum "Si O2"
_cell_formula_units_Z 104
_cell_length_a 29.678360
_cell_length_b 7.929234
_cell_length_c 23.673651
_cell_angle_alpha 90.000000
_cell_angle_beta 90.000000
_cell_angle_gamma 90.000000
_cell_volume 5571.041248
_symmetry_space_group_name_H-M "C M M M"
_symmetry_group_IT_number 65
_symmetry_cell_setting 'orthorhombic'
loop_
_space_group_symop_operation_xyz
x,y,z
-x,-y,z
x,-y,-z
-x,y,-z
-x,-y,-z
x,y,-z
-x,y,z
x,-y,z
1/2+x,1/2+y,z
1/2-x,1/2-y,z
1/2+x,1/2-y,-z
1/2-x,1/2+y,-z
1/2-x,1/2-y,-z
1/2+x,1/2+y,-z
1/2-x,1/2+y,z
1/2+x,1/2-y,z
loop_
_atom_site_type_symbol
_atom_site_label
_atom_site_fract_x
_atom_site_fract_y
_atom_site_fract_z
Si Si1 0.302275 0.297804 0.224523
Si Si2 0.949543 0.704612 0.275649
Si Si3 0.197770 0.699194 0.000000
Si Si4 0.145667 0.797641 0.112748
Si Si5 0.140194 0.700704 0.667082
Si Si6 0.950259 0.798465 0.855274
Si Si7 0.698829 0.796245 0.435825
O O1 0.305764 0.500000 0.226220
O O2 0.250000 0.250000 0.223066
O O3 0.327564 0.234821 0.168025
O O4 0.326803 0.228659 0.279967
O O5 0.948016 0.500000 0.273862
O O6 0.908862 0.767019 0.314730
O O7 0.943077 0.767218 0.211527
O O8 0.000000 0.754544 0.293747
O O9 0.250000 0.750000 0.000000
O O10 0.172633 0.761382 0.056042
O O11 0.195710 0.500000 0.000000
O O12 0.094220 0.732176 0.113501
O O13 0.143050 0.000000 0.118505
O O14 0.135100 0.500000 0.658915
O O15 0.163751 0.769004 0.610637
O O16 0.000000 0.729231 0.870027
O O17 0.952118 0.000000 0.864237
O O18 0.690896 0.735695 0.500000
O O19 0.750000 0.750000 0.419812
O O20 0.696365 0.000000 0.436559
#
# Coordination Sequence:
#
# PCOD9485725 Si02
#       7
#    16  16   8  16  16  16  16
#     4  11  22  34  50  75 104 134 165 207 257 305
#     4   9  17  29  47  73 104 135 166 203 252 307
#     4  12  26  42  61  80 101 137 178 217 255 302
#     4  10  21  38  57  79 106 137 171 210 253 303
#     4  10  19  31  49  73 101 133 168 210 257 304
#     4   9  17  32  55  81 107 135 168 206 250 299
#     4   9  18  32  48  67  94 131 173 213 254 302
#
# _framework density 18.667966
#
# number of rings (size 3 to 8) (size 9 to 14) (size 15 to 20)
#    0.000    2.154    1.538    2.077    0.000    4.923 
#    0.000    0.385    0.000    2.769    0.000    3.231 
#    0.000    0.000    0.000    9.077    0.000    9.538 
#
# Total GULP energy -290160.313985 kJ/mol
# GULP energy per Si atom -5580.006038 kJ/mol
# Density = 1.862548 g / cm^3
# Si number density = 18.667966 Si / 1000 Ang^3
#
#
#
# Elastic Constant Matrix: (Units=GPa)
#
#
# Indices 1 2 3 4 5 6 
#
# 1 191.7358 -2.7980 79.7317 0.0000 0.0000 0.0000
# 2 -2.7980 12.1003 -10.5462 0.0000 0.0000 0.0000
# 3 79.7317 -10.5462 93.8580 0.0000 0.0000 0.0000
# 4 0.0000 0.0000 0.0000 20.6910 0.0000 0.0000
# 5 0.0000 0.0000 0.0000 0.0000 31.3227 0.0000
# 6 0.0000 0.0000 0.0000 0.0000 0.0000 2.9512
#
#
#
# Elastic Compliance Matrix: (Units=1/GPa)
#
#
# Indices 1 2 3 4 5 6 
#
# 1 0.008297 -0.004683 -0.007574 0.000000 0.000000 0.000000
# 2 -0.004683 0.094258 0.014569 0.000000 0.000000 0.000000
# 3 -0.007574 0.014569 0.018726 0.000000 0.000000 0.000000
# 4 0.000000 0.000000 0.000000 0.048330 0.000000 0.000000
# 5 0.000000 0.000000 0.000000 0.000000 0.031926 0.000000
# 6 0.000000 0.000000 0.000000 0.000000 0.000000 0.338848
#
#
# Mechanical properties :
#
#
# Convention : Reuss Voigt Hill
#
# Bulk Modulus (GPa) = 7.94253 47.82991 27.88622
# Shear Modulus (GPa) = 8.65458 26.41343 17.53401
#
# Velocity S-wave (km/s) = 2.15549 3.76561 3.06805
# Velocity P-wave (km/s) = 3.23399 6.67708 5.24605
#
# Compressibility (1/GPa) = 0.12590453
#
# Stress axis : x y z
#
# Youngs Moduli (GPa) = 120.52680 10.60919 53.40216
#
# Poissons Ratio (x) = 0.04968 0.40449
# Poissons Ratio (y) = 0.56443 -0.77804
# Poissons Ratio (z) = 0.91291 -0.15457
#
# Static dielectric constant tensor:
#      x y z
#    x 1.655170 0.000000 0.000000 
#    y 0.000000 1.652000 0.000000 
#    z 0.000000 0.000000 1.824050 
# 
# From -- ./inp_files/71853.got.cif
#   From: 2010.05.17/outbox.cif.g08.bks.cpg/sg65_36_cif.got.tgz:71853.got - 2010.06.03 17:01:31.
