data_PCOD9485421
_publ_section_title
;
Structure prediction by ZEFSAII (Michael W. Deem and Ramdas Pophale) SiO2 
 PCOD9485421
Probable space group: C M M M
;
_chemical_formula_sum "Si O2"
_cell_formula_units_Z 104
_cell_length_a 27.737219
_cell_length_b 9.148143
_cell_length_c 27.362838
_cell_angle_alpha 90.000000
_cell_angle_beta 90.000000
_cell_angle_gamma 90.000000
_cell_volume 6943.157220
_symmetry_space_group_name_H-M "C M M M"
_symmetry_group_IT_number 65
_symmetry_cell_setting 'orthorhombic'
loop_
_space_group_symop_operation_xyz
x,y,z
-x,-y,z
x,-y,-z
-x,y,-z
-x,-y,-z
x,y,-z
-x,y,z
x,-y,z
1/2+x,1/2+y,z
1/2-x,1/2-y,z
1/2+x,1/2-y,-z
1/2-x,1/2+y,-z
1/2-x,1/2-y,-z
1/2+x,1/2+y,-z
1/2-x,1/2+y,z
1/2+x,1/2-y,z
loop_
_atom_site_type_symbol
_atom_site_label
_atom_site_fract_x
_atom_site_fract_y
_atom_site_fract_z
Si Si1 0.608473 0.674282 0.297435
Si Si2 0.354595 0.824710 0.554421
Si Si3 0.801081 0.675984 0.653475
Si Si4 0.055025 0.174302 0.601128
Si Si5 0.558766 0.331882 0.000000
Si Si6 0.057329 0.323986 0.206790
Si Si7 0.058593 0.668973 0.097469
O O1 0.616167 0.500000 0.293584
O O2 0.657513 0.756763 0.312142
O O3 0.571803 0.699371 0.342883
O O4 0.585953 0.740310 0.248521
O O5 0.338998 0.780469 0.500000
O O6 0.318059 0.786045 0.598039
O O7 0.405936 0.753837 0.567558
O O8 0.359727 0.000000 0.555457
O O9 0.799006 0.500000 0.658025
O O10 0.750000 0.750000 0.663452
O O11 0.000000 0.222503 0.593721
O O12 0.057491 0.000000 0.592514
O O13 0.575286 0.256494 0.050110
O O14 0.572422 0.500000 0.000000
O O15 0.500000 0.323206 0.000000
O O16 0.063633 0.500000 0.210856
O O17 0.072726 0.279757 0.151716
O O18 0.000000 0.295281 0.211830
O O19 0.072714 0.500000 0.092232
O O20 0.000000 0.672657 0.097514
#
# Coordination Sequence:
#
# PCOD9485421 Si02
#       7
#    16  16  16  16   8  16  16
#     4  10  19  31  47  66  88 114 144 179 218 260
#     4   9  19  34  49  67  90 113 139 172 209 251
#     4  10  20  35  53  70  88 110 137 171 213 262
#     4   9  18  31  45  63  88 117 147 176 208 248
#     4   9  15  21  31  49  73 103 144 191 228 255
#     4   9  17  28  42  62  88 118 152 187 222 260
#     4   8  14  24  36  50  73 109 149 184 219 259
#
# _framework density 14.978776
#
# number of rings (size 3 to 8) (size 9 to 14) (size 15 to 20)
#    0.000    2.846    0.000    2.538    0.000    4.923 
#    0.000    3.077    0.000    0.000    0.000    0.000 
#    0.000    0.000    0.000    0.692    0.000    9.154 
#
# Total GULP energy -289706.729447 kJ/mol
# GULP energy per Si atom -5571.283259 kJ/mol
# Density = 1.494468 g / cm^3
# Si number density = 14.978776 Si / 1000 Ang^3
#
#
#
# Elastic Constant Matrix: (Units=GPa)
#
#
# Indices 1 2 3 4 5 6 
#
# 1 55.2859 24.7059 21.9674 0.0000 0.0000 0.0000
# 2 24.7059 45.8420 48.4285 0.0000 0.0000 0.0000
# 3 21.9674 48.4285 117.8193 0.0000 0.0000 0.0000
# 4 0.0000 0.0000 0.0000 22.6725 0.0000 0.0000
# 5 0.0000 0.0000 0.0000 0.0000 8.8874 0.0000
# 6 0.0000 0.0000 0.0000 0.0000 0.0000 21.4135
#
#
#
# Elastic Compliance Matrix: (Units=1/GPa)
#
#
# Indices 1 2 3 4 5 6 
#
# 1 0.023972 -0.014490 0.001486 0.000000 0.000000 0.000000
# 2 -0.014490 0.047314 -0.016747 0.000000 0.000000 0.000000
# 3 0.001486 -0.016747 0.015094 0.000000 0.000000 0.000000
# 4 0.000000 0.000000 0.000000 0.044106 0.000000 0.000000
# 5 0.000000 0.000000 0.000000 0.000000 0.112519 0.000000
# 6 0.000000 0.000000 0.000000 0.000000 0.000000 0.046699
#
#
# Mechanical properties :
#
#
# Convention : Reuss Voigt Hill
#
# Bulk Modulus (GPa) = 37.20126 45.46122 41.33124
# Shear Modulus (GPa) = 13.96001 18.85103 16.40552
#
# Velocity S-wave (km/s) = 3.05616 3.55141 3.31305
# Velocity P-wave (km/s) = 6.11092 6.87262 6.50293
#
# Compressibility (1/GPa) = 0.02688081
#
# Stress axis : x y z
#
# Youngs Moduli (GPa) = 41.71483 21.13520 66.25147
#
# Poissons Ratio (x) = 0.30624 -0.09846
# Poissons Ratio (y) = 0.60443 1.10949
# Poissons Ratio (z) = -0.06199 0.35394
#
# Static dielectric constant tensor:
#      x y z
#    x 1.462300 0.000000 0.000000 
#    y 0.000000 1.496470 0.000000 
#    z 0.000000 0.000000 1.507150 
# 
# From -- ./inp_files/75985.got.cif
#   From: 2010.05.17/outbox.cif.g08.bks.cpg/sg65_38_cif.got.tgz:75985.got - 2010.06.03 17:01:31.
