data_PCOD9485224
_publ_section_title
;
Structure prediction by ZEFSAII (Michael W. Deem and Ramdas Pophale) SiO2 
 PCOD9485224
Probable space group: C M M M
;
_chemical_formula_sum "Si O2"
_cell_formula_units_Z 96
_cell_length_a 24.291034
_cell_length_b 8.550245
_cell_length_c 26.867522
_cell_angle_alpha 90.000000
_cell_angle_beta 90.000000
_cell_angle_gamma 90.000000
_cell_volume 5580.230960
_symmetry_space_group_name_H-M "C M M M"
_symmetry_group_IT_number 65
_symmetry_cell_setting 'orthorhombic'
loop_
_space_group_symop_operation_xyz
x,y,z
-x,-y,z
x,-y,-z
-x,y,-z
-x,-y,-z
x,y,-z
-x,y,z
x,-y,z
1/2+x,1/2+y,z
1/2-x,1/2-y,z
1/2+x,1/2-y,-z
1/2-x,1/2+y,-z
1/2-x,1/2-y,-z
1/2+x,1/2+y,-z
1/2-x,1/2+y,z
1/2+x,1/2-y,z
loop_
_atom_site_type_symbol
_atom_site_label
_atom_site_fract_x
_atom_site_fract_y
_atom_site_fract_z
Si Si1 0.500000 0.811849 0.595230
Si Si2 0.187333 0.188832 0.946564
Si Si3 0.811758 0.687502 0.353599
Si Si4 0.119635 0.689136 0.744186
Si Si5 0.812567 0.187791 0.837232
Si Si6 0.500000 0.809637 0.288337
Si Si7 0.615781 0.312476 0.443601
O O1 0.500000 0.764588 0.653486
O O2 0.554932 0.748372 0.569678
O O3 0.500000 0.000000 0.593112
O O4 0.250000 0.250000 0.946923
O O5 0.165650 0.237488 0.892273
O O6 0.187935 0.000000 0.946611
O O7 0.162264 0.239493 0.000000
O O8 0.811110 0.500000 0.354308
O O9 0.750000 0.750000 0.350713
O O10 0.846317 0.737713 0.304928
O O11 0.842390 0.746903 0.402802
O O12 0.120032 0.500000 0.745616
O O13 0.149431 0.751074 0.793133
O O14 0.056531 0.742033 0.737405
O O15 0.750000 0.250000 0.831482
O O16 0.810487 0.000000 0.835526
O O17 0.500000 0.000000 0.287831
O O18 0.630068 0.264836 0.500000
O O19 0.615883 0.500000 0.441113
#
# Coordination Sequence:
#
# PCOD9485224 Si02
#       7
#     8  16  16  16  16   8  16
#     4  11  20  38  63  86 108 135 173 213 259 313
#     4   8  14  25  41  63  95 134 172 210 250 293
#     4  11  23  39  59  80 105 139 176 213 257 313
#     4  10  20  36  56  77 103 133 168 211 257 307
#     4  10  19  30  47  74 106 139 175 211 252 304
#     4   9  18  36  58  79 101 129 166 208 255 305
#     4  11  24  40  58  83 112 139 171 213 260 309
#
# _framework density 17.203588
#
# number of rings (size 3 to 8) (size 9 to 14) (size 15 to 20)
#    0.000    2.000    1.667    2.500    0.000    6.000 
#    0.000    0.417    0.000    0.000    0.000    0.583 
#    0.000    4.667    0.000    0.000    0.000    0.000 
#
# Total GULP energy -267748.297153 kJ/mol
# GULP energy per Si atom -5578.089524 kJ/mol
# Density = 1.716443 g / cm^3
# Si number density = 17.203588 Si / 1000 Ang^3
#
#
#
# Elastic Constant Matrix: (Units=GPa)
#
#
# Indices 1 2 3 4 5 6 
#
# 1 125.0066 26.4702 87.8721 0.0000 0.0000 0.0000
# 2 26.4702 26.0823 35.7342 0.0000 0.0000 0.0000
# 3 87.8721 35.7342 202.0389 0.0000 0.0000 0.0000
# 4 0.0000 0.0000 0.0000 18.6733 0.0000 0.0000
# 5 0.0000 0.0000 0.0000 0.0000 -162.5121 0.0000
# 6 0.0000 0.0000 0.0000 0.0000 0.0000 17.6337
#
#
#
# Elastic Compliance Matrix: (Units=1/GPa)
#
#
# Indices 1 2 3 4 5 6 
#
# 1 0.012385 -0.006849 -0.004175 0.000000 0.000000 0.000000
# 2 -0.006849 0.054389 -0.006641 0.000000 0.000000 0.000000
# 3 -0.004175 -0.006641 0.007940 0.000000 0.000000 0.000000
# 4 0.000000 0.000000 0.000000 0.053553 0.000000 0.000000
# 5 0.000000 0.000000 0.000000 0.000000 -0.006153 0.000000
# 6 0.000000 0.000000 0.000000 0.000000 0.000000 0.056710
#
#
# Mechanical properties :
#
#
# Convention : Reuss Voigt Hill
#
# Bulk Modulus (GPa) = 25.39086 72.58676 48.98881
# Shear Modulus (GPa) = 21.99924 -11.70429 5.14748
#
# Velocity S-wave (km/s) = 3.57985 -2.61116 1.73164
# Velocity P-wave (km/s) = 5.64608 5.76138 5.70402
#
# Compressibility (1/GPa) = 0.03938425
#
# Stress axis : x y z
#
# Youngs Moduli (GPa) = 80.74524 18.38597 125.94472
#
# Poissons Ratio (x) = 0.12592 0.52583
# Poissons Ratio (y) = 0.55300 0.83641
# Poissons Ratio (z) = 0.33712 0.12210
#
# Static dielectric constant tensor:
#      x y z
#    x 1.554290 0.000000 0.000000 
#    y 0.000000 1.589780 0.000000 
#    z 0.000000 0.000000 1.614160 
# 
# From -- ./inp_files/71441.got.cif
#   From: 2010.05.17/outbox.cif.g08.bks.cpg/sg65_36_cif.got.tgz:71441.got - 2010.06.03 17:01:31.
