data_PCOD9485643
_publ_section_title
;
Structure prediction by ZEFSAII (Michael W. Deem and Ramdas Pophale) SiO2 
 PCOD9485643
Probable space group: C M M M
;
_chemical_formula_sum "Si O2"
_cell_formula_units_Z 88
_cell_length_a 18.314610
_cell_length_b 7.375774
_cell_length_c 30.164245
_cell_angle_alpha 90.000000
_cell_angle_beta 90.000000
_cell_angle_gamma 90.000000
_cell_volume 4074.719669
_symmetry_space_group_name_H-M "C M M M"
_symmetry_group_IT_number 65
_symmetry_cell_setting 'orthorhombic'
loop_
_space_group_symop_operation_xyz
x,y,z
-x,-y,z
x,-y,-z
-x,y,-z
-x,-y,-z
x,y,-z
-x,y,z
x,-y,z
1/2+x,1/2+y,z
1/2-x,1/2-y,z
1/2+x,1/2-y,-z
1/2-x,1/2+y,-z
1/2-x,1/2-y,-z
1/2+x,1/2+y,-z
1/2-x,1/2+y,z
1/2+x,1/2-y,z
loop_
_atom_site_type_symbol
_atom_site_label
_atom_site_fract_x
_atom_site_fract_y
_atom_site_fract_z
Si Si1 0.336011 0.783726 0.821766
Si Si2 0.336697 0.783117 0.644093
Si Si3 0.415417 0.778263 0.089135
Si Si4 0.915594 0.721717 0.732888
Si Si5 0.162602 0.716732 0.547687
Si Si6 0.163895 0.283697 0.000000
O O1 0.250000 0.750000 0.823042
O O2 0.375343 0.715917 0.866185
O O3 0.371713 0.715905 0.776220
O O4 0.346943 0.000000 0.821590
O O5 0.250000 0.750000 0.648579
O O6 0.378713 0.715306 0.687221
O O7 0.362467 0.713684 0.595734
O O8 0.346534 0.000000 0.643045
O O9 0.500000 0.725090 0.088619
O O10 0.413674 0.000000 0.089178
O O11 0.373865 0.716002 0.044942
O O12 0.913210 0.500000 0.732543
O O13 0.000000 0.774123 0.735564
O O14 0.134638 0.786461 0.500000
O O15 0.151137 0.500000 0.547514
O O16 0.250000 0.750000 0.547681
O O17 0.250000 0.250000 0.000000
O O18 0.153146 0.500000 0.000000
#
# Coordination Sequence:
#
# PCOD9485643 Si02
#       6
#    16  16  16  16  16   8
#     4  10  19  31  49  70  91 115 144 181 220 258
#     4   9  16  26  42  62  83 108 138 174 212 250
#     4   9  17  30  49  71  92 118 154 188 216 253
#     4   9  17  29  45  64  85 112 146 178 209 251
#     4   8  13  21  34  54  79 104 131 165 205 247
#     4  10  19  31  49  71  95 122 152 188 224 258
#
# _framework density 21.596577
#
# number of rings (size 3 to 8) (size 9 to 14) (size 15 to 20)
#    0.000    2.909    0.000    1.909    0.000    3.273 
#    0.000    0.000    0.000    6.545    0.000    3.818 
#    0.000    0.000    0.000   29.455    0.000   13.818 
#
# Total GULP energy -245568.444115 kJ/mol
# GULP energy per Si atom -5581.101003 kJ/mol
# Density = 2.154742 g / cm^3
# Si number density = 21.596577 Si / 1000 Ang^3
#
#
#
# Elastic Constant Matrix: (Units=GPa)
#
#
# Indices 1 2 3 4 5 6 
#
# 1 150.9481 -4.7146 136.7946 0.0000 0.0000 0.0000
# 2 -4.7146 79.9832 13.8775 0.0000 0.0000 0.0000
# 3 136.7946 13.8775 302.6981 0.0000 0.0000 0.0000
# 4 0.0000 0.0000 0.0000 -1.3675 0.0000 0.0000
# 5 0.0000 0.0000 0.0000 0.0000 -16.7858 0.0000
# 6 0.0000 0.0000 0.0000 0.0000 0.0000 16.2367
#
#
#
# Elastic Compliance Matrix: (Units=1/GPa)
#
#
# Indices 1 2 3 4 5 6 
#
# 1 0.011415 0.001580 -0.005231 0.000000 0.000000 0.000000
# 2 0.001580 0.012822 -0.001302 0.000000 0.000000 0.000000
# 3 -0.005231 -0.001302 0.005727 0.000000 0.000000 0.000000
# 4 0.000000 0.000000 0.000000 -0.731273 0.000000 0.000000
# 5 0.000000 0.000000 0.000000 0.000000 -0.059574 0.000000
# 6 0.000000 0.000000 0.000000 0.000000 0.000000 0.061589
#
#
# Mechanical properties :
#
#
# Convention : Reuss Voigt Hill
#
# Bulk Modulus (GPa) = 49.85421 91.72714 70.79068
# Shear Modulus (GPa) = -7.32382 25.46148 9.06883
#
# Velocity S-wave (km/s) = -1.84352 3.43732 2.05142
# Velocity P-wave (km/s) = 4.31312 7.63667 6.20169
#
# Compressibility (1/GPa) = 0.02005849
#
# Stress axis : x y z
#
# Youngs Moduli (GPa) = 87.60709 77.99281 174.60361
#
# Poissons Ratio (x) = -0.12326 0.91334
# Poissons Ratio (y) = -0.13846 0.22734
# Poissons Ratio (z) = 0.45827 0.10155
#
# Static dielectric constant tensor:
#      x y z
#    x 1.708480 0.000000 0.000000 
#    y 0.000000 1.820110 0.000000 
#    z 0.000000 0.000000 1.806040 
# 
# From -- ./inp_files/74233.got.cif
#   From: 2010.05.17/outbox.cif.g08.bks.cpg/sg65_38_cif.got.tgz:74233.got - 2010.06.03 17:01:31.
