data_PCOD9485977
_publ_section_title
;
Structure prediction by ZEFSAII (Michael W. Deem and Ramdas Pophale) SiO2 
 PCOD9485977
Probable space group: C M M M
;
_chemical_formula_sum "Si O2"
_cell_formula_units_Z 88
_cell_length_a 17.987396
_cell_length_b 11.100843
_cell_length_c 26.478368
_cell_angle_alpha 90.000000
_cell_angle_beta 90.000000
_cell_angle_gamma 90.000000
_cell_volume 5287.074988
_symmetry_space_group_name_H-M "C M M M"
_symmetry_group_IT_number 65
_symmetry_cell_setting 'orthorhombic'
loop_
_space_group_symop_operation_xyz
x,y,z
-x,-y,z
x,-y,-z
-x,y,-z
-x,-y,-z
x,y,-z
-x,y,z
x,-y,z
1/2+x,1/2+y,z
1/2-x,1/2-y,z
1/2+x,1/2-y,-z
1/2-x,1/2+y,-z
1/2-x,1/2-y,-z
1/2+x,1/2+y,-z
1/2-x,1/2+y,z
1/2+x,1/2-y,z
loop_
_atom_site_type_symbol
_atom_site_label
_atom_site_fract_x
_atom_site_fract_y
_atom_site_fract_z
Si Si1 0.186323 0.147368 0.596847
Si Si2 0.088649 0.143372 0.193420
Si Si3 0.161432 0.254673 0.095666
Si Si4 0.916881 0.858255 0.000000
Si Si5 0.415588 0.645381 0.693160
Si Si6 0.916171 0.144264 0.500000
Si Si7 0.588465 0.000000 0.060759
O O1 0.250000 0.250000 0.593460
O O2 0.141625 0.170982 0.648725
O O3 0.130863 0.171597 0.550039
O O4 0.205832 0.000000 0.595353
O O5 0.133202 0.207835 0.149466
O O6 0.106479 0.185831 0.250463
O O7 0.000000 0.160840 0.186135
O O8 0.102639 0.000000 0.190262
O O9 0.250000 0.250000 0.093066
O O10 0.126687 0.177438 0.050142
O O11 0.128094 0.385353 0.084715
O O12 0.000000 0.801336 0.000000
O O13 0.924869 0.000000 0.000000
O O14 0.500000 0.687863 0.682076
O O15 0.419885 0.500000 0.696104
O O16 0.000000 0.195293 0.500000
O O17 0.923510 0.000000 0.500000
O O18 0.500000 0.000000 0.070296
O O19 0.599230 0.000000 0.000000
#
# Coordination Sequence:
#
# PCOD9485977 Si02
#       7
#    16  16  16   8  16   8   8
#     4  10  19  31  51  78 111 145 177 223 274 326
#     4   9  18  35  58  79 103 133 173 222 268 317
#     4  12  25  36  57  81 111 137 171 220 265 313
#     4  11  23  39  61  81 101 131 169 213 263 319
#     4   8  15  30  54  79  99 133 180 222 261 310
#     4   9  17  30  51  79 106 139 190 240 268 305
#     4  11  24  42  60  76 106 152 184 203 255 341
#
# _framework density 16.644363999999999
#
# number of rings (size 3 to 8) (size 9 to 14) (size 15 to 20)
#    0.000    2.091    0.909    4.364    2.545    4.364 
#    0.000    0.000    2.000    2.727    0.000    0.000 
#    0.000    0.000    0.000    0.000    0.000    0.000 
#
# Total GULP energy -245201.145882 kJ/mol
# GULP energy per Si atom -5572.753315 kJ/mol
# Density = 1.660648 g / cm^3
# Si number density = 16.644364 Si / 1000 Ang^3
#
#
#
# Elastic Constant Matrix: (Units=GPa)
#
#
# Indices 1 2 3 4 5 6 
#
# 1 142.0977 65.9638 105.0736 0.0000 0.0000 0.0000
# 2 65.9638 76.0141 48.5161 0.0000 0.0000 0.0000
# 3 105.0736 48.5161 152.1426 0.0000 0.0000 0.0000
# 4 0.0000 0.0000 0.0000 94.1985 0.0000 0.0000
# 5 0.0000 0.0000 0.0000 0.0000 -62.4830 0.0000
# 6 0.0000 0.0000 0.0000 0.0000 0.0000 26.0234
#
#
#
# Elastic Compliance Matrix: (Units=1/GPa)
#
#
# Indices 1 2 3 4 5 6 
#
# 1 0.019183 -0.010284 -0.009969 0.000000 0.000000 0.000000
# 2 -0.010284 0.022030 0.000077 0.000000 0.000000 0.000000
# 3 -0.009969 0.000077 0.013433 0.000000 0.000000 0.000000
# 4 0.000000 0.000000 0.000000 0.010616 0.000000 0.000000
# 5 0.000000 0.000000 0.000000 0.000000 -0.016004 0.000000
# 6 0.000000 0.000000 0.000000 0.000000 0.000000 0.038427
#
#
# Mechanical properties :
#
#
# Convention : Reuss Voigt Hill
#
# Bulk Modulus (GPa) = 69.95429 89.92905 79.94167
# Shear Modulus (GPa) = 37.65063 21.59449 29.62256
#
# Velocity S-wave (km/s) = 4.76128 3.60586 4.22327
# Velocity P-wave (km/s) = 8.50567 8.45478 8.48026
#
# Compressibility (1/GPa) = 0.01429505
#
# Stress axis : x y z
#
# Youngs Moduli (GPa) = 52.13070 45.39184 74.44481
#
# Poissons Ratio (x) = 0.46680 0.74211
# Poissons Ratio (y) = 0.53610 -0.00574
# Poissons Ratio (z) = 0.51967 -0.00350
#
# Static dielectric constant tensor:
#      x y z
#    x 1.559880 0.000000 0.000000 
#    y 0.000000 1.521830 0.000000 
#    z 0.000000 0.000000 1.566130 
# 
# From -- ./inp_files/74797.got.cif
#   From: 2010.05.17/outbox.cif.g08.bks.cpg/sg65_38_cif.got.tgz:74797.got - 2010.06.03 17:01:31.
