data_PCOD9485383
_publ_section_title
;
Structure prediction by ZEFSAII (Michael W. Deem and Ramdas Pophale) SiO2 
 PCOD9485383
Probable space group: C M M M
;
_chemical_formula_sum "Si O2"
_cell_formula_units_Z 104
_cell_length_a 8.873139
_cell_length_b 28.088959
_cell_length_c 27.242745
_cell_angle_alpha 90.000000
_cell_angle_beta 90.000000
_cell_angle_gamma 90.000000
_cell_volume 6789.906508
_symmetry_space_group_name_H-M "C M M M"
_symmetry_group_IT_number 65
_symmetry_cell_setting 'orthorhombic'
loop_
_space_group_symop_operation_xyz
x,y,z
-x,-y,z
x,-y,-z
-x,y,-z
-x,-y,-z
x,y,-z
-x,y,z
x,-y,z
1/2+x,1/2+y,z
1/2-x,1/2-y,z
1/2+x,1/2-y,-z
1/2-x,1/2+y,-z
1/2-x,1/2-y,-z
1/2+x,1/2+y,-z
1/2-x,1/2+y,z
1/2+x,1/2-y,z
loop_
_atom_site_type_symbol
_atom_site_label
_atom_site_fract_x
_atom_site_fract_y
_atom_site_fract_z
Si Si1 0.819021 0.851804 0.351698
Si Si2 0.181275 0.053408 0.296511
Si Si3 0.818654 0.603227 0.796985
Si Si4 0.320114 0.802307 0.556684
Si Si5 0.181418 0.555700 0.102346
Si Si6 0.180912 0.300812 0.742354
Si Si7 0.825961 0.942220 0.000000
O O1 0.778119 0.905483 0.335280
O O2 0.752708 0.837278 0.403903
O O3 0.749320 0.817808 0.309696
O O4 0.000000 0.846971 0.351543
O O5 0.249779 0.069207 0.244552
O O6 0.000000 0.053977 0.292255
O O7 0.229327 0.000000 0.309610
O O8 0.769393 0.586569 0.850851
O O9 0.780674 0.657132 0.780920
O O10 0.000000 0.598916 0.794968
O O11 0.289335 0.815685 0.500000
O O12 0.500000 0.799981 0.563422
O O13 0.250000 0.750000 0.564653
O O14 0.224241 0.500000 0.109889
O O15 0.000000 0.557189 0.099386
O O16 0.247547 0.572789 0.050565
O O17 0.250000 0.250000 0.755708
O O18 0.000000 0.297704 0.738433
O O19 0.000000 0.928329 0.000000
O O20 0.817193 0.000000 0.000000
#
# Coordination Sequence:
#
# PCOD9485383 Si02
#       7
#    16  16  16  16  16  16   8
#     4  10  19  31  48  68  91 119 149 180 216 259
#     4   9  18  31  46  66  92 120 149 181 217 257
#     4   9  18  30  45  66  89 116 150 184 218 259
#     4  10  20  33  49  69  92 116 144 180 222 266
#     4   9  16  27  43  62  86 115 145 177 214 256
#     4  10  19  31  46  65  91 119 148 181 218 261
#     4   9  17  27  39  59  86 115 146 177 212 255
#
# _framework density 15.316852000000001
#
# number of rings (size 3 to 8) (size 9 to 14) (size 15 to 20)
#    0.000    2.538    0.000    2.538    0.000    4.615 
#    0.000    1.538    0.000    0.462    0.000    3.769 
#    0.000    0.000    0.000    0.000    0.000    0.000 
#
# Total GULP energy -289902.006547 kJ/mol
# GULP energy per Si atom -5575.038587 kJ/mol
# Density = 1.528199 g / cm^3
# Si number density = 15.316852 Si / 1000 Ang^3
#
#
#
# Elastic Constant Matrix: (Units=GPa)
#
#
# Indices 1 2 3 4 5 6 
#
# 1 37.8873 35.3599 47.2008 0.0000 0.0000 0.0000
# 2 35.3599 98.6445 71.3961 0.0000 0.0000 0.0000
# 3 47.2008 71.3961 141.8321 0.0000 0.0000 0.0000
# 4 0.0000 0.0000 0.0000 20.6509 0.0000 0.0000
# 5 0.0000 0.0000 0.0000 0.0000 19.4622 0.0000
# 6 0.0000 0.0000 0.0000 0.0000 0.0000 16.4713
#
#
#
# Elastic Compliance Matrix: (Units=1/GPa)
#
#
# Indices 1 2 3 4 5 6 
#
# 1 0.049917 -0.009234 -0.011964 0.000000 0.000000 0.000000
# 2 -0.009234 0.017656 -0.005815 0.000000 0.000000 0.000000
# 3 -0.011964 -0.005815 0.013959 0.000000 0.000000 0.000000
# 4 0.000000 0.000000 0.000000 0.048424 0.000000 0.000000
# 5 0.000000 0.000000 0.000000 0.000000 0.051382 0.000000
# 6 0.000000 0.000000 0.000000 0.000000 0.000000 0.060712
#
#
# Mechanical properties :
#
#
# Convention : Reuss Voigt Hill
#
# Bulk Modulus (GPa) = 36.35462 65.14196 50.74829
# Shear Modulus (GPa) = 16.38039 19.61068 17.99553
#
# Velocity S-wave (km/s) = 3.27377 3.58206 3.43138
# Velocity P-wave (km/s) = 6.17063 7.72853 6.99310
#
# Compressibility (1/GPa) = 0.02750682
#
# Stress axis : x y z
#
# Youngs Moduli (GPa) = 20.03338 56.63809 71.63813
#
# Poissons Ratio (x) = 0.52300 0.85705
# Poissons Ratio (y) = 0.18499 0.41655
# Poissons Ratio (z) = 0.23967 0.32933
#
# Static dielectric constant tensor:
#      x y z
#    x 1.511030 0.000000 0.000000 
#    y 0.000000 1.505970 0.000000 
#    z 0.000000 0.000000 1.495170 
# 
# From -- ./inp_files/68235.got.cif
#   From: 2010.05.17/outbox.cif.g08.bks.cpg/sg65_35_cif.got.tgz:68235.got - 2010.06.03 17:01:31.
