data_PCOD9485572
_publ_section_title
;
Structure prediction by ZEFSAII (Michael W. Deem and Ramdas Pophale) SiO2 
 PCOD9485572
Probable space group: C M M M
;
_chemical_formula_sum "Si O2"
_cell_formula_units_Z 88
_cell_length_a 9.045228
_cell_length_b 18.746016
_cell_length_c 29.407285
_cell_angle_alpha 90.000000
_cell_angle_beta 90.000000
_cell_angle_gamma 90.000000
_cell_volume 4986.357730
_symmetry_space_group_name_H-M "C M M M"
_symmetry_group_IT_number 65
_symmetry_cell_setting 'orthorhombic'
loop_
_space_group_symop_operation_xyz
x,y,z
-x,-y,z
x,-y,-z
-x,y,-z
-x,-y,-z
x,y,-z
-x,y,z
x,-y,z
1/2+x,1/2+y,z
1/2-x,1/2-y,z
1/2+x,1/2-y,-z
1/2-x,1/2+y,-z
1/2-x,1/2-y,-z
1/2+x,1/2+y,-z
1/2-x,1/2+y,z
1/2+x,1/2-y,z
loop_
_atom_site_type_symbol
_atom_site_label
_atom_site_fract_x
_atom_site_fract_y
_atom_site_fract_z
Si Si1 0.679806 0.918227 0.500000
Si Si2 0.180127 0.582323 0.676459
Si Si3 0.828024 0.914167 0.869144
Si Si4 0.670745 0.086821 0.776813
Si Si5 0.820838 0.327649 0.411465
Si Si6 0.676255 0.827362 0.051678
O O1 0.500000 0.920541 0.500000
O O2 0.723426 0.875503 0.545195
O O3 0.731894 0.000000 0.500000
O O4 0.227367 0.500000 0.669441
O O5 0.226823 0.608036 0.726705
O O6 0.224518 0.632162 0.634876
O O7 0.000000 0.581117 0.677587
O O8 0.764639 0.890456 0.820223
O O9 0.738748 0.879391 0.910174
O O10 0.000000 0.895410 0.872962
O O11 0.814362 0.000000 0.871106
O O12 0.500000 0.109319 0.782420
O O13 0.670825 0.000000 0.775830
O O14 0.750000 0.250000 0.414377
O O15 0.000000 0.322003 0.411641
O O16 0.500000 0.821021 0.055769
O O17 0.750000 0.750000 0.057448
O O18 0.710389 0.851879 0.000000
#
# Coordination Sequence:
#
# PCOD9485572 Si02
#       6
#     8  16  16  16  16  16
#     4   9  17  30  51  75  94 121 166 210 240 277
#     4   8  14  27  49  72  91 120 166 210 241 278
#     4  10  20  33  51  77 107 136 167 206 251 297
#     4   8  14  27  48  71  94 123 162 207 250 289
#     4  10  19  31  48  71 100 129 158 197 246 296
#     4  10  21  37  56  76 100 132 169 208 251 301
#
# _framework density 17.648153000000001
#
# number of rings (size 3 to 8) (size 9 to 14) (size 15 to 20)
#    0.000    2.818    0.000    3.000    0.000    4.727 
#    0.000    3.636    0.000    6.000    0.000    0.000 
#    0.000    0.000    0.000    0.000    0.000    0.000 
#
# Total GULP energy -245278.071846 kJ/mol
# GULP energy per Si atom -5574.501633 kJ/mol
# Density = 1.760799 g / cm^3
# Si number density = 17.648153 Si / 1000 Ang^3
#
#
#
# Elastic Constant Matrix: (Units=GPa)
#
#
# Indices 1 2 3 4 5 6 
#
# 1 46.8943 31.1993 58.4643 0.0000 0.0000 0.0000
# 2 31.1993 75.0751 72.7318 0.0000 0.0000 0.0000
# 3 58.4643 72.7318 182.0599 0.0000 0.0000 0.0000
# 4 0.0000 0.0000 0.0000 -19.2091 0.0000 0.0000
# 5 0.0000 0.0000 0.0000 0.0000 10.2130 0.0000
# 6 0.0000 0.0000 0.0000 0.0000 0.0000 26.2246
#
#
#
# Elastic Compliance Matrix: (Units=1/GPa)
#
#
# Indices 1 2 3 4 5 6 
#
# 1 0.037337 -0.006363 -0.009448 0.000000 0.000000 0.000000
# 2 -0.006363 0.022815 -0.007071 0.000000 0.000000 0.000000
# 3 -0.009448 -0.007071 0.011351 0.000000 0.000000 0.000000
# 4 0.000000 0.000000 0.000000 -0.052059 0.000000 0.000000
# 5 0.000000 0.000000 0.000000 0.000000 0.097914 0.000000
# 6 0.000000 0.000000 0.000000 0.000000 0.000000 0.038132
#
#
# Mechanical properties :
#
#
# Convention : Reuss Voigt Hill
#
# Bulk Modulus (GPa) = 38.85167 69.86890 54.36029
# Shear Modulus (GPa) = 23.82833 12.88797 18.35815
#
# Velocity S-wave (km/s) = 3.67848 2.70529 3.22876
# Velocity P-wave (km/s) = 6.33277 7.03093 6.69096
#
# Compressibility (1/GPa) = 0.02573892
#
# Stress axis : x y z
#
# Youngs Moduli (GPa) = 26.78312 43.83162 88.09509
#
# Poissons Ratio (x) = 0.27892 0.83230
# Poissons Ratio (y) = 0.17043 0.62290
# Poissons Ratio (z) = 0.25304 0.30993
#
# Static dielectric constant tensor:
#      x y z
#    x 1.590540 0.000000 0.000000 
#    y 0.000000 1.576410 0.000000 
#    z 0.000000 0.000000 1.612570 
# 
# From -- ./inp_files/76442.got.cif
#   From: 2010.05.17/outbox.cif.g08.bks.cpg/sg65_39_cif.got.tgz:76442.got - 2010.06.03 17:01:31.
