data_PCOD9485649
_publ_section_title
;
Structure prediction by ZEFSAII (Michael W. Deem and Ramdas Pophale) SiO2 
 PCOD9485649
Probable space group: C M M M
;
_chemical_formula_sum "Si O2"
_cell_formula_units_Z 88
_cell_length_a 18.425586
_cell_length_b 7.387760
_cell_length_c 29.652011
_cell_angle_alpha 90.000000
_cell_angle_beta 90.000000
_cell_angle_gamma 90.000000
_cell_volume 4036.344629
_symmetry_space_group_name_H-M "C M M M"
_symmetry_group_IT_number 65
_symmetry_cell_setting 'orthorhombic'
loop_
_space_group_symop_operation_xyz
x,y,z
-x,-y,z
x,-y,-z
-x,y,-z
-x,-y,-z
x,y,-z
-x,y,z
x,-y,z
1/2+x,1/2+y,z
1/2-x,1/2-y,z
1/2+x,1/2-y,-z
1/2-x,1/2+y,-z
1/2-x,1/2-y,-z
1/2+x,1/2+y,-z
1/2-x,1/2+y,z
1/2+x,1/2-y,z
loop_
_atom_site_type_symbol
_atom_site_label
_atom_site_fract_x
_atom_site_fract_y
_atom_site_fract_z
Si Si1 0.084122 0.221438 0.819310
Si Si2 0.335498 0.283985 0.729084
Si Si3 0.664557 0.283679 0.449955
Si Si4 0.664310 0.283930 0.090377
Si Si5 0.915814 0.778566 0.000000
Si Si6 0.083741 0.221424 0.360714
O O1 0.124010 0.283422 0.773836
O O2 0.126526 0.283264 0.863924
O O3 0.000000 0.274982 0.820193
O O4 0.085494 0.000000 0.819248
O O5 0.345930 0.500000 0.728848
O O6 0.250000 0.250000 0.730972
O O7 0.370702 0.216529 0.682628
O O8 0.645555 0.213503 0.500000
O O9 0.654315 0.500000 0.451286
O O10 0.750000 0.250000 0.442644
O O11 0.618932 0.215686 0.407616
O O12 0.654202 0.500000 0.090418
O O13 0.750000 0.250000 0.090016
O O14 0.625498 0.216741 0.045012
O O15 0.000000 0.724960 0.000000
O O16 0.914546 0.000000 0.000000
O O17 0.000000 0.274157 0.356828
O O18 0.085881 0.000000 0.361098
#
# Coordination Sequence:
#
# PCOD9485649 Si02
#       6
#    16  16  16  16   8  16
#     4   9  17  30  49  71  92 118 155 192 223 261
#     4  10  19  31  49  70  92 119 150 186 226 268
#     4   9  17  29  46  67  90 117 148 183 223 266
#     4  10  19  31  49  71  95 122 152 189 229 270
#     4   9  17  30  49  71  92 119 158 196 226 261
#     4   9  17  29  46  68  91 116 150 189 224 260
#
# _framework density 21.801904
#
# number of rings (size 3 to 8) (size 9 to 14) (size 15 to 20)
#    0.000    2.636    0.000    2.455    0.000    4.727 
#    0.000    1.818    0.000    7.636    0.000    2.545 
#    0.000    0.000    0.000    0.000    0.000    0.000 
#
# Total GULP energy -245893.869356 kJ/mol
# GULP energy per Si atom -5588.497031 kJ/mol
# Density = 2.175228 g / cm^3
# Si number density = 21.801904 Si / 1000 Ang^3
#
#
#
# Elastic Constant Matrix: (Units=GPa)
#
#
# Indices 1 2 3 4 5 6 
#
# 1 215.9940 -4.8582 165.3537 0.0000 0.0000 0.0000
# 2 -4.8582 76.6565 12.0732 0.0000 0.0000 0.0000
# 3 165.3537 12.0732 265.8774 0.0000 0.0000 0.0000
# 4 0.0000 0.0000 0.0000 -17.7271 0.0000 0.0000
# 5 0.0000 0.0000 0.0000 0.0000 49.4781 0.0000
# 6 0.0000 0.0000 0.0000 0.0000 0.0000 23.0237
#
#
#
# Elastic Compliance Matrix: (Units=1/GPa)
#
#
# Indices 1 2 3 4 5 6 
#
# 1 0.008997 0.001462 -0.005662 0.000000 0.000000 0.000000
# 2 0.001462 0.013377 -0.001517 0.000000 0.000000 0.000000
# 3 -0.005662 -0.001517 0.007351 0.000000 0.000000 0.000000
# 4 0.000000 0.000000 0.000000 -0.056411 0.000000 0.000000
# 5 0.000000 0.000000 0.000000 0.000000 0.020211 0.000000
# 6 0.000000 0.000000 0.000000 0.000000 0.000000 0.043433
#
#
# Mechanical properties :
#
#
# Convention : Reuss Voigt Hill
#
# Bulk Modulus (GPa) = 54.66894 100.40727 77.53810
# Shear Modulus (GPa) = 91.76184 36.68554 64.22369
#
# Velocity S-wave (km/s) = 6.49463 4.10649 5.43340
# Velocity P-wave (km/s) = 9.02054 8.28485 8.66051
#
# Compressibility (1/GPa) = 0.01829192
#
# Stress axis : x y z
#
# Youngs Moduli (GPa) = 111.14828 74.75677 136.03318
#
# Poissons Ratio (x) = -0.10929 0.77019
# Poissons Ratio (y) = -0.16249 0.20631
# Poissons Ratio (z) = 0.62930 0.11338
#
# Static dielectric constant tensor:
#      x y z
#    x 1.718770 0.000000 0.000000 
#    y 0.000000 1.841830 0.000000 
#    z 0.000000 0.000000 1.773250 
# 
# From -- ./inp_files/74245.got.cif
#   From: 2010.05.17/outbox.cif.g08.bks.cpg/sg65_38_cif.got.tgz:74245.got - 2010.06.03 17:01:31.
