data_PCOD9485997
_publ_section_title
;
Structure prediction by ZEFSAII (Michael W. Deem and Ramdas Pophale) SiO2 
 PCOD9485997
Probable space group: C M M M
;
_chemical_formula_sum "Si O2"
_cell_formula_units_Z 112
_cell_length_a 15.907687
_cell_length_b 25.157871
_cell_length_c 14.145932
_cell_angle_alpha 90.000000
_cell_angle_beta 90.000000
_cell_angle_gamma 90.000000
_cell_volume 5661.252027
_symmetry_space_group_name_H-M "C M M M"
_symmetry_group_IT_number 65
_symmetry_cell_setting 'orthorhombic'
loop_
_space_group_symop_operation_xyz
x,y,z
-x,-y,z
x,-y,-z
-x,y,-z
-x,-y,-z
x,y,-z
-x,y,z
x,-y,z
1/2+x,1/2+y,z
1/2-x,1/2-y,z
1/2+x,1/2-y,-z
1/2-x,1/2+y,-z
1/2-x,1/2-y,-z
1/2+x,1/2+y,-z
1/2-x,1/2+y,z
1/2+x,1/2-y,z
loop_
_atom_site_type_symbol
_atom_site_label
_atom_site_fract_x
_atom_site_fract_y
_atom_site_fract_z
Si Si1 0.902870 0.682957 0.105301
Si Si2 0.771172 0.560992 0.687861
Si Si3 0.595717 0.854988 0.387918
Si Si4 0.349380 0.751763 0.715377
Si Si5 0.250222 0.897145 0.105663
Si Si6 0.407996 0.652291 0.812182
Si Si7 0.910774 0.063069 0.335013
O O1 0.870579 0.723787 0.182359
O O2 0.838794 0.633950 0.107413
O O3 0.000000 0.668336 0.124756
O O4 0.899455 0.706123 0.000000
O O5 0.795449 0.500000 0.666713
O O6 0.839944 0.604856 0.661727
O O7 0.753165 0.566324 0.800798
O O8 0.684304 0.574490 0.631655
O O9 0.605217 0.859842 0.500000
O O10 0.500000 0.868458 0.361753
O O11 0.612433 0.794178 0.356882
O O12 0.250000 0.750000 0.700187
O O13 0.387362 0.693161 0.726654
O O14 0.173696 0.854841 0.122244
O O15 0.239870 0.920717 0.000000
O O16 0.500000 0.666238 0.853645
O O17 0.415742 0.595360 0.762119
O O18 0.000000 0.075383 0.385942
O O19 0.909857 0.000000 0.319924
#
# Coordination Sequence:
#
# PCOD9485997 Si02
#       7
#    16  16  16  16  16  16  16
#     4  10  20  34  54  78 111 157 199 235 280 336
#     4  10  20  37  62  90 118 154 201 252 301 353
#     4  11  25  44  64  87 118 156 195 243 310 375
#     4  12  21  37  59  84 119 154 195 249 299 352
#     4  10  20  35  54  83 121 158 199 243 288 346
#     4  10  19  31  51  81 116 158 204 246 287 340
#     4   8  15  31  55  82 114 151 191 237 292 349
#
# _framework density 19.783608999999998
#
# number of rings (size 3 to 8) (size 9 to 14) (size 15 to 20)
#    0.000    1.857    2.857    2.143    0.000    2.286 
#    0.000    0.714    0.000    0.429    0.000   15.000 
#    0.000    0.000    0.000    0.000    0.000    0.000 
#
# Total GULP energy -311750.897634 kJ/mol
# GULP energy per Si atom -5566.980315 kJ/mol
# Density = 1.973858 g / cm^3
# Si number density = 19.783609 Si / 1000 Ang^3
#
#
#
# Elastic Constant Matrix: (Units=GPa)
#
#
# Indices 1 2 3 4 5 6 
#
# 1 144.7377 35.4580 23.5416 0.0000 0.0000 0.0000
# 2 35.4580 22.8590 15.0925 0.0000 0.0000 0.0000
# 3 23.5416 15.0925 60.6374 0.0000 0.0000 0.0000
# 4 0.0000 0.0000 0.0000 -7.1196 0.0000 0.0000
# 5 0.0000 0.0000 0.0000 0.0000 47.6386 0.0000
# 6 0.0000 0.0000 0.0000 0.0000 0.0000 26.3109
#
#
#
# Elastic Compliance Matrix: (Units=1/GPa)
#
#
# Indices 1 2 3 4 5 6 
#
# 1 0.011144 -0.017267 -0.000029 0.000000 0.000000 0.000000
# 2 -0.017267 0.079103 -0.012985 0.000000 0.000000 0.000000
# 3 -0.000029 -0.012985 0.019735 0.000000 0.000000 0.000000
# 4 0.000000 0.000000 0.000000 -0.140458 0.000000 0.000000
# 5 0.000000 0.000000 0.000000 0.000000 0.020991 0.000000
# 6 0.000000 0.000000 0.000000 0.000000 0.000000 0.038007
#
#
# Mechanical properties :
#
#
# Convention : Reuss Voigt Hill
#
# Bulk Modulus (GPa) = 20.23448 41.82426 31.02937
# Shear Modulus (GPa) = 47.36777 23.64211 35.50494
#
# Velocity S-wave (km/s) = 4.89846 3.46068 4.24094
# Velocity P-wave (km/s) = 6.49949 6.09550 6.30073
#
# Compressibility (1/GPa) = 0.04942060
#
# Stress axis : x y z
#
# Youngs Moduli (GPa) = 89.73624 12.64167 50.67256
#
# Poissons Ratio (x) = 0.21828 0.00146
# Poissons Ratio (y) = 1.54946 0.65798
# Poissons Ratio (z) = 0.00258 0.16415
#
# Static dielectric constant tensor:
#      x y z
#    x 1.761040 0.000000 0.000000 
#    y 0.000000 1.718570 0.000000 
#    z 0.000000 0.000000 1.716610 
# 
# From -- ./inp_files/40872.got.cif
#   From: 2010.05.17/outbox.cif.g08.bks.cpg/sg65_21_cif.got.tgz:40872.got - 2010.06.03 17:01:31.
