data_PCOD9485247
_publ_section_title
;
Structure prediction by ZEFSAII (Michael W. Deem and Ramdas Pophale) SiO2 
 PCOD9485247
Probable space group: C M M M
;
_chemical_formula_sum "Si O2"
_cell_formula_units_Z 104
_cell_length_a 28.153693
_cell_length_b 24.692218
_cell_length_c 9.246713
_cell_angle_alpha 90.000000
_cell_angle_beta 90.000000
_cell_angle_gamma 90.000000
_cell_volume 6428.103360
_symmetry_space_group_name_H-M "C M M M"
_symmetry_group_IT_number 65
_symmetry_cell_setting 'orthorhombic'
loop_
_space_group_symop_operation_xyz
x,y,z
-x,-y,z
x,-y,-z
-x,y,-z
-x,-y,-z
x,y,-z
-x,y,z
x,-y,z
1/2+x,1/2+y,z
1/2-x,1/2-y,z
1/2+x,1/2-y,-z
1/2-x,1/2+y,-z
1/2-x,1/2-y,-z
1/2+x,1/2+y,-z
1/2-x,1/2+y,z
1/2+x,1/2-y,z
loop_
_atom_site_type_symbol
_atom_site_label
_atom_site_fract_x
_atom_site_fract_y
_atom_site_fract_z
Si Si1 0.181912 0.646714 0.173298
Si Si2 0.282424 0.370709 0.672842
Si Si3 0.000000 0.434341 0.666111
Si Si4 0.053377 0.065905 0.333611
Si Si5 0.355661 0.564764 0.837788
Si Si6 0.692317 0.254227 0.333615
Si Si7 0.902819 0.436475 0.826588
O O1 0.231638 0.630822 0.248699
O O2 0.171714 0.707136 0.233669
O O3 0.140783 0.603401 0.209526
O O4 0.187485 0.647923 0.000000
O O5 0.275650 0.370867 0.500000
O O6 0.313339 0.419652 0.731467
O O7 0.313287 0.316708 0.709631
O O8 0.048547 0.419146 0.747875
O O9 0.000000 0.500000 0.665725
O O10 0.000000 0.415734 0.500000
O O11 0.063081 0.081731 0.500000
O O12 0.094615 0.084899 0.228077
O O13 0.000000 0.083238 0.294639
O O14 0.053372 0.000000 0.331417
O O15 0.358800 0.500000 0.844786
O O16 0.346982 0.585421 0.000000
O O17 0.677193 0.246006 0.500000
O O18 0.750000 0.250000 0.331506
O O19 0.892842 0.500000 0.790139
O O20 0.909868 0.434206 0.000000
#
# Coordination Sequence:
#
# PCOD9485247 Si02
#       7
#    16  16   8  16  16  16  16
#     4  10  19  30  48  73  96 122 158 196 235 278
#     4  10  20  33  48  66  92 127 162 195 236 283
#     4   9  17  29  47  71  95 121 159 201 232 267
#     4   8  14  26  44  64  86 114 149 186 222 265
#     4  10  20  31  44  66  95 124 154 190 233 280
#     4   8  16  31  48  66  89 118 154 195 234 272
#     4   9  18  32  48  68  98 132 159 187 232 287
#
# _framework density 16.178955999999999
#
# number of rings (size 3 to 8) (size 9 to 14) (size 15 to 20)
#    0.000    2.846    0.000    3.000    0.000    7.385 
#    0.000    3.077    0.000    0.000    2.000    0.000 
#    0.000    0.000    0.000    0.000    0.000    0.000 
#
# Total GULP energy -289470.575562 kJ/mol
# GULP energy per Si atom -5566.741838 kJ/mol
# Density = 1.614213 g / cm^3
# Si number density = 16.178956 Si / 1000 Ang^3
#
#
#
# Elastic Constant Matrix: (Units=GPa)
#
#
# Indices 1 2 3 4 5 6 
#
# 1 94.5705 41.6754 59.5215 0.0000 0.0000 0.0000
# 2 41.6754 46.9901 39.1122 0.0000 0.0000 0.0000
# 3 59.5215 39.1122 75.9783 0.0000 0.0000 0.0000
# 4 0.0000 0.0000 0.0000 22.8111 0.0000 0.0000
# 5 0.0000 0.0000 0.0000 0.0000 13.8010 0.0000
# 6 0.0000 0.0000 0.0000 0.0000 0.0000 6.3568
#
#
#
# Elastic Compliance Matrix: (Units=1/GPa)
#
#
# Indices 1 2 3 4 5 6 
#
# 1 0.023038 -0.009466 -0.013175 0.000000 0.000000 0.000000
# 2 -0.009466 0.041125 -0.013755 0.000000 0.000000 0.000000
# 3 -0.013175 -0.013755 0.030564 0.000000 0.000000 0.000000
# 4 0.000000 0.000000 0.000000 0.043838 0.000000 0.000000
# 5 0.000000 0.000000 0.000000 0.000000 0.072459 0.000000
# 6 0.000000 0.000000 0.000000 0.000000 0.000000 0.157311
#
#
# Mechanical properties :
#
#
# Convention : Reuss Voigt Hill
#
# Bulk Modulus (GPa) = 45.58884 55.35079 50.46981
# Shear Modulus (GPa) = 11.14983 13.74245 12.44614
#
# Velocity S-wave (km/s) = 2.62803 2.91761 2.77660
# Velocity P-wave (km/s) = 6.11946 6.75543 6.44529
#
# Compressibility (1/GPa) = 0.02193519
#
# Stress axis : x y z
#
# Youngs Moduli (GPa) = 43.40715 24.31596 32.71866
#
# Poissons Ratio (x) = 0.23017 0.43106
# Poissons Ratio (y) = 0.41089 0.45004
# Poissons Ratio (z) = 0.57188 0.33446
#
# Static dielectric constant tensor:
#      x y z
#    x 1.526750 0.000000 0.000000 
#    y 0.000000 1.577820 0.000000 
#    z 0.000000 0.000000 1.551490 
# 
# From -- ./inp_files/16982.got.cif
#   From: 2010.05.17/outbox.cif.g08.bks.cpg/sg65_9_cif.got.tgz:16982.got - 2010.06.03 17:01:31.
