data_PCOD9485585
_publ_section_title
;
Structure prediction by ZEFSAII (Michael W. Deem and Ramdas Pophale) SiO2 
 PCOD9485585
Probable space group: C M M M
;
_chemical_formula_sum "Si O2"
_cell_formula_units_Z 104
_cell_length_a 7.685412
_cell_length_b 25.270052
_cell_length_c 26.007373
_cell_angle_alpha 90.000000
_cell_angle_beta 90.000000
_cell_angle_gamma 90.000000
_cell_volume 5050.911699
_symmetry_space_group_name_H-M "C M M M"
_symmetry_group_IT_number 65
_symmetry_cell_setting 'orthorhombic'
loop_
_space_group_symop_operation_xyz
x,y,z
-x,-y,z
x,-y,-z
-x,y,-z
-x,-y,-z
x,y,-z
-x,y,z
x,-y,z
1/2+x,1/2+y,z
1/2-x,1/2-y,z
1/2+x,1/2-y,-z
1/2-x,1/2+y,-z
1/2-x,1/2-y,-z
1/2+x,1/2+y,-z
1/2-x,1/2+y,z
1/2+x,1/2-y,z
loop_
_atom_site_type_symbol
_atom_site_label
_atom_site_fract_x
_atom_site_fract_y
_atom_site_fract_z
Si Si1 0.785427 0.500000 0.740700
Si Si2 0.207341 0.808842 0.209519
Si Si3 0.796205 0.579409 0.944647
Si Si4 0.707073 0.308241 0.091551
Si Si5 0.289778 0.187694 0.387240
Si Si6 0.791668 0.312291 0.500000
Si Si7 0.203243 0.612236 0.702530
Si Si8 0.787395 0.500000 0.140752
O O1 0.725357 0.446217 0.713093
O O2 0.728364 0.500000 0.800465
O O3 0.000000 0.500000 0.741002
O O4 0.250000 0.750000 0.229660
O O5 0.272462 0.811076 0.150722
O O6 0.284145 0.853963 0.245218
O O7 0.000000 0.814922 0.209134
O O8 0.780367 0.642072 0.938366
O O9 0.728554 0.549960 0.893851
O O10 0.000000 0.565701 0.946368
O O11 0.719338 0.563756 0.000000
O O12 0.500000 0.313685 0.092215
O O13 0.750000 0.250000 0.071227
O O14 0.500000 0.184895 0.387291
O O15 0.250000 0.250000 0.379122
O O16 0.226742 0.169680 0.444040
O O17 0.221618 0.149379 0.342480
O O18 0.750000 0.250000 0.500000
O O19 0.000000 0.319772 0.500000
O O20 0.000000 0.604830 0.690145
O O21 0.000000 0.500000 0.143912
#
# Coordination Sequence:
#
# PCOD9485585 Si02
#       8
#     8  16  16  16  16   8  16   8
#     4   9  18  31  49  71  96 129 165 200 239 286
#     4  10  20  33  50  73  99 127 159 197 242 292
#     4  10  20  34  54  78 100 123 156 199 242 284
#     4  10  21  36  53  73  99 131 163 194 234 288
#     4   9  17  28  45  69  97 128 162 201 244 289
#     4   8  14  26  42  63  93 127 161 198 241 286
#     4  10  19  31  48  71  98 129 165 204 245 289
#     4   9  17  32  54  76  97 124 159 198 241 288
#
# _framework density 20.590343000000001
#
# number of rings (size 3 to 8) (size 9 to 14) (size 15 to 20)
#    0.000    2.462    0.000    2.538    0.000    6.462 
#    0.000    0.769    0.000    4.154    0.000    3.231 
#    0.000    0.000    0.000   12.692    0.000    9.385 
#
# Total GULP energy -290162.802044 kJ/mol
# GULP energy per Si atom -5580.053885 kJ/mol
# Density = 2.054348 g / cm^3
# Si number density = 20.590343 Si / 1000 Ang^3
#
#
#
# Elastic Constant Matrix: (Units=GPa)
#
#
# Indices 1 2 3 4 5 6 
#
# 1 38.9731 -0.1872 7.3897 0.0000 0.0000 0.0000
# 2 -0.1872 150.1710 73.4510 0.0000 0.0000 0.0000
# 3 7.3897 73.4510 125.9626 0.0000 0.0000 0.0000
# 4 0.0000 0.0000 0.0000 19.4767 0.0000 0.0000
# 5 0.0000 0.0000 0.0000 0.0000 5.0079 0.0000
# 6 0.0000 0.0000 0.0000 0.0000 0.0000 11.0467
#
#
#
# Elastic Compliance Matrix: (Units=1/GPa)
#
#
# Indices 1 2 3 4 5 6 
#
# 1 0.026075 0.001092 -0.002167 0.000000 0.000000 0.000000
# 2 0.001092 0.009362 -0.005523 0.000000 0.000000 0.000000
# 3 -0.002167 -0.005523 0.011287 0.000000 0.000000 0.000000
# 4 0.000000 0.000000 0.000000 0.051343 0.000000 0.000000
# 5 0.000000 0.000000 0.000000 0.000000 0.199686 0.000000
# 6 0.000000 0.000000 0.000000 0.000000 0.000000 0.090525
#
#
# Mechanical properties :
#
#
# Convention : Reuss Voigt Hill
#
# Bulk Modulus (GPa) = 29.82560 52.93484 41.38022
# Shear Modulus (GPa) = 12.11687 22.73648 17.42668
#
# Velocity S-wave (km/s) = 2.42848 3.32660 2.91237
# Velocity P-wave (km/s) = 4.73075 6.36549 5.60801
#
# Compressibility (1/GPa) = 0.03352824
#
# Stress axis : x y z
#
# Youngs Moduli (GPa) = 38.35124 106.81593 88.60049
#
# Poissons Ratio (x) = -0.11667 0.19196
# Poissons Ratio (y) = -0.04189 0.48935
# Poissons Ratio (z) = 0.08309 0.58996
#
# Static dielectric constant tensor:
#      x y z
#    x 1.777530 0.000000 0.000000 
#    y 0.000000 1.697920 0.000000 
#    z 0.000000 0.000000 1.771480 
# 
# From -- ./inp_files/73628.got.cif
#   From: 2010.05.17/outbox.cif.g08.bks.cpg/sg65_37_cif.got.tgz:73628.got - 2010.06.03 17:01:31.
