data_PCOD9485071
_publ_section_title
;
Structure prediction by ZEFSAII (Michael W. Deem and Ramdas Pophale) SiO2 
 PCOD9485071
Probable space group: C M M M
;
_chemical_formula_sum "Si O2"
_cell_formula_units_Z 104
_cell_length_a 8.093223
_cell_length_b 28.268628
_cell_length_c 29.210801
_cell_angle_alpha 90.000000
_cell_angle_beta 90.000000
_cell_angle_gamma 90.000000
_cell_volume 6682.972960
_symmetry_space_group_name_H-M "C M M M"
_symmetry_group_IT_number 65
_symmetry_cell_setting 'orthorhombic'
loop_
_space_group_symop_operation_xyz
x,y,z
-x,-y,z
x,-y,-z
-x,y,-z
-x,-y,-z
x,y,-z
-x,y,z
x,-y,z
1/2+x,1/2+y,z
1/2-x,1/2-y,z
1/2+x,1/2-y,-z
1/2-x,1/2+y,-z
1/2-x,1/2-y,-z
1/2+x,1/2+y,-z
1/2-x,1/2+y,z
1/2+x,1/2-y,z
loop_
_atom_site_type_symbol
_atom_site_label
_atom_site_fract_x
_atom_site_fract_y
_atom_site_fract_z
Si Si1 0.301994 0.946473 0.217236
Si Si2 0.198543 0.353285 0.449401
Si Si3 0.000000 0.057656 0.947115
Si Si4 0.308919 0.057557 0.114622
Si Si5 0.200256 0.946394 0.599857
Si Si6 0.196293 0.895109 0.692005
Si Si7 0.697055 0.803196 0.357848
O O1 0.500000 0.949657 0.215659
O O2 0.254541 0.929561 0.166377
O O3 0.255897 0.913462 0.259276
O O4 0.236175 0.000000 0.224681
O O5 0.262677 0.341544 0.500000
O O6 0.239864 0.407227 0.435933
O O7 0.262257 0.320998 0.407577
O O8 0.000000 0.348612 0.450283
O O9 0.167772 0.072688 0.920957
O O10 0.000000 0.000000 0.946288
O O11 0.000000 0.072452 0.000000
O O12 0.500000 0.072914 0.105970
O O13 0.313306 0.000000 0.114168
O O14 0.257661 0.928229 0.649997
O O15 0.000000 0.945954 0.599531
O O16 0.255211 0.000000 0.591173
O O17 0.245585 0.841943 0.678838
O O18 0.000000 0.898347 0.691679
O O19 0.500000 0.805014 0.359474
O O20 0.750000 0.750000 0.348267
#
# Coordination Sequence:
#
# PCOD9485071 Si02
#       7
#    16  16   8  16  16  16  16
#     4   9  17  28  42  62  89 119 149 185 227 266
#     4   9  19  34  49  66  86 108 137 171 209 254
#     4   9  16  24  36  54  76 110 158 202 237 273
#     4   8  15  26  37  53  80 112 149 195 238 273
#     4   9  18  31  44  62  89 115 140 171 208 250
#     4  10  19  30  46  67  87 111 144 178 213 262
#     4  10  20  35  52  67  86 109 134 172 214 259
#
# _framework density 15.561937
#
# number of rings (size 3 to 8) (size 9 to 14) (size 15 to 20)
#    0.000    2.846    0.000    2.308    1.077    3.692 
#    0.000    3.077    0.000    0.000    0.000    0.000 
#    0.000    0.000    0.000    0.000    0.000    0.769 
#
# Total GULP energy -289705.639349 kJ/mol
# GULP energy per Si atom -5571.262295 kJ/mol
# Density = 1.552652 g / cm^3
# Si number density = 15.561937 Si / 1000 Ang^3
#
#
#
# Elastic Constant Matrix: (Units=GPa)
#
#
# Indices 1 2 3 4 5 6 
#
# 1 30.8896 0.3004 38.4118 0.0000 0.0000 0.0000
# 2 0.3004 50.0474 31.3371 0.0000 0.0000 0.0000
# 3 38.4118 31.3371 125.6906 0.0000 0.0000 0.0000
# 4 0.0000 0.0000 0.0000 9.5900 0.0000 0.0000
# 5 0.0000 0.0000 0.0000 0.0000 21.9092 0.0000
# 6 0.0000 0.0000 0.0000 0.0000 0.0000 17.9203
#
#
#
# Elastic Compliance Matrix: (Units=1/GPa)
#
#
# Indices 1 2 3 4 5 6 
#
# 1 0.058435 0.012835 -0.021058 0.000000 0.000000 0.000000
# 2 0.012835 0.026496 -0.010528 0.000000 0.000000 0.000000
# 3 -0.021058 -0.010528 0.017016 0.000000 0.000000 0.000000
# 4 0.000000 0.000000 0.000000 0.104275 0.000000 0.000000
# 5 0.000000 0.000000 0.000000 0.000000 0.045643 0.000000
# 6 0.000000 0.000000 0.000000 0.000000 0.000000 0.055803
#
#
# Mechanical properties :
#
#
# Convention : Reuss Voigt Hill
#
# Bulk Modulus (GPa) = 15.51734 38.52514 27.02124
# Shear Modulus (GPa) = 13.63688 18.98913 16.31300
#
# Velocity S-wave (km/s) = 2.96344 3.49697 3.24120
# Velocity P-wave (km/s) = 4.65857 6.41208 5.60433
#
# Compressibility (1/GPa) = 0.06444403
#
# Stress axis : x y z
#
# Youngs Moduli (GPa) = 17.11316 37.74102 58.76681
#
# Poissons Ratio (x) = -0.48439 1.23751
# Poissons Ratio (y) = -0.21964 0.61872
# Poissons Ratio (z) = 0.36037 0.39735
#
# Static dielectric constant tensor:
#      x y z
#    x 1.544880 0.000000 0.000000 
#    y 0.000000 1.483060 0.000000 
#    z 0.000000 0.000000 1.538760 
# 
# From -- ./inp_files/73740.got.cif
#   From: 2010.05.17/outbox.cif.g08.bks.cpg/sg65_37_cif.got.tgz:73740.got - 2010.06.03 17:01:31.
