data_PCOD9485792
_publ_section_title
;
Structure prediction by ZEFSAII (Michael W. Deem and Ramdas Pophale) SiO2 
 PCOD9485792
Probable space group: C M M M
;
_chemical_formula_sum "Si O2"
_cell_formula_units_Z 104
_cell_length_a 24.287303
_cell_length_b 16.978034
_cell_length_c 13.464562
_cell_angle_alpha 90.000000
_cell_angle_beta 90.000000
_cell_angle_gamma 90.000000
_cell_volume 5552.120975
_symmetry_space_group_name_H-M "C M M M"
_symmetry_group_IT_number 65
_symmetry_cell_setting 'orthorhombic'
loop_
_space_group_symop_operation_xyz
x,y,z
-x,-y,z
x,-y,-z
-x,y,-z
-x,-y,-z
x,y,-z
-x,y,z
x,-y,z
1/2+x,1/2+y,z
1/2-x,1/2-y,z
1/2+x,1/2-y,-z
1/2-x,1/2+y,-z
1/2-x,1/2-y,-z
1/2+x,1/2+y,-z
1/2-x,1/2+y,z
1/2+x,1/2-y,z
loop_
_atom_site_type_symbol
_atom_site_label
_atom_site_fract_x
_atom_site_fract_y
_atom_site_fract_z
Si Si1 0.663945 0.405803 0.296435
Si Si2 0.166404 0.593455 0.813005
Si Si3 0.226493 0.836481 0.887846
Si Si4 0.436152 0.848212 0.744703
Si Si5 0.434460 0.000000 0.390254
Si Si6 0.278797 0.904812 0.607642
Si Si7 0.936312 0.189211 0.382711
O O1 0.661482 0.500000 0.283889
O O2 0.682838 0.366297 0.192883
O O3 0.714665 0.388252 0.371292
O O4 0.607888 0.371669 0.340159
O O5 0.155924 0.500000 0.813544
O O6 0.218791 0.609786 0.881436
O O7 0.110055 0.641204 0.829299
O O8 0.188282 0.621806 0.704302
O O9 0.250000 0.750000 0.863329
O O10 0.204625 0.835954 0.000000
O O11 0.500000 0.855265 0.777130
O O12 0.423179 0.921677 0.671472
O O13 0.430740 0.769070 0.681120
O O14 0.500000 0.000000 0.401997
O O15 0.408782 0.000000 0.500000
O O16 0.296005 0.873906 0.500000
O O17 0.284450 0.000000 0.607105
O O18 0.926919 0.204125 0.500000
O O19 0.000000 0.162547 0.372365
#
# Coordination Sequence:
#
# PCOD9485792 Si02
#       7
#    16  16  16  16   8  16  16
#     4  10  20  35  56  80 108 141 181 225 271 327
#     4  10  19  31  49  77 106 136 179 224 267 320
#     4  10  21  38  60  83 108 137 171 219 280 340
#     4  10  19  32  48  70 106 149 188 227 268 315
#     4   9  16  26  42  64  93 137 187 223 253 298
#     4   8  15  27  43  67  99 133 168 210 258 306
#     4  10  21  35  52  78 113 152 191 229 268 315
#
# _framework density 18.731580000000001
#
# number of rings (size 3 to 8) (size 9 to 14) (size 15 to 20)
#    0.000    2.385    0.769    3.231    0.000    5.538 
#    0.000    0.769    0.000    6.000    0.000    6.462 
#    0.000    0.000    0.000    0.000    0.000    0.000 
#
# Total GULP energy -289982.908836 kJ/mol
# GULP energy per Si atom -5576.594401 kJ/mol
# Density = 1.868895 g / cm^3
# Si number density = 18.731580 Si / 1000 Ang^3
#
#
#
# Elastic Constant Matrix: (Units=GPa)
#
#
# Indices 1 2 3 4 5 6 
#
# 1 101.3645 29.8472 8.2496 0.0000 0.0000 0.0000
# 2 29.8472 50.9133 9.1269 0.0000 0.0000 0.0000
# 3 8.2496 9.1269 37.9271 0.0000 0.0000 0.0000
# 4 0.0000 0.0000 0.0000 8.4063 0.0000 0.0000
# 5 0.0000 0.0000 0.0000 0.0000 14.1406 0.0000
# 6 0.0000 0.0000 0.0000 0.0000 0.0000 32.7704
#
#
#
# Elastic Compliance Matrix: (Units=1/GPa)
#
#
# Indices 1 2 3 4 5 6 
#
# 1 0.011957 -0.006838 -0.000955 0.000000 0.000000 0.000000
# 2 -0.006838 0.024438 -0.004393 0.000000 0.000000 0.000000
# 3 -0.000955 -0.004393 0.027631 0.000000 0.000000 0.000000
# 4 0.000000 0.000000 0.000000 0.118958 0.000000 0.000000
# 5 0.000000 0.000000 0.000000 0.000000 0.070719 0.000000
# 6 0.000000 0.000000 0.000000 0.000000 0.000000 0.030515
#
#
# Mechanical properties :
#
#
# Convention : Reuss Voigt Hill
#
# Bulk Modulus (GPa) = 25.21929 31.62804 28.42367
# Shear Modulus (GPa) = 15.53718 20.59553 18.06636
#
# Velocity S-wave (km/s) = 2.88317 3.31948 3.10899
# Velocity P-wave (km/s) = 4.95745 5.62259 5.30046
#
# Compressibility (1/GPa) = 0.03965218
#
# Stress axis : x y z
#
# Youngs Moduli (GPa) = 83.63536 40.92055 36.19079
#
# Poissons Ratio (x) = 0.27982 0.03457
# Poissons Ratio (y) = 0.57192 0.15900
# Poissons Ratio (z) = 0.07988 0.17978
#
# Static dielectric constant tensor:
#      x y z
#    x 1.684720 0.000000 0.000000 
#    y 0.000000 1.651550 0.000000 
#    z 0.000000 0.000000 1.672430 
# 
# From -- ./inp_files/45781.got.cif
#   From: 2010.05.17/outbox.cif.g08.bks.cpg/sg65_23_cif.got.tgz:45781.got - 2010.06.03 17:01:31.
