data_PCOD9485795
_publ_section_title
;
Structure prediction by ZEFSAII (Michael W. Deem and Ramdas Pophale) SiO2 
 PCOD9485795
Probable space group: C M M M
;
_chemical_formula_sum "Si O2"
_cell_formula_units_Z 90
_cell_length_a 24.163955
_cell_length_b 9.125047
_cell_length_c 23.670214
_cell_angle_alpha 90.000000
_cell_angle_beta 90.000000
_cell_angle_gamma 90.000000
_cell_volume 5219.216504
_symmetry_space_group_name_H-M "C M M M"
_symmetry_group_IT_number 65
_symmetry_cell_setting 'orthorhombic'
loop_
_space_group_symop_operation_xyz
x,y,z
-x,-y,z
x,-y,-z
-x,y,-z
-x,-y,-z
x,y,-z
-x,y,z
x,-y,z
1/2+x,1/2+y,z
1/2-x,1/2-y,z
1/2+x,1/2-y,-z
1/2-x,1/2+y,-z
1/2-x,1/2-y,-z
1/2+x,1/2+y,-z
1/2-x,1/2+y,z
1/2+x,1/2-y,z
loop_
_atom_site_type_symbol
_atom_site_label
_atom_site_fract_x
_atom_site_fract_y
_atom_site_fract_z
Si Si1 0.500000 0.000000 0.500000
Si Si2 0.622493 0.332057 0.436694
Si Si3 0.393163 0.323821 0.772994
Si Si4 0.066879 0.168209 0.000000
Si Si5 0.000000 0.754601 0.408666
Si Si6 0.066232 0.675664 0.882645
Si Si7 0.690142 0.677474 0.327373
Si Si8 0.500000 0.171704 0.720445
O O1 0.500000 0.124400 0.451890
O O2 0.628819 0.264251 0.500000
O O3 0.641171 0.500000 0.441422
O O4 0.557796 0.335118 0.420322
O O5 0.656068 0.269356 0.383159
O O6 0.397334 0.500000 0.777711
O O7 0.396307 0.249968 0.834502
O O8 0.342752 0.288475 0.730588
O O9 0.446752 0.255452 0.743236
O O10 0.081450 0.255519 0.056815
O O11 0.000000 0.161813 0.000000
O O12 0.087158 0.000000 0.000000
O O13 0.000000 0.690975 0.346260
O O14 0.072034 0.500000 0.882617
O O15 0.000000 0.707009 0.872244
O O16 0.693980 0.500000 0.329987
O O17 0.750000 0.750000 0.327475
O O18 0.500000 0.000000 0.736934
#
# Coordination Sequence:
#
# PCOD9485795 Si02
#       8
#     2  16  16   8   8  16  16   8
#     4  12  24  36  46  80 124 140 172 216 268 358
#     4  10  20  36  59  80 103 135 177 221 270 331
#     4  11  22  36  56  79 110 144 186 228 273 332
#     4   9  17  29  47  73 112 159 198 223 258 311
#     4  12  21  35  53  78 114 138 173 212 275 333
#     4  10  19  31  49  79 116 152 188 226 270 318
#     4  10  23  41  57  79 103 138 184 233 281 332
#     4  12  23  33  51  82 109 141 174 222 279 332
#
# _framework density 17.243967999999999
#
# number of rings (size 3 to 8) (size 9 to 14) (size 15 to 20)
#    0.000    1.511    4.000    1.867    0.000    4.978 
#    1.600    0.000    0.000    0.000    0.000    0.622 
#    0.000    0.000    0.000    0.000    0.000    0.000 
#
# Total GULP energy -250577.361258 kJ/mol
# GULP energy per Si atom -5568.385806 kJ/mol
# Density = 1.720472 g / cm^3
# Si number density = 17.243968 Si / 1000 Ang^3
#
#
#
# Elastic Constant Matrix: (Units=GPa)
#
#
# Indices 1 2 3 4 5 6 
#
# 1 95.3104 31.8551 69.0184 0.0000 0.0000 0.0000
# 2 31.8551 70.7694 54.7451 0.0000 0.0000 0.0000
# 3 69.0184 54.7451 182.7055 0.0000 0.0000 0.0000
# 4 0.0000 0.0000 0.0000 32.1427 0.0000 0.0000
# 5 0.0000 0.0000 0.0000 0.0000 11.5164 0.0000
# 6 0.0000 0.0000 0.0000 0.0000 0.0000 24.1811
#
#
#
# Elastic Compliance Matrix: (Units=1/GPa)
#
#
# Indices 1 2 3 4 5 6 
#
# 1 0.014938 -0.003071 -0.004723 0.000000 0.000000 0.000000
# 2 -0.003071 0.019025 -0.004541 0.000000 0.000000 0.000000
# 3 -0.004723 -0.004541 0.008618 0.000000 0.000000 0.000000
# 4 0.000000 0.000000 0.000000 0.031111 0.000000 0.000000
# 5 0.000000 0.000000 0.000000 0.000000 0.086832 0.000000
# 6 0.000000 0.000000 0.000000 0.000000 0.000000 0.041355
#
#
# Mechanical properties :
#
#
# Convention : Reuss Voigt Hill
#
# Bulk Modulus (GPa) = 55.82549 73.33583 64.58066
# Shear Modulus (GPa) = 21.50359 26.44584 23.97472
#
# Velocity S-wave (km/s) = 3.53515 3.92041 3.73275
# Velocity P-wave (km/s) = 7.00766 7.94440 7.49069
#
# Compressibility (1/GPa) = 0.01791296
#
# Stress axis : x y z
#
# Youngs Moduli (GPa) = 66.94127 52.56223 116.03612
#
# Poissons Ratio (x) = 0.16140 0.54805
# Poissons Ratio (y) = 0.20555 0.52688
# Poissons Ratio (z) = 0.31617 0.23867
#
# Static dielectric constant tensor:
#      x y z
#    x 1.569150 0.000000 0.000000 
#    y 0.000000 1.598250 0.000000 
#    z 0.000000 0.000000 1.634200 
# 
# From -- ./inp_files/71133.got.cif
#   From: 2010.05.17/outbox.cif.g08.bks.cpg/sg65_36_cif.got.tgz:71133.got - 2010.06.03 17:01:31.
