data_PCOD9485965
_publ_section_title
;
Structure prediction by ZEFSAII (Michael W. Deem and Ramdas Pophale) SiO2 
 PCOD9485965
Probable space group: C M M M
;
_chemical_formula_sum "Si O2"
_cell_formula_units_Z 104
_cell_length_a 8.508727
_cell_length_b 31.603396
_cell_length_c 21.067858
_cell_angle_alpha 90.000000
_cell_angle_beta 90.000000
_cell_angle_gamma 90.000000
_cell_volume 5665.245379
_symmetry_space_group_name_H-M "C M M M"
_symmetry_group_IT_number 65
_symmetry_cell_setting 'orthorhombic'
loop_
_space_group_symop_operation_xyz
x,y,z
-x,-y,z
x,-y,-z
-x,y,-z
-x,-y,-z
x,y,-z
-x,y,z
x,-y,z
1/2+x,1/2+y,z
1/2-x,1/2-y,z
1/2+x,1/2-y,-z
1/2-x,1/2+y,-z
1/2-x,1/2-y,-z
1/2+x,1/2+y,-z
1/2-x,1/2+y,z
1/2+x,1/2-y,z
loop_
_atom_site_type_symbol
_atom_site_label
_atom_site_fract_x
_atom_site_fract_y
_atom_site_fract_z
Si Si1 0.192487 0.451165 0.638819
Si Si2 0.189533 0.389331 0.752422
Si Si3 0.810923 0.453489 0.140168
Si Si4 0.681850 0.705140 0.907170
Si Si5 0.680394 0.704206 0.245231
Si Si6 0.821904 0.058382 0.000000
Si Si7 0.175211 0.642972 0.000000
Si Si8 0.819020 0.448629 0.500000
O O1 0.239299 0.500000 0.650327
O O2 0.239513 0.419703 0.694546
O O3 0.249754 0.437235 0.568645
O O4 0.000000 0.451293 0.636829
O O5 0.245491 0.413689 0.817069
O O6 0.241586 0.341131 0.739820
O O7 0.000000 0.389050 0.755351
O O8 0.765208 0.500000 0.167130
O O9 0.757571 0.453146 0.066913
O O10 0.000000 0.451685 0.140751
O O11 0.500000 0.699681 0.926403
O O12 0.750000 0.750000 0.927843
O O13 0.686675 0.704342 0.831456
O O14 0.795026 0.670932 0.938252
O O15 0.500000 0.702950 0.265847
O O16 0.750000 0.750000 0.265839
O O17 0.809035 0.108554 0.000000
O O18 0.000000 0.044294 0.000000
O O19 0.000000 0.624452 0.000000
O O20 0.823591 0.500000 0.500000
O O21 0.000000 0.433544 0.500000
#
# Coordination Sequence:
#
# PCOD9485965 Si02
#       8
#    16  16  16  16  16   8   8   8
#     4   8  13  23  42  72 109 144 174 203 237 281
#     4  10  19  31  51  78 105 132 165 206 250 294
#     4  10  21  37  55  74  98 130 167 206 249 299
#     4  10  20  34  50  68  90 116 148 191 244 302
#     4  10  21  36  53  71  94 125 161 202 249 300
#     4  12  25  38  51  67  89 122 165 211 256 299
#     4  12  23  34  49  68  90 117 151 193 242 299
#     4   7  10  18  36  66 106 145 174 201 234 275
#
# _framework density 18.357544999999998
#
# number of rings (size 3 to 8) (size 9 to 14) (size 15 to 20)
#    0.000    2.231    0.000    5.077    0.000    8.000 
#    0.000    0.000    0.000    1.385    0.000    1.077 
#    0.000    1.846    0.000    0.000    0.000    0.000 
#
# Total GULP energy -289715.941087 kJ/mol
# GULP energy per Si atom -5571.460406 kJ/mol
# Density = 1.831576 g / cm^3
# Si number density = 18.357545 Si / 1000 Ang^3
#
#
#
# Elastic Constant Matrix: (Units=GPa)
#
#
# Indices 1 2 3 4 5 6 
#
# 1 43.5419 26.5356 16.3372 0.0000 0.0000 0.0000
# 2 26.5356 138.0483 50.5246 0.0000 0.0000 0.0000
# 3 16.3372 50.5246 92.6465 0.0000 0.0000 0.0000
# 4 0.0000 0.0000 0.0000 4.1510 0.0000 0.0000
# 5 0.0000 0.0000 0.0000 0.0000 2.7770 0.0000
# 6 0.0000 0.0000 0.0000 0.0000 0.0000 13.0902
#
#
#
# Elastic Compliance Matrix: (Units=1/GPa)
#
#
# Indices 1 2 3 4 5 6 
#
# 1 0.026421 -0.004215 -0.002361 0.000000 0.000000 0.000000
# 2 -0.004215 0.009723 -0.004559 0.000000 0.000000 0.000000
# 3 -0.002361 -0.004559 0.013696 0.000000 0.000000 0.000000
# 4 0.000000 0.000000 0.000000 0.240906 0.000000 0.000000
# 5 0.000000 0.000000 0.000000 0.000000 0.360097 0.000000
# 6 0.000000 0.000000 0.000000 0.000000 0.000000 0.076393
#
#
# Mechanical properties :
#
#
# Convention : Reuss Voigt Hill
#
# Bulk Modulus (GPa) = 36.26992 51.22572 43.74782
# Shear Modulus (GPa) = 6.59028 16.05960 11.32494
#
# Velocity S-wave (km/s) = 1.89677 2.96095 2.48646
# Velocity P-wave (km/s) = 4.95958 6.29719 5.66798
#
# Compressibility (1/GPa) = 0.02757105
#
# Stress axis : x y z
#
# Youngs Moduli (GPa) = 37.84928 102.85405 73.01302
#
# Poissons Ratio (x) = 0.43349 0.17235
# Poissons Ratio (y) = 0.15952 0.33286
# Poissons Ratio (z) = 0.08935 0.46891
#
# Static dielectric constant tensor:
#      x y z
#    x 1.643120 0.000000 0.000000 
#    y 0.000000 1.669880 0.000000 
#    z 0.000000 0.000000 1.650690 
# 
# From -- ./inp_files/60935.got.cif
#   From: 2010.05.17/outbox.cif.g08.bks.cpg/sg65_31_cif.got.tgz:60935.got - 2010.06.03 17:01:31.
