data_PCOD9485486
_publ_section_title
;
Structure prediction by ZEFSAII (Michael W. Deem and Ramdas Pophale) SiO2 
 PCOD9485486
Probable space group: C M M M
;
_chemical_formula_sum "Si O2"
_cell_formula_units_Z 96
_cell_length_a 17.727651
_cell_length_b 15.168268
_cell_length_c 18.981804
_cell_angle_alpha 90.000000
_cell_angle_beta 90.000000
_cell_angle_gamma 90.000000
_cell_volume 5104.164603
_symmetry_space_group_name_H-M "C M M M"
_symmetry_group_IT_number 65
_symmetry_cell_setting 'orthorhombic'
loop_
_space_group_symop_operation_xyz
x,y,z
-x,-y,z
x,-y,-z
-x,y,-z
-x,-y,-z
x,y,-z
-x,y,z
x,-y,z
1/2+x,1/2+y,z
1/2-x,1/2-y,z
1/2+x,1/2-y,-z
1/2-x,1/2+y,-z
1/2-x,1/2-y,-z
1/2+x,1/2+y,-z
1/2-x,1/2+y,z
1/2+x,1/2-y,z
loop_
_atom_site_type_symbol
_atom_site_label
_atom_site_fract_x
_atom_site_fract_y
_atom_site_fract_z
Si Si1 0.083903 0.135197 0.580920
Si Si2 0.410535 0.271258 0.204811
Si Si3 0.795204 0.159551 0.318179
Si Si4 0.408386 0.599755 0.080769
Si Si5 0.643997 0.902945 0.268610
Si Si6 0.412844 0.849296 0.422773
O O1 0.085544 0.107136 0.500000
O O2 0.161028 0.109760 0.619869
O O3 0.087247 0.242648 0.581446
O O4 0.000000 0.110741 0.609553
O O5 0.500000 0.281708 0.213816
O O6 0.386617 0.322507 0.134062
O O7 0.389658 0.169050 0.215587
O O8 0.364016 0.314220 0.267993
O O9 0.750000 0.250000 0.340186
O O10 0.734082 0.106792 0.273512
O O11 0.620867 0.115000 0.350328
O O12 0.500000 0.599245 0.080186
O O13 0.385192 0.500000 0.102617
O O14 0.383708 0.613990 0.000000
O O15 0.619791 0.000000 0.248685
O O16 0.379410 0.873411 0.500000
O O17 0.500000 0.877283 0.423634
#
# Coordination Sequence:
#
# PCOD9485486 Si02
#       6
#    16  16  16  16  16  16
#     4   9  16  28  49  73  94 122 170 234 295 342
#     4  10  19  33  56  82 107 139 178 216 261 317
#     4  10  19  31  47  69  98 136 178 223 266 315
#     4   8  15  30  55  88 118 136 159 209 272 321
#     4  11  23  35  47  71 110 152 187 223 268 317
#     4   9  17  30  49  72  96 129 179 236 286 325
#
# _framework density 18.808168999999999
#
# number of rings (size 3 to 8) (size 9 to 14) (size 15 to 20)
#    0.000    2.500    3.333    2.500    0.000    3.333 
#    0.000    0.833    0.000    6.500    0.000    3.500 
#    0.000    0.667    0.000    6.167    0.000    0.167 
#
# Total GULP energy -267281.144099 kJ/mol
# GULP energy per Si atom -5568.357169 kJ/mol
# Density = 1.876536 g / cm^3
# Si number density = 18.808169 Si / 1000 Ang^3
#
#
#
# Elastic Constant Matrix: (Units=GPa)
#
#
# Indices 1 2 3 4 5 6 
#
# 1 78.0559 14.9564 33.0914 0.0000 0.0000 0.0000
# 2 14.9564 106.0670 60.3915 0.0000 0.0000 0.0000
# 3 33.0914 60.3915 88.1757 0.0000 0.0000 0.0000
# 4 0.0000 0.0000 0.0000 -0.2122 0.0000 0.0000
# 5 0.0000 0.0000 0.0000 0.0000 3.9005 0.0000
# 6 0.0000 0.0000 0.0000 0.0000 0.0000 3.8698
#
#
#
# Elastic Compliance Matrix: (Units=1/GPa)
#
#
# Indices 1 2 3 4 5 6 
#
# 1 0.015451 0.001841 -0.007059 0.000000 0.000000 0.000000
# 2 0.001841 0.015674 -0.011426 0.000000 0.000000 0.000000
# 3 -0.007059 -0.011426 0.021816 0.000000 0.000000 0.000000
# 4 0.000000 0.000000 0.000000 -4.712487 0.000000 0.000000
# 5 0.000000 0.000000 0.000000 0.000000 0.256376 0.000000
# 6 0.000000 0.000000 0.000000 0.000000 0.000000 0.258414
#
#
# Mechanical properties :
#
#
# Convention : Reuss Voigt Hill
#
# Bulk Modulus (GPa) = 50.88535 54.35303 52.61919
# Shear Modulus (GPa) = -1.21805 12.43557 5.60876
#
# Velocity S-wave (km/s) = -0.80562 2.57413 1.72875
# Velocity P-wave (km/s) = 5.12331 6.14786 5.65882
#
# Compressibility (1/GPa) = 0.01965202
#
# Stress axis : x y z
#
# Youngs Moduli (GPa) = 64.71889 63.79980 45.83816
#
# Poissons Ratio (x) = -0.11743 0.32359
# Poissons Ratio (y) = -0.11912 0.52374
# Poissons Ratio (z) = 0.45688 0.72897
#
# Static dielectric constant tensor:
#      x y z
#    x 1.686650 0.000000 0.000000 
#    y 0.000000 1.712740 0.000000 
#    z 0.000000 0.000000 1.663180 
# 
# From -- ./inp_files/62622.got.cif
#   From: 2010.05.17/outbox.cif.g08.bks.cpg/sg65_32_cif.got.tgz:62622.got - 2010.06.03 17:01:31.
