data_PCOD9485867
_publ_section_title
;
Structure prediction by ZEFSAII (Michael W. Deem and Ramdas Pophale) SiO2 
 PCOD9485867
Probable space group: C M M M
;
_chemical_formula_sum "Si O2"
_cell_formula_units_Z 104
_cell_length_a 17.256370
_cell_length_b 19.291328
_cell_length_c 17.741563
_cell_angle_alpha 90.000000
_cell_angle_beta 90.000000
_cell_angle_gamma 90.000000
_cell_volume 5906.136051
_symmetry_space_group_name_H-M "C M M M"
_symmetry_group_IT_number 65
_symmetry_cell_setting 'orthorhombic'
loop_
_space_group_symop_operation_xyz
x,y,z
-x,-y,z
x,-y,-z
-x,y,-z
-x,-y,-z
x,y,-z
-x,y,z
x,-y,z
1/2+x,1/2+y,z
1/2-x,1/2-y,z
1/2+x,1/2-y,-z
1/2-x,1/2+y,-z
1/2-x,1/2-y,-z
1/2+x,1/2+y,-z
1/2-x,1/2+y,z
1/2+x,1/2-y,z
loop_
_atom_site_type_symbol
_atom_site_label
_atom_site_fract_x
_atom_site_fract_y
_atom_site_fract_z
Si Si1 0.687448 0.078866 0.316740
Si Si2 0.812258 0.861510 0.411337
Si Si3 0.773609 0.669752 0.088993
Si Si4 0.911328 0.338361 0.204568
Si Si5 0.912538 0.000000 0.409979
Si Si6 0.827229 0.079439 0.805860
Si Si7 0.587762 0.308125 0.713371
O O1 0.725130 0.122183 0.384772
O O2 0.616155 0.113107 0.273466
O O3 0.756173 0.078519 0.254078
O O4 0.672245 0.000000 0.339850
O O5 0.817592 0.846662 0.500000
O O6 0.851972 0.806497 0.355853
O O7 0.862458 0.931625 0.393655
O O8 0.750000 0.750000 0.103181
O O9 0.851766 0.654309 0.135633
O O10 0.707286 0.619475 0.122165
O O11 0.783699 0.660343 0.000000
O O12 0.904900 0.260396 0.236460
O O13 0.000000 0.352085 0.183345
O O14 0.920657 0.000000 0.500000
O O15 0.000000 0.000000 0.377480
O O16 0.891827 0.126637 0.766390
O O17 0.850128 0.000000 0.819988
O O18 0.500000 0.313489 0.684472
#
# Coordination Sequence:
#
# PCOD9485867 Si02
#       7
#    16  16  16  16   8  16  16
#     4   9  18  33  54  76 102 136 179 228 274 326
#     4  10  19  31  50  75 104 141 181 226 275 324
#     4  10  19  34  58  82 105 139 178 219 270 325
#     4  10  21  37  56  79 108 141 180 226 272 320
#     4   9  16  26  42  70 105 135 166 213 271 321
#     4   9  18  32  51  77 107 141 179 218 262 319
#     4  10  20  33  50  74 109 149 184 222 267 321
#
# _framework density 17.608806000000001
#
# number of rings (size 3 to 8) (size 9 to 14) (size 15 to 20)
#    0.000    2.385    2.308    0.462    1.077    2.154 
#    0.000    1.538    0.000    1.846    0.000    6.462 
#    0.000    0.000    0.000    0.000    0.000    0.000 
#
# Total GULP energy -289907.513817 kJ/mol
# GULP energy per Si atom -5575.144496 kJ/mol
# Density = 1.756873 g / cm^3
# Si number density = 17.608806 Si / 1000 Ang^3
#
#
#
# Elastic Constant Matrix: (Units=GPa)
#
#
# Indices 1 2 3 4 5 6 
#
# 1 54.7387 10.6688 42.0122 0.0000 0.0000 0.0000
# 2 10.6688 48.5608 13.9318 0.0000 0.0000 0.0000
# 3 42.0122 13.9318 89.2343 0.0000 0.0000 0.0000
# 4 0.0000 0.0000 0.0000 16.3352 0.0000 0.0000
# 5 0.0000 0.0000 0.0000 0.0000 19.3278 0.0000
# 6 0.0000 0.0000 0.0000 0.0000 0.0000 -9.0631
#
#
#
# Elastic Compliance Matrix: (Units=1/GPa)
#
#
# Indices 1 2 3 4 5 6 
#
# 1 0.028906 -0.002561 -0.013209 0.000000 0.000000 0.000000
# 2 -0.002561 0.021785 -0.002196 0.000000 0.000000 0.000000
# 3 -0.013209 -0.002196 0.017768 0.000000 0.000000 0.000000
# 4 0.000000 0.000000 0.000000 0.061218 0.000000 0.000000
# 5 0.000000 0.000000 0.000000 0.000000 0.051739 0.000000
# 6 0.000000 0.000000 0.000000 0.000000 0.000000 -0.110337
#
#
# Mechanical properties :
#
#
# Convention : Reuss Voigt Hill
#
# Bulk Modulus (GPa) = 30.74285 36.19549 33.46917
# Shear Modulus (GPa) = 42.42573 13.71471 28.07022
#
# Velocity S-wave (km/s) = 4.91384 2.79383 3.99695
# Velocity P-wave (km/s) = 7.04919 5.56841 6.35210
#
# Compressibility (1/GPa) = 0.03252788
#
# Stress axis : x y z
#
# Youngs Moduli (GPa) = 34.59502 45.90256 56.28019
#
# Poissons Ratio (x) = 0.11756 0.74342
# Poissons Ratio (y) = 0.08860 0.12356
# Poissons Ratio (z) = 0.45697 0.10078
#
# Static dielectric constant tensor:
#      x y z
#    x 1.602670 0.000000 0.000000 
#    y 0.000000 1.629510 0.000000 
#    z 0.000000 0.000000 1.586820 
# 
# From -- ./inp_files/54620.got.cif
#   From: 2010.05.17/outbox.cif.g08.bks.cpg/sg65_28_cif.got.tgz:54620.got - 2010.06.03 17:01:31.
