data_PCOD9485218
_publ_section_title
;
Structure prediction by ZEFSAII (Michael W. Deem and Ramdas Pophale) SiO2 
 PCOD9485218
Probable space group: C M M M
;
_chemical_formula_sum "Si O2"
_cell_formula_units_Z 104
_cell_length_a 24.064939
_cell_length_b 8.668192
_cell_length_c 28.595259
_cell_angle_alpha 90.000000
_cell_angle_beta 90.000000
_cell_angle_gamma 90.000000
_cell_volume 5964.957065
_symmetry_space_group_name_H-M "C M M M"
_symmetry_group_IT_number 65
_symmetry_cell_setting 'orthorhombic'
loop_
_space_group_symop_operation_xyz
x,y,z
-x,-y,z
x,-y,-z
-x,y,-z
-x,-y,-z
x,y,-z
-x,y,z
x,-y,z
1/2+x,1/2+y,z
1/2-x,1/2-y,z
1/2+x,1/2-y,-z
1/2-x,1/2+y,-z
1/2-x,1/2-y,-z
1/2+x,1/2+y,-z
1/2-x,1/2+y,z
1/2+x,1/2-y,z
loop_
_atom_site_type_symbol
_atom_site_label
_atom_site_fract_x
_atom_site_fract_y
_atom_site_fract_z
Si Si1 0.312138 0.816292 0.946348
Si Si2 0.187758 0.313990 0.223681
Si Si3 0.500000 0.183067 0.842070
Si Si4 0.500000 0.317273 0.260738
Si Si5 0.067309 0.676666 0.500000
Si Si6 0.116104 0.183705 0.136985
Si Si7 0.564993 0.315763 0.599519
Si Si8 0.110154 0.684290 0.308247
O O1 0.250000 0.750000 0.943021
O O2 0.348782 0.729479 0.908401
O O3 0.311777 0.000000 0.936952
O O4 0.331098 0.792870 0.000000
O O5 0.187947 0.500000 0.219631
O O6 0.250000 0.250000 0.218945
O O7 0.148662 0.246160 0.182789
O O8 0.161005 0.271748 0.274106
O O9 0.500000 0.275030 0.793402
O O10 0.556538 0.234102 0.866740
O O11 0.500000 0.000000 0.833450
O O12 0.500000 0.500000 0.268555
O O13 0.554679 0.244355 0.283018
O O14 0.086363 0.500000 0.500000
O O15 0.082861 0.759579 0.548192
O O16 0.000000 0.676814 0.500000
O O17 0.109595 0.000000 0.141066
O O18 0.500000 0.264600 0.607465
O O19 0.564702 0.500000 0.601180
O O20 0.604897 0.251785 0.639819
O O21 0.109014 0.500000 0.310981
#
# Coordination Sequence:
#
# PCOD9485218 Si02
#       8
#    16  16   8   8   8  16  16  16
#     4  10  21  39  63  89 117 150 190 236 284 332
#     4  11  24  40  58  81 112 148 188 232 279 329
#     4  12  24  40  59  83 115 151 190 229 273 332
#     4  12  22  34  54  80 110 146 186 226 271 325
#     4   9  17  29  45  67 100 141 182 221 270 327
#     4  12  24  39  61  87 117 150 187 230 279 334
#     4  10  19  30  47  73 106 141 181 226 272 325
#     4  11  22  35  54  78 109 147 186 228 274 328
#
# _framework density 17.435162999999999
#
# number of rings (size 3 to 8) (size 9 to 14) (size 15 to 20)
#    0.000    1.154    2.308    5.308    0.000    4.308 
#    0.000    0.385    0.000    2.308    0.000    0.538 
#    0.000    0.000    0.000    0.000    0.000    0.000 
#
# Total GULP energy -290516.987786 kJ/mol
# GULP energy per Si atom -5586.865150 kJ/mol
# Density = 1.739548 g / cm^3
# Si number density = 17.435163 Si / 1000 Ang^3
#
#
#
# Elastic Constant Matrix: (Units=GPa)
#
#
# Indices 1 2 3 4 5 6 
#
# 1 86.2279 19.9217 37.6445 0.0000 0.0000 0.0000
# 2 19.9217 50.1614 18.1991 0.0000 0.0000 0.0000
# 3 37.6445 18.1991 96.4090 0.0000 0.0000 0.0000
# 4 0.0000 0.0000 0.0000 22.1962 0.0000 0.0000
# 5 0.0000 0.0000 0.0000 0.0000 -3.9748 0.0000
# 6 0.0000 0.0000 0.0000 0.0000 0.0000 20.8734
#
#
#
# Elastic Compliance Matrix: (Units=1/GPa)
#
#
# Indices 1 2 3 4 5 6 
#
# 1 0.014703 -0.004033 -0.004980 0.000000 0.000000 0.000000
# 2 -0.004033 0.022507 -0.002674 0.000000 0.000000 0.000000
# 3 -0.004980 -0.002674 0.012822 0.000000 0.000000 0.000000
# 4 0.000000 0.000000 0.000000 0.045053 0.000000 0.000000
# 5 0.000000 0.000000 0.000000 0.000000 -0.251584 0.000000
# 6 0.000000 0.000000 0.000000 0.000000 0.000000 0.047908
#
#
# Mechanical properties :
#
#
# Convention : Reuss Voigt Hill
#
# Bulk Modulus (GPa) = 37.51070 42.70320 40.10695
# Shear Modulus (GPa) = -65.50345 18.28783 -23.60781
#
# Velocity S-wave (km/s) = -6.13607 3.24219 -3.68371
# Velocity P-wave (km/s) = 5.35169 6.20979 2.22720
#
# Compressibility (1/GPa) = 0.02665906
#
# Stress axis : x y z
#
# Youngs Moduli (GPa) = 68.01409 44.42985 77.99281
#
# Poissons Ratio (x) = 0.17917 0.38838
# Poissons Ratio (y) = 0.27427 0.20856
# Poissons Ratio (z) = 0.33869 0.11881
#
# Static dielectric constant tensor:
#      x y z
#    x 1.584420 0.000000 0.000000 
#    y 0.000000 1.583270 0.000000 
#    z 0.000000 0.000000 1.603240 
# 
# From -- ./inp_files/75830.got.cif
#   From: 2010.05.17/outbox.cif.g08.bks.cpg/sg65_38_cif.got.tgz:75830.got - 2010.06.03 17:01:31.
