data_PCOD9485936
_publ_section_title
;
Structure prediction by ZEFSAII (Michael W. Deem and Ramdas Pophale) SiO2 
 PCOD9485936
Probable space group: C M M M
;
_chemical_formula_sum "Si O2"
_cell_formula_units_Z 112
_cell_length_a 14.263122
_cell_length_b 13.888064
_cell_length_c 30.265493
_cell_angle_alpha 90.000000
_cell_angle_beta 90.000000
_cell_angle_gamma 90.000000
_cell_volume 5995.205287
_symmetry_space_group_name_H-M "C M M M"
_symmetry_group_IT_number 65
_symmetry_cell_setting 'orthorhombic'
loop_
_space_group_symop_operation_xyz
x,y,z
-x,-y,z
x,-y,-z
-x,y,-z
-x,-y,-z
x,y,-z
-x,y,z
x,-y,z
1/2+x,1/2+y,z
1/2-x,1/2-y,z
1/2+x,1/2-y,-z
1/2-x,1/2+y,-z
1/2-x,1/2-y,-z
1/2+x,1/2+y,-z
1/2-x,1/2+y,z
1/2+x,1/2-y,z
loop_
_atom_site_type_symbol
_atom_site_label
_atom_site_fract_x
_atom_site_fract_y
_atom_site_fract_z
Si Si1 0.892005 0.116762 0.321291
Si Si2 0.709853 0.385731 0.135504
Si Si3 0.711726 0.385768 0.589700
Si Si4 0.391356 0.211166 0.551841
Si Si5 0.609652 0.616979 0.777291
Si Si6 0.611000 0.693328 0.951961
Si Si7 0.607563 0.109403 0.088704
O O1 0.821990 0.141107 0.360786
O O2 0.864609 0.150613 0.272104
O O3 0.000000 0.147663 0.330432
O O4 0.894526 0.000000 0.319806
O O5 0.693685 0.500000 0.136106
O O6 0.668951 0.346688 0.181189
O O7 0.660741 0.348079 0.091068
O O8 0.819879 0.369792 0.127866
O O9 0.700069 0.500000 0.583417
O O10 0.645055 0.320358 0.558953
O O11 0.817723 0.353699 0.578950
O O12 0.383299 0.186764 0.500000
O O13 0.500000 0.201421 0.564961
O O14 0.500000 0.639113 0.784482
O O15 0.617332 0.500000 0.776565
O O16 0.500000 0.671536 0.949395
O O17 0.621588 0.808678 0.947696
O O18 0.645719 0.660236 0.000000
O O19 0.500000 0.116210 0.103452
O O20 0.624340 0.000000 0.073060
#
# Coordination Sequence:
#
# PCOD9485936 Si02
#       7
#    16  16  16  16  16  16  16
#     4   8  14  26  48  78 105 130 167 216 266 311
#     4  10  19  31  51  76 102 132 161 195 245 307
#     4  10  19  33  56  81 106 141 186 235 280 324
#     4  10  22  37  52  76 113 153 189 228 275 329
#     4   8  14  26  46  74 105 132 161 200 249 308
#     4  10  21  35  51  72  98 127 159 201 252 304
#     4   9  19  35  52  68  89 124 169 210 245 284
#
# _framework density 18.681595999999999
#
# number of rings (size 3 to 8) (size 9 to 14) (size 15 to 20)
#    0.000    2.714    0.000    3.000    0.000    4.857 
#    0.000    5.000    6.286    0.857    0.000    4.000 
#    0.000    0.000    0.000    0.000    0.000    0.000 
#
# Total GULP energy -312053.349928 kJ/mol
# GULP energy per Si atom -5572.381249 kJ/mol
# Density = 1.863908 g / cm^3
# Si number density = 18.681596 Si / 1000 Ang^3
#
#
#
# Elastic Constant Matrix: (Units=GPa)
#
#
# Indices 1 2 3 4 5 6 
#
# 1 95.9551 14.9255 73.2687 0.0000 0.0000 0.0000
# 2 14.9255 32.1353 22.0815 0.0000 0.0000 0.0000
# 3 73.2687 22.0815 131.4766 0.0000 0.0000 0.0000
# 4 0.0000 0.0000 0.0000 16.4104 0.0000 0.0000
# 5 0.0000 0.0000 0.0000 0.0000 24.5620 0.0000
# 6 0.0000 0.0000 0.0000 0.0000 0.0000 18.1578
#
#
#
# Elastic Compliance Matrix: (Units=1/GPa)
#
#
# Indices 1 2 3 4 5 6 
#
# 1 0.018221 -0.001679 -0.009872 0.000000 0.000000 0.000000
# 2 -0.001679 0.035333 -0.004998 0.000000 0.000000 0.000000
# 3 -0.009872 -0.004998 0.013947 0.000000 0.000000 0.000000
# 4 0.000000 0.000000 0.000000 0.060937 0.000000 0.000000
# 5 0.000000 0.000000 0.000000 0.000000 0.040713 0.000000
# 6 0.000000 0.000000 0.000000 0.000000 0.000000 0.055073
#
#
# Mechanical properties :
#
#
# Convention : Reuss Voigt Hill
#
# Bulk Modulus (GPa) = 29.06866 53.34648 41.20757
# Shear Modulus (GPa) = 18.60191 21.77880 20.19036
#
# Velocity S-wave (km/s) = 3.15895 3.41807 3.29106
# Velocity P-wave (km/s) = 5.37579 6.64795 6.04543
#
# Compressibility (1/GPa) = 0.03440131
#
# Stress axis : x y z
#
# Youngs Moduli (GPa) = 54.88279 28.30218 71.70137
#
# Poissons Ratio (x) = 0.04753 0.70783
# Poissons Ratio (y) = 0.09217 0.35839
# Poissons Ratio (z) = 0.54180 0.14146
#
# Static dielectric constant tensor:
#      x y z
#    x 1.661400 0.000000 0.000000 
#    y 0.000000 1.666830 0.000000 
#    z 0.000000 0.000000 1.656650 
# 
# From -- ./inp_files/74863.got.cif
#   From: 2010.05.17/outbox.cif.g08.bks.cpg/sg65_38_cif.got.tgz:74863.got - 2010.06.03 17:01:31.
