data_PCOD9485390
_publ_section_title
;
Structure prediction by ZEFSAII (Michael W. Deem and Ramdas Pophale) SiO2 
 PCOD9485390
Probable space group: C M M M
;
_chemical_formula_sum "Si O2"
_cell_formula_units_Z 96
_cell_length_a 8.481057
_cell_length_b 28.037801
_cell_length_c 25.094886
_cell_angle_alpha 90.000000
_cell_angle_beta 90.000000
_cell_angle_gamma 90.000000
_cell_volume 5967.317671
_symmetry_space_group_name_H-M "C M M M"
_symmetry_group_IT_number 65
_symmetry_cell_setting 'orthorhombic'
loop_
_space_group_symop_operation_xyz
x,y,z
-x,-y,z
x,-y,-z
-x,y,-z
-x,-y,-z
x,y,-z
-x,y,z
x,-y,z
1/2+x,1/2+y,z
1/2-x,1/2-y,z
1/2+x,1/2-y,-z
1/2-x,1/2+y,-z
1/2-x,1/2-y,-z
1/2+x,1/2+y,-z
1/2-x,1/2+y,z
1/2+x,1/2-y,z
loop_
_atom_site_type_symbol
_atom_site_label
_atom_site_fract_x
_atom_site_fract_y
_atom_site_fract_z
Si Si1 0.191801 0.553163 0.887339
Si Si2 0.688636 0.104114 0.779209
Si Si3 0.190985 0.651121 0.940164
Si Si4 0.687143 0.302078 0.833970
Si Si5 0.312484 0.442301 0.557316
Si Si6 0.309205 0.555438 0.673559
O O1 0.248216 0.500000 0.900494
O O2 0.239075 0.568896 0.827580
O O3 0.238629 0.596619 0.925765
O O4 0.000000 0.552032 0.888454
O O5 0.500000 0.103934 0.778350
O O6 0.746245 0.156384 0.796112
O O7 0.751914 0.086035 0.723084
O O8 0.257862 0.684231 0.893755
O O9 0.000000 0.653180 0.937375
O O10 0.239977 0.663658 0.000000
O O11 0.500000 0.302645 0.831754
O O12 0.750000 0.250000 0.819911
O O13 0.245867 0.425785 0.500000
O O14 0.500000 0.431724 0.556511
O O15 0.299651 0.500000 0.557983
O O16 0.251315 0.426843 0.615246
O O17 0.500000 0.555802 0.672312
O O18 0.260098 0.500000 0.680509
#
# Coordination Sequence:
#
# PCOD9485390 Si02
#       6
#    16  16  16  16  16  16
#     4   8  14  25  42  64  89 118 150 181 212 248
#     4  10  19  31  46  66  92 120 152 187 226 275
#     4   9  18  32  49  71  97 121 148 181 216 261
#     4  11  22  37  55  71  88 111 141 181 231 280
#     4   7  10  18  33  54  83 121 162 198 228 259
#     4   9  16  25  40  65  95 126 161 198 232 264
#
# _framework density 16.087630000000001
#
# number of rings (size 3 to 8) (size 9 to 14) (size 15 to 20)
#    0.000    3.000    0.000    5.000    0.000    2.000 
#    0.000    1.667    0.000    5.000    0.000    7.000 
#    0.000    0.667    0.000    1.833    0.000    2.667 
#
# Total GULP energy -267306.344258 kJ/mol
# GULP energy per Si atom -5568.882172 kJ/mol
# Density = 1.605101 g / cm^3
# Si number density = 16.087630 Si / 1000 Ang^3
#
#
#
# Elastic Constant Matrix: (Units=GPa)
#
#
# Indices 1 2 3 4 5 6 
#
# 1 20.5962 8.9655 20.9648 0.0000 0.0000 0.0000
# 2 8.9655 58.9682 22.6520 0.0000 0.0000 0.0000
# 3 20.9648 22.6520 125.6142 0.0000 0.0000 0.0000
# 4 0.0000 0.0000 0.0000 9.0112 0.0000 0.0000
# 5 0.0000 0.0000 0.0000 0.0000 14.7017 0.0000
# 6 0.0000 0.0000 0.0000 0.0000 0.0000 12.5926
#
#
#
# Elastic Compliance Matrix: (Units=1/GPa)
#
#
# Indices 1 2 3 4 5 6 
#
# 1 0.060214 -0.005689 -0.009024 0.000000 0.000000 0.000000
# 2 -0.005689 0.018758 -0.002433 0.000000 0.000000 0.000000
# 3 -0.009024 -0.002433 0.009906 0.000000 0.000000 0.000000
# 4 0.000000 0.000000 0.000000 0.110973 0.000000 0.000000
# 5 0.000000 0.000000 0.000000 0.000000 0.068019 0.000000
# 6 0.000000 0.000000 0.000000 0.000000 0.000000 0.079411
#
#
# Mechanical properties :
#
#
# Convention : Reuss Voigt Hill
#
# Bulk Modulus (GPa) = 18.31953 34.48258 26.40106
# Shear Modulus (GPa) = 12.50724 17.43419 14.97071
#
# Velocity S-wave (km/s) = 2.79129 3.29553 3.05384
# Velocity P-wave (km/s) = 4.66910 5.99679 5.37410
#
# Compressibility (1/GPa) = 0.05458655
#
# Stress axis : x y z
#
# Youngs Moduli (GPa) = 16.60741 53.31092 100.95185
#
# Poissons Ratio (x) = 0.30326 0.91097
# Poissons Ratio (y) = 0.09447 0.24564
# Poissons Ratio (z) = 0.14986 0.12972
#
# Static dielectric constant tensor:
#      x y z
#    x 1.551490 0.000000 0.000000 
#    y 0.000000 1.530180 0.000000 
#    z 0.000000 0.000000 1.568830 
# 
# From -- ./inp_files/68036.got.cif
#   From: 2010.05.17/outbox.cif.g08.bks.cpg/sg65_35_cif.got.tgz:68036.got - 2010.06.03 17:01:31.
