data_PCOD9485100
_publ_section_title
;
Structure prediction by ZEFSAII (Michael W. Deem and Ramdas Pophale) SiO2 
 PCOD9485100
Probable space group: C M M M
;
_chemical_formula_sum "Si O2"
_cell_formula_units_Z 120
_cell_length_a 17.041011
_cell_length_b 28.334509
_cell_length_c 15.183485
_cell_angle_alpha 90.000000
_cell_angle_beta 90.000000
_cell_angle_gamma 90.000000
_cell_volume 7331.325683
_symmetry_space_group_name_H-M "C M M M"
_symmetry_group_IT_number 65
_symmetry_cell_setting 'orthorhombic'
loop_
_space_group_symop_operation_xyz
x,y,z
-x,-y,z
x,-y,-z
-x,y,-z
-x,-y,-z
x,y,-z
-x,y,z
x,-y,z
1/2+x,1/2+y,z
1/2-x,1/2-y,z
1/2+x,1/2-y,-z
1/2-x,1/2+y,-z
1/2-x,1/2-y,-z
1/2+x,1/2+y,-z
1/2-x,1/2+y,z
1/2+x,1/2-y,z
loop_
_atom_site_type_symbol
_atom_site_label
_atom_site_fract_x
_atom_site_fract_y
_atom_site_fract_z
Si Si1 0.806398 0.857244 0.096205
Si Si2 0.825481 0.215227 0.398871
Si Si3 0.730598 0.142640 0.283939
Si Si4 0.091671 0.711638 0.279747
Si Si5 0.185685 0.054239 0.330209
Si Si6 0.906527 0.053813 0.147340
Si Si7 0.093722 0.761880 0.902051
Si Si8 0.588586 0.442562 0.500000
O O1 0.750035 0.856189 0.180198
O O2 0.859368 0.904479 0.100489
O O3 0.862311 0.811671 0.104588
O O4 0.767559 0.855146 0.000000
O O5 0.845528 0.202481 0.500000
O O6 0.750000 0.250000 0.402500
O O7 0.796675 0.172243 0.337708
O O8 0.890621 0.245832 0.347897
O O9 0.648337 0.168003 0.301764
O O10 0.742100 0.088919 0.313464
O O11 0.114858 0.730223 0.181998
O O12 0.000000 0.699839 0.280285
O O13 0.126805 0.055695 0.246950
O O14 0.136535 0.070875 0.414040
O O15 0.209822 0.000000 0.342825
O O16 0.000000 0.061705 0.144482
O O17 0.891933 0.000000 0.115021
O O18 0.000000 0.769436 0.897579
O O19 0.111826 0.742085 0.000000
O O20 0.584251 0.500000 0.500000
O O21 0.500000 0.424378 0.500000
#
# Coordination Sequence:
#
# PCOD9485100 Si02
#       8
#    16  16  16  16  16  16  16   8
#     4  10  19  30  46  68  94 128 167 200 235 287
#     4   9  18  33  52  72  97 127 158 195 239 286
#     4  10  20  34  52  73  98 129 164 202 245 291
#     4  10  20  35  53  73  97 126 164 206 247 292
#     4   9  18  31  48  71  99 131 164 202 245 287
#     4   9  17  29  44  64  95 132 166 201 240 282
#     4   9  17  29  46  70  99 126 153 194 245 292
#     4   9  16  28  48  74 102 131 165 199 234 282
#
# _framework density 16.368117999999999
#
# number of rings (size 3 to 8) (size 9 to 14) (size 15 to 20)
#    0.000    2.600    1.333    0.800    0.933    3.467 
#    0.000    2.667    0.000    0.400    0.000    0.000 
#    0.000    1.600    0.000   10.000    0.000    0.000 
#
# Total GULP energy -334321.876681 kJ/mol
# GULP energy per Si atom -5572.031278 kJ/mol
# Density = 1.633086 g / cm^3
# Si number density = 16.368118 Si / 1000 Ang^3
#
#
#
# Elastic Constant Matrix: (Units=GPa)
#
#
# Indices 1 2 3 4 5 6 
#
# 1 56.8906 40.3772 24.3189 0.0000 0.0000 0.0000
# 2 40.3772 68.8406 28.2108 0.0000 0.0000 0.0000
# 3 24.3189 28.2108 105.9423 0.0000 0.0000 0.0000
# 4 0.0000 0.0000 0.0000 16.7653 0.0000 0.0000
# 5 0.0000 0.0000 0.0000 0.0000 11.4204 0.0000
# 6 0.0000 0.0000 0.0000 0.0000 0.0000 20.2124
#
#
#
# Elastic Compliance Matrix: (Units=1/GPa)
#
#
# Indices 1 2 3 4 5 6 
#
# 1 0.030705 -0.016973 -0.002529 0.000000 0.000000 0.000000
# 2 -0.016973 0.025688 -0.002944 0.000000 0.000000 0.000000
# 3 -0.002529 -0.002944 0.010804 0.000000 0.000000 0.000000
# 4 0.000000 0.000000 0.000000 0.059647 0.000000 0.000000
# 5 0.000000 0.000000 0.000000 0.000000 0.087563 0.000000
# 6 0.000000 0.000000 0.000000 0.000000 0.000000 0.049475
#
#
# Mechanical properties :
#
#
# Convention : Reuss Voigt Hill
#
# Bulk Modulus (GPa) = 44.83363 46.38747 45.61055
# Shear Modulus (GPa) = 15.81238 18.93072 17.37155
#
# Velocity S-wave (km/s) = 3.11150 3.40451 3.26130
# Velocity P-wave (km/s) = 6.35286 6.62238 6.48902
#
# Compressibility (1/GPa) = 0.02230469
#
# Stress axis : x y z
#
# Youngs Moduli (GPa) = 32.56802 38.92838 92.56239
#
# Poissons Ratio (x) = 0.66074 0.23405
# Poissons Ratio (y) = 0.55279 0.27252
# Poissons Ratio (z) = 0.08235 0.11461
#
# Static dielectric constant tensor:
#      x y z
#    x 1.516480 0.000000 0.000000 
#    y 0.000000 1.556740 0.000000 
#    z 0.000000 0.000000 1.590660 
# 
# From -- ./inp_files/41461.got.cif
#   From: 2010.05.17/outbox.cif.g08.bks.cpg/sg65_21_cif.got.tgz:41461.got - 2010.06.03 17:01:31.
