data_PCOD9485237
_publ_section_title
;
Structure prediction by ZEFSAII (Michael W. Deem and Ramdas Pophale) SiO2 
 PCOD9485237
Probable space group: C M M M
;
_chemical_formula_sum "Si O2"
_cell_formula_units_Z 96
_cell_length_a 23.091020
_cell_length_b 27.379943
_cell_length_c 8.908847
_cell_angle_alpha 90.000000
_cell_angle_beta 90.000000
_cell_angle_gamma 90.000000
_cell_volume 5632.447568
_symmetry_space_group_name_H-M "C M M M"
_symmetry_group_IT_number 65
_symmetry_cell_setting 'orthorhombic'
loop_
_space_group_symop_operation_xyz
x,y,z
-x,-y,z
x,-y,-z
-x,y,-z
-x,-y,-z
x,y,-z
-x,y,z
x,-y,z
1/2+x,1/2+y,z
1/2-x,1/2-y,z
1/2+x,1/2-y,-z
1/2-x,1/2+y,-z
1/2-x,1/2-y,-z
1/2+x,1/2+y,-z
1/2-x,1/2+y,z
1/2+x,1/2-y,z
loop_
_atom_site_type_symbol
_atom_site_label
_atom_site_fract_x
_atom_site_fract_y
_atom_site_fract_z
Si Si1 0.272362 0.557048 0.319175
Si Si2 0.335643 0.122281 0.673986
Si Si3 0.855600 0.867455 0.170174
Si Si4 0.569542 0.714728 0.675713
Si Si5 0.238425 0.306210 0.165457
Si Si6 0.432749 0.818755 0.179377
O O1 0.274341 0.562635 0.500000
O O2 0.273335 0.500000 0.281497
O O3 0.210632 0.581389 0.270433
O O4 0.327640 0.585340 0.250799
O O5 0.348075 0.113265 0.500000
O O6 0.298331 0.171192 0.701560
O O7 0.394102 0.136350 0.760626
O O8 0.902347 0.834094 0.255089
O O9 0.799691 0.832591 0.162240
O O10 0.874550 0.878816 0.000000
O O11 0.584737 0.718244 0.500000
O O12 0.500000 0.711447 0.689724
O O13 0.587055 0.765619 0.756967
O O14 0.250000 0.250000 0.183596
O O15 0.210389 0.314796 0.000000
O O16 0.500000 0.824772 0.225531
O O17 0.430363 0.816691 0.000000
#
# Coordination Sequence:
#
# PCOD9485237 Si02
#       6
#    16  16  16  16  16  16
#     4   9  19  36  55  74  98 128 162 204 255 304
#     4  10  19  30  48  72  95 123 161 203 245 291
#     4  10  19  30  48  74 101 129 162 201 245 293
#     4  10  20  33  50  73 102 136 171 203 236 281
#     4   9  17  28  42  63  94 128 157 188 232 287
#     4  10  20  33  49  70 100 137 170 200 239 287
#
# _framework density 17.044098999999999
#
# number of rings (size 3 to 8) (size 9 to 14) (size 15 to 20)
#    0.000    2.333    0.000    3.000    0.000    5.333 
#    0.000    0.000    0.000    1.000    0.000    7.000 
#    0.000    0.000    0.000    0.000    0.000    0.000 
#
# Total GULP energy -267335.545669 kJ/mol
# GULP energy per Si atom -5569.490535 kJ/mol
# Density = 1.700531 g / cm^3
# Si number density = 17.044099 Si / 1000 Ang^3
#
#
#
# Elastic Constant Matrix: (Units=GPa)
#
#
# Indices 1 2 3 4 5 6 
#
# 1 33.8274 5.0429 12.1755 0.0000 0.0000 0.0000
# 2 5.0429 70.0972 19.5725 0.0000 0.0000 0.0000
# 3 12.1755 19.5725 51.1358 0.0000 0.0000 0.0000
# 4 0.0000 0.0000 0.0000 14.2437 0.0000 0.0000
# 5 0.0000 0.0000 0.0000 0.0000 25.3944 0.0000
# 6 0.0000 0.0000 0.0000 0.0000 0.0000 25.2708
#
#
#
# Elastic Compliance Matrix: (Units=1/GPa)
#
#
# Indices 1 2 3 4 5 6 
#
# 1 0.032335 -0.000198 -0.007623 0.000000 0.000000 0.000000
# 2 -0.000198 0.015974 -0.006067 0.000000 0.000000 0.000000
# 3 -0.007623 -0.006067 0.023693 0.000000 0.000000 0.000000
# 4 0.000000 0.000000 0.000000 0.070207 0.000000 0.000000
# 5 0.000000 0.000000 0.000000 0.000000 0.039379 0.000000
# 6 0.000000 0.000000 0.000000 0.000000 0.000000 0.039571
#
#
# Mechanical properties :
#
#
# Convention : Reuss Voigt Hill
#
# Bulk Modulus (GPa) = 22.61103 25.40467 24.00785
# Shear Modulus (GPa) = 18.96253 20.86639 19.91446
#
# Velocity S-wave (km/s) = 3.33912 3.50274 3.42191
# Velocity P-wave (km/s) = 5.30672 5.59433 5.45242
#
# Compressibility (1/GPa) = 0.04422620
#
# Stress axis : x y z
#
# Youngs Moduli (GPa) = 30.92601 62.60100 42.20625
#
# Poissons Ratio (x) = 0.01237 0.32176
# Poissons Ratio (y) = 0.00611 0.25607
# Poissons Ratio (z) = 0.23576 0.37981
#
# Static dielectric constant tensor:
#      x y z
#    x 1.646830 0.000000 0.000000 
#    y 0.000000 1.585010 0.000000 
#    z 0.000000 0.000000 1.619170 
# 
# From -- ./inp_files/12270.got.cif
#   From: 2010.05.17/outbox.cif.g08.bks.cpg/sg65_7_cif.got.tgz:12270.got - 2010.06.03 17:01:31.
