data_PCOD9485716
_publ_section_title
;
Structure prediction by ZEFSAII (Michael W. Deem and Ramdas Pophale) SiO2 
 PCOD9485716
Probable space group: C M M M
;
_chemical_formula_sum "Si O2"
_cell_formula_units_Z 104
_cell_length_a 19.179580
_cell_length_b 8.957748
_cell_length_c 34.391627
_cell_angle_alpha 90.000000
_cell_angle_beta 90.000000
_cell_angle_gamma 90.000000
_cell_volume 5908.682517
_symmetry_space_group_name_H-M "C M M M"
_symmetry_group_IT_number 65
_symmetry_cell_setting 'orthorhombic'
loop_
_space_group_symop_operation_xyz
x,y,z
-x,-y,z
x,-y,-z
-x,y,-z
-x,-y,-z
x,y,-z
-x,y,z
x,-y,z
1/2+x,1/2+y,z
1/2-x,1/2-y,z
1/2+x,1/2-y,-z
1/2-x,1/2+y,-z
1/2-x,1/2-y,-z
1/2+x,1/2+y,-z
1/2-x,1/2+y,z
1/2+x,1/2-y,z
loop_
_atom_site_type_symbol
_atom_site_label
_atom_site_fract_x
_atom_site_fract_y
_atom_site_fract_z
Si Si1 0.826704 0.819013 0.574330
Si Si2 0.080177 0.818232 0.352831
Si Si3 0.919575 0.818479 0.500000
Si Si4 0.583287 0.676208 0.734867
Si Si5 0.326060 0.178207 0.889329
Si Si6 0.174022 0.322040 0.198610
Si Si7 0.082765 0.821689 0.043784
O O1 0.750000 0.750000 0.571263
O O2 0.866290 0.772170 0.613856
O O3 0.875961 0.774817 0.538146
O O4 0.821214 0.000000 0.574157
O O5 0.100530 0.772293 0.309110
O O6 0.000000 0.771015 0.360717
O O7 0.078910 0.000000 0.352702
O O8 0.000000 0.766324 0.500000
O O9 0.922340 0.000000 0.500000
O O10 0.500000 0.691511 0.739005
O O11 0.600030 0.500000 0.737771
O O12 0.623160 0.762601 0.768319
O O13 0.250000 0.250000 0.894366
O O14 0.350158 0.216568 0.845345
O O15 0.376381 0.239399 0.922426
O O16 0.320566 0.000000 0.891950
O O17 0.180061 0.500000 0.200964
O O18 0.250000 0.250000 0.203864
O O19 0.000000 0.794766 0.046970
O O20 0.093653 0.000000 0.047085
O O21 0.104691 0.776573 0.000000
#
# Coordination Sequence:
#
# PCOD9485716 Si02
#       7
#    16  16   8  16  16  16  16
#     4  10  19  31  49  73 101 129 160 203 249 293
#     4   8  15  30  51  72  95 127 167 206 241 284
#     4   9  17  30  51  75  94 123 170 210 240 285
#     4   9  18  33  53  76 101 131 168 207 250 302
#     4  10  21  36  54  76 102 134 171 210 252 299
#     4  10  21  36  53  74 102 134 169 210 254 300
#     4   9  19  36  56  78 105 136 169 206 249 297
#
# _framework density 17.601216000000001
#
# number of rings (size 3 to 8) (size 9 to 14) (size 15 to 20)
#    0.000    2.692    0.000    3.000    0.000    6.154 
#    0.000    6.154    0.000    3.231    0.000    0.000 
#    0.000    0.000    0.000    0.000    0.000    0.000 
#
# Total GULP energy -289992.012839 kJ/mol
# GULP energy per Si atom -5576.769478 kJ/mol
# Density = 1.756115 g / cm^3
# Si number density = 17.601216 Si / 1000 Ang^3
#
#
#
# Elastic Constant Matrix: (Units=GPa)
#
#
# Indices 1 2 3 4 5 6 
#
# 1 98.6852 40.4579 103.4816 0.0000 0.0000 0.0000
# 2 40.4579 33.0077 59.3862 0.0000 0.0000 0.0000
# 3 103.4816 59.3862 186.6010 0.0000 0.0000 0.0000
# 4 0.0000 0.0000 0.0000 19.5464 0.0000 0.0000
# 5 0.0000 0.0000 0.0000 0.0000 47.1961 0.0000
# 6 0.0000 0.0000 0.0000 0.0000 0.0000 32.6635
#
#
#
# Elastic Compliance Matrix: (Units=1/GPa)
#
#
# Indices 1 2 3 4 5 6 
#
# 1 0.026820 -0.014305 -0.010321 0.000000 0.000000 0.000000
# 2 -0.014305 0.078512 -0.017054 0.000000 0.000000 0.000000
# 3 -0.010321 -0.017054 0.016510 0.000000 0.000000 0.000000
# 4 0.000000 0.000000 0.000000 0.051160 0.000000 0.000000
# 5 0.000000 0.000000 0.000000 0.000000 0.021188 0.000000
# 6 0.000000 0.000000 0.000000 0.000000 0.000000 0.030615
#
#
# Mechanical properties :
#
#
# Convention : Reuss Voigt Hill
#
# Bulk Modulus (GPa) = 25.98527 80.54948 53.26737
# Shear Modulus (GPa) = 15.57663 27.54575 21.56119
#
# Velocity S-wave (km/s) = 2.97808 3.96029 3.50377
# Velocity P-wave (km/s) = 5.15952 8.17158 6.83357
#
# Compressibility (1/GPa) = 0.03848334
#
# Stress axis : x y z
#
# Youngs Moduli (GPa) = 37.28505 12.73686 60.56937
#
# Poissons Ratio (x) = 0.18220 0.62513
# Poissons Ratio (y) = 0.53336 1.03293
# Poissons Ratio (z) = 0.38482 0.21721
#
# Static dielectric constant tensor:
#      x y z
#    x 1.566800 0.000000 0.000000 
#    y 0.000000 1.590760 0.000000 
#    z 0.000000 0.000000 1.605880 
# 
# From -- ./inp_files/75492.got.cif
#   From: 2010.05.17/outbox.cif.g08.bks.cpg/sg65_38_cif.got.tgz:75492.got - 2010.06.03 17:01:31.
