data_PCOD9485074
_publ_section_title
;
Structure prediction by ZEFSAII (Michael W. Deem and Ramdas Pophale) SiO2 
 PCOD9485074
Probable space group: C M M M
;
_chemical_formula_sum "Si O2"
_cell_formula_units_Z 80
_cell_length_a 7.363716
_cell_length_b 18.597201
_cell_length_c 27.481850
_cell_angle_alpha 90.000000
_cell_angle_beta 90.000000
_cell_angle_gamma 90.000000
_cell_volume 3763.488388
_symmetry_space_group_name_H-M "C M M M"
_symmetry_group_IT_number 65
_symmetry_cell_setting 'orthorhombic'
loop_
_space_group_symop_operation_xyz
x,y,z
-x,-y,z
x,-y,-z
-x,y,-z
-x,-y,-z
x,y,-z
-x,y,z
x,-y,z
1/2+x,1/2+y,z
1/2-x,1/2-y,z
1/2+x,1/2-y,-z
1/2-x,1/2+y,-z
1/2-x,1/2-y,-z
1/2+x,1/2+y,-z
1/2-x,1/2+y,z
1/2+x,1/2-y,z
loop_
_atom_site_type_symbol
_atom_site_label
_atom_site_fract_x
_atom_site_fract_y
_atom_site_fract_z
Si Si1 0.216989 0.336059 0.947661
Si Si2 0.721124 0.916449 0.554193
Si Si3 0.716660 0.165494 0.649328
Si Si4 0.277852 0.916892 0.254430
Si Si5 0.782808 0.664615 0.841731
O O1 0.250000 0.250000 0.947714
O O2 0.286786 0.360436 0.894882
O O3 0.000000 0.347511 0.947845
O O4 0.286890 0.363606 0.000000
O O5 0.779893 0.893698 0.500000
O O6 0.500000 0.914516 0.553972
O O7 0.785908 0.868576 0.599002
O O8 0.771805 0.000000 0.561260
O O9 0.500000 0.154503 0.648868
O O10 0.750000 0.250000 0.652069
O O11 0.784228 0.125069 0.697466
O O12 0.500000 0.914876 0.254216
O O13 0.215273 0.877969 0.205142
O O14 0.224574 0.000000 0.255885
O O15 0.750000 0.750000 0.836400
O O16 0.000000 0.655121 0.842952
#
# Coordination Sequence:
#
# PCOD9485074 Si02
#       5
#    16  16  16  16  16
#     4   8  13  21  34  54  79 104 130 161 198 240
#     4   8  14  26  45  67  88 112 145 179 205 236
#     4  10  19  30  46  67  89 112 139 174 213 249
#     4   9  17  29  45  63  82 108 143 176 205 244
#     4   9  16  26  42  62  83 107 135 170 208 244
#
# _framework density 21.256875000000001
#
# number of rings (size 3 to 8) (size 9 to 14) (size 15 to 20)
#    0.000    3.200    0.000    1.800    0.000    2.800 
#    0.000    0.000    0.000    4.800    0.000    5.600 
#    0.000    0.000    0.000   32.400    0.000   15.200 
#
# Total GULP energy -223080.053524 kJ/mol
# GULP energy per Si atom -5577.001338 kJ/mol
# Density = 2.120849 g / cm^3
# Si number density = 21.256875 Si / 1000 Ang^3
#
#
#
# Elastic Constant Matrix: (Units=GPa)
#
#
# Indices 1 2 3 4 5 6 
#
# 1 80.4695 -2.5799 13.0195 0.0000 0.0000 0.0000
# 2 -2.5799 112.3237 131.3799 0.0000 0.0000 0.0000
# 3 13.0195 131.3799 297.9469 0.0000 0.0000 0.0000
# 4 0.0000 0.0000 0.0000 -36.4992 0.0000 0.0000
# 5 0.0000 0.0000 0.0000 0.0000 9.0524 0.0000
# 6 0.0000 0.0000 0.0000 0.0000 0.0000 13.0286
#
#
#
# Elastic Compliance Matrix: (Units=1/GPa)
#
#
# Indices 1 2 3 4 5 6 
#
# 1 0.012718 0.001946 -0.001414 0.000000 0.000000 0.000000
# 2 0.001946 0.018683 -0.008323 0.000000 0.000000 0.000000
# 3 -0.001414 -0.008323 0.007088 0.000000 0.000000 0.000000
# 4 0.000000 0.000000 0.000000 -0.027398 0.000000 0.000000
# 5 0.000000 0.000000 0.000000 0.000000 0.110468 0.000000
# 6 0.000000 0.000000 0.000000 0.000000 0.000000 0.076754
#
#
# Mechanical properties :
#
#
# Convention : Reuss Voigt Hill
#
# Bulk Modulus (GPa) = 43.65542 86.04211 64.84876
# Shear Modulus (GPa) = 22.57021 20.37776 21.47399
#
# Velocity S-wave (km/s) = 3.26204 3.09956 3.18183
# Velocity P-wave (km/s) = 5.89657 7.30581 6.63869
#
# Compressibility (1/GPa) = 0.02290666
#
# Stress axis : x y z
#
# Youngs Moduli (GPa) = 78.62766 53.52515 141.07949
#
# Poissons Ratio (x) = -0.10414 0.19944
# Poissons Ratio (y) = -0.15298 1.17423
# Poissons Ratio (z) = 0.11115 0.44550
#
# Static dielectric constant tensor:
#      x y z
#    x 1.812110 0.000000 0.000000 
#    y 0.000000 1.694190 0.000000 
#    z 0.000000 0.000000 1.804730 
# 
# From -- ./inp_files/69693.got.cif
#   From: 2010.05.17/outbox.cif.g08.bks.cpg/sg65_35_cif.got.tgz:69693.got - 2010.06.03 17:01:31.
