data_PCOD9485761
_publ_section_title
;
Structure prediction by ZEFSAII (Michael W. Deem and Ramdas Pophale) SiO2 
 PCOD9485761
Probable space group: C M M M
;
_chemical_formula_sum "Si O2"
_cell_formula_units_Z 120
_cell_length_a 29.847670
_cell_length_b 8.938949
_cell_length_c 26.464563
_cell_angle_alpha 90.000000
_cell_angle_beta 90.000000
_cell_angle_gamma 90.000000
_cell_volume 7060.925365
_symmetry_space_group_name_H-M "C M M M"
_symmetry_group_IT_number 65
_symmetry_cell_setting 'orthorhombic'
loop_
_space_group_symop_operation_xyz
x,y,z
-x,-y,z
x,-y,-z
-x,y,-z
-x,-y,-z
x,y,-z
-x,y,z
x,-y,z
1/2+x,1/2+y,z
1/2-x,1/2-y,z
1/2+x,1/2-y,-z
1/2-x,1/2+y,-z
1/2-x,1/2-y,-z
1/2+x,1/2+y,-z
1/2-x,1/2+y,z
1/2+x,1/2-y,z
loop_
_atom_site_type_symbol
_atom_site_label
_atom_site_fract_x
_atom_site_fract_y
_atom_site_fract_z
Si Si1 0.051889 0.821918 0.095710
Si Si2 0.298441 0.679296 0.860397
Si Si3 0.054373 0.671811 0.500000
Si Si4 0.552894 0.824758 0.795214
Si Si5 0.447810 0.679980 0.605116
Si Si6 0.637881 0.178192 0.056341
Si Si7 0.107673 0.181044 0.296073
Si Si8 0.202146 0.820860 0.256651
O O1 0.059916 0.765062 0.152901
O O2 0.087286 0.736710 0.061444
O O3 0.000000 0.790001 0.083215
O O4 0.058808 0.000000 0.092904
O O5 0.296707 0.500000 0.864207
O O6 0.250000 0.750000 0.871338
O O7 0.333749 0.743747 0.899822
O O8 0.309112 0.718443 0.801894
O O9 0.068778 0.500000 0.500000
O O10 0.067692 0.752230 0.551863
O O11 0.000000 0.675772 0.500000
O O12 0.500000 0.813322 0.782776
O O13 0.581479 0.755075 0.750312
O O14 0.563534 0.000000 0.802881
O O15 0.500000 0.724133 0.614231
O O16 0.447086 0.500000 0.601354
O O17 0.416531 0.724673 0.651854
O O18 0.639255 0.000000 0.062978
O O19 0.655057 0.214196 0.000000
O O20 0.159940 0.222719 0.291028
O O21 0.104625 0.000000 0.291366
O O22 0.250000 0.750000 0.269473
O O23 0.206821 0.000000 0.258660
#
# Coordination Sequence:
#
# PCOD9485761 Si02
#       8
#    16  16   8  16  16  16  16  16
#     4  10  21  37  56  75  97 130 170 207 244 292
#     4  10  20  36  58  80 103 132 165 202 246 300
#     4   9  17  29  45  65  94 133 174 215 252 289
#     4  10  20  32  48  73 104 135 165 199 243 296
#     4   9  17  29  46  69  99 136 174 209 247 292
#     4  11  24  39  55  77 103 129 160 202 252 303
#     4  10  19  31  49  74 103 134 169 208 249 295
#     4   9  19  34  52  75 100 127 161 199 242 293
#
# _framework density 16.994938999999999
#
# number of rings (size 3 to 8) (size 9 to 14) (size 15 to 20)
#    0.000    2.200    0.000    3.000    0.000    7.200 
#    0.000    2.667    0.000    0.000    0.000    0.467 
#    0.000    0.000    0.000    0.000    0.000    0.000 
#
# Total GULP energy -334904.286601 kJ/mol
# GULP energy per Si atom -5581.738110 kJ/mol
# Density = 1.695626 g / cm^3
# Si number density = 16.994939 Si / 1000 Ang^3
#
#
#
# Elastic Constant Matrix: (Units=GPa)
#
#
# Indices 1 2 3 4 5 6 
#
# 1 85.5203 32.3152 64.1479 0.0000 0.0000 0.0000
# 2 32.3152 33.1956 25.5826 0.0000 0.0000 0.0000
# 3 64.1479 25.5826 72.2040 0.0000 0.0000 0.0000
# 4 0.0000 0.0000 0.0000 15.9999 0.0000 0.0000
# 5 0.0000 0.0000 0.0000 0.0000 17.9312 0.0000
# 6 0.0000 0.0000 0.0000 0.0000 0.0000 27.8285
#
#
#
# Elastic Compliance Matrix: (Units=1/GPa)
#
#
# Indices 1 2 3 4 5 6 
#
# 1 0.040451 -0.016071 -0.030244 0.000000 0.000000 0.000000
# 2 -0.016071 0.047824 -0.002667 0.000000 0.000000 0.000000
# 3 -0.030244 -0.002667 0.041664 0.000000 0.000000 0.000000
# 4 0.000000 0.000000 0.000000 0.062501 0.000000 0.000000
# 5 0.000000 0.000000 0.000000 0.000000 0.055769 0.000000
# 6 0.000000 0.000000 0.000000 0.000000 0.000000 0.035934
#
#
# Mechanical properties :
#
#
# Convention : Reuss Voigt Hill
#
# Bulk Modulus (GPa) = 31.27313 48.33458 39.80385
# Shear Modulus (GPa) = 12.73022 16.94353 14.83688
#
# Velocity S-wave (km/s) = 2.73986 3.16092 2.95789
# Velocity P-wave (km/s) = 5.33390 6.46716 5.92768
#
# Compressibility (1/GPa) = 0.03197634
#
# Stress axis : x y z
#
# Youngs Moduli (GPa) = 24.72098 20.90993 24.00132
#
# Poissons Ratio (x) = 0.33603 0.72590
# Poissons Ratio (y) = 0.39728 0.06402
# Poissons Ratio (z) = 0.74767 0.05577
#
# Static dielectric constant tensor:
#      x y z
#    x 1.575160 0.000000 0.000000 
#    y 0.000000 1.565770 0.000000 
#    z 0.000000 0.000000 1.559420 
# 
# From -- ./inp_files/76146.got.cif
#   From: 2010.05.17/outbox.cif.g08.bks.cpg/sg65_39_cif.got.tgz:76146.got - 2010.06.03 17:01:31.
