data_PCOD9485379
_publ_section_title
;
Structure prediction by ZEFSAII (Michael W. Deem and Ramdas Pophale) SiO2 
 PCOD9485379
Probable space group: C M M M
;
_chemical_formula_sum "Si O2"
_cell_formula_units_Z 72
_cell_length_a 34.664425
_cell_length_b 8.723786
_cell_length_c 16.149355
_cell_angle_alpha 90.000000
_cell_angle_beta 90.000000
_cell_angle_gamma 90.000000
_cell_volume 4883.646111
_symmetry_space_group_name_H-M "C M M M"
_symmetry_group_IT_number 65
_symmetry_cell_setting 'orthorhombic'
loop_
_space_group_symop_operation_xyz
x,y,z
-x,-y,z
x,-y,-z
-x,y,-z
-x,-y,-z
x,y,-z
-x,y,z
x,-y,z
1/2+x,1/2+y,z
1/2-x,1/2-y,z
1/2+x,1/2-y,-z
1/2-x,1/2+y,-z
1/2-x,1/2-y,-z
1/2+x,1/2+y,-z
1/2-x,1/2+y,z
1/2+x,1/2-y,z
loop_
_atom_site_type_symbol
_atom_site_label
_atom_site_fract_x
_atom_site_fract_y
_atom_site_fract_z
Si Si1 0.706684 0.814848 0.681132
Si Si2 0.206940 0.816537 0.000000
Si Si3 0.706715 0.184759 0.500000
Si Si4 0.339581 0.184108 0.844076
Si Si5 0.000000 0.677152 0.899491
Si Si6 0.581581 0.317070 0.901806
O O1 0.750000 0.750000 0.690839
O O2 0.690755 0.768313 0.590046
O O3 0.679878 0.768164 0.757446
O O4 0.709373 0.000000 0.682658
O O5 0.250000 0.750000 0.000000
O O6 0.184453 0.757253 0.080741
O O7 0.207895 0.000000 0.000000
O O8 0.750000 0.250000 0.500000
O O9 0.707800 0.000000 0.500000
O O10 0.383449 0.238842 0.853702
O O11 0.337782 0.000000 0.850845
O O12 0.960442 0.759111 0.874009
O O13 0.000000 0.500000 0.873985
O O14 0.000000 0.681818 0.000000
O O15 0.583913 0.500000 0.894507
O O16 0.585960 0.278749 0.000000
#
# Coordination Sequence:
#
# PCOD9485379 Si02
#       6
#    16   8   8  16   8  16
#     4   9  18  30  46  66  87 115 148 186 228 269
#     4  12  24  36  46  59  82 119 158 192 226 260
#     4   8  14  28  46  64  86 109 140 181 228 274
#     4  11  21  32  46  65  89 118 153 189 223 262
#     4   9  17  29  47  67  87 114 147 184 224 264
#     4  10  19  31  46  65  89 118 151 185 223 263
#
# _framework density 14.743081999999999
#
# number of rings (size 3 to 8) (size 9 to 14) (size 15 to 20)
#    0.000    2.111    1.111    3.333    0.000    5.778 
#    0.000    0.000    0.000    0.000    0.000    0.000 
#    0.000    0.889    0.000   10.444    0.000    2.000 
#
# Total GULP energy -200700.221287 kJ/mol
# GULP energy per Si atom -5575.006147 kJ/mol
# Density = 1.470953 g / cm^3
# Si number density = 14.743082 Si / 1000 Ang^3
#
#
#
# Elastic Constant Matrix: (Units=GPa)
#
#
# Indices 1 2 3 4 5 6 
#
# 1 116.1185 36.0951 63.8097 0.0000 0.0000 0.0000
# 2 36.0951 47.1779 36.3695 0.0000 0.0000 0.0000
# 3 63.8097 36.3695 126.3997 0.0000 0.0000 0.0000
# 4 0.0000 0.0000 0.0000 6.6385 0.0000 0.0000
# 5 0.0000 0.0000 0.0000 0.0000 3.3082 0.0000
# 6 0.0000 0.0000 0.0000 0.0000 0.0000 26.7971
#
#
#
# Elastic Compliance Matrix: (Units=1/GPa)
#
#
# Indices 1 2 3 4 5 6 
#
# 1 0.013273 -0.006412 -0.004856 0.000000 0.000000 0.000000
# 2 -0.006412 0.030336 -0.005492 0.000000 0.000000 0.000000
# 3 -0.004856 -0.005492 0.011943 0.000000 0.000000 0.000000
# 4 0.000000 0.000000 0.000000 0.150637 0.000000 0.000000
# 5 0.000000 0.000000 0.000000 0.000000 0.302279 0.000000
# 6 0.000000 0.000000 0.000000 0.000000 0.000000 0.037318
#
#
# Mechanical properties :
#
#
# Convention : Reuss Voigt Hill
#
# Bulk Modulus (GPa) = 45.38640 62.47163 53.92902
# Shear Modulus (GPa) = 8.52299 17.57687 13.04993
#
# Velocity S-wave (km/s) = 2.40698 3.45659 2.97838
# Velocity P-wave (km/s) = 6.21099 7.64174 6.96321
#
# Compressibility (1/GPa) = 0.02203303
#
# Stress axis : x y z
#
# Youngs Moduli (GPa) = 75.33864 32.96458 83.73179
#
# Poissons Ratio (x) = 0.21137 0.40659
# Poissons Ratio (y) = 0.48307 0.45983
# Poissons Ratio (z) = 0.36583 0.18103
#
# Static dielectric constant tensor:
#      x y z
#    x 1.464630 0.000000 0.000000 
#    y 0.000000 1.492430 0.000000 
#    z 0.000000 0.000000 1.503270 
# 
# From -- ./inp_files/47525.got.cif
#   From: 2010.05.17/outbox.cif.g08.bks.cpg/sg65_24_cif.got.tgz:47525.got - 2010.06.03 17:01:31.
