data_PCOD9485973
_publ_section_title
;
Structure prediction by ZEFSAII (Michael W. Deem and Ramdas Pophale) SiO2 
 PCOD9485973
Probable space group: C M M M
;
_chemical_formula_sum "Si O2"
_cell_formula_units_Z 96
_cell_length_a 22.896571
_cell_length_b 25.488820
_cell_length_c 7.473878
_cell_angle_alpha 90.000000
_cell_angle_beta 90.000000
_cell_angle_gamma 90.000000
_cell_volume 4361.804355
_symmetry_space_group_name_H-M "C M M M"
_symmetry_group_IT_number 65
_symmetry_cell_setting 'orthorhombic'
loop_
_space_group_symop_operation_xyz
x,y,z
-x,-y,z
x,-y,-z
-x,y,-z
-x,-y,-z
x,y,-z
-x,y,z
x,-y,z
1/2+x,1/2+y,z
1/2-x,1/2-y,z
1/2+x,1/2-y,-z
1/2-x,1/2+y,-z
1/2-x,1/2-y,-z
1/2+x,1/2+y,-z
1/2-x,1/2+y,z
1/2+x,1/2-y,z
loop_
_atom_site_type_symbol
_atom_site_label
_atom_site_fract_x
_atom_site_fract_y
_atom_site_fract_z
Si Si1 0.065282 0.685032 0.784287
Si Si2 0.225175 0.806980 0.283367
Si Si3 0.591597 0.301825 0.204895
Si Si4 0.157451 0.000000 0.783353
Si Si5 0.705148 0.000000 0.709592
Si Si6 0.176567 0.386580 0.712621
Si Si7 0.436269 0.415282 0.218708
O O1 0.078399 0.744361 0.717144
O O2 0.116249 0.644639 0.735995
O O3 0.000000 0.669685 0.726399
O O4 0.065780 0.687258 0.000000
O O5 0.220937 0.809536 0.500000
O O6 0.250000 0.750000 0.236780
O O7 0.160779 0.810800 0.207674
O O8 0.270133 0.850949 0.218371
O O9 0.566711 0.355368 0.284075
O O10 0.570408 0.299606 0.000000
O O11 0.224289 0.000000 0.722221
O O12 0.118977 0.949855 0.724160
O O13 0.159054 0.000000 0.000000
O O14 0.680431 0.054502 0.786167
O O15 0.689211 0.000000 0.500000
O O16 0.186342 0.390259 0.500000
O O17 0.500000 0.437325 0.266470
O O18 0.433709 0.414425 0.000000
#
# Coordination Sequence:
#
# PCOD9485973 Si02
#       7
#    16  16  16   8   8  16  16
#     4  10  21  36  54  78 107 137 170 213 264 312
#     4  10  19  32  51  76 107 137 168 212 262 306
#     4  10  19  31  51  78 107 140 177 214 256 308
#     4  10  19  32  54  81 105 136 181 221 255 300
#     4  10  22  39  58  78 104 137 169 212 267 316
#     4  10  21  38  57  78 104 137 175 211 256 313
#     4   9  17  30  49  75 108 144 180 217 254 297
#
# _framework density 22.009240999999999
#
# number of rings (size 3 to 8) (size 9 to 14) (size 15 to 20)
#    0.000    2.167    1.667    1.750    0.000    5.000 
#    0.000    0.417    0.000    6.000    0.000    0.000 
#    0.000    0.000    0.000    0.000    0.000    0.000 
#
# Total GULP energy -268148.506236 kJ/mol
# GULP energy per Si atom -5586.427213 kJ/mol
# Density = 2.195915 g / cm^3
# Si number density = 22.009241 Si / 1000 Ang^3
#
#
#
# Elastic Constant Matrix: (Units=GPa)
#
#
# Indices 1 2 3 4 5 6 
#
# 1 135.9102 67.2105 -12.0249 0.0000 0.0000 0.0000
# 2 67.2105 181.2462 8.1713 0.0000 0.0000 0.0000
# 3 -12.0249 8.1713 60.6965 0.0000 0.0000 0.0000
# 4 0.0000 0.0000 0.0000 -10.9993 0.0000 0.0000
# 5 0.0000 0.0000 0.0000 0.0000 28.0590 0.0000
# 6 0.0000 0.0000 0.0000 0.0000 0.0000 1.4146
#
#
#
# Elastic Compliance Matrix: (Units=1/GPa)
#
#
# Indices 1 2 3 4 5 6 
#
# 1 0.009326 -0.003563 0.002327 0.000000 0.000000 0.000000
# 2 -0.003563 0.006912 -0.001636 0.000000 0.000000 0.000000
# 3 0.002327 -0.001636 0.017157 0.000000 0.000000 0.000000
# 4 0.000000 0.000000 0.000000 -0.090915 0.000000 0.000000
# 5 0.000000 0.000000 0.000000 0.000000 0.035639 0.000000
# 6 0.000000 0.000000 0.000000 0.000000 0.000000 0.706925
#
#
# Mechanical properties :
#
#
# Convention : Reuss Voigt Hill
#
# Bulk Modulus (GPa) = 36.16606 56.06295 46.11451
# Shear Modulus (GPa) = 7.14279 24.66125 15.90202
#
# Velocity S-wave (km/s) = 1.80344 3.35101 2.69088
# Velocity P-wave (km/s) = 4.56119 6.36397 5.53645
#
# Compressibility (1/GPa) = 0.02765023
#
# Stress axis : x y z
#
# Youngs Moduli (GPa) = 107.22991 144.66681 58.28595
#
# Poissons Ratio (x) = 0.51547 -0.13565
# Poissons Ratio (y) = 0.38208 0.09538
# Poissons Ratio (z) = -0.24955 0.23675
#
# Static dielectric constant tensor:
#      x y z
#    x 1.822910 0.000000 0.000000 
#    y 0.000000 1.825980 0.000000 
#    z 0.000000 0.000000 1.841210 
# 
# From -- ./inp_files/14358.got.cif
#   From: 2010.05.17/outbox.cif.g08.bks.cpg/sg65_8_cif.got.tgz:14358.got - 2010.06.03 17:01:31.
