data_PCOD9485846
_publ_section_title
;
Structure prediction by ZEFSAII (Michael W. Deem and Ramdas Pophale) SiO2 
 PCOD9485846
Probable space group: C M M M
;
_chemical_formula_sum "Si O2"
_cell_formula_units_Z 88
_cell_length_a 7.674050
_cell_length_b 18.486246
_cell_length_c 29.925175
_cell_angle_alpha 90.000000
_cell_angle_beta 90.000000
_cell_angle_gamma 90.000000
_cell_volume 4245.316282
_symmetry_space_group_name_H-M "C M M M"
_symmetry_group_IT_number 65
_symmetry_cell_setting 'orthorhombic'
loop_
_space_group_symop_operation_xyz
x,y,z
-x,-y,z
x,-y,-z
-x,y,-z
-x,-y,-z
x,y,-z
-x,y,z
x,-y,z
1/2+x,1/2+y,z
1/2-x,1/2-y,z
1/2+x,1/2-y,-z
1/2-x,1/2+y,-z
1/2-x,1/2-y,-z
1/2+x,1/2+y,-z
1/2-x,1/2+y,z
1/2+x,1/2-y,z
loop_
_atom_site_type_symbol
_atom_site_label
_atom_site_fract_x
_atom_site_fract_y
_atom_site_fract_z
Si Si1 0.709562 0.834530 0.821716
Si Si2 0.713433 0.083746 0.910855
Si Si3 0.207355 0.581451 0.734878
Si Si4 0.792503 0.835075 0.645063
Si Si5 0.290341 0.664133 0.451991
Si Si6 0.790740 0.665288 0.000000
O O1 0.500000 0.841037 0.821710
O O2 0.750000 0.750000 0.823237
O O3 0.772521 0.876012 0.865912
O O4 0.777063 0.871391 0.776229
O O5 0.500000 0.084670 0.910851
O O6 0.766281 0.000000 0.911503
O O7 0.772853 0.125988 0.955083
O O8 0.278959 0.500000 0.734565
O O9 0.231732 0.620573 0.687666
O O10 0.000000 0.576122 0.741775
O O11 0.750000 0.750000 0.650137
O O12 0.724261 0.861521 0.596422
O O13 0.000000 0.841127 0.643699
O O14 0.224826 0.635164 0.500000
O O15 0.500000 0.655429 0.452161
O O16 0.250000 0.750000 0.452058
O O17 0.750000 0.750000 0.000000
O O18 0.000000 0.657947 0.000000
#
# Coordination Sequence:
#
# PCOD9485846 Si02
#       6
#    16  16  16  16  16   8
#     4  10  20  34  53  75  99 128 162 202 247 295
#     4   9  17  31  52  76 100 129 168 207 241 285
#     4  10  21  36  52  70  95 129 167 206 249 295
#     4  10  19  31  50  75 101 129 162 201 245 292
#     4   8  14  25  42  66  95 124 155 193 237 285
#     4  10  19  31  51  77 103 132 166 206 248 288
#
# _framework density 20.728726999999999
#
# number of rings (size 3 to 8) (size 9 to 14) (size 15 to 20)
#    0.000    2.545    0.000    2.455    0.000    6.545 
#    0.000    0.000    0.000    4.364    0.000    3.818 
#    0.000    0.000    0.000    0.000    0.000    0.000 
#
# Total GULP energy -245483.509196 kJ/mol
# GULP energy per Si atom -5579.170664 kJ/mol
# Density = 2.068155 g / cm^3
# Si number density = 20.728727 Si / 1000 Ang^3
#
#
#
# Elastic Constant Matrix: (Units=GPa)
#
#
# Indices 1 2 3 4 5 6 
#
# 1 38.4161 -0.2004 7.5627 0.0000 0.0000 0.0000
# 2 -0.2004 156.4840 127.0770 0.0000 0.0000 0.0000
# 3 7.5627 127.0770 262.2665 0.0000 0.0000 0.0000
# 4 0.0000 0.0000 0.0000 -9.4604 0.0000 0.0000
# 5 0.0000 0.0000 0.0000 0.0000 8.3417 0.0000
# 6 0.0000 0.0000 0.0000 0.0000 0.0000 20.4975
#
#
#
# Elastic Compliance Matrix: (Units=1/GPa)
#
#
# Indices 1 2 3 4 5 6 
#
# 1 0.026288 0.001070 -0.001277 0.000000 0.000000 0.000000
# 2 0.001070 0.010580 -0.005157 0.000000 0.000000 0.000000
# 3 -0.001277 -0.005157 0.006349 0.000000 0.000000 0.000000
# 4 0.000000 0.000000 0.000000 -0.105704 0.000000 0.000000
# 5 0.000000 0.000000 0.000000 0.000000 0.119880 0.000000
# 6 0.000000 0.000000 0.000000 0.000000 0.000000 0.048786
#
#
# Mechanical properties :
#
#
# Convention : Reuss Voigt Hill
#
# Bulk Modulus (GPa) = 30.77947 80.67169 55.72558
# Shear Modulus (GPa) = 39.14371 25.39093 32.26732
#
# Velocity S-wave (km/s) = 4.35026 3.50368 3.94972
# Velocity P-wave (km/s) = 6.33356 7.44110 6.90956
#
# Compressibility (1/GPa) = 0.03248919
#
# Stress axis : x y z
#
# Youngs Moduli (GPa) = 38.04067 94.51994 157.51672
#
# Poissons Ratio (x) = -0.10118 0.20110
# Poissons Ratio (y) = -0.04072 0.81233
# Poissons Ratio (z) = 0.04857 0.48745
#
# Static dielectric constant tensor:
#      x y z
#    x 1.803830 0.000000 0.000000 
#    y 0.000000 1.685840 0.000000 
#    z 0.000000 0.000000 1.774820 
# 
# From -- ./inp_files/76506.got.cif
#   From: 2010.05.17/outbox.cif.g08.bks.cpg/sg65_39_cif.got.tgz:76506.got - 2010.06.03 17:01:31.
