data_PCOD9485895
_publ_section_title
;
Structure prediction by ZEFSAII (Michael W. Deem and Ramdas Pophale) SiO2 
 PCOD9485895
Probable space group: C M M M
;
_chemical_formula_sum "Si O2"
_cell_formula_units_Z 96
_cell_length_a 24.240695
_cell_length_b 8.518204
_cell_length_c 26.812421
_cell_angle_alpha 90.000000
_cell_angle_beta 90.000000
_cell_angle_gamma 90.000000
_cell_volume 5536.421338
_symmetry_space_group_name_H-M "C M M M"
_symmetry_group_IT_number 65
_symmetry_cell_setting 'orthorhombic'
loop_
_space_group_symop_operation_xyz
x,y,z
-x,-y,z
x,-y,-z
-x,y,-z
-x,-y,-z
x,y,-z
-x,y,z
x,-y,z
1/2+x,1/2+y,z
1/2-x,1/2-y,z
1/2+x,1/2-y,-z
1/2-x,1/2+y,-z
1/2-x,1/2-y,-z
1/2+x,1/2+y,-z
1/2-x,1/2+y,z
1/2+x,1/2-y,z
loop_
_atom_site_type_symbol
_atom_site_label
_atom_site_fract_x
_atom_site_fract_y
_atom_site_fract_z
Si Si1 0.811848 0.311975 0.148044
Si Si2 0.500000 0.690958 0.900213
Si Si3 0.382499 0.188092 0.244217
Si Si4 0.000000 0.811890 0.784550
Si Si5 0.687091 0.310506 0.553546
Si Si6 0.812850 0.811169 0.663142
Si Si7 0.382152 0.690061 0.056671
O O1 0.810892 0.500000 0.148129
O O2 0.750000 0.250000 0.153512
O O3 0.849358 0.258174 0.194695
O O4 0.839398 0.253154 0.097070
O O5 0.500000 0.500000 0.900721
O O6 0.500000 0.741845 0.842558
O O7 0.556173 0.741106 0.927204
O O8 0.444432 0.251382 0.240860
O O9 0.350247 0.246605 0.292718
O O10 0.383457 0.000000 0.244076
O O11 0.000000 0.000000 0.784426
O O12 0.662081 0.259304 0.500000
O O13 0.687544 0.500000 0.553503
O O14 0.750000 0.250000 0.553220
O O15 0.665280 0.261994 0.607933
O O16 0.750000 0.750000 0.668383
O O17 0.811662 0.000000 0.665432
O O18 0.381027 0.500000 0.058238
O O19 0.370419 0.739387 0.000000
#
# Coordination Sequence:
#
# PCOD9485895 Si02
#       7
#    16   8  16   8  16  16  16
#     4  11  24  39  56  76 103 138 175 212 255 307
#     4   9  17  33  58  85 107 130 162 204 251 304
#     4  11  23  38  55  78 107 138 174 219 264 312
#     4  11  21  36  61  83 103 135 170 212 261 315
#     4   8  14  25  42  67 101 139 177 216 257 303
#     4  10  19  31  50  77 109 145 182 219 262 312
#     4  10  20  36  59  84 108 134 167 208 255 308
#
# _framework density 17.339721000000001
#
# number of rings (size 3 to 8) (size 9 to 14) (size 15 to 20)
#    0.000    2.000    1.667    2.500    0.000    5.667 
#    0.000    0.417    0.000    1.000    0.000    0.583 
#    0.000    4.667    0.000    0.000    0.000    0.000 
#
# Total GULP energy -267771.182498 kJ/mol
# GULP energy per Si atom -5578.566302 kJ/mol
# Density = 1.730025 g / cm^3
# Si number density = 17.339721 Si / 1000 Ang^3
#
#
#
# Elastic Constant Matrix: (Units=GPa)
#
#
# Indices 1 2 3 4 5 6 
#
# 1 121.4667 26.9351 77.5134 0.0000 0.0000 0.0000
# 2 26.9351 31.4970 34.2914 0.0000 0.0000 0.0000
# 3 77.5134 34.2914 183.7145 0.0000 0.0000 0.0000
# 4 0.0000 0.0000 0.0000 18.0822 0.0000 0.0000
# 5 0.0000 0.0000 0.0000 0.0000 -0.2664 0.0000
# 6 0.0000 0.0000 0.0000 0.0000 0.0000 10.5990
#
#
#
# Elastic Compliance Matrix: (Units=1/GPa)
#
#
# Indices 1 2 3 4 5 6 
#
# 1 0.012111 -0.006016 -0.003987 0.000000 0.000000 0.000000
# 2 -0.006016 0.042835 -0.005457 0.000000 0.000000 0.000000
# 3 -0.003987 -0.005457 0.008144 0.000000 0.000000 0.000000
# 4 0.000000 0.000000 0.000000 0.055303 0.000000 0.000000
# 5 0.000000 0.000000 0.000000 0.000000 -3.754146 0.000000
# 6 0.000000 0.000000 0.000000 0.000000 0.000000 0.094348
#
#
# Mechanical properties :
#
#
# Convention : Reuss Voigt Hill
#
# Bulk Modulus (GPa) = 31.08517 68.23978 49.66248
# Shear Modulus (GPa) = -1.42867 18.87887 8.72510
#
# Velocity S-wave (km/s) = -0.90869 3.30322 2.24561
# Velocity P-wave (km/s) = 4.10672 7.34768 5.95204
#
# Compressibility (1/GPa) = 0.03216968
#
# Stress axis : x y z
#
# Youngs Moduli (GPa) = 82.56906 23.34534 122.78965
#
# Poissons Ratio (x) = 0.14045 0.48956
# Poissons Ratio (y) = 0.49676 0.67007
# Poissons Ratio (z) = 0.32920 0.12740
#
# Static dielectric constant tensor:
#      x y z
#    x 1.545910 0.000000 0.000000 
#    y 0.000000 1.589360 0.000000 
#    z 0.000000 0.000000 1.621250 
# 
# From -- ./inp_files/71489.got.cif
#   From: 2010.05.17/outbox.cif.g08.bks.cpg/sg65_36_cif.got.tgz:71489.got - 2010.06.03 17:01:31.
