data_PCOD9485448
_publ_section_title
;
Structure prediction by ZEFSAII (Michael W. Deem and Ramdas Pophale) SiO2 
 PCOD9485448
Probable space group: C M M M
;
_chemical_formula_sum "Si O2"
_cell_formula_units_Z 88
_cell_length_a 7.466439
_cell_length_b 16.344379
_cell_length_c 33.231484
_cell_angle_alpha 90.000000
_cell_angle_beta 90.000000
_cell_angle_gamma 90.000000
_cell_volume 4055.381180
_symmetry_space_group_name_H-M "C M M M"
_symmetry_group_IT_number 65
_symmetry_cell_setting 'orthorhombic'
loop_
_space_group_symop_operation_xyz
x,y,z
-x,-y,z
x,-y,-z
-x,y,-z
-x,-y,-z
x,y,-z
-x,y,z
x,-y,z
1/2+x,1/2+y,z
1/2-x,1/2-y,z
1/2+x,1/2-y,-z
1/2-x,1/2+y,-z
1/2-x,1/2-y,-z
1/2+x,1/2+y,-z
1/2-x,1/2+y,z
1/2+x,1/2-y,z
loop_
_atom_site_type_symbol
_atom_site_label
_atom_site_fract_x
_atom_site_fract_y
_atom_site_fract_z
Si Si1 0.215184 0.153058 0.259098
Si Si2 0.285894 0.345289 0.000000
Si Si3 0.285523 0.841831 0.453959
Si Si4 0.285635 0.500000 0.688805
Si Si5 0.713673 0.346092 0.830148
Si Si6 0.795851 0.096670 0.084991
Si Si7 0.785203 0.500000 0.405746
O O1 0.250000 0.250000 0.267183
O O2 0.281525 0.129572 0.214104
O O3 0.000000 0.147862 0.258118
O O4 0.280744 0.084191 0.290281
O O5 0.250000 0.250000 0.000000
O O6 0.212930 0.377124 0.957407
O O7 0.500000 0.365407 0.000000
O O8 0.217004 0.846709 0.500000
O O9 0.500000 0.849597 0.455906
O O10 0.250000 0.750000 0.438434
O O11 0.217686 0.917160 0.427271
O O12 0.500000 0.500000 0.694154
O O13 0.250683 0.500000 0.641485
O O14 0.500000 0.363886 0.829965
O O15 0.750000 0.250000 0.831916
O O16 0.787174 0.380646 0.872033
O O17 0.000000 0.132212 0.085370
O O18 0.808313 0.000000 0.083918
O O19 0.000000 0.500000 0.410666
#
# Coordination Sequence:
#
# PCOD9485448 Si02
#       7
#    16   8  16   8  16  16   8
#     4   9  19  35  54  75 100 131 169 215 262 309
#     4  10  19  31  47  67  93 124 154 188 230 280
#     4   9  18  34  56  81 109 142 180 220 261 306
#     4  10  22  37  53  75 104 137 176 218 262 311
#     4   9  17  30  50  72  93 120 156 197 242 291
#     4   9  17  28  46  71  94 119 154 194 232 278
#     4  10  21  36  54  78 108 144 179 215 261 315
#
# _framework density 21.699563000000001
#
# number of rings (size 3 to 8) (size 9 to 14) (size 15 to 20)
#    0.000    2.727    0.000    1.091    1.273    4.364 
#    0.000    3.636    0.000    5.455    0.000    0.000 
#    0.000    0.000    0.000    0.000    0.000    0.000 
#
# Total GULP energy -245277.817522 kJ/mol
# GULP energy per Si atom -5574.495853 kJ/mol
# Density = 2.165017 g / cm^3
# Si number density = 21.699563 Si / 1000 Ang^3
#
#
#
# Elastic Constant Matrix: (Units=GPa)
#
#
# Indices 1 2 3 4 5 6 
#
# 1 68.3804 0.9568 5.5926 0.0000 0.0000 0.0000
# 2 0.9568 145.2787 127.3036 0.0000 0.0000 0.0000
# 3 5.5926 127.3036 191.3286 0.0000 0.0000 0.0000
# 4 0.0000 0.0000 0.0000 27.5297 0.0000 0.0000
# 5 0.0000 0.0000 0.0000 0.0000 22.4553 0.0000
# 6 0.0000 0.0000 0.0000 0.0000 0.0000 19.7329
#
#
#
# Elastic Compliance Matrix: (Units=1/GPa)
#
#
# Indices 1 2 3 4 5 6 
#
# 1 0.014686 0.000670 -0.000875 0.000000 0.000000 0.000000
# 2 0.000670 0.016539 -0.011024 0.000000 0.000000 0.000000
# 3 -0.000875 -0.011024 0.012587 0.000000 0.000000 0.000000
# 4 0.000000 0.000000 0.000000 0.036324 0.000000 0.000000
# 5 0.000000 0.000000 0.000000 0.000000 0.044533 0.000000
# 6 0.000000 0.000000 0.000000 0.000000 0.000000 0.050677
#
#
# Mechanical properties :
#
#
# Convention : Reuss Voigt Hill
#
# Bulk Modulus (GPa) = 46.82893 74.74375 60.78634
# Shear Modulus (GPa) = 24.39941 32.01921 28.20931
#
# Velocity S-wave (km/s) = 3.35687 3.84548 3.60945
# Velocity P-wave (km/s) = 6.05411 7.36455 6.74125
#
# Compressibility (1/GPa) = 0.02135432
#
# Stress axis : x y z
#
# Youngs Moduli (GPa) = 68.09079 60.46312 79.44546
#
# Poissons Ratio (x) = -0.04052 0.06953
# Poissons Ratio (y) = -0.04563 0.87581
# Poissons Ratio (z) = 0.05959 0.66655
#
# Static dielectric constant tensor:
#      x y z
#    x 1.885100 0.000000 0.000000 
#    y 0.000000 1.749130 0.000000 
#    z 0.000000 0.000000 1.830880 
# 
# From -- ./inp_files/74304.got.cif
#   From: 2010.05.17/outbox.cif.g08.bks.cpg/sg65_38_cif.got.tgz:74304.got - 2010.06.03 17:01:31.
