data_PCOD9485961
_publ_section_title
;
Structure prediction by ZEFSAII (Michael W. Deem and Ramdas Pophale) SiO2 
 PCOD9485961
Probable space group: C M M M
;
_chemical_formula_sum "Si O2"
_cell_formula_units_Z 120
_cell_length_a 9.007034
_cell_length_b 28.284274
_cell_length_c 26.899503
_cell_angle_alpha 90.000000
_cell_angle_beta 90.000000
_cell_angle_gamma 90.000000
_cell_volume 6852.847919
_symmetry_space_group_name_H-M "C M M M"
_symmetry_group_IT_number 65
_symmetry_cell_setting 'orthorhombic'
loop_
_space_group_symop_operation_xyz
x,y,z
-x,-y,z
x,-y,-z
-x,y,-z
-x,-y,-z
x,y,-z
-x,y,z
x,-y,z
1/2+x,1/2+y,z
1/2-x,1/2-y,z
1/2+x,1/2-y,-z
1/2-x,1/2+y,-z
1/2-x,1/2-y,-z
1/2+x,1/2+y,-z
1/2-x,1/2+y,z
1/2+x,1/2-y,z
loop_
_atom_site_type_symbol
_atom_site_label
_atom_site_fract_x
_atom_site_fract_y
_atom_site_fract_z
Si Si1 0.333716 0.705194 0.352997
Si Si2 0.679571 0.197111 0.500000
Si Si3 0.323759 0.556326 0.344155
Si Si4 0.823774 0.396462 0.753486
Si Si5 0.666977 0.296213 0.235341
Si Si6 0.675441 0.129211 0.407165
Si Si7 0.331244 0.443093 0.844862
Si Si8 0.327009 0.942545 0.944521
O O1 0.500000 0.697995 0.373524
O O2 0.250000 0.750000 0.375836
O O3 0.349318 0.712838 0.294523
O O4 0.225663 0.661598 0.361178
O O5 0.500000 0.203099 0.500000
O O6 0.750000 0.250000 0.500000
O O7 0.719516 0.163106 0.453218
O O8 0.500000 0.565744 0.342303
O O9 0.299375 0.500000 0.343742
O O10 0.250403 0.579608 0.295162
O O11 0.257165 0.580468 0.394009
O O12 0.759308 0.344524 0.765991
O O13 0.776729 0.427338 0.801010
O O14 0.000000 0.394492 0.746405
O O15 0.500000 0.301878 0.215124
O O16 0.750000 0.250000 0.214431
O O17 0.500000 0.121686 0.409765
O O18 0.500000 0.426811 0.835160
O O19 0.333522 0.500000 0.846046
O O20 0.271816 0.426249 0.898434
O O21 0.500000 0.929593 0.937272
O O22 0.321969 0.000000 0.944546
O O23 0.280298 0.927220 0.000000
#
# Coordination Sequence:
#
# PCOD9485961 Si02
#       8
#    16   8  16  16  16  16  16  16
#     4  10  19  31  51  77 106 135 166 203 247 299
#     4  10  24  42  61  90 119 143 170 209 259 314
#     4  11  24  41  59  80 107 140 180 223 265 311
#     4  12  23  35  54  78 107 142 181 222 268 319
#     4  10  20  34  52  75 106 136 169 210 256 310
#     4  11  22  38  59  82 110 139 173 211 255 309
#     4  10  20  32  47  70 103 143 185 229 275 321
#     4   8  14  26  44  66  95 133 178 227 276 326
#
# _framework density 17.510967999999998
#
# number of rings (size 3 to 8) (size 9 to 14) (size 15 to 20)
#    0.000    1.733    1.333    4.400    0.000    6.933 
#    0.000    1.667    0.000    2.000    0.000    0.000 
#    0.000    0.533    0.000    2.000    0.000    3.067 
#
# Total GULP energy -334405.731215 kJ/mol
# GULP energy per Si atom -5573.428854 kJ/mol
# Density = 1.747111 g / cm^3
# Si number density = 17.510968 Si / 1000 Ang^3
#
#
#
# Elastic Constant Matrix: (Units=GPa)
#
#
# Indices 1 2 3 4 5 6 
#
# 1 103.8550 54.9783 33.9518 0.0000 0.0000 0.0000
# 2 54.9783 86.8235 31.2517 0.0000 0.0000 0.0000
# 3 33.9518 31.2517 69.1258 0.0000 0.0000 0.0000
# 4 0.0000 0.0000 0.0000 19.9877 0.0000 0.0000
# 5 0.0000 0.0000 0.0000 0.0000 19.4672 0.0000
# 6 0.0000 0.0000 0.0000 0.0000 0.0000 25.6309
#
#
#
# Elastic Compliance Matrix: (Units=1/GPa)
#
#
# Indices 1 2 3 4 5 6 
#
# 1 0.015249 -0.008313 -0.003732 0.000000 0.000000 0.000000
# 2 -0.008313 0.018288 -0.004185 0.000000 0.000000 0.000000
# 3 -0.003732 -0.004185 0.018191 0.000000 0.000000 0.000000
# 4 0.000000 0.000000 0.000000 0.050031 0.000000 0.000000
# 5 0.000000 0.000000 0.000000 0.000000 0.051368 0.000000
# 6 0.000000 0.000000 0.000000 0.000000 0.000000 0.039015
#
#
# Mechanical properties :
#
#
# Convention : Reuss Voigt Hill
#
# Bulk Modulus (GPa) = 51.89568 55.57423 53.73495
# Shear Modulus (GPa) = 21.64264 22.32534 21.98399
#
# Velocity S-wave (km/s) = 3.51942 3.57450 3.54706
# Velocity P-wave (km/s) = 6.79820 6.98869 6.89410
#
# Compressibility (1/GPa) = 0.01926943
#
# Stress axis : x y z
#
# Youngs Moduli (GPa) = 65.57609 54.68075 54.97169
#
# Poissons Ratio (x) = 0.45457 0.20513
# Poissons Ratio (y) = 0.54514 0.23005
# Poissons Ratio (z) = 0.24470 0.22883
#
# Static dielectric constant tensor:
#      x y z
#    x 1.618550 0.000000 0.000000 
#    y 0.000000 1.560910 0.000000 
#    z 0.000000 0.000000 1.623870 
# 
# From -- ./inp_files/73998.got.cif
#   From: 2010.05.17/outbox.cif.g08.bks.cpg/sg65_37_cif.got.tgz:73998.got - 2010.06.03 17:01:31.
