data_PCOD9485571
_publ_section_title
;
Structure prediction by ZEFSAII (Michael W. Deem and Ramdas Pophale) SiO2 
 PCOD9485571
Probable space group: C M M M
;
_chemical_formula_sum "Si O2"
_cell_formula_units_Z 104
_cell_length_a 8.169549
_cell_length_b 28.146509
_cell_length_c 28.608099
_cell_angle_alpha 90.000000
_cell_angle_beta 90.000000
_cell_angle_gamma 90.000000
_cell_volume 6578.268854
_symmetry_space_group_name_H-M "C M M M"
_symmetry_group_IT_number 65
_symmetry_cell_setting 'orthorhombic'
loop_
_space_group_symop_operation_xyz
x,y,z
-x,-y,z
x,-y,-z
-x,y,-z
-x,-y,-z
x,y,-z
-x,y,z
x,-y,z
1/2+x,1/2+y,z
1/2-x,1/2-y,z
1/2+x,1/2-y,-z
1/2-x,1/2+y,-z
1/2-x,1/2-y,-z
1/2+x,1/2+y,-z
1/2-x,1/2+y,z
1/2+x,1/2-y,z
loop_
_atom_site_type_symbol
_atom_site_label
_atom_site_fract_x
_atom_site_fract_y
_atom_site_fract_z
Si Si1 0.803530 0.803595 0.760101
Si Si2 0.801504 0.946500 0.802924
Si Si3 0.192159 0.396538 0.291590
Si Si4 0.500000 0.057580 0.553404
Si Si5 0.185463 0.056896 0.615302
Si Si6 0.196679 0.146100 0.854963
Si Si7 0.695074 0.195967 0.948015
O O1 0.750000 0.750000 0.750402
O O2 0.734865 0.843063 0.724610
O O3 0.748183 0.819498 0.812414
O O4 0.000000 0.806699 0.758810
O O5 0.737183 0.929252 0.752812
O O6 0.749189 0.906762 0.840285
O O7 0.000000 0.945561 0.800761
O O8 0.749011 0.000000 0.813425
O O9 0.289486 0.414958 0.336479
O O10 0.000000 0.400561 0.301508
O O11 0.500000 0.074795 0.500000
O O12 0.333520 0.070929 0.580703
O O13 0.500000 0.000000 0.552077
O O14 0.000000 0.064726 0.597359
O O15 0.201711 0.000000 0.624258
O O16 0.251080 0.163351 0.905366
O O17 0.000000 0.146851 0.854449
O O18 0.500000 0.195477 0.949532
O O19 0.750000 0.250000 0.938867
O O20 0.757829 0.182595 0.000000
#
# Coordination Sequence:
#
# PCOD9485571 Si02
#       7
#    16  16  16   8  16  16  16
#     4  10  20  33  47  67  95 127 158 192 236 286
#     4   9  18  32  48  67  92 122 157 195 234 276
#     4  11  20  30  46  69  97 130 165 201 236 283
#     4   9  18  32  48  70 100 132 170 210 247 297
#     4  10  19  31  48  70  99 135 169 207 251 290
#     4   9  18  31  48  68  90 118 151 186 231 281
#     4  10  20  32  47  67  89 113 144 185 230 279
#
# _framework density 15.80963
#
# number of rings (size 3 to 8) (size 9 to 14) (size 15 to 20)
#    0.000    2.231    0.769    4.154    0.000    7.692 
#    0.000    1.538    0.000    0.462    0.000    3.231 
#    0.000    0.615    0.308    0.000    0.000    0.000 
#
# Total GULP energy -289973.157013 kJ/mol
# GULP energy per Si atom -5576.406866 kJ/mol
# Density = 1.577365 g / cm^3
# Si number density = 15.809630 Si / 1000 Ang^3
#
#
#
# Elastic Constant Matrix: (Units=GPa)
#
#
# Indices 1 2 3 4 5 6 
#
# 1 64.3271 26.5402 37.8005 0.0000 0.0000 0.0000
# 2 26.5402 86.6481 48.7113 0.0000 0.0000 0.0000
# 3 37.8005 48.7113 111.9138 0.0000 0.0000 0.0000
# 4 0.0000 0.0000 0.0000 18.7853 0.0000 0.0000
# 5 0.0000 0.0000 0.0000 0.0000 19.6324 0.0000
# 6 0.0000 0.0000 0.0000 0.0000 0.0000 20.4753
#
#
#
# Elastic Compliance Matrix: (Units=1/GPa)
#
#
# Indices 1 2 3 4 5 6 
#
# 1 0.019998 -0.003082 -0.005413 0.000000 0.000000 0.000000
# 2 -0.003082 0.015755 -0.005816 0.000000 0.000000 0.000000
# 3 -0.005413 -0.005816 0.013295 0.000000 0.000000 0.000000
# 4 0.000000 0.000000 0.000000 0.053233 0.000000 0.000000
# 5 0.000000 0.000000 0.000000 0.000000 0.050936 0.000000
# 6 0.000000 0.000000 0.000000 0.000000 0.000000 0.048839
#
#
# Mechanical properties :
#
#
# Convention : Reuss Voigt Hill
#
# Bulk Modulus (GPa) = 48.95968 54.33255 51.64612
# Shear Modulus (GPa) = 21.05366 21.76775 21.41070
#
# Velocity S-wave (km/s) = 3.65320 3.71464 3.68405
# Velocity P-wave (km/s) = 6.98785 7.26907 7.12985
#
# Compressibility (1/GPa) = 0.02042497
#
# Stress axis : x y z
#
# Youngs Moduli (GPa) = 50.00463 63.47263 75.21414
#
# Poissons Ratio (x) = 0.19564 0.40714
# Poissons Ratio (y) = 0.15413 0.43747
# Poissons Ratio (z) = 0.27068 0.36918
#
# Static dielectric constant tensor:
#      x y z
#    x 1.562660 0.000000 0.000000 
#    y 0.000000 1.524540 0.000000 
#    z 0.000000 0.000000 1.517770 
# 
# From -- ./inp_files/68536.got.cif
#   From: 2010.05.17/outbox.cif.g08.bks.cpg/sg65_35_cif.got.tgz:68536.got - 2010.06.03 17:01:31.
