data_PCOD9485760
_publ_section_title
;
Structure prediction by ZEFSAII (Michael W. Deem and Ramdas Pophale) SiO2 
 PCOD9485760
Probable space group: C M M M
;
_chemical_formula_sum "Si O2"
_cell_formula_units_Z 80
_cell_length_a 18.608146
_cell_length_b 27.659039
_cell_length_c 7.688484
_cell_angle_alpha 90.000000
_cell_angle_beta 90.000000
_cell_angle_gamma 90.000000
_cell_volume 3957.135362
_symmetry_space_group_name_H-M "C M M M"
_symmetry_group_IT_number 65
_symmetry_cell_setting 'orthorhombic'
loop_
_space_group_symop_operation_xyz
x,y,z
-x,-y,z
x,-y,-z
-x,y,-z
-x,-y,-z
x,y,-z
-x,y,z
x,-y,z
1/2+x,1/2+y,z
1/2-x,1/2-y,z
1/2+x,1/2-y,-z
1/2-x,1/2+y,-z
1/2-x,1/2-y,-z
1/2+x,1/2+y,-z
1/2-x,1/2+y,z
1/2+x,1/2-y,z
loop_
_atom_site_type_symbol
_atom_site_label
_atom_site_fract_x
_atom_site_fract_y
_atom_site_fract_z
Si Si1 0.077641 0.917739 0.787587
Si Si2 0.619478 0.311432 0.798962
Si Si3 0.078803 0.294127 0.702015
Si Si4 0.265341 0.552480 0.210932
Si Si5 0.722846 0.158649 0.295894
O O1 0.086191 0.861704 0.733263
O O2 0.150899 0.943529 0.733642
O O3 0.000000 0.936687 0.731101
O O4 0.078187 0.918640 0.000000
O O5 0.593935 0.263116 0.707520
O O6 0.705414 0.318985 0.787502
O O7 0.598617 0.306448 0.000000
O O8 0.075987 0.309227 0.500000
O O9 0.148827 0.320265 0.778606
O O10 0.000000 0.303829 0.779386
O O11 0.236734 0.500000 0.264862
O O12 0.227052 0.600763 0.276207
O O13 0.264035 0.554630 0.000000
O O14 0.727337 0.171217 0.500000
#
# Coordination Sequence:
#
# PCOD9485760 Si02
#       5
#    16  16  16  16  16
#     4   8  14  25  42  67  98 127 155 188 226 271
#     4  10  19  31  49  74 103 134 167 198 231 280
#     4  10  21  35  50  71 100 130 161 202 249 293
#     4   9  18  32  50  72  96 123 159 206 255 296
#     4  10  20  34  52  72  96 129 166 201 242 294
#
# _framework density 20.216645
#
# number of rings (size 3 to 8) (size 9 to 14) (size 15 to 20)
#    0.000    2.600    0.000    3.600    0.000    6.000 
#    0.000    2.000    0.000    6.000    0.000    9.800 
#    0.000    0.000    0.000    0.000    0.000    0.000 
#
# Total GULP energy -223197.501978 kJ/mol
# GULP energy per Si atom -5579.937549 kJ/mol
# Density = 2.017063 g / cm^3
# Si number density = 20.216645 Si / 1000 Ang^3
#
#
#
# Elastic Constant Matrix: (Units=GPa)
#
#
# Indices 1 2 3 4 5 6 
#
# 1 95.0175 25.9140 -4.8273 0.0000 0.0000 0.0000
# 2 25.9140 60.4976 -9.9776 0.0000 0.0000 0.0000
# 3 -4.8273 -9.9776 36.7930 0.0000 0.0000 0.0000
# 4 0.0000 0.0000 0.0000 18.0126 0.0000 0.0000
# 5 0.0000 0.0000 0.0000 0.0000 10.0950 0.0000
# 6 0.0000 0.0000 0.0000 0.0000 0.0000 -1.4921
#
#
#
# Elastic Compliance Matrix: (Units=1/GPa)
#
#
# Indices 1 2 3 4 5 6 
#
# 1 0.011918 -0.005074 0.000188 0.000000 0.000000 0.000000
# 2 -0.005074 0.019464 0.004612 0.000000 0.000000 0.000000
# 3 0.000188 0.004612 0.028455 0.000000 0.000000 0.000000
# 4 0.000000 0.000000 0.000000 0.055517 0.000000 0.000000
# 5 0.000000 0.000000 0.000000 0.000000 0.099059 0.000000
# 6 0.000000 0.000000 0.000000 0.000000 0.000000 -0.670204
#
#
# Mechanical properties :
#
#
# Convention : Reuss Voigt Hill
#
# Bulk Modulus (GPa) = 16.86674 23.83626 20.35150
# Shear Modulus (GPa) = -11.48153 17.40304 2.96076
#
# Velocity S-wave (km/s) = -2.38570 2.93717 1.21148
# Velocity P-wave (km/s) = 0.87883 4.82894 3.47066
#
# Compressibility (1/GPa) = 0.05928828
#
# Stress axis : x y z
#
# Youngs Moduli (GPa) = 83.90863 51.37765 35.14381
#
# Poissons Ratio (x) = 0.26069 -0.00660
# Poissons Ratio (y) = 0.42575 -0.16210
# Poissons Ratio (z) = -0.01575 -0.23698
#
# Static dielectric constant tensor:
#      x y z
#    x 1.743740 0.000000 0.000000 
#    y 0.000000 1.701490 0.000000 
#    z 0.000000 0.000000 1.759790 
# 
# From -- ./inp_files/9573.got.cif
#   From: 2010.05.17/outbox.cif.g08.bks.cpg/sg65_5_cif.got.tgz:9573.got - 2010.06.03 17:01:31.
