data_PCOD9485268
_publ_section_title
;
Structure prediction by ZEFSAII (Michael W. Deem and Ramdas Pophale) SiO2 
 PCOD9485268
Probable space group: C M M M
;
_chemical_formula_sum "Si O2"
_cell_formula_units_Z 72
_cell_length_a 15.909464
_cell_length_b 8.882326
_cell_length_c 25.201111
_cell_angle_alpha 90.000000
_cell_angle_beta 90.000000
_cell_angle_gamma 90.000000
_cell_volume 3561.245751
_symmetry_space_group_name_H-M "C M M M"
_symmetry_group_IT_number 65
_symmetry_cell_setting 'orthorhombic'
loop_
_space_group_symop_operation_xyz
x,y,z
-x,-y,z
x,-y,-z
-x,y,-z
-x,-y,-z
x,y,-z
-x,y,z
x,-y,z
1/2+x,1/2+y,z
1/2-x,1/2-y,z
1/2+x,1/2-y,-z
1/2-x,1/2+y,-z
1/2-x,1/2-y,-z
1/2+x,1/2+y,-z
1/2-x,1/2+y,z
1/2+x,1/2-y,z
loop_
_atom_site_type_symbol
_atom_site_label
_atom_site_fract_x
_atom_site_fract_y
_atom_site_fract_z
Si Si1 0.343157 0.679919 0.164086
Si Si2 0.662829 0.822219 0.616606
Si Si3 0.500000 0.324621 0.436503
Si Si4 0.344350 0.819579 0.941928
Si Si5 0.401575 0.675528 0.718674
O O1 0.337806 0.500000 0.157645
O O2 0.250000 0.750000 0.168726
O O3 0.383835 0.750144 0.111096
O O4 0.388364 0.712387 0.219589
O O5 0.750000 0.750000 0.597966
O O6 0.583250 0.753000 0.586288
O O7 0.649525 0.777997 0.678324
O O8 0.664905 0.000000 0.610239
O O9 0.500000 0.500000 0.420410
O O10 0.500000 0.315640 0.500000
O O11 0.250000 0.750000 0.943170
O O12 0.339027 0.000000 0.936824
O O13 0.382565 0.785559 0.000000
O O14 0.500000 0.689473 0.705947
O O15 0.376917 0.500000 0.711041
#
# Coordination Sequence:
#
# PCOD9485268 Si02
#       5
#    16  16   8  16  16
#     4  10  19  30  48  75 104 140 183 234 295 359
#     4  12  25  42  68 100 133 174 219 264 317 376
#     4  11  25  47  73 101 137 177 216 265 318 367
#     4   9  16  26  42  65  95 132 174 227 290 354
#     4  10  21  38  59  83 118 158 199 252 311 370
#
# _framework density 20.217644
#
# number of rings (size 3 to 8) (size 9 to 14) (size 15 to 20)
#    0.000    1.667    1.111    5.667    0.000    6.222 
#    0.000    0.000    0.000    0.667    0.000    4.667 
#    0.000    0.000    0.000    0.000    0.000    0.000 
#
# Total GULP energy -201125.586425 kJ/mol
# GULP energy per Si atom -5586.821845 kJ/mol
# Density = 2.017163 g / cm^3
# Si number density = 20.217644 Si / 1000 Ang^3
#
#
#
# Elastic Constant Matrix: (Units=GPa)
#
#
# Indices 1 2 3 4 5 6 
#
# 1 101.7948 64.0373 44.9715 0.0000 0.0000 0.0000
# 2 64.0373 142.6012 62.6400 0.0000 0.0000 0.0000
# 3 44.9715 62.6400 105.5901 0.0000 0.0000 0.0000
# 4 0.0000 0.0000 0.0000 33.5262 0.0000 0.0000
# 5 0.0000 0.0000 0.0000 0.0000 17.1341 0.0000
# 6 0.0000 0.0000 0.0000 0.0000 0.0000 21.1796
#
#
#
# Elastic Compliance Matrix: (Units=1/GPa)
#
#
# Indices 1 2 3 4 5 6 
#
# 1 0.014408 -0.005105 -0.003108 0.000000 0.000000 0.000000
# 2 -0.005105 0.011293 -0.004525 0.000000 0.000000 0.000000
# 3 -0.003108 -0.004525 0.013479 0.000000 0.000000 0.000000
# 4 0.000000 0.000000 0.000000 0.029827 0.000000 0.000000
# 5 0.000000 0.000000 0.000000 0.000000 0.058363 0.000000
# 6 0.000000 0.000000 0.000000 0.000000 0.000000 0.047215
#
#
# Mechanical properties :
#
#
# Convention : Reuss Voigt Hill
#
# Bulk Modulus (GPa) = 72.97388 77.03152 75.00270
# Shear Modulus (GPa) = 24.43441 26.25714 25.34578
#
# Velocity S-wave (km/s) = 3.48022 3.60769 3.54453
# Velocity P-wave (km/s) = 7.23338 7.45237 7.34369
#
# Compressibility (1/GPa) = 0.01370353
#
# Stress axis : x y z
#
# Youngs Moduli (GPa) = 69.40476 88.55258 74.19077
#
# Poissons Ratio (x) = 0.45206 0.23059
# Poissons Ratio (y) = 0.35431 0.33572
# Poissons Ratio (z) = 0.21572 0.40070
#
# Static dielectric constant tensor:
#      x y z
#    x 1.706630 0.000000 0.000000 
#    y 0.000000 1.674750 0.000000 
#    z 0.000000 0.000000 1.763370 
# 
# From -- ./inp_files/74599.got.cif
#   From: 2010.05.17/outbox.cif.g08.bks.cpg/sg65_38_cif.got.tgz:74599.got - 2010.06.03 17:01:31.
