data_PCOD9485086
_publ_section_title
;
Structure prediction by ZEFSAII (Michael W. Deem and Ramdas Pophale) SiO2 
 PCOD9485086
Probable space group: C M M M
;
_chemical_formula_sum "Si O2"
_cell_formula_units_Z 96
_cell_length_a 23.021784
_cell_length_b 28.931090
_cell_length_c 7.683862
_cell_angle_alpha 90.000000
_cell_angle_beta 90.000000
_cell_angle_gamma 90.000000
_cell_volume 5117.800208
_symmetry_space_group_name_H-M "C M M M"
_symmetry_group_IT_number 65
_symmetry_cell_setting 'orthorhombic'
loop_
_space_group_symop_operation_xyz
x,y,z
-x,-y,z
x,-y,-z
-x,y,-z
-x,-y,-z
x,y,-z
-x,y,z
x,-y,z
1/2+x,1/2+y,z
1/2-x,1/2-y,z
1/2+x,1/2-y,-z
1/2-x,1/2+y,-z
1/2-x,1/2-y,-z
1/2+x,1/2+y,-z
1/2-x,1/2+y,z
1/2+x,1/2-y,z
loop_
_atom_site_type_symbol
_atom_site_label
_atom_site_fract_x
_atom_site_fract_y
_atom_site_fract_z
Si Si1 0.000000 0.765951 0.287141
Si Si2 0.234393 0.948293 0.207749
Si Si3 0.619347 0.218130 0.713198
Si Si4 0.306718 0.698236 0.700721
Si Si5 0.373578 0.612134 0.794380
Si Si6 0.500000 0.373090 0.707389
Si Si7 0.302132 0.139747 0.709973
O O1 0.057505 0.738195 0.230927
O O2 0.000000 0.819506 0.227654
O O3 0.000000 0.767003 0.500000
O O4 0.174417 0.924358 0.271920
O O5 0.286665 0.912436 0.240497
O O6 0.242624 0.000000 0.277431
O O7 0.228463 0.951720 0.000000
O O8 0.619037 0.219616 0.500000
O O9 0.668834 0.254293 0.774275
O O10 0.639800 0.166813 0.764620
O O11 0.291811 0.707521 0.500000
O O12 0.358820 0.661190 0.707161
O O13 0.251962 0.671031 0.777124
O O14 0.440860 0.602077 0.764442
O O15 0.364183 0.617947 0.000000
O O16 0.500000 0.371145 0.500000
O O17 0.300517 0.140514 0.500000
#
# Coordination Sequence:
#
# PCOD9485086 Si02
#       7
#     8  16  16  16  16   8  16
#     4   9  16  25  43  66  91 128 164 185 205 257
#     4   9  19  36  53  67  88 119 152 189 241 297
#     4   9  15  25  41  66  96 125 157 185 218 267
#     4   9  15  26  43  64  92 125 155 183 221 275
#     4  10  19  30  46  68  91 118 156 200 234 266
#     4  11  19  31  48  66  91 129 167 190 221 269
#     4   9  17  27  45  71  94 116 148 194 235 269
#
# _framework density 18.758058999999999
#
# number of rings (size 3 to 8) (size 9 to 14) (size 15 to 20)
#    0.000    2.667    1.667    1.250    0.000    3.000 
#    0.000    1.250    0.000    6.500    0.000    0.583 
#    0.000    4.667    0.000    0.000    0.000    0.000 
#
# Total GULP energy -267524.509296 kJ/mol
# GULP energy per Si atom -5573.427277 kJ/mol
# Density = 1.871537 g / cm^3
# Si number density = 18.758059 Si / 1000 Ang^3
#
#
#
# Elastic Constant Matrix: (Units=GPa)
#
#
# Indices 1 2 3 4 5 6 
#
# 1 40.0037 39.0561 2.4906 0.0000 0.0000 0.0000
# 2 39.0561 136.5372 7.8321 0.0000 0.0000 0.0000
# 3 2.4906 7.8321 38.6038 0.0000 0.0000 0.0000
# 4 0.0000 0.0000 0.0000 17.2676 0.0000 0.0000
# 5 0.0000 0.0000 0.0000 0.0000 8.4387 0.0000
# 6 0.0000 0.0000 0.0000 0.0000 0.0000 14.8771
#
#
#
# Elastic Compliance Matrix: (Units=1/GPa)
#
#
# Indices 1 2 3 4 5 6 
#
# 1 0.034686 -0.009909 -0.000227 0.000000 0.000000 0.000000
# 2 -0.009909 0.010241 -0.001438 0.000000 0.000000 0.000000
# 3 -0.000227 -0.001438 0.026211 0.000000 0.000000 0.000000
# 4 0.000000 0.000000 0.000000 0.057912 0.000000 0.000000
# 5 0.000000 0.000000 0.000000 0.000000 0.118501 0.000000
# 6 0.000000 0.000000 0.000000 0.000000 0.000000 0.067217
#
#
# Mechanical properties :
#
#
# Convention : Reuss Voigt Hill
#
# Bulk Modulus (GPa) = 20.83850 34.87804 27.85827
# Shear Modulus (GPa) = 14.12775 19.16776 16.64775
#
# Velocity S-wave (km/s) = 2.74735 3.20009 2.98232
# Velocity P-wave (km/s) = 4.60403 5.68226 5.17133
#
# Compressibility (1/GPa) = 0.04798811
#
# Stress axis : x y z
#
# Youngs Moduli (GPa) = 28.83022 97.64775 38.15239
#
# Poissons Ratio (x) = 0.96757 0.00868
# Poissons Ratio (y) = 0.28567 0.05488
# Poissons Ratio (z) = 0.00656 0.14046
#
# Static dielectric constant tensor:
#      x y z
#    x 1.674750 0.000000 0.000000 
#    y 0.000000 1.658910 0.000000 
#    z 0.000000 0.000000 1.703910 
# 
# From -- ./inp_files/14644.got.cif
#   From: 2010.05.17/outbox.cif.g08.bks.cpg/sg65_8_cif.got.tgz:14644.got - 2010.06.03 17:01:31.
