data_PCOD9485875
_publ_section_title
;
Structure prediction by ZEFSAII (Michael W. Deem and Ramdas Pophale) SiO2 
 PCOD9485875
Probable space group: C M M M
;
_chemical_formula_sum "Si O2"
_cell_formula_units_Z 88
_cell_length_a 8.597801
_cell_length_b 28.033881
_cell_length_c 21.744720
_cell_angle_alpha 90.000000
_cell_angle_beta 90.000000
_cell_angle_gamma 90.000000
_cell_volume 5241.123993
_symmetry_space_group_name_H-M "C M M M"
_symmetry_group_IT_number 65
_symmetry_cell_setting 'orthorhombic'
loop_
_space_group_symop_operation_xyz
x,y,z
-x,-y,z
x,-y,-z
-x,y,-z
-x,-y,-z
x,y,-z
-x,y,z
x,-y,z
1/2+x,1/2+y,z
1/2-x,1/2-y,z
1/2+x,1/2-y,-z
1/2-x,1/2+y,-z
1/2-x,1/2-y,-z
1/2+x,1/2+y,-z
1/2-x,1/2+y,z
1/2+x,1/2-y,z
loop_
_atom_site_type_symbol
_atom_site_label
_atom_site_fract_x
_atom_site_fract_y
_atom_site_fract_z
Si Si1 0.688787 0.052995 0.747951
Si Si2 0.686331 0.696328 0.069237
Si Si3 0.313272 0.444254 0.500000
Si Si4 0.186920 0.350749 0.809656
Si Si5 0.813056 0.604982 0.622531
Si Si6 0.685750 0.697577 0.687230
O O1 0.500000 0.051580 0.749716
O O2 0.736776 0.095197 0.793620
O O3 0.731094 0.070424 0.679503
O O4 0.747444 0.000000 0.761077
O O5 0.500000 0.697226 0.074264
O O6 0.750000 0.750000 0.075793
O O7 0.756343 0.665547 0.124042
O O8 0.727676 0.679870 0.000000
O O9 0.263103 0.500000 0.500000
O O10 0.500000 0.443298 0.500000
O O11 0.251190 0.417123 0.560101
O O12 0.255241 0.317906 0.755165
O O13 0.000000 0.347801 0.806011
O O14 0.748060 0.656942 0.640831
O O15 0.000000 0.607618 0.620126
O O16 0.500000 0.697941 0.686648
O O17 0.750000 0.750000 0.672720
#
# Coordination Sequence:
#
# PCOD9485875 Si02
#       6
#    16  16   8  16  16  16
#     4   8  15  29  50  75 100 126 161 206 250 291
#     4  10  20  33  49  70  98 131 166 205 251 302
#     4  11  23  37  54  79 110 141 173 211 257 305
#     4  10  19  31  50  76 103 132 168 208 250 298
#     4  10  20  35  55  79 104 134 173 213 257 305
#     4  11  21  35  54  76 105 137 170 209 253 302
#
# _framework density 16.790292000000001
#
# number of rings (size 3 to 8) (size 9 to 14) (size 15 to 20)
#    0.000    2.091    0.000    5.727    0.000    2.545 
#    0.000    0.455    0.000   11.455    0.000    3.818 
#    0.000    0.000    0.000    0.000    0.000    0.000 
#
# Total GULP energy -245567.747480 kJ/mol
# GULP energy per Si atom -5581.085170 kJ/mol
# Density = 1.675208 g / cm^3
# Si number density = 16.790292 Si / 1000 Ang^3
#
#
#
# Elastic Constant Matrix: (Units=GPa)
#
#
# Indices 1 2 3 4 5 6 
#
# 1 83.2394 46.5717 49.9592 0.0000 0.0000 0.0000
# 2 46.5717 147.8012 88.8687 0.0000 0.0000 0.0000
# 3 49.9592 88.8687 151.1957 0.0000 0.0000 0.0000
# 4 0.0000 0.0000 0.0000 22.2480 0.0000 0.0000
# 5 0.0000 0.0000 0.0000 0.0000 27.2494 0.0000
# 6 0.0000 0.0000 0.0000 0.0000 0.0000 16.9709
#
#
#
# Elastic Compliance Matrix: (Units=1/GPa)
#
#
# Indices 1 2 3 4 5 6 
#
# 1 0.015715 -0.002830 -0.003530 0.000000 0.000000 0.000000
# 2 -0.002830 0.010973 -0.005515 0.000000 0.000000 0.000000
# 3 -0.003530 -0.005515 0.011022 0.000000 0.000000 0.000000
# 4 0.000000 0.000000 0.000000 0.044948 0.000000 0.000000
# 5 0.000000 0.000000 0.000000 0.000000 0.036698 0.000000
# 6 0.000000 0.000000 0.000000 0.000000 0.000000 0.058924
#
#
# Mechanical properties :
#
#
# Convention : Reuss Voigt Hill
#
# Bulk Modulus (GPa) = 71.62221 83.67061 77.64641
# Shear Modulus (GPa) = 24.19170 26.41610 25.30390
#
# Velocity S-wave (km/s) = 3.79992 3.97078 3.88629
# Velocity P-wave (km/s) = 7.87414 8.42400 8.15371
#
# Compressibility (1/GPa) = 0.01396215
#
# Stress axis : x y z
#
# Youngs Moduli (GPa) = 63.63335 91.12966 90.72999
#
# Poissons Ratio (x) = 0.25785 0.32024
# Poissons Ratio (y) = 0.18005 0.50037
# Poissons Ratio (z) = 0.22460 0.50257
#
# Static dielectric constant tensor:
#      x y z
#    x 1.568070 0.000000 0.000000 
#    y 0.000000 1.563270 0.000000 
#    z 0.000000 0.000000 1.544300 
# 
# From -- ./inp_files/60681.got.cif
#   From: 2010.05.17/outbox.cif.g08.bks.cpg/sg65_31_cif.got.tgz:60681.got - 2010.06.03 17:01:31.
