data_PCOD9485281
_publ_section_title
;
Structure prediction by ZEFSAII (Michael W. Deem and Ramdas Pophale) SiO2 
 PCOD9485281
Probable space group: C M M M
;
_chemical_formula_sum "Si O2"
_cell_formula_units_Z 96
_cell_length_a 24.892002
_cell_length_b 24.472253
_cell_length_c 7.629981
_cell_angle_alpha 90.000000
_cell_angle_beta 90.000000
_cell_angle_gamma 90.000000
_cell_volume 4647.904944
_symmetry_space_group_name_H-M "C M M M"
_symmetry_group_IT_number 65
_symmetry_cell_setting 'orthorhombic'
loop_
_space_group_symop_operation_xyz
x,y,z
-x,-y,z
x,-y,-z
-x,y,-z
-x,-y,-z
x,y,-z
-x,y,z
x,-y,z
1/2+x,1/2+y,z
1/2-x,1/2-y,z
1/2+x,1/2-y,-z
1/2-x,1/2+y,-z
1/2-x,1/2-y,-z
1/2+x,1/2+y,-z
1/2-x,1/2+y,z
1/2+x,1/2-y,z
loop_
_atom_site_type_symbol
_atom_site_label
_atom_site_fract_x
_atom_site_fract_y
_atom_site_fract_z
Si Si1 0.660813 0.231615 0.712903
Si Si2 0.871472 0.561983 0.788151
Si Si3 0.651747 0.354704 0.296227
Si Si4 0.559286 0.838024 0.291717
Si Si5 0.561403 0.437363 0.285789
Si Si6 0.269279 0.130805 0.206312
O O1 0.662171 0.232398 0.500000
O O2 0.658165 0.293595 0.778821
O O3 0.607064 0.200404 0.775585
O O4 0.710376 0.192972 0.765399
O O5 0.875173 0.500000 0.726132
O O6 0.921051 0.600192 0.736728
O O7 0.817241 0.592296 0.724950
O O8 0.869352 0.561523 0.000000
O O9 0.637232 0.347042 0.500000
O O10 0.605918 0.394387 0.222159
O O11 0.711259 0.379654 0.286727
O O12 0.557130 0.828375 0.500000
O O13 0.500000 0.828280 0.218808
O O14 0.562739 0.437538 0.500000
O O15 0.500000 0.423507 0.235297
O O16 0.572448 0.500000 0.231048
O O17 0.264225 0.121446 0.000000
#
# Coordination Sequence:
#
# PCOD9485281 Si02
#       6
#    16  16  16  16  16  16
#     4   9  18  32  48  68  97 128 156 191 234 278
#     4   9  19  35  51  67  91 125 162 196 232 278
#     4  10  19  30  49  75  97 122 158 194 230 277
#     4   9  18  32  49  70  96 124 155 194 238 279
#     4   8  15  29  48  71  99 126 153 190 233 275
#     4  10  20  33  49  69  95 126 158 194 236 279
#
# _framework density 20.654467
#
# number of rings (size 3 to 8) (size 9 to 14) (size 15 to 20)
#    0.000    2.833    0.000    1.500    0.000    5.667 
#    0.000    5.000    0.000    0.500    0.000    3.500 
#    0.000    0.000    0.000    0.000    0.000    0.000 
#
# Total GULP energy -267769.278168 kJ/mol
# GULP energy per Si atom -5578.526628 kJ/mol
# Density = 2.060746 g / cm^3
# Si number density = 20.654467 Si / 1000 Ang^3
#
#
#
# Elastic Constant Matrix: (Units=GPa)
#
#
# Indices 1 2 3 4 5 6 
#
# 1 129.1680 37.2325 -6.5042 0.0000 0.0000 0.0000
# 2 37.2325 40.3011 -0.2738 0.0000 0.0000 0.0000
# 3 -6.5042 -0.2738 37.6660 0.0000 0.0000 0.0000
# 4 0.0000 0.0000 0.0000 101.5348 0.0000 0.0000
# 5 0.0000 0.0000 0.0000 0.0000 -13.4495 0.0000
# 6 0.0000 0.0000 0.0000 0.0000 0.0000 22.7869
#
#
#
# Elastic Compliance Matrix: (Units=1/GPa)
#
#
# Indices 1 2 3 4 5 6 
#
# 1 0.010669 -0.009844 0.001771 0.000000 0.000000 0.000000
# 2 -0.009844 0.033898 -0.001454 0.000000 0.000000 0.000000
# 3 0.001771 -0.001454 0.026844 0.000000 0.000000 0.000000
# 4 0.000000 0.000000 0.000000 0.009849 0.000000 0.000000
# 5 0.000000 0.000000 0.000000 0.000000 -0.074352 0.000000
# 6 0.000000 0.000000 0.000000 0.000000 0.000000 0.043885
#
#
# Mechanical properties :
#
#
# Convention : Reuss Voigt Hill
#
# Bulk Modulus (GPa) = 19.09968 29.78267 24.44118
# Shear Modulus (GPa) = 57.27453 33.95315 45.61384
#
# Velocity S-wave (km/s) = 5.27163 4.05886 4.70449
# Velocity P-wave (km/s) = 6.80593 6.03461 6.43185
#
# Compressibility (1/GPa) = 0.05235689
#
# Stress axis : x y z
#
# Youngs Moduli (GPa) = 93.73289 29.50022 37.25176
#
# Poissons Ratio (x) = 0.29041 -0.06596
# Poissons Ratio (y) = 0.92273 0.05415
# Poissons Ratio (z) = -0.16598 0.04288
#
# Static dielectric constant tensor:
#      x y z
#    x 1.722150 0.000000 0.000000 
#    y 0.000000 1.734110 0.000000 
#    z 0.000000 0.000000 1.772260 
# 
# From -- ./inp_files/14281.got.cif
#   From: 2010.05.17/outbox.cif.g08.bks.cpg/sg65_8_cif.got.tgz:14281.got - 2010.06.03 17:01:31.
