data_PCOD9485580
_publ_section_title
;
Structure prediction by ZEFSAII (Michael W. Deem and Ramdas Pophale) SiO2 
 PCOD9485580
Probable space group: C M M M
;
_chemical_formula_sum "Si O2"
_cell_formula_units_Z 104
_cell_length_a 7.564627
_cell_length_b 29.630717
_cell_length_c 23.727353
_cell_angle_alpha 90.000000
_cell_angle_beta 90.000000
_cell_angle_gamma 90.000000
_cell_volume 5318.375175
_symmetry_space_group_name_H-M "C M M M"
_symmetry_group_IT_number 65
_symmetry_cell_setting 'orthorhombic'
loop_
_space_group_symop_operation_xyz
x,y,z
-x,-y,z
x,-y,-z
-x,y,-z
-x,-y,-z
x,y,-z
-x,y,z
x,-y,z
1/2+x,1/2+y,z
1/2-x,1/2-y,z
1/2+x,1/2-y,-z
1/2-x,1/2+y,-z
1/2-x,1/2-y,-z
1/2+x,1/2+y,-z
1/2-x,1/2+y,z
1/2+x,1/2-y,z
loop_
_atom_site_type_symbol
_atom_site_label
_atom_site_fract_x
_atom_site_fract_y
_atom_site_fract_z
Si Si1 0.206139 0.139038 0.665292
Si Si2 0.789582 0.696979 0.226426
Si Si3 0.788219 0.302932 0.000000
Si Si4 0.214327 0.949641 0.275621
Si Si5 0.782914 0.353098 0.112388
Si Si6 0.787372 0.801749 0.436155
Si Si7 0.208843 0.450236 0.143556
O O1 0.214834 0.172939 0.718231
O O2 0.281748 0.091340 0.686276
O O3 0.282947 0.163763 0.610565
O O4 0.000000 0.130537 0.652732
O O5 0.750000 0.750000 0.224954
O O6 0.726388 0.672529 0.169338
O O7 0.000000 0.691073 0.229136
O O8 0.750000 0.250000 0.000000
O O9 0.723070 0.326829 0.943130
O O10 0.000000 0.308143 0.000000
O O11 0.270942 0.943324 0.210789
O O12 0.000000 0.948421 0.275484
O O13 0.269545 0.000000 0.293310
O O14 0.721999 0.405065 0.114312
O O15 0.000000 0.353168 0.112841
O O16 0.720818 0.808681 0.500000
O O17 0.750000 0.750000 0.419684
O O18 0.000000 0.806003 0.437727
O O19 0.283849 0.500000 0.130083
O O20 0.000000 0.452073 0.131233
#
# Coordination Sequence:
#
# PCOD9485580 Si02
#       7
#    16  16   8  16  16  16  16
#     4  10  19  31  48  71  96 124 157 193 237 282
#     4  11  21  32  46  68  97 124 154 194 241 283
#     4  10  20  36  53  67  91 125 164 198 231 278
#     4   9  17  29  46  70  98 125 154 190 233 281
#     4   9  18  32  49  70  94 123 155 195 236 276
#     4   9  18  32  48  66  91 124 160 195 231 275
#     4   9  16  29  49  71  95 122 153 189 234 286
#
# _framework density 19.554845
#
# number of rings (size 3 to 8) (size 9 to 14) (size 15 to 20)
#    0.000    2.462    1.538    1.385    0.000    1.846 
#    0.000    1.923    0.000    2.769    0.000    3.231 
#    0.000    3.077    0.000    9.077    0.000    9.538 
#
# Total GULP energy -290181.921533 kJ/mol
# GULP energy per Si atom -5580.421568 kJ/mol
# Density = 1.951034 g / cm^3
# Si number density = 19.554845 Si / 1000 Ang^3
#
#
#
# Elastic Constant Matrix: (Units=GPa)
#
#
# Indices 1 2 3 4 5 6 
#
# 1 46.5485 -5.5182 -5.5839 0.0000 0.0000 0.0000
# 2 -5.5182 197.3281 84.0832 0.0000 0.0000 0.0000
# 3 -5.5839 84.0832 98.1841 0.0000 0.0000 0.0000
# 4 0.0000 0.0000 0.0000 32.2152 0.0000 0.0000
# 5 0.0000 0.0000 0.0000 0.0000 12.1203 0.0000
# 6 0.0000 0.0000 0.0000 0.0000 0.0000 -10.6364
#
#
#
# Elastic Compliance Matrix: (Units=1/GPa)
#
#
# Indices 1 2 3 4 5 6 
#
# 1 0.021633 0.000127 0.001121 0.000000 0.000000 0.000000
# 2 0.000127 0.007980 -0.006827 0.000000 0.000000 0.000000
# 3 0.001121 -0.006827 0.016095 0.000000 0.000000 0.000000
# 4 0.000000 0.000000 0.000000 0.031041 0.000000 0.000000
# 5 0.000000 0.000000 0.000000 0.000000 0.082506 0.000000
# 6 0.000000 0.000000 0.000000 0.000000 0.000000 -0.094016
#
#
# Mechanical properties :
#
#
# Convention : Reuss Voigt Hill
#
# Bulk Modulus (GPa) = 28.94256 54.22478 41.58367
# Shear Modulus (GPa) = 56.87450 24.67845 40.77648
#
# Velocity S-wave (km/s) = 5.39887 3.55634 4.57139
# Velocity P-wave (km/s) = 7.32779 6.68230 7.01248
#
# Compressibility (1/GPa) = 0.03455119
#
# Stress axis : x y z
#
# Youngs Moduli (GPa) = 46.22663 125.30902 62.13035
#
# Poissons Ratio (x) = -0.01593 -0.06968
# Poissons Ratio (y) = -0.00587 0.42416
# Poissons Ratio (z) = -0.05184 0.85548
#
# Static dielectric constant tensor:
#      x y z
#    x 1.739680 0.000000 0.000000 
#    y 0.000000 1.704540 0.000000 
#    z 0.000000 0.000000 1.660410 
# 
# From -- ./inp_files/68525.got.cif
#   From: 2010.05.17/outbox.cif.g08.bks.cpg/sg65_35_cif.got.tgz:68525.got - 2010.06.03 17:01:31.
