data_PCOD9485341
_publ_section_title
;
Structure prediction by ZEFSAII (Michael W. Deem and Ramdas Pophale) SiO2 
 PCOD9485341
Probable space group: C M M M
;
_chemical_formula_sum "Si O2"
_cell_formula_units_Z 104
_cell_length_a 8.173374
_cell_length_b 28.228058
_cell_length_c 28.779610
_cell_angle_alpha 90.000000
_cell_angle_beta 90.000000
_cell_angle_gamma 90.000000
_cell_volume 6639.987740
_symmetry_space_group_name_H-M "C M M M"
_symmetry_group_IT_number 65
_symmetry_cell_setting 'orthorhombic'
loop_
_space_group_symop_operation_xyz
x,y,z
-x,-y,z
x,-y,-z
-x,y,-z
-x,-y,-z
x,y,-z
-x,y,z
x,-y,z
1/2+x,1/2+y,z
1/2-x,1/2-y,z
1/2+x,1/2-y,-z
1/2-x,1/2+y,-z
1/2-x,1/2-y,-z
1/2+x,1/2+y,-z
1/2-x,1/2+y,z
1/2+x,1/2-y,z
loop_
_atom_site_type_symbol
_atom_site_label
_atom_site_fract_x
_atom_site_fract_y
_atom_site_fract_z
Si Si1 0.696075 0.052211 0.809445
Si Si2 0.691933 0.442906 0.382976
Si Si3 0.196953 0.899144 0.282987
Si Si4 0.304773 0.147942 0.854931
Si Si5 0.804414 0.195892 0.948103
Si Si6 0.305732 0.697426 0.237377
Si Si7 0.500000 0.942569 0.446867
O O1 0.500000 0.050816 0.815175
O O2 0.732738 0.066248 0.756324
O O3 0.759383 0.095911 0.840389
O O4 0.762010 0.000000 0.820192
O O5 0.500000 0.432399 0.395178
O O6 0.700532 0.500000 0.376350
O O7 0.733282 0.417082 0.334527
O O8 0.832153 0.429384 0.420046
O O9 0.255483 0.846071 0.269630
O O10 0.000000 0.900076 0.278343
O O11 0.500000 0.147318 0.851775
O O12 0.256412 0.163901 0.906085
O O13 0.244013 0.184072 0.815279
O O14 0.750000 0.250000 0.939918
O O15 0.000000 0.194733 0.948218
O O16 0.745497 0.182296 0.000000
O O17 0.500000 0.696906 0.239806
O O18 0.250000 0.750000 0.249896
O O19 0.500000 0.925502 0.500000
O O20 0.500000 0.000000 0.447973
#
# Coordination Sequence:
#
# PCOD9485341 Si02
#       7
#    16  16  16  16  16  16   8
#     4   9  18  30  45  66  90 117 150 185 218 257
#     4   9  17  29  45  66  93 125 158 194 234 275
#     4   9  18  30  44  64  90 121 153 188 224 267
#     4  10  19  31  47  66  89 117 148 178 219 266
#     4  10  20  33  49  68  88 110 140 180 223 268
#     4  10  19  31  45  63  91 123 151 182 220 267
#     4   9  18  30  44  66  94 126 162 194 231 279
#
# _framework density 15.66268
#
# number of rings (size 3 to 8) (size 9 to 14) (size 15 to 20)
#    0.000    2.538    0.000    2.308    1.077    3.385 
#    0.000    1.538    0.000    0.462    0.000    3.231 
#    0.000    0.615    0.308    0.000    0.000    0.000 
#
# Total GULP energy -289751.005652 kJ/mol
# GULP energy per Si atom -5572.134724 kJ/mol
# Density = 1.562703 g / cm^3
# Si number density = 15.662680 Si / 1000 Ang^3
#
#
#
# Elastic Constant Matrix: (Units=GPa)
#
#
# Indices 1 2 3 4 5 6 
#
# 1 40.6333 21.3136 34.8740 0.0000 0.0000 0.0000
# 2 21.3136 76.6086 43.7653 0.0000 0.0000 0.0000
# 3 34.8740 43.7653 107.8558 0.0000 0.0000 0.0000
# 4 0.0000 0.0000 0.0000 16.5776 0.0000 0.0000
# 5 0.0000 0.0000 0.0000 0.0000 24.5516 0.0000
# 6 0.0000 0.0000 0.0000 0.0000 0.0000 6.6776
#
#
#
# Elastic Compliance Matrix: (Units=1/GPa)
#
#
# Indices 1 2 3 4 5 6 
#
# 1 0.035106 -0.004273 -0.009617 0.000000 0.000000 0.000000
# 2 -0.004273 0.017512 -0.005725 0.000000 0.000000 0.000000
# 3 -0.009617 -0.005725 0.014704 0.000000 0.000000 0.000000
# 4 0.000000 0.000000 0.000000 0.060322 0.000000 0.000000
# 5 0.000000 0.000000 0.000000 0.000000 0.040731 0.000000
# 6 0.000000 0.000000 0.000000 0.000000 0.000000 0.149755
#
#
# Mechanical properties :
#
#
# Convention : Reuss Voigt Hill
#
# Bulk Modulus (GPa) = 35.59584 47.22263 41.40924
# Shear Modulus (GPa) = 13.63424 17.90433 15.76928
#
# Velocity S-wave (km/s) = 2.95361 3.38467 3.17646
# Velocity P-wave (km/s) = 5.86580 6.74462 6.32050
#
# Compressibility (1/GPa) = 0.02809317
#
# Stress axis : x y z
#
# Youngs Moduli (GPa) = 28.48538 57.10218 68.00779
#
# Poissons Ratio (x) = 0.24398 0.65405
# Poissons Ratio (y) = 0.12171 0.38932
# Poissons Ratio (z) = 0.27395 0.32689
#
# Static dielectric constant tensor:
#      x y z
#    x 1.544610 0.000000 0.000000 
#    y 0.000000 1.538780 0.000000 
#    z 0.000000 0.000000 1.510000 
# 
# From -- ./inp_files/68191.got.cif
#   From: 2010.05.17/outbox.cif.g08.bks.cpg/sg65_35_cif.got.tgz:68191.got - 2010.06.03 17:01:31.
