data_PCOD9485177
_publ_section_title
;
Structure prediction by ZEFSAII (Michael W. Deem and Ramdas Pophale) SiO2 
 PCOD9485177
Probable space group: C M M M
;
_chemical_formula_sum "Si O2"
_cell_formula_units_Z 112
_cell_length_a 16.318313
_cell_length_b 28.062557
_cell_length_c 14.979498
_cell_angle_alpha 90.000000
_cell_angle_beta 90.000000
_cell_angle_gamma 90.000000
_cell_volume 6859.615276
_symmetry_space_group_name_H-M "C M M M"
_symmetry_group_IT_number 65
_symmetry_cell_setting 'orthorhombic'
loop_
_space_group_symop_operation_xyz
x,y,z
-x,-y,z
x,-y,-z
-x,y,-z
-x,-y,-z
x,y,-z
-x,y,z
x,-y,z
1/2+x,1/2+y,z
1/2-x,1/2-y,z
1/2+x,1/2-y,-z
1/2-x,1/2+y,-z
1/2-x,1/2-y,-z
1/2+x,1/2+y,-z
1/2-x,1/2+y,z
1/2+x,1/2-y,z
loop_
_atom_site_type_symbol
_atom_site_label
_atom_site_fract_x
_atom_site_fract_y
_atom_site_fract_z
Si Si1 0.765926 0.556912 0.899934
Si Si2 0.408656 0.644144 0.710092
Si Si3 0.232030 0.805429 0.395763
Si Si4 0.664771 0.103750 0.602129
Si Si5 0.156546 0.944284 0.604696
Si Si6 0.591303 0.942809 0.767197
Si Si7 0.408087 0.397300 0.103214
O O1 0.771666 0.500000 0.900240
O O2 0.833705 0.573945 0.829797
O O3 0.671613 0.570141 0.881341
O O4 0.785182 0.574334 0.000000
O O5 0.500000 0.659349 0.685710
O O6 0.340924 0.677406 0.666850
O O7 0.392777 0.591410 0.668396
O O8 0.402616 0.640730 0.817158
O O9 0.208997 0.813334 0.500000
O O10 0.250000 0.750000 0.383527
O O11 0.307347 0.841797 0.379883
O O12 0.636748 0.099922 0.500000
O O13 0.748706 0.072610 0.610937
O O14 0.602431 0.083360 0.673403
O O15 0.132630 0.938356 0.500000
O O16 0.148724 0.000000 0.627879
O O17 0.500000 0.934112 0.804442
O O18 0.599145 0.000000 0.754834
O O19 0.500000 0.419324 0.112214
O O20 0.402926 0.380374 0.000000
#
# Coordination Sequence:
#
# PCOD9485177 Si02
#       7
#    16  16  16  16  16  16  16
#     4   9  17  29  45  64  89 124 162 199 238 277
#     4  10  19  30  47  70  96 127 159 193 235 283
#     4   9  18  33  52  72  94 121 154 194 239 286
#     4   9  17  30  47  65  88 120 156 192 231 277
#     4   9  17  28  43  65  94 128 162 194 230 277
#     4  10  20  31  44  65  93 126 164 203 238 273
#     4   9  18  31  47  70  97 123 154 192 236 287
#
# _framework density 16.327445999999998
#
# number of rings (size 3 to 8) (size 9 to 14) (size 15 to 20)
#    0.000    2.714    0.000    3.429    0.000    4.857 
#    0.000    6.429    0.000    3.000    0.000    0.000 
#    0.000    2.286    0.000    0.000    0.000    0.000 
#
# Total GULP energy -311826.214765 kJ/mol
# GULP energy per Si atom -5568.325264 kJ/mol
# Density = 1.629028 g / cm^3
# Si number density = 16.327446 Si / 1000 Ang^3
#
#
#
# Elastic Constant Matrix: (Units=GPa)
#
#
# Indices 1 2 3 4 5 6 
#
# 1 80.8746 23.0107 50.2431 0.0000 0.0000 0.0000
# 2 23.0107 49.1486 29.5393 0.0000 0.0000 0.0000
# 3 50.2431 29.5393 71.6010 0.0000 0.0000 0.0000
# 4 0.0000 0.0000 0.0000 12.7413 0.0000 0.0000
# 5 0.0000 0.0000 0.0000 0.0000 16.1041 0.0000
# 6 0.0000 0.0000 0.0000 0.0000 0.0000 11.3318
#
#
#
# Elastic Compliance Matrix: (Units=1/GPa)
#
#
# Indices 1 2 3 4 5 6 
#
# 1 0.021989 -0.001358 -0.014870 0.000000 0.000000 0.000000
# 2 -0.001358 0.027139 -0.010243 0.000000 0.000000 0.000000
# 3 -0.014870 -0.010243 0.028626 0.000000 0.000000 0.000000
# 4 0.000000 0.000000 0.000000 0.078485 0.000000 0.000000
# 5 0.000000 0.000000 0.000000 0.000000 0.062096 0.000000
# 6 0.000000 0.000000 0.000000 0.000000 0.000000 0.088247
#
#
# Mechanical properties :
#
#
# Convention : Reuss Voigt Hill
#
# Bulk Modulus (GPa) = 40.30270 45.24560 42.77415
# Shear Modulus (GPa) = 13.59455 14.62418 14.10937
#
# Velocity S-wave (km/s) = 2.88865 2.99604 2.94283
# Velocity P-wave (km/s) = 5.98860 6.30396 6.14830
#
# Compressibility (1/GPa) = 0.02481223
#
# Stress axis : x y z
#
# Youngs Moduli (GPa) = 45.47752 36.84778 34.93289
#
# Poissons Ratio (x) = 0.05004 0.51944
# Poissons Ratio (y) = 0.06176 0.35783
# Poissons Ratio (z) = 0.67623 0.37744
#
# Static dielectric constant tensor:
#      x y z
#    x 1.566780 0.000000 0.000000 
#    y 0.000000 1.520770 0.000000 
#    z 0.000000 0.000000 1.579470 
# 
# From -- ./inp_files/41381.got.cif
#   From: 2010.05.17/outbox.cif.g08.bks.cpg/sg65_21_cif.got.tgz:41381.got - 2010.06.03 17:01:31.
