data_PCOD9485975
_publ_section_title
;
Structure prediction by ZEFSAII (Michael W. Deem and Ramdas Pophale) SiO2 
 PCOD9485975
Probable space group: C M M M
;
_chemical_formula_sum "Si O2"
_cell_formula_units_Z 72
_cell_length_a 25.406012
_cell_length_b 13.997110
_cell_length_c 8.284057
_cell_angle_alpha 90.000000
_cell_angle_beta 90.000000
_cell_angle_gamma 90.000000
_cell_volume 2945.899678
_symmetry_space_group_name_H-M "C M M M"
_symmetry_group_IT_number 65
_symmetry_cell_setting 'orthorhombic'
loop_
_space_group_symop_operation_xyz
x,y,z
-x,-y,z
x,-y,-z
-x,y,-z
-x,-y,-z
x,y,-z
-x,y,z
x,-y,z
1/2+x,1/2+y,z
1/2-x,1/2-y,z
1/2+x,1/2-y,-z
1/2-x,1/2+y,-z
1/2-x,1/2-y,-z
1/2+x,1/2+y,-z
1/2-x,1/2+y,z
1/2+x,1/2-y,z
loop_
_atom_site_type_symbol
_atom_site_label
_atom_site_fract_x
_atom_site_fract_y
_atom_site_fract_z
Si Si1 0.244633 0.384946 0.321478
Si Si2 0.929258 0.858685 0.000000
Si Si3 0.907906 0.102805 0.675115
Si Si4 0.940168 0.362630 0.000000
Si Si5 0.303288 0.613820 0.000000
Si Si6 0.623158 0.174518 0.318151
O O1 0.265501 0.355712 0.500000
O O2 0.244572 0.500000 0.320076
O O3 0.184355 0.352131 0.306654
O O4 0.276622 0.351052 0.165090
O O5 0.943966 0.901273 0.830355
O O6 0.945301 0.750768 0.000000
O O7 0.865264 0.867346 0.000000
O O8 0.933428 0.102859 0.500000
O O9 0.882707 0.209270 0.687654
O O10 0.876227 0.000000 0.680940
O O11 0.907645 0.375972 0.168274
O O12 0.000000 0.400635 0.000000
O O13 0.296172 0.500000 0.000000
O O14 0.604861 0.146092 0.500000
#
# Coordination Sequence:
#
# PCOD9485975 Si02
#       6
#    16   8  16   8   8  16
#     4   9  18  33  54  81 112 145 180 218 264 322
#     4  10  20  34  52  75 103 138 181 224 268 319
#     4   9  17  30  49  71  96 130 172 217 265 316
#     4  10  21  37  57  79 104 140 185 229 277 327
#     4  10  19  31  51  78 109 146 181 216 265 324
#     4   9  18  34  56  80 106 139 178 222 273 326
#
# _framework density 24.440750000000001
#
# number of rings (size 3 to 8) (size 9 to 14) (size 15 to 20)
#    0.000    2.667    0.000    1.667    0.000    1.333 
#    0.000   11.111    0.000   40.333    0.000   34.222 
#    0.000    0.000    0.000    0.000    0.000    1.556 
#
# Total GULP energy -200724.613503 kJ/mol
# GULP energy per Si atom -5575.683708 kJ/mol
# Density = 2.438512 g / cm^3
# Si number density = 24.440750 Si / 1000 Ang^3
#
#
#
# Elastic Constant Matrix: (Units=GPa)
#
#
# Indices 1 2 3 4 5 6 
#
# 1 141.3716 15.9606 99.1595 0.0000 0.0000 0.0000
# 2 15.9606 97.1437 22.1147 0.0000 0.0000 0.0000
# 3 99.1595 22.1147 302.8868 0.0000 0.0000 0.0000
# 4 0.0000 0.0000 0.0000 6.3778 0.0000 0.0000
# 5 0.0000 0.0000 0.0000 0.0000 -228.5942 0.0000
# 6 0.0000 0.0000 0.0000 0.0000 0.0000 20.9960
#
#
#
# Elastic Compliance Matrix: (Units=1/GPa)
#
#
# Indices 1 2 3 4 5 6 
#
# 1 0.009250 -0.000844 -0.002967 0.000000 0.000000 0.000000
# 2 -0.000844 0.010545 -0.000493 0.000000 0.000000 0.000000
# 3 -0.002967 -0.000493 0.004309 0.000000 0.000000 0.000000
# 4 0.000000 0.000000 0.000000 0.156793 0.000000 0.000000
# 5 0.000000 0.000000 0.000000 0.000000 -0.004375 0.000000
# 6 0.000000 0.000000 0.000000 0.000000 0.000000 0.047628
#
#
# Mechanical properties :
#
#
# Convention : Reuss Voigt Hill
#
# Bulk Modulus (GPa) = 64.53805 90.65240 77.59523
# Shear Modulus (GPa) = 21.01516 -13.29958 3.85779
#
# Velocity S-wave (km/s) = 2.93549 -2.33525 1.25772
# Velocity P-wave (km/s) = 6.16057 5.46809 5.82463
#
# Compressibility (1/GPa) = 0.01549474
#
# Stress axis : x y z
#
# Youngs Moduli (GPa) = 108.11249 94.83078 232.08457
#
# Poissons Ratio (x) = 0.08007 0.68848
# Poissons Ratio (y) = 0.09129 0.11453
# Poissons Ratio (z) = 0.32072 0.04680
#
# Static dielectric constant tensor:
#      x y z
#    x 1.926570 0.000000 0.000000 
#    y 0.000000 1.937200 0.000000 
#    z 0.000000 0.000000 2.017350 
# 
# From -- ./inp_files/15811.got.cif
#   From: 2010.05.17/outbox.cif.g08.bks.cpg/sg65_8_cif.got.tgz:15811.got - 2010.06.03 17:01:31.
