data_PCOD9485664
_publ_section_title
;
Structure prediction by ZEFSAII (Michael W. Deem and Ramdas Pophale) SiO2 
 PCOD9485664
Probable space group: C M M M
;
_chemical_formula_sum "Si O2"
_cell_formula_units_Z 96
_cell_length_a 28.114470
_cell_length_b 8.914905
_cell_length_c 24.268179
_cell_angle_alpha 90.000000
_cell_angle_beta 90.000000
_cell_angle_gamma 90.000000
_cell_volume 6082.523703
_symmetry_space_group_name_H-M "C M M M"
_symmetry_group_IT_number 65
_symmetry_cell_setting 'orthorhombic'
loop_
_space_group_symop_operation_xyz
x,y,z
-x,-y,z
x,-y,-z
-x,y,-z
-x,-y,-z
x,y,-z
-x,y,z
x,-y,z
1/2+x,1/2+y,z
1/2-x,1/2-y,z
1/2+x,1/2-y,-z
1/2-x,1/2+y,-z
1/2-x,1/2-y,-z
1/2+x,1/2+y,-z
1/2-x,1/2+y,z
1/2+x,1/2-y,z
loop_
_atom_site_type_symbol
_atom_site_label
_atom_site_fract_x
_atom_site_fract_y
_atom_site_fract_z
Si Si1 0.104480 0.678716 0.833844
Si Si2 0.300598 0.820189 0.769370
Si Si3 0.553772 0.319940 0.729771
Si Si4 0.444835 0.319439 0.936600
Si Si5 0.647372 0.320180 0.664938
Si Si6 0.301883 0.178846 0.564099
O O1 0.099785 0.500000 0.835113
O O2 0.157982 0.714972 0.813593
O O3 0.070080 0.744819 0.786677
O O4 0.089458 0.746661 0.892036
O O5 0.250000 0.750000 0.784101
O O6 0.318440 0.749925 0.711689
O O7 0.297111 0.000000 0.763953
O O8 0.500000 0.276669 0.715185
O O9 0.555105 0.500000 0.737400
O O10 0.593765 0.282901 0.684476
O O11 0.500000 0.277631 0.925122
O O12 0.442039 0.500000 0.932704
O O13 0.434371 0.277692 0.000000
O O14 0.652833 0.500000 0.664405
O O15 0.661610 0.251671 0.606599
O O16 0.313747 0.208263 0.500000
O O17 0.250000 0.250000 0.574659
O O18 0.299471 0.000000 0.572152
#
# Coordination Sequence:
#
# PCOD9485664 Si02
#       6
#    16  16  16  16  16  16
#     4  10  20  31  46  71  98 122 151 191 235 274
#     4  10  20  33  48  68  95 124 155 190 229 275
#     4   9  18  32  49  69  94 125 158 189 224 271
#     4   9  18  32  49  69  94 125 158 189 224 271
#     4  10  19  31  49  71  95 123 154 190 231 272
#     4  10  20  33  49  69  94 123 154 189 230 276
#
# _framework density 15.782923
#
# number of rings (size 3 to 8) (size 9 to 14) (size 15 to 20)
#    0.000    2.333    0.000    3.500    0.000    6.667 
#    0.000    0.833    0.000    1.000    0.000    3.500 
#    0.000    0.000    0.000    0.000    0.000    0.000 
#
# Total GULP energy -267793.364640 kJ/mol
# GULP energy per Si atom -5579.028430 kJ/mol
# Density = 1.574700 g / cm^3
# Si number density = 15.782923 Si / 1000 Ang^3
#
#
#
# Elastic Constant Matrix: (Units=GPa)
#
#
# Indices 1 2 3 4 5 6 
#
# 1 119.6429 50.1126 76.9857 0.0000 0.0000 0.0000
# 2 50.1126 49.4936 52.2507 0.0000 0.0000 0.0000
# 3 76.9857 52.2507 113.7886 0.0000 0.0000 0.0000
# 4 0.0000 0.0000 0.0000 30.4817 0.0000 0.0000
# 5 0.0000 0.0000 0.0000 0.0000 19.1949 0.0000
# 6 0.0000 0.0000 0.0000 0.0000 0.0000 24.1468
#
#
#
# Elastic Compliance Matrix: (Units=1/GPa)
#
#
# Indices 1 2 3 4 5 6 
#
# 1 0.016946 -0.009809 -0.006961 0.000000 0.000000 0.000000
# 2 -0.009809 0.044893 -0.013978 0.000000 0.000000 0.000000
# 3 -0.006961 -0.013978 0.019916 0.000000 0.000000 0.000000
# 4 0.000000 0.000000 0.000000 0.032807 0.000000 0.000000
# 5 0.000000 0.000000 0.000000 0.000000 0.052097 0.000000
# 6 0.000000 0.000000 0.000000 0.000000 0.000000 0.041413
#
#
# Mechanical properties :
#
#
# Convention : Reuss Voigt Hill
#
# Bulk Modulus (GPa) = 49.35984 71.29145 60.32564
# Shear Modulus (GPa) = 18.09492 21.66975 19.88233
#
# Velocity S-wave (km/s) = 3.38965 3.70940 3.55313
# Velocity P-wave (km/s) = 6.83094 7.97586 7.42550
#
# Compressibility (1/GPa) = 0.02025939
#
# Stress axis : x y z
#
# Youngs Moduli (GPa) = 59.01197 22.27511 50.21084
#
# Poissons Ratio (x) = 0.21850 0.34950
# Poissons Ratio (y) = 0.57887 0.70184
# Poissons Ratio (z) = 0.41076 0.31136
#
# Static dielectric constant tensor:
#      x y z
#    x 1.522890 0.000000 0.000000 
#    y 0.000000 1.525040 0.000000 
#    z 0.000000 0.000000 1.507020 
# 
# From -- ./inp_files/60203.got.cif
#   From: 2010.05.17/outbox.cif.g08.bks.cpg/sg65_31_cif.got.tgz:60203.got - 2010.06.03 17:01:31.
