data_PCOD9485541
_publ_section_title
;
Structure prediction by ZEFSAII (Michael W. Deem and Ramdas Pophale) SiO2 
 PCOD9485541
Probable space group: C M M M
;
_chemical_formula_sum "Si O2"
_cell_formula_units_Z 112
_cell_length_a 19.068712
_cell_length_b 26.452542
_cell_length_c 14.609541
_cell_angle_alpha 90.000000
_cell_angle_beta 90.000000
_cell_angle_gamma 90.000000
_cell_volume 7369.284846
_symmetry_space_group_name_H-M "C M M M"
_symmetry_group_IT_number 65
_symmetry_cell_setting 'orthorhombic'
loop_
_space_group_symop_operation_xyz
x,y,z
-x,-y,z
x,-y,-z
-x,y,-z
-x,-y,-z
x,y,-z
-x,y,z
x,-y,z
1/2+x,1/2+y,z
1/2-x,1/2-y,z
1/2+x,1/2-y,-z
1/2-x,1/2+y,-z
1/2-x,1/2-y,-z
1/2+x,1/2+y,-z
1/2-x,1/2+y,z
1/2+x,1/2-y,z
loop_
_atom_site_type_symbol
_atom_site_label
_atom_site_fract_x
_atom_site_fract_y
_atom_site_fract_z
Si Si1 0.171288 0.848700 0.608018
Si Si2 0.416366 0.215409 0.105199
Si Si3 0.581072 0.443819 0.611157
Si Si4 0.338704 0.850037 0.607035
Si Si5 0.084762 0.403845 0.898978
Si Si6 0.415255 0.942747 0.703031
Si Si7 0.334205 0.249739 0.276199
O O1 0.156514 0.840064 0.500000
O O2 0.130207 0.898244 0.640499
O O3 0.254748 0.857109 0.615876
O O4 0.149890 0.799782 0.665699
O O5 0.500000 0.219912 0.120423
O O6 0.398525 0.155575 0.113988
O O7 0.373580 0.246173 0.179990
O O8 0.401900 0.229930 0.000000
O O9 0.582916 0.444243 0.500000
O O10 0.500000 0.435856 0.637496
O O11 0.602917 0.500000 0.641713
O O12 0.354504 0.841979 0.500000
O O13 0.378992 0.898921 0.644602
O O14 0.355276 0.799976 0.665651
O O15 0.106542 0.434262 0.809226
O O16 0.000000 0.407158 0.901933
O O17 0.110355 0.419996 0.000000
O O18 0.500000 0.937246 0.698027
O O19 0.397739 0.000000 0.674252
O O20 0.250000 0.250000 0.263208
#
# Coordination Sequence:
#
# PCOD9485541 Si02
#       7
#    16  16  16  16  16  16  16
#     4   9  18  31  47  68  92 119 154 188 220 268
#     4   9  17  30  49  70  92 120 151 184 227 281
#     4   8  14  26  44  65  89 113 137 174 223 266
#     4  10  20  33  46  60  87 127 161 190 229 270
#     4   8  14  27  47  67  86 111 145 187 236 282
#     4  10  20  32  46  66  91 119 158 203 236 269
#     4  10  19  31  48  69  93 119 152 190 229 267
#
# _framework density 15.198218000000001
#
# number of rings (size 3 to 8) (size 9 to 14) (size 15 to 20)
#    0.000    2.857    1.429    1.714    0.000    4.000 
#    0.000    3.571    0.000    2.571    0.000    0.000 
#    0.000    0.571    0.000    3.143    0.000    0.143 
#
# Total GULP energy -311850.922622 kJ/mol
# GULP energy per Si atom -5568.766475 kJ/mol
# Density = 1.516363 g / cm^3
# Si number density = 15.198218 Si / 1000 Ang^3
#
#
#
# Elastic Constant Matrix: (Units=GPa)
#
#
# Indices 1 2 3 4 5 6 
#
# 1 27.2185 48.5044 33.9356 0.0000 0.0000 0.0000
# 2 48.5044 118.7845 53.8524 0.0000 0.0000 0.0000
# 3 33.9356 53.8524 80.1320 0.0000 0.0000 0.0000
# 4 0.0000 0.0000 0.0000 21.6949 0.0000 0.0000
# 5 0.0000 0.0000 0.0000 0.0000 21.6435 0.0000
# 6 0.0000 0.0000 0.0000 0.0000 0.0000 25.9994
#
#
#
# Elastic Compliance Matrix: (Units=1/GPa)
#
#
# Indices 1 2 3 4 5 6 
#
# 1 0.206137 -0.064138 -0.044195 0.000000 0.000000 0.000000
# 2 -0.064138 0.032063 0.005614 0.000000 0.000000 0.000000
# 3 -0.044195 0.005614 0.027423 0.000000 0.000000 0.000000
# 4 0.000000 0.000000 0.000000 0.046094 0.000000 0.000000
# 5 0.000000 0.000000 0.000000 0.000000 0.046203 0.000000
# 6 0.000000 0.000000 0.000000 0.000000 0.000000 0.038462
#
#
# Mechanical properties :
#
#
# Convention : Reuss Voigt Hill
#
# Bulk Modulus (GPa) = 16.61509 55.41330 36.01419
# Shear Modulus (GPa) = 8.04011 19.85708 13.94860
#
# Velocity S-wave (km/s) = 2.30253 3.61853 3.03277
# Velocity P-wave (km/s) = 4.24557 7.34833 6.00095
#
# Compressibility (1/GPa) = 0.06018627
#
# Stress axis : x y z
#
# Youngs Moduli (GPa) = 4.85114 31.18824 36.46582
#
# Poissons Ratio (x) = 2.00034 1.61160
# Poissons Ratio (y) = 0.31114 -0.20472
# Poissons Ratio (z) = 0.21440 -0.17509
#
# Static dielectric constant tensor:
#      x y z
#    x 1.491160 0.000000 0.000000 
#    y 0.000000 1.503410 0.000000 
#    z 0.000000 0.000000 1.506310 
# 
# From -- ./inp_files/29352.got.cif
#   From: 2010.05.17/outbox.cif.g08.bks.cpg/sg65_15_cif.got.tgz:29352.got - 2010.06.03 17:01:31.
