data_PCOD9485797
_publ_section_title
;
Structure prediction by ZEFSAII (Michael W. Deem and Ramdas Pophale) SiO2 
 PCOD9485797
Probable space group: C M M M
;
_chemical_formula_sum "Si O2"
_cell_formula_units_Z 72
_cell_length_a 14.056508
_cell_length_b 29.918932
_cell_length_c 7.497208
_cell_angle_alpha 90.000000
_cell_angle_beta 90.000000
_cell_angle_gamma 90.000000
_cell_volume 3152.993611
_symmetry_space_group_name_H-M "C M M M"
_symmetry_group_IT_number 65
_symmetry_cell_setting 'orthorhombic'
loop_
_space_group_symop_operation_xyz
x,y,z
-x,-y,z
x,-y,-z
-x,y,-z
-x,-y,-z
x,y,-z
-x,y,z
x,-y,z
1/2+x,1/2+y,z
1/2-x,1/2-y,z
1/2+x,1/2-y,-z
1/2-x,1/2+y,-z
1/2-x,1/2-y,-z
1/2+x,1/2+y,-z
1/2-x,1/2+y,z
1/2+x,1/2-y,z
loop_
_atom_site_type_symbol
_atom_site_label
_atom_site_fract_x
_atom_site_fract_y
_atom_site_fract_z
Si Si1 0.105641 0.891586 0.794168
Si Si2 0.886040 0.209720 0.298982
Si Si3 0.191238 0.400701 0.210260
Si Si4 0.500000 0.947976 0.782406
Si Si5 0.108892 0.694037 0.284250
O O1 0.121961 0.837875 0.793607
O O2 0.203550 0.910866 0.714402
O O3 0.000000 0.899483 0.714485
O O4 0.100754 0.906052 0.000000
O O5 0.846232 0.204640 0.500000
O O6 0.855281 0.257430 0.221575
O O7 0.000000 0.216458 0.314113
O O8 0.170159 0.348049 0.228370
O O9 0.097352 0.425049 0.283218
O O10 0.195730 0.411489 0.000000
O O11 0.500000 0.000000 0.738710
O O12 0.500000 0.943629 0.000000
O O13 0.107779 0.696081 0.500000
O O14 0.000000 0.686409 0.223670
#
# Coordination Sequence:
#
# PCOD9485797 Si02
#       5
#    16  16  16   8  16
#     4   9  18  31  45  65  95 128 161 196 233 271
#     4   8  15  28  44  63  91 130 169 199 230 271
#     4  10  19  31  50  72  92 120 157 195 237 287
#     4   9  18  34  55  77  97 117 149 195 247 301
#     4   9  17  29  45  67  97 128 159 199 242 279
#
# _framework density 22.835439999999998
#
# number of rings (size 3 to 8) (size 9 to 14) (size 15 to 20)
#    0.000    3.000    1.111    1.333    0.000    2.667 
#    0.000    6.667    0.000    2.000    0.000    4.667 
#    0.000    0.000    0.000    7.556    0.000    8.000 
#
# Total GULP energy -200724.380186 kJ/mol
# GULP energy per Si atom -5575.677227 kJ/mol
# Density = 2.278347 g / cm^3
# Si number density = 22.835440 Si / 1000 Ang^3
#
#
#
# Elastic Constant Matrix: (Units=GPa)
#
#
# Indices 1 2 3 4 5 6 
#
# 1 248.7844 41.3348 10.5097 0.0000 0.0000 0.0000
# 2 41.3348 19.7365 0.0433 0.0000 0.0000 0.0000
# 3 10.5097 0.0433 62.5771 0.0000 0.0000 0.0000
# 4 0.0000 0.0000 0.0000 12.6299 0.0000 0.0000
# 5 0.0000 0.0000 0.0000 0.0000 -13.1007 0.0000
# 6 0.0000 0.0000 0.0000 0.0000 0.0000 -5.2473
#
#
#
# Elastic Compliance Matrix: (Units=1/GPa)
#
#
# Indices 1 2 3 4 5 6 
#
# 1 0.006231 -0.013048 -0.001037 0.000000 0.000000 0.000000
# 2 -0.013048 0.077990 0.002137 0.000000 0.000000 0.000000
# 3 -0.001037 0.002137 0.016153 0.000000 0.000000 0.000000
# 4 0.000000 0.000000 0.000000 0.079177 0.000000 0.000000
# 5 0.000000 0.000000 0.000000 0.000000 -0.076332 0.000000
# 6 0.000000 0.000000 0.000000 0.000000 0.000000 -0.190574
#
#
# Mechanical properties :
#
#
# Convention : Reuss Voigt Hill
#
# Bulk Modulus (GPa) = 13.07566 48.31930 30.69748
# Shear Modulus (GPa) = -131.70036 17.47038 -57.11499
#
# Velocity S-wave (km/s) = -7.60256 2.76896 -5.00658
# Velocity P-wave (km/s) = 8.44551 5.60612 4.46644
#
# Compressibility (1/GPa) = 0.07647795
#
# Stress axis : x y z
#
# Youngs Moduli (GPa) = 160.48082 12.82216 61.90776
#
# Poissons Ratio (x) = 0.16730 0.06423
# Poissons Ratio (y) = 2.09397 -0.13232
# Poissons Ratio (z) = 0.16650 -0.02741
#
# Static dielectric constant tensor:
#      x y z
#    x 1.958670 0.000000 0.000000 
#    y 0.000000 1.802960 0.000000 
#    z 0.000000 0.000000 1.864810 
# 
# From -- ./inp_files/7315.got.cif
#   From: 2010.05.17/outbox.cif.g08.bks.cpg/sg65_4_cif.got.tgz:7315.got - 2010.06.03 17:01:31.
