data_PCOD9485392
_publ_section_title
;
Structure prediction by ZEFSAII (Michael W. Deem and Ramdas Pophale) SiO2 
 PCOD9485392
Probable space group: C M M M
;
_chemical_formula_sum "Si O2"
_cell_formula_units_Z 104
_cell_length_a 23.565400
_cell_length_b 20.477929
_cell_length_c 13.631426
_cell_angle_alpha 90.000000
_cell_angle_beta 90.000000
_cell_angle_gamma 90.000000
_cell_volume 6578.125261
_symmetry_space_group_name_H-M "C M M M"
_symmetry_group_IT_number 65
_symmetry_cell_setting 'orthorhombic'
loop_
_space_group_symop_operation_xyz
x,y,z
-x,-y,z
x,-y,-z
-x,y,-z
-x,-y,-z
x,y,-z
-x,y,z
x,-y,z
1/2+x,1/2+y,z
1/2-x,1/2-y,z
1/2+x,1/2-y,-z
1/2-x,1/2+y,-z
1/2-x,1/2-y,-z
1/2+x,1/2+y,-z
1/2-x,1/2+y,z
1/2+x,1/2-y,z
loop_
_atom_site_type_symbol
_atom_site_label
_atom_site_fract_x
_atom_site_fract_y
_atom_site_fract_z
Si Si1 0.395641 0.074447 0.116842
Si Si2 0.778574 0.576522 0.769840
Si Si3 0.434694 0.323940 0.884323
Si Si4 0.064414 0.694800 0.757176
Si Si5 0.141699 0.627319 0.616477
Si Si6 0.333997 0.422692 0.115802
Si Si7 0.064772 0.500000 0.618046
O O1 0.330200 0.081221 0.151938
O O2 0.428438 0.132103 0.171545
O O3 0.413825 0.000000 0.142827
O O4 0.400174 0.081056 0.000000
O O5 0.773328 0.500000 0.744070
O O6 0.800003 0.614997 0.674434
O O7 0.720058 0.597592 0.819447
O O8 0.500000 0.345222 0.868535
O O9 0.424681 0.259557 0.820122
O O10 0.389247 0.379917 0.861847
O O11 0.429150 0.307607 0.000000
O O12 0.108201 0.685851 0.668391
O O13 0.000000 0.696086 0.719997
O O14 0.147478 0.632687 0.500000
O O15 0.101893 0.563973 0.640788
O O16 0.344144 0.500000 0.131077
O O17 0.320528 0.414320 0.000000
O O18 0.059941 0.500000 0.500000
O O19 0.000000 0.500000 0.656633
#
# Coordination Sequence:
#
# PCOD9485392 Si02
#       7
#    16  16  16  16  16  16   8
#     4   9  17  28  41  59  87 124 164 201 231 264
#     4   9  16  28  46  68  95 124 154 192 241 287
#     4   9  18  33  51  72 100 128 152 187 237 291
#     4  10  20  31  45  64  91 128 165 197 238 288
#     4  10  19  31  46  67  93 124 163 206 245 277
#     4   9  17  30  52  79 100 120 151 188 232 293
#     4   9  16  26  42  64  89 117 154 201 245 275
#
# _framework density 15.809975
#
# number of rings (size 3 to 8) (size 9 to 14) (size 15 to 20)
#    0.000    2.692    0.769    1.385    1.077    4.308 
#    0.000    5.385    0.000   10.154    0.000    0.000 
#    0.000    0.000    0.000    6.769    0.000    0.308 
#
# Total GULP energy -289814.498380 kJ/mol
# GULP energy per Si atom -5573.355738 kJ/mol
# Density = 1.577399 g / cm^3
# Si number density = 15.809975 Si / 1000 Ang^3
#
#
#
# Elastic Constant Matrix: (Units=GPa)
#
#
# Indices 1 2 3 4 5 6 
#
# 1 106.6613 56.2085 53.2761 0.0000 0.0000 0.0000
# 2 56.2085 53.6396 39.6613 0.0000 0.0000 0.0000
# 3 53.2761 39.6613 92.0357 0.0000 0.0000 0.0000
# 4 0.0000 0.0000 0.0000 14.6483 0.0000 0.0000
# 5 0.0000 0.0000 0.0000 0.0000 19.2151 0.0000
# 6 0.0000 0.0000 0.0000 0.0000 0.0000 18.9844
#
#
#
# Elastic Compliance Matrix: (Units=1/GPa)
#
#
# Indices 1 2 3 4 5 6 
#
# 1 0.021943 -0.019963 -0.004099 0.000000 0.000000 0.000000
# 2 -0.019963 0.045523 -0.008061 0.000000 0.000000 0.000000
# 3 -0.004099 -0.008061 0.016712 0.000000 0.000000 0.000000
# 4 0.000000 0.000000 0.000000 0.068267 0.000000 0.000000
# 5 0.000000 0.000000 0.000000 0.000000 0.052042 0.000000
# 6 0.000000 0.000000 0.000000 0.000000 0.000000 0.052675
#
#
# Mechanical properties :
#
#
# Convention : Reuss Voigt Hill
#
# Bulk Modulus (GPa) = 50.17424 61.18092 55.67758
# Shear Modulus (GPa) = 15.24140 17.44894 16.34517
#
# Velocity S-wave (km/s) = 3.10826 3.32575 3.21884
# Velocity P-wave (km/s) = 6.68479 7.31636 7.00770
#
# Compressibility (1/GPa) = 0.01993055
#
# Stress axis : x y z
#
# Youngs Moduli (GPa) = 45.57216 21.96705 59.83634
#
# Poissons Ratio (x) = 0.43853 0.24529
# Poissons Ratio (y) = 0.90976 0.48236
# Poissons Ratio (z) = 0.18682 0.17709
#
# Static dielectric constant tensor:
#      x y z
#    x 1.529510 0.000000 0.000000 
#    y 0.000000 1.517980 0.000000 
#    z 0.000000 0.000000 1.532010 
# 
# From -- ./inp_files/44632.got.cif
#   From: 2010.05.17/outbox.cif.g08.bks.cpg/sg65_23_cif.got.tgz:44632.got - 2010.06.03 17:01:31.
