data_PCOD9485142
_publ_section_title
;
Structure prediction by ZEFSAII (Michael W. Deem and Ramdas Pophale) SiO2 
 PCOD9485142
Probable space group: C M M M
;
_chemical_formula_sum "Si O2"
_cell_formula_units_Z 104
_cell_length_a 24.927973
_cell_length_b 25.439034
_cell_length_c 7.504327
_cell_angle_alpha 90.000000
_cell_angle_beta 90.000000
_cell_angle_gamma 90.000000
_cell_volume 4758.820584
_symmetry_space_group_name_H-M "C M M M"
_symmetry_group_IT_number 65
_symmetry_cell_setting 'orthorhombic'
loop_
_space_group_symop_operation_xyz
x,y,z
-x,-y,z
x,-y,-z
-x,y,-z
-x,-y,-z
x,y,-z
-x,y,z
x,-y,z
1/2+x,1/2+y,z
1/2-x,1/2-y,z
1/2+x,1/2-y,-z
1/2-x,1/2+y,-z
1/2-x,1/2-y,-z
1/2+x,1/2+y,-z
1/2-x,1/2+y,z
1/2+x,1/2-y,z
loop_
_atom_site_type_symbol
_atom_site_label
_atom_site_fract_x
_atom_site_fract_y
_atom_site_fract_z
Si Si1 0.060943 0.115347 0.718445
Si Si2 0.667128 0.787482 0.789937
Si Si3 0.934970 0.000000 0.297843
Si Si4 0.940296 0.662618 0.210344
Si Si5 0.874315 0.440946 0.284064
Si Si6 0.267873 0.887550 0.298506
Si Si7 0.167346 0.168156 0.284599
O O1 0.059939 0.113573 0.500000
O O2 0.106978 0.155276 0.773764
O O3 0.000000 0.127050 0.775104
O O4 0.077612 0.056758 0.781026
O O5 0.606613 0.798945 0.721799
O O6 0.705035 0.829693 0.696985
O O7 0.682132 0.727203 0.767019
O O8 0.669286 0.800291 0.000000
O O9 0.913243 0.000000 0.500000
O O10 0.000000 0.000000 0.308450
O O11 0.916640 0.603792 0.231634
O O12 0.000000 0.667772 0.286990
O O13 0.944276 0.672947 0.000000
O O14 0.872446 0.440037 0.500000
O O15 0.887614 0.500000 0.226841
O O16 0.814899 0.423600 0.218853
O O17 0.259048 0.907175 0.500000
O O18 0.210008 0.875025 0.216987
O O19 0.168885 0.165601 0.500000
#
# Coordination Sequence:
#
# PCOD9485142 Si02
#       7
#    16  16   8  16  16  16  16
#     4   8  14  25  41  64  94 123 151 186 228 272
#     4  10  20  33  50  69  91 123 159 195 234 278
#     4   7  10  20  38  58  85 119 147 175 214 257
#     4   9  19  35  52  71  96 126 161 198 237 285
#     4   9  18  33  51  71  98 129 159 195 239 285
#     4   9  18  33  49  67  94 126 157 192 235 280
#     4  10  19  30  46  71  97 123 156 194 236 280
#
# _framework density 21.854156
#
# number of rings (size 3 to 8) (size 9 to 14) (size 15 to 20)
#    0.000    3.000    0.000    1.846    0.000    4.615 
#    1.385    1.538    0.000    0.000    0.000    0.538 
#    0.000    1.846    0.000    0.000    0.000    0.000 
#
# Total GULP energy -289904.352743 kJ/mol
# GULP energy per Si atom -5575.083707 kJ/mol
# Density = 2.180442 g / cm^3
# Si number density = 21.854156 Si / 1000 Ang^3
#
#
#
# Elastic Constant Matrix: (Units=GPa)
#
#
# Indices 1 2 3 4 5 6 
#
# 1 94.4712 -17.4584 0.7755 0.0000 0.0000 0.0000
# 2 -17.4584 15.9588 -10.4991 0.0000 0.0000 0.0000
# 3 0.7755 -10.4991 64.3045 0.0000 0.0000 0.0000
# 4 0.0000 0.0000 0.0000 5.3720 0.0000 0.0000
# 5 0.0000 0.0000 0.0000 0.0000 2.7841 0.0000
# 6 0.0000 0.0000 0.0000 0.0000 0.0000 13.1686
#
#
#
# Elastic Compliance Matrix: (Units=1/GPa)
#
#
# Indices 1 2 3 4 5 6 
#
# 1 0.013629 0.016583 0.002543 0.000000 0.000000 0.000000
# 2 0.016583 0.090378 0.014556 0.000000 0.000000 0.000000
# 3 0.002543 0.014556 0.017897 0.000000 0.000000 0.000000
# 4 0.000000 0.000000 0.000000 0.186150 0.000000 0.000000
# 5 0.000000 0.000000 0.000000 0.000000 0.359186 0.000000
# 6 0.000000 0.000000 0.000000 0.000000 0.000000 0.075938
#
#
# Mechanical properties :
#
#
# Convention : Reuss Voigt Hill
#
# Bulk Modulus (GPa) = 5.28352 13.37452 9.32902
# Shear Modulus (GPa) = 6.76677 17.72603 12.24640
#
# Velocity S-wave (km/s) = 1.76155 2.85108 2.36978
# Velocity P-wave (km/s) = 2.56130 4.11964 3.43014
#
# Compressibility (1/GPa) = 0.18926784
#
# Stress axis : x y z
#
# Youngs Moduli (GPa) = 73.37390 11.06458 55.87545
#
# Poissons Ratio (x) = -0.18348 -0.14210
# Poissons Ratio (y) = -1.21672 -0.81333
# Poissons Ratio (z) = -0.18660 -0.16106
#
# Static dielectric constant tensor:
#      x y z
#    x 1.828740 0.000000 0.000000 
#    y 0.000000 1.758510 0.000000 
#    z 0.000000 0.000000 1.899960 
# 
# From -- ./inp_files/14778.got.cif
#   From: 2010.05.17/outbox.cif.g08.bks.cpg/sg65_8_cif.got.tgz:14778.got - 2010.06.03 17:01:31.
