data_PCOD9485145
_publ_section_title
;
Structure prediction by ZEFSAII (Michael W. Deem and Ramdas Pophale) SiO2 
 PCOD9485145
Probable space group: C M M M
;
_chemical_formula_sum "Si O2"
_cell_formula_units_Z 88
_cell_length_a 8.757514
_cell_length_b 27.826007
_cell_length_c 21.826885
_cell_angle_alpha 90.000000
_cell_angle_beta 90.000000
_cell_angle_gamma 90.000000
_cell_volume 5318.920395
_symmetry_space_group_name_H-M "C M M M"
_symmetry_group_IT_number 65
_symmetry_cell_setting 'orthorhombic'
loop_
_space_group_symop_operation_xyz
x,y,z
-x,-y,z
x,-y,-z
-x,y,-z
-x,-y,-z
x,y,-z
-x,y,z
x,-y,z
1/2+x,1/2+y,z
1/2-x,1/2-y,z
1/2+x,1/2-y,-z
1/2-x,1/2+y,-z
1/2-x,1/2-y,-z
1/2+x,1/2+y,-z
1/2-x,1/2+y,z
1/2+x,1/2-y,z
loop_
_atom_site_type_symbol
_atom_site_label
_atom_site_fract_x
_atom_site_fract_y
_atom_site_fract_z
Si Si1 0.684717 0.846430 0.430603
Si Si2 0.818022 0.198626 0.690111
Si Si3 0.316878 0.104891 0.751053
Si Si4 0.684978 0.053302 0.374059
Si Si5 0.317703 0.556724 0.129130
Si Si6 0.676635 0.058338 0.000000
O O1 0.724193 0.833294 0.500000
O O2 0.500000 0.843425 0.423692
O O3 0.761280 0.814392 0.378506
O O4 0.730151 0.901906 0.416602
O O5 0.750000 0.250000 0.707739
O O6 0.754011 0.155954 0.732552
O O7 0.000000 0.199509 0.691996
O O8 0.500000 0.108682 0.751569
O O9 0.274836 0.068537 0.695419
O O10 0.256933 0.085207 0.815107
O O11 0.500000 0.051546 0.377068
O O12 0.742612 0.000000 0.389351
O O13 0.500000 0.561052 0.131289
O O14 0.278521 0.500000 0.135548
O O15 0.257567 0.573480 0.062831
O O16 0.500000 0.072837 0.000000
O O17 0.682618 0.000000 0.000000
#
# Coordination Sequence:
#
# PCOD9485145 Si02
#       6
#    16  16  16  16  16   8
#     4   9  18  32  49  71  98 126 159 198 240 291
#     4  11  22  37  55  73  94 120 154 200 254 305
#     4  10  19  32  50  73  99 128 165 204 244 294
#     4   8  14  25  43  68  96 125 158 196 234 274
#     4  10  19  30  46  72 107 142 173 207 247 287
#     4   9  17  29  45  67  98 139 182 215 243 281
#
# _framework density 16.544711
#
# number of rings (size 3 to 8) (size 9 to 14) (size 15 to 20)
#    0.000    2.455    0.000    4.636    0.000    4.000 
#    0.000    1.818    0.000    4.909    0.000    5.727 
#    0.000    0.000    0.000    0.000    0.000    0.000 
#
# Total GULP energy -245423.954600 kJ/mol
# GULP energy per Si atom -5577.817150 kJ/mol
# Density = 1.650705 g / cm^3
# Si number density = 16.544711 Si / 1000 Ang^3
#
#
#
# Elastic Constant Matrix: (Units=GPa)
#
#
# Indices 1 2 3 4 5 6 
#
# 1 68.6261 31.6955 47.1758 0.0000 0.0000 0.0000
# 2 31.6955 65.2201 18.6106 0.0000 0.0000 0.0000
# 3 47.1758 18.6106 104.4896 0.0000 0.0000 0.0000
# 4 0.0000 0.0000 0.0000 8.9501 0.0000 0.0000
# 5 0.0000 0.0000 0.0000 0.0000 25.8633 0.0000
# 6 0.0000 0.0000 0.0000 0.0000 0.0000 20.2759
#
#
#
# Elastic Compliance Matrix: (Units=1/GPa)
#
#
# Indices 1 2 3 4 5 6 
#
# 1 0.025932 -0.009757 -0.009970 0.000000 0.000000 0.000000
# 2 -0.009757 0.019825 0.000874 0.000000 0.000000 0.000000
# 3 -0.009970 0.000874 0.013916 0.000000 0.000000 0.000000
# 4 0.000000 0.000000 0.000000 0.111730 0.000000 0.000000
# 5 0.000000 0.000000 0.000000 0.000000 0.038665 0.000000
# 6 0.000000 0.000000 0.000000 0.000000 0.000000 0.049320
#
#
# Mechanical properties :
#
#
# Convention : Reuss Voigt Hill
#
# Bulk Modulus (GPa) = 45.52348 48.14443 46.83396
# Shear Modulus (GPa) = 16.42486 20.40812 18.41649
#
# Velocity S-wave (km/s) = 3.15422 3.51595 3.33999
# Velocity P-wave (km/s) = 6.39067 6.75613 6.57594
#
# Compressibility (1/GPa) = 0.02196669
#
# Stress axis : x y z
#
# Youngs Moduli (GPa) = 38.56235 50.44116 71.85976
#
# Poissons Ratio (x) = 0.49217 0.71645
# Poissons Ratio (y) = 0.37627 -0.06283
# Poissons Ratio (z) = 0.38447 -0.04410
#
# Static dielectric constant tensor:
#      x y z
#    x 1.554170 0.000000 0.000000 
#    y 0.000000 1.552500 0.000000 
#    z 0.000000 0.000000 1.542230 
# 
# From -- ./inp_files/59836.got.cif
#   From: 2010.05.17/outbox.cif.g08.bks.cpg/sg65_30_cif.got.tgz:59836.got - 2010.06.03 17:01:31.
