data_PCOD9485487
_publ_section_title
;
Structure prediction by ZEFSAII (Michael W. Deem and Ramdas Pophale) SiO2 
 PCOD9485487
Probable space group: C M M M
;
_chemical_formula_sum "Si O2"
_cell_formula_units_Z 120
_cell_length_a 8.391138
_cell_length_b 30.313346
_cell_length_c 25.749679
_cell_angle_alpha 90.000000
_cell_angle_beta 90.000000
_cell_angle_gamma 90.000000
_cell_volume 6549.777690
_symmetry_space_group_name_H-M "C M M M"
_symmetry_group_IT_number 65
_symmetry_cell_setting 'orthorhombic'
loop_
_space_group_symop_operation_xyz
x,y,z
-x,-y,z
x,-y,-z
-x,y,-z
-x,-y,-z
x,y,-z
-x,y,z
x,-y,z
1/2+x,1/2+y,z
1/2-x,1/2-y,z
1/2+x,1/2-y,-z
1/2-x,1/2+y,-z
1/2-x,1/2-y,-z
1/2+x,1/2+y,-z
1/2-x,1/2+y,z
1/2+x,1/2-y,z
loop_
_atom_site_type_symbol
_atom_site_label
_atom_site_fract_x
_atom_site_fract_y
_atom_site_fract_z
Si Si1 0.304988 0.448693 0.000000
Si Si2 0.694707 0.391781 0.900523
Si Si3 0.692083 0.298531 0.135896
Si Si4 0.690436 0.449158 0.802809
Si Si5 0.808906 0.798836 0.743856
Si Si6 0.809283 0.640591 0.651154
Si Si7 0.190856 0.548732 0.313076
Si Si8 0.190475 0.798860 0.559092
O O1 0.253878 0.421095 0.949362
O O2 0.253802 0.500000 0.000000
O O3 0.500000 0.449524 0.000000
O O4 0.500000 0.391978 0.901204
O O5 0.745258 0.340646 0.897806
O O6 0.743969 0.416025 0.847452
O O7 0.500000 0.297787 0.135443
O O8 0.750000 0.250000 0.119904
O O9 0.741926 0.306139 0.196185
O O10 0.500000 0.443515 0.795732
O O11 0.717291 0.500000 0.819323
O O12 0.771521 0.442661 0.747406
O O13 0.750000 0.750000 0.728959
O O14 0.743661 0.833890 0.703144
O O15 0.000000 0.800062 0.742339
O O16 0.748520 0.590338 0.654674
O O17 0.748901 0.666406 0.601072
O O18 0.000000 0.640193 0.650056
O O19 0.255591 0.500000 0.325927
O O20 0.000000 0.547190 0.318961
O O21 0.246174 0.808037 0.500000
O O22 0.250000 0.750000 0.573351
O O23 0.000000 0.798342 0.559160
#
# Coordination Sequence:
#
# PCOD9485487 Si02
#       8
#     8  16  16  16  16  16  16  16
#     4   9  16  26  43  68  95 119 145 185 238 291
#     4   9  16  27  43  65  93 122 152 189 237 285
#     4   9  18  31  46  64  90 124 158 193 230 273
#     4   9  16  27  46  71  96 121 152 192 238 289
#     4  10  19  31  47  69  99 130 160 195 237 286
#     4  11  21  32  50  74 100 131 165 201 241 285
#     4   9  19  34  49  69  99 132 165 200 239 285
#     4  10  21  37  56  77 102 131 163 199 238 282
#
# _framework density 18.321232999999999
#
# number of rings (size 3 to 8) (size 9 to 14) (size 15 to 20)
#    0.000    2.467    0.000    2.800    0.000    5.067 
#    0.000    1.000    0.000    0.400    0.000    4.200 
#    0.000    4.267    0.000    0.000    0.000    0.000 
#
# Total GULP energy -334735.624433 kJ/mol
# GULP energy per Si atom -5578.927074 kJ/mol
# Density = 1.827953 g / cm^3
# Si number density = 18.321233 Si / 1000 Ang^3
#
#
#
# Elastic Constant Matrix: (Units=GPa)
#
#
# Indices 1 2 3 4 5 6 
#
# 1 13.3874 20.9638 10.1241 0.0000 0.0000 0.0000
# 2 20.9638 186.0611 92.3307 0.0000 0.0000 0.0000
# 3 10.1241 92.3307 69.3956 0.0000 0.0000 0.0000
# 4 0.0000 0.0000 0.0000 30.6871 0.0000 0.0000
# 5 0.0000 0.0000 0.0000 0.0000 7.2904 0.0000
# 6 0.0000 0.0000 0.0000 0.0000 0.0000 17.2246
#
#
#
# Elastic Compliance Matrix: (Units=1/GPa)
#
#
# Indices 1 2 3 4 5 6 
#
# 1 0.090727 -0.010755 0.001073 0.000000 0.000000 0.000000
# 2 -0.010755 0.017094 -0.021174 0.000000 0.000000 0.000000
# 3 0.001073 -0.021174 0.042426 0.000000 0.000000 0.000000
# 4 0.000000 0.000000 0.000000 0.032587 0.000000 0.000000
# 5 0.000000 0.000000 0.000000 0.000000 0.137167 0.000000
# 6 0.000000 0.000000 0.000000 0.000000 0.000000 0.058057
#
#
# Mechanical properties :
#
#
# Convention : Reuss Voigt Hill
#
# Bulk Modulus (GPa) = 11.29496 57.29792 34.29644
# Shear Modulus (GPa) = 10.65460 20.73543 15.69502
#
# Velocity S-wave (km/s) = 2.41414 3.36783 2.93005
# Velocity P-wave (km/s) = 3.73485 6.81652 5.49609
#
# Compressibility (1/GPa) = 0.08853510
#
# Stress axis : x y z
#
# Youngs Moduli (GPa) = 11.02205 58.50036 23.57046
#
# Poissons Ratio (x) = 0.62917 -0.02530
# Poissons Ratio (y) = 0.11854 0.49909
# Poissons Ratio (z) = -0.01183 1.23871
#
# Static dielectric constant tensor:
#      x y z
#    x 1.635570 0.000000 0.000000 
#    y 0.000000 1.648970 0.000000 
#    z 0.000000 0.000000 1.610090 
# 
# From -- ./inp_files/73993.got.cif
#   From: 2010.05.17/outbox.cif.g08.bks.cpg/sg65_37_cif.got.tgz:73993.got - 2010.06.03 17:01:31.
