data_PCOD9485551
_publ_section_title
;
Structure prediction by ZEFSAII (Michael W. Deem and Ramdas Pophale) SiO2 
 PCOD9485551
Probable space group: C M M M
;
_chemical_formula_sum "Si O2"
_cell_formula_units_Z 100
_cell_length_a 33.718615
_cell_length_b 18.869954
_cell_length_c 8.933312
_cell_angle_alpha 90.000000
_cell_angle_beta 90.000000
_cell_angle_gamma 90.000000
_cell_volume 5683.986938
_symmetry_space_group_name_H-M "C M M M"
_symmetry_group_IT_number 65
_symmetry_cell_setting 'orthorhombic'
loop_
_space_group_symop_operation_xyz
x,y,z
-x,-y,z
x,-y,-z
-x,y,-z
-x,-y,-z
x,y,-z
-x,y,z
x,-y,z
1/2+x,1/2+y,z
1/2-x,1/2-y,z
1/2+x,1/2-y,-z
1/2-x,1/2+y,-z
1/2-x,1/2-y,-z
1/2+x,1/2+y,-z
1/2-x,1/2+y,z
1/2+x,1/2-y,z
loop_
_atom_site_type_symbol
_atom_site_label
_atom_site_fract_x
_atom_site_fract_y
_atom_site_fract_z
Si Si1 0.500000 0.000000 0.272236
Si Si2 0.125094 0.184378 0.322494
Si Si3 0.955655 0.781297 0.178293
Si Si4 0.189623 0.082828 0.821302
Si Si5 0.063334 0.384723 0.822023
Si Si6 0.144183 0.348628 0.320576
Si Si7 0.727417 0.083952 0.321672
O O1 0.534583 0.061702 0.262028
O O2 0.125577 0.174113 0.500000
O O3 0.080342 0.180667 0.261144
O O4 0.154584 0.129565 0.245675
O O5 0.139617 0.264863 0.291032
O O6 0.950390 0.696585 0.201447
O O7 0.000000 0.801686 0.226434
O O8 0.952183 0.793110 0.000000
O O9 0.232438 0.106997 0.759777
O O10 0.185029 0.000000 0.777891
O O11 0.189337 0.087240 0.000000
O O12 0.108420 0.387599 0.764533
O O13 0.060288 0.400222 0.000000
O O14 0.139651 0.359768 0.500000
O O15 0.187441 0.376073 0.275586
O O16 0.732616 0.094082 0.500000
O O17 0.721990 0.000000 0.294241
#
# Coordination Sequence:
#
# PCOD9485551 Si02
#       7
#     4  16  16  16  16  16  16
#     4  12  21  32  49  74 105 144 191 234 273 308
#     4  10  20  34  54  79 107 138 172 212 259 311
#     4   9  17  32  52  73 101 138 177 215 257 303
#     4  10  21  37  57  81 106 130 164 210 257 314
#     4  10  19  31  48  70 100 139 183 226 265 305
#     4   9  20  36  51  74 106 139 179 222 263 307
#     4   9  18  34  54  73 101 142 179 213 258 308
#
# _framework density 17.593284000000001
#
# number of rings (size 3 to 8) (size 9 to 14) (size 15 to 20)
#    0.000    2.400    0.800    1.680    1.120    3.200 
#    0.000    4.000    0.000    0.480    0.000    3.360 
#    0.000    0.000    0.000    0.000    0.000    0.000 
#
# Total GULP energy -278474.543999 kJ/mol
# GULP energy per Si atom -5569.490880 kJ/mol
# Density = 1.755324 g / cm^3
# Si number density = 17.593284 Si / 1000 Ang^3
#
#
#
# Elastic Constant Matrix: (Units=GPa)
#
#
# Indices 1 2 3 4 5 6 
#
# 1 193.2826 65.5739 50.1558 0.0000 0.0000 0.0000
# 2 65.5739 41.3108 27.0286 0.0000 0.0000 0.0000
# 3 50.1558 27.0286 20.8121 0.0000 0.0000 0.0000
# 4 0.0000 0.0000 0.0000 6.4492 0.0000 0.0000
# 5 0.0000 0.0000 0.0000 0.0000 22.4636 0.0000
# 6 0.0000 0.0000 0.0000 0.0000 0.0000 40.3074
#
#
#
# Elastic Compliance Matrix: (Units=1/GPa)
#
#
# Indices 1 2 3 4 5 6 
#
# 1 0.013816 -0.000972 -0.032033 0.000000 0.000000 0.000000
# 2 -0.000972 0.161128 -0.206914 0.000000 0.000000 0.000000
# 3 -0.032033 -0.206914 0.393965 0.000000 0.000000 0.000000
# 4 0.000000 0.000000 0.000000 0.155059 0.000000 0.000000
# 5 0.000000 0.000000 0.000000 0.000000 0.044517 0.000000
# 6 0.000000 0.000000 0.000000 0.000000 0.000000 0.024809
#
#
# Mechanical properties :
#
#
# Convention : Reuss Voigt Hill
#
# Bulk Modulus (GPa) = 11.22700 60.10246 35.66473
# Shear Modulus (GPa) = 3.83782 21.35384 12.59583
#
# Velocity S-wave (km/s) = 1.47856 3.48767 2.67862
# Velocity P-wave (km/s) = 3.05125 7.10315 5.46648
#
# Compressibility (1/GPa) = 0.08907102
#
# Stress axis : x y z
#
# Youngs Moduli (GPa) = 72.37963 6.20625 2.53830
#
# Poissons Ratio (x) = 0.00603 0.08131
# Poissons Ratio (y) = 0.07035 0.52521
# Poissons Ratio (z) = 2.31857 1.28416
#
# Static dielectric constant tensor:
#      x y z
#    x 1.584300 0.000000 0.000000 
#    y 0.000000 1.580140 0.000000 
#    z 0.000000 0.000000 1.605510 
# 
# From -- ./inp_files/12843.got.cif
#   From: 2010.05.17/outbox.cif.g08.bks.cpg/sg65_7_cif.got.tgz:12843.got - 2010.06.03 17:01:31.
