data_PCOD9485372
_publ_section_title
;
Structure prediction by ZEFSAII (Michael W. Deem and Ramdas Pophale) SiO2 
 PCOD9485372
Probable space group: C M M M
;
_chemical_formula_sum "Si O2"
_cell_formula_units_Z 72
_cell_length_a 13.981851
_cell_length_b 21.673360
_cell_length_c 14.225050
_cell_angle_alpha 90.000000
_cell_angle_beta 90.000000
_cell_angle_gamma 90.000000
_cell_volume 4310.669395
_symmetry_space_group_name_H-M "C M M M"
_symmetry_group_IT_number 65
_symmetry_cell_setting 'orthorhombic'
loop_
_space_group_symop_operation_xyz
x,y,z
-x,-y,z
x,-y,-z
-x,y,-z
-x,-y,-z
x,y,-z
-x,y,z
x,-y,z
1/2+x,1/2+y,z
1/2-x,1/2-y,z
1/2+x,1/2-y,-z
1/2-x,1/2+y,-z
1/2-x,1/2-y,-z
1/2+x,1/2+y,-z
1/2-x,1/2+y,z
1/2+x,1/2-y,z
loop_
_atom_site_type_symbol
_atom_site_label
_atom_site_fract_x
_atom_site_fract_y
_atom_site_fract_z
Si Si1 0.740207 0.616421 0.110949
Si Si2 0.771311 0.823469 0.394433
Si Si3 0.890734 0.000000 0.886134
Si Si4 0.891393 0.798179 0.781055
Si Si5 0.389848 0.151159 0.743398
O O1 0.670342 0.560251 0.139270
O O2 0.681412 0.677426 0.140785
O O3 0.836574 0.616389 0.171942
O O4 0.758181 0.614025 0.000000
O O5 0.792608 0.844774 0.500000
O O6 0.750000 0.750000 0.399451
O O7 0.855155 0.827770 0.317251
O O8 0.677532 0.854362 0.348282
O O9 0.000000 0.000000 0.850655
O O10 0.896258 0.000000 0.000000
O O11 0.887357 0.724329 0.769232
O O12 0.000000 0.815833 0.802817
O O13 0.500000 0.133704 0.729441
#
# Coordination Sequence:
#
# PCOD9485372 Si02
#       5
#    16  16   8  16  16
#     4  10  19  31  46  64  88 117 149 185 221 260
#     4   8  14  25  41  62  89 119 148 178 214 258
#     4   9  18  32  49  67  84 107 145 189 229 267
#     4   9  17  28  43  66  94 120 147 181 221 265
#     4   9  18  30  43  64  93 121 150 182 217 261
#
# _framework density 16.702742000000001
#
# number of rings (size 3 to 8) (size 9 to 14) (size 15 to 20)
#    0.000    3.000    0.000    2.667    0.000    4.444 
#    0.000    7.222    0.000    2.000    0.000   12.444 
#    0.000   28.444    0.000    0.000    0.000    0.000 
#
# Total GULP energy -200403.045209 kJ/mol
# GULP energy per Si atom -5566.751256 kJ/mol
# Density = 1.666473 g / cm^3
# Si number density = 16.702742 Si / 1000 Ang^3
#
#
#
# Elastic Constant Matrix: (Units=GPa)
#
#
# Indices 1 2 3 4 5 6 
#
# 1 96.1889 8.9510 23.0595 0.0000 0.0000 0.0000
# 2 8.9510 19.4009 7.6953 0.0000 0.0000 0.0000
# 3 23.0595 7.6953 81.1672 0.0000 0.0000 0.0000
# 4 0.0000 0.0000 0.0000 4.5017 0.0000 0.0000
# 5 0.0000 0.0000 0.0000 0.0000 10.4150 0.0000
# 6 0.0000 0.0000 0.0000 0.0000 0.0000 15.6195
#
#
#
# Elastic Compliance Matrix: (Units=1/GPa)
#
#
# Indices 1 2 3 4 5 6 
#
# 1 0.011470 -0.004156 -0.002865 0.000000 0.000000 0.000000
# 2 -0.004156 0.055064 -0.004040 0.000000 0.000000 0.000000
# 3 -0.002865 -0.004040 0.013517 0.000000 0.000000 0.000000
# 4 0.000000 0.000000 0.000000 0.222140 0.000000 0.000000
# 5 0.000000 0.000000 0.000000 0.000000 0.096015 0.000000
# 6 0.000000 0.000000 0.000000 0.000000 0.000000 0.064023
#
#
# Mechanical properties :
#
#
# Convention : Reuss Voigt Hill
#
# Bulk Modulus (GPa) = 17.26206 30.68538 23.97372
# Shear Modulus (GPa) = 9.92736 16.57731 13.25233
#
# Velocity S-wave (km/s) = 2.44058 3.15380 2.81983
# Velocity P-wave (km/s) = 4.27776 5.62790 4.99863
#
# Compressibility (1/GPa) = 0.05793050
#
# Stress axis : x y z
#
# Youngs Moduli (GPa) = 87.18683 18.16080 73.98057
#
# Poissons Ratio (x) = 0.07547 0.21192
# Poissons Ratio (y) = 0.36231 0.29887
# Poissons Ratio (z) = 0.24975 0.07337
#
# Static dielectric constant tensor:
#      x y z
#    x 1.570440 0.000000 0.000000 
#    y 0.000000 1.585700 0.000000 
#    z 0.000000 0.000000 1.561900 
# 
# From -- ./inp_files/30317.got.cif
#   From: 2010.05.17/outbox.cif.g08.bks.cpg/sg65_16_cif.got.tgz:30317.got - 2010.06.03 17:01:31.
