data_PCOD9485833
_publ_section_title
;
Structure prediction by ZEFSAII (Michael W. Deem and Ramdas Pophale) SiO2 
 PCOD9485833
Probable space group: C M M M
;
_chemical_formula_sum "Si O2"
_cell_formula_units_Z 80
_cell_length_a 27.036388
_cell_length_b 17.770852
_cell_length_c 8.772665
_cell_angle_alpha 90.000000
_cell_angle_beta 90.000000
_cell_angle_gamma 90.000000
_cell_volume 4214.911553
_symmetry_space_group_name_H-M "C M M M"
_symmetry_group_IT_number 65
_symmetry_cell_setting 'orthorhombic'
loop_
_space_group_symop_operation_xyz
x,y,z
-x,-y,z
x,-y,-z
-x,y,-z
-x,-y,-z
x,y,-z
-x,y,z
x,-y,z
1/2+x,1/2+y,z
1/2-x,1/2-y,z
1/2+x,1/2-y,-z
1/2-x,1/2+y,-z
1/2-x,1/2-y,-z
1/2+x,1/2+y,-z
1/2-x,1/2+y,z
1/2+x,1/2-y,z
loop_
_atom_site_type_symbol
_atom_site_label
_atom_site_fract_x
_atom_site_fract_y
_atom_site_fract_z
Si Si1 0.656478 0.631351 0.818128
Si Si2 0.554196 0.379898 0.320298
Si Si3 0.340123 0.798822 0.316473
Si Si4 0.052742 0.302617 0.319075
Si Si5 0.734972 0.917086 0.816761
O O1 0.605155 0.596482 0.757814
O O2 0.663502 0.714848 0.749327
O O3 0.706929 0.588672 0.778629
O O4 0.652902 0.636783 0.000000
O O5 0.556754 0.397208 0.500000
O O6 0.500000 0.406063 0.263551
O O7 0.553793 0.288499 0.305635
O O8 0.340333 0.794304 0.500000
O O9 0.394021 0.829652 0.262317
O O10 0.296366 0.851673 0.260489
O O11 0.051574 0.318825 0.500000
O O12 0.000000 0.328632 0.252635
O O13 0.716520 0.000000 0.773154
O O14 0.731066 0.909042 0.000000
#
# Coordination Sequence:
#
# PCOD9485833 Si02
#       5
#    16  16  16  16  16
#     4  10  19  31  50  74  98 127 164 202 242 291
#     4   8  14  26  45  70 100 129 155 191 241 288
#     4  10  19  31  51  77 100 124 159 201 244 293
#     4   7  11  22  41  66  95 122 146 178 225 278
#     4  10  22  38  51  65  93 132 168 205 250 294
#
# _framework density 18.980232999999998
#
# number of rings (size 3 to 8) (size 9 to 14) (size 15 to 20)
#    0.000    3.000    0.000    4.200    0.000    4.800 
#    0.000    0.000    0.000    3.000    0.000    8.400 
#    0.000    0.000    0.000    0.000    0.000    0.000 
#
# Total GULP energy -222777.855984 kJ/mol
# GULP energy per Si atom -5569.446400 kJ/mol
# Density = 1.893703 g / cm^3
# Si number density = 18.980233 Si / 1000 Ang^3
#
#
#
# Elastic Constant Matrix: (Units=GPa)
#
#
# Indices 1 2 3 4 5 6 
#
# 1 141.5130 35.9638 36.4095 0.0000 0.0000 0.0000
# 2 35.9638 50.4165 16.2178 0.0000 0.0000 0.0000
# 3 36.4095 16.2178 26.0471 0.0000 0.0000 0.0000
# 4 0.0000 0.0000 0.0000 -21.1891 0.0000 0.0000
# 5 0.0000 0.0000 0.0000 0.0000 -2.9786 0.0000
# 6 0.0000 0.0000 0.0000 0.0000 0.0000 -15.0234
#
#
#
# Elastic Compliance Matrix: (Units=1/GPa)
#
#
# Indices 1 2 3 4 5 6 
#
# 1 0.011596 -0.003824 -0.013829 0.000000 0.000000 0.000000
# 2 -0.003824 0.026063 -0.010883 0.000000 0.000000 0.000000
# 3 -0.013829 -0.010883 0.064499 0.000000 0.000000 0.000000
# 4 0.000000 0.000000 0.000000 -0.047194 0.000000 0.000000
# 5 0.000000 0.000000 0.000000 0.000000 -0.335723 0.000000
# 6 0.000000 0.000000 0.000000 0.000000 0.000000 -0.066563
#
#
# Mechanical properties :
#
#
# Convention : Reuss Voigt Hill
#
# Bulk Modulus (GPa) = 22.17941 43.90654 33.04297
# Shear Modulus (GPa) = -18.16713 0.78747 -8.68983
#
# Velocity S-wave (km/s) = -3.09716 0.64482 -2.14203
# Velocity P-wave (km/s) = 1.03872 4.87210 3.36589
#
# Compressibility (1/GPa) = 0.04508687
#
# Stress axis : x y z
#
# Youngs Moduli (GPa) = 86.23521 38.36847 15.50418
#
# Poissons Ratio (x) = 0.14670 0.21441
# Poissons Ratio (y) = 0.32972 0.16873
# Poissons Ratio (z) = 1.19254 0.41757
#
# Static dielectric constant tensor:
#      x y z
#    x 1.728540 0.000000 0.000000 
#    y 0.000000 1.625110 0.000000 
#    z 0.000000 0.000000 1.634010 
# 
# From -- ./inp_files/9649.got.cif
#   From: 2010.05.17/outbox.cif.g08.bks.cpg/sg65_5_cif.got.tgz:9649.got - 2010.06.03 17:01:31.
