data_PCOD9485452
_publ_section_title
;
Structure prediction by ZEFSAII (Michael W. Deem and Ramdas Pophale) SiO2 
 PCOD9485452
Probable space group: C M M M
;
_chemical_formula_sum "Si O2"
_cell_formula_units_Z 120
_cell_length_a 29.526646
_cell_length_b 8.716215
_cell_length_c 29.090046
_cell_angle_alpha 90.000000
_cell_angle_beta 90.000000
_cell_angle_gamma 90.000000
_cell_volume 7486.631540
_symmetry_space_group_name_H-M "C M M M"
_symmetry_group_IT_number 65
_symmetry_cell_setting 'orthorhombic'
loop_
_space_group_symop_operation_xyz
x,y,z
-x,-y,z
x,-y,-z
-x,y,-z
-x,-y,-z
x,y,-z
-x,y,z
x,-y,z
1/2+x,1/2+y,z
1/2-x,1/2-y,z
1/2+x,1/2-y,-z
1/2-x,1/2+y,-z
1/2-x,1/2-y,-z
1/2+x,1/2+y,-z
1/2-x,1/2+y,z
1/2+x,1/2-y,z
loop_
_atom_site_type_symbol
_atom_site_label
_atom_site_fract_x
_atom_site_fract_y
_atom_site_fract_z
Si Si1 0.300723 0.815499 0.500000
Si Si2 0.198995 0.315737 0.399253
Si Si3 0.551594 0.684469 0.831117
Si Si4 0.949785 0.813540 0.723279
Si Si5 0.199379 0.184324 0.219843
Si Si6 0.299508 0.316487 0.946481
Si Si7 0.354351 0.314664 0.686851
Si Si8 0.142512 0.682210 0.865489
O O1 0.250000 0.750000 0.500000
O O2 0.319738 0.769982 0.549942
O O3 0.298830 0.000000 0.500000
O O4 0.201487 0.500000 0.396977
O O5 0.250000 0.250000 0.394833
O O6 0.168579 0.253923 0.358116
O O7 0.500000 0.721483 0.844766
O O8 0.557214 0.500000 0.834237
O O9 0.556555 0.725812 0.777077
O O10 0.590739 0.765865 0.859257
O O11 0.906114 0.762143 0.694963
O O12 0.000000 0.760811 0.708724
O O13 0.950128 0.000000 0.721651
O O14 0.250000 0.250000 0.219049
O O15 0.174485 0.225968 0.267605
O O16 0.170677 0.247831 0.177183
O O17 0.200723 0.000000 0.216766
O O18 0.298487 0.500000 0.941740
O O19 0.250000 0.250000 0.934716
O O20 0.335845 0.246557 0.912071
O O21 0.308468 0.278758 0.000000
O O22 0.354034 0.500000 0.683529
O O23 0.146313 0.500000 0.864333
#
# Coordination Sequence:
#
# PCOD9485452 Si02
#       8
#     8  16  16  16  16  16  16  16
#     4   8  16  30  46  64  87 120 161 203 244 287
#     4  10  19  31  47  67  94 127 163 202 244 292
#     4   9  17  33  56  77  99 131 170 208 247 294
#     4   8  14  28  50  72  94 124 162 201 241 286
#     4  11  22  35  48  67  99 136 171 203 239 292
#     4  10  21  38  59  80 103 132 169 211 253 298
#     4  10  19  31  48  71  98 128 161 200 244 291
#     4  12  23  34  52  77 106 136 167 205 249 295
#
# _framework density 16.028569999999998
#
# number of rings (size 3 to 8) (size 9 to 14) (size 15 to 20)
#    0.000    2.133    1.333    4.000    0.000    3.733 
#    0.000    0.000    0.000    0.800    0.000    3.267 
#    0.000    3.733    0.000    0.000    0.000    0.000 
#
# Total GULP energy -334688.403923 kJ/mol
# GULP energy per Si atom -5578.140065 kJ/mol
# Density = 1.599209 g / cm^3
# Si number density = 16.028570 Si / 1000 Ang^3
#
#
#
# Elastic Constant Matrix: (Units=GPa)
#
#
# Indices 1 2 3 4 5 6 
#
# 1 132.1857 40.6704 76.8173 0.0000 0.0000 0.0000
# 2 40.6704 41.9984 40.6257 0.0000 0.0000 0.0000
# 3 76.8173 40.6257 106.8105 0.0000 0.0000 0.0000
# 4 0.0000 0.0000 0.0000 20.5575 0.0000 0.0000
# 5 0.0000 0.0000 0.0000 0.0000 7.5385 0.0000
# 6 0.0000 0.0000 0.0000 0.0000 0.0000 23.0521
#
#
#
# Elastic Compliance Matrix: (Units=1/GPa)
#
#
# Indices 1 2 3 4 5 6 
#
# 1 0.013889 -0.005992 -0.007710 0.000000 0.000000 0.000000
# 2 -0.005992 0.040255 -0.011002 0.000000 0.000000 0.000000
# 3 -0.007710 -0.011002 0.019092 0.000000 0.000000 0.000000
# 4 0.000000 0.000000 0.000000 0.048644 0.000000 0.000000
# 5 0.000000 0.000000 0.000000 0.000000 0.132652 0.000000
# 6 0.000000 0.000000 0.000000 0.000000 0.000000 0.043380
#
#
# Mechanical properties :
#
#
# Convention : Reuss Voigt Hill
#
# Bulk Modulus (GPa) = 41.96608 66.35793 54.16200
# Shear Modulus (GPa) = 14.07410 18.42171 16.24790
#
# Velocity S-wave (km/s) = 2.96643 3.39382 3.18729
# Velocity P-wave (km/s) = 6.16213 7.53969 6.88545
#
# Compressibility (1/GPa) = 0.02382877
#
# Stress axis : x y z
#
# Youngs Moduli (GPa) = 71.99836 24.84155 52.37860
#
# Poissons Ratio (x) = 0.14885 0.40383
# Poissons Ratio (y) = 0.43142 0.57625
# Poissons Ratio (z) = 0.55510 0.27330
#
# Static dielectric constant tensor:
#      x y z
#    x 1.527380 0.000000 0.000000 
#    y 0.000000 1.541800 0.000000 
#    z 0.000000 0.000000 1.533750 
# 
# From -- ./inp_files/76150.got.cif
#   From: 2010.05.17/outbox.cif.g08.bks.cpg/sg65_39_cif.got.tgz:76150.got - 2010.06.03 17:01:31.
