data_PCOD9485449
_publ_section_title
;
Structure prediction by ZEFSAII (Michael W. Deem and Ramdas Pophale) SiO2 
 PCOD9485449
Probable space group: C M M M
;
_chemical_formula_sum "Si O2"
_cell_formula_units_Z 88
_cell_length_a 20.783956
_cell_length_b 13.927633
_cell_length_c 17.973742
_cell_angle_alpha 90.000000
_cell_angle_beta 90.000000
_cell_angle_gamma 90.000000
_cell_volume 5202.882669
_symmetry_space_group_name_H-M "C M M M"
_symmetry_group_IT_number 65
_symmetry_cell_setting 'orthorhombic'
loop_
_space_group_symop_operation_xyz
x,y,z
-x,-y,z
x,-y,-z
-x,y,-z
-x,-y,-z
x,y,-z
-x,y,z
x,-y,z
1/2+x,1/2+y,z
1/2-x,1/2-y,z
1/2+x,1/2-y,-z
1/2-x,1/2+y,-z
1/2-x,1/2-y,-z
1/2+x,1/2+y,-z
1/2-x,1/2+y,z
1/2+x,1/2-y,z
loop_
_atom_site_type_symbol
_atom_site_label
_atom_site_fract_x
_atom_site_fract_y
_atom_site_fract_z
Si Si1 0.675516 0.272046 0.185101
Si Si2 0.500000 0.393147 0.590061
Si Si3 0.855393 0.391203 0.294620
Si Si4 0.574189 0.387555 0.910434
Si Si5 0.795195 0.109001 0.668240
Si Si6 0.383046 0.257156 0.587035
O O1 0.750000 0.250000 0.161664
O O2 0.646390 0.174917 0.221152
O O3 0.627830 0.319446 0.125842
O O4 0.679957 0.346804 0.254095
O O5 0.500000 0.500000 0.621167
O O6 0.500000 0.399606 0.500000
O O7 0.437664 0.332907 0.609960
O O8 0.876962 0.500000 0.282194
O O9 0.781383 0.393259 0.322760
O O10 0.890623 0.334820 0.360633
O O11 0.500000 0.364510 0.888171
O O12 0.585841 0.500000 0.890925
O O13 0.577208 0.380694 0.000000
O O14 0.818351 0.183901 0.606245
O O15 0.817682 0.000000 0.654572
O O16 0.387562 0.234728 0.500000
#
# Coordination Sequence:
#
# PCOD9485449 Si02
#       6
#    16   8  16  16  16  16
#     4   9  17  31  52  74 102 138 175 211 245 293
#     4   9  18  32  47  63  87 117 147 190 250 305
#     4   9  19  34  49  67  95 130 166 206 249 287
#     4   9  18  33  54  82 114 139 159 197 257 314
#     4   9  17  30  48  71  98 126 158 203 255 300
#     4  10  19  31  47  67  93 125 162 205 253 303
#
# _framework density 16.913701
#
# number of rings (size 3 to 8) (size 9 to 14) (size 15 to 20)
#    0.000    2.818    0.000    3.273    0.000    4.000 
#    6.545    2.273    0.000    2.182    0.000    1.273 
#    0.000    0.000    0.000    0.000    0.000    0.000 
#
# Total GULP energy -245060.668012 kJ/mol
# GULP energy per Si atom -5569.560637 kJ/mol
# Density = 1.687520 g / cm^3
# Si number density = 16.913701 Si / 1000 Ang^3
#
#
#
# Elastic Constant Matrix: (Units=GPa)
#
#
# Indices 1 2 3 4 5 6 
#
# 1 63.5513 45.1709 40.5532 0.0000 0.0000 0.0000
# 2 45.1709 141.1818 44.2570 0.0000 0.0000 0.0000
# 3 40.5532 44.2570 49.9460 0.0000 0.0000 0.0000
# 4 0.0000 0.0000 0.0000 21.2550 0.0000 0.0000
# 5 0.0000 0.0000 0.0000 0.0000 10.4074 0.0000
# 6 0.0000 0.0000 0.0000 0.0000 0.0000 14.0527
#
#
#
# Elastic Compliance Matrix: (Units=1/GPa)
#
#
# Indices 1 2 3 4 5 6 
#
# 1 0.033571 -0.003041 -0.024563 0.000000 0.000000 0.000000
# 2 -0.003041 0.010083 -0.006465 0.000000 0.000000 0.000000
# 3 -0.024563 -0.006465 0.045694 0.000000 0.000000 0.000000
# 4 0.000000 0.000000 0.000000 0.047048 0.000000 0.000000
# 5 0.000000 0.000000 0.000000 0.000000 0.096085 0.000000
# 6 0.000000 0.000000 0.000000 0.000000 0.000000 0.071161
#
#
# Mechanical properties :
#
#
# Convention : Reuss Voigt Hill
#
# Bulk Modulus (GPa) = 47.14885 57.18238 52.16561
# Shear Modulus (GPa) = 13.19788 17.45622 15.32705
#
# Velocity S-wave (km/s) = 2.79643 3.21608 3.01357
# Velocity P-wave (km/s) = 6.19381 6.90453 6.55881
#
# Compressibility (1/GPa) = 0.02120942
#
# Stress axis : x y z
#
# Youngs Moduli (GPa) = 29.78779 99.17975 21.88481
#
# Poissons Ratio (x) = 0.30162 0.53755
# Poissons Ratio (y) = 0.09059 0.14149
# Poissons Ratio (z) = 0.73167 0.64120
#
# Static dielectric constant tensor:
#      x y z
#    x 1.622530 0.000000 0.000000 
#    y 0.000000 1.587170 0.000000 
#    z 0.000000 0.000000 1.552500 
# 
# From -- ./inp_files/54298.got.cif
#   From: 2010.05.17/outbox.cif.g08.bks.cpg/sg65_28_cif.got.tgz:54298.got - 2010.06.03 17:01:31.
