data_PCOD9485499
_publ_section_title
;
Structure prediction by ZEFSAII (Michael W. Deem and Ramdas Pophale) SiO2 
 PCOD9485499
Probable space group: C M M M
;
_chemical_formula_sum "Si O2"
_cell_formula_units_Z 96
_cell_length_a 29.293357
_cell_length_b 19.495771
_cell_length_c 10.092253
_cell_angle_alpha 90.000000
_cell_angle_beta 90.000000
_cell_angle_gamma 90.000000
_cell_volume 5763.651172
_symmetry_space_group_name_H-M "C M M M"
_symmetry_group_IT_number 65
_symmetry_cell_setting 'orthorhombic'
loop_
_space_group_symop_operation_xyz
x,y,z
-x,-y,z
x,-y,-z
-x,y,-z
-x,-y,-z
x,y,-z
-x,y,z
x,-y,z
1/2+x,1/2+y,z
1/2-x,1/2-y,z
1/2+x,1/2-y,-z
1/2-x,1/2+y,-z
1/2-x,1/2-y,-z
1/2+x,1/2+y,-z
1/2-x,1/2+y,z
1/2+x,1/2-y,z
loop_
_atom_site_type_symbol
_atom_site_label
_atom_site_fract_x
_atom_site_fract_y
_atom_site_fract_z
Si Si1 0.207010 0.201475 0.654218
Si Si2 0.124516 0.691342 0.346375
Si Si3 0.164523 0.579561 0.153625
Si Si4 0.774476 0.920786 0.155360
Si Si5 0.444324 0.577334 0.152141
Si Si6 0.945349 0.197752 0.346216
O O1 0.213229 0.180767 0.500000
O O2 0.250000 0.250000 0.690797
O O3 0.162887 0.249465 0.663612
O O4 0.204429 0.135909 0.748856
O O5 0.122871 0.668906 0.500000
O O6 0.138749 0.630062 0.251502
O O7 0.077906 0.730337 0.310827
O O8 0.152726 0.500000 0.176928
O O9 0.219401 0.585329 0.170485
O O10 0.154687 0.595992 0.000000
O O11 0.786817 0.000000 0.185705
O O12 0.785101 0.908514 0.000000
O O13 0.500000 0.577226 0.154018
O O14 0.429753 0.500000 0.188604
O O15 0.429144 0.636233 0.251944
O O16 0.430457 0.590456 0.000000
O O17 0.933440 0.183325 0.500000
O O18 0.000000 0.202061 0.336707
#
# Coordination Sequence:
#
# PCOD9485499 Si02
#       6
#    16  16  16  16  16  16
#     4  10  19  31  47  70  98 126 155 191 234 282
#     4  10  20  33  49  72  99 125 158 197 236 283
#     4   9  18  32  50  73  98 123 156 196 234 278
#     4   9  18  32  49  70  97 129 163 196 231 276
#     4   8  14  26  45  68  92 118 152 195 238 279
#     4   9  18  32  49  69  94 125 161 201 241 280
#
# _framework density 16.656109000000001
#
# number of rings (size 3 to 8) (size 9 to 14) (size 15 to 20)
#    0.000    2.833    1.667    1.500    0.000    2.667 
#    0.000    4.167    0.000    5.500    0.000    3.500 
#    0.000    0.000    0.000    0.000    0.000    0.000 
#
# Total GULP energy -267545.085293 kJ/mol
# GULP energy per Si atom -5573.855944 kJ/mol
# Density = 1.661820 g / cm^3
# Si number density = 16.656109 Si / 1000 Ang^3
#
#
#
# Elastic Constant Matrix: (Units=GPa)
#
#
# Indices 1 2 3 4 5 6 
#
# 1 13.7637 11.1722 13.5020 0.0000 0.0000 0.0000
# 2 11.1722 97.1444 76.4366 0.0000 0.0000 0.0000
# 3 13.5020 76.4366 78.3487 0.0000 0.0000 0.0000
# 4 0.0000 0.0000 0.0000 56.3139 0.0000 0.0000
# 5 0.0000 0.0000 0.0000 0.0000 14.6648 0.0000
# 6 0.0000 0.0000 0.0000 0.0000 0.0000 20.4116
#
#
#
# Elastic Compliance Matrix: (Units=1/GPa)
#
#
# Indices 1 2 3 4 5 6 
#
# 1 0.088813 0.007870 -0.022983 0.000000 0.000000 0.000000
# 2 0.007870 0.044998 -0.045256 0.000000 0.000000 0.000000
# 3 -0.022983 -0.045256 0.060875 0.000000 0.000000 0.000000
# 4 0.000000 0.000000 0.000000 0.017758 0.000000 0.000000
# 5 0.000000 0.000000 0.000000 0.000000 0.068191 0.000000
# 6 0.000000 0.000000 0.000000 0.000000 0.000000 0.048992
#
#
# Mechanical properties :
#
#
# Convention : Reuss Voigt Hill
#
# Bulk Modulus (GPa) = 13.52298 43.49761 28.51030
# Shear Modulus (GPa) = 10.52601 24.15445 17.34023
#
# Velocity S-wave (km/s) = 2.51661 3.81226 3.23007
# Velocity P-wave (km/s) = 4.07198 6.74904 5.57362
#
# Compressibility (1/GPa) = 0.07394819
#
# Stress axis : x y z
#
# Youngs Moduli (GPa) = 11.25961 22.22333 16.42697
#
# Poissons Ratio (x) = -0.17489 0.37754
# Poissons Ratio (y) = -0.08861 0.74342
# Poissons Ratio (z) = 0.25878 1.00573
#
# Static dielectric constant tensor:
#      x y z
#    x 1.589980 0.000000 0.000000 
#    y 0.000000 1.537650 0.000000 
#    z 0.000000 0.000000 1.556170 
# 
# From -- ./inp_files/16327.got.cif
#   From: 2010.05.17/outbox.cif.g08.bks.cpg/sg65_9_cif.got.tgz:16327.got - 2010.06.03 17:01:31.
