data_PCOD9485016
_publ_section_title
;
Structure prediction by ZEFSAII (Michael W. Deem and Ramdas Pophale) SiO2 
 PCOD9485016
Probable space group: C M M M
;
_chemical_formula_sum "Si O2"
_cell_formula_units_Z 120
_cell_length_a 32.759739
_cell_length_b 22.603816
_cell_length_c 7.290477
_cell_angle_alpha 90.000000
_cell_angle_beta 90.000000
_cell_angle_gamma 90.000000
_cell_volume 5398.562587
_symmetry_space_group_name_H-M "C M M M"
_symmetry_group_IT_number 65
_symmetry_cell_setting 'orthorhombic'
loop_
_space_group_symop_operation_xyz
x,y,z
-x,-y,z
x,-y,-z
-x,y,-z
-x,-y,-z
x,y,-z
-x,y,z
x,-y,z
1/2+x,1/2+y,z
1/2-x,1/2-y,z
1/2+x,1/2-y,-z
1/2-x,1/2+y,-z
1/2-x,1/2-y,-z
1/2+x,1/2+y,-z
1/2-x,1/2+y,z
1/2+x,1/2-y,z
loop_
_atom_site_type_symbol
_atom_site_label
_atom_site_fract_x
_atom_site_fract_y
_atom_site_fract_z
Si Si1 0.377239 0.209702 0.793314
Si Si2 0.715759 0.200352 0.224180
Si Si3 0.612651 0.342296 0.722319
Si Si4 0.176991 0.936090 0.721602
Si Si5 0.771572 0.434537 0.208487
Si Si6 0.546421 0.565288 0.276872
Si Si7 0.547397 0.130751 0.775059
Si Si8 0.950722 0.500000 0.793137
O O1 0.330999 0.213348 0.717097
O O2 0.390725 0.277294 0.796403
O O3 0.415511 0.172977 0.714531
O O4 0.371902 0.185883 0.000000
O O5 0.750000 0.250000 0.282128
O O6 0.720988 0.131545 0.285298
O O7 0.718088 0.201009 0.000000
O O8 0.613029 0.338765 0.500000
O O9 0.652570 0.378643 0.781158
O O10 0.575465 0.382990 0.782305
O O11 0.178612 0.934407 0.500000
O O12 0.222599 0.936260 0.793059
O O13 0.157927 0.000000 0.770211
O O14 0.784083 0.500000 0.286639
O O15 0.787596 0.433774 0.000000
O O16 0.547322 0.565006 0.500000
O O17 0.500000 0.574167 0.220669
O O18 0.559580 0.500000 0.218456
O O19 0.500000 0.144367 0.720233
O O20 0.558664 0.064065 0.713151
O O21 0.546361 0.130926 0.000000
O O22 0.000000 0.500000 0.804652
O O23 0.933726 0.500000 0.000000
#
# Coordination Sequence:
#
# PCOD9485016 Si02
#       8
#    16  16  16  16  16  16  16   8
#     4  10  20  32  46  67  92 123 159 187 225 280
#     4   9  17  30  46  63  89 124 155 184 223 272
#     4  10  19  30  45  66  92 119 150 191 230 264
#     4   9  17  29  46  68  91 115 147 188 232 274
#     4   9  17  30  48  69  91 115 147 188 231 272
#     4   8  14  26  45  67  89 116 152 190 228 272
#     4   8  14  26  44  67  94 119 146 185 231 277
#     4   7  10  20  40  64  89 115 139 171 223 275
#
# _framework density 22.228138000000001
#
# number of rings (size 3 to 8) (size 9 to 14) (size 15 to 20)
#    0.000    3.133    0.000    2.400    0.000    3.733 
#    1.200    0.667    0.000    3.600    0.000    1.400 
#    0.000    1.600    0.000    0.000    0.000    0.000 
#
# Total GULP energy -334183.756068 kJ/mol
# GULP energy per Si atom -5569.729268 kJ/mol
# Density = 2.217755 g / cm^3
# Si number density = 22.228138 Si / 1000 Ang^3
#
#
#
# Elastic Constant Matrix: (Units=GPa)
#
#
# Indices 1 2 3 4 5 6 
#
# 1 126.5808 91.2013 1.0530 0.0000 0.0000 0.0000
# 2 91.2013 206.9080 2.6790 0.0000 0.0000 0.0000
# 3 1.0530 2.6790 90.0752 0.0000 0.0000 0.0000
# 4 0.0000 0.0000 0.0000 -2.8181 0.0000 0.0000
# 5 0.0000 0.0000 0.0000 0.0000 -7.3573 0.0000
# 6 0.0000 0.0000 0.0000 0.0000 0.0000 51.4060
#
#
#
# Elastic Compliance Matrix: (Units=1/GPa)
#
#
# Indices 1 2 3 4 5 6 
#
# 1 0.011577 -0.005103 0.000016 0.000000 0.000000 0.000000
# 2 -0.005103 0.007084 -0.000151 0.000000 0.000000 0.000000
# 3 0.000016 -0.000151 0.011106 0.000000 0.000000 0.000000
# 4 0.000000 0.000000 0.000000 -0.354851 0.000000 0.000000
# 5 0.000000 0.000000 0.000000 0.000000 -0.135920 0.000000
# 6 0.000000 0.000000 0.000000 0.000000 0.000000 0.019453
#
#
# Mechanical properties :
#
#
# Convention : Reuss Voigt Hill
#
# Bulk Modulus (GPa) = 51.83518 68.15896 59.99707
# Shear Modulus (GPa) = -11.77455 30.15485 9.19015
#
# Velocity S-wave (km/s) = -2.30405 3.68721 2.03555
# Velocity P-wave (km/s) = 4.03634 6.98980 5.70742
#
# Compressibility (1/GPa) = 0.01929192
#
# Stress axis : x y z
#
# Youngs Moduli (GPa) = 86.38075 141.15661 90.04034
#
# Poissons Ratio (x) = 0.72032 -0.00148
# Poissons Ratio (y) = 0.44080 0.01360
# Poissons Ratio (z) = -0.00142 0.02132
#
# Static dielectric constant tensor:
#      x y z
#    x 1.791110 0.000000 0.000000 
#    y 0.000000 1.825190 0.000000 
#    z 0.000000 0.000000 1.905860 
# 
# From -- ./inp_files/34298.got.cif
#   From: 2010.05.17/outbox.cif.g08.bks.cpg/sg65_18_cif.got.tgz:34298.got - 2010.06.03 17:01:31.
