data_PCOD9485694
_publ_section_title
;
Structure prediction by ZEFSAII (Michael W. Deem and Ramdas Pophale) SiO2 
 PCOD9485694
Probable space group: C M M M
;
_chemical_formula_sum "Si O2"
_cell_formula_units_Z 96
_cell_length_a 8.654150
_cell_length_b 28.204748
_cell_length_c 24.326155
_cell_angle_alpha 90.000000
_cell_angle_beta 90.000000
_cell_angle_gamma 90.000000
_cell_volume 5937.725438
_symmetry_space_group_name_H-M "C M M M"
_symmetry_group_IT_number 65
_symmetry_cell_setting 'orthorhombic'
loop_
_space_group_symop_operation_xyz
x,y,z
-x,-y,z
x,-y,-z
-x,y,-z
-x,-y,-z
x,y,-z
-x,y,z
x,-y,z
1/2+x,1/2+y,z
1/2-x,1/2-y,z
1/2+x,1/2-y,-z
1/2-x,1/2+y,-z
1/2-x,1/2-y,-z
1/2+x,1/2+y,-z
1/2-x,1/2+y,z
1/2+x,1/2-y,z
loop_
_atom_site_type_symbol
_atom_site_label
_atom_site_fract_x
_atom_site_fract_y
_atom_site_fract_z
Si Si1 0.314677 0.945185 0.269035
Si Si2 0.815387 0.697718 0.226315
Si Si3 0.686406 0.302452 0.562182
Si Si4 0.185982 0.858271 0.669281
Si Si5 0.683624 0.610003 0.165182
Si Si6 0.685848 0.055069 0.063807
O O1 0.500000 0.940795 0.265817
O O2 0.251395 0.909757 0.315404
O O3 0.244219 0.926292 0.211870
O O4 0.274859 0.000000 0.278128
O O5 0.750000 0.750000 0.216839
O O6 0.748963 0.676990 0.283613
O O7 0.760188 0.660250 0.180424
O O8 0.000000 0.698534 0.229005
O O9 0.735277 0.315329 0.500000
O O10 0.500000 0.300158 0.562865
O O11 0.750000 0.250000 0.574168
O O12 0.733857 0.338612 0.609825
O O13 0.000000 0.859180 0.672536
O O14 0.500000 0.614238 0.169608
O O15 0.733120 0.589545 0.106555
O O16 0.500000 0.058950 0.069799
O O17 0.726721 0.000000 0.075336
O O18 0.723684 0.064681 0.000000
#
# Coordination Sequence:
#
# PCOD9485694 Si02
#       6
#    16  16  16  16  16  16
#     4  10  20  33  49  69  95 127 161 197 239 286
#     4  11  21  34  51  71  98 128 160 197 238 285
#     4   9  18  31  47  69  96 125 156 191 233 282
#     4  10  19  31  49  72  97 125 158 196 238 284
#     4  11  21  32  49  74 101 128 160 197 239 285
#     4   9  18  33  52  73  99 132 166 198 236 282
#
# _framework density 16.167805999999999
#
# number of rings (size 3 to 8) (size 9 to 14) (size 15 to 20)
#    0.000    2.000    0.000    7.500    0.000    6.667 
#    0.000    0.833    0.000    1.000    0.000    3.500 
#    0.000    0.000    0.000    0.000    0.000    0.000 
#
# Total GULP energy -267928.054384 kJ/mol
# GULP energy per Si atom -5581.834466 kJ/mol
# Density = 1.613101 g / cm^3
# Si number density = 16.167806 Si / 1000 Ang^3
#
#
#
# Elastic Constant Matrix: (Units=GPa)
#
#
# Indices 1 2 3 4 5 6 
#
# 1 75.2006 52.1344 34.9055 0.0000 0.0000 0.0000
# 2 52.1344 142.2319 73.3990 0.0000 0.0000 0.0000
# 3 34.9055 73.3990 89.5305 0.0000 0.0000 0.0000
# 4 0.0000 0.0000 0.0000 21.5640 0.0000 0.0000
# 5 0.0000 0.0000 0.0000 0.0000 22.3005 0.0000
# 6 0.0000 0.0000 0.0000 0.0000 0.0000 28.5092
#
#
#
# Elastic Compliance Matrix: (Units=1/GPa)
#
#
# Indices 1 2 3 4 5 6 
#
# 1 0.018231 -0.005225 -0.002824 0.000000 0.000000 0.000000
# 2 -0.005225 0.013684 -0.009181 0.000000 0.000000 0.000000
# 3 -0.002824 -0.009181 0.019798 0.000000 0.000000 0.000000
# 4 0.000000 0.000000 0.000000 0.046374 0.000000 0.000000
# 5 0.000000 0.000000 0.000000 0.000000 0.044842 0.000000
# 6 0.000000 0.000000 0.000000 0.000000 0.000000 0.035076
#
#
# Mechanical properties :
#
#
# Convention : Reuss Voigt Hill
#
# Bulk Modulus (GPa) = 57.96629 69.76012 63.86320
# Shear Modulus (GPa) = 22.91306 24.24303 23.57804
#
# Velocity S-wave (km/s) = 3.76866 3.87649 3.82296
# Velocity P-wave (km/s) = 7.40728 7.95471 7.68587
#
# Compressibility (1/GPa) = 0.01725141
#
# Stress axis : x y z
#
# Youngs Moduli (GPa) = 54.85153 73.07770 50.51141
#
# Poissons Ratio (x) = 0.38184 0.14265
# Poissons Ratio (y) = 0.28660 0.46376
# Poissons Ratio (z) = 0.15491 0.67095
#
# Static dielectric constant tensor:
#      x y z
#    x 1.544480 0.000000 0.000000 
#    y 0.000000 1.523330 0.000000 
#    z 0.000000 0.000000 1.537690 
# 
# From -- ./inp_files/68013.got.cif
#   From: 2010.05.17/outbox.cif.g08.bks.cpg/sg65_35_cif.got.tgz:68013.got - 2010.06.03 17:01:31.
