data_PCOD9485289
_publ_section_title
;
Structure prediction by ZEFSAII (Michael W. Deem and Ramdas Pophale) SiO2 
 PCOD9485289
Probable space group: C M M M
;
_chemical_formula_sum "Si O2"
_cell_formula_units_Z 64
_cell_length_a 33.013659
_cell_length_b 9.989497
_cell_length_c 11.742278
_cell_angle_alpha 90.000000
_cell_angle_beta 90.000000
_cell_angle_gamma 90.000000
_cell_volume 3872.484071
_symmetry_space_group_name_H-M "C M M M"
_symmetry_group_IT_number 65
_symmetry_cell_setting 'orthorhombic'
loop_
_space_group_symop_operation_xyz
x,y,z
-x,-y,z
x,-y,-z
-x,y,-z
-x,-y,-z
x,y,-z
-x,y,z
x,-y,z
1/2+x,1/2+y,z
1/2-x,1/2-y,z
1/2+x,1/2-y,-z
1/2-x,1/2+y,-z
1/2-x,1/2-y,-z
1/2+x,1/2+y,-z
1/2-x,1/2+y,z
1/2+x,1/2-y,z
loop_
_atom_site_type_symbol
_atom_site_label
_atom_site_fract_x
_atom_site_fract_y
_atom_site_fract_z
Si Si1 0.000000 0.341878 0.863163
Si Si2 0.453635 0.338762 0.500000
Si Si3 0.687464 0.000000 0.138315
Si Si4 0.431717 0.343503 0.752353
Si Si5 0.653773 0.284270 0.137513
Si Si6 0.220097 0.000000 0.862231
O O1 0.961473 0.258747 0.816739
O O2 0.000000 0.500000 0.829440
O O3 0.000000 0.338119 0.000000
O O4 0.455604 0.500000 0.500000
O O5 0.500000 0.288037 0.500000
O O6 0.432746 0.303900 0.619030
O O7 0.663678 0.867150 0.170559
O O8 0.733932 0.000000 0.180126
O O9 0.689485 0.000000 0.000000
O O10 0.445412 0.500000 0.762247
O O11 0.387006 0.333835 0.804074
O O12 0.692908 0.372554 0.168990
O O13 0.648938 0.293567 0.000000
O O14 0.222730 0.000000 0.000000
#
# Coordination Sequence:
#
# PCOD9485289 Si02
#       6
#     8   8   8  16  16   8
#     4  11  25  38  53  78 112 145 170 205 266 329
#     4   9  18  36  58  78  97 131 182 233 266 304
#     4   9  18  30  48  72 109 148 168 204 263 315
#     4  11  21  37  58  78 103 139 181 225 264 304
#     4  10  19  30  49  78 109 138 173 214 260 319
#     4   9  16  30  48  74 105 138 180 212 249 315
#
# _framework density 16.526859000000002
#
# number of rings (size 3 to 8) (size 9 to 14) (size 15 to 20)
#    0.000    2.000    2.500    1.875    1.750    5.000 
#    0.000    1.250    0.000    0.000    0.000    5.250 
#    0.000    0.000    0.000    0.000    0.000    0.000 
#
# Total GULP energy -178365.299941 kJ/mol
# GULP energy per Si atom -5573.915623 kJ/mol
# Density = 1.648924 g / cm^3
# Si number density = 16.526859 Si / 1000 Ang^3
#
#
#
# Elastic Constant Matrix: (Units=GPa)
#
#
# Indices 1 2 3 4 5 6 
#
# 1 80.6358 27.5341 33.0049 0.0000 0.0000 0.0000
# 2 27.5341 115.3768 31.0545 0.0000 0.0000 0.0000
# 3 33.0049 31.0545 70.4894 0.0000 0.0000 0.0000
# 4 0.0000 0.0000 0.0000 10.9265 0.0000 0.0000
# 5 0.0000 0.0000 0.0000 0.0000 -3.1102 0.0000
# 6 0.0000 0.0000 0.0000 0.0000 0.0000 17.5129
#
#
#
# Elastic Compliance Matrix: (Units=1/GPa)
#
#
# Indices 1 2 3 4 5 6 
#
# 1 0.015743 -0.002011 -0.006485 0.000000 0.000000 0.000000
# 2 -0.002011 0.010090 -0.003504 0.000000 0.000000 0.000000
# 3 -0.006485 -0.003504 0.018766 0.000000 0.000000 0.000000
# 4 0.000000 0.000000 0.000000 0.091520 0.000000 0.000000
# 5 0.000000 0.000000 0.000000 0.000000 -0.321519 0.000000
# 6 0.000000 0.000000 0.000000 0.000000 0.000000 0.057101
#
#
# Mechanical properties :
#
#
# Convention : Reuss Voigt Hill
#
# Bulk Modulus (GPa) = 48.54479 49.96545 49.25512
# Shear Modulus (GPa) = -51.31773 16.72640 -17.29566
#
# Velocity S-wave (km/s) = -5.57840 3.18476 -3.23850
# Velocity P-wave (km/s) = 3.47193 6.61983 3.98546
#
# Compressibility (1/GPa) = 0.02059953
#
# Stress axis : x y z
#
# Youngs Moduli (GPa) = 63.52194 99.10533 53.28664
#
# Poissons Ratio (x) = 0.19934 0.34556
# Poissons Ratio (y) = 0.12777 0.18669
# Poissons Ratio (z) = 0.41194 0.34722
#
# Static dielectric constant tensor:
#      x y z
#    x 1.543550 0.000000 0.000000 
#    y 0.000000 1.580800 0.000000 
#    z 0.000000 0.000000 1.535880 
# 
# From -- ./inp_files/33311.got.cif
#   From: 2010.05.17/outbox.cif.g08.bks.cpg/sg65_17_cif.got.tgz:33311.got - 2010.06.03 17:01:31.
