data_PCOD9485117
_publ_section_title
;
Structure prediction by ZEFSAII (Michael W. Deem and Ramdas Pophale) SiO2 
 PCOD9485117
Probable space group: C M M M
;
_chemical_formula_sum "Si O2"
_cell_formula_units_Z 92
_cell_length_a 8.932193
_cell_length_b 24.001923
_cell_length_c 25.674285
_cell_angle_alpha 90.000000
_cell_angle_beta 90.000000
_cell_angle_gamma 90.000000
_cell_volume 5504.305047
_symmetry_space_group_name_H-M "C M M M"
_symmetry_group_IT_number 65
_symmetry_cell_setting 'orthorhombic'
loop_
_space_group_symop_operation_xyz
x,y,z
-x,-y,z
x,-y,-z
-x,y,-z
-x,-y,-z
x,y,-z
-x,y,z
x,-y,z
1/2+x,1/2+y,z
1/2-x,1/2-y,z
1/2+x,1/2-y,-z
1/2-x,1/2+y,-z
1/2-x,1/2-y,-z
1/2+x,1/2+y,-z
1/2-x,1/2+y,z
1/2+x,1/2-y,z
loop_
_atom_site_type_symbol
_atom_site_label
_atom_site_fract_x
_atom_site_fract_y
_atom_site_fract_z
Si Si1 0.676833 0.401649 0.179191
Si Si2 0.826806 0.432065 0.500000
Si Si3 0.680541 0.000000 0.113357
Si Si4 0.672341 0.567765 0.607131
Si Si5 0.167871 0.370426 0.000000
Si Si6 0.725377 0.000000 0.000000
Si Si7 0.823136 0.567026 0.715466
Si Si8 0.823620 0.189589 0.096026
O O1 0.500000 0.416152 0.176369
O O2 0.774134 0.446640 0.147206
O O3 0.732956 0.403915 0.238238
O O4 0.697778 0.342935 0.150285
O O5 0.822928 0.500000 0.500000
O O6 0.745719 0.413612 0.447086
O O7 0.000000 0.415522 0.500000
O O8 0.500000 0.000000 0.101533
O O9 0.779615 0.000000 0.060260
O O10 0.500000 0.585406 0.610898
O O11 0.673819 0.500000 0.606072
O O12 0.763851 0.583833 0.658571
O O13 0.252307 0.348179 0.050725
O O14 0.158727 0.437412 0.000000
O O15 0.000000 0.347595 0.000000
O O16 0.799805 0.500000 0.720871
O O17 0.000000 0.577298 0.720219
O O18 0.750000 0.250000 0.095785
O O19 0.000000 0.194700 0.086124
#
# Coordination Sequence:
#
# PCOD9485117 Si02
#       8
#    16   8   8  16   8   4  16  16
#     4  11  23  37  54  77 103 131 166 209 257 305
#     4   9  15  23  35  53  81 119 166 213 250 293
#     4  12  22  37  56  79 106 134 167 201 251 310
#     4   9  16  25  38  57  85 123 165 209 253 295
#     4  12  23  40  62  84 110 137 166 205 249 304
#     4  12  25  38  59  88 113 138 167 202 255 308
#     4  10  19  30  46  69  96 129 167 205 251 304
#     4  11  25  43  60  80 102 133 171 210 255 305
#
# _framework density 16.714189999999999
#
# number of rings (size 3 to 8) (size 9 to 14) (size 15 to 20)
#    0.000    1.478    2.609    3.913    0.000    5.913 
#    0.000    1.739    0.000    0.000    0.000    0.000 
#    0.000    0.000    0.000    0.783    0.000   10.696 
#
# Total GULP energy -256545.471131 kJ/mol
# GULP energy per Si atom -5577.075459 kJ/mol
# Density = 1.667615 g / cm^3
# Si number density = 16.714190 Si / 1000 Ang^3
#
#
#
# Elastic Constant Matrix: (Units=GPa)
#
#
# Indices 1 2 3 4 5 6 
#
# 1 101.0979 39.2964 52.7669 0.0000 0.0000 0.0000
# 2 39.2964 69.0332 29.2368 0.0000 0.0000 0.0000
# 3 52.7669 29.2368 141.8530 0.0000 0.0000 0.0000
# 4 0.0000 0.0000 0.0000 3.1044 0.0000 0.0000
# 5 0.0000 0.0000 0.0000 0.0000 25.9354 0.0000
# 6 0.0000 0.0000 0.0000 0.0000 0.0000 9.4109
#
#
#
# Elastic Compliance Matrix: (Units=1/GPa)
#
#
# Indices 1 2 3 4 5 6 
#
# 1 0.014567 -0.006571 -0.004064 0.000000 0.000000 0.000000
# 2 -0.006571 0.018835 -0.001438 0.000000 0.000000 0.000000
# 3 -0.004064 -0.001438 0.008858 0.000000 0.000000 0.000000
# 4 0.000000 0.000000 0.000000 0.322123 0.000000 0.000000
# 5 0.000000 0.000000 0.000000 0.000000 0.038557 0.000000
# 6 0.000000 0.000000 0.000000 0.000000 0.000000 0.106260
#
#
# Mechanical properties :
#
#
# Convention : Reuss Voigt Hill
#
# Bulk Modulus (GPa) = 55.20632 61.62047 58.41339
# Shear Modulus (GPa) = 9.26983 20.40241 14.83612
#
# Velocity S-wave (km/s) = 2.35757 3.49759 2.98255
# Velocity P-wave (km/s) = 6.36492 7.29781 6.84727
#
# Compressibility (1/GPa) = 0.01811387
#
# Stress axis : x y z
#
# Youngs Moduli (GPa) = 68.64969 53.09263 112.89548
#
# Poissons Ratio (x) = 0.34885 0.45884
# Poissons Ratio (y) = 0.45107 0.16233
# Poissons Ratio (z) = 0.27901 0.07634
#
# Static dielectric constant tensor:
#      x y z
#    x 1.570290 0.000000 0.000000 
#    y 0.000000 1.527270 0.000000 
#    z 0.000000 0.000000 1.564900 
# 
# From -- ./inp_files/73274.got.cif
#   From: 2010.05.17/outbox.cif.g08.bks.cpg/sg65_37_cif.got.tgz:73274.got - 2010.06.03 17:01:31.
