data_PCOD9485538
_publ_section_title
;
Structure prediction by ZEFSAII (Michael W. Deem and Ramdas Pophale) SiO2 
 PCOD9485538
Probable space group: C M M M
;
_chemical_formula_sum "Si O2"
_cell_formula_units_Z 80
_cell_length_a 27.473716
_cell_length_b 19.278958
_cell_length_c 7.552287
_cell_angle_alpha 90.000000
_cell_angle_beta 90.000000
_cell_angle_gamma 90.000000
_cell_volume 4000.179200
_symmetry_space_group_name_H-M "C M M M"
_symmetry_group_IT_number 65
_symmetry_cell_setting 'orthorhombic'
loop_
_space_group_symop_operation_xyz
x,y,z
-x,-y,z
x,-y,-z
-x,y,-z
-x,-y,-z
x,y,-z
-x,y,z
x,-y,z
1/2+x,1/2+y,z
1/2-x,1/2-y,z
1/2+x,1/2-y,-z
1/2-x,1/2+y,-z
1/2-x,1/2-y,-z
1/2+x,1/2+y,-z
1/2-x,1/2+y,z
1/2+x,1/2-y,z
loop_
_atom_site_type_symbol
_atom_site_label
_atom_site_fract_x
_atom_site_fract_y
_atom_site_fract_z
Si Si1 0.197751 0.419124 0.784134
Si Si2 0.500000 0.178944 0.782684
Si Si3 0.306077 0.579528 0.213702
Si Si4 0.894565 0.336534 0.794493
Si Si5 0.000000 0.841862 0.297388
Si Si6 0.103452 0.176585 0.291157
O O1 0.191198 0.500000 0.738901
O O2 0.252069 0.397714 0.725867
O O3 0.152722 0.373767 0.716824
O O4 0.198372 0.414844 0.000000
O O5 0.551335 0.146823 0.723632
O O6 0.500000 0.257794 0.712783
O O7 0.500000 0.182544 0.000000
O O8 0.313726 0.500000 0.272925
O O9 0.349721 0.629107 0.267450
O O10 0.305237 0.578739 0.000000
O O11 0.889191 0.253237 0.786810
O O12 0.896064 0.357497 0.000000
O O13 0.053308 0.858175 0.219523
O O14 0.000000 0.867619 0.500000
O O15 0.095502 0.187415 0.500000
#
# Coordination Sequence:
#
# PCOD9485538 Si02
#       6
#    16   8  16  16   8  16
#     4   8  15  29  48  67  89 121 156 185 218 265
#     4   8  14  24  41  67  93 116 145 183 223 258
#     4   9  18  33  50  66  87 118 154 187 221 265
#     4   9  16  28  47  69  93 120 151 186 222 261
#     4   8  16  30  45  62  87 120 149 174 215 270
#     4  10  19  31  48  69  92 117 148 185 224 267
#
# _framework density 19.999103000000002
#
# number of rings (size 3 to 8) (size 9 to 14) (size 15 to 20)
#    0.000    3.200    0.000    1.800    0.000    2.000 
#    0.000    6.000    0.000    7.800    0.000    0.000 
#    0.000    8.000    0.000    0.000    0.000    0.000 
#
# Total GULP energy -222735.711495 kJ/mol
# GULP energy per Si atom -5568.392787 kJ/mol
# Density = 1.995358 g / cm^3
# Si number density = 19.999103 Si / 1000 Ang^3
#
#
#
# Elastic Constant Matrix: (Units=GPa)
#
#
# Indices 1 2 3 4 5 6 
#
# 1 252.6604 84.3479 0.8802 0.0000 0.0000 0.0000
# 2 84.3479 41.6260 -6.4417 0.0000 0.0000 0.0000
# 3 0.8802 -6.4417 49.4270 0.0000 0.0000 0.0000
# 4 0.0000 0.0000 0.0000 571.7175 0.0000 0.0000
# 5 0.0000 0.0000 0.0000 0.0000 -6.3181 0.0000
# 6 0.0000 0.0000 0.0000 0.0000 0.0000 -62.7458
#
#
#
# Elastic Compliance Matrix: (Units=1/GPa)
#
#
# Indices 1 2 3 4 5 6 
#
# 1 0.012864 -0.026640 -0.003701 0.000000 0.000000 0.000000
# 2 -0.026640 0.079685 0.010860 0.000000 0.000000 0.000000
# 3 -0.003701 0.010860 0.021713 0.000000 0.000000 0.000000
# 4 0.000000 0.000000 0.000000 0.001749 0.000000 0.000000
# 5 0.000000 0.000000 0.000000 0.000000 -0.158276 0.000000
# 6 0.000000 0.000000 0.000000 0.000000 0.000000 -0.015937
#
#
# Mechanical properties :
#
#
# Convention : Reuss Voigt Hill
#
# Bulk Modulus (GPa) = 13.28026 55.69848 34.48937
# Shear Modulus (GPa) = 853.19667 118.19252 485.69460
#
# Velocity S-wave (km/s) = 20.67713 7.69592 15.60081
# Velocity P-wave (km/s) = 24.01485 10.33831 18.48775
#
# Compressibility (1/GPa) = 0.07529974
#
# Stress axis : x y z
#
# Youngs Moduli (GPa) = 77.73508 12.54939 46.05526
#
# Poissons Ratio (x) = 0.33431 0.17045
# Poissons Ratio (y) = 2.07085 -0.50014
# Poissons Ratio (z) = 0.28770 -0.13628
#
# Static dielectric constant tensor:
#      x y z
#    x 1.780460 0.000000 0.000000 
#    y 0.000000 1.644270 0.000000 
#    z 0.000000 0.000000 1.803980 
# 
# From -- ./inp_files/11610.got.cif
#   From: 2010.05.17/outbox.cif.g08.bks.cpg/sg65_6_cif.got.tgz:11610.got - 2010.06.03 17:01:31.
