data_PCOD9485843
_publ_section_title
;
Structure prediction by ZEFSAII (Michael W. Deem and Ramdas Pophale) SiO2 
 PCOD9485843
Probable space group: C M M M
;
_chemical_formula_sum "Si O2"
_cell_formula_units_Z 104
_cell_length_a 8.077243
_cell_length_b 19.777852
_cell_length_c 35.002464
_cell_angle_alpha 90.000000
_cell_angle_beta 90.000000
_cell_angle_gamma 90.000000
_cell_volume 5591.661707
_symmetry_space_group_name_H-M "C M M M"
_symmetry_group_IT_number 65
_symmetry_cell_setting 'orthorhombic'
loop_
_space_group_symop_operation_xyz
x,y,z
-x,-y,z
x,-y,-z
-x,y,-z
-x,-y,-z
x,y,-z
-x,y,z
x,-y,z
1/2+x,1/2+y,z
1/2-x,1/2-y,z
1/2+x,1/2-y,-z
1/2-x,1/2+y,-z
1/2-x,1/2-y,-z
1/2+x,1/2+y,-z
1/2-x,1/2+y,z
1/2+x,1/2-y,z
loop_
_atom_site_type_symbol
_atom_site_label
_atom_site_fract_x
_atom_site_fract_y
_atom_site_fract_z
Si Si1 0.300054 0.828981 0.958981
Si Si2 0.297111 0.922075 0.500000
Si Si3 0.197121 0.077071 0.193656
Si Si4 0.800814 0.422912 0.277370
Si Si5 0.800206 0.326897 0.431140
Si Si6 0.800000 0.673315 0.344705
Si Si7 0.302128 0.171729 0.124373
O O1 0.500000 0.833507 0.959101
O O2 0.250000 0.750000 0.959183
O O3 0.240930 0.853980 0.917489
O O4 0.241095 0.857804 0.000000
O O5 0.500000 0.922257 0.500000
O O6 0.242733 0.880330 0.462650
O O7 0.243716 0.000000 0.500000
O O8 0.258086 0.102286 0.234970
O O9 0.245009 0.125318 0.159005
O O10 0.000000 0.073860 0.195295
O O11 0.262008 0.000000 0.188385
O O12 0.738302 0.500000 0.280429
O O13 0.738098 0.376698 0.311859
O O14 0.000000 0.424877 0.280163
O O15 0.750000 0.250000 0.440714
O O16 0.741735 0.342093 0.387925
O O17 0.000000 0.328992 0.430850
O O18 0.750000 0.750000 0.336064
O O19 0.000000 0.669622 0.345200
O O20 0.500000 0.170488 0.123584
O O21 0.250000 0.250000 0.129137
#
# Coordination Sequence:
#
# PCOD9485843 Si02
#       7
#    16   8  16  16  16  16  16
#     4   8  14  25  42  66  95 124 154 190 233 280
#     4   9  17  28  45  71  98 123 156 198 236 269
#     4  10  21  36  52  70  95 128 164 201 242 289
#     4   9  18  33  51  69  90 119 156 195 236 284
#     4   9  17  30  48  69  94 125 158 190 229 278
#     4   9  18  31  48  71  96 122 153 191 234 279
#     4  10  19  31  50  75 101 128 160 199 241 285
#
# _framework density 18.599122999999999
#
# number of rings (size 3 to 8) (size 9 to 14) (size 15 to 20)
#    0.000    2.846    0.000    1.154    0.000    3.385 
#    0.000    4.615    0.000    1.385    0.000    7.538 
#    0.000    0.000    0.000    0.000    0.000    0.000 
#
# Total GULP energy -289720.632269 kJ/mol
# GULP energy per Si atom -5571.550621 kJ/mol
# Density = 1.855679 g / cm^3
# Si number density = 18.599123 Si / 1000 Ang^3
#
#
#
# Elastic Constant Matrix: (Units=GPa)
#
#
# Indices 1 2 3 4 5 6 
#
# 1 14.2930 5.7157 11.3941 0.0000 0.0000 0.0000
# 2 5.7157 86.5111 112.1009 0.0000 0.0000 0.0000
# 3 11.3941 112.1009 206.5370 0.0000 0.0000 0.0000
# 4 0.0000 0.0000 0.0000 -17.7024 0.0000 0.0000
# 5 0.0000 0.0000 0.0000 0.0000 9.5616 0.0000
# 6 0.0000 0.0000 0.0000 0.0000 0.0000 20.6182
#
#
#
# Elastic Compliance Matrix: (Units=1/GPa)
#
#
# Indices 1 2 3 4 5 6 
#
# 1 0.073229 0.001337 -0.004766 0.000000 0.000000 0.000000
# 2 0.001337 0.038985 -0.021234 0.000000 0.000000 0.000000
# 3 -0.004766 -0.021234 0.016629 0.000000 0.000000 0.000000
# 4 0.000000 0.000000 0.000000 -0.056490 0.000000 0.000000
# 5 0.000000 0.000000 0.000000 0.000000 0.104585 0.000000
# 6 0.000000 0.000000 0.000000 0.000000 0.000000 0.048501
#
#
# Mechanical properties :
#
#
# Convention : Reuss Voigt Hill
#
# Bulk Modulus (GPa) = 12.57556 62.86249 37.71902
# Shear Modulus (GPa) = 16.59640 14.37085 15.48363
#
# Velocity S-wave (km/s) = 2.99042 2.78270 2.88842
# Velocity P-wave (km/s) = 4.32429 6.64805 5.60785
#
# Compressibility (1/GPa) = 0.07951930
#
# Stress axis : x y z
#
# Youngs Moduli (GPa) = 13.65586 25.65073 60.13427
#
# Poissons Ratio (x) = -0.03430 0.28657
# Poissons Ratio (y) = -0.01826 1.27686
# Poissons Ratio (z) = 0.06508 0.54466
#
# Static dielectric constant tensor:
#      x y z
#    x 1.658160 0.000000 0.000000 
#    y 0.000000 1.603540 0.000000 
#    z 0.000000 0.000000 1.682220 
# 
# From -- ./inp_files/76942.got.cif
#   From: 2010.05.17/outbox.cif.g08.bks.cpg/sg65_39_cif.got.tgz:76942.got - 2010.06.03 17:01:31.
