data_PCOD9485537
_publ_section_title
;
Structure prediction by ZEFSAII (Michael W. Deem and Ramdas Pophale) SiO2 
 PCOD9485537
Probable space group: C M M M
;
_chemical_formula_sum "Si O2"
_cell_formula_units_Z 96
_cell_length_a 11.688394
_cell_length_b 14.262016
_cell_length_c 24.766329
_cell_angle_alpha 90.000000
_cell_angle_beta 90.000000
_cell_angle_gamma 90.000000
_cell_volume 4128.548586
_symmetry_space_group_name_H-M "C M M M"
_symmetry_group_IT_number 65
_symmetry_cell_setting 'orthorhombic'
loop_
_space_group_symop_operation_xyz
x,y,z
-x,-y,z
x,-y,-z
-x,y,-z
-x,-y,-z
x,y,-z
-x,y,z
x,-y,z
1/2+x,1/2+y,z
1/2-x,1/2-y,z
1/2+x,1/2-y,-z
1/2-x,1/2+y,-z
1/2-x,1/2-y,-z
1/2+x,1/2+y,-z
1/2-x,1/2+y,z
1/2+x,1/2-y,z
loop_
_atom_site_type_symbol
_atom_site_label
_atom_site_fract_x
_atom_site_fract_y
_atom_site_fract_z
Si Si1 0.264400 0.613528 0.272665
Si Si2 0.500000 0.386042 0.219575
Si Si3 0.752545 0.114466 0.941516
Si Si4 0.500000 0.385786 0.094414
Si Si5 0.000000 0.638027 0.563799
Si Si6 0.248218 0.644156 0.602664
Si Si7 0.500000 0.361101 0.435467
Si Si8 0.868653 0.613861 0.167522
O O1 0.259672 0.500000 0.274819
O O2 0.389219 0.642074 0.252484
O O3 0.240751 0.646592 0.332629
O O4 0.182413 0.645494 0.224340
O O5 0.500000 0.500000 0.217208
O O6 0.500000 0.355928 0.157170
O O7 0.691358 0.147062 0.887104
O O8 0.884564 0.142228 0.935151
O O9 0.747523 0.000000 0.940926
O O10 0.706336 0.144044 0.000000
O O11 0.500000 0.500000 0.095131
O O12 0.124920 0.603156 0.584264
O O13 0.000000 0.749563 0.576758
O O14 0.000000 0.625210 0.500000
O O15 0.250000 0.750000 0.579603
O O16 0.375323 0.604761 0.587125
O O17 0.500000 0.375783 0.500000
O O18 0.856534 0.500000 0.167571
O O19 0.000000 0.637321 0.164761
#
# Coordination Sequence:
#
# PCOD9485537 Si02
#       8
#    16   8  16   8   8  16   8  16
#     4  10  19  31  48  68  95 129 163 194 232 286
#     4   9  15  26  45  64  85 120 160 194 228 278
#     4   9  15  22  34  53  78 110 149 193 236 276
#     4   9  13  21  34  52  76 105 144 185 228 275
#     4   9  18  33  54  78 100 127 162 196 237 286
#     4  10  20  33  52  78 102 125 159 202 240 277
#     4   9  17  33  56  77 100 129 160 196 237 284
#     4   9  17  27  38  55  82 120 159 190 226 279
#
# _framework density 23.252723
#
# number of rings (size 3 to 8) (size 9 to 14) (size 15 to 20)
#    0.000    2.667    1.667    1.250    1.167    3.333 
#    0.000    1.667    0.000    3.000    0.000    0.000 
#    0.000    0.667    0.000    1.000    0.000    0.667 
#
# Total GULP energy -267996.492592 kJ/mol
# GULP energy per Si atom -5583.260262 kJ/mol
# Density = 2.319980 g / cm^3
# Si number density = 23.252723 Si / 1000 Ang^3
#
#
#
# Elastic Constant Matrix: (Units=GPa)
#
#
# Indices 1 2 3 4 5 6 
#
# 1 189.6899 10.8800 97.7114 0.0000 0.0000 0.0000
# 2 10.8800 95.8819 1.6382 0.0000 0.0000 0.0000
# 3 97.7114 1.6382 159.8164 0.0000 0.0000 0.0000
# 4 0.0000 0.0000 0.0000 12.2098 0.0000 0.0000
# 5 0.0000 0.0000 0.0000 0.0000 29.4031 0.0000
# 6 0.0000 0.0000 0.0000 0.0000 0.0000 -11.8108
#
#
#
# Elastic Compliance Matrix: (Units=1/GPa)
#
#
# Indices 1 2 3 4 5 6 
#
# 1 0.007756 -0.000799 -0.004734 0.000000 0.000000 0.000000
# 2 -0.000799 0.010514 0.000381 0.000000 0.000000 0.000000
# 3 -0.004734 0.000381 0.009148 0.000000 0.000000 0.000000
# 4 0.000000 0.000000 0.000000 0.081902 0.000000 0.000000
# 5 0.000000 0.000000 0.000000 0.000000 0.034010 0.000000
# 6 0.000000 0.000000 0.000000 0.000000 0.000000 -0.084668
#
#
# Mechanical properties :
#
#
# Convention : Reuss Voigt Hill
#
# Bulk Modulus (GPa) = 58.43551 73.98304 66.20927
# Shear Modulus (GPa) = 66.96165 28.30431 47.63298
#
# Velocity S-wave (km/s) = 5.37214 3.49269 4.53094
# Velocity P-wave (km/s) = 7.97903 6.93911 7.47717
#
# Compressibility (1/GPa) = 0.01711288
#
# Stress axis : x y z
#
# Youngs Moduli (GPa) = 128.93142 95.11423 109.31905
#
# Poissons Ratio (x) = 0.07602 0.51750
# Poissons Ratio (y) = 0.10304 -0.04164
# Poissons Ratio (z) = 0.61034 -0.03623
#
# Static dielectric constant tensor:
#      x y z
#    x 1.852100 0.000000 0.000000 
#    y 0.000000 1.941220 0.000000 
#    z 0.000000 0.000000 1.818860 
# 
# From -- ./inp_files/61664.got.cif
#   From: 2010.05.17/outbox.cif.g08.bks.cpg/sg65_31_cif.got.tgz:61664.got - 2010.06.03 17:01:31.
