data_PCOD9485182
_publ_section_title
;
Structure prediction by ZEFSAII (Michael W. Deem and Ramdas Pophale) SiO2 
 PCOD9485182
Probable space group: C M M M
;
_chemical_formula_sum "Si O2"
_cell_formula_units_Z 72
_cell_length_a 7.745946
_cell_length_b 16.698793
_cell_length_c 25.691330
_cell_angle_alpha 90.000000
_cell_angle_beta 90.000000
_cell_angle_gamma 90.000000
_cell_volume 3323.120839
_symmetry_space_group_name_H-M "C M M M"
_symmetry_group_IT_number 65
_symmetry_cell_setting 'orthorhombic'
loop_
_space_group_symop_operation_xyz
x,y,z
-x,-y,z
x,-y,-z
-x,y,-z
-x,-y,-z
x,y,-z
-x,y,z
x,-y,z
1/2+x,1/2+y,z
1/2-x,1/2-y,z
1/2+x,1/2-y,-z
1/2-x,1/2+y,-z
1/2-x,1/2-y,-z
1/2+x,1/2+y,-z
1/2-x,1/2+y,z
1/2+x,1/2-y,z
loop_
_atom_site_type_symbol
_atom_site_label
_atom_site_fract_x
_atom_site_fract_y
_atom_site_fract_z
Si Si1 0.205057 0.000000 0.441428
Si Si2 0.207427 0.341791 0.833765
Si Si3 0.795967 0.338141 0.379374
Si Si4 0.209516 0.594628 0.056378
Si Si5 0.210811 0.590691 0.274736
O O1 0.251725 0.917259 0.412376
O O2 0.278579 0.000000 0.500000
O O3 0.000000 0.000000 0.444714
O O4 0.250000 0.250000 0.824482
O O5 0.275717 0.366451 0.890582
O O6 0.271959 0.389556 0.783375
O O7 0.000000 0.353187 0.835654
O O8 0.750000 0.250000 0.400169
O O9 0.724850 0.351704 0.320671
O O10 0.000000 0.338430 0.374945
O O11 0.246853 0.500000 0.058562
O O12 0.000000 0.602375 0.056114
O O13 0.271577 0.625761 0.000000
O O14 0.256809 0.500000 0.288942
O O15 0.000000 0.594971 0.273228
#
# Coordination Sequence:
#
# PCOD9485182 Si02
#       5
#     8  16  16  16  16
#     4  11  25  45  67  93 125 161 204 249 294 348
#     4  10  19  30  47  71 102 136 172 219 273 330
#     4  11  22  39  64  93 126 162 202 248 299 355
#     4   8  14  26  45  68  91 122 171 223 266 315
#     4   9  17  32  55  81 108 143 188 233 282 339
#
# _framework density 21.666381000000001
#
# number of rings (size 3 to 8) (size 9 to 14) (size 15 to 20)
#    0.000    2.333    1.111    3.000    0.000    4.444 
#    0.000    1.111    0.000    2.000    0.000    1.556 
#    0.000    0.000    0.000    0.000    0.000    0.000 
#
# Total GULP energy -200850.905426 kJ/mol
# GULP energy per Si atom -5579.191817 kJ/mol
# Density = 2.161707 g / cm^3
# Si number density = 21.666381 Si / 1000 Ang^3
#
#
#
# Elastic Constant Matrix: (Units=GPa)
#
#
# Indices 1 2 3 4 5 6 
#
# 1 39.2847 3.6567 12.7502 0.0000 0.0000 0.0000
# 2 3.6567 125.6739 64.2921 0.0000 0.0000 0.0000
# 3 12.7502 64.2921 145.8880 0.0000 0.0000 0.0000
# 4 0.0000 0.0000 0.0000 15.5964 0.0000 0.0000
# 5 0.0000 0.0000 0.0000 0.0000 79.5489 0.0000
# 6 0.0000 0.0000 0.0000 0.0000 0.0000 22.8648
#
#
#
# Elastic Compliance Matrix: (Units=1/GPa)
#
#
# Indices 1 2 3 4 5 6 
#
# 1 0.026226 0.000529 -0.002525 0.000000 0.000000 0.000000
# 2 0.000529 0.010284 -0.004578 0.000000 0.000000 0.000000
# 3 -0.002525 -0.004578 0.009093 0.000000 0.000000 0.000000
# 4 0.000000 0.000000 0.000000 0.064117 0.000000 0.000000
# 5 0.000000 0.000000 0.000000 0.000000 0.012571 0.000000
# 6 0.000000 0.000000 0.000000 0.000000 0.000000 0.043735
#
#
# Mechanical properties :
#
#
# Convention : Reuss Voigt Hill
#
# Bulk Modulus (GPa) = 30.81374 52.47161 41.64268
# Shear Modulus (GPa) = 26.31680 38.94519 32.63099
#
# Velocity S-wave (km/s) = 3.48895 4.24429 3.88502
# Velocity P-wave (km/s) = 5.52115 6.94904 6.27584
#
# Compressibility (1/GPa) = 0.03245305
#
# Stress axis : x y z
#
# Youngs Moduli (GPa) = 38.13080 97.23982 109.97635
#
# Poissons Ratio (x) = -0.05141 0.27769
# Poissons Ratio (y) = -0.02016 0.50350
# Poissons Ratio (z) = 0.09628 0.44519
#
# Static dielectric constant tensor:
#      x y z
#    x 1.789740 0.000000 0.000000 
#    y 0.000000 1.725470 0.000000 
#    z 0.000000 0.000000 1.836110 
# 
# From -- ./inp_files/72515.got.cif
#   From: 2010.05.17/outbox.cif.g08.bks.cpg/sg65_37_cif.got.tgz:72515.got - 2010.06.03 17:01:31.
