data_PCOD9485561
_publ_section_title
;
Structure prediction by ZEFSAII (Michael W. Deem and Ramdas Pophale) SiO2 
 PCOD9485561
Probable space group: C M M M
;
_chemical_formula_sum "Si O2"
_cell_formula_units_Z 72
_cell_length_a 8.632827
_cell_length_b 19.077101
_cell_length_c 24.307117
_cell_angle_alpha 90.000000
_cell_angle_beta 90.000000
_cell_angle_gamma 90.000000
_cell_volume 4003.122390
_symmetry_space_group_name_H-M "C M M M"
_symmetry_group_IT_number 65
_symmetry_cell_setting 'orthorhombic'
loop_
_space_group_symop_operation_xyz
x,y,z
-x,-y,z
x,-y,-z
-x,y,-z
-x,-y,-z
x,y,-z
-x,y,z
x,-y,z
1/2+x,1/2+y,z
1/2-x,1/2-y,z
1/2+x,1/2-y,-z
1/2-x,1/2+y,-z
1/2-x,1/2-y,-z
1/2+x,1/2+y,-z
1/2-x,1/2+y,z
1/2+x,1/2-y,z
loop_
_atom_site_type_symbol
_atom_site_label
_atom_site_fract_x
_atom_site_fract_y
_atom_site_fract_z
Si Si1 0.185467 0.827191 0.063200
Si Si2 0.314214 0.170922 0.266645
Si Si3 0.813798 0.170203 0.619033
Si Si4 0.313305 0.329519 0.500000
Si Si5 0.312870 0.080640 0.839041
O O1 0.250000 0.750000 0.076696
O O2 0.249245 0.882395 0.106570
O O3 0.000000 0.825259 0.065841
O O4 0.231394 0.843144 0.000000
O O5 0.500000 0.174469 0.268314
O O6 0.250000 0.250000 0.260757
O O7 0.254585 0.140035 0.324704
O O8 0.264690 0.124539 0.214747
O O9 0.750000 0.250000 0.617987
O O10 0.768414 0.138625 0.559331
O O11 0.000000 0.171557 0.622938
O O12 0.500000 0.325913 0.500000
O O13 0.250000 0.250000 0.500000
O O14 0.500000 0.082330 0.840908
O O15 0.263127 0.000000 0.835420
#
# Coordination Sequence:
#
# PCOD9485561 Si02
#       5
#    16  16  16   8  16
#     4  10  21  37  58  83 108 134 166 204 245 292
#     4  10  19  31  48  70  96 126 163 204 245 292
#     4   9  15  24  39  61  90 122 156 194 240 291
#     4   8  14  22  34  56  87 120 151 189 237 289
#     4  10  22  38  54  74 102 136 171 208 252 298
#
# _framework density 17.985961
#
# number of rings (size 3 to 8) (size 9 to 14) (size 15 to 20)
#    0.000    2.444    0.000    4.000    0.000    6.667 
#    0.000    2.222    0.000    0.000    0.000    0.778 
#    0.000    6.222    0.000    0.000    0.000    0.000 
#
# Total GULP energy -200643.360821 kJ/mol
# GULP energy per Si atom -5573.426689 kJ/mol
# Density = 1.794502 g / cm^3
# Si number density = 17.985961 Si / 1000 Ang^3
#
#
#
# Elastic Constant Matrix: (Units=GPa)
#
#
# Indices 1 2 3 4 5 6 
#
# 1 31.9403 22.9926 35.8773 0.0000 0.0000 0.0000
# 2 22.9926 77.8021 88.0043 0.0000 0.0000 0.0000
# 3 35.8773 88.0043 168.8026 0.0000 0.0000 0.0000
# 4 0.0000 0.0000 0.0000 -5.2907 0.0000 0.0000
# 5 0.0000 0.0000 0.0000 0.0000 28.2911 0.0000
# 6 0.0000 0.0000 0.0000 0.0000 0.0000 16.0357
#
#
#
# Elastic Compliance Matrix: (Units=1/GPa)
#
#
# Indices 1 2 3 4 5 6 
#
# 1 0.042125 -0.005659 -0.006003 0.000000 0.000000 0.000000
# 2 -0.005659 0.032087 -0.015526 0.000000 0.000000 0.000000
# 3 -0.006003 -0.015526 0.015294 0.000000 0.000000 0.000000
# 4 0.000000 0.000000 0.000000 -0.189009 0.000000 0.000000
# 5 0.000000 0.000000 0.000000 0.000000 0.035347 0.000000
# 6 0.000000 0.000000 0.000000 0.000000 0.000000 0.062361
#
#
# Mechanical properties :
#
#
# Convention : Reuss Voigt Hill
#
# Bulk Modulus (GPa) = 28.46479 63.58815 46.02647
# Shear Modulus (GPa) = 77.77226 16.58525 47.17876
#
# Velocity S-wave (km/s) = 6.58289 3.03994 5.12717
# Velocity P-wave (km/s) = 8.58136 6.91033 7.79078
#
# Compressibility (1/GPa) = 0.03513112
#
# Stress axis : x y z
#
# Youngs Moduli (GPa) = 23.73886 31.16521 65.38432
#
# Poissons Ratio (x) = 0.17636 0.39250
# Poissons Ratio (y) = 0.13434 1.01514
# Poissons Ratio (z) = 0.14250 0.48386
#
# Static dielectric constant tensor:
#      x y z
#    x 1.608550 0.000000 0.000000 
#    y 0.000000 1.574330 0.000000 
#    z 0.000000 0.000000 1.672490 
# 
# From -- ./inp_files/67018.got.cif
#   From: 2010.05.17/outbox.cif.g08.bks.cpg/sg65_34_cif.got.tgz:67018.got - 2010.06.03 17:01:31.
