data_PCOD9485282
_publ_section_title
;
Structure prediction by ZEFSAII (Michael W. Deem and Ramdas Pophale) SiO2 
 PCOD9485282
Probable space group: C M M M
;
_chemical_formula_sum "Si O2"
_cell_formula_units_Z 88
_cell_length_a 27.754937
_cell_length_b 18.978469
_cell_length_c 9.229415
_cell_angle_alpha 90.000000
_cell_angle_beta 90.000000
_cell_angle_gamma 90.000000
_cell_volume 4861.559385
_symmetry_space_group_name_H-M "C M M M"
_symmetry_group_IT_number 65
_symmetry_cell_setting 'orthorhombic'
loop_
_space_group_symop_operation_xyz
x,y,z
-x,-y,z
x,-y,-z
-x,y,-z
-x,-y,-z
x,y,-z
-x,y,z
x,-y,z
1/2+x,1/2+y,z
1/2-x,1/2-y,z
1/2+x,1/2-y,-z
1/2-x,1/2+y,-z
1/2-x,1/2-y,-z
1/2+x,1/2+y,-z
1/2-x,1/2+y,z
1/2+x,1/2-y,z
loop_
_atom_site_type_symbol
_atom_site_label
_atom_site_fract_x
_atom_site_fract_y
_atom_site_fract_z
Si Si1 0.800667 0.708045 0.835372
Si Si2 0.945269 0.785367 0.673360
Si Si3 0.059117 0.500000 0.332956
Si Si4 0.261481 0.581459 0.825508
Si Si5 0.345357 0.332975 0.671905
Si Si6 0.442060 0.138361 0.835823
O O1 0.750000 0.750000 0.842571
O O2 0.784556 0.630241 0.787784
O O3 0.831617 0.754388 0.726316
O O4 0.820239 0.707683 0.000000
O O5 0.943759 0.772478 0.500000
O O6 0.902171 0.839529 0.706388
O O7 0.935010 0.712089 0.754931
O O8 0.000000 0.807661 0.710078
O O9 0.073665 0.500000 0.500000
O O10 0.075910 0.570578 0.251809
O O11 0.000000 0.500000 0.331102
O O12 0.255399 0.500000 0.787372
O O13 0.309109 0.614265 0.752282
O O14 0.266713 0.587544 0.000000
O O15 0.338337 0.338971 0.500000
O O16 0.500000 0.130091 0.843482
O O17 0.423627 0.139258 0.000000
#
# Coordination Sequence:
#
# PCOD9485282 Si02
#       6
#    16  16   8  16  16  16
#     4   8  15  29  49  72  98 129 160 191 236 296
#     4   9  18  32  47  64  91 129 170 207 246 293
#     4   9  15  23  37  55  77 107 139 177 235 297
#     4   9  18  33  53  76 102 132 163 194 237 299
#     4  10  19  30  49  76 102 129 165 207 249 290
#     4   9  16  25  39  60  82 106 147 201 244 279
#
# _framework density 18.101188
#
# number of rings (size 3 to 8) (size 9 to 14) (size 15 to 20)
#    0.000    3.000    0.000    2.455    0.000    8.364 
#    0.000    0.000    2.000    0.545    0.000    3.818 
#    0.000    0.000    0.000    0.000    0.000    0.000 
#
# Total GULP energy -245074.846377 kJ/mol
# GULP energy per Si atom -5569.882872 kJ/mol
# Density = 1.805999 g / cm^3
# Si number density = 18.101188 Si / 1000 Ang^3
#
#
#
# Elastic Constant Matrix: (Units=GPa)
#
#
# Indices 1 2 3 4 5 6 
#
# 1 37.5625 12.1026 6.4382 0.0000 0.0000 0.0000
# 2 12.1026 78.8115 9.5992 0.0000 0.0000 0.0000
# 3 6.4382 9.5992 31.7124 0.0000 0.0000 0.0000
# 4 0.0000 0.0000 0.0000 15.0467 0.0000 0.0000
# 5 0.0000 0.0000 0.0000 0.0000 -1.3442 0.0000
# 6 0.0000 0.0000 0.0000 0.0000 0.0000 14.7116
#
#
#
# Elastic Compliance Matrix: (Units=1/GPa)
#
#
# Indices 1 2 3 4 5 6 
#
# 1 0.028656 -0.003833 -0.004657 0.000000 0.000000 0.000000
# 2 -0.003833 0.013687 -0.003365 0.000000 0.000000 0.000000
# 3 -0.004657 -0.003365 0.033497 0.000000 0.000000 0.000000
# 4 0.000000 0.000000 0.000000 0.066460 0.000000 0.000000
# 5 0.000000 0.000000 0.000000 0.000000 -0.743917 0.000000
# 6 0.000000 0.000000 0.000000 0.000000 0.000000 0.067974
#
#
# Mechanical properties :
#
#
# Convention : Reuss Voigt Hill
#
# Bulk Modulus (GPa) = 19.18305 22.70739 20.94522
# Shear Modulus (GPa) = -10.15113 13.67923 1.76405
#
# Velocity S-wave (km/s) = -2.37069 2.75200 0.98826
# Velocity P-wave (km/s) = 1.76837 4.76129 3.59145
#
# Compressibility (1/GPa) = 0.05212935
#
# Stress axis : x y z
#
# Youngs Moduli (GPa) = 34.89720 73.06215 29.85305
#
# Poissons Ratio (x) = 0.28006 0.13904
# Poissons Ratio (y) = 0.13377 0.10045
# Poissons Ratio (z) = 0.16253 0.24584
#
# Static dielectric constant tensor:
#      x y z
#    x 1.659450 0.000000 0.000000 
#    y 0.000000 1.612410 0.000000 
#    z 0.000000 0.000000 1.609310 
# 
# From -- ./inp_files/18487.got.cif
#   From: 2010.05.17/outbox.cif.g08.bks.cpg/sg65_10_cif.got.tgz:18487.got - 2010.06.03 17:01:31.
