data_PCOD9485196
_publ_section_title
;
Structure prediction by ZEFSAII (Michael W. Deem and Ramdas Pophale) SiO2 
 PCOD9485196
Probable space group: C M M M
;
_chemical_formula_sum "Si O2"
_cell_formula_units_Z 96
_cell_length_a 15.077494
_cell_length_b 23.108638
_cell_length_c 13.598349
_cell_angle_alpha 90.000000
_cell_angle_beta 90.000000
_cell_angle_gamma 90.000000
_cell_volume 4737.941529
_symmetry_space_group_name_H-M "C M M M"
_symmetry_group_IT_number 65
_symmetry_cell_setting 'orthorhombic'
loop_
_space_group_symop_operation_xyz
x,y,z
-x,-y,z
x,-y,-z
-x,y,-z
-x,-y,-z
x,y,-z
-x,y,z
x,-y,z
1/2+x,1/2+y,z
1/2-x,1/2-y,z
1/2+x,1/2-y,-z
1/2-x,1/2+y,-z
1/2-x,1/2-y,-z
1/2+x,1/2+y,-z
1/2-x,1/2+y,z
1/2+x,1/2-y,z
loop_
_atom_site_type_symbol
_atom_site_label
_atom_site_fract_x
_atom_site_fract_y
_atom_site_fract_z
Si Si1 0.698896 0.435125 0.821529
Si Si2 0.903649 0.433079 0.776619
Si Si3 0.397060 0.728271 0.688313
Si Si4 0.893138 0.821364 0.892201
Si Si5 0.858321 0.348490 0.607461
Si Si6 0.658660 0.393209 0.391571
O O1 0.682361 0.500000 0.857704
O O2 0.806116 0.424866 0.824868
O O3 0.650737 0.384042 0.879057
O O4 0.660370 0.430575 0.708811
O O5 0.900303 0.500000 0.740604
O O6 0.905114 0.386620 0.689673
O O7 0.000000 0.427536 0.830337
O O8 0.500000 0.745469 0.692573
O O9 0.363866 0.716544 0.799003
O O10 0.349484 0.781799 0.638016
O O11 0.390261 0.667267 0.631988
O O12 0.000000 0.827206 0.884247
O O13 0.872330 0.797357 0.000000
O O14 0.899845 0.351801 0.500000
O O15 0.760992 0.375269 0.601303
O O16 0.631357 0.416301 0.500000
#
# Coordination Sequence:
#
# PCOD9485196 Si02
#       6
#    16  16  16  16  16  16
#     4   9  18  32  51  75 101 130 166 206 246 292
#     4   9  18  32  49  70 100 138 173 204 241 284
#     4  10  19  30  47  71  98 127 162 205 250 298
#     4   9  19  36  56  77 100 125 157 204 259 306
#     4  10  19  30  47  72 101 135 174 209 241 283
#     4   9  18  31  46  66  98 137 169 201 242 288
#
# _framework density 20.261963999999999
#
# number of rings (size 3 to 8) (size 9 to 14) (size 15 to 20)
#    0.000    2.667    0.000    1.500    0.000    5.000 
#    0.000    5.000    0.000   18.500    0.000    7.000 
#    0.000    0.000    0.000    0.000    0.000    0.167 
#
# Total GULP energy -267271.241528 kJ/mol
# GULP energy per Si atom -5568.150865 kJ/mol
# Density = 2.021585 g / cm^3
# Si number density = 20.261964 Si / 1000 Ang^3
#
#
#
# Elastic Constant Matrix: (Units=GPa)
#
#
# Indices 1 2 3 4 5 6 
#
# 1 17.0112 -2.7836 -3.4561 0.0000 0.0000 0.0000
# 2 -2.7836 28.6915 -26.3385 0.0000 0.0000 0.0000
# 3 -3.4561 -26.3385 39.2733 0.0000 0.0000 0.0000
# 4 0.0000 0.0000 0.0000 0.0894 0.0000 0.0000
# 5 0.0000 0.0000 0.0000 0.0000 13.9195 0.0000
# 6 0.0000 0.0000 0.0000 0.0000 0.0000 44.2194
#
#
#
# Elastic Compliance Matrix: (Units=1/GPa)
#
#
# Indices 1 2 3 4 5 6 
#
# 1 0.069700 0.032243 0.027757 0.000000 0.000000 0.000000
# 2 0.032243 0.105596 0.073655 0.000000 0.000000 0.000000
# 3 0.027757 0.073655 0.077301 0.000000 0.000000 0.000000
# 4 0.000000 0.000000 0.000000 11.183218 0.000000 0.000000
# 5 0.000000 0.000000 0.000000 0.000000 0.071842 0.000000
# 6 0.000000 0.000000 0.000000 0.000000 0.000000 0.022615
#
#
# Mechanical properties :
#
#
# Convention : Reuss Voigt Hill
#
# Bulk Modulus (GPa) = 1.92343 2.20221 2.06282
# Shear Modulus (GPa) = 0.43721 19.48260 9.95991
#
# Velocity S-wave (km/s) = 0.46502 3.10423 2.21951
# Velocity P-wave (km/s) = 1.11340 3.73330 2.75474
#
# Compressibility (1/GPa) = 0.51990528
#
# Stress axis : x y z
#
# Youngs Moduli (GPa) = 14.34721 9.47010 12.93640
#
# Poissons Ratio (x) = -0.30534 -0.35908
# Poissons Ratio (y) = -0.46259 -0.95282
# Poissons Ratio (z) = -0.39824 -0.69752
#
# Static dielectric constant tensor:
#      x y z
#    x 1.765900 0.000000 0.000000 
#    y 0.000000 1.677610 0.000000 
#    z 0.000000 0.000000 1.764240 
# 
# From -- ./inp_files/40371.got.cif
#   From: 2010.05.17/outbox.cif.g08.bks.cpg/sg65_21_cif.got.tgz:40371.got - 2010.06.03 17:01:31.
