data_PCOD9485294
_publ_section_title
;
Structure prediction by ZEFSAII (Michael W. Deem and Ramdas Pophale) SiO2 
 PCOD9485294
Probable space group: C M M M
;
_chemical_formula_sum "Si O2"
_cell_formula_units_Z 116
_cell_length_a 28.549414
_cell_length_b 28.675959
_cell_length_c 7.431251
_cell_angle_alpha 90.000000
_cell_angle_beta 90.000000
_cell_angle_gamma 90.000000
_cell_volume 6083.830133
_symmetry_space_group_name_H-M "C M M M"
_symmetry_group_IT_number 65
_symmetry_cell_setting 'orthorhombic'
loop_
_space_group_symop_operation_xyz
x,y,z
-x,-y,z
x,-y,-z
-x,y,-z
-x,-y,-z
x,y,-z
-x,y,z
x,-y,z
1/2+x,1/2+y,z
1/2-x,1/2-y,z
1/2+x,1/2-y,-z
1/2-x,1/2+y,-z
1/2-x,1/2-y,-z
1/2+x,1/2+y,-z
1/2-x,1/2+y,z
1/2+x,1/2-y,z
loop_
_atom_site_type_symbol
_atom_site_label
_atom_site_fract_x
_atom_site_fract_y
_atom_site_fract_z
Si Si1 0.860758 0.144925 0.709033
Si Si2 0.797256 0.551641 0.716958
Si Si3 0.675055 0.150348 0.208199
Si Si4 0.553400 0.294645 0.718974
Si Si5 0.923358 0.687333 0.210402
Si Si6 0.000000 0.341436 0.500000
Si Si7 0.267103 0.301585 0.782667
Si Si8 0.311113 0.447585 0.280393
O O1 0.871159 0.135666 0.500000
O O2 0.907246 0.169220 0.784097
O O3 0.817340 0.181005 0.716957
O O4 0.842022 0.095766 0.785000
O O5 0.797226 0.552125 0.500000
O O6 0.812216 0.500000 0.775439
O O7 0.828075 0.594777 0.779081
O O8 0.743148 0.558395 0.775850
O O9 0.629231 0.176111 0.276928
O O10 0.725396 0.164946 0.284959
O O11 0.677710 0.164546 0.000000
O O12 0.554326 0.293517 0.500000
O O13 0.500000 0.305474 0.772819
O O14 0.566252 0.242486 0.779097
O O15 0.959484 0.662491 0.341933
O O16 0.927473 0.673011 0.000000
O O17 0.250000 0.250000 0.732539
O O18 0.270795 0.303191 0.000000
O O19 0.310885 0.446436 0.500000
O O20 0.326078 0.500000 0.227982
#
# Coordination Sequence:
#
# PCOD9485294 Si02
#       8
#    16  16  16  16  16   4  16  16
#     4  10  19  30  50  75  97 137 185 225 272 324
#     4   9  17  30  51  75 103 139 177 219 269 324
#     4  10  21  33  50  78 109 143 177 215 271 333
#     4  10  19  34  51  74 106 139 187 240 279 320
#     4  11  22  38  59  83 112 147 186 228 279 328
#     4  12  22  40  60  86 111 146 187 240 270 316
#     4  10  20  34  46  66 106 144 172 208 262 331
#     4   8  14  27  46  71 101 135 177 224 272 325
#
# _framework density 19.066935000000001
#
# number of rings (size 3 to 8) (size 9 to 14) (size 15 to 20)
#    0.000    2.207    2.759    1.862    0.966    2.207 
#    0.000    0.000    0.000    0.828    0.000    3.862 
#    0.000    2.207    0.000    2.483    0.000    4.414 
#
# Total GULP energy -323069.379521 kJ/mol
# GULP energy per Si atom -5570.161716 kJ/mol
# Density = 1.902354 g / cm^3
# Si number density = 19.066935 Si / 1000 Ang^3
#
#
#
# Elastic Constant Matrix: (Units=GPa)
#
#
# Indices 1 2 3 4 5 6 
#
# 1 125.3926 44.4095 8.1426 0.0000 0.0000 0.0000
# 2 44.4095 80.8078 -6.8816 0.0000 0.0000 0.0000
# 3 8.1426 -6.8816 73.2727 0.0000 0.0000 0.0000
# 4 0.0000 0.0000 0.0000 8.9390 0.0000 0.0000
# 5 0.0000 0.0000 0.0000 0.0000 31.4804 0.0000
# 6 0.0000 0.0000 0.0000 0.0000 0.0000 9.7170
#
#
#
# Elastic Compliance Matrix: (Units=1/GPa)
#
#
# Indices 1 2 3 4 5 6 
#
# 1 0.010098 -0.005691 -0.001657 0.000000 0.000000 0.000000
# 2 -0.005691 0.015682 0.002105 0.000000 0.000000 0.000000
# 3 -0.001657 0.002105 0.014029 0.000000 0.000000 0.000000
# 4 0.000000 0.000000 0.000000 0.111869 0.000000 0.000000
# 5 0.000000 0.000000 0.000000 0.000000 0.031766 0.000000
# 6 0.000000 0.000000 0.000000 0.000000 0.000000 0.102913
#
#
# Mechanical properties :
#
#
# Convention : Reuss Voigt Hill
#
# Bulk Modulus (GPa) = 34.10058 41.20157 37.65108
# Shear Modulus (GPa) = 16.30707 25.61413 20.96060
#
# Velocity S-wave (km/s) = 2.92765 3.66919 3.31919
# Velocity P-wave (km/s) = 5.41772 6.29336 5.87189
#
# Compressibility (1/GPa) = 0.02932502
#
# Stress axis : x y z
#
# Youngs Moduli (GPa) = 99.03020 63.76866 71.27859
#
# Poissons Ratio (x) = 0.36288 0.11808
# Poissons Ratio (y) = 0.56354 -0.15005
# Poissons Ratio (z) = 0.16405 -0.13424
#
# Static dielectric constant tensor:
#      x y z
#    x 1.662470 0.000000 0.000000 
#    y 0.000000 1.674700 0.000000 
#    z 0.000000 0.000000 1.754820 
# 
# From -- ./inp_files/17342.got.cif
#   From: 2010.05.17/outbox.cif.g08.bks.cpg/sg65_9_cif.got.tgz:17342.got - 2010.06.03 17:01:31.
