data_PCOD9485261
_publ_section_title
;
Structure prediction by ZEFSAII (Michael W. Deem and Ramdas Pophale) SiO2 
 PCOD9485261
Probable space group: C M M M
;
_chemical_formula_sum "Si O2"
_cell_formula_units_Z 116
_cell_length_a 8.138831
_cell_length_b 30.785141
_cell_length_c 26.356406
_cell_angle_alpha 90.000000
_cell_angle_beta 90.000000
_cell_angle_gamma 90.000000
_cell_volume 6603.730884
_symmetry_space_group_name_H-M "C M M M"
_symmetry_group_IT_number 65
_symmetry_cell_setting 'orthorhombic'
loop_
_space_group_symop_operation_xyz
x,y,z
-x,-y,z
x,-y,-z
-x,y,-z
-x,-y,-z
x,y,-z
-x,y,z
x,-y,z
1/2+x,1/2+y,z
1/2-x,1/2-y,z
1/2+x,1/2-y,-z
1/2-x,1/2+y,-z
1/2-x,1/2-y,-z
1/2+x,1/2+y,-z
1/2-x,1/2+y,z
1/2+x,1/2-y,z
loop_
_atom_site_type_symbol
_atom_site_label
_atom_site_fract_x
_atom_site_fract_y
_atom_site_fract_z
Si Si1 0.291830 0.500000 0.500000
Si Si2 0.698312 0.362608 0.256996
Si Si3 0.699305 0.451130 0.302315
Si Si4 0.198324 0.300438 0.054380
Si Si5 0.803349 0.300322 0.833794
Si Si6 0.302888 0.929781 0.582868
Si Si7 0.805404 0.203800 0.660114
Si Si8 0.197450 0.669034 0.443986
O O1 0.283453 0.537535 0.544382
O O2 0.500000 0.363178 0.258191
O O3 0.753299 0.412355 0.264746
O O4 0.747465 0.334507 0.208368
O O5 0.760741 0.335475 0.305829
O O6 0.500000 0.450647 0.304164
O O7 0.751739 0.500000 0.288414
O O8 0.761467 0.440456 0.359018
O O9 0.250000 0.250000 0.053432
O O10 0.256255 0.315259 0.109948
O O11 0.000000 0.303162 0.054467
O O12 0.255979 0.319529 0.000000
O O13 0.750000 0.250000 0.824736
O O14 0.000000 0.299690 0.834055
O O15 0.500000 0.934817 0.574592
O O16 0.255347 0.880483 0.569562
O O17 0.750000 0.250000 0.681200
O O18 0.753196 0.198546 0.602164
O O19 0.000000 0.202039 0.662210
O O20 0.259695 0.680775 0.500000
O O21 0.000000 0.670085 0.445255
#
# Coordination Sequence:
#
# PCOD9485261 Si02
#       8
#     4  16  16  16  16  16  16  16
#     4  12  21  32  53  82 107 124 149 186 237 300
#     4  10  21  36  52  72  99 130 163 203 247 290
#     4  10  21  37  54  73  98 125 156 195 242 294
#     4   8  14  25  41  64  97 135 172 207 243 283
#     4  10  19  30  48  74 103 138 176 211 246 286
#     4  11  20  32  52  75  99 124 149 182 228 288
#     4  11  23  38  55  73  93 122 158 197 241 288
#     4  10  21  36  53  73  95 120 150 187 233 284
#
# _framework density 17.565826999999999
#
# number of rings (size 3 to 8) (size 9 to 14) (size 15 to 20)
#    0.000    1.931    2.759    1.862    0.000    3.862 
#    0.000    0.690    0.000    0.000    0.000    0.000 
#    0.000    0.552    0.000    6.897    0.000    0.000 
#
# Total GULP energy -322974.918391 kJ/mol
# GULP energy per Si atom -5568.533076 kJ/mol
# Density = 1.752585 g / cm^3
# Si number density = 17.565827 Si / 1000 Ang^3
#
#
#
# Elastic Constant Matrix: (Units=GPa)
#
#
# Indices 1 2 3 4 5 6 
#
# 1 11.3164 15.3984 7.8828 0.0000 0.0000 0.0000
# 2 15.3984 95.1758 59.4712 0.0000 0.0000 0.0000
# 3 7.8828 59.4712 138.8357 0.0000 0.0000 0.0000
# 4 0.0000 0.0000 0.0000 2.0764 0.0000 0.0000
# 5 0.0000 0.0000 0.0000 0.0000 20.1958 0.0000
# 6 0.0000 0.0000 0.0000 0.0000 0.0000 -16.4718
#
#
#
# Elastic Compliance Matrix: (Units=1/GPa)
#
#
# Indices 1 2 3 4 5 6 
#
# 1 0.113696 -0.019610 0.001945 0.000000 0.000000 0.000000
# 2 -0.019610 0.017729 -0.006481 0.000000 0.000000 0.000000
# 3 0.001945 -0.006481 0.009869 0.000000 0.000000 0.000000
# 4 0.000000 0.000000 0.000000 0.481605 0.000000 0.000000
# 5 0.000000 0.000000 0.000000 0.000000 0.049515 0.000000
# 6 0.000000 0.000000 0.000000 0.000000 0.000000 -0.060710
#
#
# Mechanical properties :
#
#
# Convention : Reuss Voigt Hill
#
# Bulk Modulus (GPa) = 10.75257 45.64809 28.20033
# Shear Modulus (GPa) = 7.23593 11.99845 9.61719
#
# Velocity S-wave (km/s) = 2.03181 2.61637 2.34240
# Velocity P-wave (km/s) = 3.41159 5.93047 4.83784
#
# Compressibility (1/GPa) = 0.09300103
#
# Stress axis : x y z
#
# Youngs Moduli (GPa) = 8.79540 56.40394 101.33213
#
# Poissons Ratio (x) = 1.10608 -0.19706
# Poissons Ratio (y) = 0.17248 0.65674
# Poissons Ratio (z) = -0.01710 0.36556
#
# Static dielectric constant tensor:
#      x y z
#    x 1.638040 0.000000 0.000000 
#    y 0.000000 1.582910 0.000000 
#    z 0.000000 0.000000 1.630110 
# 
# From -- ./inp_files/68627.got.cif
#   From: 2010.05.17/outbox.cif.g08.bks.cpg/sg65_35_cif.got.tgz:68627.got - 2010.06.03 17:01:31.
