data_PCOD9485831
_publ_section_title
;
Structure prediction by ZEFSAII (Michael W. Deem and Ramdas Pophale) SiO2 
 PCOD9485831
Probable space group: C M M M
;
_chemical_formula_sum "Si O2"
_cell_formula_units_Z 72
_cell_length_a 16.299854
_cell_length_b 29.036257
_cell_length_c 8.816931
_cell_angle_alpha 90.000000
_cell_angle_beta 90.000000
_cell_angle_gamma 90.000000
_cell_volume 4172.936616
_symmetry_space_group_name_H-M "C M M M"
_symmetry_group_IT_number 65
_symmetry_cell_setting 'orthorhombic'
loop_
_space_group_symop_operation_xyz
x,y,z
-x,-y,z
x,-y,-z
-x,y,-z
-x,-y,-z
x,y,-z
-x,y,z
x,-y,z
1/2+x,1/2+y,z
1/2-x,1/2-y,z
1/2+x,1/2-y,-z
1/2-x,1/2+y,-z
1/2-x,1/2-y,-z
1/2+x,1/2+y,-z
1/2-x,1/2+y,z
1/2+x,1/2-y,z
loop_
_atom_site_type_symbol
_atom_site_label
_atom_site_fract_x
_atom_site_fract_y
_atom_site_fract_z
Si Si1 0.327385 0.614287 0.182144
Si Si2 0.676307 0.283889 0.684432
Si Si3 0.000000 0.555821 0.323127
Si Si4 0.328697 0.946462 0.182560
Si Si5 0.000000 0.777073 0.325704
Si Si6 0.500000 0.389268 0.674707
O O1 0.313287 0.665528 0.246646
O O2 0.250950 0.582462 0.228877
O O3 0.415304 0.597107 0.244612
O O4 0.331219 0.615780 0.000000
O O5 0.672201 0.288293 0.500000
O O6 0.750000 0.250000 0.722713
O O7 0.588243 0.264283 0.740106
O O8 0.085080 0.571599 0.248179
O O9 0.000000 0.500000 0.306468
O O10 0.000000 0.567106 0.500000
O O11 0.319105 0.000000 0.228634
O O12 0.333976 0.945244 0.000000
O O13 0.000000 0.833072 0.324756
O O14 0.000000 0.760978 0.500000
O O15 0.500000 0.404040 0.500000
#
# Coordination Sequence:
#
# PCOD9485831 Si02
#       6
#    16  16   8  16   8   8
#     4  10  19  31  50  74  97 124 162 204 240 279
#     4   9  17  30  48  68  93 126 159 191 233 286
#     4   9  17  29  48  73  96 122 161 204 240 279
#     4   9  18  33  51  70  96 131 164 194 236 289
#     4   7  12  25  44  63  82 112 154 187 214 264
#     4   9  17  31  50  69  94 128 161 194 238 293
#
# _framework density 17.254037
#
# number of rings (size 3 to 8) (size 9 to 14) (size 15 to 20)
#    0.000    3.000    0.000    2.667    0.000    3.556 
#    0.000    1.667    0.000    4.667    0.000    0.000 
#    0.000    0.000    0.000    0.000    0.000    0.000 
#
# Total GULP energy -200452.353455 kJ/mol
# GULP energy per Si atom -5568.120929 kJ/mol
# Density = 1.721477 g / cm^3
# Si number density = 17.254037 Si / 1000 Ang^3
#
#
#
# Elastic Constant Matrix: (Units=GPa)
#
#
# Indices 1 2 3 4 5 6 
#
# 1 228.3062 71.3190 51.7679 0.0000 0.0000 0.0000
# 2 71.3190 42.3483 19.8486 0.0000 0.0000 0.0000
# 3 51.7679 19.8486 33.9969 0.0000 0.0000 0.0000
# 4 0.0000 0.0000 0.0000 16.4475 0.0000 0.0000
# 5 0.0000 0.0000 0.0000 0.0000 25.0426 0.0000
# 6 0.0000 0.0000 0.0000 0.0000 0.0000 32.8851
#
#
#
# Elastic Compliance Matrix: (Units=1/GPa)
#
#
# Indices 1 2 3 4 5 6 
#
# 1 0.010574 -0.014126 -0.007853 0.000000 0.000000 0.000000
# 2 -0.014126 0.051382 -0.008488 0.000000 0.000000 0.000000
# 3 -0.007853 -0.008488 0.046329 0.000000 0.000000 0.000000
# 4 0.000000 0.000000 0.000000 0.060799 0.000000 0.000000
# 5 0.000000 0.000000 0.000000 0.000000 0.039932 0.000000
# 6 0.000000 0.000000 0.000000 0.000000 0.000000 0.030409
#
#
# Mechanical properties :
#
#
# Convention : Reuss Voigt Hill
#
# Bulk Modulus (GPa) = 21.11992 65.61358 43.36675
# Shear Modulus (GPa) = 15.81562 25.65611 20.73586
#
# Velocity S-wave (km/s) = 3.03088 3.86030 3.47046
# Velocity P-wave (km/s) = 4.95131 7.61444 6.42243
#
# Compressibility (1/GPa) = 0.04734866
#
# Stress axis : x y z
#
# Youngs Moduli (GPa) = 94.57550 19.46205 21.58488
#
# Poissons Ratio (x) = 0.27492 0.16951
# Poissons Ratio (y) = 1.33599 0.18322
# Poissons Ratio (z) = 0.74273 0.16520
#
# Static dielectric constant tensor:
#      x y z
#    x 1.617980 0.000000 0.000000 
#    y 0.000000 1.560780 0.000000 
#    z 0.000000 0.000000 1.582740 
# 
# From -- ./inp_files/7720.got.cif
#   From: 2010.05.17/outbox.cif.g08.bks.cpg/sg65_4_cif.got.tgz:7720.got - 2010.06.03 17:01:31.
