data_PCOD9485151
_publ_section_title
;
Structure prediction by ZEFSAII (Michael W. Deem and Ramdas Pophale) SiO2 
 PCOD9485151
Probable space group: C M M M
;
_chemical_formula_sum "Si O2"
_cell_formula_units_Z 72
_cell_length_a 38.541795
_cell_length_b 14.451248
_cell_length_c 7.745680
_cell_angle_alpha 90.000000
_cell_angle_beta 90.000000
_cell_angle_gamma 90.000000
_cell_volume 4314.165903
_symmetry_space_group_name_H-M "C M M M"
_symmetry_group_IT_number 65
_symmetry_cell_setting 'orthorhombic'
loop_
_space_group_symop_operation_xyz
x,y,z
-x,-y,z
x,-y,-z
-x,y,-z
-x,-y,-z
x,y,-z
-x,y,z
x,-y,z
1/2+x,1/2+y,z
1/2-x,1/2-y,z
1/2+x,1/2-y,-z
1/2-x,1/2+y,-z
1/2-x,1/2-y,-z
1/2+x,1/2+y,-z
1/2-x,1/2+y,z
1/2+x,1/2-y,z
loop_
_atom_site_type_symbol
_atom_site_label
_atom_site_fract_x
_atom_site_fract_y
_atom_site_fract_z
Si Si1 0.732128 0.609431 0.704749
Si Si2 0.407124 0.388928 0.704003
Si Si3 0.460525 0.612138 0.000000
Si Si4 0.163447 0.794973 0.700922
Si Si5 0.189428 0.604583 0.798561
O O1 0.735411 0.629881 0.500000
O O2 0.725832 0.500000 0.725232
O O3 0.698907 0.662887 0.777466
O O4 0.769826 0.629808 0.781168
O O5 0.413251 0.368427 0.500000
O O6 0.401782 0.500000 0.717205
O O7 0.372294 0.337402 0.767328
O O8 0.438819 0.362495 0.828795
O O9 0.462016 0.500000 0.000000
O O10 0.500000 0.646763 0.000000
O O11 0.163895 0.823265 0.500000
O O12 0.166903 0.684861 0.713945
O O13 0.185560 0.500000 0.727762
O O14 0.180756 0.602699 0.000000
#
# Coordination Sequence:
#
# PCOD9485151 Si02
#       5
#    16  16   8  16  16
#     4   9  17  30  46  62  84 116 154 195 237 282
#     4   9  18  32  49  73 103 129 157 193 229 272
#     4   9  18  32  50  74 102 133 163 183 214 270
#     4  10  19  30  47  67  87 118 157 195 239 282
#     4  10  21  33  42  58  86 119 158 202 243 282
#
# _framework density 16.689205999999999
#
# number of rings (size 3 to 8) (size 9 to 14) (size 15 to 20)
#    0.000    2.556    0.000    2.000    1.556    8.000 
#    0.000    2.222    0.000    0.000    0.000    0.000 
#    0.000    1.778    0.000    4.889    0.000    0.222 
#
# Total GULP energy -200704.613046 kJ/mol
# GULP energy per Si atom -5575.128140 kJ/mol
# Density = 1.665122 g / cm^3
# Si number density = 16.689206 Si / 1000 Ang^3
#
#
#
# Elastic Constant Matrix: (Units=GPa)
#
#
# Indices 1 2 3 4 5 6 
#
# 1 90.8711 48.4171 27.3688 0.0000 0.0000 0.0000
# 2 48.4171 47.2120 13.7509 0.0000 0.0000 0.0000
# 3 27.3688 13.7509 47.7109 0.0000 0.0000 0.0000
# 4 0.0000 0.0000 0.0000 12.6190 0.0000 0.0000
# 5 0.0000 0.0000 0.0000 0.0000 22.9554 0.0000
# 6 0.0000 0.0000 0.0000 0.0000 0.0000 14.8155
#
#
#
# Elastic Compliance Matrix: (Units=1/GPa)
#
#
# Indices 1 2 3 4 5 6 
#
# 1 0.026888 -0.025197 -0.008162 0.000000 0.000000 0.000000
# 2 -0.025197 0.046735 0.000985 0.000000 0.000000 0.000000
# 3 -0.008162 0.000985 0.025358 0.000000 0.000000 0.000000
# 4 0.000000 0.000000 0.000000 0.079245 0.000000 0.000000
# 5 0.000000 0.000000 0.000000 0.000000 0.043563 0.000000
# 6 0.000000 0.000000 0.000000 0.000000 0.000000 0.067497
#
#
# Mechanical properties :
#
#
# Convention : Reuss Voigt Hill
#
# Bulk Modulus (GPa) = 29.21290 40.54085 34.87687
# Shear Modulus (GPa) = 13.68194 16.49514 15.08854
#
# Velocity S-wave (km/s) = 2.86633 3.14725 3.01007
# Velocity P-wave (km/s) = 5.33822 6.12791 5.74664
#
# Compressibility (1/GPa) = 0.03423146
#
# Stress axis : x y z
#
# Youngs Moduli (GPa) = 37.19110 21.39742 39.43558
#
# Poissons Ratio (x) = 0.53916 0.32187
# Poissons Ratio (y) = 0.93711 -0.03883
# Poissons Ratio (z) = 0.30355 -0.02107
#
# Static dielectric constant tensor:
#      x y z
#    x 1.554950 0.000000 0.000000 
#    y 0.000000 1.568980 0.000000 
#    z 0.000000 0.000000 1.604770 
# 
# From -- ./inp_files/7651.got.cif
#   From: 2010.05.17/outbox.cif.g08.bks.cpg/sg65_4_cif.got.tgz:7651.got - 2010.06.03 17:01:31.
