data_PCOD9485612
_publ_section_title
;
Structure prediction by ZEFSAII (Michael W. Deem and Ramdas Pophale) SiO2 
 PCOD9485612
Probable space group: C M M M
;
_chemical_formula_sum "Si O2"
_cell_formula_units_Z 104
_cell_length_a 28.968059
_cell_length_b 7.625828
_cell_length_c 24.362206
_cell_angle_alpha 90.000000
_cell_angle_beta 90.000000
_cell_angle_gamma 90.000000
_cell_volume 5381.743724
_symmetry_space_group_name_H-M "C M M M"
_symmetry_group_IT_number 65
_symmetry_cell_setting 'orthorhombic'
loop_
_space_group_symop_operation_xyz
x,y,z
-x,-y,z
x,-y,-z
-x,y,-z
-x,-y,-z
x,y,-z
-x,y,z
x,-y,z
1/2+x,1/2+y,z
1/2-x,1/2-y,z
1/2+x,1/2-y,-z
1/2-x,1/2+y,-z
1/2-x,1/2-y,-z
1/2+x,1/2+y,-z
1/2-x,1/2+y,z
1/2+x,1/2-y,z
loop_
_atom_site_type_symbol
_atom_site_label
_atom_site_fract_x
_atom_site_fract_y
_atom_site_fract_z
Si Si1 0.448111 0.788518 0.779874
Si Si2 0.804274 0.788745 0.500000
Si Si3 0.948045 0.288524 0.654186
Si Si4 0.851441 0.207867 0.610737
Si Si5 0.146339 0.207700 0.831117
Si Si6 0.196232 0.789096 0.938703
Si Si7 0.304072 0.289067 0.278329
O O1 0.500000 0.730629 0.794248
O O2 0.438479 0.729016 0.717067
O O3 0.407745 0.730918 0.819990
O O4 0.448161 0.000000 0.778871
O O5 0.750000 0.750000 0.500000
O O6 0.828659 0.720615 0.444669
O O7 0.809537 0.000000 0.500000
O O8 0.948509 0.500000 0.654923
O O9 0.906293 0.232183 0.615726
O O10 0.000000 0.230152 0.639469
O O11 0.828493 0.280303 0.666538
O O12 0.842170 0.000000 0.610829
O O13 0.165455 0.279405 0.888510
O O14 0.172594 0.280410 0.777416
O O15 0.156036 0.000000 0.832250
O O16 0.250000 0.750000 0.927578
O O17 0.191206 0.000000 0.940779
O O18 0.185277 0.721435 0.000000
O O19 0.310083 0.500000 0.278101
O O20 0.250000 0.250000 0.279249
#
# Coordination Sequence:
#
# PCOD9485612 Si02
#       7
#    16   8  16  16  16  16  16
#     4   9  18  32  50  74 102 129 160 200 247 298
#     4  10  22  38  55  74  99 133 172 207 241 290
#     4   9  18  33  53  77 102 128 161 201 247 299
#     4  10  20  35  52  73 100 130 165 204 244 291
#     4  10  19  31  48  73 101 127 162 203 245 293
#     4   9  18  32  49  70  99 134 169 204 241 286
#     4  10  20  31  45  69  98 125 157 199 243 287
#
# _framework density 19.324590000000001
#
# number of rings (size 3 to 8) (size 9 to 14) (size 15 to 20)
#    0.000    2.462    1.538    1.846    0.000    3.077 
#    0.000    1.923    0.000    2.769    0.000    3.231 
#    0.000    0.000    0.000    0.000    0.000    0.000 
#
# Total GULP energy -290169.996406 kJ/mol
# GULP energy per Si atom -5580.192239 kJ/mol
# Density = 1.928061 g / cm^3
# Si number density = 19.324590 Si / 1000 Ang^3
#
#
#
# Elastic Constant Matrix: (Units=GPa)
#
#
# Indices 1 2 3 4 5 6 
#
# 1 147.9505 -12.8182 112.0923 0.0000 0.0000 0.0000
# 2 -12.8182 35.7898 12.5611 0.0000 0.0000 0.0000
# 3 112.0923 12.5611 173.7208 0.0000 0.0000 0.0000
# 4 0.0000 0.0000 0.0000 -1.0696 0.0000 0.0000
# 5 0.0000 0.0000 0.0000 0.0000 30.7248 0.0000
# 6 0.0000 0.0000 0.0000 0.0000 0.0000 27.7068
#
#
#
# Elastic Compliance Matrix: (Units=1/GPa)
#
#
# Indices 1 2 3 4 5 6 
#
# 1 0.015855 0.009510 -0.010918 0.000000 0.000000 0.000000
# 2 0.009510 0.034373 -0.008622 0.000000 0.000000 0.000000
# 3 -0.010918 -0.008622 0.013424 0.000000 0.000000 0.000000
# 4 0.000000 0.000000 0.000000 -0.934895 0.000000 0.000000
# 5 0.000000 0.000000 0.000000 0.000000 0.032547 0.000000
# 6 0.000000 0.000000 0.000000 0.000000 0.000000 0.036092
#
#
# Mechanical properties :
#
#
# Convention : Reuss Voigt Hill
#
# Bulk Modulus (GPa) = 22.93932 64.57015 43.75474
# Shear Modulus (GPa) = -6.51030 27.84743 10.66857
#
# Velocity S-wave (km/s) = -1.83745 3.80022 2.35217
# Velocity P-wave (km/s) = 2.71931 7.26234 5.48344
#
# Compressibility (1/GPa) = 0.04359327
#
# Stress axis : x y z
#
# Youngs Moduli (GPa) = 63.07328 29.09262 74.49149
#
# Poissons Ratio (x) = -0.27667 0.81328
# Poissons Ratio (y) = -0.59983 0.64225
# Poissons Ratio (z) = 0.68862 0.25083
#
# Static dielectric constant tensor:
#      x y z
#    x 1.650980 0.000000 0.000000 
#    y 0.000000 1.706780 0.000000 
#    z 0.000000 0.000000 1.690550 
# 
# From -- ./inp_files/71847.got.cif
#   From: 2010.05.17/outbox.cif.g08.bks.cpg/sg65_36_cif.got.tgz:71847.got - 2010.06.03 17:01:31.
