data_PCOD9485894
_publ_section_title
;
Structure prediction by ZEFSAII (Michael W. Deem and Ramdas Pophale) SiO2 
 PCOD9485894
Probable space group: C M M M
;
_chemical_formula_sum "Si O2"
_cell_formula_units_Z 72
_cell_length_a 8.778485
_cell_length_b 15.911213
_cell_length_c 25.457343
_cell_angle_alpha 90.000000
_cell_angle_beta 90.000000
_cell_angle_gamma 90.000000
_cell_volume 3555.788615
_symmetry_space_group_name_H-M "C M M M"
_symmetry_group_IT_number 65
_symmetry_cell_setting 'orthorhombic'
loop_
_space_group_symop_operation_xyz
x,y,z
-x,-y,z
x,-y,-z
-x,y,-z
-x,-y,-z
x,y,-z
-x,y,z
x,-y,z
1/2+x,1/2+y,z
1/2-x,1/2-y,z
1/2+x,1/2-y,-z
1/2-x,1/2+y,-z
1/2-x,1/2-y,-z
1/2+x,1/2+y,-z
1/2-x,1/2+y,z
1/2+x,1/2-y,z
loop_
_atom_site_type_symbol
_atom_site_label
_atom_site_fract_x
_atom_site_fract_y
_atom_site_fract_z
Si Si1 0.321806 0.500000 0.562796
Si Si2 0.176306 0.901867 0.721882
Si Si3 0.680521 0.162354 0.617876
Si Si4 0.183534 0.655423 0.170912
Si Si5 0.316138 0.844675 0.943577
O O1 0.500000 0.500000 0.577613
O O2 0.309305 0.500000 0.500000
O O3 0.245344 0.583203 0.586189
O O4 0.268306 0.851140 0.678246
O O5 0.246343 0.891183 0.779466
O O6 0.000000 0.874594 0.721966
O O7 0.182197 0.000000 0.707209
O O8 0.500000 0.164531 0.614365
O O9 0.750000 0.250000 0.598639
O O10 0.250000 0.750000 0.172597
O O11 0.226077 0.618375 0.113313
O O12 0.000000 0.657322 0.175026
O O13 0.500000 0.840020 0.943516
O O14 0.250000 0.750000 0.943645
O O15 0.270215 0.883676 0.000000
#
# Coordination Sequence:
#
# PCOD9485894 Si02
#       5
#     8  16  16  16  16
#     4  11  25  47  73 103 141 179 218 265 314 367
#     4  11  23  39  59  82 116 156 200 254 313 374
#     4  12  25  43  70 100 134 174 219 267 318 377
#     4  10  19  31  50  77 109 142 186 239 296 366
#     4   8  14  25  42  66  97 134 176 228 289 353
#
# _framework density 20.248673
#
# number of rings (size 3 to 8) (size 9 to 14) (size 15 to 20)
#    0.000    1.667    1.111    4.333    0.000    3.556 
#    0.000    0.000    0.000    0.667    0.000    4.667 
#    0.000    0.000    0.000    0.000    0.000    0.000 
#
# Total GULP energy -201047.405939 kJ/mol
# GULP energy per Si atom -5584.650165 kJ/mol
# Density = 2.020259 g / cm^3
# Si number density = 20.248673 Si / 1000 Ang^3
#
#
#
# Elastic Constant Matrix: (Units=GPa)
#
#
# Indices 1 2 3 4 5 6 
#
# 1 142.9887 56.4432 58.1517 0.0000 0.0000 0.0000
# 2 56.4432 100.7940 48.9927 0.0000 0.0000 0.0000
# 3 58.1517 48.9927 104.8059 0.0000 0.0000 0.0000
# 4 0.0000 0.0000 0.0000 24.1543 0.0000 0.0000
# 5 0.0000 0.0000 0.0000 0.0000 30.7657 0.0000
# 6 0.0000 0.0000 0.0000 0.0000 0.0000 26.4127
#
#
#
# Elastic Compliance Matrix: (Units=1/GPa)
#
#
# Indices 1 2 3 4 5 6 
#
# 1 0.010027 -0.003767 -0.003803 0.000000 0.000000 0.000000
# 2 -0.003767 0.014253 -0.004573 0.000000 0.000000 0.000000
# 3 -0.003803 -0.004573 0.013789 0.000000 0.000000 0.000000
# 4 0.000000 0.000000 0.000000 0.041400 0.000000 0.000000
# 5 0.000000 0.000000 0.000000 0.000000 0.032504 0.000000
# 6 0.000000 0.000000 0.000000 0.000000 0.000000 0.037861
#
#
# Mechanical properties :
#
#
# Convention : Reuss Voigt Hill
#
# Bulk Modulus (GPa) = 72.54401 75.08487 73.81444
# Shear Modulus (GPa) = 27.97779 28.59995 28.28887
#
# Velocity S-wave (km/s) = 3.72117 3.76232 3.74180
# Velocity P-wave (km/s) = 7.37341 7.48567 7.42975
#
# Compressibility (1/GPa) = 0.01378474
#
# Stress axis : x y z
#
# Youngs Moduli (GPa) = 99.73199 70.15970 72.52125
#
# Poissons Ratio (x) = 0.26426 0.27578
# Poissons Ratio (y) = 0.37564 0.33164
# Poissons Ratio (z) = 0.37925 0.32084
#
# Static dielectric constant tensor:
#      x y z
#    x 1.677540 0.000000 0.000000 
#    y 0.000000 1.712800 0.000000 
#    z 0.000000 0.000000 1.757030 
# 
# From -- ./inp_files/72509.got.cif
#   From: 2010.05.17/outbox.cif.g08.bks.cpg/sg65_37_cif.got.tgz:72509.got - 2010.06.03 17:01:31.
