data_PCOD9485085
_publ_section_title
;
Structure prediction by ZEFSAII (Michael W. Deem and Ramdas Pophale) SiO2 
 PCOD9485085
Probable space group: C M M M
;
_chemical_formula_sum "Si O2"
_cell_formula_units_Z 96
_cell_length_a 26.301559
_cell_length_b 14.108877
_cell_length_c 16.949116
_cell_angle_alpha 90.000000
_cell_angle_beta 90.000000
_cell_angle_gamma 90.000000
_cell_volume 6289.570522
_symmetry_space_group_name_H-M "C M M M"
_symmetry_group_IT_number 65
_symmetry_cell_setting 'orthorhombic'
loop_
_space_group_symop_operation_xyz
x,y,z
-x,-y,z
x,-y,-z
-x,y,-z
-x,-y,-z
x,y,-z
-x,y,z
x,-y,z
1/2+x,1/2+y,z
1/2-x,1/2-y,z
1/2+x,1/2-y,-z
1/2-x,1/2+y,-z
1/2-x,1/2-y,-z
1/2+x,1/2+y,-z
1/2-x,1/2+y,z
1/2+x,1/2-y,z
loop_
_atom_site_type_symbol
_atom_site_label
_atom_site_fract_x
_atom_site_fract_y
_atom_site_fract_z
Si Si1 0.713135 0.114402 0.409986
Si Si2 0.645594 0.201902 0.275618
Si Si3 0.311119 0.607934 0.309662
Si Si4 0.440199 0.113639 0.828427
Si Si5 0.102130 0.614985 0.000000
Si Si6 0.769163 0.390497 0.171542
Si Si7 0.280227 0.885791 0.000000
O O1 0.707891 0.146280 0.500000
O O2 0.668492 0.150006 0.352786
O O3 0.768581 0.139731 0.373875
O O4 0.712054 0.000000 0.407814
O O5 0.646664 0.312553 0.297711
O O6 0.593846 0.163912 0.238025
O O7 0.688246 0.176040 0.209611
O O8 0.327465 0.500000 0.326634
O O9 0.278620 0.607440 0.228954
O O10 0.500000 0.130964 0.818406
O O11 0.423617 0.143874 0.917328
O O12 0.431381 0.000000 0.823169
O O13 0.100757 0.500000 0.000000
O O14 0.160963 0.645034 0.000000
O O15 0.789522 0.500000 0.170139
O O16 0.756070 0.359793 0.083238
O O17 0.280118 0.000000 0.000000
#
# Coordination Sequence:
#
# PCOD9485085 Si02
#       7
#    16  16  16  16   8  16   8
#     4   9  17  29  47  72  98 121 145 174 212 262
#     4  11  18  28  45  63  87 117 150 181 218 260
#     4   9  19  31  42  59  87 120 152 185 216 249
#     4  10  19  30  46  68  91 113 141 181 229 277
#     4   9  15  26  42  64  91 117 141 175 224 269
#     4   9  15  25  40  61  87 114 140 168 210 262
#     4   9  14  21  38  60  88 117 140 168 208 262
#
# _framework density 15.263363999999999
#
# number of rings (size 3 to 8) (size 9 to 14) (size 15 to 20)
#    0.000    2.500    1.667    4.750    0.000    2.333 
#    0.000    2.500    0.000    1.000    0.000    2.333 
#    0.000    1.333    0.000    5.667    0.000    0.167 
#
# Total GULP energy -267378.318519 kJ/mol
# GULP energy per Si atom -5570.381636 kJ/mol
# Density = 1.522862 g / cm^3
# Si number density = 15.263364 Si / 1000 Ang^3
#
#
#
# Elastic Constant Matrix: (Units=GPa)
#
#
# Indices 1 2 3 4 5 6 
#
# 1 47.1897 17.7999 29.7487 0.0000 0.0000 0.0000
# 2 17.7999 64.5313 15.4760 0.0000 0.0000 0.0000
# 3 29.7487 15.4760 125.2518 0.0000 0.0000 0.0000
# 4 0.0000 0.0000 0.0000 -1.9199 0.0000 0.0000
# 5 0.0000 0.0000 0.0000 0.0000 9.0804 0.0000
# 6 0.0000 0.0000 0.0000 0.0000 0.0000 16.6398
#
#
#
# Elastic Compliance Matrix: (Units=1/GPa)
#
#
# Indices 1 2 3 4 5 6 
#
# 1 0.027072 -0.006106 -0.005675 0.000000 0.000000 0.000000
# 2 -0.006106 0.017347 -0.000693 0.000000 0.000000 0.000000
# 3 -0.005675 -0.000693 0.009418 0.000000 0.000000 0.000000
# 4 0.000000 0.000000 0.000000 -0.520850 0.000000 0.000000
# 5 0.000000 0.000000 0.000000 0.000000 0.110128 0.000000
# 6 0.000000 0.000000 0.000000 0.000000 0.000000 0.060097
#
#
# Mechanical properties :
#
#
# Convention : Reuss Voigt Hill
#
# Bulk Modulus (GPa) = 34.61769 40.33579 37.47674
# Shear Modulus (GPa) = -19.06868 16.35659 -1.35604
#
# Velocity S-wave (km/s) = -3.53839 3.27712 -0.94359
# Velocity P-wave (km/s) = 2.45680 6.38774 4.83938
#
# Compressibility (1/GPa) = 0.02888696
#
# Stress axis : x y z
#
# Youngs Moduli (GPa) = 36.93825 57.64725 106.18491
#
# Poissons Ratio (x) = 0.35201 0.60265
# Poissons Ratio (y) = 0.22556 0.07359
# Poissons Ratio (z) = 0.20964 0.03995
#
# Static dielectric constant tensor:
#      x y z
#    x 1.481190 0.000000 0.000000 
#    y 0.000000 1.558260 0.000000 
#    z 0.000000 0.000000 1.533430 
# 
# From -- ./inp_files/58288.got.cif
#   From: 2010.05.17/outbox.cif.g08.bks.cpg/sg65_30_cif.got.tgz:58288.got - 2010.06.03 17:01:31.
