data_PCOD9485070
_publ_section_title
;
Structure prediction by ZEFSAII (Michael W. Deem and Ramdas Pophale) SiO2 
 PCOD9485070
Probable space group: C M M M
;
_chemical_formula_sum "Si O2"
_cell_formula_units_Z 112
_cell_length_a 18.913720
_cell_length_b 14.596229
_cell_length_c 19.793754
_cell_angle_alpha 90.000000
_cell_angle_beta 90.000000
_cell_angle_gamma 90.000000
_cell_volume 5464.441643
_symmetry_space_group_name_H-M "C M M M"
_symmetry_group_IT_number 65
_symmetry_cell_setting 'orthorhombic'
loop_
_space_group_symop_operation_xyz
x,y,z
-x,-y,z
x,-y,-z
-x,y,-z
-x,-y,-z
x,y,-z
-x,y,z
x,-y,z
1/2+x,1/2+y,z
1/2-x,1/2-y,z
1/2+x,1/2-y,-z
1/2-x,1/2+y,-z
1/2-x,1/2-y,-z
1/2+x,1/2+y,-z
1/2-x,1/2+y,z
1/2+x,1/2-y,z
loop_
_atom_site_type_symbol
_atom_site_label
_atom_site_fract_x
_atom_site_fract_y
_atom_site_fract_z
Si Si1 0.578890 0.893170 0.294633
Si Si2 0.670742 0.864906 0.574543
Si Si3 0.143177 0.890845 0.721796
Si Si4 0.077119 0.888196 0.860024
Si Si5 0.667396 0.645273 0.575223
Si Si6 0.776034 0.111700 0.075138
Si Si7 0.789775 0.612446 0.786394
O O1 0.500000 0.852974 0.295538
O O2 0.617137 0.891812 0.367241
O O3 0.637131 0.851960 0.244135
O O4 0.572033 0.000000 0.275900
O O5 0.649358 0.896562 0.500000
O O6 0.671964 0.754856 0.572754
O O7 0.752636 0.892528 0.585728
O O8 0.092013 0.860735 0.782218
O O9 0.125104 0.873302 0.643884
O O10 0.222323 0.857490 0.741463
O O11 0.146395 0.000000 0.728356
O O12 0.144357 0.860005 0.904445
O O13 0.000000 0.856082 0.882442
O O14 0.076520 0.000000 0.862157
O O15 0.643207 0.614886 0.500000
O O16 0.725562 0.139940 0.136691
O O17 0.775696 0.000000 0.075430
O O18 0.756741 0.141610 0.000000
O O19 0.790838 0.500000 0.783873
#
# Coordination Sequence:
#
# PCOD9485070 Si02
#       7
#    16  16  16  16  16  16  16
#     4  10  19  30  46  66  89 119 150 184 229 274
#     4   9  18  31  44  61  87 114 143 183 229 272
#     4   9  15  25  43  63  85 116 152 185 217 256
#     4   8  14  23  35  55  84 114 143 179 220 257
#     4   9  17  29  45  63  84 113 147 186 227 261
#     4   8  13  21  36  58  84 116 146 172 210 259
#     4   8  14  25  39  59  87 114 145 182 216 255
#
# _framework density 20.496146
#
# number of rings (size 3 to 8) (size 9 to 14) (size 15 to 20)
#    0.000    3.286    1.429    2.571    0.000    1.143 
#    0.000    4.286    0.000    1.714    0.000    5.000 
#    0.000    9.143    0.000    1.143    0.000    0.571 
#
# Total GULP energy -312072.844069 kJ/mol
# GULP energy per Si atom -5572.729358 kJ/mol
# Density = 2.044950 g / cm^3
# Si number density = 20.496146 Si / 1000 Ang^3
#
#
#
# Elastic Constant Matrix: (Units=GPa)
#
#
# Indices 1 2 3 4 5 6 
#
# 1 76.2035 3.3448 33.8216 0.0000 0.0000 0.0000
# 2 3.3448 48.5059 -10.3826 0.0000 0.0000 0.0000
# 3 33.8216 -10.3826 145.0730 0.0000 0.0000 0.0000
# 4 0.0000 0.0000 0.0000 30.0313 0.0000 0.0000
# 5 0.0000 0.0000 0.0000 0.0000 13.7467 0.0000
# 6 0.0000 0.0000 0.0000 0.0000 0.0000 8.4144
#
#
#
# Elastic Compliance Matrix: (Units=1/GPa)
#
#
# Indices 1 2 3 4 5 6 
#
# 1 0.014788 -0.001785 -0.003575 0.000000 0.000000 0.000000
# 2 -0.001785 0.021152 0.001930 0.000000 0.000000 0.000000
# 3 -0.003575 0.001930 0.007865 0.000000 0.000000 0.000000
# 4 0.000000 0.000000 0.000000 0.033299 0.000000 0.000000
# 5 0.000000 0.000000 0.000000 0.000000 0.072745 0.000000
# 6 0.000000 0.000000 0.000000 0.000000 0.000000 0.118843
#
#
# Mechanical properties :
#
#
# Convention : Reuss Voigt Hill
#
# Bulk Modulus (GPa) = 27.06786 35.92777 31.49782
# Shear Modulus (GPa) = 17.36913 26.63840 22.00377
#
# Velocity S-wave (km/s) = 2.91423 3.60902 3.28007
# Velocity P-wave (km/s) = 4.95567 5.91048 5.45401
#
# Compressibility (1/GPa) = 0.03694418
#
# Stress axis : x y z
#
# Youngs Moduli (GPa) = 67.62256 47.27634 127.14975
#
# Poissons Ratio (x) = 0.08439 0.45460
# Poissons Ratio (y) = 0.12071 -0.24540
# Poissons Ratio (z) = 0.24177 -0.09124
#
# Static dielectric constant tensor:
#      x y z
#    x 1.726100 0.000000 0.000000 
#    y 0.000000 1.795730 0.000000 
#    z 0.000000 0.000000 1.751450 
# 
# From -- ./inp_files/56159.got.cif
#   From: 2010.05.17/outbox.cif.g08.bks.cpg/sg65_29_cif.got.tgz:56159.got - 2010.06.03 17:01:31.
