data_PCOD9485426
_publ_section_title
;
Structure prediction by ZEFSAII (Michael W. Deem and Ramdas Pophale) SiO2 
 PCOD9485426
Probable space group: C M M M
;
_chemical_formula_sum "Si O2"
_cell_formula_units_Z 88
_cell_length_a 9.056773
_cell_length_b 14.723761
_cell_length_c 30.529401
_cell_angle_alpha 90.000000
_cell_angle_beta 90.000000
_cell_angle_gamma 90.000000
_cell_volume 4071.088329
_symmetry_space_group_name_H-M "C M M M"
_symmetry_group_IT_number 65
_symmetry_cell_setting 'orthorhombic'
loop_
_space_group_symop_operation_xyz
x,y,z
-x,-y,z
x,-y,-z
-x,y,-z
-x,-y,-z
x,y,-z
-x,y,z
x,-y,z
1/2+x,1/2+y,z
1/2-x,1/2-y,z
1/2+x,1/2-y,-z
1/2-x,1/2+y,-z
1/2-x,1/2-y,-z
1/2+x,1/2+y,-z
1/2-x,1/2+y,z
1/2+x,1/2-y,z
loop_
_atom_site_type_symbol
_atom_site_label
_atom_site_fract_x
_atom_site_fract_y
_atom_site_fract_z
Si Si1 0.831554 0.111399 0.588781
Si Si2 0.677271 0.349166 0.763483
Si Si3 0.836343 0.606380 0.325274
Si Si4 0.178633 0.850536 0.047242
Si Si5 0.831637 0.389012 0.500000
Si Si6 0.178121 0.149796 0.141686
O O1 0.748453 0.143156 0.632487
O O2 0.750390 0.138822 0.544285
O O3 0.000000 0.142349 0.588979
O O4 0.833654 0.000000 0.589077
O O5 0.500000 0.346230 0.759953
O O6 0.750000 0.250000 0.765365
O O7 0.744980 0.389004 0.719468
O O8 0.715811 0.392536 0.811007
O O9 0.853830 0.500000 0.334609
O O10 0.000000 0.647274 0.319590
O O11 0.250000 0.750000 0.047234
O O12 0.219503 0.892595 0.094518
O O13 0.000000 0.843574 0.047205
O O14 0.220316 0.892456 0.000000
O O15 0.833100 0.500000 0.500000
O O16 0.000000 0.357627 0.500000
O O17 0.250000 0.250000 0.141400
O O18 0.000000 0.158452 0.141894
#
# Coordination Sequence:
#
# PCOD9485426 Si02
#       6
#    16  16  16  16   8  16
#     4   9  16  26  41  62  88 117 148 182 222 267
#     4  10  19  31  47  66  90 120 154 189 225 268
#     4  10  20  33  48  67  92 120 151 189 232 274
#     4   8  12  18  29  46  70 100 132 165 204 251
#     4   9  15  23  37  59  88 119 148 179 218 263
#     4   8  14  23  35  53  77 106 139 174 212 255
#
# _framework density 21.615841
#
# number of rings (size 3 to 8) (size 9 to 14) (size 15 to 20)
#    0.000    3.000    0.000    1.909    0.000    5.091 
#    0.000    0.000    0.000    0.000    0.000    0.636 
#    0.000    0.727    0.000    9.091    0.000    4.727 
#
# Total GULP energy -245116.740573 kJ/mol
# GULP energy per Si atom -5570.835013 kJ/mol
# Density = 2.156664 g / cm^3
# Si number density = 21.615841 Si / 1000 Ang^3
#
#
#
# Elastic Constant Matrix: (Units=GPa)
#
#
# Indices 1 2 3 4 5 6 
#
# 1 111.4481 8.3439 100.5316 0.0000 0.0000 0.0000
# 2 8.3439 50.9389 11.9969 0.0000 0.0000 0.0000
# 3 100.5316 11.9969 283.2574 0.0000 0.0000 0.0000
# 4 0.0000 0.0000 0.0000 -4.5643 0.0000 0.0000
# 5 0.0000 0.0000 0.0000 0.0000 36.0037 0.0000
# 6 0.0000 0.0000 0.0000 0.0000 0.0000 4.5683
#
#
#
# Elastic Compliance Matrix: (Units=1/GPa)
#
#
# Indices 1 2 3 4 5 6 
#
# 1 0.013256 -0.001074 -0.004659 0.000000 0.000000 0.000000
# 2 -0.001074 0.019916 -0.000462 0.000000 0.000000 0.000000
# 3 -0.004659 -0.000462 0.005204 0.000000 0.000000 0.000000
# 4 0.000000 0.000000 0.000000 -0.219091 0.000000 0.000000
# 5 0.000000 0.000000 0.000000 0.000000 0.027775 0.000000
# 6 0.000000 0.000000 0.000000 0.000000 0.000000 0.218899
#
#
# Mechanical properties :
#
#
# Convention : Reuss Voigt Hill
#
# Bulk Modulus (GPa) = 38.48438 76.37658 57.43048
# Shear Modulus (GPa) = 57.46369 28.85300 43.15834
#
# Velocity S-wave (km/s) = 5.16157 3.65747 4.47319
# Velocity P-wave (km/s) = 7.30512 7.29701 7.30107
#
# Compressibility (1/GPa) = 0.02598457
#
# Stress axis : x y z
#
# Youngs Moduli (GPa) = 75.43717 50.21042 192.17589
#
# Poissons Ratio (x) = 0.05393 0.89540
# Poissons Ratio (y) = 0.08102 0.08885
# Poissons Ratio (z) = 0.35148 0.02321
#
# Static dielectric constant tensor:
#      x y z
#    x 1.741930 0.000000 0.000000 
#    y 0.000000 1.879090 0.000000 
#    z 0.000000 0.000000 1.845130 
# 
# From -- ./inp_files/75338.got.cif
#   From: 2010.05.17/outbox.cif.g08.bks.cpg/sg65_38_cif.got.tgz:75338.got - 2010.06.03 17:01:31.
