data_PCOD9485415
_publ_section_title
;
Structure prediction by ZEFSAII (Michael W. Deem and Ramdas Pophale) SiO2 
 PCOD9485415
Probable space group: C M M M
;
_chemical_formula_sum "Si O2"
_cell_formula_units_Z 88
_cell_length_a 17.789363
_cell_length_b 26.648661
_cell_length_c 12.516034
_cell_angle_alpha 90.000000
_cell_angle_beta 90.000000
_cell_angle_gamma 90.000000
_cell_volume 5933.384921
_symmetry_space_group_name_H-M "C M M M"
_symmetry_group_IT_number 65
_symmetry_cell_setting 'orthorhombic'
loop_
_space_group_symop_operation_xyz
x,y,z
-x,-y,z
x,-y,-z
-x,y,-z
-x,-y,-z
x,y,-z
-x,y,z
x,-y,z
1/2+x,1/2+y,z
1/2-x,1/2-y,z
1/2+x,1/2-y,-z
1/2-x,1/2+y,-z
1/2-x,1/2-y,-z
1/2+x,1/2+y,-z
1/2-x,1/2+y,z
1/2+x,1/2-y,z
loop_
_atom_site_type_symbol
_atom_site_label
_atom_site_fract_x
_atom_site_fract_y
_atom_site_fract_z
Si Si1 0.170015 0.559810 0.718259
Si Si2 0.181594 0.715555 0.745611
Si Si3 0.411309 0.134286 0.872613
Si Si4 0.277222 0.632351 0.373267
Si Si5 0.415891 0.939334 0.500000
Si Si6 0.586595 0.700684 0.372413
O O1 0.172721 0.500000 0.728791
O O2 0.125863 0.586372 0.814200
O O3 0.250742 0.585230 0.697018
O O4 0.125929 0.574023 0.608861
O O5 0.250000 0.750000 0.789806
O O6 0.136209 0.681678 0.829311
O O7 0.221289 0.677607 0.661509
O O8 0.123850 0.752298 0.686654
O O9 0.500000 0.138295 0.844587
O O10 0.405503 0.130386 0.000000
O O11 0.271648 0.622393 0.500000
O O12 0.360431 0.652872 0.349823
O O13 0.500000 0.918785 0.500000
O O14 0.419463 0.000000 0.500000
O O15 0.590704 0.709254 0.500000
O O16 0.500000 0.693695 0.342467
#
# Coordination Sequence:
#
# PCOD9485415 Si02
#       6
#    16  16  16  16   8  16
#     4  10  19  31  47  65  86 116 150 185 224 266
#     4   9  17  29  46  66  88 118 152 187 221 258
#     4  10  21  34  46  63  90 122 153 186 225 268
#     4   9  16  27  43  65  92 119 147 181 222 266
#     4   9  16  26  42  64  84 103 135 179 220 256
#     4   9  16  26  43  67  94 122 150 180 218 266
#
# _framework density 14.831332
#
# number of rings (size 3 to 8) (size 9 to 14) (size 15 to 20)
#    0.000    2.636    0.909    1.636    0.000    4.000 
#    0.000    0.909    0.000    0.545    0.000    2.545 
#    0.000    0.000    0.000   14.727    0.000    0.000 
#
# Total GULP energy -245050.087479 kJ/mol
# GULP energy per Si atom -5569.320170 kJ/mol
# Density = 1.479758 g / cm^3
# Si number density = 14.831332 Si / 1000 Ang^3
#
#
#
# Elastic Constant Matrix: (Units=GPa)
#
#
# Indices 1 2 3 4 5 6 
#
# 1 126.8246 61.6344 45.1322 0.0000 0.0000 0.0000
# 2 61.6344 95.8546 36.2438 0.0000 0.0000 0.0000
# 3 45.1322 36.2438 55.9198 0.0000 0.0000 0.0000
# 4 0.0000 0.0000 0.0000 15.9714 0.0000 0.0000
# 5 0.0000 0.0000 0.0000 0.0000 19.8037 0.0000
# 6 0.0000 0.0000 0.0000 0.0000 0.0000 14.3576
#
#
#
# Elastic Compliance Matrix: (Units=1/GPa)
#
#
# Indices 1 2 3 4 5 6 
#
# 1 0.013174 -0.005895 -0.006812 0.000000 0.000000 0.000000
# 2 -0.005895 0.016457 -0.005909 0.000000 0.000000 0.000000
# 3 -0.006812 -0.005909 0.027210 0.000000 0.000000 0.000000
# 4 0.000000 0.000000 0.000000 0.062612 0.000000 0.000000
# 5 0.000000 0.000000 0.000000 0.000000 0.050496 0.000000
# 6 0.000000 0.000000 0.000000 0.000000 0.000000 0.069650
#
#
# Mechanical properties :
#
#
# Convention : Reuss Voigt Hill
#
# Bulk Modulus (GPa) = 50.99386 62.73553 56.86470
# Shear Modulus (GPa) = 17.64503 19.06575 18.35539
#
# Velocity S-wave (km/s) = 3.45296 3.58928 3.52178
# Velocity P-wave (km/s) = 7.09609 7.71806 7.41360
#
# Compressibility (1/GPa) = 0.01961020
#
# Stress axis : x y z
#
# Youngs Moduli (GPa) = 75.90790 60.76360 36.75138
#
# Poissons Ratio (x) = 0.35822 0.25033
# Poissons Ratio (y) = 0.44750 0.21715
# Poissons Ratio (z) = 0.51705 0.35903
#
# Static dielectric constant tensor:
#      x y z
#    x 1.509140 0.000000 0.000000 
#    y 0.000000 1.493170 0.000000 
#    z 0.000000 0.000000 1.468880 
# 
# From -- ./inp_files/25148.got.cif
#   From: 2010.05.17/outbox.cif.g08.bks.cpg/sg65_13_cif.got.tgz:25148.got - 2010.06.03 17:01:31.
