data_PCOD9485346
_publ_section_title
;
Structure prediction by ZEFSAII (Michael W. Deem and Ramdas Pophale) SiO2 
 PCOD9485346
Probable space group: C M M M
;
_chemical_formula_sum "Si O2"
_cell_formula_units_Z 88
_cell_length_a 18.748849
_cell_length_b 7.822150
_cell_length_c 33.178369
_cell_angle_alpha 90.000000
_cell_angle_beta 90.000000
_cell_angle_gamma 90.000000
_cell_volume 4865.817143
_symmetry_space_group_name_H-M "C M M M"
_symmetry_group_IT_number 65
_symmetry_cell_setting 'orthorhombic'
loop_
_space_group_symop_operation_xyz
x,y,z
-x,-y,z
x,-y,-z
-x,y,-z
-x,-y,-z
x,y,-z
-x,y,z
x,-y,z
1/2+x,1/2+y,z
1/2-x,1/2-y,z
1/2+x,1/2-y,-z
1/2-x,1/2+y,-z
1/2-x,1/2-y,-z
1/2+x,1/2+y,-z
1/2-x,1/2+y,z
1/2+x,1/2-y,z
loop_
_atom_site_type_symbol
_atom_site_label
_atom_site_fract_x
_atom_site_fract_y
_atom_site_fract_z
Si Si1 0.086974 0.803475 0.167821
Si Si2 0.832527 0.205855 0.000000
Si Si3 0.417940 0.291377 0.922015
Si Si4 0.913075 0.500000 0.681425
Si Si5 0.085208 0.808862 0.375622
Si Si6 0.587123 0.000000 0.226149
Si Si7 0.166748 0.295294 0.454919
O O1 0.108124 0.744614 0.122761
O O2 0.109510 0.668744 0.201546
O O3 0.000000 0.805658 0.167192
O O4 0.109823 0.000000 0.174757
O O5 0.750000 0.250000 0.000000
O O6 0.870960 0.268753 0.040633
O O7 0.839893 0.000000 0.000000
O O8 0.500000 0.235812 0.927077
O O9 0.418602 0.500000 0.922113
O O10 0.890685 0.666015 0.656072
O O11 0.888864 0.500000 0.727590
O O12 0.000000 0.500000 0.682389
O O13 0.122374 0.782995 0.418579
O O14 0.000000 0.789743 0.380934
O O15 0.099449 0.000000 0.360607
O O16 0.500000 0.000000 0.226365
O O17 0.144844 0.238300 0.500000
O O18 0.159005 0.500000 0.453083
O O19 0.250000 0.250000 0.450292
#
# Coordination Sequence:
#
# PCOD9485346 Si02
#       7
#    16   8  16   8  16   8  16
#     4   8  14  25  42  67  95 121 156 200 245 293
#     4  10  19  31  45  65  97 126 160 196 234 290
#     4   8  14  27  48  68  89 123 163 200 237 281
#     4   9  18  32  47  70 104 136 168 204 250 308
#     4  10  20  34  52  74 105 142 177 211 253 305
#     4   9  16  26  44  70 100 128 154 199 255 302
#     4  10  20  34  53  77 106 136 173 218 258 301
#
# _framework density 18.085348
#
# number of rings (size 3 to 8) (size 9 to 14) (size 15 to 20)
#    0.000    2.909    0.909    1.909    0.000    3.273 
#    1.636    5.455    0.000    0.545    0.000    1.273 
#    0.000    0.000    0.000    0.000    0.000    0.000 
#
# Total GULP energy -245267.851067 kJ/mol
# GULP energy per Si atom -5574.269342 kJ/mol
# Density = 1.804419 g / cm^3
# Si number density = 18.085348 Si / 1000 Ang^3
#
#
#
# Elastic Constant Matrix: (Units=GPa)
#
#
# Indices 1 2 3 4 5 6 
#
# 1 24.1651 23.4355 44.0319 0.0000 0.0000 0.0000
# 2 23.4355 97.5739 82.7657 0.0000 0.0000 0.0000
# 3 44.0319 82.7657 189.7921 0.0000 0.0000 0.0000
# 4 0.0000 0.0000 0.0000 10.7736 0.0000 0.0000
# 5 0.0000 0.0000 0.0000 0.0000 -6.3212 0.0000
# 6 0.0000 0.0000 0.0000 0.0000 0.0000 16.2428
#
#
#
# Elastic Compliance Matrix: (Units=1/GPa)
#
#
# Indices 1 2 3 4 5 6 
#
# 1 0.073217 -0.005042 -0.014788 0.000000 0.000000 0.000000
# 2 -0.005042 0.016612 -0.006075 0.000000 0.000000 0.000000
# 3 -0.014788 -0.006075 0.011349 0.000000 0.000000 0.000000
# 4 0.000000 0.000000 0.000000 0.092820 0.000000 0.000000
# 5 0.000000 0.000000 0.000000 0.000000 -0.158197 0.000000
# 6 0.000000 0.000000 0.000000 0.000000 0.000000 0.061566
#
#
# Mechanical properties :
#
#
# Convention : Reuss Voigt Hill
#
# Bulk Modulus (GPa) = 20.25551 67.99968 44.12760
# Shear Modulus (GPa) = 30.18746 14.89221 22.53983
#
# Velocity S-wave (km/s) = 4.08998 2.87268 3.53413
# Velocity P-wave (km/s) = 5.79035 6.97739 6.41140
#
# Compressibility (1/GPa) = 0.04936929
#
# Stress axis : x y z
#
# Youngs Moduli (GPa) = 13.65811 60.19591 88.11538
#
# Poissons Ratio (x) = 0.30350 1.30301
# Poissons Ratio (y) = 0.06886 0.53528
# Poissons Ratio (z) = 0.20197 0.36567
#
# Static dielectric constant tensor:
#      x y z
#    x 1.581950 0.000000 0.000000 
#    y 0.000000 1.651850 0.000000 
#    z 0.000000 0.000000 1.614790 
# 
# From -- ./inp_files/77993.got.cif
#   From: 2010.05.17/outbox.cif.g08.bks.cpg/sg65_39_cif.got.tgz:77993.got - 2010.06.03 17:01:31.
