data_PCOD9485921
_publ_section_title
;
Structure prediction by ZEFSAII (Michael W. Deem and Ramdas Pophale) SiO2 
 PCOD9485921
Probable space group: C M M M
;
_chemical_formula_sum "Si O2"
_cell_formula_units_Z 80
_cell_length_a 35.297901
_cell_length_b 7.376499
_cell_length_c 13.195974
_cell_angle_alpha 90.000000
_cell_angle_beta 90.000000
_cell_angle_gamma 90.000000
_cell_volume 3435.900825
_symmetry_space_group_name_H-M "C M M M"
_symmetry_group_IT_number 65
_symmetry_cell_setting 'orthorhombic'
loop_
_space_group_symop_operation_xyz
x,y,z
-x,-y,z
x,-y,-z
-x,y,-z
-x,-y,-z
x,y,-z
-x,y,z
x,-y,z
1/2+x,1/2+y,z
1/2-x,1/2-y,z
1/2+x,1/2-y,-z
1/2-x,1/2+y,-z
1/2-x,1/2-y,-z
1/2+x,1/2+y,-z
1/2-x,1/2+y,z
1/2+x,1/2-y,z
loop_
_atom_site_type_symbol
_atom_site_label
_atom_site_fract_x
_atom_site_fract_y
_atom_site_fract_z
Si Si1 0.897218 0.280865 0.886958
Si Si2 0.208425 0.783764 0.328594
Si Si3 0.563253 0.791206 0.500000
Si Si4 0.457646 0.778533 0.721587
Si Si5 0.808556 0.790031 0.889185
Si Si6 0.348457 0.279615 0.500000
O O1 0.895609 0.500000 0.882849
O O2 0.925105 0.217797 0.798718
O O3 0.854141 0.215111 0.877193
O O4 0.910709 0.230331 0.000000
O O5 0.250000 0.750000 0.372506
O O6 0.207082 0.707853 0.214454
O O7 0.175119 0.718140 0.401567
O O8 0.203188 0.000000 0.321306
O O9 0.549373 0.713947 0.393206
O O10 0.608721 0.785323 0.500000
O O11 0.550190 0.000000 0.500000
O O12 0.500000 0.728755 0.754427
O O13 0.455795 0.000000 0.720340
O O14 0.796582 0.000000 0.892769
O O15 0.799405 0.709976 0.000000
O O16 0.349254 0.500000 0.500000
#
# Coordination Sequence:
#
# PCOD9485921 Si02
#       6
#    16  16   8  16  16   8
#     4   9  17  29  47  71  95 122 160 199 232 272
#     4  10  21  35  51  72  97 125 156 191 234 282
#     4  10  19  31  51  74  92 120 163 199 229 275
#     4   9  17  29  46  70  99 126 154 194 240 280
#     4   9  18  33  51  70  95 127 159 191 232 280
#     4  10  21  36  52  71  97 126 155 191 237 283
#
# _framework density 23.283559
#
# number of rings (size 3 to 8) (size 9 to 14) (size 15 to 20)
#    0.000    2.600    0.000    1.800    0.000    3.600 
#    0.000    2.000    0.000    3.000    0.000    2.800 
#    0.000    0.000    0.000    0.000    0.000    0.000 
#
# Total GULP energy -223528.093557 kJ/mol
# GULP energy per Si atom -5588.202339 kJ/mol
# Density = 2.323056 g / cm^3
# Si number density = 23.283559 Si / 1000 Ang^3
#
#
#
# Elastic Constant Matrix: (Units=GPa)
#
#
# Indices 1 2 3 4 5 6 
#
# 1 79.1285 -12.4621 22.6665 0.0000 0.0000 0.0000
# 2 -12.4621 87.0268 7.9960 0.0000 0.0000 0.0000
# 3 22.6665 7.9960 116.4487 0.0000 0.0000 0.0000
# 4 0.0000 0.0000 0.0000 -17.2687 0.0000 0.0000
# 5 0.0000 0.0000 0.0000 0.0000 -109.7901 0.0000
# 6 0.0000 0.0000 0.0000 0.0000 0.0000 19.0179
#
#
#
# Elastic Compliance Matrix: (Units=1/GPa)
#
#
# Indices 1 2 3 4 5 6 
#
# 1 0.013804 0.002238 -0.002841 0.000000 0.000000 0.000000
# 2 0.002238 0.011926 -0.001254 0.000000 0.000000 0.000000
# 3 -0.002841 -0.001254 0.009227 0.000000 0.000000 0.000000
# 4 0.000000 0.000000 0.000000 -0.057908 0.000000 0.000000
# 5 0.000000 0.000000 0.000000 0.000000 -0.009108 0.000000
# 6 0.000000 0.000000 0.000000 0.000000 0.000000 0.052582
#
#
# Mechanical properties :
#
#
# Convention : Reuss Voigt Hill
#
# Bulk Modulus (GPa) = 32.00823 35.44499 33.72661
# Shear Modulus (GPa) = 144.29656 -3.98127 70.15765
#
# Velocity S-wave (km/s) = 7.88087 -1.30905 5.49520
# Velocity P-wave (km/s) = 9.82791 3.60158 7.40132
#
# Compressibility (1/GPa) = 0.03124197
#
# Stress axis : x y z
#
# Youngs Moduli (GPa) = 72.44408 83.84756 108.38333
#
# Poissons Ratio (x) = -0.18762 0.30786
# Poissons Ratio (y) = -0.16210 0.13597
# Poissons Ratio (z) = 0.20578 0.10519
#
# Static dielectric constant tensor:
#      x y z
#    x 1.797560 0.000000 0.000000 
#    y 0.000000 1.876400 0.000000 
#    z 0.000000 0.000000 1.886480 
# 
# From -- ./inp_files/33539.got.cif
#   From: 2010.05.17/outbox.cif.g08.bks.cpg/sg65_17_cif.got.tgz:33539.got - 2010.06.03 17:01:31.
