data_PCOD9485531
_publ_section_title
;
Structure prediction by ZEFSAII (Michael W. Deem and Ramdas Pophale) SiO2 
 PCOD9485531
Probable space group: C M M M
;
_chemical_formula_sum "Si O2"
_cell_formula_units_Z 80
_cell_length_a 7.693136
_cell_length_b 19.033831
_cell_length_c 27.619736
_cell_angle_alpha 90.000000
_cell_angle_beta 90.000000
_cell_angle_gamma 90.000000
_cell_volume 4044.353813
_symmetry_space_group_name_H-M "C M M M"
_symmetry_group_IT_number 65
_symmetry_cell_setting 'orthorhombic'
loop_
_space_group_symop_operation_xyz
x,y,z
-x,-y,z
x,-y,-z
-x,y,-z
-x,-y,-z
x,y,-z
-x,y,z
x,-y,z
1/2+x,1/2+y,z
1/2-x,1/2-y,z
1/2+x,1/2-y,-z
1/2-x,1/2+y,-z
1/2-x,1/2-y,-z
1/2+x,1/2+y,-z
1/2-x,1/2+y,z
1/2+x,1/2-y,z
loop_
_atom_site_type_symbol
_atom_site_label
_atom_site_fract_x
_atom_site_fract_y
_atom_site_fract_z
Si Si1 0.292953 0.667493 0.738462
Si Si2 0.709397 0.666485 0.052123
Si Si3 0.209126 0.833278 0.156248
Si Si4 0.209322 0.668501 0.445804
Si Si5 0.792870 0.578871 0.355789
O O1 0.500000 0.662097 0.739988
O O2 0.250000 0.750000 0.732526
O O3 0.224995 0.642011 0.791258
O O4 0.232373 0.622865 0.693014
O O5 0.500000 0.659009 0.052089
O O6 0.750000 0.750000 0.052147
O O7 0.774267 0.638555 0.104218
O O8 0.774140 0.638687 0.000000
O O9 0.250000 0.750000 0.156144
O O10 0.000000 0.841662 0.156029
O O11 0.273948 0.651139 0.500000
O O12 0.250000 0.750000 0.436136
O O13 0.277649 0.620312 0.402511
O O14 0.000000 0.662136 0.446884
O O15 0.722383 0.500000 0.351637
O O16 0.000000 0.573780 0.362894
#
# Coordination Sequence:
#
# PCOD9485531 Si02
#       5
#    16  16  16  16  16
#     4  10  19  31  48  68  92 123 158 194 231 273
#     4   8  12  18  29  46  71 103 136 170 211 259
#     4   8  14  23  35  54  79 108 143 180 218 262
#     4   9  18  33  53  75  97 122 152 185 222 266
#     4  10  21  35  50  70  96 124 155 192 232 273
#
# _framework density 19.780662
#
# number of rings (size 3 to 8) (size 9 to 14) (size 15 to 20)
#    0.000    3.000    0.000    1.200    0.000    4.000 
#    0.000    2.000    0.000    0.000    0.000    4.200 
#    0.000    0.800    0.000   10.000    0.000    5.200 
#
# Total GULP energy -222674.661195 kJ/mol
# GULP energy per Si atom -5566.866530 kJ/mol
# Density = 1.973564 g / cm^3
# Si number density = 19.780662 Si / 1000 Ang^3
#
#
#
# Elastic Constant Matrix: (Units=GPa)
#
#
# Indices 1 2 3 4 5 6 
#
# 1 37.4480 1.4121 6.3759 0.0000 0.0000 0.0000
# 2 1.4121 61.4435 94.7993 0.0000 0.0000 0.0000
# 3 6.3759 94.7993 250.8150 0.0000 0.0000 0.0000
# 4 0.0000 0.0000 0.0000 -5.2939 0.0000 0.0000
# 5 0.0000 0.0000 0.0000 0.0000 -68.9797 0.0000
# 6 0.0000 0.0000 0.0000 0.0000 0.0000 10.8682
#
#
#
# Elastic Compliance Matrix: (Units=1/GPa)
#
#
# Indices 1 2 3 4 5 6 
#
# 1 0.026848 0.001046 -0.001078 0.000000 0.000000 0.000000
# 2 0.001046 0.039084 -0.014799 0.000000 0.000000 0.000000
# 3 -0.001078 -0.014799 0.009608 0.000000 0.000000 0.000000
# 4 0.000000 0.000000 0.000000 -0.188898 0.000000 0.000000
# 5 0.000000 0.000000 0.000000 0.000000 -0.014497 0.000000
# 6 0.000000 0.000000 0.000000 0.000000 0.000000 0.092011
#
#
# Mechanical properties :
#
#
# Convention : Reuss Voigt Hill
#
# Bulk Modulus (GPa) = 21.79703 61.65346 41.72524
# Shear Modulus (GPa) = 548.86011 3.79355 276.32683
#
# Velocity S-wave (km/s) = 16.67559 1.38635 11.83211
# Velocity P-wave (km/s) = 19.53997 5.81368 14.41543
#
# Compressibility (1/GPa) = 0.04587782
#
# Stress axis : x y z
#
# Youngs Moduli (GPa) = 37.24709 25.58595 104.08115
#
# Poissons Ratio (x) = -0.02676 0.11218
# Poissons Ratio (y) = -0.03896 1.54029
# Poissons Ratio (z) = 0.04014 0.37865
#
# Static dielectric constant tensor:
#      x y z
#    x 1.788670 0.000000 0.000000 
#    y 0.000000 1.633960 0.000000 
#    z 0.000000 0.000000 1.791360 
# 
# From -- ./inp_files/72707.got.cif
#   From: 2010.05.17/outbox.cif.g08.bks.cpg/sg65_37_cif.got.tgz:72707.got - 2010.06.03 17:01:31.
