data_PCOD9485918
_publ_section_title
;
Structure prediction by ZEFSAII (Michael W. Deem and Ramdas Pophale) SiO2 
 PCOD9485918
Probable space group: C M M M
;
_chemical_formula_sum "Si O2"
_cell_formula_units_Z 64
_cell_length_a 7.435128
_cell_length_b 18.794571
_cell_length_c 23.075237
_cell_angle_alpha 90.000000
_cell_angle_beta 90.000000
_cell_angle_gamma 90.000000
_cell_volume 3224.534567
_symmetry_space_group_name_H-M "C M M M"
_symmetry_group_IT_number 65
_symmetry_cell_setting 'orthorhombic'
loop_
_space_group_symop_operation_xyz
x,y,z
-x,-y,z
x,-y,-z
-x,y,-z
-x,-y,-z
x,y,-z
-x,y,z
x,-y,z
1/2+x,1/2+y,z
1/2-x,1/2-y,z
1/2+x,1/2-y,-z
1/2-x,1/2+y,-z
1/2-x,1/2-y,-z
1/2+x,1/2+y,-z
1/2-x,1/2+y,z
1/2+x,1/2-y,z
loop_
_atom_site_type_symbol
_atom_site_label
_atom_site_fract_x
_atom_site_fract_y
_atom_site_fract_z
Si Si1 0.720266 0.582082 0.386551
Si Si2 0.714484 0.667110 0.274958
Si Si3 0.714904 0.333806 0.500000
Si Si4 0.286244 0.666201 0.143389
Si Si5 0.000000 0.584706 0.068445
O O1 0.500000 0.583556 0.386153
O O2 0.773794 0.500000 0.391368
O O3 0.782495 0.617895 0.326702
O O4 0.781293 0.627787 0.441793
O O5 0.500000 0.658289 0.272985
O O6 0.750000 0.750000 0.287848
O O7 0.777222 0.651555 0.209640
O O8 0.500000 0.343085 0.500000
O O9 0.750000 0.250000 0.500000
O O10 0.500000 0.653558 0.139147
O O11 0.250000 0.750000 0.133266
O O12 0.172557 0.619732 0.099119
O O13 0.000000 0.500000 0.076747
O O14 0.000000 0.599751 0.000000
#
# Coordination Sequence:
#
# PCOD9485918 Si02
#       5
#    16  16   8  16   8
#     4   9  17  30  48  74 104 137 181 227 275 335
#     4   9  18  31  54  80 108 142 181 233 283 336
#     4  10  19  31  51  73  97 136 180 228 280 330
#     4  10  20  39  65  93 122 160 208 254 302 358
#     4  11  26  44  62  92 131 164 200 252 308 364
#
# _framework density 19.847826000000001
#
# number of rings (size 3 to 8) (size 9 to 14) (size 15 to 20)
#    0.000    2.375    1.250    1.125    1.750    4.000 
#    0.000    3.750    0.000    3.000    0.000    0.000 
#    0.000    0.000    0.000    0.000    0.000    0.000 
#
# Total GULP energy -178734.982572 kJ/mol
# GULP energy per Si atom -5585.468205 kJ/mol
# Density = 1.980265 g / cm^3
# Si number density = 19.847826 Si / 1000 Ang^3
#
#
#
# Elastic Constant Matrix: (Units=GPa)
#
#
# Indices 1 2 3 4 5 6 
#
# 1 95.2879 31.0602 48.6667 0.0000 0.0000 0.0000
# 2 31.0602 155.8233 140.7441 0.0000 0.0000 0.0000
# 3 48.6667 140.7441 191.7417 0.0000 0.0000 0.0000
# 4 0.0000 0.0000 0.0000 56.4100 0.0000 0.0000
# 5 0.0000 0.0000 0.0000 0.0000 19.5992 0.0000
# 6 0.0000 0.0000 0.0000 0.0000 0.0000 20.8726
#
#
#
# Elastic Compliance Matrix: (Units=1/GPa)
#
#
# Indices 1 2 3 4 5 6 
#
# 1 0.012118 0.001076 -0.003865 0.000000 0.000000 0.000000
# 2 0.001076 0.019138 -0.014321 0.000000 0.000000 0.000000
# 3 -0.003865 -0.014321 0.016709 0.000000 0.000000 0.000000
# 4 0.000000 0.000000 0.000000 0.017727 0.000000 0.000000
# 5 0.000000 0.000000 0.000000 0.000000 0.051022 0.000000
# 6 0.000000 0.000000 0.000000 0.000000 0.000000 0.047910
#
#
# Mechanical properties :
#
#
# Convention : Reuss Voigt Hill
#
# Bulk Modulus (GPa) = 72.76153 98.19942 85.48047
# Shear Modulus (GPa) = 24.57879 34.20182 29.39030
#
# Velocity S-wave (km/s) = 3.52285 4.15565 3.85227
# Velocity P-wave (km/s) = 7.29977 8.52112 7.93398
#
# Compressibility (1/GPa) = 0.01374353
#
# Stress axis : x y z
#
# Youngs Moduli (GPa) = 82.52162 52.25093 59.84914
#
# Poissons Ratio (x) = -0.05622 0.23135
# Poissons Ratio (y) = -0.08879 0.85711
# Poissons Ratio (z) = 0.31899 0.74830
#
# Static dielectric constant tensor:
#      x y z
#    x 1.746120 0.000000 0.000000 
#    y 0.000000 1.662310 0.000000 
#    z 0.000000 0.000000 1.688010 
# 
# From -- ./inp_files/59150.got.cif
#   From: 2010.05.17/outbox.cif.g08.bks.cpg/sg65_30_cif.got.tgz:59150.got - 2010.06.03 17:01:31.
