data_PCOD9485557
_publ_section_title
;
Structure prediction by ZEFSAII (Michael W. Deem and Ramdas Pophale) SiO2 
 PCOD9485557
Probable space group: C M M M
;
_chemical_formula_sum "Si O2"
_cell_formula_units_Z 104
_cell_length_a 27.506366
_cell_length_b 25.350317
_cell_length_c 8.239576
_cell_angle_alpha 90.000000
_cell_angle_beta 90.000000
_cell_angle_gamma 90.000000
_cell_volume 5745.415951
_symmetry_space_group_name_H-M "C M M M"
_symmetry_group_IT_number 65
_symmetry_cell_setting 'orthorhombic'
loop_
_space_group_symop_operation_xyz
x,y,z
-x,-y,z
x,-y,-z
-x,y,-z
-x,-y,-z
x,y,-z
-x,y,z
x,-y,z
1/2+x,1/2+y,z
1/2-x,1/2-y,z
1/2+x,1/2-y,-z
1/2-x,1/2+y,-z
1/2-x,1/2-y,-z
1/2+x,1/2+y,-z
1/2-x,1/2+y,z
1/2+x,1/2-y,z
loop_
_atom_site_type_symbol
_atom_site_label
_atom_site_fract_x
_atom_site_fract_y
_atom_site_fract_z
Si Si1 0.785522 0.060125 0.696890
Si Si2 0.362597 0.776811 0.693644
Si Si3 0.443648 0.709030 0.803614
Si Si4 0.444183 0.500000 0.694558
Si Si5 0.205273 0.630643 0.684070
Si Si6 0.784238 0.800251 0.179158
Si Si7 0.387203 0.396179 0.193816
O O1 0.783928 0.060857 0.500000
O O2 0.731967 0.079286 0.757442
O O3 0.831545 0.095802 0.749026
O O4 0.795157 0.000000 0.749225
O O5 0.356092 0.777107 0.500000
O O6 0.417315 0.761881 0.739336
O O7 0.337141 0.831453 0.754994
O O8 0.333612 0.726728 0.765917
O O9 0.500000 0.706174 0.756049
O O10 0.415385 0.656107 0.746137
O O11 0.441093 0.709908 0.000000
O O12 0.500000 0.500000 0.752168
O O13 0.443830 0.500000 0.500000
O O14 0.416547 0.552125 0.752465
O O15 0.190624 0.618329 0.500000
O O16 0.253786 0.667032 0.690580
O O17 0.750000 0.750000 0.158819
O O18 0.711875 0.674287 0.000000
O O19 0.387107 0.393988 0.000000
#
# Coordination Sequence:
#
# PCOD9485557 Si02
#       7
#    16  16  16   8  16  16  16
#     4  10  20  34  51  71  99 133 167 201 241 290
#     4  10  19  31  48  70  96 124 157 197 243 293
#     4  10  22  38  53  71  97 128 163 204 250 298
#     4  11  23  37  53  71  91 121 167 217 258 297
#     4   9  18  31  47  69  96 126 159 197 240 289
#     4   9  16  26  42  65  91 120 154 189 228 279
#     4  11  22  36  53  72  95 125 163 208 253 290
#
# _framework density 18.101386999999999
#
# number of rings (size 3 to 8) (size 9 to 14) (size 15 to 20)
#    0.000    2.077    0.769    3.000    0.000    8.308 
#    0.000    0.000    0.000    0.000    0.000    0.000 
#    0.000    0.615    0.000    7.692    0.000    1.231 
#
# Total GULP energy -289545.418224 kJ/mol
# GULP energy per Si atom -5568.181120 kJ/mol
# Density = 1.806019 g / cm^3
# Si number density = 18.101387 Si / 1000 Ang^3
#
#
#
# Elastic Constant Matrix: (Units=GPa)
#
#
# Indices 1 2 3 4 5 6 
#
# 1 117.8364 66.4011 9.2373 0.0000 0.0000 0.0000
# 2 66.4011 53.6950 3.8029 0.0000 0.0000 0.0000
# 3 9.2373 3.8029 26.0094 0.0000 0.0000 0.0000
# 4 0.0000 0.0000 0.0000 11.2547 0.0000 0.0000
# 5 0.0000 0.0000 0.0000 0.0000 2.6240 0.0000
# 6 0.0000 0.0000 0.0000 0.0000 0.0000 30.3387
#
#
#
# Elastic Compliance Matrix: (Units=1/GPa)
#
#
# Indices 1 2 3 4 5 6 
#
# 1 0.028634 -0.035052 -0.005044 0.000000 0.000000 0.000000
# 2 -0.035052 0.061728 0.003423 0.000000 0.000000 0.000000
# 3 -0.005044 0.003423 0.039739 0.000000 0.000000 0.000000
# 4 0.000000 0.000000 0.000000 0.088852 0.000000 0.000000
# 5 0.000000 0.000000 0.000000 0.000000 0.381094 0.000000
# 6 0.000000 0.000000 0.000000 0.000000 0.000000 0.032961
#
#
# Mechanical properties :
#
#
# Convention : Reuss Voigt Hill
#
# Bulk Modulus (GPa) = 17.61980 39.60260 28.61120
# Shear Modulus (GPa) = 6.89397 16.71679 11.80538
#
# Velocity S-wave (km/s) = 1.95366 3.04223 2.55655
# Velocity P-wave (km/s) = 3.85281 5.85371 4.95530
#
# Compressibility (1/GPa) = 0.05675434
#
# Stress axis : x y z
#
# Youngs Moduli (GPa) = 34.92372 16.20006 25.16446
#
# Poissons Ratio (x) = 0.56785 0.12694
# Poissons Ratio (y) = 1.22416 -0.08615
# Poissons Ratio (z) = 0.17617 -0.05546
#
# Static dielectric constant tensor:
#      x y z
#    x 1.652620 0.000000 0.000000 
#    y 0.000000 1.708200 0.000000 
#    z 0.000000 0.000000 1.661990 
# 
# From -- ./inp_files/16995.got.cif
#   From: 2010.05.17/outbox.cif.g08.bks.cpg/sg65_9_cif.got.tgz:16995.got - 2010.06.03 17:01:31.
