data_PCOD9485805
_publ_section_title
;
Structure prediction by ZEFSAII (Michael W. Deem and Ramdas Pophale) SiO2 
 PCOD9485805
Probable space group: C M M M
;
_chemical_formula_sum "Si O2"
_cell_formula_units_Z 104
_cell_length_a 26.923419
_cell_length_b 8.339352
_cell_length_c 22.960334
_cell_angle_alpha 90.000000
_cell_angle_beta 90.000000
_cell_angle_gamma 90.000000
_cell_volume 5155.143002
_symmetry_space_group_name_H-M "C M M M"
_symmetry_group_IT_number 65
_symmetry_cell_setting 'orthorhombic'
loop_
_space_group_symop_operation_xyz
x,y,z
-x,-y,z
x,-y,-z
-x,y,-z
-x,-y,-z
x,y,-z
-x,y,z
x,-y,z
1/2+x,1/2+y,z
1/2-x,1/2-y,z
1/2+x,1/2-y,-z
1/2-x,1/2+y,-z
1/2-x,1/2-y,-z
1/2+x,1/2+y,-z
1/2-x,1/2+y,z
1/2+x,1/2-y,z
loop_
_atom_site_type_symbol
_atom_site_label
_atom_site_fract_x
_atom_site_fract_y
_atom_site_fract_z
Si Si1 0.107620 0.194241 0.432650
Si Si2 0.553811 0.807668 0.812501
Si Si3 0.303902 0.191504 0.648653
Si Si4 0.411549 0.305752 0.936166
Si Si5 0.500000 0.313610 0.571002
Si Si6 0.838609 0.694305 0.225242
Si Si7 0.802769 0.809421 0.898497
O O1 0.114624 0.243800 0.500000
O O2 0.152325 0.250432 0.392965
O O3 0.053362 0.256038 0.411634
O O4 0.105622 0.000000 0.432245
O O5 0.500000 0.745969 0.792213
O O6 0.560826 0.765043 0.880513
O O7 0.603929 0.749887 0.780802
O O8 0.553513 0.000000 0.806791
O O9 0.250000 0.250000 0.629269
O O10 0.314862 0.250012 0.714458
O O11 0.304077 0.000000 0.649633
O O12 0.413924 0.500000 0.932209
O O13 0.353454 0.256712 0.930211
O O14 0.430296 0.258471 0.000000
O O15 0.500000 0.500000 0.589350
O O16 0.500000 0.313250 0.500000
O O17 0.838109 0.500000 0.224023
O O18 0.809958 0.754108 0.168299
O O19 0.750000 0.750000 0.921504
O O20 0.802096 0.000000 0.900513
#
# Coordination Sequence:
#
# PCOD9485805 Si02
#       7
#    16  16  16  16   8  16  16
#     4   9  18  35  59  84 111 145 182 220 264 315
#     4   9  18  34  55  76 100 131 167 209 256 308
#     4  11  23  37  54  79 109 144 182 223 269 320
#     4   9  19  34  49  69 100 134 167 205 251 304
#     4   7  12  28  55  81 105 137 175 211 252 305
#     4   9  19  36  54  74 100 133 172 211 258 312
#     4  10  19  31  50  73  96 128 167 209 256 305
#
# _framework density 20.174029000000001
#
# number of rings (size 3 to 8) (size 9 to 14) (size 15 to 20)
#    0.000    2.692    0.000    2.308    0.000    4.923 
#    1.385    1.923    0.000    1.385    0.000    0.000 
#    0.000    0.000    0.000    0.000    0.000    0.000 
#
# Total GULP energy -290087.924000 kJ/mol
# GULP energy per Si atom -5578.613923 kJ/mol
# Density = 2.012811 g / cm^3
# Si number density = 20.174029 Si / 1000 Ang^3
#
#
#
# Elastic Constant Matrix: (Units=GPa)
#
#
# Indices 1 2 3 4 5 6 
#
# 1 136.5310 8.6488 21.4654 0.0000 0.0000 0.0000
# 2 8.6488 8.5352 2.9511 0.0000 0.0000 0.0000
# 3 21.4654 2.9511 48.9465 0.0000 0.0000 0.0000
# 4 0.0000 0.0000 0.0000 17.5904 0.0000 0.0000
# 5 0.0000 0.0000 0.0000 0.0000 -7.6817 0.0000
# 6 0.0000 0.0000 0.0000 0.0000 0.0000 20.5795
#
#
#
# Elastic Compliance Matrix: (Units=1/GPa)
#
#
# Indices 1 2 3 4 5 6 
#
# 1 0.008289 -0.007294 -0.003195 0.000000 0.000000 0.000000
# 2 -0.007294 0.126076 -0.004402 0.000000 0.000000 0.000000
# 3 -0.003195 -0.004402 0.022097 0.000000 0.000000 0.000000
# 4 0.000000 0.000000 0.000000 0.056849 0.000000 0.000000
# 5 0.000000 0.000000 0.000000 0.000000 -0.130180 0.000000
# 6 0.000000 0.000000 0.000000 0.000000 0.000000 0.048592
#
#
# Mechanical properties :
#
#
# Convention : Reuss Voigt Hill
#
# Bulk Modulus (GPa) = 7.89405 28.90478 18.39942
# Shear Modulus (GPa) = 24.54200 16.82748 20.68474
#
# Velocity S-wave (km/s) = 3.49164 2.89124 3.20553
# Velocity P-wave (km/s) = 4.49187 5.05020 4.77919
#
# Compressibility (1/GPa) = 0.12667761
#
# Stress axis : x y z
#
# Youngs Moduli (GPa) = 120.64517 7.93175 45.25469
#
# Poissons Ratio (x) = 0.05786 0.14460
# Poissons Ratio (y) = 0.88003 0.19923
# Poissons Ratio (z) = 0.38549 0.03492
#
# Static dielectric constant tensor:
#      x y z
#    x 1.753480 0.000000 0.000000 
#    y 0.000000 1.693780 0.000000 
#    z 0.000000 0.000000 1.693050 
# 
# From -- ./inp_files/65867.got.cif
#   From: 2010.05.17/outbox.cif.g08.bks.cpg/sg65_33_cif.got.tgz:65867.got - 2010.06.03 17:01:31.
