data_PCOD9485194
_publ_section_title
;
Structure prediction by ZEFSAII (Michael W. Deem and Ramdas Pophale) SiO2 
 PCOD9485194
Probable space group: C M M M
;
_chemical_formula_sum "Si O2"
_cell_formula_units_Z 72
_cell_length_a 14.081841
_cell_length_b 14.717650
_cell_length_c 19.079274
_cell_angle_alpha 90.000000
_cell_angle_beta 90.000000
_cell_angle_gamma 90.000000
_cell_volume 3954.210201
_symmetry_space_group_name_H-M "C M M M"
_symmetry_group_IT_number 65
_symmetry_cell_setting 'orthorhombic'
loop_
_space_group_symop_operation_xyz
x,y,z
-x,-y,z
x,-y,-z
-x,y,-z
-x,-y,-z
x,y,-z
-x,y,z
x,-y,z
1/2+x,1/2+y,z
1/2-x,1/2-y,z
1/2+x,1/2-y,-z
1/2-x,1/2+y,-z
1/2-x,1/2-y,-z
1/2+x,1/2+y,-z
1/2-x,1/2+y,z
1/2+x,1/2-y,z
loop_
_atom_site_type_symbol
_atom_site_label
_atom_site_fract_x
_atom_site_fract_y
_atom_site_fract_z
Si Si1 0.890087 0.610642 0.000000
Si Si2 0.301230 0.106801 0.577609
Si Si3 0.386933 0.789537 0.289833
Si Si4 0.890863 0.102517 0.352352
Si Si5 0.383759 0.105838 0.152811
O O1 0.848856 0.636546 0.924261
O O2 0.891499 0.500000 0.000000
O O3 0.000000 0.641083 0.000000
O O4 0.329059 0.138359 0.500000
O O5 0.344971 0.162850 0.641235
O O6 0.187488 0.112365 0.587422
O O7 0.327128 0.000000 0.584285
O O8 0.500000 0.804344 0.291680
O O9 0.370623 0.682008 0.297003
O O10 0.351408 0.834211 0.218172
O O11 0.000000 0.113237 0.376217
O O12 0.880661 0.000000 0.323946
O O13 0.500000 0.108678 0.150298
O O14 0.358468 0.000000 0.164062
#
# Coordination Sequence:
#
# PCOD9485194 Si02
#       5
#     8  16  16  16  16
#     4   7  10  18  34  58  90 125 154 180 213 258
#     4  10  21  35  50  69  93 121 153 190 233 280
#     4  10  19  30  47  71  98 127 154 183 226 279
#     4   9  19  35  51  66  85 114 159 208 241 264
#     4   8  13  22  38  63  95 126 153 181 218 269
#
# _framework density 18.20844
#
# number of rings (size 3 to 8) (size 9 to 14) (size 15 to 20)
#    0.000    3.000    0.000    2.667    0.000    4.000 
#    0.000    5.556    0.000    0.000    0.000    3.889 
#    0.000    9.778    0.000    1.556    0.000    2.222 
#
# Total GULP energy -200475.819328 kJ/mol
# GULP energy per Si atom -5568.772759 kJ/mol
# Density = 1.816700 g / cm^3
# Si number density = 18.208440 Si / 1000 Ang^3
#
#
#
# Elastic Constant Matrix: (Units=GPa)
#
#
# Indices 1 2 3 4 5 6 
#
# 1 24.9316 17.7487 25.4514 0.0000 0.0000 0.0000
# 2 17.7487 76.1569 74.0238 0.0000 0.0000 0.0000
# 3 25.4514 74.0238 170.0257 0.0000 0.0000 0.0000
# 4 0.0000 0.0000 0.0000 8.1755 0.0000 0.0000
# 5 0.0000 0.0000 0.0000 0.0000 7.4130 0.0000
# 6 0.0000 0.0000 0.0000 0.0000 0.0000 18.0513
#
#
#
# Elastic Compliance Matrix: (Units=1/GPa)
#
#
# Indices 1 2 3 4 5 6 
#
# 1 0.049727 -0.007548 -0.004158 0.000000 0.000000 0.000000
# 2 -0.007548 0.023910 -0.009280 0.000000 0.000000 0.000000
# 3 -0.004158 -0.009280 0.010544 0.000000 0.000000 0.000000
# 4 0.000000 0.000000 0.000000 0.122317 0.000000 0.000000
# 5 0.000000 0.000000 0.000000 0.000000 0.134898 0.000000
# 6 0.000000 0.000000 0.000000 0.000000 0.000000 0.055398
#
#
# Mechanical properties :
#
#
# Convention : Reuss Voigt Hill
#
# Bulk Modulus (GPa) = 23.69085 56.17354 39.93219
# Shear Modulus (GPa) = 11.04159 16.98733 14.01446
#
# Velocity S-wave (km/s) = 2.46519 3.05772 2.77730
# Velocity P-wave (km/s) = 4.59805 6.58661 5.68003
#
# Compressibility (1/GPa) = 0.04221040
#
# Stress axis : x y z
#
# Youngs Moduli (GPa) = 20.10965 41.82425 94.84195
#
# Poissons Ratio (x) = 0.31569 0.39431
# Poissons Ratio (y) = 0.15179 0.88009
# Poissons Ratio (z) = 0.08361 0.38811
#
# Static dielectric constant tensor:
#      x y z
#    x 1.641410 0.000000 0.000000 
#    y 0.000000 1.643790 0.000000 
#    z 0.000000 0.000000 1.632470 
# 
# From -- ./inp_files/52708.got.cif
#   From: 2010.05.17/outbox.cif.g08.bks.cpg/sg65_27_cif.got.tgz:52708.got - 2010.06.03 17:01:31.
