data_PCOD9485211
_publ_section_title
;
Structure prediction by ZEFSAII (Michael W. Deem and Ramdas Pophale) SiO2 
 PCOD9485211
Probable space group: C M M M
;
_chemical_formula_sum "Si O2"
_cell_formula_units_Z 96
_cell_length_a 32.233308
_cell_length_b 9.507314
_cell_length_c 14.827811
_cell_angle_alpha 90.000000
_cell_angle_beta 90.000000
_cell_angle_gamma 90.000000
_cell_volume 4544.015012
_symmetry_space_group_name_H-M "C M M M"
_symmetry_group_IT_number 65
_symmetry_cell_setting 'orthorhombic'
loop_
_space_group_symop_operation_xyz
x,y,z
-x,-y,z
x,-y,-z
-x,y,-z
-x,-y,-z
x,y,-z
-x,y,z
x,-y,z
1/2+x,1/2+y,z
1/2-x,1/2-y,z
1/2+x,1/2-y,-z
1/2-x,1/2+y,-z
1/2-x,1/2-y,-z
1/2+x,1/2+y,-z
1/2-x,1/2+y,z
1/2+x,1/2-y,z
loop_
_atom_site_type_symbol
_atom_site_label
_atom_site_fract_x
_atom_site_fract_y
_atom_site_fract_z
Si Si1 0.209892 0.838546 0.891674
Si Si2 0.454423 0.337590 0.641883
Si Si3 0.046864 0.163061 0.138258
Si Si4 0.212951 0.342274 0.607272
Si Si5 0.377263 0.840387 0.358475
Si Si6 0.373678 0.160988 0.857671
O O1 0.250000 0.750000 0.859562
O O2 0.167428 0.753278 0.874056
O O3 0.208578 0.000000 0.856726
O O4 0.213701 0.848110 0.000000
O O5 0.500000 0.285603 0.614674
O O6 0.450499 0.500000 0.615047
O O7 0.453340 0.335160 0.751821
O O8 0.416203 0.247056 0.608541
O O9 0.084740 0.261057 0.107782
O O10 0.000000 0.204600 0.110280
O O11 0.053599 0.000000 0.111802
O O12 0.219462 0.354961 0.500000
O O13 0.212503 0.500000 0.646639
O O14 0.250000 0.250000 0.645035
O O15 0.167601 0.277332 0.619583
O O16 0.379164 0.846596 0.250285
O O17 0.378064 0.000000 0.393522
O O18 0.369302 0.000000 0.890611
#
# Coordination Sequence:
#
# PCOD9485211 Si02
#       6
#    16  16  16  16  16  16
#     4  10  21  37  55  72  92 122 159 194 230 277
#     4   8  14  25  42  65  92 122 155 189 227 272
#     4   8  14  26  44  66  94 127 160 192 228 273
#     4   9  18  33  50  66  88 120 157 194 231 275
#     4   9  18  30  45  70  98 122 153 192 233 274
#     4  10  19  30  47  73 102 126 152 191 236 280
#
# _framework density 21.126688999999999
#
# number of rings (size 3 to 8) (size 9 to 14) (size 15 to 20)
#    0.000    3.000    0.000    2.000    0.000    3.667 
#    0.000    5.000    0.000    1.000    0.000    7.000 
#    0.000    0.000    0.000    0.000    0.000    0.000 
#
# Total GULP energy -267798.801482 kJ/mol
# GULP energy per Si atom -5579.141698 kJ/mol
# Density = 2.107860 g / cm^3
# Si number density = 21.126689 Si / 1000 Ang^3
#
#
#
# Elastic Constant Matrix: (Units=GPa)
#
#
# Indices 1 2 3 4 5 6 
#
# 1 247.8210 131.1405 -0.9013 0.0000 0.0000 0.0000
# 2 131.1405 138.4178 4.6394 0.0000 0.0000 0.0000
# 3 -0.9013 4.6394 56.6894 0.0000 0.0000 0.0000
# 4 0.0000 0.0000 0.0000 -6.1287 0.0000 0.0000
# 5 0.0000 0.0000 0.0000 0.0000 37.3728 0.0000
# 6 0.0000 0.0000 0.0000 0.0000 0.0000 35.5278
#
#
#
# Elastic Compliance Matrix: (Units=1/GPa)
#
#
# Indices 1 2 3 4 5 6 
#
# 1 0.008125 -0.007723 0.000761 0.000000 0.000000 0.000000
# 2 -0.007723 0.014586 -0.001316 0.000000 0.000000 0.000000
# 3 0.000761 -0.001316 0.017760 0.000000 0.000000 0.000000
# 4 0.000000 0.000000 0.000000 -0.163166 0.000000 0.000000
# 5 0.000000 0.000000 0.000000 0.000000 0.026757 0.000000
# 6 0.000000 0.000000 0.000000 0.000000 0.000000 0.028147
#
#
# Mechanical properties :
#
#
# Convention : Reuss Voigt Hill
#
# Bulk Modulus (GPa) = 41.81728 79.18726 60.50227
# Shear Modulus (GPa) = -115.57325 33.89101 -40.84112
#
# Velocity S-wave (km/s) = -7.40430 4.00957 -4.40153
# Velocity P-wave (km/s) = 7.29805 7.68108 1.69372
#
# Compressibility (1/GPa) = 0.02391356
#
# Stress axis : x y z
#
# Youngs Moduli (GPa) = 123.07893 68.55983 56.30691
#
# Poissons Ratio (x) = 0.52950 -0.04286
# Poissons Ratio (y) = 0.95057 0.07413
# Poissons Ratio (z) = -0.09369 0.09026
#
# Static dielectric constant tensor:
#      x y z
#    x 1.743360 0.000000 0.000000 
#    y 0.000000 1.749150 0.000000 
#    z 0.000000 0.000000 1.813040 
# 
# From -- ./inp_files/60225.got.cif
#   From: 2010.05.17/outbox.cif.g08.bks.cpg/sg65_31_cif.got.tgz:60225.got - 2010.06.03 17:01:31.
