data_PCOD9485089
_publ_section_title
;
Structure prediction by ZEFSAII (Michael W. Deem and Ramdas Pophale) SiO2 
 PCOD9485089
Probable space group: C M M M
;
_chemical_formula_sum "Si O2"
_cell_formula_units_Z 96
_cell_length_a 18.575506
_cell_length_b 7.352677
_cell_length_c 32.838498
_cell_angle_alpha 90.000000
_cell_angle_beta 90.000000
_cell_angle_gamma 90.000000
_cell_volume 4485.072065
_symmetry_space_group_name_H-M "C M M M"
_symmetry_group_IT_number 65
_symmetry_cell_setting 'orthorhombic'
loop_
_space_group_symop_operation_xyz
x,y,z
-x,-y,z
x,-y,-z
-x,y,-z
-x,-y,-z
x,y,-z
-x,y,z
x,-y,z
1/2+x,1/2+y,z
1/2-x,1/2-y,z
1/2+x,1/2-y,-z
1/2-x,1/2+y,-z
1/2-x,1/2-y,-z
1/2+x,1/2+y,-z
1/2-x,1/2+y,z
1/2+x,1/2-y,z
loop_
_atom_site_type_symbol
_atom_site_label
_atom_site_fract_x
_atom_site_fract_y
_atom_site_fract_z
Si Si1 0.416160 0.721202 0.831948
Si Si2 0.164723 0.782582 0.911743
Si Si3 0.416553 0.277569 0.581014
Si Si4 0.334774 0.716988 0.661897
Si Si5 0.835128 0.216922 0.500000
Si Si6 0.836160 0.217092 0.000000
Si Si7 0.916098 0.221567 0.258147
O O1 0.500000 0.769628 0.835660
O O2 0.412387 0.500000 0.832030
O O3 0.373110 0.787886 0.871141
O O4 0.391277 0.780101 0.786937
O O5 0.250000 0.750000 0.909168
O O6 0.153579 0.000000 0.912380
O O7 0.138134 0.713089 0.955993
O O8 0.500000 0.223395 0.579952
O O9 0.415474 0.500000 0.581071
O O10 0.376928 0.215757 0.622098
O O11 0.373555 0.215780 0.541006
O O12 0.345327 0.500000 0.662343
O O13 0.250000 0.750000 0.658969
O O14 0.368485 0.785948 0.704157
O O15 0.750000 0.250000 0.500000
O O16 0.845168 0.000000 0.500000
O O17 0.750000 0.250000 0.000000
O O18 0.847876 0.000000 0.000000
O O19 0.000000 0.272874 0.263419
O O20 0.914736 0.000000 0.258041
#
# Coordination Sequence:
#
# PCOD9485089 Si02
#       7
#    16  16  16  16   8   8  16
#     4   8  14  25  41  61  84 108 136 172 211 248
#     4   9  16  26  41  60  81 106 136 169 205 245
#     4   9  17  30  49  70  89 115 154 189 212 245
#     4  10  19  30  46  68  92 115 141 178 219 255
#     4  10  19  31  49  71  95 120 146 182 224 260
#     4   8  14  24  37  55  79 105 133 164 200 244
#     4   8  14  26  44  63  82 109 145 177 204 243
#
# _framework density 21.404340000000001
#
# number of rings (size 3 to 8) (size 9 to 14) (size 15 to 20)
#    0.000    3.167    0.000    2.250    0.000    3.667 
#    0.000    0.417    0.000    7.000    0.000    2.333 
#    0.000    6.667    0.000    0.000    0.000    0.000 
#
# Total GULP energy -267816.899888 kJ/mol
# GULP energy per Si atom -5579.518748 kJ/mol
# Density = 2.135562 g / cm^3
# Si number density = 21.404340 Si / 1000 Ang^3
#
#
#
# Elastic Constant Matrix: (Units=GPa)
#
#
# Indices 1 2 3 4 5 6 
#
# 1 125.7060 -2.7362 134.4889 0.0000 0.0000 0.0000
# 2 -2.7362 81.4456 12.9447 0.0000 0.0000 0.0000
# 3 134.4889 12.9447 294.5894 0.0000 0.0000 0.0000
# 4 0.0000 0.0000 0.0000 -12.7927 0.0000 0.0000
# 5 0.0000 0.0000 0.0000 0.0000 49.2438 0.0000
# 6 0.0000 0.0000 0.0000 0.0000 0.0000 13.5620
#
#
#
# Elastic Compliance Matrix: (Units=1/GPa)
#
#
# Indices 1 2 3 4 5 6 
#
# 1 0.015777 0.001687 -0.007277 0.000000 0.000000 0.000000
# 2 0.001687 0.012545 -0.001321 0.000000 0.000000 0.000000
# 3 -0.007277 -0.001321 0.006775 0.000000 0.000000 0.000000
# 4 0.000000 0.000000 0.000000 -0.078170 0.000000 0.000000
# 5 0.000000 0.000000 0.000000 0.000000 0.020307 0.000000
# 6 0.000000 0.000000 0.000000 0.000000 0.000000 0.073735
#
#
# Mechanical properties :
#
#
# Convention : Reuss Voigt Hill
#
# Bulk Modulus (GPa) = 47.00657 87.90399 67.45528
# Shear Modulus (GPa) = 69.55732 33.80553 51.68143
#
# Velocity S-wave (km/s) = 5.70678 3.97845 4.91912
# Velocity P-wave (km/s) = 8.08901 7.89060 7.99042
#
# Compressibility (1/GPa) = 0.02127362
#
# Stress axis : x y z
#
# Youngs Moduli (GPa) = 63.38358 79.71442 147.60864
#
# Poissons Ratio (x) = -0.13445 1.07411
# Poissons Ratio (y) = -0.10690 0.19502
# Poissons Ratio (z) = 0.46123 0.10532
#
# Static dielectric constant tensor:
#      x y z
#    x 1.704370 0.000000 0.000000 
#    y 0.000000 1.817650 0.000000 
#    z 0.000000 0.000000 1.795180 
# 
# From -- ./inp_files/77640.got.cif
#   From: 2010.05.17/outbox.cif.g08.bks.cpg/sg65_39_cif.got.tgz:77640.got - 2010.06.03 17:01:31.
