data_PCOD9485254
_publ_section_title
;
Structure prediction by ZEFSAII (Michael W. Deem and Ramdas Pophale) SiO2 
 PCOD9485254
Probable space group: C M M M
;
_chemical_formula_sum "Si O2"
_cell_formula_units_Z 80
_cell_length_a 8.779808
_cell_length_b 20.091725
_cell_length_c 26.648293
_cell_angle_alpha 90.000000
_cell_angle_beta 90.000000
_cell_angle_gamma 90.000000
_cell_volume 4700.798535
_symmetry_space_group_name_H-M "C M M M"
_symmetry_group_IT_number 65
_symmetry_cell_setting 'orthorhombic'
loop_
_space_group_symop_operation_xyz
x,y,z
-x,-y,z
x,-y,-z
-x,y,-z
-x,-y,-z
x,y,-z
-x,y,z
x,-y,z
1/2+x,1/2+y,z
1/2-x,1/2-y,z
1/2+x,1/2-y,-z
1/2-x,1/2+y,-z
1/2-x,1/2-y,-z
1/2+x,1/2+y,-z
1/2-x,1/2+y,z
1/2+x,1/2-y,z
loop_
_atom_site_type_symbol
_atom_site_label
_atom_site_fract_x
_atom_site_fract_y
_atom_site_fract_z
Si Si1 0.183359 0.922791 0.138109
Si Si2 0.316338 0.824638 0.446150
Si Si3 0.182947 0.324595 0.335678
Si Si4 0.182079 0.322884 0.057366
Si Si5 0.683666 0.577310 0.253160
O O1 0.257060 0.875037 0.097521
O O2 0.227098 0.906327 0.195596
O O3 0.000000 0.917690 0.135065
O O4 0.224101 0.000000 0.129185
O O5 0.269815 0.855966 0.500000
O O6 0.500000 0.821323 0.446221
O O7 0.250000 0.750000 0.446561
O O8 0.272180 0.851836 0.391419
O O9 0.250000 0.250000 0.330483
O O10 0.243692 0.372837 0.292716
O O11 0.000000 0.320486 0.333315
O O12 0.250000 0.250000 0.067544
O O13 0.000000 0.319414 0.059790
O O14 0.225779 0.341172 0.000000
O O15 0.500000 0.581521 0.256231
O O16 0.725737 0.500000 0.262508
#
# Coordination Sequence:
#
# PCOD9485254 Si02
#       5
#    16  16  16  16  16
#     4   9  19  36  56  76  98 128 166 204 244 291
#     4   8  14  25  41  63  92 123 155 194 239 285
#     4  10  19  30  48  74 100 127 162 202 244 292
#     4  10  21  36  54  77 105 135 165 199 241 287
#     4   9  19  36  54  71  96 130 165 203 247 291
#
# _framework density 17.018384999999999
#
# number of rings (size 3 to 8) (size 9 to 14) (size 15 to 20)
#    0.000    2.800    0.000    2.400    0.000    4.800 
#    0.000    4.000    0.000    0.600    0.000    4.200 
#    0.000    0.000    0.000    0.000    0.000    0.000 
#
# Total GULP energy -222795.337873 kJ/mol
# GULP energy per Si atom -5569.883447 kJ/mol
# Density = 1.697965 g / cm^3
# Si number density = 17.018385 Si / 1000 Ang^3
#
#
#
# Elastic Constant Matrix: (Units=GPa)
#
#
# Indices 1 2 3 4 5 6 
#
# 1 29.3716 36.5150 54.9364 0.0000 0.0000 0.0000
# 2 36.5150 83.8605 113.6767 0.0000 0.0000 0.0000
# 3 54.9364 113.6767 197.7237 0.0000 0.0000 0.0000
# 4 0.0000 0.0000 0.0000 -64.5849 0.0000 0.0000
# 5 0.0000 0.0000 0.0000 0.0000 24.5039 0.0000
# 6 0.0000 0.0000 0.0000 0.0000 0.0000 28.4971
#
#
#
# Elastic Compliance Matrix: (Units=1/GPa)
#
#
# Indices 1 2 3 4 5 6 
#
# 1 0.078161 -0.020826 -0.009743 0.000000 0.000000 0.000000
# 2 -0.020826 0.059589 -0.028473 0.000000 0.000000 0.000000
# 3 -0.009743 -0.028473 0.024135 0.000000 0.000000 0.000000
# 4 0.000000 0.000000 0.000000 -0.015484 0.000000 0.000000
# 5 0.000000 0.000000 0.000000 0.000000 0.040810 0.000000
# 6 0.000000 0.000000 0.000000 0.000000 0.000000 0.035091
#
#
# Mechanical properties :
#
#
# Convention : Reuss Voigt Hill
#
# Bulk Modulus (GPa) = 22.83081 80.13466 51.48273
# Shear Modulus (GPa) = 14.08502 4.73842 9.41172
#
# Velocity S-wave (km/s) = 2.87999 1.67043 2.35422
# Velocity P-wave (km/s) = 4.95011 7.13511 6.14058
#
# Compressibility (1/GPa) = 0.04380047
#
# Stress axis : x y z
#
# Youngs Moduli (GPa) = 12.79411 16.78155 41.43423
#
# Poissons Ratio (x) = 0.34949 0.40370
# Poissons Ratio (y) = 0.26645 1.17976
# Poissons Ratio (z) = 0.12466 0.47782
#
# Static dielectric constant tensor:
#      x y z
#    x 1.575950 0.000000 0.000000 
#    y 0.000000 1.537910 0.000000 
#    z 0.000000 0.000000 1.611760 
# 
# From -- ./inp_files/72720.got.cif
#   From: 2010.05.17/outbox.cif.g08.bks.cpg/sg65_37_cif.got.tgz:72720.got - 2010.06.03 17:01:31.
