data_PCOD9485132
_publ_section_title
;
Structure prediction by ZEFSAII (Michael W. Deem and Ramdas Pophale) SiO2 
 PCOD9485132
Probable space group: C M M M
;
_chemical_formula_sum "Si O2"
_cell_formula_units_Z 72
_cell_length_a 14.536287
_cell_length_b 8.230950
_cell_length_c 26.102106
_cell_angle_alpha 90.000000
_cell_angle_beta 90.000000
_cell_angle_gamma 90.000000
_cell_volume 3123.050461
_symmetry_space_group_name_H-M "C M M M"
_symmetry_group_IT_number 65
_symmetry_cell_setting 'orthorhombic'
loop_
_space_group_symop_operation_xyz
x,y,z
-x,-y,z
x,-y,-z
-x,y,-z
-x,-y,-z
x,y,-z
-x,y,z
x,-y,z
1/2+x,1/2+y,z
1/2-x,1/2-y,z
1/2+x,1/2-y,-z
1/2-x,1/2+y,-z
1/2-x,1/2-y,-z
1/2+x,1/2+y,-z
1/2-x,1/2+y,z
1/2+x,1/2-y,z
loop_
_atom_site_type_symbol
_atom_site_label
_atom_site_fract_x
_atom_site_fract_y
_atom_site_fract_z
Si Si1 0.612500 0.676498 0.381172
Si Si2 0.142999 0.196802 0.944789
Si Si3 0.355458 0.694389 0.834326
Si Si4 0.892619 0.321332 0.277486
Si Si5 0.112642 0.500000 0.440979
O O1 0.500000 0.672882 0.383886
O O2 0.644454 0.500000 0.399785
O O3 0.641709 0.703042 0.321916
O O4 0.641997 0.835501 0.412248
O O5 0.250000 0.250000 0.944980
O O6 0.104878 0.250694 0.889487
O O7 0.138260 0.000000 0.944648
O O8 0.104889 0.252319 0.000000
O O9 0.363398 0.500000 0.832593
O O10 0.250000 0.750000 0.835630
O O11 0.390091 0.761906 0.780705
O O12 0.848849 0.500000 0.280617
O O13 0.000000 0.338430 0.290023
O O14 0.141194 0.500000 0.500000
O O15 0.000000 0.500000 0.439727
#
# Coordination Sequence:
#
# PCOD9485132 Si02
#       5
#    16  16  16  16   8
#     4   9  16  27  43  63  89 124 162 196 237 289
#     4   8  14  25  41  61  86 116 150 188 235 289
#     4  10  19  30  46  70  97 123 154 199 247 291
#     4  10  19  32  49  67  92 128 165 201 244 294
#     4   9  16  26  40  62  94 126 157 197 240 282
#
# _framework density 23.054382
#
# number of rings (size 3 to 8) (size 9 to 14) (size 15 to 20)
#    0.000    2.778    1.111    1.333    0.000    2.667 
#    0.000    2.222    0.000    0.667    0.000    4.667 
#    0.000    0.889    0.444    0.000    0.000    0.000 
#
# Total GULP energy -200739.721964 kJ/mol
# GULP energy per Si atom -5576.103388 kJ/mol
# Density = 2.300191 g / cm^3
# Si number density = 23.054382 Si / 1000 Ang^3
#
#
#
# Elastic Constant Matrix: (Units=GPa)
#
#
# Indices 1 2 3 4 5 6 
#
# 1 56.8181 4.6855 -0.4705 0.0000 0.0000 0.0000
# 2 4.6855 144.0035 84.9034 0.0000 0.0000 0.0000
# 3 -0.4705 84.9034 183.6946 0.0000 0.0000 0.0000
# 4 0.0000 0.0000 0.0000 19.9877 0.0000 0.0000
# 5 0.0000 0.0000 0.0000 0.0000 15.4010 0.0000
# 6 0.0000 0.0000 0.0000 0.0000 0.0000 8.7433
#
#
#
# Elastic Compliance Matrix: (Units=1/GPa)
#
#
# Indices 1 2 3 4 5 6 
#
# 1 0.017672 -0.000827 0.000428 0.000000 0.000000 0.000000
# 2 -0.000827 0.009584 -0.004432 0.000000 0.000000 0.000000
# 3 0.000428 -0.004432 0.007493 0.000000 0.000000 0.000000
# 4 0.000000 0.000000 0.000000 0.050031 0.000000 0.000000
# 5 0.000000 0.000000 0.000000 0.000000 0.064931 0.000000
# 6 0.000000 0.000000 0.000000 0.000000 0.000000 0.114373
#
#
# Mechanical properties :
#
#
# Convention : Reuss Voigt Hill
#
# Bulk Modulus (GPa) = 39.86222 62.52810 51.19516
# Shear Modulus (GPa) = 17.72365 28.51959 23.12162
#
# Velocity S-wave (km/s) = 2.77569 3.52100 3.17032
# Velocity P-wave (km/s) = 5.25363 6.61141 5.97124
#
# Compressibility (1/GPa) = 0.02508641
#
# Stress axis : x y z
#
# Youngs Moduli (GPa) = 56.58745 104.33819 133.45170
#
# Poissons Ratio (x) = 0.08629 -0.05705
# Poissons Ratio (y) = 0.04680 0.59145
# Poissons Ratio (z) = -0.02419 0.46242
#
# Static dielectric constant tensor:
#      x y z
#    x 1.764890 0.000000 0.000000 
#    y 0.000000 1.837430 0.000000 
#    z 0.000000 0.000000 1.886710 
# 
# From -- ./inp_files/67044.got.cif
#   From: 2010.05.17/outbox.cif.g08.bks.cpg/sg65_34_cif.got.tgz:67044.got - 2010.06.03 17:01:31.
