data_PCOD9485841
_publ_section_title
;
Structure prediction by ZEFSAII (Michael W. Deem and Ramdas Pophale) SiO2 
 PCOD9485841
Probable space group: C M M M
;
_chemical_formula_sum "Si O2"
_cell_formula_units_Z 88
_cell_length_a 8.201972
_cell_length_b 19.454729
_cell_length_c 30.202765
_cell_angle_alpha 90.000000
_cell_angle_beta 90.000000
_cell_angle_gamma 90.000000
_cell_volume 4819.368907
_symmetry_space_group_name_H-M "C M M M"
_symmetry_group_IT_number 65
_symmetry_cell_setting 'orthorhombic'
loop_
_space_group_symop_operation_xyz
x,y,z
-x,-y,z
x,-y,-z
-x,y,-z
-x,-y,-z
x,y,-z
-x,y,z
x,-y,z
1/2+x,1/2+y,z
1/2-x,1/2-y,z
1/2+x,1/2-y,-z
1/2-x,1/2+y,-z
1/2-x,1/2-y,-z
1/2+x,1/2+y,-z
1/2-x,1/2+y,z
1/2+x,1/2-y,z
loop_
_atom_site_type_symbol
_atom_site_label
_atom_site_fract_x
_atom_site_fract_y
_atom_site_fract_z
Si Si1 0.194407 0.421470 0.725559
Si Si2 0.302992 0.670125 0.452448
Si Si3 0.695192 0.670814 0.355884
Si Si4 0.803447 0.829616 0.000000
Si Si5 0.197481 0.170723 0.903458
Si Si6 0.196457 0.921143 0.177989
O O1 0.256636 0.500000 0.720050
O O2 0.245309 0.374561 0.684729
O O3 0.255836 0.395591 0.773242
O O4 0.000000 0.423624 0.727282
O O5 0.246260 0.640405 0.500000
O O6 0.500000 0.666992 0.452556
O O7 0.250000 0.750000 0.452614
O O8 0.246894 0.643702 0.404398
O O9 0.500000 0.669922 0.356003
O O10 0.750000 0.750000 0.351288
O O11 0.750000 0.750000 0.000000
O O12 0.747786 0.856640 0.047982
O O13 0.000000 0.833288 0.000000
O O14 0.250000 0.250000 0.899158
O O15 0.256943 0.125706 0.862270
O O16 0.000000 0.169220 0.903139
O O17 0.000000 0.922381 0.175756
O O18 0.255341 0.000000 0.173917
#
# Coordination Sequence:
#
# PCOD9485841 Si02
#       6
#    16  16  16   8  16  16
#     4  10  21  36  52  69  92 125 163 201 242 288
#     4   8  14  25  42  66  95 124 153 186 227 275
#     4  10  19  31  50  75 101 127 157 196 238 280
#     4   8  14  26  43  65  93 121 149 180 220 270
#     4   9  17  29  47  70  94 121 152 187 226 270
#     4   9  18  33  50  67  90 121 156 192 233 282
#
# _framework density 18.259651999999999
#
# number of rings (size 3 to 8) (size 9 to 14) (size 15 to 20)
#    0.000    2.909    0.000    1.091    0.000    3.273 
#    0.000    2.273    0.000    3.273    0.000    3.818 
#    0.000   10.182    0.000    0.000    0.000    0.000 
#
# Total GULP energy -244938.727786 kJ/mol
# GULP energy per Si atom -5566.789268 kJ/mol
# Density = 1.821809 g / cm^3
# Si number density = 18.259652 Si / 1000 Ang^3
#
#
#
# Elastic Constant Matrix: (Units=GPa)
#
#
# Indices 1 2 3 4 5 6 
#
# 1 13.9879 5.4147 17.0576 0.0000 0.0000 0.0000
# 2 5.4147 41.8082 76.1545 0.0000 0.0000 0.0000
# 3 17.0576 76.1545 244.6056 0.0000 0.0000 0.0000
# 4 0.0000 0.0000 0.0000 -18.2267 0.0000 0.0000
# 5 0.0000 0.0000 0.0000 0.0000 13.7008 0.0000
# 6 0.0000 0.0000 0.0000 0.0000 0.0000 17.5486
#
#
#
# Elastic Compliance Matrix: (Units=1/GPa)
#
#
# Indices 1 2 3 4 5 6 
#
# 1 0.078138 -0.000449 -0.005309 0.000000 0.000000 0.000000
# 2 -0.000449 0.055255 -0.017172 0.000000 0.000000 0.000000
# 3 -0.005309 -0.017172 0.009805 0.000000 0.000000 0.000000
# 4 0.000000 0.000000 0.000000 -0.054865 0.000000 0.000000
# 5 0.000000 0.000000 0.000000 0.000000 0.072988 0.000000
# 6 0.000000 0.000000 0.000000 0.000000 0.000000 0.056985
#
#
# Mechanical properties :
#
#
# Convention : Reuss Voigt Hill
#
# Bulk Modulus (GPa) = 10.27344 55.29504 32.78424
# Shear Modulus (GPa) = 16.85700 16.05622 16.45661
#
# Velocity S-wave (km/s) = 3.04169 2.96856 3.00535
# Velocity P-wave (km/s) = 4.23962 6.48831 5.48054
#
# Compressibility (1/GPa) = 0.09733839
#
# Stress axis : x y z
#
# Youngs Moduli (GPa) = 12.79781 18.09778 101.99298
#
# Poissons Ratio (x) = 0.00813 0.54150
# Poissons Ratio (y) = 0.00575 1.75139
# Poissons Ratio (z) = 0.06795 0.31077
#
# Static dielectric constant tensor:
#      x y z
#    x 1.633360 0.000000 0.000000 
#    y 0.000000 1.584860 0.000000 
#    z 0.000000 0.000000 1.689790 
# 
# From -- ./inp_files/67530.got.cif
#   From: 2010.05.17/outbox.cif.g08.bks.cpg/sg65_34_cif.got.tgz:67530.got - 2010.06.03 17:01:31.
