data_PCOD9485838
_publ_section_title
;
Structure prediction by ZEFSAII (Michael W. Deem and Ramdas Pophale) SiO2 
 PCOD9485838
Probable space group: C M M M
;
_chemical_formula_sum "Si O2"
_cell_formula_units_Z 80
_cell_length_a 8.444558
_cell_length_b 19.739449
_cell_length_c 26.139017
_cell_angle_alpha 90.000000
_cell_angle_beta 90.000000
_cell_angle_gamma 90.000000
_cell_volume 4357.136843
_symmetry_space_group_name_H-M "C M M M"
_symmetry_group_IT_number 65
_symmetry_cell_setting 'orthorhombic'
loop_
_space_group_symop_operation_xyz
x,y,z
-x,-y,z
x,-y,-z
-x,y,-z
-x,-y,-z
x,y,-z
-x,y,z
x,-y,z
1/2+x,1/2+y,z
1/2-x,1/2-y,z
1/2+x,1/2-y,-z
1/2-x,1/2+y,-z
1/2-x,1/2-y,-z
1/2+x,1/2+y,-z
1/2-x,1/2+y,z
1/2+x,1/2-y,z
loop_
_atom_site_type_symbol
_atom_site_label
_atom_site_fract_x
_atom_site_fract_y
_atom_site_fract_z
Si Si1 0.309973 0.326357 0.761318
Si Si2 0.307016 0.078218 0.557176
Si Si3 0.690315 0.826120 0.351027
Si Si4 0.308652 0.422202 0.854026
Si Si5 0.810375 0.324109 0.059112
O O1 0.500000 0.324560 0.760885
O O2 0.250000 0.250000 0.771585
O O3 0.250721 0.346876 0.705043
O O4 0.255820 0.378458 0.804893
O O5 0.257008 0.099992 0.500000
O O6 0.500000 0.079359 0.557494
O O7 0.253116 0.125393 0.603366
O O8 0.259498 0.000000 0.564405
O O9 0.500000 0.826047 0.350116
O O10 0.750000 0.750000 0.359972
O O11 0.500000 0.422858 0.853504
O O12 0.253461 0.500000 0.852662
O O13 0.253417 0.382331 0.904218
O O14 0.750000 0.250000 0.076060
O O15 0.000000 0.323854 0.060584
O O16 0.759035 0.333547 0.000000
#
# Coordination Sequence:
#
# PCOD9485838 Si02
#       5
#    16  16  16  16  16
#     4  10  20  35  54  74 100 134 171 211 254 302
#     4   8  15  29  48  70  97 129 165 204 245 292
#     4  10  19  31  50  75 100 128 164 206 253 301
#     4  10  22  38  55  78 108 141 175 212 259 311
#     4  10  21  37  58  83 109 139 176 216 258 305
#
# _framework density 18.360681
#
# number of rings (size 3 to 8) (size 9 to 14) (size 15 to 20)
#    0.000    2.400    0.000    4.200    0.000    6.400 
#    0.000    2.000    0.000    3.600    0.000    5.600 
#    0.000    0.000    0.000    0.000    0.000    0.000 
#
# Total GULP energy -223233.100404 kJ/mol
# GULP energy per Si atom -5580.827510 kJ/mol
# Density = 1.831889 g / cm^3
# Si number density = 18.360681 Si / 1000 Ang^3
#
#
#
# Elastic Constant Matrix: (Units=GPa)
#
#
# Indices 1 2 3 4 5 6 
#
# 1 25.3729 20.9105 21.7593 0.0000 0.0000 0.0000
# 2 20.9105 132.4486 115.8423 0.0000 0.0000 0.0000
# 3 21.7593 115.8423 152.0548 0.0000 0.0000 0.0000
# 4 0.0000 0.0000 0.0000 36.3080 0.0000 0.0000
# 5 0.0000 0.0000 0.0000 0.0000 15.5459 0.0000
# 6 0.0000 0.0000 0.0000 0.0000 0.0000 18.5480
#
#
#
# Elastic Compliance Matrix: (Units=1/GPa)
#
#
# Indices 1 2 3 4 5 6 
#
# 1 0.045800 -0.004491 -0.003133 0.000000 0.000000 0.000000
# 2 -0.004491 0.023067 -0.016931 0.000000 0.000000 0.000000
# 3 -0.003133 -0.016931 0.019924 0.000000 0.000000 0.000000
# 4 0.000000 0.000000 0.000000 0.027542 0.000000 0.000000
# 5 0.000000 0.000000 0.000000 0.000000 0.064326 0.000000
# 6 0.000000 0.000000 0.000000 0.000000 0.000000 0.053914
#
#
# Mechanical properties :
#
#
# Convention : Reuss Voigt Hill
#
# Bulk Modulus (GPa) = 25.20062 69.65562 47.42812
# Shear Modulus (GPa) = 16.84014 24.17133 20.50573
#
# Velocity S-wave (km/s) = 3.03179 3.63226 3.34552
# Velocity P-wave (km/s) = 5.10008 7.45727 6.38833
#
# Compressibility (1/GPa) = 0.03968156
#
# Stress axis : x y z
#
# Youngs Moduli (GPa) = 21.83425 43.35105 50.19096
#
# Poissons Ratio (x) = 0.19467 0.15724
# Poissons Ratio (y) = 0.09805 0.84980
# Poissons Ratio (z) = 0.06840 0.73399
#
# Static dielectric constant tensor:
#      x y z
#    x 1.636030 0.000000 0.000000 
#    y 0.000000 1.606060 0.000000 
#    z 0.000000 0.000000 1.633130 
# 
# From -- ./inp_files/72786.got.cif
#   From: 2010.05.17/outbox.cif.g08.bks.cpg/sg65_37_cif.got.tgz:72786.got - 2010.06.03 17:01:31.
