data_PCOD9485770
_publ_section_title
;
Structure prediction by ZEFSAII (Michael W. Deem and Ramdas Pophale) SiO2 
 PCOD9485770
Probable space group: C M M M
;
_chemical_formula_sum "Si O2"
_cell_formula_units_Z 116
_cell_length_a 29.546917
_cell_length_b 7.778469
_cell_length_c 25.728169
_cell_angle_alpha 90.000000
_cell_angle_beta 90.000000
_cell_angle_gamma 90.000000
_cell_volume 5913.099368
_symmetry_space_group_name_H-M "C M M M"
_symmetry_group_IT_number 65
_symmetry_cell_setting 'orthorhombic'
loop_
_space_group_symop_operation_xyz
x,y,z
-x,-y,z
x,-y,-z
-x,y,-z
-x,-y,-z
x,y,-z
-x,y,z
x,-y,z
1/2+x,1/2+y,z
1/2-x,1/2-y,z
1/2+x,1/2-y,-z
1/2-x,1/2+y,-z
1/2-x,1/2-y,-z
1/2+x,1/2+y,-z
1/2-x,1/2+y,z
1/2+x,1/2-y,z
loop_
_atom_site_type_symbol
_atom_site_label
_atom_site_fract_x
_atom_site_fract_y
_atom_site_fract_z
Si Si1 0.801854 0.207149 0.558657
Si Si2 0.947742 0.796826 0.821106
Si Si3 0.359311 0.293941 0.344702
Si Si4 0.302032 0.706249 0.870963
Si Si5 0.448844 0.205046 0.704456
Si Si6 0.589305 0.500000 0.000000
Si Si7 0.697985 0.293290 0.247275
Si Si8 0.107557 0.308739 0.080579
O O1 0.810412 0.272155 0.500000
O O2 0.750000 0.250000 0.572407
O O3 0.835611 0.272209 0.603061
O O4 0.805507 0.000000 0.556974
O O5 0.933746 0.769244 0.761426
O O6 0.916527 0.708658 0.863419
O O7 0.000000 0.737188 0.825383
O O8 0.946463 0.000000 0.831250
O O9 0.353370 0.500000 0.344614
O O10 0.412078 0.257333 0.337806
O O11 0.333825 0.226145 0.293099
O O12 0.307507 0.500000 0.872347
O O13 0.250000 0.750000 0.883207
O O14 0.311005 0.767977 0.811601
O O15 0.338849 0.784937 0.909304
O O16 0.500000 0.269941 0.695301
O O17 0.450423 0.000000 0.706815
O O18 0.590882 0.652920 0.044900
O O19 0.693451 0.500000 0.245428
O O20 0.750000 0.250000 0.259492
O O21 0.098442 0.500000 0.060321
#
# Coordination Sequence:
#
# PCOD9485770 Si02
#       8
#    16  16  16  16  16   4  16  16
#     4   9  18  32  50  74 106 147 195 243 286 336
#     4  10  20  38  64  92 121 154 187 225 281 349
#     4  10  19  31  49  74 107 146 186 228 285 341
#     4  10  19  35  57  82 114 147 188 234 285 351
#     4  10  21  35  53  82 115 143 181 229 278 341
#     4  12  26  48  63  88 122 150 192 252 287 340
#     4   9  18  29  46  75 109 141 172 216 271 335
#     4  12  24  42  67  88 116 154 192 240 294 342
#
# _framework density 19.617460999999999
#
# number of rings (size 3 to 8) (size 9 to 14) (size 15 to 20)
#    0.000    1.931    1.379    2.690    0.000    4.414 
#    0.000    1.034    0.000    1.241    0.000    2.897 
#    0.000    0.000    0.000    0.000    0.000    0.000 
#
# Total GULP energy -323389.660216 kJ/mol
# GULP energy per Si atom -5575.683797 kJ/mol
# Density = 1.957281 g / cm^3
# Si number density = 19.617461 Si / 1000 Ang^3
#
#
#
# Elastic Constant Matrix: (Units=GPa)
#
#
# Indices 1 2 3 4 5 6 
#
# 1 65.5774 4.2301 47.9974 0.0000 0.0000 0.0000
# 2 4.2301 76.0520 15.3547 0.0000 0.0000 0.0000
# 3 47.9974 15.3547 70.5833 0.0000 0.0000 0.0000
# 4 0.0000 0.0000 0.0000 9.8291 0.0000 0.0000
# 5 0.0000 0.0000 0.0000 0.0000 -22.5697 0.0000
# 6 0.0000 0.0000 0.0000 0.0000 0.0000 23.5729
#
#
#
# Elastic Compliance Matrix: (Units=1/GPa)
#
#
# Indices 1 2 3 4 5 6 
#
# 1 0.030857 0.002636 -0.021556 0.000000 0.000000 0.000000
# 2 0.002636 0.013978 -0.004833 0.000000 0.000000 0.000000
# 3 -0.021556 -0.004833 0.029877 0.000000 0.000000 0.000000
# 4 0.000000 0.000000 0.000000 0.101739 0.000000 0.000000
# 5 0.000000 0.000000 0.000000 0.000000 -0.044307 0.000000
# 6 0.000000 0.000000 0.000000 0.000000 0.000000 0.042422
#
#
# Mechanical properties :
#
#
# Convention : Reuss Voigt Hill
#
# Bulk Modulus (GPa) = 36.75782 38.59745 37.67763
# Shear Modulus (GPa) = 21.63182 11.80848 16.72015
#
# Velocity S-wave (km/s) = 3.32427 2.45610 2.92260
# Velocity P-wave (km/s) = 5.78898 5.26887 5.53504
#
# Compressibility (1/GPa) = 0.02720509
#
# Stress axis : x y z
#
# Youngs Moduli (GPa) = 32.40807 71.54041 33.47001
#
# Poissons Ratio (x) = -0.18857 0.72148
# Poissons Ratio (y) = -0.08542 0.16177
# Poissons Ratio (z) = 0.69859 0.34577
#
# Static dielectric constant tensor:
#      x y z
#    x 1.754780 0.000000 0.000000 
#    y 0.000000 1.710070 0.000000 
#    z 0.000000 0.000000 1.688750 
# 
# From -- ./inp_files/72245.got.cif
#   From: 2010.05.17/outbox.cif.g08.bks.cpg/sg65_37_cif.got.tgz:72245.got - 2010.06.03 17:01:31.
