data_PCOD9485306
_publ_section_title
;
Structure prediction by ZEFSAII (Michael W. Deem and Ramdas Pophale) SiO2 
 PCOD9485306
Probable space group: C M M M
;
_chemical_formula_sum "Si O2"
_cell_formula_units_Z 88
_cell_length_a 28.200952
_cell_length_b 14.339661
_cell_length_c 12.222909
_cell_angle_alpha 90.000000
_cell_angle_beta 90.000000
_cell_angle_gamma 90.000000
_cell_volume 4942.847735
_symmetry_space_group_name_H-M "C M M M"
_symmetry_group_IT_number 65
_symmetry_cell_setting 'orthorhombic'
loop_
_space_group_symop_operation_xyz
x,y,z
-x,-y,z
x,-y,-z
-x,y,-z
-x,-y,-z
x,y,-z
-x,y,z
x,-y,z
1/2+x,1/2+y,z
1/2-x,1/2-y,z
1/2+x,1/2-y,-z
1/2-x,1/2+y,-z
1/2-x,1/2-y,-z
1/2+x,1/2+y,-z
1/2-x,1/2+y,z
1/2+x,1/2-y,z
loop_
_atom_site_type_symbol
_atom_site_label
_atom_site_fract_x
_atom_site_fract_y
_atom_site_fract_z
Si Si1 0.289044 0.184646 0.230269
Si Si2 0.946265 0.705341 0.375229
Si Si3 0.604574 0.894105 0.000000
Si Si4 0.928778 0.500000 0.373702
Si Si5 0.942753 0.111940 0.000000
Si Si6 0.280143 0.104393 0.000000
Si Si7 0.184911 0.500000 0.629501
Si Si8 0.607667 0.740022 0.825204
O O1 0.250000 0.250000 0.285719
O O2 0.267313 0.151395 0.114069
O O3 0.300195 0.093335 0.303741
O O4 0.336504 0.242302 0.197399
O O5 0.927912 0.703648 0.500000
O O6 0.945699 0.598938 0.331098
O O7 0.915342 0.763912 0.293310
O O8 0.000000 0.738472 0.376636
O O9 0.662133 0.899186 0.000000
O O10 0.592053 0.832231 0.105481
O O11 0.586635 0.000000 0.000000
O O12 0.944629 0.500000 0.500000
O O13 0.872159 0.500000 0.368376
O O14 0.913613 0.156307 0.897770
O O15 0.000000 0.137258 0.000000
O O16 0.940437 0.000000 0.000000
O O17 0.261462 0.000000 0.000000
O O18 0.199095 0.500000 0.500000
#
# Coordination Sequence:
#
# PCOD9485306 Si02
#       8
#    16  16   8   8   8   8   8  16
#     4  11  22  37  57  86 117 152 194 248 295 343
#     4  10  19  30  50  81 114 145 180 226 278 339
#     4   8  17  28  49  77 109 145 173 213 272 335
#     4   9  17  30  48  73 109 151 186 213 260 335
#     4  10  22  43  65  84 112 155 198 239 289 344
#     4   9  16  31  54  77 105 137 177 226 287 346
#     4  11  22  38  59  82 113 164 207 232 287 352
#     4  10  20  35  58  84 113 147 193 237 285 346
#
# _framework density 17.803502999999999
#
# number of rings (size 3 to 8) (size 9 to 14) (size 15 to 20)
#    0.000    2.091    2.727    1.636    2.545    1.455 
#    1.636    0.909    0.000    2.182    0.000    2.545 
#    0.000    0.000    0.000    0.000    0.000    0.000 
#
# Total GULP energy -244942.545785 kJ/mol
# GULP energy per Si atom -5566.876041 kJ/mol
# Density = 1.776298 g / cm^3
# Si number density = 17.803503 Si / 1000 Ang^3
#
#
#
# Elastic Constant Matrix: (Units=GPa)
#
#
# Indices 1 2 3 4 5 6 
#
# 1 74.7043 50.8184 40.2380 0.0000 0.0000 0.0000
# 2 50.8184 94.4909 32.5075 0.0000 0.0000 0.0000
# 3 40.2380 32.5075 91.7394 0.0000 0.0000 0.0000
# 4 0.0000 0.0000 0.0000 12.8117 0.0000 0.0000
# 5 0.0000 0.0000 0.0000 0.0000 66.4924 0.0000
# 6 0.0000 0.0000 0.0000 0.0000 0.0000 26.8672
#
#
#
# Elastic Compliance Matrix: (Units=1/GPa)
#
#
# Indices 1 2 3 4 5 6 
#
# 1 0.024423 -0.010761 -0.006899 0.000000 0.000000 0.000000
# 2 -0.010761 0.016794 -0.001231 0.000000 0.000000 0.000000
# 3 -0.006899 -0.001231 0.014362 0.000000 0.000000 0.000000
# 4 0.000000 0.000000 0.000000 0.078053 0.000000 0.000000
# 5 0.000000 0.000000 0.000000 0.000000 0.015039 0.000000
# 6 0.000000 0.000000 0.000000 0.000000 0.000000 0.037220
#
#
# Mechanical properties :
#
#
# Convention : Reuss Voigt Hill
#
# Bulk Modulus (GPa) = 56.18893 56.45139 56.32016
# Shear Modulus (GPa) = 21.77640 30.39231 26.08436
#
# Velocity S-wave (km/s) = 3.50115 4.13619 3.83185
# Velocity P-wave (km/s) = 6.92627 7.38834 7.16103
#
# Compressibility (1/GPa) = 0.01779710
#
# Stress axis : x y z
#
# Youngs Moduli (GPa) = 40.94576 59.54481 69.62592
#
# Poissons Ratio (x) = 0.64078 0.48033
# Poissons Ratio (y) = 0.44063 0.08570
# Poissons Ratio (z) = 0.28248 0.07329
#
# Static dielectric constant tensor:
#      x y z
#    x 1.609990 0.000000 0.000000 
#    y 0.000000 1.637490 0.000000 
#    z 0.000000 0.000000 1.635880 
# 
# From -- ./inp_files/32301.got.cif
#   From: 2010.05.17/outbox.cif.g08.bks.cpg/sg65_17_cif.got.tgz:32301.got - 2010.06.03 17:01:31.
