data_PCOD9485181
_publ_section_title
;
Structure prediction by ZEFSAII (Michael W. Deem and Ramdas Pophale) SiO2 
 PCOD9485181
Probable space group: C M M M
;
_chemical_formula_sum "Si O2"
_cell_formula_units_Z 96
_cell_length_a 15.997663
_cell_length_b 26.741435
_cell_length_c 12.129145
_cell_angle_alpha 90.000000
_cell_angle_beta 90.000000
_cell_angle_gamma 90.000000
_cell_volume 5188.853874
_symmetry_space_group_name_H-M "C M M M"
_symmetry_group_IT_number 65
_symmetry_cell_setting 'orthorhombic'
loop_
_space_group_symop_operation_xyz
x,y,z
-x,-y,z
x,-y,-z
-x,y,-z
-x,-y,-z
x,y,-z
-x,y,z
x,-y,z
1/2+x,1/2+y,z
1/2-x,1/2-y,z
1/2+x,1/2-y,-z
1/2-x,1/2+y,-z
1/2-x,1/2-y,-z
1/2+x,1/2+y,-z
1/2-x,1/2+y,z
1/2+x,1/2-y,z
loop_
_atom_site_type_symbol
_atom_site_label
_atom_site_fract_x
_atom_site_fract_y
_atom_site_fract_z
Si Si1 0.398396 0.790797 0.000000
Si Si2 0.682496 0.554659 0.628876
Si Si3 0.602791 0.246019 0.764134
Si Si4 0.098372 0.348081 0.377096
Si Si5 0.601320 0.091309 0.000000
Si Si6 0.100417 0.160356 0.375215
Si Si7 0.353919 0.944335 0.758819
O O1 0.369809 0.763962 0.111247
O O2 0.377291 0.849630 0.000000
O O3 0.500000 0.789432 0.000000
O O4 0.711092 0.557042 0.500000
O O5 0.640231 0.500000 0.640719
O O6 0.628647 0.603978 0.648431
O O7 0.759675 0.555684 0.712600
O O8 0.500000 0.245775 0.764257
O O9 0.632287 0.199237 0.690107
O O10 0.630520 0.298020 0.710515
O O11 0.134812 0.352852 0.500000
O O12 0.105636 0.398839 0.308123
O O13 0.000000 0.338111 0.388313
O O14 0.635950 0.066901 0.111818
O O15 0.500000 0.086647 0.000000
O O16 0.127765 0.173407 0.500000
O O17 0.000000 0.161725 0.374437
O O18 0.388551 0.000000 0.735907
#
# Coordination Sequence:
#
# PCOD9485181 Si02
#       7
#     8  16  16  16   8  16  16
#     4   9  16  29  51  73  98 134 171 211 258 303
#     4   9  19  36  55  76 106 142 175 209 259 319
#     4   9  16  29  49  75 105 134 168 212 262 311
#     4  10  19  30  47  71 100 135 173 213 257 308
#     4  11  21  36  56  78 100 134 185 230 261 297
#     4   9  17  31  55  84 108 132 169 216 259 308
#     4  11  22  35  51  71 101 139 175 216 264 310
#
# _framework density 18.501194999999999
#
# number of rings (size 3 to 8) (size 9 to 14) (size 15 to 20)
#    0.000    2.333    1.667    1.750    0.000    5.000 
#    0.000    4.167    0.000    4.000    0.000    0.000 
#    0.000    6.000    0.000    0.000    0.000    0.000 
#
# Total GULP energy -267579.642743 kJ/mol
# GULP energy per Si atom -5574.575890 kJ/mol
# Density = 1.845909 g / cm^3
# Si number density = 18.501195 Si / 1000 Ang^3
#
#
#
# Elastic Constant Matrix: (Units=GPa)
#
#
# Indices 1 2 3 4 5 6 
#
# 1 6.2816 15.8989 14.7350 0.0000 0.0000 0.0000
# 2 15.8989 169.7594 90.4885 0.0000 0.0000 0.0000
# 3 14.7350 90.4885 147.7742 0.0000 0.0000 0.0000
# 4 0.0000 0.0000 0.0000 58.3498 0.0000 0.0000
# 5 0.0000 0.0000 0.0000 0.0000 15.6421 0.0000
# 6 0.0000 0.0000 0.0000 0.0000 0.0000 38.3051
#
#
#
# Elastic Compliance Matrix: (Units=1/GPa)
#
#
# Indices 1 2 3 4 5 6 
#
# 1 0.227330 -0.013670 -0.014297 0.000000 0.000000 0.000000
# 2 -0.013670 0.009567 -0.004495 0.000000 0.000000 0.000000
# 3 -0.014297 -0.004495 0.010945 0.000000 0.000000 0.000000
# 4 0.000000 0.000000 0.000000 0.017138 0.000000 0.000000
# 5 0.000000 0.000000 0.000000 0.000000 0.063930 0.000000
# 6 0.000000 0.000000 0.000000 0.000000 0.000000 0.026106
#
#
# Mechanical properties :
#
#
# Convention : Reuss Voigt Hill
#
# Bulk Modulus (GPa) = 5.46692 62.89556 34.18124
# Shear Modulus (GPa) = 10.39686 35.97226 23.18456
#
# Velocity S-wave (km/s) = 2.37313 4.41423 3.54381
# Velocity P-wave (km/s) = 3.23579 7.74918 5.93802
#
# Compressibility (1/GPa) = 0.18291821
#
# Stress axis : x y z
#
# Youngs Moduli (GPa) = 4.39888 104.52471 91.36276
#
# Poissons Ratio (x) = 1.42883 1.30624
# Poissons Ratio (y) = 0.06013 0.41070
# Poissons Ratio (z) = 0.06289 0.46987
#
# Static dielectric constant tensor:
#      x y z
#    x 1.648840 0.000000 0.000000 
#    y 0.000000 1.645460 0.000000 
#    z 0.000000 0.000000 1.636080 
# 
# From -- ./inp_files/27431.got.cif
#   From: 2010.05.17/outbox.cif.g08.bks.cpg/sg65_14_cif.got.tgz:27431.got - 2010.06.03 17:01:31.
