data_PCOD9485386
_publ_section_title
;
Structure prediction by ZEFSAII (Michael W. Deem and Ramdas Pophale) SiO2 
 PCOD9485386
Probable space group: C M M M
;
_chemical_formula_sum "Si O2"
_cell_formula_units_Z 80
_cell_length_a 28.668448
_cell_length_b 7.609136
_cell_length_c 17.521448
_cell_angle_alpha 90.000000
_cell_angle_beta 90.000000
_cell_angle_gamma 90.000000
_cell_volume 3822.165808
_symmetry_space_group_name_H-M "C M M M"
_symmetry_group_IT_number 65
_symmetry_cell_setting 'orthorhombic'
loop_
_space_group_symop_operation_xyz
x,y,z
-x,-y,z
x,-y,-z
-x,y,-z
-x,-y,-z
x,y,-z
-x,y,z
x,-y,z
1/2+x,1/2+y,z
1/2-x,1/2-y,z
1/2+x,1/2-y,-z
1/2-x,1/2+y,-z
1/2-x,1/2-y,-z
1/2+x,1/2+y,-z
1/2-x,1/2+y,z
1/2+x,1/2-y,z
loop_
_atom_site_type_symbol
_atom_site_label
_atom_site_fract_x
_atom_site_fract_y
_atom_site_fract_z
Si Si1 0.626173 0.198882 0.791630
Si Si2 0.697604 0.211627 0.912403
Si Si3 0.447150 0.291241 0.500000
Si Si4 0.695335 0.289139 0.664571
Si Si5 0.446495 0.789352 0.669746
Si Si6 0.805066 0.210068 0.500000
O O1 0.653551 0.280450 0.863700
O O2 0.667564 0.194613 0.730051
O O3 0.584420 0.279755 0.740618
O O4 0.611788 0.000000 0.813101
O O5 0.750000 0.250000 0.881788
O O6 0.693744 0.000000 0.912392
O O7 0.696292 0.274661 0.000000
O O8 0.449124 0.500000 0.500000
O O9 0.500000 0.215640 0.500000
O O10 0.427724 0.245051 0.416230
O O11 0.688475 0.500000 0.670409
O O12 0.750000 0.250000 0.670033
O O13 0.678206 0.225176 0.581436
O O14 0.500000 0.724005 0.672543
O O15 0.447172 0.000000 0.677618
O O16 0.750000 0.250000 0.500000
O O17 0.811619 0.000000 0.500000
#
# Coordination Sequence:
#
# PCOD9485386 Si02
#       6
#    16  16   8  16  16   8
#     4  10  20  32  48  71  95 122 158 198 241 288
#     4   9  18  33  52  73  98 126 155 191 237 290
#     4   9  17  30  49  72  97 126 164 210 253 288
#     4  10  19  31  46  65  92 124 157 193 233 278
#     4   9  18  33  51  70  96 131 168 205 246 292
#     4   8  16  29  42  57  82 119 155 184 218 264
#
# _framework density 20.930541000000002
#
# number of rings (size 3 to 8) (size 9 to 14) (size 15 to 20)
#    0.000    2.700    0.000    1.500    0.000    6.000 
#    0.000    2.000    0.000    0.600    0.000    4.200 
#    0.000    0.000    0.000   11.800    0.000   12.400 
#
# Total GULP energy -222876.684671 kJ/mol
# GULP energy per Si atom -5571.917117 kJ/mol
# Density = 2.088290 g / cm^3
# Si number density = 20.930541 Si / 1000 Ang^3
#
#
#
# Elastic Constant Matrix: (Units=GPa)
#
#
# Indices 1 2 3 4 5 6 
#
# 1 123.8596 -4.2900 51.3950 0.0000 0.0000 0.0000
# 2 -4.2900 59.7266 0.7909 0.0000 0.0000 0.0000
# 3 51.3950 0.7909 108.5735 0.0000 0.0000 0.0000
# 4 0.0000 0.0000 0.0000 9.1445 0.0000 0.0000
# 5 0.0000 0.0000 0.0000 0.0000 49.2913 0.0000
# 6 0.0000 0.0000 0.0000 0.0000 0.0000 8.3986
#
#
#
# Elastic Compliance Matrix: (Units=1/GPa)
#
#
# Indices 1 2 3 4 5 6 
#
# 1 0.010084 0.000788 -0.004779 0.000000 0.000000 0.000000
# 2 0.000788 0.016806 -0.000495 0.000000 0.000000 0.000000
# 3 -0.004779 -0.000495 0.011476 0.000000 0.000000 0.000000
# 4 0.000000 0.000000 0.000000 0.109355 0.000000 0.000000
# 5 0.000000 0.000000 0.000000 0.000000 0.020288 0.000000
# 6 0.000000 0.000000 0.000000 0.000000 0.000000 0.119067
#
#
# Mechanical properties :
#
#
# Convention : Reuss Voigt Hill
#
# Bulk Modulus (GPa) = 34.02203 43.10571 38.56387
# Shear Modulus (GPa) = 16.34802 29.65115 22.99959
#
# Velocity S-wave (km/s) = 2.79778 3.76792 3.31849
# Velocity P-wave (km/s) = 5.16979 6.29039 5.75742
#
# Compressibility (1/GPa) = 0.02939272
#
# Stress axis : x y z
#
# Youngs Moduli (GPa) = 99.16670 59.50229 87.13645
#
# Poissons Ratio (x) = -0.04686 0.41644
# Poissons Ratio (y) = -0.07810 0.04315
# Poissons Ratio (z) = 0.47393 0.02947
#
# Static dielectric constant tensor:
#      x y z
#    x 1.798700 0.000000 0.000000 
#    y 0.000000 1.861480 0.000000 
#    z 0.000000 0.000000 1.796090 
# 
# From -- ./inp_files/57255.got.cif
#   From: 2010.05.17/outbox.cif.g08.bks.cpg/sg65_29_cif.got.tgz:57255.got - 2010.06.03 17:01:31.
