data_PCOD9485504
_publ_section_title
;
Structure prediction by ZEFSAII (Michael W. Deem and Ramdas Pophale) SiO2 
 PCOD9485504
Probable space group: C M M M
;
_chemical_formula_sum "Si O2"
_cell_formula_units_Z 116
_cell_length_a 26.302973
_cell_length_b 28.267712
_cell_length_c 7.636722
_cell_angle_alpha 90.000000
_cell_angle_beta 90.000000
_cell_angle_gamma 90.000000
_cell_volume 5678.092698
_symmetry_space_group_name_H-M "C M M M"
_symmetry_group_IT_number 65
_symmetry_cell_setting 'orthorhombic'
loop_
_space_group_symop_operation_xyz
x,y,z
-x,-y,z
x,-y,-z
-x,y,-z
-x,-y,-z
x,y,-z
-x,y,z
x,-y,z
1/2+x,1/2+y,z
1/2-x,1/2-y,z
1/2+x,1/2-y,-z
1/2-x,1/2+y,-z
1/2-x,1/2-y,-z
1/2+x,1/2+y,-z
1/2-x,1/2+y,z
1/2+x,1/2-y,z
loop_
_atom_site_type_symbol
_atom_site_label
_atom_site_fract_x
_atom_site_fract_y
_atom_site_fract_z
Si Si1 0.361091 0.773393 0.286987
Si Si2 0.779148 0.652701 0.296582
Si Si3 0.135635 0.931532 0.297980
Si Si4 0.335674 0.331792 0.796628
Si Si5 0.440343 0.949341 0.789678
Si Si6 0.744187 0.051550 0.287931
Si Si7 0.099482 0.000000 0.000000
Si Si8 0.942913 0.652920 0.291792
O O1 0.360291 0.771144 0.500000
O O2 0.313354 0.805132 0.224463
O O3 0.358832 0.719955 0.223788
O O4 0.409396 0.803862 0.227284
O O5 0.794333 0.648266 0.500000
O O6 0.720228 0.667252 0.288550
O O7 0.781913 0.599503 0.220008
O O8 0.126600 0.945015 0.500000
O O9 0.132370 0.874855 0.282634
O O10 0.195154 0.943633 0.254857
O O11 0.103241 0.959050 0.155252
O O12 0.328271 0.342734 0.000000
O O13 0.500000 0.948596 0.732927
O O14 0.418258 0.898917 0.735429
O O15 0.418629 0.000000 0.727870
O O16 0.440023 0.950024 0.000000
O O17 0.739221 0.051733 0.500000
O O18 0.726950 0.000000 0.223122
O O19 0.946624 0.658568 0.500000
O O20 0.000000 0.652446 0.217184
#
# Coordination Sequence:
#
# PCOD9485504 Si02
#       8
#    16  16  16  16  16  16   4  16
#     4  10  20  34  49  66  94 132 169 209 259 309
#     4   9  18  31  47  66  91 128 170 207 253 310
#     4  10  19  31  47  71 103 135 171 215 257 299
#     4  11  21  33  49  72  97 128 172 214 252 304
#     4   8  14  26  45  68  92 119 152 195 253 317
#     4   8  13  24  42  60  83 120 162 204 254 303
#     4  12  18  28  48  78 102 136 179 210 247 308
#     4   9  18  32  50  72  96 124 164 212 260 311
#
# _framework density 20.429396000000001
#
# number of rings (size 3 to 8) (size 9 to 14) (size 15 to 20)
#    0.000    2.621    1.379    3.103    0.000    3.034 
#    0.000    2.069    0.000    2.483    0.000    0.000 
#    0.000    0.000    0.000    1.241    0.138   10.552 
#
# Total GULP energy -322886.861164 kJ/mol
# GULP energy per Si atom -5567.014848 kJ/mol
# Density = 2.038290 g / cm^3
# Si number density = 20.429396 Si / 1000 Ang^3
#
#
#
# Elastic Constant Matrix: (Units=GPa)
#
#
# Indices 1 2 3 4 5 6 
#
# 1 16.3368 31.3180 -5.7919 0.0000 0.0000 0.0000
# 2 31.3180 209.4941 10.2830 0.0000 0.0000 0.0000
# 3 -5.7919 10.2830 65.2276 0.0000 0.0000 0.0000
# 4 0.0000 0.0000 0.0000 33.8625 0.0000 0.0000
# 5 0.0000 0.0000 0.0000 0.0000 -5.1596 0.0000
# 6 0.0000 0.0000 0.0000 0.0000 0.0000 -43.5548
#
#
#
# Elastic Compliance Matrix: (Units=1/GPa)
#
#
# Indices 1 2 3 4 5 6 
#
# 1 0.092378 -0.014323 0.010461 0.000000 0.000000 0.000000
# 2 -0.014323 0.007032 -0.002380 0.000000 0.000000 0.000000
# 3 0.010461 -0.002380 0.016635 0.000000 0.000000 0.000000
# 4 0.000000 0.000000 0.000000 0.029531 0.000000 0.000000
# 5 0.000000 0.000000 0.000000 0.000000 -0.193815 0.000000
# 6 0.000000 0.000000 0.000000 0.000000 0.000000 -0.022960
#
#
# Mechanical properties :
#
#
# Convention : Reuss Voigt Hill
#
# Bulk Modulus (GPa) = 9.65632 40.29739 24.97685
# Shear Modulus (GPa) = -206.67016 14.04626 -96.31195
#
# Velocity S-wave (km/s) = -10.06890 2.62496 -6.87358
# Velocity P-wave (km/s) = 11.42104 5.38101 7.12337
#
# Compressibility (1/GPa) = 0.10355915
#
# Stress axis : x y z
#
# Youngs Moduli (GPa) = 10.82504 142.21711 60.11397
#
# Poissons Ratio (x) = 2.03704 -0.62884
# Poissons Ratio (y) = 0.15505 0.14309
# Poissons Ratio (z) = -0.11324 0.33853
#
# Static dielectric constant tensor:
#      x y z
#    x 1.726190 0.000000 0.000000 
#    y 0.000000 1.769860 0.000000 
#    z 0.000000 0.000000 1.754050 
# 
# From -- ./inp_files/19123.got.cif
#   From: 2010.05.17/outbox.cif.g08.bks.cpg/sg65_10_cif.got.tgz:19123.got - 2010.06.03 17:01:31.
