data_PCOD9485884
_publ_section_title
;
Structure prediction by ZEFSAII (Michael W. Deem and Ramdas Pophale) SiO2 
 PCOD9485884
Probable space group: C M M M
;
_chemical_formula_sum "Si O2"
_cell_formula_units_Z 112
_cell_length_a 16.943428
_cell_length_b 24.975066
_cell_length_c 14.012229
_cell_angle_alpha 90.000000
_cell_angle_beta 90.000000
_cell_angle_gamma 90.000000
_cell_volume 5929.460119
_symmetry_space_group_name_H-M "C M M M"
_symmetry_group_IT_number 65
_symmetry_cell_setting 'orthorhombic'
loop_
_space_group_symop_operation_xyz
x,y,z
-x,-y,z
x,-y,-z
-x,y,-z
-x,-y,-z
x,y,-z
-x,y,z
x,-y,z
1/2+x,1/2+y,z
1/2-x,1/2-y,z
1/2+x,1/2-y,-z
1/2-x,1/2+y,-z
1/2-x,1/2-y,-z
1/2+x,1/2+y,-z
1/2-x,1/2+y,z
1/2+x,1/2-y,z
loop_
_atom_site_type_symbol
_atom_site_label
_atom_site_fract_x
_atom_site_fract_y
_atom_site_fract_z
Si Si1 0.296521 0.559888 0.213042
Si Si2 0.634560 0.062646 0.108440
Si Si3 0.088508 0.351621 0.743579
Si Si4 0.096004 0.266206 0.106177
Si Si5 0.093155 0.836216 0.217549
Si Si6 0.819445 0.791719 0.606515
Si Si7 0.714853 0.102753 0.606082
O O1 0.330210 0.500000 0.201622
O O2 0.227330 0.567980 0.135128
O O3 0.357771 0.608848 0.210968
O O4 0.250723 0.563332 0.314763
O O5 0.588931 0.098403 0.183956
O O6 0.614816 0.000000 0.117730
O O7 0.619073 0.079458 0.000000
O O8 0.125710 0.304783 0.809307
O O9 0.138574 0.369501 0.652983
O O10 0.000000 0.336524 0.716135
O O11 0.113244 0.204850 0.132316
O O12 0.000000 0.272021 0.106665
O O13 0.124144 0.280194 0.000000
O O14 0.115984 0.802237 0.312602
O O15 0.000000 0.847054 0.217149
O O16 0.848613 0.776389 0.500000
O O17 0.750000 0.750000 0.632988
O O18 0.777201 0.849085 0.598939
O O19 0.701157 0.080824 0.500000
#
# Coordination Sequence:
#
# PCOD9485884 Si02
#       7
#    16  16  16  16  16  16  16
#     4   9  19  35  53  73  99 133 174 217 264 325
#     4   9  18  33  52  73  99 133 174 220 265 309
#     4  10  19  31  50  76 106 139 176 217 261 311
#     4   9  18  32  48  69 102 139 168 200 251 313
#     4  10  20  33  52  78 105 133 170 220 272 316
#     4   9  17  31  51  72  98 133 169 207 253 307
#     4   9  18  32  50  72  99 133 172 212 255 308
#
# _framework density 18.888735
#
# number of rings (size 3 to 8) (size 9 to 14) (size 15 to 20)
#    0.000    2.714    0.000    1.286    0.000    2.857 
#    0.000    0.714    0.000   14.143    0.000   12.000 
#    0.000    0.000    0.000    0.000    0.000    0.000 
#
# Total GULP energy -312045.805933 kJ/mol
# GULP energy per Si atom -5572.246535 kJ/mol
# Density = 1.884574 g / cm^3
# Si number density = 18.888735 Si / 1000 Ang^3
#
#
#
# Elastic Constant Matrix: (Units=GPa)
#
#
# Indices 1 2 3 4 5 6 
#
# 1 29.7017 8.6650 0.0863 0.0000 0.0000 0.0000
# 2 8.6650 60.5717 -11.9089 0.0000 0.0000 0.0000
# 3 0.0863 -11.9089 49.3204 0.0000 0.0000 0.0000
# 4 0.0000 0.0000 0.0000 17.9719 0.0000 0.0000
# 5 0.0000 0.0000 0.0000 0.0000 11.5132 0.0000
# 6 0.0000 0.0000 0.0000 0.0000 0.0000 22.4622
#
#
#
# Elastic Compliance Matrix: (Units=1/GPa)
#
#
# Indices 1 2 3 4 5 6 
#
# 1 0.035219 -0.005302 -0.001342 0.000000 0.000000 0.000000
# 2 -0.005302 0.018130 0.004387 0.000000 0.000000 0.000000
# 3 -0.001342 0.004387 0.021337 0.000000 0.000000 0.000000
# 4 0.000000 0.000000 0.000000 0.055643 0.000000 0.000000
# 5 0.000000 0.000000 0.000000 0.000000 0.086857 0.000000
# 6 0.000000 0.000000 0.000000 0.000000 0.000000 0.044519
#
#
# Mechanical properties :
#
#
# Convention : Reuss Voigt Hill
#
# Bulk Modulus (GPa) = 14.25056 14.80875 14.52966
# Shear Modulus (GPa) = 17.26462 19.90620 18.58541
#
# Velocity S-wave (km/s) = 3.02655 3.24985 3.14019
# Velocity P-wave (km/s) = 4.44682 4.68392 4.56691
#
# Compressibility (1/GPa) = 0.07017266
#
# Stress axis : x y z
#
# Youngs Moduli (GPa) = 28.39392 55.15608 46.86650
#
# Poissons Ratio (x) = 0.29244 0.06289
# Poissons Ratio (y) = 0.15055 -0.20560
# Poissons Ratio (z) = 0.03810 -0.24197
#
# Static dielectric constant tensor:
#      x y z
#    x 1.655070 0.000000 0.000000 
#    y 0.000000 1.662330 0.000000 
#    z 0.000000 0.000000 1.690420 
# 
# From -- ./inp_files/41114.got.cif
#   From: 2010.05.17/outbox.cif.g08.bks.cpg/sg65_21_cif.got.tgz:41114.got - 2010.06.03 17:01:31.
