data_PCOD9485544
_publ_section_title
;
Structure prediction by ZEFSAII (Michael W. Deem and Ramdas Pophale) SiO2 
 PCOD9485544
Probable space group: C M M M
;
_chemical_formula_sum "Si O2"
_cell_formula_units_Z 88
_cell_length_a 18.443900
_cell_length_b 7.649967
_cell_length_c 30.368580
_cell_angle_alpha 90.000000
_cell_angle_beta 90.000000
_cell_angle_gamma 90.000000
_cell_volume 4284.861669
_symmetry_space_group_name_H-M "C M M M"
_symmetry_group_IT_number 65
_symmetry_cell_setting 'orthorhombic'
loop_
_space_group_symop_operation_xyz
x,y,z
-x,-y,z
x,-y,-z
-x,y,-z
-x,-y,-z
x,y,-z
-x,y,z
x,-y,z
1/2+x,1/2+y,z
1/2-x,1/2-y,z
1/2+x,1/2-y,-z
1/2-x,1/2+y,-z
1/2-x,1/2-y,-z
1/2+x,1/2+y,-z
1/2-x,1/2+y,z
1/2+x,1/2-y,z
loop_
_atom_site_type_symbol
_atom_site_label
_atom_site_fract_x
_atom_site_fract_y
_atom_site_fract_z
Si Si1 0.836124 0.289774 0.857888
Si Si2 0.663674 0.789553 0.952600
Si Si3 0.581525 0.292120 0.326431
Si Si4 0.583823 0.714058 0.500000
Si Si5 0.664690 0.791982 0.762321
Si Si6 0.665286 0.710123 0.412114
O O1 0.845102 0.500000 0.858115
O O2 0.750000 0.250000 0.857888
O O3 0.864951 0.224030 0.905220
O O4 0.861889 0.223251 0.810205
O O5 0.750000 0.750000 0.952569
O O6 0.655506 0.000000 0.952636
O O7 0.635145 0.724168 0.000000
O O8 0.500000 0.219978 0.325867
O O9 0.576106 0.500000 0.333333
O O10 0.620815 0.268592 0.279908
O O11 0.628291 0.221945 0.367340
O O12 0.584942 0.500000 0.500000
O O13 0.500000 0.767016 0.500000
O O14 0.624684 0.773695 0.455944
O O15 0.750000 0.750000 0.757457
O O16 0.658311 0.000000 0.763768
O O17 0.658313 0.500000 0.412169
O O18 0.750000 0.750000 0.413250
#
# Coordination Sequence:
#
# PCOD9485544 Si02
#       6
#    16  16  16   8  16  16
#     4   8  14  23  35  54  80 110 145 183 222 268
#     4   8  12  18  29  46  71 104 139 174 215 263
#     4  10  21  36  52  71  96 125 159 200 244 288
#     4   9  17  32  55  79 102 131 166 198 230 273
#     4  10  19  31  48  69  94 125 160 196 236 283
#     4  10  20  34  54  78 102 129 161 197 236 280
#
# _framework density 20.537419
#
# number of rings (size 3 to 8) (size 9 to 14) (size 15 to 20)
#    0.000    2.818    0.000    1.909    0.000    5.455 
#    0.000    0.000    0.000    2.182    0.000    0.000 
#    0.000    0.727    0.000    9.091    0.000    4.727 
#
# Total GULP energy -245161.057928 kJ/mol
# GULP energy per Si atom -5571.842226 kJ/mol
# Density = 2.049068 g / cm^3
# Si number density = 20.537419 Si / 1000 Ang^3
#
#
#
# Elastic Constant Matrix: (Units=GPa)
#
#
# Indices 1 2 3 4 5 6 
#
# 1 100.9487 0.2710 101.3590 0.0000 0.0000 0.0000
# 2 0.2710 42.2186 7.4315 0.0000 0.0000 0.0000
# 3 101.3590 7.4315 275.3209 0.0000 0.0000 0.0000
# 4 0.0000 0.0000 0.0000 -7.7595 0.0000 0.0000
# 5 0.0000 0.0000 0.0000 0.0000 -7.8687 0.0000
# 6 0.0000 0.0000 0.0000 0.0000 0.0000 14.4652
#
#
#
# Elastic Compliance Matrix: (Units=1/GPa)
#
#
# Indices 1 2 3 4 5 6 
#
# 1 0.015751 0.000924 -0.005824 0.000000 0.000000 0.000000
# 2 0.000924 0.023854 -0.000984 0.000000 0.000000 0.000000
# 3 -0.005824 -0.000984 0.005803 0.000000 0.000000 0.000000
# 4 0.000000 0.000000 0.000000 -0.128874 0.000000 0.000000
# 5 0.000000 0.000000 0.000000 0.000000 -0.127085 0.000000
# 6 0.000000 0.000000 0.000000 0.000000 0.000000 0.069132
#
#
# Mechanical properties :
#
#
# Convention : Reuss Voigt Hill
#
# Bulk Modulus (GPa) = 29.72676 70.73458 50.23067
# Shear Modulus (GPa) = -42.21552 20.39582 -10.90985
#
# Velocity S-wave (km/s) = -4.53873 3.15478 -2.30732
# Velocity P-wave (km/s) = 3.60012 6.91279 4.17288
#
# Compressibility (1/GPa) = 0.03363973
#
# Stress axis : x y z
#
# Youngs Moduli (GPa) = 63.48887 41.92255 172.33568
#
# Poissons Ratio (x) = -0.03874 1.00361
# Poissons Ratio (y) = -0.05866 0.16958
# Poissons Ratio (z) = 0.36973 0.04125
#
# Static dielectric constant tensor:
#      x y z
#    x 1.675200 0.000000 0.000000 
#    y 0.000000 1.769100 0.000000 
#    z 0.000000 0.000000 1.807010 
# 
# From -- ./inp_files/77866.got.cif
#   From: 2010.05.17/outbox.cif.g08.bks.cpg/sg65_39_cif.got.tgz:77866.got - 2010.06.03 17:01:31.
