data_PCOD9485216
_publ_section_title
;
Structure prediction by ZEFSAII (Michael W. Deem and Ramdas Pophale) SiO2 
 PCOD9485216
Probable space group: C M M M
;
_chemical_formula_sum "Si O2"
_cell_formula_units_Z 128
_cell_length_a 18.136854
_cell_length_b 20.850199
_cell_length_c 18.183346
_cell_angle_alpha 90.000000
_cell_angle_beta 90.000000
_cell_angle_gamma 90.000000
_cell_volume 6876.159849
_symmetry_space_group_name_H-M "C M M M"
_symmetry_group_IT_number 65
_symmetry_cell_setting 'orthorhombic'
loop_
_space_group_symop_operation_xyz
x,y,z
-x,-y,z
x,-y,-z
-x,y,-z
-x,-y,-z
x,y,-z
-x,y,z
x,-y,z
1/2+x,1/2+y,z
1/2-x,1/2-y,z
1/2+x,1/2-y,-z
1/2-x,1/2+y,-z
1/2-x,1/2-y,-z
1/2+x,1/2+y,-z
1/2-x,1/2+y,z
1/2+x,1/2-y,z
loop_
_atom_site_type_symbol
_atom_site_label
_atom_site_fract_x
_atom_site_fract_y
_atom_site_fract_z
Si Si1 0.417870 0.423945 0.265615
Si Si2 0.625043 0.068910 0.265896
Si Si3 0.799250 0.313743 0.083497
Si Si4 0.348031 0.615195 0.416723
Si Si5 0.917998 0.703832 0.209538
Si Si6 0.774644 0.075541 0.175914
Si Si7 0.165232 0.746776 0.351387
Si Si8 0.826621 0.607035 0.582677
O O1 0.500000 0.397001 0.252407
O O2 0.421079 0.500000 0.252391
O O3 0.394150 0.414546 0.350327
O O4 0.350663 0.401160 0.213737
O O5 0.582071 0.130042 0.237256
O O6 0.709204 0.076923 0.236585
O O7 0.630639 0.071032 0.353496
O O8 0.597638 0.000000 0.239742
O O9 0.750000 0.250000 0.083278
O O10 0.865268 0.298126 0.139361
O O11 0.753287 0.374795 0.114417
O O12 0.823760 0.326838 0.000000
O O13 0.372487 0.600857 0.500000
O O14 0.350325 0.691390 0.400608
O O15 0.261672 0.595697 0.410822
O O16 0.884529 0.742410 0.278806
O O17 0.000000 0.725718 0.192467
O O18 0.781330 0.000000 0.153207
O O19 0.250000 0.750000 0.325110
O O20 0.159987 0.682136 0.399032
O O21 0.848682 0.591617 0.500000
#
# Coordination Sequence:
#
# PCOD9485216 Si02
#       8
#    16  16  16  16  16  16  16  16
#     4  10  21  35  50  72 105 144 184 228 276 322
#     4   9  17  31  51  74 101 134 178 226 264 310
#     4  10  22  39  61  89 118 143 169 213 274 326
#     4  10  19  30  47  73 104 139 182 231 281 327
#     4  10  21  35  55  81 108 142 176 210 261 324
#     4   9  18  36  59  80 105 143 190 225 255 314
#     4   9  18  32  51  73 102 140 185 228 267 313
#     4   9  16  27  46  72 100 133 177 232 281 317
#
# _framework density 18.615041999999999
#
# number of rings (size 3 to 8) (size 9 to 14) (size 15 to 20)
#    0.000    2.500    1.250    0.750    3.500    3.500 
#    0.000    1.875    0.000   10.125    0.000    8.750 
#    0.000    0.000    0.000    0.000    0.000    0.000 
#
# Total GULP energy -356914.176829 kJ/mol
# GULP energy per Si atom -5576.784013 kJ/mol
# Density = 1.857267 g / cm^3
# Si number density = 18.615042 Si / 1000 Ang^3
#
#
#
# Elastic Constant Matrix: (Units=GPa)
#
#
# Indices 1 2 3 4 5 6 
#
# 1 65.2941 -1.8601 27.2813 0.0000 0.0000 0.0000
# 2 -1.8601 31.4808 2.7693 0.0000 0.0000 0.0000
# 3 27.2813 2.7693 104.9053 0.0000 0.0000 0.0000
# 4 0.0000 0.0000 0.0000 2.4354 0.0000 0.0000
# 5 0.0000 0.0000 0.0000 0.0000 4.4319 0.0000
# 6 0.0000 0.0000 0.0000 0.0000 0.0000 7.3696
#
#
#
# Elastic Compliance Matrix: (Units=1/GPa)
#
#
# Indices 1 2 3 4 5 6 
#
# 1 0.017245 0.001417 -0.004522 0.000000 0.000000 0.000000
# 2 0.001417 0.031956 -0.001212 0.000000 0.000000 0.000000
# 3 -0.004522 -0.001212 0.010740 0.000000 0.000000 0.000000
# 4 0.000000 0.000000 0.000000 0.410605 0.000000 0.000000
# 5 0.000000 0.000000 0.000000 0.000000 0.225636 0.000000
# 6 0.000000 0.000000 0.000000 0.000000 0.000000 0.135692
#
#
# Mechanical properties :
#
#
# Convention : Reuss Voigt Hill
#
# Bulk Modulus (GPa) = 19.49072 28.67348 24.08210
# Shear Modulus (GPa) = 5.83014 14.41337 10.12175
#
# Velocity S-wave (km/s) = 1.77165 2.78562 2.33435
# Velocity P-wave (km/s) = 3.83121 5.07770 4.49784
#
# Compressibility (1/GPa) = 0.05130646
#
# Stress axis : x y z
#
# Youngs Moduli (GPa) = 57.98744 31.29333 93.10634
#
# Poissons Ratio (x) = -0.04433 0.42104
# Poissons Ratio (y) = -0.08215 0.11285
# Poissons Ratio (z) = 0.26223 0.03793
#
# Static dielectric constant tensor:
#      x y z
#    x 1.651640 0.000000 0.000000 
#    y 0.000000 1.679680 0.000000 
#    z 0.000000 0.000000 1.613810 
# 
# From -- ./inp_files/55129.got.cif
#   From: 2010.05.17/outbox.cif.g08.bks.cpg/sg65_28_cif.got.tgz:55129.got - 2010.06.03 17:01:31.
