data_PCOD9485207
_publ_section_title
;
Structure prediction by ZEFSAII (Michael W. Deem and Ramdas Pophale) SiO2 
 PCOD9485207
Probable space group: C M M M
;
_chemical_formula_sum "Si O2"
_cell_formula_units_Z 104
_cell_length_a 9.383684
_cell_length_b 31.411920
_cell_length_c 21.933165
_cell_angle_alpha 90.000000
_cell_angle_beta 90.000000
_cell_angle_gamma 90.000000
_cell_volume 6465.009431
_symmetry_space_group_name_H-M "C M M M"
_symmetry_group_IT_number 65
_symmetry_cell_setting 'orthorhombic'
loop_
_space_group_symop_operation_xyz
x,y,z
-x,-y,z
x,-y,-z
-x,y,-z
-x,-y,-z
x,y,-z
-x,y,z
x,-y,z
1/2+x,1/2+y,z
1/2-x,1/2-y,z
1/2+x,1/2-y,-z
1/2-x,1/2+y,-z
1/2-x,1/2-y,-z
1/2+x,1/2+y,-z
1/2-x,1/2+y,z
1/2+x,1/2-y,z
loop_
_atom_site_type_symbol
_atom_site_label
_atom_site_fract_x
_atom_site_fract_y
_atom_site_fract_z
Si Si1 0.834397 0.049080 0.426847
Si Si2 0.836181 0.208250 0.214616
Si Si3 0.164617 0.208081 0.363185
Si Si4 0.829568 0.450395 0.877838
Si Si5 0.668457 0.122768 0.360668
Si Si6 0.331679 0.123595 0.215688
Si Si7 0.163198 0.948366 0.000000
O O1 0.822401 0.052443 0.500000
O O2 0.731608 0.082193 0.394760
O O3 0.000000 0.057923 0.410886
O O4 0.803627 0.000000 0.410276
O O5 0.750000 0.250000 0.194538
O O6 0.835644 0.208853 0.288923
O O7 0.758895 0.164636 0.196242
O O8 0.000000 0.209613 0.194833
O O9 0.250000 0.250000 0.383528
O O10 0.246862 0.165093 0.380618
O O11 0.000000 0.208247 0.383121
O O12 0.794196 0.500000 0.864445
O O13 0.795795 0.418397 0.822834
O O14 0.746881 0.436484 0.938682
O O15 0.000000 0.448672 0.888698
O O16 0.500000 0.127935 0.371192
O O17 0.690601 0.117108 0.287925
O O18 0.500000 0.132661 0.207199
O O19 0.000000 0.933381 0.000000
O O20 0.161193 0.000000 0.000000
#
# Coordination Sequence:
#
# PCOD9485207 Si02
#       7
#    16  16  16  16  16  16   8
#     4   9  19  36  54  69  88 119 159 198 234 275
#     4   9  16  26  42  63  89 121 155 190 227 268
#     4   9  16  27  44  66  93 124 156 188 225 272
#     4   9  17  30  47  65  89 124 160 189 222 269
#     4  10  19  30  47  72  99 124 152 190 235 279
#     4   9  18  30  44  67  98 126 153 187 228 274
#     4   9  17  29  45  65  88 115 152 197 235 265
#
# _framework density 16.086596
#
# number of rings (size 3 to 8) (size 9 to 14) (size 15 to 20)
#    0.000    2.846    0.000    2.077    0.000    7.077 
#    0.000    2.308    0.000    2.308    0.000    0.538 
#    0.000    0.000    0.000    0.000    0.000    0.000 
#
# Total GULP energy -289760.531600 kJ/mol
# GULP energy per Si atom -5572.317915 kJ/mol
# Density = 1.604998 g / cm^3
# Si number density = 16.086596 Si / 1000 Ang^3
#
#
#
# Elastic Constant Matrix: (Units=GPa)
#
#
# Indices 1 2 3 4 5 6 
#
# 1 108.6893 85.8339 38.9019 0.0000 0.0000 0.0000
# 2 85.8339 122.6947 38.5287 0.0000 0.0000 0.0000
# 3 38.9019 38.5287 19.2918 0.0000 0.0000 0.0000
# 4 0.0000 0.0000 0.0000 -6.8085 0.0000 0.0000
# 5 0.0000 0.0000 0.0000 0.0000 15.1821 0.0000
# 6 0.0000 0.0000 0.0000 0.0000 0.0000 32.4689
#
#
#
# Elastic Compliance Matrix: (Units=1/GPa)
#
#
# Indices 1 2 3 4 5 6 
#
# 1 0.034728 -0.006180 -0.057687 0.000000 0.000000 0.000000
# 2 -0.006180 0.022959 -0.033391 0.000000 0.000000 0.000000
# 3 -0.057687 -0.033391 0.234849 0.000000 0.000000 0.000000
# 4 0.000000 0.000000 0.000000 -0.146875 0.000000 0.000000
# 5 0.000000 0.000000 0.000000 0.000000 0.065867 0.000000
# 6 0.000000 0.000000 0.000000 0.000000 0.000000 0.030799
#
#
# Mechanical properties :
#
#
# Convention : Reuss Voigt Hill
#
# Bulk Modulus (GPa) = 10.20198 64.13387 37.16792
# Shear Modulus (GPa) = 10.64921 13.99590 12.32256
#
# Velocity S-wave (km/s) = 2.57571 2.95284 2.77070
# Velocity P-wave (km/s) = 3.89890 7.18193 5.77847
#
# Compressibility (1/GPa) = 0.09802017
#
# Stress axis : x y z
#
# Youngs Moduli (GPa) = 28.79493 43.55564 4.25805
#
# Poissons Ratio (x) = 0.26917 0.24564
# Poissons Ratio (y) = 0.17795 0.14218
# Poissons Ratio (z) = 1.66110 1.45437
#
# Static dielectric constant tensor:
#      x y z
#    x 1.540600 0.000000 0.000000 
#    y 0.000000 1.526180 0.000000 
#    z 0.000000 0.000000 1.513900 
# 
# From -- ./inp_files/66308.got.cif
#   From: 2010.05.17/outbox.cif.g08.bks.cpg/sg65_34_cif.got.tgz:66308.got - 2010.06.03 17:01:31.
