data_PCOD9485552
_publ_section_title
;
Structure prediction by ZEFSAII (Michael W. Deem and Ramdas Pophale) SiO2 
 PCOD9485552
Probable space group: C M M M
;
_chemical_formula_sum "Si O2"
_cell_formula_units_Z 104
_cell_length_a 28.395777
_cell_length_b 8.410394
_cell_length_c 27.525688
_cell_angle_alpha 90.000000
_cell_angle_beta 90.000000
_cell_angle_gamma 90.000000
_cell_volume 6573.675794
_symmetry_space_group_name_H-M "C M M M"
_symmetry_group_IT_number 65
_symmetry_cell_setting 'orthorhombic'
loop_
_space_group_symop_operation_xyz
x,y,z
-x,-y,z
x,-y,-z
-x,y,-z
-x,-y,-z
x,y,-z
-x,y,z
x,-y,z
1/2+x,1/2+y,z
1/2-x,1/2-y,z
1/2+x,1/2-y,-z
1/2-x,1/2+y,-z
1/2-x,1/2-y,-z
1/2+x,1/2+y,-z
1/2-x,1/2+y,z
1/2+x,1/2-y,z
loop_
_atom_site_type_symbol
_atom_site_label
_atom_site_fract_x
_atom_site_fract_y
_atom_site_fract_z
Si Si1 0.890772 0.310159 0.147355
Si Si2 0.803952 0.692786 0.393868
Si Si3 0.354773 0.191924 0.296973
Si Si4 0.945806 0.191927 0.055442
Si Si5 0.302054 0.688310 0.798116
Si Si6 0.446877 0.193796 0.243308
Si Si7 0.303891 0.191725 0.500000
O O1 0.886838 0.500000 0.149628
O O2 0.911218 0.258885 0.095849
O O3 0.840466 0.238407 0.161814
O O4 0.927061 0.260168 0.190230
O O5 0.803332 0.500000 0.392971
O O6 0.750000 0.750000 0.388652
O O7 0.834839 0.749344 0.348415
O O8 0.822740 0.743813 0.447246
O O9 0.320571 0.240844 0.252965
O O10 0.407215 0.246095 0.281831
O O11 0.355671 0.000000 0.298341
O O12 0.000000 0.240989 0.065563
O O13 0.944507 0.000000 0.057177
O O14 0.934556 0.240028 0.000000
O O15 0.301168 0.500000 0.793752
O O16 0.250000 0.750000 0.808942
O O17 0.500000 0.250473 0.251367
O O18 0.447857 0.000000 0.244358
O O19 0.250000 0.250000 0.500000
O O20 0.304811 0.000000 0.500000
#
# Coordination Sequence:
#
# PCOD9485552 Si02
#       7
#    16  16  16  16  16  16   8
#     4  10  19  31  48  70  93 118 152 189 224 265
#     4   9  16  25  38  56  80 109 140 176 216 260
#     4   9  17  28  42  63  87 112 145 181 218 261
#     4   9  18  32  49  71 100 130 157 187 225 266
#     4  11  21  33  48  66  90 119 149 181 220 266
#     4   8  14  25  41  61  85 111 140 176 214 252
#     4   8  14  24  36  52  75 105 139 173 214 260
#
# _framework density 15.820676000000001
#
# number of rings (size 3 to 8) (size 9 to 14) (size 15 to 20)
#    0.000    2.769    0.000    4.154    0.000    3.077 
#    0.000    0.769    0.000    4.615    0.000    0.538 
#    0.000    4.308    0.000    0.000    0.000   34.615 
#
# Total GULP energy -289699.259995 kJ/mol
# GULP energy per Si atom -5571.139615 kJ/mol
# Density = 1.578467 g / cm^3
# Si number density = 15.820676 Si / 1000 Ang^3
#
#
#
# Elastic Constant Matrix: (Units=GPa)
#
#
# Indices 1 2 3 4 5 6 
#
# 1 122.5228 13.8104 74.6367 0.0000 0.0000 0.0000
# 2 13.8104 11.5921 10.7497 0.0000 0.0000 0.0000
# 3 74.6367 10.7497 128.3405 0.0000 0.0000 0.0000
# 4 0.0000 0.0000 0.0000 16.3573 0.0000 0.0000
# 5 0.0000 0.0000 0.0000 0.0000 21.0116 0.0000
# 6 0.0000 0.0000 0.0000 0.0000 0.0000 14.7732
#
#
#
# Elastic Compliance Matrix: (Units=1/GPa)
#
#
# Indices 1 2 3 4 5 6 
#
# 1 0.013555 -0.009583 -0.007080 0.000000 0.000000 0.000000
# 2 -0.009583 0.100305 -0.002828 0.000000 0.000000 0.000000
# 3 -0.007080 -0.002828 0.012146 0.000000 0.000000 0.000000
# 4 0.000000 0.000000 0.000000 0.061135 0.000000 0.000000
# 5 0.000000 0.000000 0.000000 0.000000 0.047593 0.000000
# 6 0.000000 0.000000 0.000000 0.000000 0.000000 0.067690
#
#
# Mechanical properties :
#
#
# Convention : Reuss Voigt Hill
#
# Bulk Modulus (GPa) = 11.49121 51.20545 31.34833
# Shear Modulus (GPa) = 13.49834 21.31231 17.40532
#
# Velocity S-wave (km/s) = 2.92414 3.67429 3.32047
# Velocity P-wave (km/s) = 4.32204 7.10190 5.87865
#
# Compressibility (1/GPa) = 0.08702302
#
# Stress axis : x y z
#
# Youngs Moduli (GPa) = 73.77352 9.96955 82.33016
#
# Poissons Ratio (x) = 0.09554 0.58292
# Poissons Ratio (y) = 0.70699 0.23286
# Poissons Ratio (z) = 0.52234 0.02820
#
# Static dielectric constant tensor:
#      x y z
#    x 1.511890 0.000000 0.000000 
#    y 0.000000 1.547170 0.000000 
#    z 0.000000 0.000000 1.544010 
# 
# From -- ./inp_files/76025.got.cif
#   From: 2010.05.17/outbox.cif.g08.bks.cpg/sg65_39_cif.got.tgz:76025.got - 2010.06.03 17:01:31.
