data_PCOD9485752
_publ_section_title
;
Structure prediction by ZEFSAII (Michael W. Deem and Ramdas Pophale) SiO2 
 PCOD9485752
Probable space group: C M M M
;
_chemical_formula_sum "Si O2"
_cell_formula_units_Z 80
_cell_length_a 14.391193
_cell_length_b 18.628897
_cell_length_c 14.156182
_cell_angle_alpha 90.000000
_cell_angle_beta 90.000000
_cell_angle_gamma 90.000000
_cell_volume 3795.159882
_symmetry_space_group_name_H-M "C M M M"
_symmetry_group_IT_number 65
_symmetry_cell_setting 'orthorhombic'
loop_
_space_group_symop_operation_xyz
x,y,z
-x,-y,z
x,-y,-z
-x,y,-z
-x,-y,-z
x,y,-z
-x,y,z
x,-y,z
1/2+x,1/2+y,z
1/2-x,1/2-y,z
1/2+x,1/2-y,-z
1/2-x,1/2+y,-z
1/2-x,1/2-y,-z
1/2+x,1/2+y,-z
1/2-x,1/2+y,z
1/2+x,1/2-y,z
loop_
_atom_site_type_symbol
_atom_site_label
_atom_site_fract_x
_atom_site_fract_y
_atom_site_fract_z
Si Si1 0.139747 0.768476 0.896173
Si Si2 0.399284 0.378890 0.611353
Si Si3 0.798217 0.419957 0.302702
Si Si4 0.709501 0.580380 0.107017
Si Si5 0.359271 0.770922 0.306859
O O1 0.250000 0.750000 0.899520
O O2 0.137294 0.854734 0.882955
O O3 0.103164 0.734822 0.799962
O O4 0.103001 0.749487 0.000000
O O5 0.391929 0.392460 0.500000
O O6 0.500000 0.406371 0.644850
O O7 0.307864 0.410662 0.660334
O O8 0.398568 0.292962 0.630147
O O9 0.831109 0.500000 0.324960
O O10 0.785675 0.411782 0.189184
O O11 0.858872 0.353295 0.339394
O O12 0.670303 0.500000 0.116814
O O13 0.747462 0.586810 0.000000
O O14 0.250000 0.750000 0.300876
#
# Coordination Sequence:
#
# PCOD9485752 Si02
#       5
#    16  16  16  16  16
#     4   9  13  21  39  64  92 122 153 190 229 266
#     4  10  21  36  52  68  90 124 161 196 238 289
#     4  10  19  31  49  74 101 125 155 195 236 277
#     4   9  15  23  39  66  99 129 153 182 227 278
#     4   9  16  30  47  71  93 120 158 195 236 269
#
# _framework density 21.07948
#
# number of rings (size 3 to 8) (size 9 to 14) (size 15 to 20)
#    0.000    2.600    6.000    0.000    0.000    4.400 
#    0.000    1.000    0.000    3.000    0.000    4.200 
#    0.000    0.000    0.000    6.800    0.000    0.000 
#
# Total GULP energy -222773.512121 kJ/mol
# GULP energy per Si atom -5569.337803 kJ/mol
# Density = 2.103150 g / cm^3
# Si number density = 21.079480 Si / 1000 Ang^3
#
#
#
# Elastic Constant Matrix: (Units=GPa)
#
#
# Indices 1 2 3 4 5 6 
#
# 1 48.7502 -0.8043 1.9270 0.0000 0.0000 0.0000
# 2 -0.8043 136.5391 -6.1573 0.0000 0.0000 0.0000
# 3 1.9270 -6.1573 34.3882 0.0000 0.0000 0.0000
# 4 0.0000 0.0000 0.0000 -7.8352 0.0000 0.0000
# 5 0.0000 0.0000 0.0000 0.0000 17.7619 0.0000
# 6 0.0000 0.0000 0.0000 0.0000 0.0000 -5.1644
#
#
#
# Elastic Compliance Matrix: (Units=1/GPa)
#
#
# Indices 1 2 3 4 5 6 
#
# 1 0.020559 0.000070 -0.001140 0.000000 0.000000 0.000000
# 2 0.000070 0.007384 0.001318 0.000000 0.000000 0.000000
# 3 -0.001140 0.001318 0.029380 0.000000 0.000000 0.000000
# 4 0.000000 0.000000 0.000000 -0.127629 0.000000 0.000000
# 5 0.000000 0.000000 0.000000 0.000000 0.056300 0.000000
# 6 0.000000 0.000000 0.000000 0.000000 0.000000 -0.193635
#
#
# Mechanical properties :
#
#
# Convention : Reuss Voigt Hill
#
# Bulk Modulus (GPa) = 17.29538 23.28982 20.29260
# Shear Modulus (GPa) = -26.47396 15.93328 -5.27034
#
# Velocity S-wave (km/s) = -3.54773 2.75229 -1.58293
# Velocity P-wave (km/s) = 2.92561 4.60138 2.51132
#
# Compressibility (1/GPa) = 0.05781892
#
# Stress axis : x y z
#
# Youngs Moduli (GPa) = 48.64067 135.43230 34.03723
#
# Poissons Ratio (x) = -0.00944 0.03879
# Poissons Ratio (y) = -0.00339 -0.04487
# Poissons Ratio (z) = 0.05543 -0.17852
#
# Static dielectric constant tensor:
#      x y z
#    x 1.813120 0.000000 0.000000 
#    y 0.000000 1.825650 0.000000 
#    z 0.000000 0.000000 1.776130 
# 
# From -- ./inp_files/40002.got.cif
#   From: 2010.05.17/outbox.cif.g08.bks.cpg/sg65_21_cif.got.tgz:40002.got - 2010.06.03 17:01:31.
