data_PCOD9485063
_publ_section_title
;
Structure prediction by ZEFSAII (Michael W. Deem and Ramdas Pophale) SiO2 
 PCOD9485063
Probable space group: C M M M
;
_chemical_formula_sum "Si O2"
_cell_formula_units_Z 104
_cell_length_a 23.284566
_cell_length_b 25.129544
_cell_length_c 8.205980
_cell_angle_alpha 90.000000
_cell_angle_beta 90.000000
_cell_angle_gamma 90.000000
_cell_volume 4801.569392
_symmetry_space_group_name_H-M "C M M M"
_symmetry_group_IT_number 65
_symmetry_cell_setting 'orthorhombic'
loop_
_space_group_symop_operation_xyz
x,y,z
-x,-y,z
x,-y,-z
-x,y,-z
-x,-y,-z
x,y,-z
-x,y,z
x,-y,z
1/2+x,1/2+y,z
1/2-x,1/2-y,z
1/2+x,1/2-y,-z
1/2-x,1/2+y,-z
1/2-x,1/2-y,-z
1/2+x,1/2+y,-z
1/2-x,1/2+y,z
1/2+x,1/2-y,z
loop_
_atom_site_type_symbol
_atom_site_label
_atom_site_fract_x
_atom_site_fract_y
_atom_site_fract_z
Si Si1 0.635792 0.558219 0.301532
Si Si2 0.500000 0.936501 0.313511
Si Si3 0.119221 0.390423 0.190382
Si Si4 0.597359 0.329732 0.685887
Si Si5 0.283724 0.697694 0.186827
Si Si6 0.737108 0.905534 0.692325
Si Si7 0.935607 0.285070 0.303379
O O1 0.632468 0.559928 0.500000
O O2 0.615466 0.500000 0.247352
O O3 0.600547 0.610293 0.241810
O O4 0.704192 0.563352 0.262220
O O5 0.500000 0.916238 0.500000
O O6 0.558371 0.916807 0.231937
O O7 0.500000 0.000000 0.314389
O O8 0.171713 0.422068 0.275424
O O9 0.110156 0.328407 0.243302
O O10 0.129446 0.392221 0.000000
O O11 0.576029 0.334564 0.500000
O O12 0.664323 0.313991 0.692715
O O13 0.569979 0.276056 0.758547
O O14 0.250000 0.750000 0.230906
O O15 0.241993 0.648084 0.203946
O O16 0.304812 0.702009 0.000000
O O17 0.742110 0.895324 0.500000
O O18 0.930577 0.282595 0.500000
O O19 0.000000 0.303570 0.261354
#
# Coordination Sequence:
#
# PCOD9485063 Si02
#       7
#    16   8  16  16  16  16  16
#     4   8  15  30  52  77 105 138 180 227 273 325
#     4  11  25  45  65  81 103 143 192 233 272 323
#     4  12  24  38  57  83 113 144 181 230 285 329
#     4   9  18  31  50  76 102 138 183 225 275 335
#     4  10  19  30  45  70 103 136 168 212 271 329
#     4  10  20  33  52  76 103 139 181 220 264 326
#     4  10  20  35  56  79 108 145 187 232 277 334
#
# _framework density 21.659583999999999
#
# number of rings (size 3 to 8) (size 9 to 14) (size 15 to 20)
#    0.000    2.077    0.769    4.385    0.000    5.538 
#    0.000    1.538    0.000   11.538    0.000    3.231 
#    0.000    0.000    0.000    6.923    0.000    7.692 
#
# Total GULP energy -289813.244903 kJ/mol
# GULP energy per Si atom -5573.331633 kJ/mol
# Density = 2.161029 g / cm^3
# Si number density = 21.659584 Si / 1000 Ang^3
#
#
#
# Elastic Constant Matrix: (Units=GPa)
#
#
# Indices 1 2 3 4 5 6 
#
# 1 38.7571 -13.8559 -1.1335 0.0000 0.0000 0.0000
# 2 -13.8559 105.3296 7.4573 0.0000 0.0000 0.0000
# 3 -1.1335 7.4573 29.3240 0.0000 0.0000 0.0000
# 4 0.0000 0.0000 0.0000 -39.8158 0.0000 0.0000
# 5 0.0000 0.0000 0.0000 0.0000 5.4021 0.0000
# 6 0.0000 0.0000 0.0000 0.0000 0.0000 20.0959
#
#
#
# Elastic Compliance Matrix: (Units=1/GPa)
#
#
# Indices 1 2 3 4 5 6 
#
# 1 0.027076 0.003552 0.000143 0.000000 0.000000 0.000000
# 2 0.003552 0.010134 -0.002440 0.000000 0.000000 0.000000
# 3 0.000143 -0.002440 0.034728 0.000000 0.000000 0.000000
# 4 0.000000 0.000000 0.000000 -0.025116 0.000000 0.000000
# 5 0.000000 0.000000 0.000000 0.000000 0.185112 0.000000
# 6 0.000000 0.000000 0.000000 0.000000 0.000000 0.049761
#
#
# Mechanical properties :
#
#
# Convention : Reuss Voigt Hill
#
# Bulk Modulus (GPa) = 13.43222 17.59402 15.51312
# Shear Modulus (GPa) = 16.44734 9.19929 12.82331
#
# Velocity S-wave (km/s) = 2.75863 2.06311 2.43582
# Velocity P-wave (km/s) = 4.04496 3.71697 3.88443
#
# Compressibility (1/GPa) = 0.07444786
#
# Stress axis : x y z
#
# Youngs Moduli (GPa) = 36.93353 98.67813 28.79535
#
# Poissons Ratio (x) = -0.35047 -0.00413
# Poissons Ratio (y) = -0.13117 0.07026
# Poissons Ratio (z) = -0.00530 0.24076
#
# Static dielectric constant tensor:
#      x y z
#    x 1.853280 0.000000 0.000000 
#    y 0.000000 1.844900 0.000000 
#    z 0.000000 0.000000 1.760270 
# 
# From -- ./inp_files/14752.got.cif
#   From: 2010.05.17/outbox.cif.g08.bks.cpg/sg65_8_cif.got.tgz:14752.got - 2010.06.03 17:01:31.
