data_PCOD9485610
_publ_section_title
;
Structure prediction by ZEFSAII (Michael W. Deem and Ramdas Pophale) SiO2 
 PCOD9485610
Probable space group: C M M M
;
_chemical_formula_sum "Si O2"
_cell_formula_units_Z 80
_cell_length_a 8.605773
_cell_length_b 26.805800
_cell_length_c 20.273585
_cell_angle_alpha 90.000000
_cell_angle_beta 90.000000
_cell_angle_gamma 90.000000
_cell_volume 4676.804452
_symmetry_space_group_name_H-M "C M M M"
_symmetry_group_IT_number 65
_symmetry_cell_setting 'orthorhombic'
loop_
_space_group_symop_operation_xyz
x,y,z
-x,-y,z
x,-y,-z
-x,y,-z
-x,-y,-z
x,y,-z
-x,y,z
x,-y,z
1/2+x,1/2+y,z
1/2-x,1/2-y,z
1/2+x,1/2-y,-z
1/2-x,1/2+y,-z
1/2-x,1/2-y,-z
1/2+x,1/2+y,-z
1/2-x,1/2+y,z
1/2+x,1/2-y,z
loop_
_atom_site_type_symbol
_atom_site_label
_atom_site_fract_x
_atom_site_fract_y
_atom_site_fract_z
Si Si1 0.683195 0.841701 0.637640
Si Si2 0.813020 0.195754 0.223045
Si Si3 0.309771 0.500000 0.076615
Si Si4 0.684258 0.694727 0.500000
Si Si5 0.818731 0.554959 0.299532
Si Si6 0.316653 0.408688 0.833979
O O1 0.500000 0.829662 0.637408
O O2 0.757716 0.815189 0.701794
O O3 0.755680 0.828699 0.567885
O O4 0.704309 0.900504 0.650042
O O5 0.750000 0.250000 0.202697
O O6 0.757786 0.148286 0.178225
O O7 0.000000 0.196357 0.222170
O O8 0.500000 0.500000 0.081019
O O9 0.255264 0.551088 0.112808
O O10 0.267274 0.500000 0.000000
O O11 0.500000 0.694657 0.500000
O O12 0.750000 0.750000 0.500000
O O13 0.790680 0.500000 0.326517
O O14 0.713356 0.565115 0.236231
O O15 0.000000 0.557800 0.277705
O O16 0.500000 0.403706 0.846700
#
# Coordination Sequence:
#
# PCOD9485610 Si02
#       6
#    16  16   8   8  16  16
#     4  10  20  34  51  72  97 126 161 200 244 292
#     4  10  19  31  48  72  99 127 163 205 249 293
#     4   9  16  28  49  77 105 130 161 202 243 285
#     4  12  24  38  53  68  91 123 160 201 247 296
#     4   9  17  30  50  74  99 127 158 195 240 289
#     4   9  17  29  48  73  99 129 164 202 243 287
#
# _framework density 17.105696999999999
#
# number of rings (size 3 to 8) (size 9 to 14) (size 15 to 20)
#    0.000    2.300    1.000    2.700    0.000    1.600 
#    0.000    0.500    0.000    4.800    0.000    0.000 
#    0.000    0.000    0.000    0.000    0.000    0.600 
#
# Total GULP energy -222819.210933 kJ/mol
# GULP energy per Si atom -5570.480273 kJ/mol
# Density = 1.706676 g / cm^3
# Si number density = 17.105697 Si / 1000 Ang^3
#
#
#
# Elastic Constant Matrix: (Units=GPa)
#
#
# Indices 1 2 3 4 5 6 
#
# 1 40.7744 33.9214 25.9284 0.0000 0.0000 0.0000
# 2 33.9214 153.7455 59.9889 0.0000 0.0000 0.0000
# 3 25.9284 59.9889 97.8207 0.0000 0.0000 0.0000
# 4 0.0000 0.0000 0.0000 11.7905 0.0000 0.0000
# 5 0.0000 0.0000 0.0000 0.0000 8.2319 0.0000
# 6 0.0000 0.0000 0.0000 0.0000 0.0000 18.6662
#
#
#
# Elastic Compliance Matrix: (Units=1/GPa)
#
#
# Indices 1 2 3 4 5 6 
#
# 1 0.032128 -0.004950 -0.005480 0.000000 0.000000 0.000000
# 2 -0.004950 0.009313 -0.004399 0.000000 0.000000 0.000000
# 3 -0.005480 -0.004399 0.014373 0.000000 0.000000 0.000000
# 4 0.000000 0.000000 0.000000 0.084814 0.000000 0.000000
# 5 0.000000 0.000000 0.000000 0.000000 0.121479 0.000000
# 6 0.000000 0.000000 0.000000 0.000000 0.000000 0.053573
#
#
# Mechanical properties :
#
#
# Convention : Reuss Voigt Hill
#
# Bulk Modulus (GPa) = 38.23314 59.11310 48.67312
# Shear Modulus (GPa) = 14.12198 19.23783 16.67990
#
# Velocity S-wave (km/s) = 2.87639 3.35721 3.12606
# Velocity P-wave (km/s) = 5.78197 7.04701 6.44560
#
# Compressibility (1/GPa) = 0.02615532
#
# Stress axis : x y z
#
# Youngs Moduli (GPa) = 31.12517 107.37803 69.57454
#
# Poissons Ratio (x) = 0.53156 0.38128
# Poissons Ratio (y) = 0.15408 0.30606
# Poissons Ratio (z) = 0.17057 0.47236
#
# Static dielectric constant tensor:
#      x y z
#    x 1.595950 0.000000 0.000000 
#    y 0.000000 1.618090 0.000000 
#    z 0.000000 0.000000 1.528050 
# 
# From -- ./inp_files/50169.got.cif
#   From: 2010.05.17/outbox.cif.g08.bks.cpg/sg65_26_cif.got.tgz:50169.got - 2010.06.03 17:01:31.
