data_PCOD9485065
_publ_section_title
;
Structure prediction by ZEFSAII (Michael W. Deem and Ramdas Pophale) SiO2 
 PCOD9485065
Probable space group: C M M M
;
_chemical_formula_sum "Si O2"
_cell_formula_units_Z 116
_cell_length_a 29.881725
_cell_length_b 8.940263
_cell_length_c 25.471273
_cell_angle_alpha 90.000000
_cell_angle_beta 90.000000
_cell_angle_gamma 90.000000
_cell_volume 6804.662818
_symmetry_space_group_name_H-M "C M M M"
_symmetry_group_IT_number 65
_symmetry_cell_setting 'orthorhombic'
loop_
_space_group_symop_operation_xyz
x,y,z
-x,-y,z
x,-y,-z
-x,y,-z
-x,-y,-z
x,y,-z
-x,y,z
x,-y,z
1/2+x,1/2+y,z
1/2-x,1/2-y,z
1/2+x,1/2-y,-z
1/2-x,1/2+y,-z
1/2-x,1/2-y,-z
1/2+x,1/2+y,-z
1/2-x,1/2+y,z
1/2+x,1/2-y,z
loop_
_atom_site_type_symbol
_atom_site_label
_atom_site_fract_x
_atom_site_fract_y
_atom_site_fract_z
Si Si1 0.298235 0.321610 0.355026
Si Si2 0.446908 0.676420 0.685685
Si Si3 0.702773 0.321895 0.938683
Si Si4 0.138309 0.322723 0.143717
Si Si5 0.400922 0.000000 0.500000
Si Si6 0.381302 0.165118 0.605132
Si Si7 0.051485 0.320036 0.798710
Si Si8 0.702415 0.177939 0.756876
O O1 0.295221 0.500000 0.354215
O O2 0.250000 0.250000 0.367423
O O3 0.336630 0.263493 0.393601
O O4 0.310896 0.259499 0.297123
O O5 0.500000 0.697255 0.676112
O O6 0.437059 0.500000 0.685534
O O7 0.418156 0.758548 0.641613
O O8 0.437501 0.744310 0.743079
O O9 0.706449 0.500000 0.934567
O O10 0.750000 0.250000 0.921623
O O11 0.662883 0.262998 0.902710
O O12 0.695987 0.282057 0.000000
O O13 0.138885 0.500000 0.131960
O O14 0.087810 0.276262 0.157812
O O15 0.166981 0.300558 0.196939
O O16 0.398523 0.872010 0.453025
O O17 0.369806 0.000000 0.627987
O O18 0.054734 0.500000 0.791986
O O19 0.000000 0.283465 0.811963
O O20 0.750000 0.250000 0.772368
O O21 0.707842 0.000000 0.747611
#
# Coordination Sequence:
#
# PCOD9485065 Si02
#       8
#    16  16  16  16   4  16  16  16
#     4  11  21  34  56  81 106 139 175 215 266 324
#     4  10  20  34  56  87 116 143 174 211 263 327
#     4  10  21  36  54  76 103 140 185 230 273 319
#     4  10  20  32  50  76 107 142 179 220 269 315
#     4   8  24  40  61  78 102 136 178 230 263 312
#     4  10  20  39  58  76 103 136 175 221 263 309
#     4   9  18  33  53  80 113 146 181 217 259 316
#     4  10  19  30  45  74 109 140 170 210 258 322
#
# _framework density 17.047135000000001
#
# number of rings (size 3 to 8) (size 9 to 14) (size 15 to 20)
#    0.414    1.655    0.000    4.966    0.000    5.517 
#    0.000    2.414    0.000    1.241    0.000    2.897 
#    0.000    0.000    0.000    0.000    0.000    0.000 
#
# Total GULP energy -323057.788918 kJ/mol
# GULP energy per Si atom -5569.961878 kJ/mol
# Density = 1.700833 g / cm^3
# Si number density = 17.047135 Si / 1000 Ang^3
#
#
#
# Elastic Constant Matrix: (Units=GPa)
#
#
# Indices 1 2 3 4 5 6 
#
# 1 81.4205 46.0083 64.1959 0.0000 0.0000 0.0000
# 2 46.0083 80.7289 38.8348 0.0000 0.0000 0.0000
# 3 64.1959 38.8348 77.8736 0.0000 0.0000 0.0000
# 4 0.0000 0.0000 0.0000 27.2949 0.0000 0.0000
# 5 0.0000 0.0000 0.0000 0.0000 5.1020 0.0000
# 6 0.0000 0.0000 0.0000 0.0000 0.0000 23.4697
#
#
#
# Elastic Compliance Matrix: (Units=1/GPa)
#
#
# Indices 1 2 3 4 5 6 
#
# 1 0.039513 -0.009011 -0.028079 0.000000 0.000000 0.000000
# 2 -0.009011 0.018352 -0.001723 0.000000 0.000000 0.000000
# 3 -0.028079 -0.001723 0.036848 0.000000 0.000000 0.000000
# 4 0.000000 0.000000 0.000000 0.036637 0.000000 0.000000
# 5 0.000000 0.000000 0.000000 0.000000 0.196002 0.000000
# 6 0.000000 0.000000 0.000000 0.000000 0.000000 0.042608
#
#
# Mechanical properties :
#
#
# Convention : Reuss Voigt Hill
#
# Bulk Modulus (GPa) = 58.52958 59.78901 59.15930
# Shear Modulus (GPa) = 11.03067 17.23891 14.13479
#
# Velocity S-wave (km/s) = 2.54651 3.18347 2.88264
# Velocity P-wave (km/s) = 6.56162 6.97578 6.77187
#
# Compressibility (1/GPa) = 0.01708538
#
# Stress axis : x y z
#
# Youngs Moduli (GPa) = 25.30830 54.49059 27.13871
#
# Poissons Ratio (x) = 0.49104 0.76202
# Poissons Ratio (y) = 0.22806 0.04677
# Poissons Ratio (z) = 0.71063 0.09390
#
# Static dielectric constant tensor:
#      x y z
#    x 1.594160 0.000000 0.000000 
#    y 0.000000 1.579070 0.000000 
#    z 0.000000 0.000000 1.553780 
# 
# From -- ./inp_files/72270.got.cif
#   From: 2010.05.17/outbox.cif.g08.bks.cpg/sg65_37_cif.got.tgz:72270.got - 2010.06.03 17:01:31.
