data_PCOD9485655
_publ_section_title
;
Structure prediction by ZEFSAII (Michael W. Deem and Ramdas Pophale) SiO2 
 PCOD9485655
Probable space group: C M M M
;
_chemical_formula_sum "Si O2"
_cell_formula_units_Z 72
_cell_length_a 16.130141
_cell_length_b 17.752123
_cell_length_c 13.150265
_cell_angle_alpha 90.000000
_cell_angle_beta 90.000000
_cell_angle_gamma 90.000000
_cell_volume 3765.502730
_symmetry_space_group_name_H-M "C M M M"
_symmetry_group_IT_number 65
_symmetry_cell_setting 'orthorhombic'
loop_
_space_group_symop_operation_xyz
x,y,z
-x,-y,z
x,-y,-z
-x,y,-z
-x,-y,-z
x,y,-z
-x,y,z
x,-y,z
1/2+x,1/2+y,z
1/2-x,1/2-y,z
1/2+x,1/2-y,-z
1/2-x,1/2+y,-z
1/2-x,1/2-y,-z
1/2+x,1/2+y,-z
1/2-x,1/2+y,z
1/2+x,1/2-y,z
loop_
_atom_site_type_symbol
_atom_site_label
_atom_site_fract_x
_atom_site_fract_y
_atom_site_fract_z
Si Si1 0.000000 0.409277 0.890228
Si Si2 0.323228 0.910587 0.206604
Si Si3 0.835056 0.827653 0.116800
Si Si4 0.337071 0.773366 0.679009
Si Si5 0.000000 0.810700 0.612945
Si Si6 0.500000 0.590186 0.814322
O O1 0.087119 0.391542 0.840246
O O2 0.000000 0.500000 0.897545
O O3 0.000000 0.372711 0.000000
O O4 0.245967 0.878327 0.142075
O O5 0.328469 0.862787 0.309563
O O6 0.315108 0.000000 0.217159
O O7 0.838463 0.764383 0.206104
O O8 0.917653 0.877513 0.131868
O O9 0.831647 0.800139 0.000000
O O10 0.250000 0.750000 0.630855
O O11 0.418740 0.741132 0.627762
O O12 0.000000 0.873661 0.700987
O O13 0.000000 0.843449 0.500000
O O14 0.500000 0.500000 0.812701
#
# Coordination Sequence:
#
# PCOD9485655 Si02
#       6
#     8  16  16  16   8   8
#     4   9  17  26  37  60  92 126 169 212 244 280
#     4  10  19  31  49  71 100 139 177 215 258 300
#     4  10  20  33  50  75 110 149 181 209 248 304
#     4   9  20  36  53  77 106 137 175 216 261 311
#     4  10  21  39  61  80 100 132 173 216 269 327
#     4  10  21  36  54  80 109 135 171 218 262 305
#
# _framework density 19.120953
#
# number of rings (size 3 to 8) (size 9 to 14) (size 15 to 20)
#    0.000    2.333    0.000    2.333    0.000    8.667 
#    0.000    0.000    0.000    1.333    0.000    0.000 
#    0.000    0.000    0.000    0.000    0.000    0.000 
#
# Total GULP energy -200635.749233 kJ/mol
# GULP energy per Si atom -5573.215256 kJ/mol
# Density = 1.907743 g / cm^3
# Si number density = 19.120953 Si / 1000 Ang^3
#
#
#
# Elastic Constant Matrix: (Units=GPa)
#
#
# Indices 1 2 3 4 5 6 
#
# 1 171.7044 35.9040 17.3577 0.0000 0.0000 0.0000
# 2 35.9040 73.1141 12.8199 0.0000 0.0000 0.0000
# 3 17.3577 12.8199 65.5521 0.0000 0.0000 0.0000
# 4 0.0000 0.0000 0.0000 1.2267 0.0000 0.0000
# 5 0.0000 0.0000 0.0000 0.0000 2.1441 0.0000
# 6 0.0000 0.0000 0.0000 0.0000 0.0000 36.4001
#
#
#
# Elastic Compliance Matrix: (Units=1/GPa)
#
#
# Indices 1 2 3 4 5 6 
#
# 1 0.006573 -0.003026 -0.001149 0.000000 0.000000 0.000000
# 2 -0.003026 0.015556 -0.002241 0.000000 0.000000 0.000000
# 3 -0.001149 -0.002241 0.015997 0.000000 0.000000 0.000000
# 4 0.000000 0.000000 0.000000 0.815171 0.000000 0.000000
# 5 0.000000 0.000000 0.000000 0.000000 0.466395 0.000000
# 6 0.000000 0.000000 0.000000 0.000000 0.000000 0.027472
#
#
# Mechanical properties :
#
#
# Convention : Reuss Voigt Hill
#
# Bulk Modulus (GPa) = 39.53373 49.17042 44.35207
# Shear Modulus (GPa) = 3.65383 24.24012 13.94697
#
# Velocity S-wave (km/s) = 1.38385 3.56438 2.70369
# Velocity P-wave (km/s) = 4.82430 6.53536 5.74390
#
# Compressibility (1/GPa) = 0.02529486
#
# Stress axis : x y z
#
# Youngs Moduli (GPa) = 152.13998 64.28251 62.51000
#
# Poissons Ratio (x) = 0.19454 0.07180
# Poissons Ratio (y) = 0.46043 0.14008
# Poissons Ratio (z) = 0.17475 0.14405
#
# Static dielectric constant tensor:
#      x y z
#    x 1.666470 0.000000 0.000000 
#    y 0.000000 1.662880 0.000000 
#    z 0.000000 0.000000 1.684420 
# 
# From -- ./inp_files/39889.got.cif
#   From: 2010.05.17/outbox.cif.g08.bks.cpg/sg65_20_cif.got.tgz:39889.got - 2010.06.03 17:01:31.
