data_PCOD9485853
_publ_section_title
;
Structure prediction by ZEFSAII (Michael W. Deem and Ramdas Pophale) SiO2 
 PCOD9485853
Probable space group: C M M M
;
_chemical_formula_sum "Si O2"
_cell_formula_units_Z 104
_cell_length_a 30.373547
_cell_length_b 20.102195
_cell_length_c 7.330569
_cell_angle_alpha 90.000000
_cell_angle_beta 90.000000
_cell_angle_gamma 90.000000
_cell_volume 4475.861908
_symmetry_space_group_name_H-M "C M M M"
_symmetry_group_IT_number 65
_symmetry_cell_setting 'orthorhombic'
loop_
_space_group_symop_operation_xyz
x,y,z
-x,-y,z
x,-y,-z
-x,y,-z
-x,-y,-z
x,y,-z
-x,y,z
x,-y,z
1/2+x,1/2+y,z
1/2-x,1/2-y,z
1/2+x,1/2-y,-z
1/2-x,1/2+y,-z
1/2-x,1/2-y,-z
1/2+x,1/2+y,-z
1/2-x,1/2+y,z
1/2+x,1/2-y,z
loop_
_atom_site_type_symbol
_atom_site_label
_atom_site_fract_x
_atom_site_fract_y
_atom_site_fract_z
Si Si1 0.794181 0.783874 0.293423
Si Si2 0.449335 0.423910 0.277680
Si Si3 0.110488 0.804402 0.288411
Si Si4 0.418247 0.834861 0.220237
Si Si5 0.840840 0.573925 0.221565
Si Si6 0.739158 0.573950 0.779179
Si Si7 0.000000 0.576111 0.777300
O O1 0.796580 0.756515 0.500000
O O2 0.750000 0.750000 0.210900
O O3 0.842788 0.779300 0.207410
O O4 0.786048 0.862905 0.294635
O O5 0.449088 0.422009 0.500000
O O6 0.500000 0.409405 0.222758
O O7 0.438972 0.500000 0.224347
O O8 0.414272 0.369099 0.213154
O O9 0.120418 0.819455 0.500000
O O10 0.078645 0.740971 0.280354
O O11 0.372957 0.868636 0.284637
O O12 0.457404 0.882648 0.279658
O O13 0.418239 0.834447 0.000000
O O14 0.856302 0.500000 0.275424
O O15 0.790252 0.581289 0.276082
O O16 0.841034 0.574943 0.000000
O O17 0.724039 0.500000 0.724448
O O18 0.737366 0.576670 0.000000
O O19 0.000000 0.500000 0.716399
O O20 0.000000 0.574523 0.000000
#
# Coordination Sequence:
#
# PCOD9485853 Si02
#       7
#    16  16  16  16  16  16   8
#     4  10  21  35  49  70 104 140 172 208 253 307
#     4   8  15  30  52  74  93 117 157 206 249 294
#     4  10  21  34  51  75 100 130 166 205 251 301
#     4  10  19  31  50  75 101 132 168 206 246 293
#     4   8  14  27  48  71  95 128 172 213 244 283
#     4   9  18  32  51  75  99 127 169 217 259 301
#     4   9  18  32  51  77 106 135 168 206 247 291
#
# _framework density 23.235748999999998
#
# number of rings (size 3 to 8) (size 9 to 14) (size 15 to 20)
#    0.000    2.846    0.000    2.769    1.077    3.692 
#    0.000    1.538    0.000    3.692    0.000    1.077 
#    0.000    0.000    0.000    0.000    0.000    0.000 
#
# Total GULP energy -290389.956412 kJ/mol
# GULP energy per Si atom -5584.422239 kJ/mol
# Density = 2.318286 g / cm^3
# Si number density = 23.235749 Si / 1000 Ang^3
#
#
#
# Elastic Constant Matrix: (Units=GPa)
#
#
# Indices 1 2 3 4 5 6 
#
# 1 102.6218 76.0426 5.8299 0.0000 0.0000 0.0000
# 2 76.0426 156.3893 -1.7162 0.0000 0.0000 0.0000
# 3 5.8299 -1.7162 92.9206 0.0000 0.0000 0.0000
# 4 0.0000 0.0000 0.0000 16.1554 0.0000 0.0000
# 5 0.0000 0.0000 0.0000 0.0000 -51.6543 0.0000
# 6 0.0000 0.0000 0.0000 0.0000 0.0000 46.6688
#
#
#
# Elastic Compliance Matrix: (Units=1/GPa)
#
#
# Indices 1 2 3 4 5 6 
#
# 1 0.015345 -0.007473 -0.001101 0.000000 0.000000 0.000000
# 2 -0.007473 0.010035 0.000654 0.000000 0.000000 0.000000
# 3 -0.001101 0.000654 0.010843 0.000000 0.000000 0.000000
# 4 0.000000 0.000000 0.000000 0.061899 0.000000 0.000000
# 5 0.000000 0.000000 0.000000 0.000000 -0.019359 0.000000
# 6 0.000000 0.000000 0.000000 0.000000 0.000000 0.021428
#
#
# Mechanical properties :
#
#
# Convention : Reuss Voigt Hill
#
# Bulk Modulus (GPa) = 49.05958 56.91603 52.98781
# Shear Modulus (GPa) = 40.70864 20.35236 30.53050
#
# Velocity S-wave (km/s) = 4.19021 2.96278 3.62877
# Velocity P-wave (km/s) = 6.67609 6.02099 6.35698
#
# Compressibility (1/GPa) = 0.02038338
#
# Stress axis : x y z
#
# Youngs Moduli (GPa) = 65.16885 99.64836 92.22522
#
# Poissons Ratio (x) = 0.74470 0.10152
# Poissons Ratio (y) = 0.48703 -0.06034
# Poissons Ratio (z) = 0.07174 -0.06519
#
# Static dielectric constant tensor:
#      x y z
#    x 1.888040 0.000000 0.000000 
#    y 0.000000 1.836940 0.000000 
#    z 0.000000 0.000000 1.908170 
# 
# From -- ./inp_files/34131.got.cif
#   From: 2010.05.17/outbox.cif.g08.bks.cpg/sg65_18_cif.got.tgz:34131.got - 2010.06.03 17:01:31.
