data_PCOD9485012
_publ_section_title
;
Structure prediction by ZEFSAII (Michael W. Deem and Ramdas Pophale) SiO2 
 PCOD9485012
Probable space group: C M M M
;
_chemical_formula_sum "Si O2"
_cell_formula_units_Z 104
_cell_length_a 8.286283
_cell_length_b 28.375394
_cell_length_c 27.596128
_cell_angle_alpha 90.000000
_cell_angle_beta 90.000000
_cell_angle_gamma 90.000000
_cell_volume 6488.582230
_symmetry_space_group_name_H-M "C M M M"
_symmetry_group_IT_number 65
_symmetry_cell_setting 'orthorhombic'
loop_
_space_group_symop_operation_xyz
x,y,z
-x,-y,z
x,-y,-z
-x,y,-z
-x,-y,-z
x,y,-z
-x,y,z
x,-y,z
1/2+x,1/2+y,z
1/2-x,1/2-y,z
1/2+x,1/2-y,-z
1/2-x,1/2+y,-z
1/2-x,1/2-y,-z
1/2+x,1/2+y,-z
1/2-x,1/2+y,z
1/2+x,1/2-y,z
loop_
_atom_site_type_symbol
_atom_site_label
_atom_site_fract_x
_atom_site_fract_y
_atom_site_fract_z
Si Si1 0.304817 0.696308 0.054210
Si Si2 0.806682 0.605175 0.700721
Si Si3 0.197004 0.145248 0.849684
Si Si4 0.307501 0.445430 0.500000
Si Si5 0.694803 0.447105 0.796713
Si Si6 0.694444 0.945396 0.603459
Si Si7 0.307095 0.697193 0.751853
O O1 0.500000 0.695520 0.054499
O O2 0.250000 0.750000 0.062235
O O3 0.246885 0.664173 0.098547
O O4 0.250984 0.682150 0.000000
O O5 0.743333 0.571848 0.743862
O O6 0.749230 0.585332 0.649058
O O7 0.753347 0.658000 0.714053
O O8 0.000000 0.603369 0.701256
O O9 0.249640 0.092723 0.834773
O O10 0.247356 0.179336 0.805336
O O11 0.000000 0.145418 0.850301
O O12 0.248765 0.500000 0.500000
O O13 0.500000 0.445198 0.500000
O O14 0.247326 0.425817 0.551183
O O15 0.500000 0.447995 0.798563
O O16 0.755080 0.500000 0.805065
O O17 0.500000 0.946485 0.604337
O O18 0.751431 0.000000 0.608183
O O19 0.500000 0.696066 0.751677
O O20 0.250000 0.750000 0.742458
#
# Coordination Sequence:
#
# PCOD9485012 Si02
#       7
#    16  16  16   8  16  16  16
#     4   9  16  26  41  60  82 107 136 173 216 261
#     4  10  19  30  45  66  90 116 147 181 217 258
#     4   8  15  27  42  61  84 111 142 174 212 258
#     4   9  17  27  41  63  88 115 148 183 215 249
#     4   9  17  29  44  61  84 115 147 179 216 258
#     4   9  17  29  44  62  88 120 148 176 213 255
#     4  10  19  31  46  64  88 116 145 178 217 261
#
# _framework density 16.028155000000002
#
# number of rings (size 3 to 8) (size 9 to 14) (size 15 to 20)
#    0.000    2.846    0.000    3.000    0.000    3.077 
#    0.000    4.615    0.000    0.462    0.000    3.769 
#    0.000    0.000    0.000    9.385    0.000   10.154 
#
# Total GULP energy -289711.324618 kJ/mol
# GULP energy per Si atom -5571.371627 kJ/mol
# Density = 1.599167 g / cm^3
# Si number density = 16.028155 Si / 1000 Ang^3
#
#
#
# Elastic Constant Matrix: (Units=GPa)
#
#
# Indices 1 2 3 4 5 6 
#
# 1 9.9202 10.4845 13.5018 0.0000 0.0000 0.0000
# 2 10.4845 118.8754 84.3957 0.0000 0.0000 0.0000
# 3 13.5018 84.3957 163.2042 0.0000 0.0000 0.0000
# 4 0.0000 0.0000 0.0000 -537.6543 0.0000 0.0000
# 5 0.0000 0.0000 0.0000 0.0000 10.6321 0.0000
# 6 0.0000 0.0000 0.0000 0.0000 0.0000 17.6420
#
#
#
# Elastic Compliance Matrix: (Units=1/GPa)
#
#
# Indices 1 2 3 4 5 6 
#
# 1 0.115739 -0.005388 -0.006789 0.000000 0.000000 0.000000
# 2 -0.005388 0.013543 -0.006558 0.000000 0.000000 0.000000
# 3 -0.006789 -0.006558 0.010080 0.000000 0.000000 0.000000
# 4 0.000000 0.000000 0.000000 -0.001860 0.000000 0.000000
# 5 0.000000 0.000000 0.000000 0.000000 0.094055 0.000000
# 6 0.000000 0.000000 0.000000 0.000000 0.000000 0.056683
#
#
# Mechanical properties :
#
#
# Convention : Reuss Voigt Hill
#
# Bulk Modulus (GPa) = 9.81424 56.52929 33.17176
# Shear Modulus (GPa) = 13.90156 -89.63484 -37.86664
#
# Velocity S-wave (km/s) = 2.94823 -7.48631 -4.86584
# Velocity P-wave (km/s) = 4.21020 6.27543 3.29054
#
# Compressibility (1/GPa) = 0.10189274
#
# Stress axis : x y z
#
# Youngs Moduli (GPa) = 8.64016 73.83945 99.20720
#
# Poissons Ratio (x) = 0.39786 0.67348
# Poissons Ratio (y) = 0.04655 0.65055
# Poissons Ratio (z) = 0.05866 0.48420
#
# Static dielectric constant tensor:
#      x y z
#    x 1.555140 0.000000 0.000000 
#    y 0.000000 1.617540 0.000000 
#    z 0.000000 0.000000 1.547050 
# 
# From -- ./inp_files/68268.got.cif
#   From: 2010.05.17/outbox.cif.g08.bks.cpg/sg65_35_cif.got.tgz:68268.got - 2010.06.03 17:01:31.
