data_PCOD9485096
_publ_section_title
;
Structure prediction by ZEFSAII (Michael W. Deem and Ramdas Pophale) SiO2 
 PCOD9485096
Probable space group: C M M M
;
_chemical_formula_sum "Si O2"
_cell_formula_units_Z 104
_cell_length_a 18.383875
_cell_length_b 7.368708
_cell_length_c 35.066333
_cell_angle_alpha 90.000000
_cell_angle_beta 90.000000
_cell_angle_gamma 90.000000
_cell_volume 4750.275064
_symmetry_space_group_name_H-M "C M M M"
_symmetry_group_IT_number 65
_symmetry_cell_setting 'orthorhombic'
loop_
_space_group_symop_operation_xyz
x,y,z
-x,-y,z
x,-y,-z
-x,y,-z
-x,-y,-z
x,y,-z
-x,y,z
x,-y,z
1/2+x,1/2+y,z
1/2-x,1/2-y,z
1/2+x,1/2-y,-z
1/2-x,1/2+y,-z
1/2-x,1/2-y,-z
1/2+x,1/2+y,-z
1/2-x,1/2+y,z
1/2+x,1/2-y,z
loop_
_atom_site_type_symbol
_atom_site_label
_atom_site_fract_x
_atom_site_fract_y
_atom_site_fract_z
Si Si1 0.835420 0.283457 0.617741
Si Si2 0.584378 0.221951 0.000000
Si Si3 0.664161 0.216492 0.770362
Si Si4 0.835918 0.283482 0.923430
Si Si5 0.084351 0.721952 0.846883
Si Si6 0.415814 0.221937 0.306016
Si Si7 0.415342 0.220939 0.457636
O O1 0.846552 0.500000 0.617244
O O2 0.750000 0.250000 0.620821
O O3 0.877504 0.215822 0.655097
O O4 0.867943 0.214138 0.577860
O O5 0.625643 0.283982 0.038096
O O6 0.500000 0.275528 0.000000
O O7 0.585737 0.000000 0.000000
O O8 0.750000 0.250000 0.771123
O O9 0.624921 0.284065 0.808596
O O10 0.627459 0.284071 0.731440
O O11 0.653622 0.000000 0.770267
O O12 0.846296 0.500000 0.923413
O O13 0.750000 0.250000 0.923579
O O14 0.873853 0.216017 0.884819
O O15 0.085761 0.500000 0.846857
O O16 0.000000 0.775497 0.847245
O O17 0.500000 0.275388 0.304532
O O18 0.414176 0.000000 0.306133
O O19 0.391718 0.279987 0.500000
O O20 0.500000 0.271124 0.452470
O O21 0.413182 0.000000 0.457823
#
# Coordination Sequence:
#
# PCOD9485096 Si02
#       7
#    16   8  16  16  16  16  16
#     4  10  19  30  46  68  93 119 147 183 226 269
#     4   9  17  30  49  71  92 119 158 196 226 263
#     4  10  19  31  49  71  95 121 149 186 229 271
#     4  10  19  31  49  71  95 122 152 190 232 273
#     4   9  17  30  49  71  92 119 158 195 223 259
#     4   9  17  30  49  70  89 115 155 194 222 256
#     4   8  14  26  45  67  88 113 150 191 223 255
#
# _framework density 21.893470000000001
#
# number of rings (size 3 to 8) (size 9 to 14) (size 15 to 20)
#    0.000    2.692    0.000    3.000    0.000    5.846 
#    0.000    0.000    0.000    7.846    0.000    1.077 
#    0.000    0.000    0.000    0.000    0.000    0.000 
#
# Total GULP energy -290620.178243 kJ/mol
# GULP energy per Si atom -5588.849582 kJ/mol
# Density = 2.184364 g / cm^3
# Si number density = 21.893470 Si / 1000 Ang^3
#
#
#
# Elastic Constant Matrix: (Units=GPa)
#
#
# Indices 1 2 3 4 5 6 
#
# 1 220.0089 -5.0461 167.3454 0.0000 0.0000 0.0000
# 2 -5.0461 79.2949 12.2873 0.0000 0.0000 0.0000
# 3 167.3454 12.2873 279.4368 0.0000 0.0000 0.0000
# 4 0.0000 0.0000 0.0000 -19.6513 0.0000 0.0000
# 5 0.0000 0.0000 0.0000 0.0000 33.7314 0.0000
# 6 0.0000 0.0000 0.0000 0.0000 0.0000 22.0327
#
#
#
# Elastic Compliance Matrix: (Units=1/GPa)
#
#
# Indices 1 2 3 4 5 6 
#
# 1 0.008486 0.001337 -0.005141 0.000000 0.000000 0.000000
# 2 0.001337 0.012908 -0.001368 0.000000 0.000000 0.000000
# 3 -0.005141 -0.001368 0.006718 0.000000 0.000000 0.000000
# 4 0.000000 0.000000 0.000000 -0.050887 0.000000 0.000000
# 5 0.000000 0.000000 0.000000 0.000000 0.029646 0.000000
# 6 0.000000 0.000000 0.000000 0.000000 0.000000 0.045387
#
#
# Mechanical properties :
#
#
# Convention : Reuss Voigt Hill
#
# Bulk Modulus (GPa) = 56.28311 103.10152 79.69232
# Shear Modulus (GPa) = 72.96598 34.16615 53.56606
#
# Velocity S-wave (km/s) = 5.77928 3.95468 4.95175
# Velocity P-wave (km/s) = 8.38433 8.24908 8.31698
#
# Compressibility (1/GPa) = 0.01776732
#
# Stress axis : x y z
#
# Youngs Moduli (GPa) = 117.83750 77.47005 148.86474
#
# Poissons Ratio (x) = -0.10355 0.76530
# Poissons Ratio (y) = -0.15751 0.20366
# Poissons Ratio (z) = 0.60579 0.10599
#
# Static dielectric constant tensor:
#      x y z
#    x 1.722250 0.000000 0.000000 
#    y 0.000000 1.851580 0.000000 
#    z 0.000000 0.000000 1.774710 
# 
# From -- ./inp_files/77677.got.cif
#   From: 2010.05.17/outbox.cif.g08.bks.cpg/sg65_39_cif.got.tgz:77677.got - 2010.06.03 17:01:31.
