data_PCOD9485267
_publ_section_title
;
Structure prediction by ZEFSAII (Michael W. Deem and Ramdas Pophale) SiO2 
 PCOD9485267
Probable space group: C M M M
;
_chemical_formula_sum "Si O2"
_cell_formula_units_Z 80
_cell_length_a 14.513252
_cell_length_b 18.504109
_cell_length_c 13.538283
_cell_angle_alpha 90.000000
_cell_angle_beta 90.000000
_cell_angle_gamma 90.000000
_cell_volume 3635.770842
_symmetry_space_group_name_H-M "C M M M"
_symmetry_group_IT_number 65
_symmetry_cell_setting 'orthorhombic'
loop_
_space_group_symop_operation_xyz
x,y,z
-x,-y,z
x,-y,-z
-x,y,-z
-x,-y,-z
x,y,-z
-x,y,z
x,-y,z
1/2+x,1/2+y,z
1/2-x,1/2-y,z
1/2+x,1/2-y,-z
1/2-x,1/2+y,-z
1/2-x,1/2-y,-z
1/2+x,1/2+y,-z
1/2-x,1/2+y,z
1/2+x,1/2-y,z
loop_
_atom_site_type_symbol
_atom_site_label
_atom_site_fract_x
_atom_site_fract_y
_atom_site_fract_z
Si Si1 0.395070 0.211732 0.609117
Si Si2 0.357296 0.730647 0.817755
Si Si3 0.099514 0.385747 0.884759
Si Si4 0.307790 0.579220 0.178099
Si Si5 0.752998 0.580484 0.610104
O O1 0.376592 0.243842 0.500000
O O2 0.500000 0.185180 0.609586
O O3 0.384885 0.263564 0.702659
O O4 0.326133 0.144767 0.622098
O O5 0.250000 0.750000 0.820433
O O6 0.401497 0.798655 0.872277
O O7 0.361990 0.649655 0.859543
O O8 0.196975 0.412349 0.841038
O O9 0.000000 0.411655 0.843800
O O10 0.102235 0.404310 0.000000
O O11 0.336077 0.500000 0.142376
O O12 0.314760 0.582634 0.297197
O O13 0.712343 0.587356 0.500000
O O14 0.796748 0.500000 0.614546
#
# Coordination Sequence:
#
# PCOD9485267 Si02
#       5
#    16  16  16  16  16
#     4  10  19  30  48  75 104 138 179 217 254 298
#     4  10  19  33  52  76 103 138 173 215 254 305
#     4  10  21  37  57  79 103 134 170 210 260 314
#     4  10  21  35  52  79 108 138 173 210 255 306
#     4   9  17  29  46  72 108 143 169 198 246 305
#
# _framework density 22.003588000000001
#
# number of rings (size 3 to 8) (size 9 to 14) (size 15 to 20)
#    0.000    2.200    4.000    0.600    0.000    6.000 
#    0.000    5.000    0.000    2.400    0.000    2.800 
#    0.000    0.000    0.000    0.000    0.000    0.000 
#
# Total GULP energy -222922.108805 kJ/mol
# GULP energy per Si atom -5573.052720 kJ/mol
# Density = 2.195351 g / cm^3
# Si number density = 22.003588 Si / 1000 Ang^3
#
#
#
# Elastic Constant Matrix: (Units=GPa)
#
#
# Indices 1 2 3 4 5 6 
#
# 1 15.8201 -7.4342 -8.3438 0.0000 0.0000 0.0000
# 2 -7.4342 131.7499 1.2772 0.0000 0.0000 0.0000
# 3 -8.3438 1.2772 48.3996 0.0000 0.0000 0.0000
# 4 0.0000 0.0000 0.0000 -7.9723 0.0000 0.0000
# 5 0.0000 0.0000 0.0000 0.0000 17.9657 0.0000
# 6 0.0000 0.0000 0.0000 0.0000 0.0000 11.8837
#
#
#
# Elastic Compliance Matrix: (Units=1/GPa)
#
#
# Indices 1 2 3 4 5 6 
#
# 1 0.071497 0.003916 0.012222 0.000000 0.000000 0.000000
# 2 0.003916 0.007807 0.000469 0.000000 0.000000 0.000000
# 3 0.012222 0.000469 0.022756 0.000000 0.000000 0.000000
# 4 0.000000 0.000000 0.000000 -0.125435 0.000000 0.000000
# 5 0.000000 0.000000 0.000000 0.000000 0.055662 0.000000
# 6 0.000000 0.000000 0.000000 0.000000 0.000000 0.084149
#
#
# Mechanical properties :
#
#
# Convention : Reuss Voigt Hill
#
# Bulk Modulus (GPa) = 7.39240 18.55201 12.97220
# Shear Modulus (GPa) = 38.96764 18.40680 28.68722
#
# Velocity S-wave (km/s) = 4.21285 2.89543 3.61467
# Velocity P-wave (km/s) = 5.19914 4.43032 4.83005
#
# Compressibility (1/GPa) = 0.13527411
#
# Stress axis : x y z
#
# Youngs Moduli (GPa) = 13.98660 128.09760 43.94444
#
# Poissons Ratio (x) = -0.50161 -0.53710
# Poissons Ratio (y) = -0.05477 -0.02061
# Poissons Ratio (z) = -0.17095 -0.06009
#
# Static dielectric constant tensor:
#      x y z
#    x 1.804750 0.000000 0.000000 
#    y 0.000000 1.868990 0.000000 
#    z 0.000000 0.000000 1.844100 
# 
# From -- ./inp_files/40001.got.cif
#   From: 2010.05.17/outbox.cif.g08.bks.cpg/sg65_21_cif.got.tgz:40001.got - 2010.06.03 17:01:31.
