data_PCOD9485625
_publ_section_title
;
Structure prediction by ZEFSAII (Michael W. Deem and Ramdas Pophale) SiO2 
 PCOD9485625
Probable space group: C M M M
;
_chemical_formula_sum "Si O2"
_cell_formula_units_Z 72
_cell_length_a 18.634369
_cell_length_b 19.625112
_cell_length_c 11.837103
_cell_angle_alpha 90.000000
_cell_angle_beta 90.000000
_cell_angle_gamma 90.000000
_cell_volume 4328.847254
_symmetry_space_group_name_H-M "C M M M"
_symmetry_group_IT_number 65
_symmetry_cell_setting 'orthorhombic'
loop_
_space_group_symop_operation_xyz
x,y,z
-x,-y,z
x,-y,-z
-x,y,-z
-x,-y,-z
x,y,-z
-x,y,z
x,-y,z
1/2+x,1/2+y,z
1/2-x,1/2-y,z
1/2+x,1/2-y,-z
1/2-x,1/2+y,-z
1/2-x,1/2-y,-z
1/2+x,1/2+y,-z
1/2-x,1/2+y,z
1/2+x,1/2-y,z
loop_
_atom_site_type_symbol
_atom_site_label
_atom_site_fract_x
_atom_site_fract_y
_atom_site_fract_z
Si Si1 0.866197 0.832942 0.366341
Si Si2 0.919044 0.189141 0.000000
Si Si3 0.264876 0.829484 0.198346
Si Si4 0.295019 0.418312 0.000000
Si Si5 0.581978 0.785184 0.778153
Si Si6 0.500000 0.577124 0.637703
O O1 0.856420 0.838262 0.500000
O O2 0.790272 0.837970 0.302562
O O3 0.902996 0.762124 0.330134
O O4 0.926220 0.887001 0.326376
O O5 0.869206 0.123627 0.000000
O O6 0.909616 0.236422 0.111013
O O7 0.000000 0.164980 0.000000
O O8 0.250000 0.750000 0.159681
O O9 0.244874 0.886348 0.107949
O O10 0.349720 0.834609 0.220801
O O11 0.300139 0.500000 0.000000
O O12 0.500000 0.811010 0.778765
O O13 0.500000 0.500000 0.675405
O O14 0.500000 0.579771 0.500000
#
# Coordination Sequence:
#
# PCOD9485625 Si02
#       6
#    16   8  16   8  16   8
#     4  10  19  31  48  76 109 139 178 216 249 304
#     4  10  19  34  50  75 104 136 174 210 251 314
#     4  10  20  35  55  73 105 141 178 215 268 317
#     4  12  22  35  54  79 104 137 177 222 266 315
#     4  10  19  33  56  76  99 136 179 216 267 312
#     4   9  18  32  48  67 105 151 173 195 248 312
#
# _framework density 16.632604000000001
#
# number of rings (size 3 to 8) (size 9 to 14) (size 15 to 20)
#    0.000    1.889    5.556    1.000    0.000    5.111 
#    0.000    0.000    0.000    1.333    0.000    0.000 
#    0.000    0.000    0.000   15.778    0.000    0.000 
#
# Total GULP energy -200477.856665 kJ/mol
# GULP energy per Si atom -5568.829352 kJ/mol
# Density = 1.659475 g / cm^3
# Si number density = 16.632604 Si / 1000 Ang^3
#
#
#
# Elastic Constant Matrix: (Units=GPa)
#
#
# Indices 1 2 3 4 5 6 
#
# 1 201.1023 49.7754 44.9056 0.0000 0.0000 0.0000
# 2 49.7754 56.9243 25.5287 0.0000 0.0000 0.0000
# 3 44.9056 25.5287 60.4438 0.0000 0.0000 0.0000
# 4 0.0000 0.0000 0.0000 20.3134 0.0000 0.0000
# 5 0.0000 0.0000 0.0000 0.0000 31.4125 0.0000
# 6 0.0000 0.0000 0.0000 0.0000 0.0000 15.7828
#
#
#
# Elastic Compliance Matrix: (Units=1/GPa)
#
#
# Indices 1 2 3 4 5 6 
#
# 1 0.006795 -0.004537 -0.003132 0.000000 0.000000 0.000000
# 2 -0.004537 0.024702 -0.007062 0.000000 0.000000 0.000000
# 3 -0.003132 -0.007062 0.021854 0.000000 0.000000 0.000000
# 4 0.000000 0.000000 0.000000 0.049228 0.000000 0.000000
# 5 0.000000 0.000000 0.000000 0.000000 0.031834 0.000000
# 6 0.000000 0.000000 0.000000 0.000000 0.000000 0.063360
#
#
# Mechanical properties :
#
#
# Convention : Reuss Voigt Hill
#
# Bulk Modulus (GPa) = 41.86170 62.09884 51.98027
# Shear Modulus (GPa) = 21.25867 26.71913 23.98890
#
# Velocity S-wave (km/s) = 3.57898 4.01238 3.80186
# Velocity P-wave (km/s) = 6.50399 7.67348 7.11281
#
# Compressibility (1/GPa) = 0.02388819
#
# Stress axis : x y z
#
# Youngs Moduli (GPa) = 147.16904 40.48331 45.75855
#
# Poissons Ratio (x) = 0.18367 0.14331
# Poissons Ratio (y) = 0.66770 0.32315
# Poissons Ratio (z) = 0.46092 0.28590
#
# Static dielectric constant tensor:
#      x y z
#    x 1.617910 0.000000 0.000000 
#    y 0.000000 1.534810 0.000000 
#    z 0.000000 0.000000 1.594020 
# 
# From -- ./inp_files/26404.got.cif
#   From: 2010.05.17/outbox.cif.g08.bks.cpg/sg65_14_cif.got.tgz:26404.got - 2010.06.03 17:01:31.
