data_PCOD9485215
_publ_section_title
;
Structure prediction by ZEFSAII (Michael W. Deem and Ramdas Pophale) SiO2 
 PCOD9485215
Probable space group: C M M M
;
_chemical_formula_sum "Si O2"
_cell_formula_units_Z 64
_cell_length_a 14.266523
_cell_length_b 11.343476
_cell_length_c 16.669362
_cell_angle_alpha 90.000000
_cell_angle_beta 90.000000
_cell_angle_gamma 90.000000
_cell_volume 2697.635545
_symmetry_space_group_name_H-M "C M M M"
_symmetry_group_IT_number 65
_symmetry_cell_setting 'orthorhombic'
loop_
_space_group_symop_operation_xyz
x,y,z
-x,-y,z
x,-y,-z
-x,y,-z
-x,-y,-z
x,y,-z
-x,y,z
x,-y,z
1/2+x,1/2+y,z
1/2-x,1/2-y,z
1/2+x,1/2-y,-z
1/2-x,1/2+y,-z
1/2-x,1/2-y,-z
1/2+x,1/2+y,-z
1/2-x,1/2+y,z
1/2+x,1/2-y,z
loop_
_atom_site_type_symbol
_atom_site_label
_atom_site_fract_x
_atom_site_fract_y
_atom_site_fract_z
Si Si1 0.649691 0.366186 0.670640
Si Si2 0.642081 0.871007 0.596094
Si Si3 0.614053 0.000000 0.904157
Si Si4 0.386221 0.367460 0.000000
Si Si5 0.113882 0.251509 0.835960
O O1 0.610507 0.500000 0.665924
O O2 0.602017 0.252936 0.627791
O O3 0.752149 0.373342 0.630419
O O4 0.653833 0.321639 0.762036
O O5 0.642994 0.866437 0.500000
O O6 0.601762 0.000000 0.619482
O O7 0.640789 0.886680 0.851345
O O8 0.500000 0.000000 0.908589
O O9 0.641945 0.000000 0.000000
O O10 0.356741 0.307355 0.918895
O O11 0.355164 0.500000 0.000000
O O12 0.500000 0.363380 0.000000
O O13 0.000000 0.246132 0.828071
#
# Coordination Sequence:
#
# PCOD9485215 Si02
#       5
#    16  16   8   8  16
#     4  10  19  30  50  79 105 128 160 205 251 295
#     4   9  19  37  59  78  96 125 166 208 249 295
#     4   9  16  30  48  68  95 135 181 213 239 280
#     4   9  16  27  43  64  95 134 168 198 236 282
#     4  10  19  30  47  73 104 134 167 205 246 294
#
# _framework density 23.72448
#
# number of rings (size 3 to 8) (size 9 to 14) (size 15 to 20)
#    0.000    2.500    1.250    2.250    1.750    3.000 
#    0.000    0.000    0.000    6.000    0.000   12.250 
#    0.000    0.000    0.000    0.000    0.000    0.000 
#
# Total GULP energy -178639.332693 kJ/mol
# GULP energy per Si atom -5582.479147 kJ/mol
# Density = 2.367048 g / cm^3
# Si number density = 23.724480 Si / 1000 Ang^3
#
#
#
# Elastic Constant Matrix: (Units=GPa)
#
#
# Indices 1 2 3 4 5 6 
#
# 1 98.3175 21.8169 10.8929 0.0000 0.0000 0.0000
# 2 21.8169 296.6705 88.5509 0.0000 0.0000 0.0000
# 3 10.8929 88.5509 131.8299 0.0000 0.0000 0.0000
# 4 0.0000 0.0000 0.0000 35.6048 0.0000 0.0000
# 5 0.0000 0.0000 0.0000 0.0000 -271.7251 0.0000
# 6 0.0000 0.0000 0.0000 0.0000 0.0000 -19.3082
#
#
#
# Elastic Compliance Matrix: (Units=1/GPa)
#
#
# Indices 1 2 3 4 5 6 
#
# 1 0.010359 -0.000633 -0.000431 0.000000 0.000000 0.000000
# 2 -0.000633 0.004255 -0.002806 0.000000 0.000000 0.000000
# 3 -0.000431 -0.002806 0.009506 0.000000 0.000000 0.000000
# 4 0.000000 0.000000 0.000000 0.028086 0.000000 0.000000
# 5 0.000000 0.000000 0.000000 0.000000 -0.003680 0.000000
# 6 0.000000 0.000000 0.000000 0.000000 0.000000 -0.051791
#
#
# Mechanical properties :
#
#
# Convention : Reuss Voigt Hill
#
# Bulk Modulus (GPa) = 61.04714 85.48214 73.26464
# Shear Modulus (GPa) = 503.34412 -24.04857 239.64778
#
# Velocity S-wave (km/s) = 14.58160 -3.18726 10.06142
# Velocity P-wave (km/s) = 17.58650 4.75022 12.88118
#
# Compressibility (1/GPa) = 0.01638078
#
# Stress axis : x y z
#
# Youngs Moduli (GPa) = 96.53099 235.03206 105.20056
#
# Poissons Ratio (x) = 0.14884 0.04530
# Poissons Ratio (y) = 0.06113 0.29515
# Poissons Ratio (z) = 0.04156 0.65941
#
# Static dielectric constant tensor:
#      x y z
#    x 1.980540 0.000000 0.000000 
#    y 0.000000 2.179980 0.000000 
#    z 0.000000 0.000000 1.686620 
# 
# From -- ./inp_files/41927.got.cif
#   From: 2010.05.17/outbox.cif.g08.bks.cpg/sg65_21_cif.got.tgz:41927.got - 2010.06.03 17:01:31.
