data_PCOD9485755
_publ_section_title
;
Structure prediction by ZEFSAII (Michael W. Deem and Ramdas Pophale) SiO2 
 PCOD9485755
Probable space group: C M M M
;
_chemical_formula_sum "Si O2"
_cell_formula_units_Z 88
_cell_length_a 7.724729
_cell_length_b 18.474914
_cell_length_c 31.811781
_cell_angle_alpha 90.000000
_cell_angle_beta 90.000000
_cell_angle_gamma 90.000000
_cell_volume 4539.977096
_symmetry_space_group_name_H-M "C M M M"
_symmetry_group_IT_number 65
_symmetry_cell_setting 'orthorhombic'
loop_
_space_group_symop_operation_xyz
x,y,z
-x,-y,z
x,-y,-z
-x,y,-z
-x,-y,-z
x,y,-z
-x,y,z
x,-y,z
1/2+x,1/2+y,z
1/2-x,1/2-y,z
1/2+x,1/2-y,-z
1/2-x,1/2+y,-z
1/2-x,1/2-y,-z
1/2+x,1/2+y,-z
1/2-x,1/2+y,z
1/2+x,1/2-y,z
loop_
_atom_site_type_symbol
_atom_site_label
_atom_site_fract_x
_atom_site_fract_y
_atom_site_fract_z
Si Si1 0.203495 0.586967 0.112297
Si Si2 0.706428 0.918537 0.279209
Si Si3 0.500000 0.587935 0.952120
Si Si4 0.291557 0.335791 0.454838
Si Si5 0.792200 0.334364 0.802379
Si Si6 0.206293 0.834981 0.636436
O O1 0.215869 0.500000 0.117950
O O2 0.329288 0.608598 0.074242
O O3 0.264006 0.625718 0.155041
O O4 0.000000 0.603667 0.104652
O O5 0.500000 0.923523 0.273156
O O6 0.776249 0.872557 0.239868
O O7 0.732673 0.878918 0.323392
O O8 0.777142 0.000000 0.279818
O O9 0.500000 0.500000 0.953655
O O10 0.500000 0.614470 0.000000
O O11 0.226846 0.364959 0.500000
O O12 0.500000 0.343975 0.454991
O O13 0.250000 0.250000 0.454886
O O14 0.226448 0.361817 0.409311
O O15 0.750000 0.250000 0.802805
O O16 0.000000 0.341154 0.801942
O O17 0.250000 0.750000 0.640975
O O18 0.000000 0.840734 0.635314
#
# Coordination Sequence:
#
# PCOD9485755 Si02
#       6
#    16  16   8  16  16  16
#     4   9  18  34  55  80 111 146 183 225 270 317
#     4  10  21  37  54  72 101 137 172 213 263 315
#     4   9  18  32  54  86 116 144 183 227 270 316
#     4   8  14  25  42  65  93 124 159 202 252 301
#     4  10  21  35  54  79 103 136 173 214 259 313
#     4  10  19  31  49  74 102 131 167 211 255 310
#
# _framework density 19.383358999999999
#
# number of rings (size 3 to 8) (size 9 to 14) (size 15 to 20)
#    0.000    2.636    0.000    1.636    1.273    5.818 
#    0.000    1.818    0.000    1.091    0.000    3.818 
#    0.000    0.000    0.000    0.000    0.000    0.000 
#
# Total GULP energy -245261.200151 kJ/mol
# GULP energy per Si atom -5574.118185 kJ/mol
# Density = 1.933924 g / cm^3
# Si number density = 19.383359 Si / 1000 Ang^3
#
#
#
# Elastic Constant Matrix: (Units=GPa)
#
#
# Indices 1 2 3 4 5 6 
#
# 1 51.7508 18.3505 46.6397 0.0000 0.0000 0.0000
# 2 18.3505 67.4958 76.7321 0.0000 0.0000 0.0000
# 3 46.6397 76.7321 236.5727 0.0000 0.0000 0.0000
# 4 0.0000 0.0000 0.0000 19.9428 0.0000 0.0000
# 5 0.0000 0.0000 0.0000 0.0000 65.4078 0.0000
# 6 0.0000 0.0000 0.0000 0.0000 0.0000 17.3587
#
#
#
# Elastic Compliance Matrix: (Units=1/GPa)
#
#
# Indices 1 2 3 4 5 6 
#
# 1 0.023634 -0.001788 -0.004080 0.000000 0.000000 0.000000
# 2 -0.001788 0.023605 -0.007304 0.000000 0.000000 0.000000
# 3 -0.004080 -0.007304 0.007400 0.000000 0.000000 0.000000
# 4 0.000000 0.000000 0.000000 0.050143 0.000000 0.000000
# 5 0.000000 0.000000 0.000000 0.000000 0.015289 0.000000
# 6 0.000000 0.000000 0.000000 0.000000 0.000000 0.057608
#
#
# Mechanical properties :
#
#
# Convention : Reuss Voigt Hill
#
# Bulk Modulus (GPa) = 35.33932 71.02935 53.18434
# Shear Modulus (GPa) = 23.42426 34.81499 29.11963
#
# Velocity S-wave (km/s) = 3.48008 4.24267 3.88016
# Velocity P-wave (km/s) = 5.86680 7.79259 6.89724
#
# Compressibility (1/GPa) = 0.02829709
#
# Stress axis : x y z
#
# Youngs Moduli (GPa) = 42.31210 42.36376 135.12981
#
# Poissons Ratio (x) = 0.07574 0.55126
# Poissons Ratio (y) = 0.07564 0.98697
# Poissons Ratio (z) = 0.17261 0.30942
#
# Static dielectric constant tensor:
#      x y z
#    x 1.710670 0.000000 0.000000 
#    y 0.000000 1.653280 0.000000 
#    z 0.000000 0.000000 1.710460 
# 
# From -- ./inp_files/76601.got.cif
#   From: 2010.05.17/outbox.cif.g08.bks.cpg/sg65_39_cif.got.tgz:76601.got - 2010.06.03 17:01:31.
