data_PCOD9485171
_publ_section_title
;
Structure prediction by ZEFSAII (Michael W. Deem and Ramdas Pophale) SiO2 
 PCOD9485171
Probable space group: C M M M
;
_chemical_formula_sum "Si O2"
_cell_formula_units_Z 96
_cell_length_a 7.777535
_cell_length_b 19.258175
_cell_length_c 32.126868
_cell_angle_alpha 90.000000
_cell_angle_beta 90.000000
_cell_angle_gamma 90.000000
_cell_volume 4811.998596
_symmetry_space_group_name_H-M "C M M M"
_symmetry_group_IT_number 65
_symmetry_cell_setting 'orthorhombic'
loop_
_space_group_symop_operation_xyz
x,y,z
-x,-y,z
x,-y,-z
-x,y,-z
-x,-y,-z
x,y,-z
-x,y,z
x,-y,z
1/2+x,1/2+y,z
1/2-x,1/2-y,z
1/2+x,1/2-y,-z
1/2-x,1/2+y,-z
1/2-x,1/2-y,-z
1/2+x,1/2+y,-z
1/2-x,1/2+y,z
1/2+x,1/2-y,z
loop_
_atom_site_type_symbol
_atom_site_label
_atom_site_fract_x
_atom_site_fract_y
_atom_site_fract_z
Si Si1 0.793847 0.421048 0.545507
Si Si2 0.289246 0.419755 0.204504
Si Si3 0.790149 0.920112 0.047131
Si Si4 0.707317 0.669310 0.717014
Si Si5 0.296655 0.670264 0.624572
Si Si6 0.706919 0.669051 0.124868
O O1 0.732723 0.394729 0.500000
O O2 0.729610 0.500000 0.550449
O O3 0.753637 0.375969 0.585577
O O4 0.000000 0.424076 0.543353
O O5 0.500000 0.419642 0.204479
O O6 0.235472 0.500000 0.202313
O O7 0.231035 0.381205 0.246562
O O8 0.232391 0.374895 0.164728
O O9 0.729782 0.867306 0.082444
O O10 0.000000 0.918982 0.047086
O O11 0.740720 0.000000 0.056438
O O12 0.734672 0.903273 0.000000
O O13 0.500000 0.664040 0.716570
O O14 0.750000 0.750000 0.725499
O O15 0.774279 0.651776 0.670556
O O16 0.500000 0.665421 0.628108
O O17 0.250000 0.750000 0.616550
O O18 0.500000 0.663729 0.124601
O O19 0.750000 0.750000 0.127628
#
# Coordination Sequence:
#
# PCOD9485171 Si02
#       6
#    16  16  16  16  16  16
#     4   9  19  36  55  74  99 131 164 200 244 290
#     4   9  17  30  49  71  93 120 158 199 234 274
#     4   8  14  26  45  68  92 119 156 200 237 272
#     4   9  18  32  50  71  96 125 155 192 237 282
#     4  10  20  33  51  75 101 130 163 199 240 287
#     4  10  19  30  47  70  94 123 157 193 236 283
#
# _framework density 19.950129
#
# number of rings (size 3 to 8) (size 9 to 14) (size 15 to 20)
#    0.000    2.833    0.000    2.500    0.000    4.667 
#    0.000    2.500    0.000    3.500    0.000    1.167 
#    0.000    0.000    0.000    0.000    0.000    0.000 
#
# Total GULP energy -267732.951760 kJ/mol
# GULP energy per Si atom -5577.769828 kJ/mol
# Density = 1.990472 g / cm^3
# Si number density = 19.950129 Si / 1000 Ang^3
#
#
#
# Elastic Constant Matrix: (Units=GPa)
#
#
# Indices 1 2 3 4 5 6 
#
# 1 24.9369 4.0094 13.1138 0.0000 0.0000 0.0000
# 2 4.0094 159.1008 154.0278 0.0000 0.0000 0.0000
# 3 13.1138 154.0278 223.1665 0.0000 0.0000 0.0000
# 4 0.0000 0.0000 0.0000 45.5803 0.0000 0.0000
# 5 0.0000 0.0000 0.0000 0.0000 11.5315 0.0000
# 6 0.0000 0.0000 0.0000 0.0000 0.0000 18.3523
#
#
#
# Elastic Compliance Matrix: (Units=1/GPa)
#
#
# Indices 1 2 3 4 5 6 
#
# 1 0.042221 0.004032 -0.005264 0.000000 0.000000 0.000000
# 2 0.004032 0.019327 -0.013577 0.000000 0.000000 0.000000
# 3 -0.005264 -0.013577 0.014161 0.000000 0.000000 0.000000
# 4 0.000000 0.000000 0.000000 0.021939 0.000000 0.000000
# 5 0.000000 0.000000 0.000000 0.000000 0.086719 0.000000
# 6 0.000000 0.000000 0.000000 0.000000 0.000000 0.054489
#
#
# Mechanical properties :
#
#
# Convention : Reuss Voigt Hill
#
# Bulk Modulus (GPa) = 21.69553 83.27847 52.48700
# Shear Modulus (GPa) = 17.61575 30.82972 24.22274
#
# Velocity S-wave (km/s) = 2.97474 3.93535 3.48827
# Velocity P-wave (km/s) = 4.76416 7.90463 6.52612
#
# Compressibility (1/GPa) = 0.04609244
#
# Stress axis : x y z
#
# Youngs Moduli (GPa) = 23.68484 51.74015 70.61798
#
# Poissons Ratio (x) = -0.20862 0.37173
# Poissons Ratio (y) = -0.09550 0.95875
# Poissons Ratio (z) = 0.12468 0.70245
#
# Static dielectric constant tensor:
#      x y z
#    x 1.744580 0.000000 0.000000 
#    y 0.000000 1.652380 0.000000 
#    z 0.000000 0.000000 1.734400 
# 
# From -- ./inp_files/73084.got.cif
#   From: 2010.05.17/outbox.cif.g08.bks.cpg/sg65_37_cif.got.tgz:73084.got - 2010.06.03 17:01:31.
