data_PCOD9485022
_publ_section_title
;
Structure prediction by ZEFSAII (Michael W. Deem and Ramdas Pophale) SiO2 
 PCOD9485022
Probable space group: C M M M
;
_chemical_formula_sum "Si O2"
_cell_formula_units_Z 104
_cell_length_a 28.020105
_cell_length_b 8.895242
_cell_length_c 27.306104
_cell_angle_alpha 90.000000
_cell_angle_beta 90.000000
_cell_angle_gamma 90.000000
_cell_volume 6805.926680
_symmetry_space_group_name_H-M "C M M M"
_symmetry_group_IT_number 65
_symmetry_cell_setting 'orthorhombic'
loop_
_space_group_symop_operation_xyz
x,y,z
-x,-y,z
x,-y,-z
-x,y,-z
-x,-y,-z
x,y,-z
-x,y,z
x,-y,z
1/2+x,1/2+y,z
1/2-x,1/2-y,z
1/2+x,1/2-y,-z
1/2-x,1/2+y,-z
1/2-x,1/2-y,-z
1/2+x,1/2+y,-z
1/2-x,1/2+y,z
1/2+x,1/2-y,z
loop_
_atom_site_type_symbol
_atom_site_label
_atom_site_fract_x
_atom_site_fract_y
_atom_site_fract_z
Si Si1 0.199313 0.679773 0.747552
Si Si2 0.897404 0.320286 0.802520
Si Si3 0.943693 0.179765 0.897461
Si Si4 0.197568 0.818701 0.554855
Si Si5 0.148741 0.181218 0.345770
Si Si6 0.942107 0.327048 0.000000
Si Si7 0.446168 0.680745 0.291399
O O1 0.203083 0.500000 0.744435
O O2 0.250000 0.750000 0.761115
O O3 0.156516 0.717250 0.785260
O O4 0.182559 0.744511 0.695045
O O5 0.901593 0.500000 0.805143
O O6 0.913371 0.248104 0.853344
O O7 0.931189 0.257642 0.759392
O O8 0.927943 0.244544 0.950006
O O9 0.000000 0.218964 0.890361
O O10 0.940238 0.000000 0.897646
O O11 0.181252 0.775378 0.500000
O O12 0.250000 0.750000 0.562282
O O13 0.163967 0.772803 0.599781
O O14 0.201320 0.000000 0.555930
O O15 0.094592 0.220294 0.330727
O O16 0.153627 0.000000 0.342022
O O17 0.926354 0.500000 0.000000
O O18 0.000000 0.325598 0.000000
O O19 0.500000 0.721927 0.305393
O O20 0.444459 0.500000 0.284507
#
# Coordination Sequence:
#
# PCOD9485022 Si02
#       7
#    16  16  16  16  16   8  16
#     4  10  20  32  46  65  89 115 144 179 218 262
#     4  10  20  31  44  65  90 116 147 181 218 259
#     4  10  19  30  45  66  93 123 153 184 218 258
#     4   9  17  28  42  61  84 109 138 174 217 263
#     4   9  17  29  45  63  85 114 144 176 215 259
#     4   9  17  29  45  65  90 121 154 187 223 259
#     4   9  17  29  44  62  85 114 147 179 213 256
#
# _framework density 15.280799999999999
#
# number of rings (size 3 to 8) (size 9 to 14) (size 15 to 20)
#    0.000    2.538    0.000    2.538    0.000    7.692 
#    0.000    0.000    0.000    0.462    0.000    3.769 
#    0.000    0.000    0.000   11.538    0.000   12.000 
#
# Total GULP energy -289887.118777 kJ/mol
# GULP energy per Si atom -5574.752284 kJ/mol
# Density = 1.524602 g / cm^3
# Si number density = 15.280800 Si / 1000 Ang^3
#
#
#
# Elastic Constant Matrix: (Units=GPa)
#
#
# Indices 1 2 3 4 5 6 
#
# 1 93.9898 35.8699 70.2143 0.0000 0.0000 0.0000
# 2 35.8699 32.3138 44.9936 0.0000 0.0000 0.0000
# 3 70.2143 44.9936 156.7869 0.0000 0.0000 0.0000
# 4 0.0000 0.0000 0.0000 19.0356 0.0000 0.0000
# 5 0.0000 0.0000 0.0000 0.0000 20.4968 0.0000
# 6 0.0000 0.0000 0.0000 0.0000 0.0000 20.1820
#
#
#
# Elastic Compliance Matrix: (Units=1/GPa)
#
#
# Indices 1 2 3 4 5 6 
#
# 1 0.020077 -0.016267 -0.004323 0.000000 0.000000 0.000000
# 2 -0.016267 0.064722 -0.011288 0.000000 0.000000 0.000000
# 3 -0.004323 -0.011288 0.011553 0.000000 0.000000 0.000000
# 4 0.000000 0.000000 0.000000 0.052533 0.000000 0.000000
# 5 0.000000 0.000000 0.000000 0.000000 0.048788 0.000000
# 6 0.000000 0.000000 0.000000 0.000000 0.000000 0.049549
#
#
# Mechanical properties :
#
#
# Convention : Reuss Voigt Hill
#
# Bulk Modulus (GPa) = 30.67934 65.02735 47.85335
# Shear Modulus (GPa) = 15.53542 20.74373 18.13958
#
# Velocity S-wave (km/s) = 3.19197 3.68843 3.44914
# Velocity P-wave (km/s) = 5.80565 7.79658 6.87358
#
# Compressibility (1/GPa) = 0.03259522
#
# Stress axis : x y z
#
# Youngs Moduli (GPa) = 49.80813 15.45071 86.55415
#
# Poissons Ratio (x) = 0.25134 0.37416
# Poissons Ratio (y) = 0.81025 0.97706
# Poissons Ratio (z) = 0.21531 0.17441
#
# Static dielectric constant tensor:
#      x y z
#    x 1.499750 0.000000 0.000000 
#    y 0.000000 1.510920 0.000000 
#    z 0.000000 0.000000 1.495980 
# 
# From -- ./inp_files/68573.got.cif
#   From: 2010.05.17/outbox.cif.g08.bks.cpg/sg65_35_cif.got.tgz:68573.got - 2010.06.03 17:01:31.
