data_PCOD9485430
_publ_section_title
;
Structure prediction by ZEFSAII (Michael W. Deem and Ramdas Pophale) SiO2 
 PCOD9485430
Probable space group: C M M M
;
_chemical_formula_sum "Si O2"
_cell_formula_units_Z 80
_cell_length_a 34.503301
_cell_length_b 8.828960
_cell_length_c 18.724009
_cell_angle_alpha 90.000000
_cell_angle_beta 90.000000
_cell_angle_gamma 90.000000
_cell_volume 5703.862364
_symmetry_space_group_name_H-M "C M M M"
_symmetry_group_IT_number 65
_symmetry_cell_setting 'orthorhombic'
loop_
_space_group_symop_operation_xyz
x,y,z
-x,-y,z
x,-y,-z
-x,y,-z
-x,-y,-z
x,y,-z
-x,y,z
x,-y,z
1/2+x,1/2+y,z
1/2-x,1/2-y,z
1/2+x,1/2-y,-z
1/2-x,1/2+y,-z
1/2-x,1/2-y,-z
1/2+x,1/2+y,-z
1/2-x,1/2+y,z
1/2+x,1/2-y,z
loop_
_atom_site_type_symbol
_atom_site_label
_atom_site_fract_x
_atom_site_fract_y
_atom_site_fract_z
Si Si1 0.660373 0.181019 0.367580
Si Si2 0.206887 0.318998 0.223699
Si Si3 0.207130 0.818887 0.500000
Si Si4 0.418476 0.319411 0.585166
Si Si5 0.500000 0.825280 0.586695
Si Si6 0.706578 0.681500 0.921894
O O1 0.680527 0.215751 0.292046
O O2 0.684457 0.260638 0.430472
O O3 0.616590 0.239841 0.373952
O O4 0.661451 0.000000 0.378191
O O5 0.210618 0.500000 0.216934
O O6 0.250000 0.250000 0.233963
O O7 0.189545 0.251766 0.150224
O O8 0.250000 0.750000 0.500000
O O9 0.208705 0.000000 0.500000
O O10 0.413803 0.286419 0.500000
O O11 0.416593 0.500000 0.593559
O O12 0.460458 0.257882 0.608155
O O13 0.500000 0.823279 0.500000
O O14 0.500000 0.000000 0.609638
O O15 0.708738 0.500000 0.915333
O O16 0.750000 0.750000 0.923609
O O17 0.688889 0.717139 0.000000
#
# Coordination Sequence:
#
# PCOD9485430 Si02
#       6
#    16  16   8  16   8  16
#     4  11  22  34  47  63  85 113 147 185 222 261
#     4  10  20  31  44  62  83 112 146 182 221 259
#     4  12  24  36  48  61  78 109 150 190 228 260
#     4  10  19  31  47  67  87 110 142 179 218 263
#     4   9  17  29  47  67  87 111 136 171 217 262
#     4   9  16  26  42  62  82 106 136 172 214 259
#
# _framework density 14.025585
#
# number of rings (size 3 to 8) (size 9 to 14) (size 15 to 20)
#    0.000    1.900    1.000    5.400    0.000    8.000 
#    0.000    0.000    0.000    0.000    0.000    0.000 
#    0.000    0.000    0.000    0.900    0.000   16.800 
#
# Total GULP energy -223090.346361 kJ/mol
# GULP energy per Si atom -5577.258659 kJ/mol
# Density = 1.399366 g / cm^3
# Si number density = 14.025585 Si / 1000 Ang^3
#
#
#
# Elastic Constant Matrix: (Units=GPa)
#
#
# Indices 1 2 3 4 5 6 
#
# 1 96.4000 43.6498 51.2062 0.0000 0.0000 0.0000
# 2 43.6498 80.6440 61.0301 0.0000 0.0000 0.0000
# 3 51.2062 61.0301 117.5495 0.0000 0.0000 0.0000
# 4 0.0000 0.0000 0.0000 21.5602 0.0000 0.0000
# 5 0.0000 0.0000 0.0000 0.0000 0.5427 0.0000
# 6 0.0000 0.0000 0.0000 0.0000 0.0000 23.2019
#
#
#
# Elastic Compliance Matrix: (Units=1/GPa)
#
#
# Indices 1 2 3 4 5 6 
#
# 1 0.014674 -0.005115 -0.003737 0.000000 0.000000 0.000000
# 2 -0.005115 0.022208 -0.009302 0.000000 0.000000 0.000000
# 3 -0.003737 -0.009302 0.014964 0.000000 0.000000 0.000000
# 4 0.000000 0.000000 0.000000 0.046382 0.000000 0.000000
# 5 0.000000 0.000000 0.000000 0.000000 1.842626 0.000000
# 6 0.000000 0.000000 0.000000 0.000000 0.000000 0.043100
#
#
# Mechanical properties :
#
#
# Convention : Reuss Voigt Hill
#
# Bulk Modulus (GPa) = 64.35188 67.37398 65.86293
# Shear Modulus (GPa) = 2.46860 18.30813 10.38836
#
# Velocity S-wave (km/s) = 1.32811 3.61687 2.72448
# Velocity P-wave (km/s) = 6.95221 8.09834 7.54706
#
# Compressibility (1/GPa) = 0.01553956
#
# Stress axis : x y z
#
# Youngs Moduli (GPa) = 68.14615 45.02802 66.82488
#
# Poissons Ratio (x) = 0.23031 0.24972
# Poissons Ratio (y) = 0.34855 0.62162
# Poissons Ratio (z) = 0.25465 0.41886
#
# Static dielectric constant tensor:
#      x y z
#    x 1.438540 0.000000 0.000000 
#    y 0.000000 1.467740 0.000000 
#    z 0.000000 0.000000 1.478880 
# 
# From -- ./inp_files/66169.got.cif
#   From: 2010.05.17/outbox.cif.g08.bks.cpg/sg65_34_cif.got.tgz:66169.got - 2010.06.03 17:01:31.
