data_PCOD9485363
_publ_section_title
;
Structure prediction by ZEFSAII (Michael W. Deem and Ramdas Pophale) SiO2 
 PCOD9485363
Probable space group: C M M M
;
_chemical_formula_sum "Si O2"
_cell_formula_units_Z 104
_cell_length_a 28.265624
_cell_length_b 7.889008
_cell_length_c 27.860806
_cell_angle_alpha 90.000000
_cell_angle_beta 90.000000
_cell_angle_gamma 90.000000
_cell_volume 6212.617993
_symmetry_space_group_name_H-M "C M M M"
_symmetry_group_IT_number 65
_symmetry_cell_setting 'orthorhombic'
loop_
_space_group_symop_operation_xyz
x,y,z
-x,-y,z
x,-y,-z
-x,y,-z
-x,-y,-z
x,y,-z
-x,y,z
x,-y,z
1/2+x,1/2+y,z
1/2-x,1/2-y,z
1/2+x,1/2-y,-z
1/2-x,1/2+y,-z
1/2-x,1/2-y,-z
1/2+x,1/2+y,-z
1/2-x,1/2+y,z
1/2+x,1/2-y,z
loop_
_atom_site_type_symbol
_atom_site_label
_atom_site_fract_x
_atom_site_fract_y
_atom_site_fract_z
Si Si1 0.947386 0.703105 0.649700
Si Si2 0.555212 0.792451 0.156220
Si Si3 0.396068 0.792497 0.746574
Si Si4 0.557010 0.796881 0.948377
Si Si5 0.853596 0.799694 0.597034
Si Si6 0.194742 0.205421 0.500000
Si Si7 0.196576 0.298204 0.305311
O O1 0.950178 0.500000 0.652907
O O2 0.929244 0.762487 0.702084
O O3 0.905916 0.740004 0.611907
O O4 0.000000 0.768431 0.638583
O O5 0.500000 0.744879 0.161894
O O6 0.584830 0.734988 0.202125
O O7 0.573118 0.733266 0.103780
O O8 0.556083 0.000000 0.155503
O O9 0.343192 0.737379 0.732256
O O10 0.396987 0.000000 0.747270
O O11 0.500000 0.775510 0.947866
O O12 0.565450 0.000000 0.948987
O O13 0.574248 0.728388 0.000000
O O14 0.831336 0.729913 0.548009
O O15 0.819479 0.762692 0.642096
O O16 0.856634 0.000000 0.591622
O O17 0.250000 0.250000 0.500000
O O18 0.192182 0.000000 0.500000
O O19 0.193344 0.500000 0.306491
O O20 0.250000 0.250000 0.294157
#
# Coordination Sequence:
#
# PCOD9485363 Si02
#       7
#    16  16  16  16  16   8  16
#     4   9  17  30  47  66  89 116 145 175 205 238
#     4   8  11  15  26  44  67  97 130 161 194 232
#     4   8  14  23  36  55  77 101 132 169 203 238
#     4   7   9  12  18  32  58  92 127 159 190 227
#     4  10  20  34  50  69  90 111 138 168 202 245
#     4  10  22  36  51  70  89 109 134 169 209 248
#     4  10  19  31  46  64  85 108 134 166 206 249
#
# _framework density 16.740124999999999
#
# number of rings (size 3 to 8) (size 9 to 14) (size 15 to 20)
#    0.000    3.231    0.000    4.154    0.000    4.615 
#    0.000    0.385    0.000    2.308    0.000    0.000 
#    0.000    0.615    0.000    0.462    0.000   19.538 
#
# Total GULP energy -289491.154126 kJ/mol
# GULP energy per Si atom -5567.137579 kJ/mol
# Density = 1.670202 g / cm^3
# Si number density = 16.740125 Si / 1000 Ang^3
#
#
#
# Elastic Constant Matrix: (Units=GPa)
#
#
# Indices 1 2 3 4 5 6 
#
# 1 122.8708 6.4312 84.4769 0.0000 0.0000 0.0000
# 2 6.4312 13.8031 5.4933 0.0000 0.0000 0.0000
# 3 84.4769 5.4933 178.2614 0.0000 0.0000 0.0000
# 4 0.0000 0.0000 0.0000 -20.4994 0.0000 0.0000
# 5 0.0000 0.0000 0.0000 0.0000 18.6986 0.0000
# 6 0.0000 0.0000 0.0000 0.0000 0.0000 16.6309
#
#
#
# Elastic Compliance Matrix: (Units=1/GPa)
#
#
# Indices 1 2 3 4 5 6 
#
# 1 0.012230 -0.003434 -0.005690 0.000000 0.000000 0.000000
# 2 -0.003434 0.074311 -0.000663 0.000000 0.000000 0.000000
# 3 -0.005690 -0.000663 0.008327 0.000000 0.000000 0.000000
# 4 0.000000 0.000000 0.000000 -0.048782 0.000000 0.000000
# 5 0.000000 0.000000 0.000000 0.000000 0.053480 0.000000
# 6 0.000000 0.000000 0.000000 0.000000 0.000000 0.060129
#
#
# Mechanical properties :
#
#
# Convention : Reuss Voigt Hill
#
# Bulk Modulus (GPa) = 13.28114 56.41534 34.84824
# Shear Modulus (GPa) = 24.46579 17.53495 21.00037
#
# Velocity S-wave (km/s) = 3.82711 3.23999 3.54572
# Velocity P-wave (km/s) = 5.24214 6.91162 6.13394
#
# Compressibility (1/GPa) = 0.07529476
#
# Stress axis : x y z
#
# Youngs Moduli (GPa) = 81.76302 13.45695 120.09609
#
# Poissons Ratio (x) = 0.04621 0.68336
# Poissons Ratio (y) = 0.28077 0.07958
# Poissons Ratio (z) = 0.46524 0.00892
#
# Static dielectric constant tensor:
#      x y z
#    x 1.544040 0.000000 0.000000 
#    y 0.000000 1.618130 0.000000 
#    z 0.000000 0.000000 1.599980 
# 
# From -- ./inp_files/75983.got.cif
#   From: 2010.05.17/outbox.cif.g08.bks.cpg/sg65_38_cif.got.tgz:75983.got - 2010.06.03 17:01:31.
