data_PCOD9485980
_publ_section_title
;
Structure prediction by ZEFSAII (Michael W. Deem and Ramdas Pophale) SiO2 
 PCOD9485980
Probable space group: C M M M
;
_chemical_formula_sum "Si O2"
_cell_formula_units_Z 120
_cell_length_a 23.373250
_cell_length_b 15.673575
_cell_length_c 17.750280
_cell_angle_alpha 90.000000
_cell_angle_beta 90.000000
_cell_angle_gamma 90.000000
_cell_volume 6502.679943
_symmetry_space_group_name_H-M "C M M M"
_symmetry_group_IT_number 65
_symmetry_cell_setting 'orthorhombic'
loop_
_space_group_symop_operation_xyz
x,y,z
-x,-y,z
x,-y,-z
-x,y,-z
-x,-y,-z
x,y,-z
-x,y,z
x,-y,z
1/2+x,1/2+y,z
1/2-x,1/2-y,z
1/2+x,1/2-y,-z
1/2-x,1/2+y,-z
1/2-x,1/2-y,-z
1/2+x,1/2+y,-z
1/2-x,1/2+y,z
1/2+x,1/2-y,z
loop_
_atom_site_type_symbol
_atom_site_label
_atom_site_fract_x
_atom_site_fract_y
_atom_site_fract_z
Si Si1 0.791643 0.897424 0.417129
Si Si2 0.304529 0.189576 0.777158
Si Si3 0.119333 0.902847 0.856332
Si Si4 0.667225 0.900991 0.629324
Si Si5 0.745005 0.397174 0.911658
Si Si6 0.376710 0.327781 0.294833
Si Si7 0.064188 0.275090 0.587287
Si Si8 0.500000 0.598898 0.910477
O O1 0.814746 0.876569 0.500000
O O2 0.724675 0.875660 0.414717
O O3 0.825492 0.850599 0.351589
O O4 0.795817 0.000000 0.406184
O O5 0.250000 0.250000 0.759452
O O6 0.313562 0.115467 0.715669
O O7 0.290542 0.149823 0.858146
O O8 0.358721 0.249780 0.760292
O O9 0.181127 0.869634 0.884128
O O10 0.115639 0.901501 0.765865
O O11 0.060227 0.861430 0.884464
O O12 0.119036 0.000000 0.885967
O O13 0.613885 0.842940 0.606144
O O14 0.654804 0.000000 0.615903
O O15 0.749243 0.500000 0.901267
O O16 0.751646 0.378300 0.000000
O O17 0.426546 0.299408 0.351140
O O18 0.070159 0.247784 0.500000
O O19 0.000000 0.310410 0.595676
O O20 0.500000 0.500000 0.881872
O O21 0.500000 0.596761 0.000000
#
# Coordination Sequence:
#
# PCOD9485980 Si02
#       8
#    16  16  16  16  16  16  16   8
#     4  10  19  31  51  79 107 137 174 216 262 317
#     4  11  19  33  49  78 106 139 167 203 257 312
#     4  10  19  32  51  73  98 134 176 211 252 305
#     4  10  20  35  56  79 106 136 174 218 264 319
#     4  10  20  34  52  75 107 144 176 208 252 309
#     4  11  21  34  52  75 106 141 172 212 266 316
#     4  10  23  39  54  74 102 138 180 227 275 318
#     4   9  18  32  48  68  93 121 164 215 251 287
#
# _framework density 18.45393
#
# number of rings (size 3 to 8) (size 9 to 14) (size 15 to 20)
#    0.000    1.800    2.667    2.000    0.933    5.067 
#    0.000    2.667    0.000    0.000    0.000    2.800 
#    0.000    0.000    0.000   14.400    0.000    0.000 
#
# Total GULP energy -334320.043325 kJ/mol
# GULP energy per Si atom -5572.000722 kJ/mol
# Density = 1.841193 g / cm^3
# Si number density = 18.453930 Si / 1000 Ang^3
#
#
#
# Elastic Constant Matrix: (Units=GPa)
#
#
# Indices 1 2 3 4 5 6 
#
# 1 87.7432 21.9701 48.6263 0.0000 0.0000 0.0000
# 2 21.9701 28.9662 22.6731 0.0000 0.0000 0.0000
# 3 48.6263 22.6731 134.5612 0.0000 0.0000 0.0000
# 4 0.0000 0.0000 0.0000 20.1883 0.0000 0.0000
# 5 0.0000 0.0000 0.0000 0.0000 17.8162 0.0000
# 6 0.0000 0.0000 0.0000 0.0000 0.0000 5.2066
#
#
#
# Elastic Compliance Matrix: (Units=1/GPa)
#
#
# Indices 1 2 3 4 5 6 
#
# 1 0.015969 -0.008749 -0.004296 0.000000 0.000000 0.000000
# 2 -0.008749 0.044561 -0.004347 0.000000 0.000000 0.000000
# 3 -0.004296 -0.004347 0.009717 0.000000 0.000000 0.000000
# 4 0.000000 0.000000 0.000000 0.049534 0.000000 0.000000
# 5 0.000000 0.000000 0.000000 0.000000 0.056129 0.000000
# 6 0.000000 0.000000 0.000000 0.000000 0.000000 0.192066
#
#
# Mechanical properties :
#
#
# Convention : Reuss Voigt Hill
#
# Bulk Modulus (GPa) = 28.19901 48.64551 38.42226
# Shear Modulus (GPa) = 12.06044 19.17563 15.61803
#
# Velocity S-wave (km/s) = 2.55922 3.22702 2.91232
# Velocity P-wave (km/s) = 4.90375 6.34843 5.67227
#
# Compressibility (1/GPa) = 0.03546224
#
# Stress axis : x y z
#
# Youngs Moduli (GPa) = 62.62328 22.44108 102.91672
#
# Poissons Ratio (x) = 0.19633 0.44217
# Poissons Ratio (y) = 0.54787 0.44737
# Poissons Ratio (z) = 0.26905 0.09755
#
# Static dielectric constant tensor:
#      x y z
#    x 1.653680 0.000000 0.000000 
#    y 0.000000 1.693410 0.000000 
#    z 0.000000 0.000000 1.658980 
# 
# From -- ./inp_files/56121.got.cif
#   From: 2010.05.17/outbox.cif.g08.bks.cpg/sg65_29_cif.got.tgz:56121.got - 2010.06.03 17:01:31.
