data_PCOD9485803
_publ_section_title
;
Structure prediction by ZEFSAII (Michael W. Deem and Ramdas Pophale) SiO2 
 PCOD9485803
Probable space group: C M M M
;
_chemical_formula_sum "Si O2"
_cell_formula_units_Z 80
_cell_length_a 8.521871
_cell_length_b 18.650334
_cell_length_c 27.529655
_cell_angle_alpha 90.000000
_cell_angle_beta 90.000000
_cell_angle_gamma 90.000000
_cell_volume 4375.446102
_symmetry_space_group_name_H-M "C M M M"
_symmetry_group_IT_number 65
_symmetry_cell_setting 'orthorhombic'
loop_
_space_group_symop_operation_xyz
x,y,z
-x,-y,z
x,-y,-z
-x,y,-z
-x,-y,-z
x,y,-z
-x,y,z
x,-y,z
1/2+x,1/2+y,z
1/2-x,1/2-y,z
1/2+x,1/2-y,-z
1/2-x,1/2+y,-z
1/2-x,1/2-y,-z
1/2+x,1/2+y,-z
1/2-x,1/2+y,z
1/2+x,1/2-y,z
loop_
_atom_site_type_symbol
_atom_site_label
_atom_site_fract_x
_atom_site_fract_y
_atom_site_fract_z
Si Si1 0.689679 0.417709 0.749398
Si Si2 0.811496 0.668449 0.158400
Si Si3 0.311933 0.168011 0.552801
Si Si4 0.310441 0.168082 0.947836
Si Si5 0.187963 0.168625 0.654172
O O1 0.500000 0.416569 0.749626
O O2 0.742085 0.500000 0.748773
O O3 0.748370 0.377749 0.797293
O O4 0.741482 0.376408 0.700740
O O5 0.750000 0.750000 0.162616
O O6 0.761742 0.638910 0.104946
O O7 0.000000 0.669962 0.160156
O O8 0.267276 0.136214 0.500000
O O9 0.500000 0.169305 0.555708
O O10 0.250000 0.250000 0.552235
O O11 0.245200 0.136711 0.602692
O O12 0.500000 0.168680 0.947898
O O13 0.250000 0.250000 0.948001
O O14 0.259447 0.135696 0.000000
O O15 0.250000 0.250000 0.658409
O O16 0.000000 0.171086 0.653464
#
# Coordination Sequence:
#
# PCOD9485803 Si02
#       5
#    16  16  16  16  16
#     4  10  22  38  52  68  95 130 166 207 252 292
#     4  10  19  31  51  77 101 128 163 200 241 290
#     4   9  16  26  43  69  99 126 152 187 232 279
#     4   8  14  25  42  67  98 126 153 190 235 282
#     4  10  19  31  50  73  96 124 158 196 238 285
#
# _framework density 18.283850000000001
#
# number of rings (size 3 to 8) (size 9 to 14) (size 15 to 20)
#    0.000    2.600    0.000    3.600    0.000    5.600 
#    0.000    0.000    0.000    1.200    0.000    8.400 
#    0.000    0.000    0.000    0.000    0.000    0.000 
#
# Total GULP energy -222775.218504 kJ/mol
# GULP energy per Si atom -5569.380463 kJ/mol
# Density = 1.824224 g / cm^3
# Si number density = 18.283850 Si / 1000 Ang^3
#
#
#
# Elastic Constant Matrix: (Units=GPa)
#
#
# Indices 1 2 3 4 5 6 
#
# 1 26.3496 13.8841 34.5953 0.0000 0.0000 0.0000
# 2 13.8841 54.9249 70.3751 0.0000 0.0000 0.0000
# 3 34.5953 70.3751 248.9527 0.0000 0.0000 0.0000
# 4 0.0000 0.0000 0.0000 -4.1765 0.0000 0.0000
# 5 0.0000 0.0000 0.0000 0.0000 826.9574 0.0000
# 6 0.0000 0.0000 0.0000 0.0000 0.0000 13.0933
#
#
#
# Elastic Compliance Matrix: (Units=1/GPa)
#
#
# Indices 1 2 3 4 5 6 
#
# 1 0.047481 -0.005563 -0.005025 0.000000 0.000000 0.000000
# 2 -0.005563 0.029198 -0.007481 0.000000 0.000000 0.000000
# 3 -0.005025 -0.007481 0.006830 0.000000 0.000000 0.000000
# 4 0.000000 0.000000 0.000000 -0.239433 0.000000 0.000000
# 5 0.000000 0.000000 0.000000 0.000000 0.001209 0.000000
# 6 0.000000 0.000000 0.000000 0.000000 0.000000 0.076375
#
#
# Mechanical properties :
#
#
# Convention : Reuss Voigt Hill
#
# Bulk Modulus (GPa) = 21.11052 63.10403 42.10728
# Shear Modulus (GPa) = -189.31236 181.26635 -4.02300
#
# Velocity S-wave (km/s) = -10.18654 9.96772 -1.48495
# Velocity P-wave (km/s) = 11.25979 12.92526 4.48772
#
# Compressibility (1/GPa) = 0.04736975
#
# Stress axis : x y z
#
# Youngs Moduli (GPa) = 21.06114 34.24883 146.41564
#
# Poissons Ratio (x) = 0.19054 0.73580
# Poissons Ratio (y) = 0.11717 1.09530
# Poissons Ratio (z) = 0.10584 0.25621
#
# Static dielectric constant tensor:
#      x y z
#    x 1.624680 0.000000 0.000000 
#    y 0.000000 1.585210 0.000000 
#    z 0.000000 0.000000 1.704720 
# 
# From -- ./inp_files/72709.got.cif
#   From: 2010.05.17/outbox.cif.g08.bks.cpg/sg65_37_cif.got.tgz:72709.got - 2010.06.03 17:01:31.
