data_PCOD9485288
_publ_section_title
;
Structure prediction by ZEFSAII (Michael W. Deem and Ramdas Pophale) SiO2 
 PCOD9485288
Probable space group: C M M M
;
_chemical_formula_sum "Si O2"
_cell_formula_units_Z 80
_cell_length_a 18.455080
_cell_length_b 19.660083
_cell_length_c 12.859007
_cell_angle_alpha 90.000000
_cell_angle_beta 90.000000
_cell_angle_gamma 90.000000
_cell_volume 4665.612994
_symmetry_space_group_name_H-M "C M M M"
_symmetry_group_IT_number 65
_symmetry_cell_setting 'orthorhombic'
loop_
_space_group_symop_operation_xyz
x,y,z
-x,-y,z
x,-y,-z
-x,y,-z
-x,-y,-z
x,y,-z
-x,y,z
x,-y,z
1/2+x,1/2+y,z
1/2-x,1/2-y,z
1/2+x,1/2-y,-z
1/2-x,1/2+y,-z
1/2-x,1/2-y,-z
1/2+x,1/2+y,-z
1/2-x,1/2+y,z
1/2+x,1/2-y,z
loop_
_atom_site_type_symbol
_atom_site_label
_atom_site_fract_x
_atom_site_fract_y
_atom_site_fract_z
Si Si1 0.916990 0.309607 0.782552
Si Si2 0.154114 0.679766 0.000000
Si Si3 0.680677 0.656405 0.000000
Si Si4 0.656345 0.580564 0.618694
Si Si5 0.290623 0.179411 0.622323
Si Si6 0.581601 0.353894 0.809377
O O1 0.889557 0.335289 0.894893
O O2 0.860239 0.330330 0.694095
O O3 0.914873 0.227116 0.788399
O O4 0.000000 0.329807 0.762900
O O5 0.233402 0.646067 0.000000
O O6 0.167568 0.761667 0.000000
O O7 0.640434 0.629559 0.102447
O O8 0.633255 0.596325 0.500000
O O9 0.665656 0.500000 0.627823
O O10 0.731845 0.620022 0.636016
O O11 0.600601 0.607756 0.703595
O O12 0.309672 0.184205 0.500000
O O13 0.250000 0.250000 0.651669
O O14 0.500000 0.369260 0.845278
#
# Coordination Sequence:
#
# PCOD9485288 Si02
#       6
#    16   8   8  16  16  16
#     4  10  19  30  49  78 109 134 164 209 262 310
#     4   9  17  27  47  73 105 137 167 208 254 303
#     4   9  17  29  48  72  98 138 176 208 247 297
#     4  10  21  36  53  73  99 136 178 214 252 303
#     4  10  19  33  53  75 101 132 170 216 260 301
#     4  10  19  31  48  73 106 138 170 209 252 301
#
# _framework density 17.146730000000002
#
# number of rings (size 3 to 8) (size 9 to 14) (size 15 to 20)
#    0.000    2.200    2.000    1.800    2.800    3.600 
#    0.000    3.500    0.000    1.800    0.000    2.800 
#    0.000    3.200    0.000    0.000    0.000    0.000 
#
# Total GULP energy -223134.538782 kJ/mol
# GULP energy per Si atom -5578.363470 kJ/mol
# Density = 1.710770 g / cm^3
# Si number density = 17.146730 Si / 1000 Ang^3
#
#
#
# Elastic Constant Matrix: (Units=GPa)
#
#
# Indices 1 2 3 4 5 6 
#
# 1 94.0682 17.3129 50.9349 0.0000 0.0000 0.0000
# 2 17.3129 29.2240 21.0702 0.0000 0.0000 0.0000
# 3 50.9349 21.0702 82.8036 0.0000 0.0000 0.0000
# 4 0.0000 0.0000 0.0000 12.1982 0.0000 0.0000
# 5 0.0000 0.0000 0.0000 0.0000 10.3454 0.0000
# 6 0.0000 0.0000 0.0000 0.0000 0.0000 10.3605
#
#
#
# Elastic Compliance Matrix: (Units=1/GPa)
#
#
# Indices 1 2 3 4 5 6 
#
# 1 0.016144 -0.002944 -0.009181 0.000000 0.000000 0.000000
# 2 -0.002944 0.042444 -0.008989 0.000000 0.000000 0.000000
# 3 -0.009181 -0.008989 0.020012 0.000000 0.000000 0.000000
# 4 0.000000 0.000000 0.000000 0.081979 0.000000 0.000000
# 5 0.000000 0.000000 0.000000 0.000000 0.096661 0.000000
# 6 0.000000 0.000000 0.000000 0.000000 0.000000 0.096521
#
#
# Mechanical properties :
#
#
# Convention : Reuss Voigt Hill
#
# Bulk Modulus (GPa) = 27.49524 42.74800 35.12162
# Shear Modulus (GPa) = 12.25150 14.36601 13.30876
#
# Velocity S-wave (km/s) = 2.67593 2.89767 2.78900
# Velocity P-wave (km/s) = 5.06138 6.01499 5.55867
#
# Compressibility (1/GPa) = 0.03636993
#
# Stress axis : x y z
#
# Youngs Moduli (GPa) = 61.94291 23.56060 49.97031
#
# Poissons Ratio (x) = 0.06937 0.45880
# Poissons Ratio (y) = 0.18238 0.44919
# Poissons Ratio (z) = 0.56872 0.21179
#
# Static dielectric constant tensor:
#      x y z
#    x 1.567390 0.000000 0.000000 
#    y 0.000000 1.563020 0.000000 
#    z 0.000000 0.000000 1.588790 
# 
# From -- ./inp_files/26655.got.cif
#   From: 2010.05.17/outbox.cif.g08.bks.cpg/sg65_14_cif.got.tgz:26655.got - 2010.06.03 17:01:31.
