data_PCOD9485208
_publ_section_title
;
Structure prediction by ZEFSAII (Michael W. Deem and Ramdas Pophale) SiO2 
 PCOD9485208
Probable space group: C M M M
;
_chemical_formula_sum "Si O2"
_cell_formula_units_Z 80
_cell_length_a 7.610043
_cell_length_b 30.239547
_cell_length_c 17.345263
_cell_angle_alpha 90.000000
_cell_angle_beta 90.000000
_cell_angle_gamma 90.000000
_cell_volume 3991.565690
_symmetry_space_group_name_H-M "C M M M"
_symmetry_group_IT_number 65
_symmetry_cell_setting 'orthorhombic'
loop_
_space_group_symop_operation_xyz
x,y,z
-x,-y,z
x,-y,-z
-x,y,-z
-x,-y,-z
x,y,-z
-x,y,z
x,-y,z
1/2+x,1/2+y,z
1/2-x,1/2-y,z
1/2+x,1/2-y,-z
1/2-x,1/2+y,-z
1/2-x,1/2-y,-z
1/2+x,1/2+y,-z
1/2-x,1/2+y,z
1/2+x,1/2-y,z
loop_
_atom_site_type_symbol
_atom_site_label
_atom_site_fract_x
_atom_site_fract_y
_atom_site_fract_z
Si Si1 0.285624 0.449300 0.086158
Si Si2 0.790268 0.624985 0.618318
Si Si3 0.714915 0.050951 0.500000
Si Si4 0.710919 0.698796 0.913825
Si Si5 0.711548 0.624945 0.201815
Si Si6 0.289093 0.802030 0.500000
O O1 0.500000 0.449096 0.086752
O O2 0.229907 0.500000 0.095909
O O3 0.224791 0.417670 0.154195
O O4 0.233716 0.434150 0.000000
O O5 0.728598 0.580817 0.573385
O O6 0.754316 0.625058 0.708536
O O7 0.725534 0.669048 0.573606
O O8 0.000000 0.624922 0.608942
O O9 0.500000 0.049342 0.500000
O O10 0.775123 0.000000 0.500000
O O11 0.500000 0.693833 0.916481
O O12 0.750000 0.750000 0.899386
O O13 0.777051 0.667291 0.846226
O O14 0.777350 0.687503 0.000000
O O15 0.500000 0.624856 0.197294
O O16 0.500000 0.804112 0.500000
O O17 0.250000 0.750000 0.500000
#
# Coordination Sequence:
#
# PCOD9485208 Si02
#       6
#    16  16   8  16  16   8
#     4   8  14  26  45  68  94 126 162 195 228 270
#     4   9  19  34  50  72  98 121 152 192 231 277
#     4   8  15  32  56  73  89 122 161 189 221 275
#     4   9  18  32  48  66  91 125 163 198 231 271
#     4  10  19  30  47  72  99 124 153 193 236 275
#     4   9  19  36  55  71  91 122 156 190 230 278
#
# _framework density 20.042261
#
# number of rings (size 3 to 8) (size 9 to 14) (size 15 to 20)
#    0.000    3.100    0.000    2.400    0.000    5.600 
#    0.000    5.500    0.000    2.400    0.000    1.400 
#    0.000    0.000    0.000    0.000    0.000    0.000 
#
# Total GULP energy -223014.850578 kJ/mol
# GULP energy per Si atom -5575.371264 kJ/mol
# Density = 1.999664 g / cm^3
# Si number density = 20.042261 Si / 1000 Ang^3
#
#
#
# Elastic Constant Matrix: (Units=GPa)
#
#
# Indices 1 2 3 4 5 6 
#
# 1 38.7826 7.3240 4.0712 0.0000 0.0000 0.0000
# 2 7.3240 182.6941 138.2685 0.0000 0.0000 0.0000
# 3 4.0712 138.2685 224.6697 0.0000 0.0000 0.0000
# 4 0.0000 0.0000 0.0000 21.1551 0.0000 0.0000
# 5 0.0000 0.0000 0.0000 0.0000 31.7221 0.0000
# 6 0.0000 0.0000 0.0000 0.0000 0.0000 10.0192
#
#
#
# Elastic Compliance Matrix: (Units=1/GPa)
#
#
# Indices 1 2 3 4 5 6 
#
# 1 0.025994 -0.001283 0.000319 0.000000 0.000000 0.000000
# 2 -0.001283 0.010309 -0.006321 0.000000 0.000000 0.000000
# 3 0.000319 -0.006321 0.008336 0.000000 0.000000 0.000000
# 4 0.000000 0.000000 0.000000 0.047270 0.000000 0.000000
# 5 0.000000 0.000000 0.000000 0.000000 0.031524 0.000000
# 6 0.000000 0.000000 0.000000 0.000000 0.000000 0.099808
#
#
# Mechanical properties :
#
#
# Convention : Reuss Voigt Hill
#
# Bulk Modulus (GPa) = 33.25943 82.83040 58.04492
# Shear Modulus (GPa) = 20.17473 32.34479 26.25976
#
# Velocity S-wave (km/s) = 3.17615 4.02161 3.62362
# Velocity P-wave (km/s) = 5.48464 7.93612 6.82141
#
# Compressibility (1/GPa) = 0.03006666
#
# Stress axis : x y z
#
# Youngs Moduli (GPa) = 38.47093 96.99973 119.96758
#
# Poissons Ratio (x) = 0.12448 -0.03824
# Poissons Ratio (y) = 0.04937 0.75836
# Poissons Ratio (z) = -0.01226 0.61317
#
# Static dielectric constant tensor:
#      x y z
#    x 1.769060 0.000000 0.000000 
#    y 0.000000 1.702770 0.000000 
#    z 0.000000 0.000000 1.693140 
# 
# From -- ./inp_files/50227.got.cif
#   From: 2010.05.17/outbox.cif.g08.bks.cpg/sg65_26_cif.got.tgz:50227.got - 2010.06.03 17:01:31.
