data_PCOD9486984
_publ_section_title
;
Structure prediction by ZEFSAII (Michael W. Deem and Ramdas Pophale) SiO2 
 PCOD9486984
Probable space group: C M M M
;
_chemical_formula_sum "Si O2"
_cell_formula_units_Z 96
_cell_length_a 19.606276
_cell_length_b 19.678759
_cell_length_c 14.922090
_cell_angle_alpha 90.000000
_cell_angle_beta 90.000000
_cell_angle_gamma 90.000000
_cell_volume 5757.347909
_symmetry_space_group_name_H-M "C M M M"
_symmetry_group_IT_number 65
_symmetry_cell_setting 'orthorhombic'
loop_
_space_group_symop_operation_xyz
x,y,z
-x,-y,z
x,-y,-z
-x,y,-z
-x,-y,-z
x,y,-z
-x,y,z
x,-y,z
1/2+x,1/2+y,z
1/2-x,1/2-y,z
1/2+x,1/2-y,-z
1/2-x,1/2+y,-z
1/2-x,1/2-y,-z
1/2+x,1/2+y,-z
1/2-x,1/2+y,z
1/2+x,1/2-y,z
loop_
_atom_site_type_symbol
_atom_site_label
_atom_site_fract_x
_atom_site_fract_y
_atom_site_fract_z
Si Si1 0.203476 0.079472 0.748237
Si Si2 0.680341 0.922565 0.894075
Si Si3 0.921181 0.825082 0.765328
Si Si4 0.423629 0.776937 0.394863
Si Si5 0.722132 0.173501 0.605655
Si Si6 0.920022 0.700379 0.893838
O O1 0.252978 0.086937 0.833920
O O2 0.130921 0.113429 0.768115
O O3 0.238803 0.120839 0.667727
O O4 0.197436 0.000000 0.727165
O O5 0.625317 0.864963 0.871064
O O6 0.655077 0.000000 0.879009
O O7 0.695621 0.916292 0.000000
O O8 0.917742 0.788427 0.668491
O O9 0.900940 0.766092 0.835780
O O10 0.000000 0.843801 0.782494
O O11 0.418181 0.758756 0.500000
O O12 0.500000 0.805752 0.379653
O O13 0.359115 0.824666 0.375125
O O14 0.732185 0.159720 0.500000
O O15 0.750000 0.250000 0.622886
O O16 0.000000 0.686701 0.876233
O O17 0.912357 0.713898 0.000000
#
# Coordination Sequence:
#
# PCOD9486984 Si02
#       6
#    16  16  16  16  16  16
#     4  11  23  36  52  75 104 138 174 217 264 309
#     4   9  19  34  51  75 107 140 172 209 258 312
#     4  10  20  34  52  73 100 134 172 217 260 305
#     4   9  17  30  51  78 104 131 167 208 251 302
#     4  10  19  33  55  80 104 135 173 212 257 310
#     4   9  18  32  52  79 106 133 171 215 256 304
#
# _framework density 16.674343
#
# number of rings (size 3 to 8) (size 9 to 14) (size 15 to 20)
#    0.000    2.333    1.667    1.000    0.000    1.667 
#    0.000    3.333    0.000    1.500    0.000   10.500 
#    0.000    0.000    0.000    0.000    0.000    0.000 
#
# Total GULP energy -267627.765577 kJ/mol
# GULP energy per Si atom -5575.578450 kJ/mol
# Density = 1.663639 g / cm^3
# Si number density = 16.674343 Si / 1000 Ang^3
#
#
#
# Elastic Constant Matrix: (Units=GPa)
#
#
# Indices 1 2 3 4 5 6 
#
# 1 107.2600 83.1037 43.3322 0.0000 0.0000 0.0000
# 2 83.1037 125.5460 58.5744 0.0000 0.0000 0.0000
# 3 43.3322 58.5744 55.8833 0.0000 0.0000 0.0000
# 4 0.0000 0.0000 0.0000 18.2605 0.0000 0.0000
# 5 0.0000 0.0000 0.0000 0.0000 22.1427 0.0000
# 6 0.0000 0.0000 0.0000 0.0000 0.0000 26.4564
#
#
#
# Elastic Compliance Matrix: (Units=1/GPa)
#
#
# Indices 1 2 3 4 5 6 
#
# 1 0.019409 -0.011402 -0.003099 0.000000 0.000000 0.000000
# 2 -0.011402 0.022286 -0.014518 0.000000 0.000000 0.000000
# 3 -0.003099 -0.014518 0.035515 0.000000 0.000000 0.000000
# 4 0.000000 0.000000 0.000000 0.054763 0.000000 0.000000
# 5 0.000000 0.000000 0.000000 0.000000 0.045162 0.000000
# 6 0.000000 0.000000 0.000000 0.000000 0.000000 0.037798
#
#
# Mechanical properties :
#
#
# Convention : Reuss Voigt Hill
#
# Bulk Modulus (GPa) = 52.16000 73.19001 62.67500
# Shear Modulus (GPa) = 17.89794 20.28383 19.09089
#
# Velocity S-wave (km/s) = 3.27981 3.49158 3.38735
# Velocity P-wave (km/s) = 6.75961 7.76169 7.27792
#
# Compressibility (1/GPa) = 0.01917178
#
# Stress axis : x y z
#
# Youngs Moduli (GPa) = 51.52237 44.87119 28.15711
#
# Poissons Ratio (x) = 0.51161 0.08726
# Poissons Ratio (y) = 0.58744 0.40879
# Poissons Ratio (z) = 0.15968 0.65145
#
# Static dielectric constant tensor:
#      x y z
#    x 1.578350 0.000000 0.000000 
#    y 0.000000 1.523290 0.000000 
#    z 0.000000 0.000000 1.569890 
# 
# From -- ./inp_files/40351.got.cif
#   From: 2010.05.17/outbox.cif.g08.bks.cpg/sg65_21_cif.got.tgz:40351.got - 2010.06.03 17:01:31.
