data_PCOD9486860
_publ_section_title
;
Structure prediction by ZEFSAII (Michael W. Deem and Ramdas Pophale) SiO2 
 PCOD9486860
Probable space group: C M M M
;
_chemical_formula_sum "Si O2"
_cell_formula_units_Z 88
_cell_length_a 19.872903
_cell_length_b 13.056491
_cell_length_c 18.520684
_cell_angle_alpha 90.000000
_cell_angle_beta 90.000000
_cell_angle_gamma 90.000000
_cell_volume 4805.568900
_symmetry_space_group_name_H-M "C M M M"
_symmetry_group_IT_number 65
_symmetry_cell_setting 'orthorhombic'
loop_
_space_group_symop_operation_xyz
x,y,z
-x,-y,z
x,-y,-z
-x,y,-z
-x,-y,-z
x,y,-z
-x,y,z
x,-y,z
1/2+x,1/2+y,z
1/2-x,1/2-y,z
1/2+x,1/2-y,-z
1/2-x,1/2+y,-z
1/2-x,1/2-y,-z
1/2+x,1/2+y,-z
1/2-x,1/2+y,z
1/2+x,1/2-y,z
loop_
_atom_site_type_symbol
_atom_site_label
_atom_site_fract_x
_atom_site_fract_y
_atom_site_fract_z
Si Si1 0.418984 0.380829 0.918009
Si Si2 0.418711 0.000000 0.582592
Si Si3 0.637551 0.717520 0.221213
Si Si4 0.237994 0.613317 0.273524
Si Si5 0.806332 0.120622 0.580869
Si Si6 0.922504 0.271234 0.631923
O O1 0.500000 0.376706 0.915993
O O2 0.400298 0.500000 0.903828
O O3 0.390862 0.306147 0.856969
O O4 0.397545 0.355698 0.000000
O O5 0.402422 0.890857 0.619979
O O6 0.500000 0.000000 0.579410
O O7 0.392580 0.000000 0.500000
O O8 0.686495 0.623777 0.242660
O O9 0.688628 0.812112 0.231309
O O10 0.583535 0.739026 0.283866
O O11 0.211901 0.500000 0.267642
O O12 0.250693 0.639483 0.357581
O O13 0.779984 0.134056 0.500000
O O14 0.869814 0.195333 0.593182
O O15 0.825895 0.000000 0.588944
O O16 0.000000 0.259388 0.607353
#
# Coordination Sequence:
#
# PCOD9486860 Si02
#       6
#    16   8  16  16  16  16
#     4   9  18  34  59  90 118 142 170 208 260 322
#     4   9  18  32  46  64  99 141 181 225 265 314
#     4  10  19  33  54  77 105 141 176 221 264 316
#     4   9  19  34  51  74 106 141 182 225 270 317
#     4   9  18  34  54  74 101 137 180 233 286 333
#     4  10  20  32  49  76 105 138 180 226 280 336
#
# _framework density 18.312086999999998
#
# number of rings (size 3 to 8) (size 9 to 14) (size 15 to 20)
#    0.000    2.636    0.000    2.182    1.273    2.182 
#    0.000   10.909    0.000    1.636    0.000    1.273 
#    0.000    0.000    0.000    0.000    0.000    0.000 
#
# Total GULP energy -245257.745962 kJ/mol
# GULP energy per Si atom -5574.039681 kJ/mol
# Density = 1.827041 g / cm^3
# Si number density = 18.312087 Si / 1000 Ang^3
#
#
#
# Elastic Constant Matrix: (Units=GPa)
#
#
# Indices 1 2 3 4 5 6 
#
# 1 64.5118 34.3074 29.6553 0.0000 0.0000 0.0000
# 2 34.3074 139.2115 59.0556 0.0000 0.0000 0.0000
# 3 29.6553 59.0556 152.9648 0.0000 0.0000 0.0000
# 4 0.0000 0.0000 0.0000 28.1367 0.0000 0.0000
# 5 0.0000 0.0000 0.0000 0.0000 16.6269 0.0000
# 6 0.0000 0.0000 0.0000 0.0000 0.0000 28.3040
#
#
#
# Elastic Compliance Matrix: (Units=1/GPa)
#
#
# Indices 1 2 3 4 5 6 
#
# 1 0.018425 -0.003618 -0.002175 0.000000 0.000000 0.000000
# 2 -0.003618 0.009301 -0.002889 0.000000 0.000000 0.000000
# 3 -0.002175 -0.002889 0.008075 0.000000 0.000000 0.000000
# 4 0.000000 0.000000 0.000000 0.035541 0.000000 0.000000
# 5 0.000000 0.000000 0.000000 0.000000 0.060144 0.000000
# 6 0.000000 0.000000 0.000000 0.000000 0.000000 0.035331
#
#
# Mechanical properties :
#
#
# Convention : Reuss Voigt Hill
#
# Bulk Modulus (GPa) = 54.24381 66.96943 60.60662
# Shear Modulus (GPa) = 26.27080 30.19150 28.23115
#
# Velocity S-wave (km/s) = 3.79174 4.06485 3.93067
# Velocity P-wave (km/s) = 6.98970 7.66037 7.33270
#
# Compressibility (1/GPa) = 0.01843528
#
# Stress axis : x y z
#
# Youngs Moduli (GPa) = 54.27409 107.51999 123.84422
#
# Poissons Ratio (x) = 0.38899 0.26940
# Poissons Ratio (y) = 0.19636 0.35782
# Poissons Ratio (z) = 0.11806 0.31066
#
# Static dielectric constant tensor:
#      x y z
#    x 1.653430 0.000000 0.000000 
#    y 0.000000 1.666400 0.000000 
#    z 0.000000 0.000000 1.635860 
# 
# From -- ./inp_files/54307.got.cif
#   From: 2010.05.17/outbox.cif.g08.bks.cpg/sg65_28_cif.got.tgz:54307.got - 2010.06.03 17:01:31.
