data_PCOD9486567
_publ_section_title
;
Structure prediction by ZEFSAII (Michael W. Deem and Ramdas Pophale) SiO2 
 PCOD9486567
Probable space group: C M M M
;
_chemical_formula_sum "Si O2"
_cell_formula_units_Z 112
_cell_length_a 15.174428
_cell_length_b 15.684264
_cell_length_c 25.270262
_cell_angle_alpha 90.000000
_cell_angle_beta 90.000000
_cell_angle_gamma 90.000000
_cell_volume 6014.315654
_symmetry_space_group_name_H-M "C M M M"
_symmetry_group_IT_number 65
_symmetry_cell_setting 'orthorhombic'
loop_
_space_group_symop_operation_xyz
x,y,z
-x,-y,z
x,-y,-z
-x,y,-z
-x,-y,-z
x,y,-z
-x,y,z
x,-y,z
1/2+x,1/2+y,z
1/2-x,1/2-y,z
1/2+x,1/2-y,-z
1/2-x,1/2+y,-z
1/2-x,1/2-y,-z
1/2+x,1/2+y,-z
1/2-x,1/2+y,z
1/2+x,1/2-y,z
loop_
_atom_site_type_symbol
_atom_site_label
_atom_site_fract_x
_atom_site_fract_y
_atom_site_fract_z
Si Si1 0.161033 0.097133 0.439682
Si Si2 0.900593 0.905662 0.802567
Si Si3 0.127026 0.405576 0.560578
Si Si4 0.603506 0.780024 0.750706
Si Si5 0.399978 0.102199 0.941277
Si Si6 0.721596 0.845759 0.844655
Si Si7 0.599297 0.252211 0.635443
O O1 0.131382 0.119439 0.500000
O O2 0.266836 0.095103 0.440631
O O3 0.137087 0.167992 0.396745
O O4 0.130280 0.000000 0.428295
O O5 0.894059 0.819839 0.767798
O O6 0.812009 0.898312 0.837467
O O7 0.000000 0.900852 0.827304
O O8 0.897264 0.000000 0.776452
O O9 0.098198 0.394427 0.500000
O O10 0.100014 0.500000 0.578933
O O11 0.098360 0.328383 0.596722
O O12 0.500000 0.807431 0.753220
O O13 0.663240 0.835470 0.790801
O O14 0.639609 0.779275 0.690841
O O15 0.500000 0.133955 0.932241
O O16 0.338168 0.124128 0.892684
O O17 0.404096 0.000000 0.943566
O O18 0.371137 0.132075 0.000000
O O19 0.750000 0.750000 0.857117
O O20 0.500000 0.277228 0.649998
#
# Coordination Sequence:
#
# PCOD9486567 Si02
#       7
#    16  16  16  16  16  16  16
#     4   9  19  35  53  74 100 132 173 217 258 305
#     4   9  18  33  52  74 102 136 174 214 254 304
#     4   9  19  36  55  72  93 128 172 212 252 303
#     4   9  20  36  50  71 104 137 172 215 261 312
#     4   9  18  33  54  80 108 138 175 219 261 301
#     4  10  19  32  54  78 103 138 176 212 257 309
#     4  11  22  34  51  76 105 133 162 206 264 317
#
# _framework density 18.622236000000001
#
# number of rings (size 3 to 8) (size 9 to 14) (size 15 to 20)
#    0.000    2.571    0.000    3.000    0.000    7.714 
#    0.000    5.714    0.000    2.143    0.000    2.000 
#    0.000    0.000    0.000    0.000    0.000    0.143 
#
# Total GULP energy -311787.906471 kJ/mol
# GULP energy per Si atom -5567.641187 kJ/mol
# Density = 1.857985 g / cm^3
# Si number density = 18.622236 Si / 1000 Ang^3
#
#
#
# Elastic Constant Matrix: (Units=GPa)
#
#
# Indices 1 2 3 4 5 6 
#
# 1 90.6722 31.8149 57.6989 0.0000 0.0000 0.0000
# 2 31.8149 63.8210 43.9092 0.0000 0.0000 0.0000
# 3 57.6989 43.9092 127.7998 0.0000 0.0000 0.0000
# 4 0.0000 0.0000 0.0000 -4.4809 0.0000 0.0000
# 5 0.0000 0.0000 0.0000 0.0000 23.7284 0.0000
# 6 0.0000 0.0000 0.0000 0.0000 0.0000 34.1129
#
#
#
# Elastic Compliance Matrix: (Units=1/GPa)
#
#
# Indices 1 2 3 4 5 6 
#
# 1 0.016215 -0.003990 -0.005950 0.000000 0.000000 0.000000
# 2 -0.003990 0.021501 -0.005586 0.000000 0.000000 0.000000
# 3 -0.005950 -0.005586 0.012430 0.000000 0.000000 0.000000
# 4 0.000000 0.000000 0.000000 -0.223169 0.000000 0.000000
# 5 0.000000 0.000000 0.000000 0.000000 0.042144 0.000000
# 6 0.000000 0.000000 0.000000 0.000000 0.000000 0.029314
#
#
# Mechanical properties :
#
#
# Convention : Reuss Voigt Hill
#
# Bulk Modulus (GPa) = 52.36999 61.01544 56.69272
# Shear Modulus (GPa) = -77.94324 20.59674 -28.67325
#
# Velocity S-wave (km/s) = -6.47656 3.32931 -3.92820
# Velocity P-wave (km/s) = 5.26729 6.90036 3.15204
#
# Compressibility (1/GPa) = 0.01909491
#
# Stress axis : x y z
#
# Youngs Moduli (GPa) = 61.67207 46.50984 80.44898
#
# Poissons Ratio (x) = 0.18555 0.47867
# Poissons Ratio (y) = 0.24604 0.44939
# Poissons Ratio (z) = 0.36694 0.25980
#
# Static dielectric constant tensor:
#      x y z
#    x 1.705600 0.000000 0.000000 
#    y 0.000000 1.632700 0.000000 
#    z 0.000000 0.000000 1.652490 
# 
# From -- ./inp_files/70066.got.cif
#   From: 2010.05.17/outbox.cif.g08.bks.cpg/sg65_36_cif.got.tgz:70066.got - 2010.06.03 17:01:31.
