data_PCOD9486245
_publ_section_title
;
Structure prediction by ZEFSAII (Michael W. Deem and Ramdas Pophale) SiO2 
 PCOD9486245
Probable space group: C M M M
;
_chemical_formula_sum "Si O2"
_cell_formula_units_Z 80
_cell_length_a 9.230165
_cell_length_b 18.433370
_cell_length_c 28.244087
_cell_angle_alpha 90.000000
_cell_angle_beta 90.000000
_cell_angle_gamma 90.000000
_cell_volume 4805.535011
_symmetry_space_group_name_H-M "C M M M"
_symmetry_group_IT_number 65
_symmetry_cell_setting 'orthorhombic'
loop_
_space_group_symop_operation_xyz
x,y,z
-x,-y,z
x,-y,-z
-x,y,-z
-x,-y,-z
x,y,-z
-x,y,z
x,-y,z
1/2+x,1/2+y,z
1/2-x,1/2-y,z
1/2+x,1/2-y,-z
1/2-x,1/2+y,-z
1/2-x,1/2-y,-z
1/2+x,1/2+y,-z
1/2-x,1/2+y,z
1/2+x,1/2-y,z
loop_
_atom_site_type_symbol
_atom_site_label
_atom_site_fract_x
_atom_site_fract_y
_atom_site_fract_z
Si Si1 0.672880 0.672151 0.500000
Si Si2 0.826026 0.585329 0.206266
Si Si3 0.673348 0.328470 0.603542
Si Si4 0.000000 0.086008 0.056032
Si Si5 0.163939 0.177377 0.872969
Si Si6 0.831232 0.587124 0.314372
O O1 0.500000 0.683308 0.500000
O O2 0.750000 0.750000 0.500000
O O3 0.708158 0.638382 0.448789
O O4 0.789541 0.500000 0.200037
O O5 0.744970 0.633904 0.168158
O O6 0.789650 0.606545 0.260398
O O7 0.000000 0.591789 0.201281
O O8 0.500000 0.320369 0.607138
O O9 0.750000 0.250000 0.605854
O O10 0.734084 0.376204 0.646040
O O11 0.135454 0.124734 0.082141
O O12 0.000000 0.000000 0.065152
O O13 0.000000 0.098084 0.000000
O O14 0.250000 0.250000 0.885079
O O15 0.000000 0.196684 0.857078
O O16 0.822757 0.500000 0.317516
O O17 0.000000 0.607700 0.321347
#
# Coordination Sequence:
#
# PCOD9486245 Si02
#       6
#     8  16  16   8  16  16
#     4   8  16  30  47  68  93 123 163 209 259 316
#     4   9  18  34  56  77 104 142 181 222 268 322
#     4  10  19  32  51  73  97 128 167 213 264 315
#     4   9  20  38  60  84 113 151 191 228 271 325
#     4  10  21  34  55  83 114 145 183 225 273 319
#     4   9  19  35  52  73 102 137 173 213 262 314
#
# _framework density 16.647470999999999
#
# number of rings (size 3 to 8) (size 9 to 14) (size 15 to 20)
#    0.600    2.100    0.000    3.000    0.000    3.200 
#    0.000    2.500    0.000    3.000    0.000    4.200 
#    0.000    0.000    0.000    0.000    0.000    0.000 
#
# Total GULP energy -222677.146120 kJ/mol
# GULP energy per Si atom -5566.928653 kJ/mol
# Density = 1.660958 g / cm^3
# Si number density = 16.647471 Si / 1000 Ang^3
#
#
#
# Elastic Constant Matrix: (Units=GPa)
#
#
# Indices 1 2 3 4 5 6 
#
# 1 58.0677 43.1691 63.9000 0.0000 0.0000 0.0000
# 2 43.1691 72.6985 76.8379 0.0000 0.0000 0.0000
# 3 63.9000 76.8379 156.4163 0.0000 0.0000 0.0000
# 4 0.0000 0.0000 0.0000 29.2501 0.0000 0.0000
# 5 0.0000 0.0000 0.0000 0.0000 25.1849 0.0000
# 6 0.0000 0.0000 0.0000 0.0000 0.0000 28.1929
#
#
#
# Elastic Compliance Matrix: (Units=1/GPa)
#
#
# Indices 1 2 3 4 5 6 
#
# 1 0.035722 -0.012038 -0.008680 0.000000 0.000000 0.000000
# 2 -0.012038 0.032667 -0.011129 0.000000 0.000000 0.000000
# 3 -0.008680 -0.011129 0.015406 0.000000 0.000000 0.000000
# 4 0.000000 0.000000 0.000000 0.034188 0.000000 0.000000
# 5 0.000000 0.000000 0.000000 0.000000 0.039706 0.000000
# 6 0.000000 0.000000 0.000000 0.000000 0.000000 0.035470
#
#
# Mechanical properties :
#
#
# Convention : Reuss Voigt Hill
#
# Bulk Modulus (GPa) = 49.74938 72.77738 61.26338
# Shear Modulus (GPa) = 18.97136 23.41060 21.19098
#
# Velocity S-wave (km/s) = 3.37945 3.75408 3.57168
# Velocity P-wave (km/s) = 6.72135 7.91217 7.34095
#
# Compressibility (1/GPa) = 0.02010075
#
# Stress axis : x y z
#
# Youngs Moduli (GPa) = 27.99359 30.61201 64.90850
#
# Poissons Ratio (x) = 0.36852 0.56340
# Poissons Ratio (y) = 0.33699 0.72239
# Poissons Ratio (z) = 0.24298 0.34069
#
# Static dielectric constant tensor:
#      x y z
#    x 1.552140 0.000000 0.000000 
#    y 0.000000 1.544490 0.000000 
#    z 0.000000 0.000000 1.566570 
# 
# From -- ./inp_files/72998.got.cif
#   From: 2010.05.17/outbox.cif.g08.bks.cpg/sg65_37_cif.got.tgz:72998.got - 2010.06.03 17:01:31.
