data_PCOD9486722
_publ_section_title
;
Structure prediction by ZEFSAII (Michael W. Deem and Ramdas Pophale) SiO2 
 PCOD9486722
Probable space group: C M M M
;
_chemical_formula_sum "Si O2"
_cell_formula_units_Z 96
_cell_length_a 22.075272
_cell_length_b 18.186186
_cell_length_c 11.749626
_cell_angle_alpha 90.000000
_cell_angle_beta 90.000000
_cell_angle_gamma 90.000000
_cell_volume 4717.063633
_symmetry_space_group_name_H-M "C M M M"
_symmetry_group_IT_number 65
_symmetry_cell_setting 'orthorhombic'
loop_
_space_group_symop_operation_xyz
x,y,z
-x,-y,z
x,-y,-z
-x,y,-z
-x,-y,-z
x,y,-z
-x,y,z
x,-y,z
1/2+x,1/2+y,z
1/2-x,1/2-y,z
1/2+x,1/2-y,-z
1/2-x,1/2+y,-z
1/2-x,1/2-y,-z
1/2+x,1/2+y,-z
1/2-x,1/2+y,z
1/2+x,1/2-y,z
loop_
_atom_site_type_symbol
_atom_site_label
_atom_site_fract_x
_atom_site_fract_y
_atom_site_fract_z
Si Si1 0.386587 0.579271 0.500000
Si Si2 0.069734 0.500000 0.138258
Si Si3 0.259043 0.413839 0.269427
Si Si4 0.392825 0.257201 0.500000
Si Si5 0.404229 0.580536 0.752780
Si Si6 0.065455 0.759013 0.243601
Si Si7 0.149370 0.641563 0.135483
Si Si8 0.223162 0.668004 0.500000
O O1 0.350742 0.500000 0.500000
O O2 0.359637 0.661872 0.500000
O O3 0.421711 0.577253 0.618673
O O4 0.107272 0.572425 0.171942
O O5 0.000000 0.500000 0.178079
O O6 0.068355 0.500000 0.000000
O O7 0.243739 0.500000 0.271218
O O8 0.331088 0.409677 0.248484
O O9 0.217399 0.374481 0.176087
O O10 0.241822 0.376385 0.388277
O O11 0.428383 0.256900 0.619034
O O12 0.348160 0.187893 0.500000
O O13 0.418672 0.500000 0.802825
O O14 0.430730 0.656341 0.797191
O O15 0.120537 0.713012 0.192897
O O16 0.000000 0.727855 0.209679
O O17 0.146855 0.647899 0.000000
O O18 0.250000 0.750000 0.500000
#
# Coordination Sequence:
#
# PCOD9486722 Si02
#       8
#     8   8  16   8  16  16  16   8
#     4   8  14  29  50  77 114 150 191 235 273 341
#     4   9  18  36  60  83 109 147 200 251 289 336
#     4  11  22  38  61  89 125 158 196 246 299 359
#     4  10  19  33  52  85 117 153 194 237 301 361
#     4   9  19  35  57  86 117 154 195 240 299 361
#     4  11  22  38  59  85 121 158 200 251 302 361
#     4  11  23  39  61  88 116 157 206 250 301 352
#     4  12  21  34  61  88 123 162 196 233 290 360
#
# _framework density 20.351644
#
# number of rings (size 3 to 8) (size 9 to 14) (size 15 to 20)
#    0.000    1.750    2.500    3.500    0.000    2.667 
#    0.000    1.667    0.000    6.500    0.000    4.667 
#    0.000    0.000    0.000    0.000    0.000    0.000 
#
# Total GULP energy -267710.685850 kJ/mol
# GULP energy per Si atom -5577.305955 kJ/mol
# Density = 2.030532 g / cm^3
# Si number density = 20.351644 Si / 1000 Ang^3
#
#
#
# Elastic Constant Matrix: (Units=GPa)
#
#
# Indices 1 2 3 4 5 6 
#
# 1 77.3342 20.3826 13.6815 0.0000 0.0000 0.0000
# 2 20.3826 103.1191 23.5722 0.0000 0.0000 0.0000
# 3 13.6815 23.5722 52.1220 0.0000 0.0000 0.0000
# 4 0.0000 0.0000 0.0000 12.0793 0.0000 0.0000
# 5 0.0000 0.0000 0.0000 0.0000 3.2336 0.0000
# 6 0.0000 0.0000 0.0000 0.0000 0.0000 21.5176
#
#
#
# Elastic Compliance Matrix: (Units=1/GPa)
#
#
# Indices 1 2 3 4 5 6 
#
# 1 0.013974 -0.002145 -0.002698 0.000000 0.000000 0.000000
# 2 -0.002145 0.011145 -0.004477 0.000000 0.000000 0.000000
# 3 -0.002698 -0.004477 0.021919 0.000000 0.000000 0.000000
# 4 0.000000 0.000000 0.000000 0.082786 0.000000 0.000000
# 5 0.000000 0.000000 0.000000 0.000000 0.309256 0.000000
# 6 0.000000 0.000000 0.000000 0.000000 0.000000 0.046474
#
#
# Mechanical properties :
#
#
# Convention : Reuss Voigt Hill
#
# Bulk Modulus (GPa) = 35.21523 38.64976 36.93249
# Shear Modulus (GPa) = 9.73408 19.02871 14.38140
#
# Velocity S-wave (km/s) = 2.18937 3.06109 2.66116
# Velocity P-wave (km/s) = 4.87156 5.61479 5.25633
#
# Compressibility (1/GPa) = 0.02839681
#
# Stress axis : x y z
#
# Youngs Moduli (GPa) = 71.56360 89.72608 45.62312
#
# Poissons Ratio (x) = 0.19249 0.12308
# Poissons Ratio (y) = 0.15353 0.20426
# Poissons Ratio (z) = 0.19306 0.40172
#
# Static dielectric constant tensor:
#      x y z
#    x 1.759510 0.000000 0.000000 
#    y 0.000000 1.738790 0.000000 
#    z 0.000000 0.000000 1.695480 
# 
# From -- ./inp_files/30891.got.cif
#   From: 2010.05.17/outbox.cif.g08.bks.cpg/sg65_16_cif.got.tgz:30891.got - 2010.06.03 17:01:31.
