data_PCOD9486724
_publ_section_title
;
Structure prediction by ZEFSAII (Michael W. Deem and Ramdas Pophale) SiO2 
 PCOD9486724
Probable space group: C M M M
;
_chemical_formula_sum "Si O2"
_cell_formula_units_Z 80
_cell_length_a 25.421587
_cell_length_b 20.099782
_cell_length_c 7.331307
_cell_angle_alpha 90.000000
_cell_angle_beta 90.000000
_cell_angle_gamma 90.000000
_cell_volume 3746.065891
_symmetry_space_group_name_H-M "C M M M"
_symmetry_group_IT_number 65
_symmetry_cell_setting 'orthorhombic'
loop_
_space_group_symop_operation_xyz
x,y,z
-x,-y,z
x,-y,-z
-x,y,-z
-x,-y,-z
x,y,-z
-x,y,z
x,-y,z
1/2+x,1/2+y,z
1/2-x,1/2-y,z
1/2+x,1/2-y,-z
1/2-x,1/2+y,-z
1/2-x,1/2-y,-z
1/2+x,1/2+y,-z
1/2-x,1/2+y,z
1/2+x,1/2-y,z
loop_
_atom_site_type_symbol
_atom_site_label
_atom_site_fract_x
_atom_site_fract_y
_atom_site_fract_z
Si Si1 0.000000 0.578847 0.723954
Si Si2 0.784333 0.000000 0.780791
Si Si3 0.336613 0.000000 0.780392
Si Si4 0.939324 0.000000 0.276571
Si Si5 0.811535 0.750541 0.276410
Si Si6 0.109023 0.637002 0.706846
Si Si7 0.636678 0.614141 0.707444
O O1 0.051770 0.619104 0.785770
O O2 0.000000 0.500000 0.778263
O O3 0.000000 0.577383 0.500000
O O4 0.813678 0.935303 0.708108
O O5 0.724113 0.000000 0.730382
O O6 0.789033 0.000000 0.000000
O O7 0.363385 0.934342 0.706605
O O8 0.341259 0.000000 0.000000
O O9 0.908956 0.066648 0.213402
O O10 0.935383 0.000000 0.500000
O O11 0.000000 0.000000 0.226601
O O12 0.809599 0.750533 0.500000
O O13 0.750000 0.750000 0.218544
O O14 0.848055 0.688673 0.216558
O O15 0.842229 0.816951 0.214460
O O16 0.099041 0.660467 0.500000
O O17 0.620264 0.629263 0.500000
#
# Coordination Sequence:
#
# PCOD9486724 Si02
#       7
#     8   8   8   8  16  16  16
#     4   9  16  30  50  74 100 125 166 209 241 288
#     4  10  20  32  48  72 100 129 163 207 252 296
#     4  11  22  33  47  73 101 126 168 211 249 298
#     4   8  14  26  45  69  98 125 154 196 240 282
#     4   9  17  29  47  74 101 125 161 203 242 290
#     4  10  19  33  53  72  98 134 166 203 247 292
#     4   9  17  31  50  72  98 129 164 200 243 296
#
# _framework density 21.355736
#
# number of rings (size 3 to 8) (size 9 to 14) (size 15 to 20)
#    0.000    2.600    1.000    2.400    0.000    3.200 
#    1.800    2.000    0.000    8.400    0.000    0.000 
#    0.000    0.000    0.000    0.000    0.000    0.000 
#
# Total GULP energy -223070.415250 kJ/mol
# GULP energy per Si atom -5576.760381 kJ/mol
# Density = 2.130713 g / cm^3
# Si number density = 21.355736 Si / 1000 Ang^3
#
#
#
# Elastic Constant Matrix: (Units=GPa)
#
#
# Indices 1 2 3 4 5 6 
#
# 1 220.4372 99.6265 5.9664 0.0000 0.0000 0.0000
# 2 99.6265 186.0222 -3.3943 0.0000 0.0000 0.0000
# 3 5.9664 -3.3943 83.5241 0.0000 0.0000 0.0000
# 4 0.0000 0.0000 0.0000 -32.9481 0.0000 0.0000
# 5 0.0000 0.0000 0.0000 0.0000 109.2058 0.0000
# 6 0.0000 0.0000 0.0000 0.0000 0.0000 23.5630
#
#
#
# Elastic Compliance Matrix: (Units=1/GPa)
#
#
# Indices 1 2 3 4 5 6 
#
# 1 0.006011 -0.003230 -0.000561 0.000000 0.000000 0.000000
# 2 -0.003230 0.007115 0.000520 0.000000 0.000000 0.000000
# 3 -0.000561 0.000520 0.012034 0.000000 0.000000 0.000000
# 4 0.000000 0.000000 0.000000 -0.030351 0.000000 0.000000
# 5 0.000000 0.000000 0.000000 0.000000 0.009157 0.000000
# 6 0.000000 0.000000 0.000000 0.000000 0.000000 0.042439
#
#
# Mechanical properties :
#
#
# Convention : Reuss Voigt Hill
#
# Bulk Modulus (GPa) = 53.70857 77.15340 65.43099
# Shear Modulus (GPa) = 84.52703 45.81648 65.17176
#
# Velocity S-wave (km/s) = 6.29813 4.63687 5.53023
# Velocity P-wave (km/s) = 8.83700 8.05441 8.45477
#
# Compressibility (1/GPa) = 0.01861900
#
# Stress axis : x y z
#
# Youngs Moduli (GPa) = 166.35493 140.55100 83.09948
#
# Poissons Ratio (x) = 0.45393 0.04659
# Poissons Ratio (y) = 0.53726 -0.04320
# Poissons Ratio (z) = 0.09327 -0.07306
#
# Static dielectric constant tensor:
#      x y z
#    x 1.752710 0.000000 0.000000 
#    y 0.000000 1.737480 0.000000 
#    z 0.000000 0.000000 1.825130 
# 
# From -- ./inp_files/13905.got.cif
#   From: 2010.05.17/outbox.cif.g08.bks.cpg/sg65_7_cif.got.tgz:13905.got - 2010.06.03 17:01:31.
