data_PCOD9486657
_publ_section_title
;
Structure prediction by ZEFSAII (Michael W. Deem and Ramdas Pophale) SiO2 
 PCOD9486657
Probable space group: C M M M
;
_chemical_formula_sum "Si O2"
_cell_formula_units_Z 104
_cell_length_a 29.793722
_cell_length_b 7.879475
_cell_length_c 24.291538
_cell_angle_alpha 90.000000
_cell_angle_beta 90.000000
_cell_angle_gamma 90.000000
_cell_volume 5702.654440
_symmetry_space_group_name_H-M "C M M M"
_symmetry_group_IT_number 65
_symmetry_cell_setting 'orthorhombic'
loop_
_space_group_symop_operation_xyz
x,y,z
-x,-y,z
x,-y,-z
-x,y,-z
-x,-y,-z
x,y,-z
-x,y,z
x,-y,z
1/2+x,1/2+y,z
1/2-x,1/2-y,z
1/2+x,1/2-y,-z
1/2-x,1/2+y,-z
1/2-x,1/2-y,-z
1/2+x,1/2+y,-z
1/2-x,1/2+y,z
1/2+x,1/2-y,z
loop_
_atom_site_type_symbol
_atom_site_label
_atom_site_fract_x
_atom_site_fract_y
_atom_site_fract_z
Si Si1 0.700606 0.202164 0.733694
Si Si2 0.606338 0.792007 0.438973
Si Si3 0.445469 0.303246 0.000000
Si Si4 0.550533 0.202844 0.665946
Si Si5 0.947838 0.208272 0.879774
Si Si6 0.894358 0.200353 0.773769
Si Si7 0.200788 0.703889 0.392843
O O1 0.750000 0.250000 0.754505
O O2 0.658409 0.265493 0.768117
O O3 0.697248 0.267926 0.670420
O O4 0.697437 0.000000 0.731217
O O5 0.592292 0.738601 0.500000
O O6 0.575056 0.732281 0.389042
O O7 0.657532 0.738063 0.426527
O O8 0.605898 0.000000 0.438217
O O9 0.432859 0.230054 0.940461
O O10 0.430634 0.500000 0.000000
O O11 0.500000 0.304262 0.000000
O O12 0.500000 0.270410 0.672829
O O13 0.580745 0.232835 0.719458
O O14 0.547458 0.000000 0.659515
O O15 0.917205 0.267770 0.829474
O O16 0.000000 0.255450 0.870614
O O17 0.946965 0.000000 0.881675
O O18 0.901578 0.000000 0.773968
O O19 0.198674 0.500000 0.390858
O O20 0.250000 0.750000 0.414511
#
# Coordination Sequence:
#
# PCOD9486657 Si02
#       7
#    16  16   8  16  16  16  16
#     4  10  19  33  51  72  98 125 157 194 238 288
#     4   9  17  31  49  68  90 117 153 198 243 286
#     4   7  10  20  38  60  92 131 164 197 234 269
#     4  10  20  34  50  68  92 124 162 203 245 286
#     4   8  14  24  40  66  99 132 165 198 232 274
#     4  11  20  30  48  74 102 129 158 194 239 286
#     4   9  17  30  48  68  91 115 143 183 232 285
#
# _framework density 18.237120000000001
#
# number of rings (size 3 to 8) (size 9 to 14) (size 15 to 20)
#    0.000    2.692    1.538    2.308    0.000    2.154 
#    0.000    1.538    0.000    1.385    0.000    3.769 
#    0.000    8.615    0.000    0.000    0.000    0.000 
#
# Total GULP energy -289914.793315 kJ/mol
# GULP energy per Si atom -5575.284487 kJ/mol
# Density = 1.819561 g / cm^3
# Si number density = 18.237120 Si / 1000 Ang^3
#
#
#
# Elastic Constant Matrix: (Units=GPa)
#
#
# Indices 1 2 3 4 5 6 
#
# 1 113.5273 -1.6199 73.7994 0.0000 0.0000 0.0000
# 2 -1.6199 16.3275 3.2107 0.0000 0.0000 0.0000
# 3 73.7994 3.2107 150.1935 0.0000 0.0000 0.0000
# 4 0.0000 0.0000 0.0000 3.3940 0.0000 0.0000
# 5 0.0000 0.0000 0.0000 0.0000 20.5466 0.0000
# 6 0.0000 0.0000 0.0000 0.0000 0.0000 17.3894
#
#
#
# Elastic Compliance Matrix: (Units=1/GPa)
#
#
# Indices 1 2 3 4 5 6 
#
# 1 0.013049 0.002566 -0.006466 0.000000 0.000000 0.000000
# 2 0.002566 0.062010 -0.002587 0.000000 0.000000 0.000000
# 3 -0.006466 -0.002587 0.009891 0.000000 0.000000 0.000000
# 4 0.000000 0.000000 0.000000 0.294634 0.000000 0.000000
# 5 0.000000 0.000000 0.000000 0.000000 0.048670 0.000000
# 6 0.000000 0.000000 0.000000 0.000000 0.000000 0.057506
#
#
# Mechanical properties :
#
#
# Convention : Reuss Voigt Hill
#
# Bulk Modulus (GPa) = 13.89361 47.86985 30.88173
# Shear Modulus (GPa) = 9.56527 21.90989 15.73758
#
# Velocity S-wave (km/s) = 2.29267 3.46987 2.94077
# Velocity P-wave (km/s) = 3.82666 6.50837 5.33864
#
# Compressibility (1/GPa) = 0.07197554
#
# Stress axis : x y z
#
# Youngs Moduli (GPa) = 76.63621 16.12651 101.10450
#
# Poissons Ratio (x) = -0.04138 0.65379
# Poissons Ratio (y) = -0.19666 0.26151
# Poissons Ratio (z) = 0.49557 0.04171
#
# Static dielectric constant tensor:
#      x y z
#    x 1.611550 0.000000 0.000000 
#    y 0.000000 1.676400 0.000000 
#    z 0.000000 0.000000 1.646310 
# 
# From -- ./inp_files/71856.got.cif
#   From: 2010.05.17/outbox.cif.g08.bks.cpg/sg65_36_cif.got.tgz:71856.got - 2010.06.03 17:01:31.
