data_PCOD9486885
_publ_section_title
;
Structure prediction by ZEFSAII (Michael W. Deem and Ramdas Pophale) SiO2 
 PCOD9486885
Probable space group: C M M M
;
_chemical_formula_sum "Si O2"
_cell_formula_units_Z 80
_cell_length_a 18.866415
_cell_length_b 8.504697
_cell_length_c 26.973949
_cell_angle_alpha 90.000000
_cell_angle_beta 90.000000
_cell_angle_gamma 90.000000
_cell_volume 4328.054898
_symmetry_space_group_name_H-M "C M M M"
_symmetry_group_IT_number 65
_symmetry_cell_setting 'orthorhombic'
loop_
_space_group_symop_operation_xyz
x,y,z
-x,-y,z
x,-y,-z
-x,y,-z
-x,-y,-z
x,y,-z
-x,y,z
x,-y,z
1/2+x,1/2+y,z
1/2-x,1/2-y,z
1/2+x,1/2-y,-z
1/2-x,1/2+y,-z
1/2-x,1/2-y,-z
1/2+x,1/2+y,-z
1/2-x,1/2+y,z
1/2+x,1/2-y,z
loop_
_atom_site_type_symbol
_atom_site_label
_atom_site_fract_x
_atom_site_fract_y
_atom_site_fract_z
Si Si1 0.582192 0.310287 0.692693
Si Si2 0.081770 0.191942 0.500000
Si Si3 0.330504 0.311273 0.892072
Si Si4 0.669935 0.309658 0.403269
Si Si5 0.581928 0.812075 0.200663
Si Si6 0.169182 0.810413 0.000000
O O1 0.500000 0.259297 0.685904
O O2 0.582323 0.500000 0.693195
O O3 0.630731 0.257446 0.647096
O O4 0.607653 0.250761 0.746142
O O5 0.124097 0.241388 0.549104
O O6 0.000000 0.244023 0.500000
O O7 0.080605 0.000000 0.500000
O O8 0.329744 0.500000 0.890469
O O9 0.250000 0.250000 0.888955
O O10 0.374223 0.248372 0.845875
O O11 0.360689 0.260874 0.946383
O O12 0.670913 0.500000 0.403294
O O13 0.750000 0.250000 0.406059
O O14 0.500000 0.760038 0.195761
O O15 0.583971 0.000000 0.201589
O O16 0.250000 0.750000 0.000000
O O17 0.169672 0.000000 0.000000
#
# Coordination Sequence:
#
# PCOD9486885 Si02
#       6
#    16   8  16  16  16   8
#     4   9  18  34  54  73  95 130 175 214 250 299
#     4   9  17  32  55  79 102 133 174 212 244 289
#     4  10  19  33  54  78 104 134 170 212 257 307
#     4  10  20  33  52  78 106 134 165 207 256 302
#     4  10  21  36  53  75 104 137 173 214 260 308
#     4   8  16  30  49  74 101 131 167 207 253 304
#
# _framework density 18.484054
#
# number of rings (size 3 to 8) (size 9 to 14) (size 15 to 20)
#    0.000    2.500    0.000    2.100    0.000    6.000 
#    0.000    2.500    0.000    5.400    0.000    0.000 
#    0.000    0.000    0.000    0.000    0.000    0.000 
#
# Total GULP energy -223084.382056 kJ/mol
# GULP energy per Si atom -5577.109551 kJ/mol
# Density = 1.844198 g / cm^3
# Si number density = 18.484054 Si / 1000 Ang^3
#
#
#
# Elastic Constant Matrix: (Units=GPa)
#
#
# Indices 1 2 3 4 5 6 
#
# 1 99.8693 16.1646 106.0222 0.0000 0.0000 0.0000
# 2 16.1646 12.5756 30.8750 0.0000 0.0000 0.0000
# 3 106.0222 30.8750 236.7638 0.0000 0.0000 0.0000
# 4 0.0000 0.0000 0.0000 13.3373 0.0000 0.0000
# 5 0.0000 0.0000 0.0000 0.0000 36.1451 0.0000
# 6 0.0000 0.0000 0.0000 0.0000 0.0000 26.4842
#
#
#
# Elastic Compliance Matrix: (Units=1/GPa)
#
#
# Indices 1 2 3 4 5 6 
#
# 1 0.019323 -0.005286 -0.007963 0.000000 0.000000 0.000000
# 2 -0.005286 0.118414 -0.013075 0.000000 0.000000 0.000000
# 3 -0.007963 -0.013075 0.009495 0.000000 0.000000 0.000000
# 4 0.000000 0.000000 0.000000 0.074977 0.000000 0.000000
# 5 0.000000 0.000000 0.000000 0.000000 0.027666 0.000000
# 6 0.000000 0.000000 0.000000 0.000000 0.000000 0.037758
#
#
# Mechanical properties :
#
#
# Convention : Reuss Voigt Hill
#
# Bulk Modulus (GPa) = 10.57272 72.81472 41.69372
# Shear Modulus (GPa) = 13.44778 28.26978 20.85878
#
# Velocity S-wave (km/s) = 2.70021 3.91502 3.36292
# Velocity P-wave (km/s) = 3.93114 7.74049 6.13877
#
# Compressibility (1/GPa) = 0.09458304
#
# Stress axis : x y z
#
# Youngs Moduli (GPa) = 51.75294 8.44496 105.32388
#
# Poissons Ratio (x) = 0.04464 0.83872
# Poissons Ratio (y) = 0.27357 1.37706
# Poissons Ratio (z) = 0.41212 0.11041
#
# Static dielectric constant tensor:
#      x y z
#    x 1.604940 0.000000 0.000000 
#    y 0.000000 1.632160 0.000000 
#    z 0.000000 0.000000 1.651270 
# 
# From -- ./inp_files/75113.got.cif
#   From: 2010.05.17/outbox.cif.g08.bks.cpg/sg65_38_cif.got.tgz:75113.got - 2010.06.03 17:01:31.
