data_PCOD9486794
_publ_section_title
;
Structure prediction by ZEFSAII (Michael W. Deem and Ramdas Pophale) SiO2 
 PCOD9486794
Probable space group: C M M M
;
_chemical_formula_sum "Si O2"
_cell_formula_units_Z 104
_cell_length_a 19.652144
_cell_length_b 14.772579
_cell_length_c 20.137969
_cell_angle_alpha 90.000000
_cell_angle_beta 90.000000
_cell_angle_gamma 90.000000
_cell_volume 5846.311169
_symmetry_space_group_name_H-M "C M M M"
_symmetry_group_IT_number 65
_symmetry_cell_setting 'orthorhombic'
loop_
_space_group_symop_operation_xyz
x,y,z
-x,-y,z
x,-y,-z
-x,y,-z
-x,-y,-z
x,y,-z
-x,y,z
x,-y,z
1/2+x,1/2+y,z
1/2-x,1/2-y,z
1/2+x,1/2-y,-z
1/2-x,1/2+y,-z
1/2-x,1/2-y,-z
1/2+x,1/2+y,-z
1/2-x,1/2+y,z
1/2+x,1/2-y,z
loop_
_atom_site_type_symbol
_atom_site_label
_atom_site_fract_x
_atom_site_fract_y
_atom_site_fract_z
Si Si1 0.128595 0.394131 0.257250
Si Si2 0.286723 0.599781 0.784295
Si Si3 0.327881 0.267487 0.668598
Si Si4 0.076886 0.500000 0.077664
Si Si5 0.578615 0.185578 0.872913
Si Si6 0.188284 0.822185 0.924272
Si Si7 0.579278 0.393794 0.579224
O O1 0.107766 0.500000 0.264704
O O2 0.205954 0.395046 0.229170
O O3 0.135643 0.329348 0.320855
O O4 0.083930 0.337407 0.204858
O O5 0.310475 0.500000 0.762772
O O6 0.320315 0.678415 0.739322
O O7 0.298686 0.611792 0.862544
O O8 0.250000 0.250000 0.646675
O O9 0.370113 0.330520 0.619682
O O10 0.110494 0.407098 0.097896
O O11 0.000000 0.500000 0.107851
O O12 0.070218 0.500000 0.000000
O O13 0.500000 0.193770 0.893191
O O14 0.621025 0.267586 0.902051
O O15 0.250000 0.750000 0.923389
O O16 0.182883 0.857381 0.000000
O O17 0.586925 0.381118 0.500000
O O18 0.500000 0.375418 0.595984
O O19 0.592248 0.500000 0.593342
#
# Coordination Sequence:
#
# PCOD9486794 Si02
#       7
#    16  16  16   8  16  16  16
#     4  10  19  33  53  77 109 143 176 218 269 323
#     4  10  19  34  54  76 104 139 180 227 279 327
#     4  10  19  34  57  83 116 149 186 229 275 325
#     4   9  18  30  44  66  94 124 160 208 270 329
#     4  11  20  32  49  69  97 131 168 217 272 325
#     4  11  21  35  51  69  97 133 178 227 275 332
#     4   9  19  37  61  90 122 152 185 229 277 323
#
# _framework density 17.788995
#
# number of rings (size 3 to 8) (size 9 to 14) (size 15 to 20)
#    0.000    1.923    3.846    1.846    0.000    2.769 
#    0.000    0.000    0.000    0.923    0.000    2.154 
#    0.000    0.000    0.000    0.000    0.000    0.000 
#
# Total GULP energy -289711.881815 kJ/mol
# GULP energy per Si atom -5571.382343 kJ/mol
# Density = 1.774851 g / cm^3
# Si number density = 17.788995 Si / 1000 Ang^3
#
#
#
# Elastic Constant Matrix: (Units=GPa)
#
#
# Indices 1 2 3 4 5 6 
#
# 1 57.7749 33.1123 38.0245 0.0000 0.0000 0.0000
# 2 33.1123 76.2776 35.9081 0.0000 0.0000 0.0000
# 3 38.0245 35.9081 68.6015 0.0000 0.0000 0.0000
# 4 0.0000 0.0000 0.0000 25.2576 0.0000 0.0000
# 5 0.0000 0.0000 0.0000 0.0000 19.1409 0.0000
# 6 0.0000 0.0000 0.0000 0.0000 0.0000 25.5787
#
#
#
# Elastic Compliance Matrix: (Units=1/GPa)
#
#
# Indices 1 2 3 4 5 6 
#
# 1 0.029706 -0.006826 -0.012892 0.000000 0.000000 0.000000
# 2 -0.006826 0.018965 -0.006143 0.000000 0.000000 0.000000
# 3 -0.012892 -0.006143 0.024939 0.000000 0.000000 0.000000
# 4 0.000000 0.000000 0.000000 0.039592 0.000000 0.000000
# 5 0.000000 0.000000 0.000000 0.000000 0.052244 0.000000
# 6 0.000000 0.000000 0.000000 0.000000 0.000000 0.039095
#
#
# Mechanical properties :
#
#
# Convention : Reuss Voigt Hill
#
# Bulk Modulus (GPa) = 45.69165 46.30490 45.99827
# Shear Modulus (GPa) = 18.97100 20.36939 19.67020
#
# Velocity S-wave (km/s) = 3.26919 3.38754 3.32889
# Velocity P-wave (km/s) = 6.32386 6.43328 6.37881
#
# Compressibility (1/GPa) = 0.02188584
#
# Stress axis : x y z
#
# Youngs Moduli (GPa) = 33.66330 52.72776 40.09862
#
# Poissons Ratio (x) = 0.35994 0.51696
# Poissons Ratio (y) = 0.22980 0.24634
# Poissons Ratio (z) = 0.43400 0.32393
#
# Static dielectric constant tensor:
#      x y z
#    x 1.622320 0.000000 0.000000 
#    y 0.000000 1.637280 0.000000 
#    z 0.000000 0.000000 1.620260 
# 
# From -- ./inp_files/64705.got.cif
#   From: 2010.05.17/outbox.cif.g08.bks.cpg/sg65_33_cif.got.tgz:64705.got - 2010.06.03 17:01:31.
