data_PCOD9486670
_publ_section_title
;
Structure prediction by ZEFSAII (Michael W. Deem and Ramdas Pophale) SiO2 
 PCOD9486670
Probable space group: C M M M
;
_chemical_formula_sum "Si O2"
_cell_formula_units_Z 116
_cell_length_a 7.800611
_cell_length_b 29.693310
_cell_length_c 28.349838
_cell_angle_alpha 90.000000
_cell_angle_beta 90.000000
_cell_angle_gamma 90.000000
_cell_volume 6566.558460
_symmetry_space_group_name_H-M "C M M M"
_symmetry_group_IT_number 65
_symmetry_cell_setting 'orthorhombic'
loop_
_space_group_symop_operation_xyz
x,y,z
-x,-y,z
x,-y,-z
-x,y,-z
-x,-y,-z
x,y,-z
-x,y,z
x,-y,z
1/2+x,1/2+y,z
1/2-x,1/2-y,z
1/2+x,1/2-y,-z
1/2-x,1/2+y,-z
1/2-x,1/2-y,-z
1/2+x,1/2+y,-z
1/2-x,1/2+y,z
1/2+x,1/2-y,z
loop_
_atom_site_type_symbol
_atom_site_label
_atom_site_fract_x
_atom_site_fract_y
_atom_site_fract_z
Si Si1 0.206309 0.949096 0.446761
Si Si2 0.000000 0.565395 0.000000
Si Si3 0.797282 0.550446 0.268411
Si Si4 0.706083 0.107659 0.643406
Si Si5 0.703613 0.553558 0.919697
Si Si6 0.294043 0.200299 0.316326
Si Si7 0.295695 0.800078 0.792007
Si Si8 0.700294 0.395971 0.176001
O O1 0.266106 0.938415 0.500000
O O2 0.255241 0.913985 0.406792
O O3 0.000000 0.950525 0.448125
O O4 0.266470 0.000000 0.434842
O O5 0.154033 0.563206 0.959309
O O6 0.726071 0.500000 0.262253
O O7 0.725720 0.576172 0.314145
O O8 0.780271 0.580450 0.221735
O O9 0.000000 0.546089 0.276847
O O10 0.500000 0.109132 0.647648
O O11 0.769067 0.158376 0.652992
O O12 0.500000 0.563555 0.931668
O O13 0.709612 0.500000 0.909873
O O14 0.753504 0.581470 0.873015
O O15 0.500000 0.197871 0.313848
O O16 0.250000 0.250000 0.333996
O O17 0.229510 0.196165 0.262143
O O18 0.500000 0.803637 0.790620
O O19 0.250000 0.750000 0.809303
O O20 0.230211 0.842487 0.821358
O O21 0.500000 0.404934 0.180200
#
# Coordination Sequence:
#
# PCOD9486670 Si02
#       8
#    16   4  16  16  16  16  16  16
#     4   9  19  35  52  72 100 133 173 222 270 317
#     4  12  23  38  64  86 108 156 202 234 290 336
#     4  10  20  33  49  71 106 148 181 213 260 325
#     4  10  19  33  51  75 103 135 174 220 267 317
#     4  10  22  38  56  84 119 149 191 244 280 327
#     4   9  18  32  50  73 103 136 172 216 263 313
#     4  10  19  34  54  77 109 143 181 224 267 323
#     4  11  22  35  52  78 114 148 181 223 274 325
#
# _framework density 17.665265000000002
#
# number of rings (size 3 to 8) (size 9 to 14) (size 15 to 20)
#    0.000    2.069    1.379    2.897    1.931    4.138 
#    0.000    0.690    0.000    0.414    0.000    0.483 
#    0.000    0.000    0.000    0.000    0.000    0.000 
#
# Total GULP energy -322910.615457 kJ/mol
# GULP energy per Si atom -5567.424404 kJ/mol
# Density = 1.762506 g / cm^3
# Si number density = 17.665265 Si / 1000 Ang^3
#
#
#
# Elastic Constant Matrix: (Units=GPa)
#
#
# Indices 1 2 3 4 5 6 
#
# 1 38.9706 19.2189 25.8749 0.0000 0.0000 0.0000
# 2 19.2189 122.9425 80.7624 0.0000 0.0000 0.0000
# 3 25.8749 80.7624 117.8267 0.0000 0.0000 0.0000
# 4 0.0000 0.0000 0.0000 14.4323 0.0000 0.0000
# 5 0.0000 0.0000 0.0000 0.0000 26.7857 0.0000
# 6 0.0000 0.0000 0.0000 0.0000 0.0000 21.8672
#
#
#
# Elastic Compliance Matrix: (Units=1/GPa)
#
#
# Indices 1 2 3 4 5 6 
#
# 1 0.030070 -0.000660 -0.006151 0.000000 0.000000 0.000000
# 2 -0.000660 0.014811 -0.010007 0.000000 0.000000 0.000000
# 3 -0.006151 -0.010007 0.016697 0.000000 0.000000 0.000000
# 4 0.000000 0.000000 0.000000 0.069289 0.000000 0.000000
# 5 0.000000 0.000000 0.000000 0.000000 0.037333 0.000000
# 6 0.000000 0.000000 0.000000 0.000000 0.000000 0.045731
#
#
# Mechanical properties :
#
#
# Convention : Reuss Voigt Hill
#
# Bulk Modulus (GPa) = 35.78872 59.05023 47.41947
# Shear Modulus (GPa) = 19.46437 22.87595 21.17016
#
# Velocity S-wave (km/s) = 3.32301 3.60247 3.46556
# Velocity P-wave (km/s) = 5.91832 7.12766 6.55096
#
# Compressibility (1/GPa) = 0.02794177
#
# Stress axis : x y z
#
# Youngs Moduli (GPa) = 33.25590 67.51914 59.89182
#
# Poissons Ratio (x) = 0.04456 0.36839
# Poissons Ratio (y) = 0.02195 0.59932
# Poissons Ratio (z) = 0.20456 0.67565
#
# Static dielectric constant tensor:
#      x y z
#    x 1.646280 0.000000 0.000000 
#    y 0.000000 1.609380 0.000000 
#    z 0.000000 0.000000 1.592300 
# 
# From -- ./inp_files/68652.got.cif
#   From: 2010.05.17/outbox.cif.g08.bks.cpg/sg65_35_cif.got.tgz:68652.got - 2010.06.03 17:01:31.
