data_PCOD9486439
_publ_section_title
;
Structure prediction by ZEFSAII (Michael W. Deem and Ramdas Pophale) SiO2 
 PCOD9486439
Probable space group: C M M M
;
_chemical_formula_sum "Si O2"
_cell_formula_units_Z 72
_cell_length_a 18.950020
_cell_length_b 8.442511
_cell_length_c 24.062622
_cell_angle_alpha 90.000000
_cell_angle_beta 90.000000
_cell_angle_gamma 90.000000
_cell_volume 3849.676683
_symmetry_space_group_name_H-M "C M M M"
_symmetry_group_IT_number 65
_symmetry_cell_setting 'orthorhombic'
loop_
_space_group_symop_operation_xyz
x,y,z
-x,-y,z
x,-y,-z
-x,y,-z
-x,-y,-z
x,y,-z
-x,y,z
x,-y,z
1/2+x,1/2+y,z
1/2-x,1/2-y,z
1/2+x,1/2-y,-z
1/2-x,1/2+y,-z
1/2-x,1/2-y,-z
1/2+x,1/2+y,-z
1/2-x,1/2+y,z
1/2+x,1/2-y,z
loop_
_atom_site_type_symbol
_atom_site_label
_atom_site_fract_x
_atom_site_fract_y
_atom_site_fract_z
Si Si1 0.829751 0.309586 0.667251
Si Si2 0.330265 0.311466 0.212565
Si Si3 0.081618 0.308323 0.108256
Si Si4 0.581971 0.192919 0.561266
Si Si5 0.669703 0.191573 0.000000
O O1 0.830454 0.500000 0.668464
O O2 0.750000 0.250000 0.661134
O O3 0.855375 0.248555 0.727062
O O4 0.874360 0.252553 0.614379
O O5 0.328121 0.500000 0.212697
O O6 0.250000 0.250000 0.204312
O O7 0.380254 0.250841 0.163695
O O8 0.081859 0.500000 0.108628
O O9 0.000000 0.256706 0.104738
O O10 0.127057 0.256283 0.054806
O O11 0.607861 0.244103 0.500000
O O12 0.500000 0.238303 0.566211
O O13 0.584137 0.000000 0.561575
O O14 0.750000 0.250000 0.000000
O O15 0.670762 0.000000 0.000000
#
# Coordination Sequence:
#
# PCOD9486439 Si02
#       5
#    16  16  16  16   8
#     4  10  19  32  52  77 104 136 173 215 264 315
#     4  11  22  37  56  78 107 142 181 223 267 317
#     4  10  21  38  59  83 112 144 179 219 264 315
#     4   8  15  29  49  73 100 131 170 214 258 309
#     4  10  21  37  59  85 111 144 181 218 262 312
#
# _framework density 18.702867999999999
#
# number of rings (size 3 to 8) (size 9 to 14) (size 15 to 20)
#    0.000    2.222    0.000    5.667    0.000    5.778 
#    0.000    2.222    0.000    6.000    0.000    6.222 
#    0.000    0.000    0.000    0.000    0.000    0.000 
#
# Total GULP energy -200948.990482 kJ/mol
# GULP energy per Si atom -5581.916402 kJ/mol
# Density = 1.866030 g / cm^3
# Si number density = 18.702868 Si / 1000 Ang^3
#
#
#
# Elastic Constant Matrix: (Units=GPa)
#
#
# Indices 1 2 3 4 5 6 
#
# 1 118.3594 26.0654 122.1170 0.0000 0.0000 0.0000
# 2 26.0654 37.9495 32.7282 0.0000 0.0000 0.0000
# 3 122.1170 32.7282 232.0779 0.0000 0.0000 0.0000
# 4 0.0000 0.0000 0.0000 11.0116 0.0000 0.0000
# 5 0.0000 0.0000 0.0000 0.0000 28.9154 0.0000
# 6 0.0000 0.0000 0.0000 0.0000 0.0000 24.9720
#
#
#
# Elastic Compliance Matrix: (Units=1/GPa)
#
#
# Indices 1 2 3 4 5 6 
#
# 1 0.019321 -0.005126 -0.009444 0.000000 0.000000 0.000000
# 2 -0.005126 0.031359 -0.001725 0.000000 0.000000 0.000000
# 3 -0.009444 -0.001725 0.009521 0.000000 0.000000 0.000000
# 4 0.000000 0.000000 0.000000 0.090814 0.000000 0.000000
# 5 0.000000 0.000000 0.000000 0.000000 0.034584 0.000000
# 6 0.000000 0.000000 0.000000 0.000000 0.000000 0.040045
#
#
# Mechanical properties :
#
#
# Convention : Reuss Voigt Hill
#
# Bulk Modulus (GPa) = 36.21603 83.35644 59.78624
# Shear Modulus (GPa) = 18.69589 26.81153 22.75371
#
# Velocity S-wave (km/s) = 3.16512 3.79034 3.49175
# Velocity P-wave (km/s) = 5.72392 7.98881 6.94926
#
# Compressibility (1/GPa) = 0.02761208
#
# Stress axis : x y z
#
# Youngs Moduli (GPa) = 51.75618 31.88830 105.02677
#
# Poissons Ratio (x) = 0.16347 0.99185
# Poissons Ratio (y) = 0.26532 0.18117
# Poissons Ratio (z) = 0.48877 0.05501
#
# Static dielectric constant tensor:
#      x y z
#    x 1.615420 0.000000 0.000000 
#    y 0.000000 1.644770 0.000000 
#    z 0.000000 0.000000 1.650120 
# 
# From -- ./inp_files/70338.got.cif
#   From: 2010.05.17/outbox.cif.g08.bks.cpg/sg65_36_cif.got.tgz:70338.got - 2010.06.03 17:01:31.
