data_PCOD9486112
_publ_section_title
;
Structure prediction by ZEFSAII (Michael W. Deem and Ramdas Pophale) SiO2 
 PCOD9486112
Probable space group: C M M M
;
_chemical_formula_sum "Si O2"
_cell_formula_units_Z 116
_cell_length_a 29.118645
_cell_length_b 28.133970
_cell_length_c 7.471691
_cell_angle_alpha 90.000000
_cell_angle_beta 90.000000
_cell_angle_gamma 90.000000
_cell_volume 6120.981750
_symmetry_space_group_name_H-M "C M M M"
_symmetry_group_IT_number 65
_symmetry_cell_setting 'orthorhombic'
loop_
_space_group_symop_operation_xyz
x,y,z
-x,-y,z
x,-y,-z
-x,y,-z
-x,-y,-z
x,y,-z
-x,y,z
x,-y,z
1/2+x,1/2+y,z
1/2-x,1/2-y,z
1/2+x,1/2-y,-z
1/2-x,1/2+y,-z
1/2-x,1/2-y,-z
1/2+x,1/2+y,-z
1/2-x,1/2+y,z
1/2+x,1/2-y,z
loop_
_atom_site_type_symbol
_atom_site_label
_atom_site_fract_x
_atom_site_fract_y
_atom_site_fract_z
Si Si1 0.448857 0.182756 0.781998
Si Si2 0.843309 0.000000 0.500000
Si Si3 0.853727 0.358667 0.780350
Si Si4 0.551288 0.293028 0.216124
Si Si5 0.812025 0.073847 0.206104
Si Si6 0.202297 0.267892 0.205887
Si Si7 0.149039 0.824868 0.293888
Si Si8 0.293316 0.946122 0.217150
O O1 0.500000 0.167928 0.724638
O O2 0.405889 0.151385 0.723062
O O3 0.442013 0.237898 0.728343
O O4 0.448852 0.182714 0.000000
O O5 0.839956 0.958572 0.657186
O O6 0.822486 0.314281 0.718686
O O7 0.830358 0.407570 0.722239
O O8 0.854021 0.358135 0.000000
O O9 0.500000 0.307699 0.273249
O O10 0.593951 0.323837 0.279975
O O11 0.552059 0.293673 0.000000
O O12 0.828944 0.128032 0.213151
O O13 0.758517 0.069487 0.262873
O O14 0.815047 0.057496 0.000000
O O15 0.250000 0.250000 0.288465
O O16 0.167752 0.223535 0.207386
O O17 0.213130 0.281014 0.000000
O O18 0.162742 0.823058 0.500000
O O19 0.300767 0.000000 0.279958
O O20 0.295237 0.946675 0.000000
#
# Coordination Sequence:
#
# PCOD9486112 Si02
#       8
#    16   4  16  16  16  16  16  16
#     4   8  13  23  43  70  97 130 178 231 277 332
#     4  12  22  40  60  90 111 142 199 240 278 328
#     4   9  15  25  45  71  98 136 185 230 276 337
#     4   9  17  32  54  77 104 142 186 228 277 338
#     4  11  22  39  60  82 115 151 187 235 282 330
#     4  10  19  32  49  70 101 145 191 227 277 347
#     4  12  23  34  51  81 117 147 184 227 280 345
#     4   9  17  30  50  74 100 139 189 234 280 329
#
# _framework density 18.951208000000001
#
# number of rings (size 3 to 8) (size 9 to 14) (size 15 to 20)
#    0.000    2.207    2.759    3.103    0.000    2.759 
#    0.000    0.000    0.000    0.414    0.000    3.862 
#    0.000    2.207    0.000    0.621    0.000    1.517 
#
# Total GULP energy -323203.002924 kJ/mol
# GULP energy per Si atom -5572.465568 kJ/mol
# Density = 1.890807 g / cm^3
# Si number density = 18.951208 Si / 1000 Ang^3
#
#
#
# Elastic Constant Matrix: (Units=GPa)
#
#
# Indices 1 2 3 4 5 6 
#
# 1 121.3155 74.7244 1.7745 0.0000 0.0000 0.0000
# 2 74.7244 140.4606 2.5348 0.0000 0.0000 0.0000
# 3 1.7745 2.5348 71.6720 0.0000 0.0000 0.0000
# 4 0.0000 0.0000 0.0000 -8.2286 0.0000 0.0000
# 5 0.0000 0.0000 0.0000 0.0000 15.0650 0.0000
# 6 0.0000 0.0000 0.0000 0.0000 0.0000 7.1045
#
#
#
# Elastic Compliance Matrix: (Units=1/GPa)
#
#
# Indices 1 2 3 4 5 6 
#
# 1 0.012261 -0.006521 -0.000073 0.000000 0.000000 0.000000
# 2 -0.006521 0.010593 -0.000213 0.000000 0.000000 0.000000
# 3 -0.000073 -0.000213 0.013962 0.000000 0.000000 0.000000
# 4 0.000000 0.000000 0.000000 -0.121527 0.000000 0.000000
# 5 0.000000 0.000000 0.000000 0.000000 0.066379 0.000000
# 6 0.000000 0.000000 0.000000 0.000000 0.000000 0.140756
#
#
# Mechanical properties :
#
#
# Convention : Reuss Voigt Hill
#
# Bulk Modulus (GPa) = 43.10286 54.61284 48.85785
# Shear Modulus (GPa) = 34.77743 19.74915 27.26329
#
# Velocity S-wave (km/s) = 4.28846 3.23167 3.79701
# Velocity P-wave (km/s) = 6.87857 6.54256 6.71266
#
# Compressibility (1/GPa) = 0.02320031
#
# Stress axis : x y z
#
# Youngs Moduli (GPa) = 81.55997 94.40509 71.62407
#
# Poissons Ratio (x) = 0.61566 0.00522
# Poissons Ratio (y) = 0.53189 0.01527
# Poissons Ratio (z) = 0.00595 0.02012
#
# Static dielectric constant tensor:
#      x y z
#    x 1.666040 0.000000 0.000000 
#    y 0.000000 1.631840 0.000000 
#    z 0.000000 0.000000 1.709080 
# 
# From -- ./inp_files/18950.got.cif
#   From: 2010.05.17/outbox.cif.g08.bks.cpg/sg65_10_cif.got.tgz:18950.got - 2010.06.03 17:01:31.
