data_PCOD9486256
_publ_section_title
;
Structure prediction by ZEFSAII (Michael W. Deem and Ramdas Pophale) SiO2 
 PCOD9486256
Probable space group: C M M M
;
_chemical_formula_sum "Si O2"
_cell_formula_units_Z 104
_cell_length_a 8.834602
_cell_length_b 26.646048
_cell_length_c 22.650601
_cell_angle_alpha 90.000000
_cell_angle_beta 90.000000
_cell_angle_gamma 90.000000
_cell_volume 5332.115216
_symmetry_space_group_name_H-M "C M M M"
_symmetry_group_IT_number 65
_symmetry_cell_setting 'orthorhombic'
loop_
_space_group_symop_operation_xyz
x,y,z
-x,-y,z
x,-y,-z
-x,y,-z
-x,-y,-z
x,y,-z
-x,y,z
x,-y,z
1/2+x,1/2+y,z
1/2-x,1/2-y,z
1/2+x,1/2-y,-z
1/2-x,1/2+y,-z
1/2-x,1/2-y,-z
1/2+x,1/2+y,-z
1/2-x,1/2+y,z
1/2+x,1/2-y,z
loop_
_atom_site_type_symbol
_atom_site_label
_atom_site_fract_x
_atom_site_fract_y
_atom_site_fract_z
Si Si1 0.319023 0.412255 0.935018
Si Si2 0.681689 0.302213 0.648364
Si Si3 0.817738 0.336782 0.228899
Si Si4 0.825166 0.500000 0.428142
Si Si5 0.682039 0.054720 0.812582
Si Si6 0.818144 0.896186 0.568393
Si Si7 0.680102 0.300768 0.893773
O O1 0.500000 0.420126 0.929940
O O2 0.239355 0.437685 0.879493
O O3 0.292388 0.352271 0.929192
O O4 0.270134 0.429475 0.000000
O O5 0.500000 0.299277 0.650048
O O6 0.750000 0.250000 0.626347
O O7 0.745834 0.312742 0.713414
O O8 0.727601 0.348695 0.607074
O O9 0.771033 0.395605 0.223174
O O10 0.756396 0.310260 0.169977
O O11 0.000000 0.333311 0.230826
O O12 0.813989 0.500000 0.500000
O O13 0.747888 0.448567 0.408365
O O14 0.000000 0.500000 0.411414
O O15 0.500000 0.055107 0.812994
O O16 0.733418 0.000000 0.790509
O O17 0.770656 0.889761 0.500000
O O18 0.000000 0.899611 0.569197
O O19 0.500000 0.294975 0.887206
O O20 0.750000 0.250000 0.919695
#
# Coordination Sequence:
#
# PCOD9486256 Si02
#       7
#    16  16  16   8  16  16  16
#     4   9  19  34  50  72 103 136 170 209 255 311
#     4  11  23  38  57  82 113 146 186 229 274 328
#     4  10  20  36  56  76 103 137 176 218 268 323
#     4   9  17  31  55  85 113 143 183 229 270 313
#     4   9  19  36  56  77 102 133 171 215 264 316
#     4   9  19  37  59  82 113 153 190 226 274 330
#     4  10  19  32  51  73  99 132 172 215 262 311
#
# _framework density 19.504453999999999
#
# number of rings (size 3 to 8) (size 9 to 14) (size 15 to 20)
#    0.000    2.385    0.000    2.077    0.000    4.923 
#    1.385    1.538    0.000    0.000    0.000    0.000 
#    0.000    0.000    0.000    0.000    0.000    0.000 
#
# Total GULP energy -290307.026113 kJ/mol
# GULP energy per Si atom -5582.827425 kJ/mol
# Density = 1.946006 g / cm^3
# Si number density = 19.504454 Si / 1000 Ang^3
#
#
#
# Elastic Constant Matrix: (Units=GPa)
#
#
# Indices 1 2 3 4 5 6 
#
# 1 31.4343 31.3752 12.9045 0.0000 0.0000 0.0000
# 2 31.3752 133.5053 20.6466 0.0000 0.0000 0.0000
# 3 12.9045 20.6466 44.4705 0.0000 0.0000 0.0000
# 4 0.0000 0.0000 0.0000 -11.6615 0.0000 0.0000
# 5 0.0000 0.0000 0.0000 0.0000 16.0394 0.0000
# 6 0.0000 0.0000 0.0000 0.0000 0.0000 28.7806
#
#
#
# Elastic Compliance Matrix: (Units=1/GPa)
#
#
# Indices 1 2 3 4 5 6 
#
# 1 0.044464 -0.009108 -0.008674 0.000000 0.000000 0.000000
# 2 -0.009108 0.009935 -0.001970 0.000000 0.000000 0.000000
# 3 -0.008674 -0.001970 0.025918 0.000000 0.000000 0.000000
# 4 0.000000 0.000000 0.000000 -0.085753 0.000000 0.000000
# 5 0.000000 0.000000 0.000000 0.000000 0.062347 0.000000
# 6 0.000000 0.000000 0.000000 0.000000 0.000000 0.034746
#
#
# Mechanical properties :
#
#
# Convention : Reuss Voigt Hill
#
# Bulk Modulus (GPa) = 24.50123 37.69584 31.09854
# Shear Modulus (GPa) = 34.53844 16.26396 25.40120
#
# Velocity S-wave (km/s) = 4.21265 2.89079 3.61269
# Velocity P-wave (km/s) = 6.02088 5.52368 5.77763
#
# Compressibility (1/GPa) = 0.04081427
#
# Stress axis : x y z
#
# Youngs Moduli (GPa) = 22.48998 100.64936 38.58268
#
# Poissons Ratio (x) = 0.91673 0.33466
# Poissons Ratio (y) = 0.20484 0.07600
# Poissons Ratio (z) = 0.19508 0.19826
#
# Static dielectric constant tensor:
#      x y z
#    x 1.648650 0.000000 0.000000 
#    y 0.000000 1.714810 0.000000 
#    z 0.000000 0.000000 1.659230 
# 
# From -- ./inp_files/65858.got.cif
#   From: 2010.05.17/outbox.cif.g08.bks.cpg/sg65_33_cif.got.tgz:65858.got - 2010.06.03 17:01:31.
