data_PCOD9486588
_publ_section_title
;
Structure prediction by ZEFSAII (Michael W. Deem and Ramdas Pophale) SiO2 
 PCOD9486588
Probable space group: C M M M
;
_chemical_formula_sum "Si O2"
_cell_formula_units_Z 104
_cell_length_a 29.756768
_cell_length_b 8.755834
_cell_length_c 20.659425
_cell_angle_alpha 90.000000
_cell_angle_beta 90.000000
_cell_angle_gamma 90.000000
_cell_volume 5382.716518
_symmetry_space_group_name_H-M "C M M M"
_symmetry_group_IT_number 65
_symmetry_cell_setting 'orthorhombic'
loop_
_space_group_symop_operation_xyz
x,y,z
-x,-y,z
x,-y,-z
-x,y,-z
-x,-y,-z
x,y,-z
-x,y,z
x,-y,z
1/2+x,1/2+y,z
1/2-x,1/2-y,z
1/2+x,1/2-y,-z
1/2-x,1/2+y,-z
1/2-x,1/2-y,-z
1/2+x,1/2+y,-z
1/2-x,1/2+y,z
1/2+x,1/2-y,z
loop_
_atom_site_type_symbol
_atom_site_label
_atom_site_fract_x
_atom_site_fract_y
_atom_site_fract_z
Si Si1 0.448719 0.680653 0.612004
Si Si2 0.448140 0.813711 0.000000
Si Si3 0.298890 0.317082 0.167424
Si Si4 0.552049 0.179567 0.247661
Si Si5 0.858788 0.318675 0.570772
Si Si6 0.201295 0.817572 0.317054
Si Si7 0.889432 0.315670 0.876313
O O1 0.500000 0.721107 0.594537
O O2 0.442686 0.500000 0.602015
O O3 0.442842 0.721692 0.687858
O O4 0.410843 0.772825 0.574967
O O5 0.420300 0.767160 0.936522
O O6 0.500000 0.761723 0.000000
O O7 0.449476 0.000000 0.000000
O O8 0.297121 0.500000 0.164302
O O9 0.250000 0.250000 0.150499
O O10 0.308449 0.271268 0.242627
O O11 0.339855 0.254330 0.125122
O O12 0.500000 0.191089 0.225919
O O13 0.584858 0.225732 0.190039
O O14 0.560114 0.000000 0.263546
O O15 0.841026 0.270113 0.500000
O O16 0.853876 0.500000 0.576221
O O17 0.833996 0.241649 0.630895
O O18 0.250000 0.750000 0.333430
O O19 0.202865 0.000000 0.318932
O O20 0.885957 0.500000 0.877963
#
# Coordination Sequence:
#
# PCOD9486588 Si02
#       7
#    16   8  16  16  16  16  16
#     4  10  21  36  54  77 105 138 178 226 279 331
#     4   9  18  34  56  83 116 153 192 227 260 309
#     4  10  21  37  58  84 111 139 177 224 273 324
#     4   9  17  30  51  79 108 139 177 221 269 322
#     4  11  24  39  55  77 106 142 183 224 268 323
#     4  10  21  38  61  86 112 142 176 220 273 326
#     4  10  19  32  54  82 112 147 185 225 268 314
#
# _framework density 19.321099
#
# number of rings (size 3 to 8) (size 9 to 14) (size 15 to 20)
#    0.000    2.077    0.000    3.231    0.000    9.538 
#    0.000    2.308    0.000    1.846    0.000    0.000 
#    0.000    0.000    0.000    0.000    0.000    0.000 
#
# Total GULP energy -290452.547428 kJ/mol
# GULP energy per Si atom -5585.625912 kJ/mol
# Density = 1.927712 g / cm^3
# Si number density = 19.321099 Si / 1000 Ang^3
#
#
#
# Elastic Constant Matrix: (Units=GPa)
#
#
# Indices 1 2 3 4 5 6 
#
# 1 125.6033 25.4403 58.4613 0.0000 0.0000 0.0000
# 2 25.4403 22.5880 12.9469 0.0000 0.0000 0.0000
# 3 58.4613 12.9469 51.4227 0.0000 0.0000 0.0000
# 4 0.0000 0.0000 0.0000 11.7955 0.0000 0.0000
# 5 0.0000 0.0000 0.0000 0.0000 8.1502 0.0000
# 6 0.0000 0.0000 0.0000 0.0000 0.0000 34.2318
#
#
#
# Elastic Compliance Matrix: (Units=1/GPa)
#
#
# Indices 1 2 3 4 5 6 
#
# 1 0.018799 -0.010428 -0.018747 0.000000 0.000000 0.000000
# 2 -0.010428 0.057522 -0.002627 0.000000 0.000000 0.000000
# 3 -0.018747 -0.002627 0.041421 0.000000 0.000000 0.000000
# 4 0.000000 0.000000 0.000000 0.084778 0.000000 0.000000
# 5 0.000000 0.000000 0.000000 0.000000 0.122696 0.000000
# 6 0.000000 0.000000 0.000000 0.000000 0.000000 0.029213
#
#
# Mechanical properties :
#
#
# Convention : Reuss Voigt Hill
#
# Bulk Modulus (GPa) = 18.47131 43.70120 31.08625
# Shear Modulus (GPa) = 11.46580 17.68655 14.57618
#
# Velocity S-wave (km/s) = 2.43869 3.02884 2.74965
# Velocity P-wave (km/s) = 4.18456 5.90757 5.11908
#
# Compressibility (1/GPa) = 0.05413802
#
# Stress axis : x y z
#
# Youngs Moduli (GPa) = 53.19298 17.38471 24.14214
#
# Poissons Ratio (x) = 0.18129 0.45260
# Poissons Ratio (y) = 0.55469 0.06343
# Poissons Ratio (z) = 0.99722 0.04567
#
# Static dielectric constant tensor:
#      x y z
#    x 1.666670 0.000000 0.000000 
#    y 0.000000 1.649880 0.000000 
#    z 0.000000 0.000000 1.678620 
# 
# From -- ./inp_files/65905.got.cif
#   From: 2010.05.17/outbox.cif.g08.bks.cpg/sg65_33_cif.got.tgz:65905.got - 2010.06.03 17:01:31.
