data_PCOD9486543
_publ_section_title
;
Structure prediction by ZEFSAII (Michael W. Deem and Ramdas Pophale) SiO2 
 PCOD9486543
Probable space group: C M M M
;
_chemical_formula_sum "Si O2"
_cell_formula_units_Z 80
_cell_length_a 18.172436
_cell_length_b 23.776659
_cell_length_c 11.379364
_cell_angle_alpha 90.000000
_cell_angle_beta 90.000000
_cell_angle_gamma 90.000000
_cell_volume 4916.793480
_symmetry_space_group_name_H-M "C M M M"
_symmetry_group_IT_number 65
_symmetry_cell_setting 'orthorhombic'
loop_
_space_group_symop_operation_xyz
x,y,z
-x,-y,z
x,-y,-z
-x,y,-z
-x,-y,-z
x,y,-z
-x,y,z
x,-y,z
1/2+x,1/2+y,z
1/2-x,1/2-y,z
1/2+x,1/2-y,-z
1/2-x,1/2+y,-z
1/2-x,1/2-y,-z
1/2+x,1/2+y,-z
1/2-x,1/2+y,z
1/2+x,1/2-y,z
loop_
_atom_site_type_symbol
_atom_site_label
_atom_site_fract_x
_atom_site_fract_y
_atom_site_fract_z
Si Si1 0.643208 0.385723 0.246448
Si Si2 0.588830 0.567595 0.000000
Si Si3 0.583316 0.152567 0.357707
Si Si4 0.000000 0.062965 0.360737
Si Si5 0.335357 0.731893 0.637334
Si Si6 0.290374 0.065992 0.640294
O O1 0.573186 0.406673 0.319732
O O2 0.652103 0.320065 0.276391
O O3 0.716845 0.415951 0.292547
O O4 0.624458 0.403639 0.114218
O O5 0.601629 0.500000 0.000000
O O6 0.500000 0.575908 0.000000
O O7 0.580975 0.149564 0.500000
O O8 0.500000 0.144917 0.314232
O O9 0.615441 0.214173 0.330575
O O10 0.641394 0.104892 0.320949
O O11 0.000000 0.059544 0.500000
O O12 0.000000 0.000000 0.308789
O O13 0.351073 0.716127 0.500000
O O14 0.250000 0.750000 0.641083
O O15 0.278552 0.075715 0.500000
O O16 0.305488 0.000000 0.656546
#
# Coordination Sequence:
#
# PCOD9486543 Si02
#       6
#    16   8  16   8  16  16
#     4  12  22  36  56  79 107 148 191 229 275 337
#     4  11  24  42  57  74 109 157 197 236 283 337
#     4   9  18  31  49  77 113 149 179 213 271 340
#     4  11  22  33  51  83 117 142 174 228 287 344
#     4  10  19  34  56  83 115 146 179 226 283 338
#     4  10  19  32  53  80 109 141 180 229 281 332
#
# _framework density 16.270766999999999
#
# number of rings (size 3 to 8) (size 9 to 14) (size 15 to 20)
#    0.000    1.600    3.000    3.600    1.400    2.000 
#    0.000    2.500    0.000    0.000    0.000    0.700 
#    0.000    2.400    0.000    0.000    0.000    0.000 
#
# Total GULP energy -223218.162857 kJ/mol
# GULP energy per Si atom -5580.454071 kJ/mol
# Density = 1.623373 g / cm^3
# Si number density = 16.270767 Si / 1000 Ang^3
#
#
#
# Elastic Constant Matrix: (Units=GPa)
#
#
# Indices 1 2 3 4 5 6 
#
# 1 139.5877 73.3180 49.3315 0.0000 0.0000 0.0000
# 2 73.3180 132.8247 61.6822 0.0000 0.0000 0.0000
# 3 49.3315 61.6822 82.2265 0.0000 0.0000 0.0000
# 4 0.0000 0.0000 0.0000 28.4454 0.0000 0.0000
# 5 0.0000 0.0000 0.0000 0.0000 4.4841 0.0000
# 6 0.0000 0.0000 0.0000 0.0000 0.0000 20.9810
#
#
#
# Elastic Compliance Matrix: (Units=1/GPa)
#
#
# Indices 1 2 3 4 5 6 
#
# 1 0.010553 -0.004427 -0.003010 0.000000 0.000000 0.000000
# 2 -0.004427 0.013411 -0.007404 0.000000 0.000000 0.000000
# 3 -0.003010 -0.007404 0.019522 0.000000 0.000000 0.000000
# 4 0.000000 0.000000 0.000000 0.035155 0.000000 0.000000
# 5 0.000000 0.000000 0.000000 0.000000 0.223013 0.000000
# 6 0.000000 0.000000 0.000000 0.000000 0.000000 0.047662
#
#
# Mechanical properties :
#
#
# Convention : Reuss Voigt Hill
#
# Bulk Modulus (GPa) = 72.45008 80.36692 76.40850
# Shear Modulus (GPa) = 13.03442 22.13591 17.58517
#
# Velocity S-wave (km/s) = 2.83343 3.69246 3.29109
# Velocity P-wave (km/s) = 7.43834 8.22677 7.84247
#
# Compressibility (1/GPa) = 0.01380261
#
# Stress axis : x y z
#
# Youngs Moduli (GPa) = 94.75747 74.56606 51.22541
#
# Poissons Ratio (x) = 0.33013 0.15420
# Poissons Ratio (y) = 0.41953 0.37927
# Poissons Ratio (z) = 0.28524 0.55209
#
# Static dielectric constant tensor:
#      x y z
#    x 1.533250 0.000000 0.000000 
#    y 0.000000 1.547070 0.000000 
#    z 0.000000 0.000000 1.534700 
# 
# From -- ./inp_files/26704.got.cif
#   From: 2010.05.17/outbox.cif.g08.bks.cpg/sg65_14_cif.got.tgz:26704.got - 2010.06.03 17:01:31.
