data_PCOD9486578
_publ_section_title
;
Structure prediction by ZEFSAII (Michael W. Deem and Ramdas Pophale) SiO2 
 PCOD9486578
Probable space group: C M M M
;
_chemical_formula_sum "Si O2"
_cell_formula_units_Z 96
_cell_length_a 30.006274
_cell_length_b 20.501344
_cell_length_c 7.905027
_cell_angle_alpha 90.000000
_cell_angle_beta 90.000000
_cell_angle_gamma 90.000000
_cell_volume 4862.927123
_symmetry_space_group_name_H-M "C M M M"
_symmetry_group_IT_number 65
_symmetry_cell_setting 'orthorhombic'
loop_
_space_group_symop_operation_xyz
x,y,z
-x,-y,z
x,-y,-z
-x,y,-z
-x,-y,-z
x,y,-z
-x,y,z
x,-y,z
1/2+x,1/2+y,z
1/2-x,1/2-y,z
1/2+x,1/2-y,-z
1/2-x,1/2+y,-z
1/2-x,1/2-y,-z
1/2+x,1/2+y,-z
1/2-x,1/2+y,z
1/2+x,1/2-y,z
loop_
_atom_site_type_symbol
_atom_site_label
_atom_site_fract_x
_atom_site_fract_y
_atom_site_fract_z
Si Si1 0.793194 0.668630 0.198040
Si Si2 0.198279 0.815756 0.305047
Si Si3 0.946811 0.929254 0.199794
Si Si4 0.948678 0.675315 0.704064
Si Si5 0.127023 0.574563 0.204133
Si Si6 0.898012 0.803823 0.303245
O O1 0.797747 0.736981 0.294828
O O2 0.740987 0.652057 0.217093
O O3 0.829361 0.616056 0.258998
O O4 0.802077 0.681520 0.000000
O O5 0.199557 0.837036 0.500000
O O6 0.149407 0.825081 0.226979
O O7 0.928824 0.866491 0.292659
O O8 0.000000 0.929814 0.214573
O O9 0.930008 0.000000 0.260219
O O10 0.936343 0.923465 0.000000
O O11 0.950967 0.680324 0.500000
O O12 0.917465 0.613968 0.746924
O O13 0.922854 0.740198 0.768968
O O14 0.000000 0.671387 0.765345
O O15 0.127233 0.500000 0.266699
O O16 0.128755 0.572340 0.000000
O O17 0.888593 0.787948 0.500000
#
# Coordination Sequence:
#
# PCOD9486578 Si02
#       6
#    16  16  16  16  16  16
#     4  10  19  33  54  79 105 136 175 216 261 317
#     4  10  19  32  54  80 108 136 169 215 265 315
#     4   9  19  35  53  75 105 141 180 220 264 317
#     4  10  21  37  56  80 110 143 184 231 277 326
#     4  10  22  39  57  78 108 146 186 229 277 329
#     4  10  20  34  54  81 111 143 177 221 269 318
#
# _framework density 19.741198000000001
#
# number of rings (size 3 to 8) (size 9 to 14) (size 15 to 20)
#    0.000    2.167    1.667    3.000    0.000    5.000 
#    0.000    3.333    0.000    3.000    0.000    0.000 
#    0.000    0.000    0.000    0.000    0.000    0.000 
#
# Total GULP energy -267595.395552 kJ/mol
# GULP energy per Si atom -5574.904074 kJ/mol
# Density = 1.969627 g / cm^3
# Si number density = 19.741198 Si / 1000 Ang^3
#
#
#
# Elastic Constant Matrix: (Units=GPa)
#
#
# Indices 1 2 3 4 5 6 
#
# 1 134.5989 49.8665 9.4290 0.0000 0.0000 0.0000
# 2 49.8665 92.4834 -0.5987 0.0000 0.0000 0.0000
# 3 9.4290 -0.5987 21.0431 0.0000 0.0000 0.0000
# 4 0.0000 0.0000 0.0000 14.6550 0.0000 0.0000
# 5 0.0000 0.0000 0.0000 0.0000 24.3753 0.0000
# 6 0.0000 0.0000 0.0000 0.0000 0.0000 27.5555
#
#
#
# Elastic Compliance Matrix: (Units=1/GPa)
#
#
# Indices 1 2 3 4 5 6 
#
# 1 0.009691 -0.005254 -0.004492 0.000000 0.000000 0.000000
# 2 -0.005254 0.013664 0.002743 0.000000 0.000000 0.000000
# 3 -0.004492 0.002743 0.049612 0.000000 0.000000 0.000000
# 4 0.000000 0.000000 0.000000 0.068236 0.000000 0.000000
# 5 0.000000 0.000000 0.000000 0.000000 0.041025 0.000000
# 6 0.000000 0.000000 0.000000 0.000000 0.000000 0.036290
#
#
# Mechanical properties :
#
#
# Convention : Reuss Voigt Hill
#
# Bulk Modulus (GPa) = 16.96047 40.61321 28.78684
# Shear Modulus (GPa) = 19.82732 25.94574 22.88653
#
# Velocity S-wave (km/s) = 3.17261 3.62925 3.40858
# Velocity P-wave (km/s) = 4.69368 6.17895 5.48681
#
# Compressibility (1/GPa) = 0.05896065
#
# Stress axis : x y z
#
# Youngs Moduli (GPa) = 103.19116 73.18722 20.15636
#
# Poissons Ratio (x) = 0.38455 0.09054
# Poissons Ratio (y) = 0.54219 -0.05529
# Poissons Ratio (z) = 0.46351 -0.20076
#
# Static dielectric constant tensor:
#      x y z
#    x 1.755690 0.000000 0.000000 
#    y 0.000000 1.672420 0.000000 
#    z 0.000000 0.000000 1.716030 
# 
# From -- ./inp_files/16306.got.cif
#   From: 2010.05.17/outbox.cif.g08.bks.cpg/sg65_9_cif.got.tgz:16306.got - 2010.06.03 17:01:31.
