data_PCOD9486505
_publ_section_title
;
Structure prediction by ZEFSAII (Michael W. Deem and Ramdas Pophale) SiO2 
 PCOD9486505
Probable space group: C M M M
;
_chemical_formula_sum "Si O2"
_cell_formula_units_Z 120
_cell_length_a 19.224807
_cell_length_b 17.361428
_cell_length_c 22.842323
_cell_angle_alpha 90.000000
_cell_angle_beta 90.000000
_cell_angle_gamma 90.000000
_cell_volume 7624.084490
_symmetry_space_group_name_H-M "C M M M"
_symmetry_group_IT_number 65
_symmetry_cell_setting 'orthorhombic'
loop_
_space_group_symop_operation_xyz
x,y,z
-x,-y,z
x,-y,-z
-x,y,-z
-x,-y,-z
x,y,-z
-x,y,z
x,-y,z
1/2+x,1/2+y,z
1/2-x,1/2-y,z
1/2+x,1/2-y,-z
1/2-x,1/2+y,-z
1/2-x,1/2-y,-z
1/2+x,1/2+y,-z
1/2-x,1/2+y,z
1/2+x,1/2-y,z
loop_
_atom_site_type_symbol
_atom_site_label
_atom_site_fract_x
_atom_site_fract_y
_atom_site_fract_z
Si Si1 0.329103 0.720497 0.566847
Si Si2 0.170083 0.271771 0.826357
Si Si3 0.322072 0.909116 0.732406
Si Si4 0.415852 0.169849 0.930886
Si Si5 0.921342 0.823708 0.259978
Si Si6 0.177883 0.088657 0.663286
Si Si7 0.578173 0.000000 0.929389
Si Si8 0.579032 0.819920 0.350651
O O1 0.349306 0.703582 0.500000
O O2 0.250000 0.750000 0.567569
O O3 0.330210 0.646069 0.608755
O O4 0.377496 0.786746 0.594917
O O5 0.250000 0.250000 0.835879
O O6 0.168707 0.350294 0.786845
O O7 0.127419 0.279504 0.886347
O O8 0.130600 0.206156 0.789547
O O9 0.248100 0.893460 0.700274
O O10 0.380376 0.886215 0.684483
O O11 0.325596 0.000000 0.747875
O O12 0.500000 0.174156 0.922058
O O13 0.391296 0.082548 0.915545
O O14 0.403932 0.183889 0.000000
O O15 0.886724 0.894393 0.293920
O O16 0.923413 0.752587 0.305906
O O17 0.000000 0.837843 0.239764
O O18 0.181103 0.000000 0.645246
O O19 0.500000 0.000000 0.904600
O O20 0.572143 0.000000 0.000000
O O21 0.500000 0.841175 0.365470
#
# Coordination Sequence:
#
# PCOD9486505 Si02
#       8
#    16  16  16  16  16  16   8  16
#     4  10  19  32  53  76  98 132 173 209 249 302
#     4  11  20  31  50  74 102 134 166 211 251 295
#     4  10  20  33  50  73 101 134 169 208 254 302
#     4   9  18  32  49  70 100 135 168 204 248 300
#     4   9  18  32  50  72  97 130 165 197 244 303
#     4  10  19  33  53  74 100 131 163 208 260 303
#     4   7  12  26  46  66  90 124 159 191 236 290
#     4   9  18  32  51  72  99 133 164 201 249 299
#
# _framework density 15.739595
#
# number of rings (size 3 to 8) (size 9 to 14) (size 15 to 20)
#    0.000    2.467    2.667    1.200    0.933    1.867 
#    0.000    0.000    0.000    0.400    0.000    4.667 
#    0.000    0.000    0.000    4.533    0.000    0.000 
#
# Total GULP energy -334023.649761 kJ/mol
# GULP energy per Si atom -5567.060829 kJ/mol
# Density = 1.570377 g / cm^3
# Si number density = 15.739595 Si / 1000 Ang^3
#
#
#
# Elastic Constant Matrix: (Units=GPa)
#
#
# Indices 1 2 3 4 5 6 
#
# 1 102.0711 17.2326 44.3129 0.0000 0.0000 0.0000
# 2 17.2326 45.8293 33.0498 0.0000 0.0000 0.0000
# 3 44.3129 33.0498 95.2391 0.0000 0.0000 0.0000
# 4 0.0000 0.0000 0.0000 16.8777 0.0000 0.0000
# 5 0.0000 0.0000 0.0000 0.0000 15.2981 0.0000
# 6 0.0000 0.0000 0.0000 0.0000 0.0000 15.9439
#
#
#
# Elastic Compliance Matrix: (Units=1/GPa)
#
#
# Indices 1 2 3 4 5 6 
#
# 1 0.012292 -0.000664 -0.005489 0.000000 0.000000 0.000000
# 2 -0.000664 0.029139 -0.009803 0.000000 0.000000 0.000000
# 3 -0.005489 -0.009803 0.016456 0.000000 0.000000 0.000000
# 4 0.000000 0.000000 0.000000 0.059250 0.000000 0.000000
# 5 0.000000 0.000000 0.000000 0.000000 0.065368 0.000000
# 6 0.000000 0.000000 0.000000 0.000000 0.000000 0.062720
#
#
# Mechanical properties :
#
#
# Convention : Reuss Voigt Hill
#
# Bulk Modulus (GPa) = 38.49780 48.03669 43.26725
# Shear Modulus (GPa) = 17.49509 19.52686 18.51098
#
# Velocity S-wave (km/s) = 3.33758 3.52607 3.43312
# Velocity P-wave (km/s) = 6.27415 6.86756 6.57755
#
# Compressibility (1/GPa) = 0.02597551
#
# Stress axis : x y z
#
# Youngs Moduli (GPa) = 81.35300 34.31808 60.76933
#
# Poissons Ratio (x) = 0.02278 0.33356
# Poissons Ratio (y) = 0.05399 0.59573
# Poissons Ratio (z) = 0.44655 0.33642
#
# Static dielectric constant tensor:
#      x y z
#    x 1.529620 0.000000 0.000000 
#    y 0.000000 1.523090 0.000000 
#    z 0.000000 0.000000 1.514030 
# 
# From -- ./inp_files/64012.got.cif
#   From: 2010.05.17/outbox.cif.g08.bks.cpg/sg65_33_cif.got.tgz:64012.got - 2010.06.03 17:01:31.
