data_PCOD9486865
_publ_section_title
;
Structure prediction by ZEFSAII (Michael W. Deem and Ramdas Pophale) SiO2 
 PCOD9486865
Probable space group: C M M M
;
_chemical_formula_sum "Si O2"
_cell_formula_units_Z 88
_cell_length_a 18.688455
_cell_length_b 8.594087
_cell_length_c 30.331790
_cell_angle_alpha 90.000000
_cell_angle_beta 90.000000
_cell_angle_gamma 90.000000
_cell_volume 4871.595106
_symmetry_space_group_name_H-M "C M M M"
_symmetry_group_IT_number 65
_symmetry_cell_setting 'orthorhombic'
loop_
_space_group_symop_operation_xyz
x,y,z
-x,-y,z
x,-y,-z
-x,y,-z
-x,-y,-z
x,y,-z
-x,y,z
x,-y,z
1/2+x,1/2+y,z
1/2-x,1/2-y,z
1/2+x,1/2-y,-z
1/2-x,1/2+y,-z
1/2-x,1/2-y,-z
1/2+x,1/2+y,-z
1/2-x,1/2+y,z
1/2+x,1/2-y,z
loop_
_atom_site_type_symbol
_atom_site_label
_atom_site_fract_x
_atom_site_fract_y
_atom_site_fract_z
Si Si1 0.668404 0.186167 0.952038
Si Si2 0.168573 0.813825 0.861933
Si Si3 0.331120 0.187033 0.596327
Si Si4 0.169016 0.312628 0.500000
Si Si5 0.830770 0.187919 0.765156
Si Si6 0.082338 0.811739 0.320640
O O1 0.750000 0.250000 0.952606
O O2 0.634442 0.249424 0.906908
O O3 0.671243 0.000000 0.949517
O O4 0.636648 0.229875 0.000000
O O5 0.250000 0.750000 0.861133
O O6 0.139223 0.768506 0.813696
O O7 0.170461 0.000000 0.864923
O O8 0.250000 0.250000 0.599888
O O9 0.361067 0.234883 0.547775
O O10 0.377199 0.250987 0.636386
O O11 0.329083 0.000000 0.598314
O O12 0.170567 0.500000 0.500000
O O13 0.250000 0.250000 0.500000
O O14 0.750000 0.250000 0.760932
O O15 0.877732 0.240935 0.723911
O O16 0.827653 0.000000 0.764256
O O17 0.000000 0.761909 0.320588
O O18 0.084307 0.000000 0.321137
#
# Coordination Sequence:
#
# PCOD9486865 Si02
#       6
#    16  16  16   8  16  16
#     4   9  15  21  30  47  74 107 139 170 210 261
#     4   9  15  23  36  54  77 105 140 179 218 263
#     4  10  19  33  54  78 102 128 161 197 235 280
#     4   8  16  30  49  74 101 127 155 193 235 274
#     4   9  18  31  47  67  89 117 153 192 234 278
#     4  10  21  36  51  69  97 130 162 198 241 286
#
# _framework density 18.0639
#
# number of rings (size 3 to 8) (size 9 to 14) (size 15 to 20)
#    0.000    2.727    0.000    3.273    0.000    5.091 
#    0.000    0.455    0.000    2.727    0.000    0.000 
#    0.000    0.727    0.000    9.091    0.000    4.909 
#
# Total GULP energy -244962.656037 kJ/mol
# GULP energy per Si atom -5567.333092 kJ/mol
# Density = 1.802279 g / cm^3
# Si number density = 18.063900 Si / 1000 Ang^3
#
#
#
# Elastic Constant Matrix: (Units=GPa)
#
#
# Indices 1 2 3 4 5 6 
#
# 1 49.0605 12.9997 66.5847 0.0000 0.0000 0.0000
# 2 12.9997 27.9339 41.2311 0.0000 0.0000 0.0000
# 3 66.5847 41.2311 249.1568 0.0000 0.0000 0.0000
# 4 0.0000 0.0000 0.0000 41.8025 0.0000 0.0000
# 5 0.0000 0.0000 0.0000 0.0000 -3.9766 0.0000
# 6 0.0000 0.0000 0.0000 0.0000 0.0000 11.6989
#
#
#
# Elastic Compliance Matrix: (Units=1/GPa)
#
#
# Indices 1 2 3 4 5 6 
#
# 1 0.032175 -0.003019 -0.008099 0.000000 0.000000 0.000000
# 2 -0.003019 0.047652 -0.007079 0.000000 0.000000 0.000000
# 3 -0.008099 -0.007079 0.007349 0.000000 0.000000 0.000000
# 4 0.000000 0.000000 0.000000 0.023922 0.000000 0.000000
# 5 0.000000 0.000000 0.000000 0.000000 -0.251473 0.000000
# 6 0.000000 0.000000 0.000000 0.000000 0.000000 0.085478
#
#
# Mechanical properties :
#
#
# Convention : Reuss Voigt Hill
#
# Bulk Modulus (GPa) = 19.69180 63.08691 41.38935
# Shear Modulus (GPa) = -3173.38386 23.59401 -1574.89493
#
# Velocity S-wave (km/s) = -41.95913 3.61798 -29.55908
# Velocity P-wave (km/s) = 48.33735 7.24245 33.79383
#
# Compressibility (1/GPa) = 0.05078256
#
# Stress axis : x y z
#
# Youngs Moduli (GPa) = 31.08051 20.98533 136.06861
#
# Poissons Ratio (x) = 0.06336 1.10197
# Poissons Ratio (y) = 0.09384 0.96319
# Poissons Ratio (z) = 0.25171 0.14855
#
# Static dielectric constant tensor:
#      x y z
#    x 1.561290 0.000000 0.000000 
#    y 0.000000 1.617550 0.000000 
#    z 0.000000 0.000000 1.706510 
# 
# From -- ./inp_files/77947.got.cif
#   From: 2010.05.17/outbox.cif.g08.bks.cpg/sg65_39_cif.got.tgz:77947.got - 2010.06.03 17:01:31.
