data_PCOD9486237
_publ_section_title
;
Structure prediction by ZEFSAII (Michael W. Deem and Ramdas Pophale) SiO2 
 PCOD9486237
Probable space group: C M M M
;
_chemical_formula_sum "Si O2"
_cell_formula_units_Z 104
_cell_length_a 18.700590
_cell_length_b 16.438525
_cell_length_c 19.284796
_cell_angle_alpha 90.000000
_cell_angle_beta 90.000000
_cell_angle_gamma 90.000000
_cell_volume 5928.341380
_symmetry_space_group_name_H-M "C M M M"
_symmetry_group_IT_number 65
_symmetry_cell_setting 'orthorhombic'
loop_
_space_group_symop_operation_xyz
x,y,z
-x,-y,z
x,-y,-z
-x,y,-z
-x,-y,-z
x,y,-z
-x,y,z
x,-y,z
1/2+x,1/2+y,z
1/2-x,1/2-y,z
1/2+x,1/2-y,-z
1/2-x,1/2+y,-z
1/2-x,1/2-y,-z
1/2+x,1/2+y,-z
1/2-x,1/2+y,z
1/2+x,1/2-y,z
loop_
_atom_site_type_symbol
_atom_site_label
_atom_site_fract_x
_atom_site_fract_y
_atom_site_fract_z
Si Si1 0.704166 0.910708 0.731935
Si Si2 0.845599 0.907009 0.183333
Si Si3 0.919026 0.340993 0.811008
Si Si4 0.678567 0.209026 0.392422
Si Si5 0.412297 0.900259 0.500000
Si Si6 0.835560 0.761748 0.081301
Si Si7 0.919872 0.190180 0.701998
O O1 0.764771 0.895794 0.789125
O O2 0.628717 0.905904 0.770900
O O3 0.706406 0.843035 0.673168
O O4 0.715984 0.000000 0.701550
O O5 0.857327 0.844449 0.121000
O O6 0.891520 0.883277 0.251029
O O7 0.857100 0.000000 0.163095
O O8 0.877925 0.309224 0.878787
O O9 0.920372 0.265146 0.756964
O O10 0.000000 0.365664 0.825297
O O11 0.750000 0.250000 0.424313
O O12 0.628100 0.147116 0.436528
O O13 0.629735 0.280885 0.360786
O O14 0.500000 0.888439 0.500000
O O15 0.401161 0.000000 0.500000
O O16 0.750000 0.750000 0.089165
O O17 0.851979 0.764157 0.000000
O O18 0.000000 0.175706 0.677627
#
# Coordination Sequence:
#
# PCOD9486237 Si02
#       7
#    16  16  16  16   8  16  16
#     4  10  19  32  53  81 109 138 175 222 274 321
#     4  10  19  32  52  77 107 138 171 220 274 323
#     4   9  18  31  50  74 101 136 177 222 269 320
#     4  11  20  36  60  85 111 146 185 223 265 321
#     4  11  25  42  58  82 119 155 186 226 272 319
#     4  10  19  32  51  72  98 138 183 226 272 327
#     4   9  18  32  53  80 106 138 175 215 265 318
#
# _framework density 17.542850000000001
#
# number of rings (size 3 to 8) (size 9 to 14) (size 15 to 20)
#    0.000    2.077    3.077    1.154    0.000    1.846 
#    0.000    0.000    0.000    0.462    0.000    5.385 
#    0.000    4.308    0.000    0.000    0.000    0.000 
#
# Total GULP energy -289607.169808 kJ/mol
# GULP energy per Si atom -5569.368650 kJ/mol
# Density = 1.750292 g / cm^3
# Si number density = 17.542850 Si / 1000 Ang^3
#
#
#
# Elastic Constant Matrix: (Units=GPa)
#
#
# Indices 1 2 3 4 5 6 
#
# 1 112.3952 14.0570 30.1757 0.0000 0.0000 0.0000
# 2 14.0570 56.6435 31.1093 0.0000 0.0000 0.0000
# 3 30.1757 31.1093 65.5714 0.0000 0.0000 0.0000
# 4 0.0000 0.0000 0.0000 13.3607 0.0000 0.0000
# 5 0.0000 0.0000 0.0000 0.0000 15.2084 0.0000
# 6 0.0000 0.0000 0.0000 0.0000 0.0000 13.5779
#
#
#
# Elastic Compliance Matrix: (Units=1/GPa)
#
#
# Indices 1 2 3 4 5 6 
#
# 1 0.010152 0.000063 -0.004702 0.000000 0.000000 0.000000
# 2 0.000063 0.023876 -0.011356 0.000000 0.000000 0.000000
# 3 -0.004702 -0.011356 0.022802 0.000000 0.000000 0.000000
# 4 0.000000 0.000000 0.000000 0.074847 0.000000 0.000000
# 5 0.000000 0.000000 0.000000 0.000000 0.065753 0.000000
# 6 0.000000 0.000000 0.000000 0.000000 0.000000 0.073649
#
#
# Mechanical properties :
#
#
# Convention : Reuss Voigt Hill
#
# Bulk Modulus (GPa) = 40.25892 42.81046 41.53469
# Shear Modulus (GPa) = 16.05920 19.04727 17.55323
#
# Velocity S-wave (km/s) = 3.02888 3.29866 3.16664
# Velocity P-wave (km/s) = 5.93556 6.24216 6.09079
#
# Compressibility (1/GPa) = 0.02483921
#
# Stress axis : x y z
#
# Youngs Moduli (GPa) = 98.50687 41.88353 43.85574
#
# Poissons Ratio (x) = -0.00263 0.20619
# Poissons Ratio (y) = -0.00619 0.49804
# Poissons Ratio (z) = 0.46313 0.47565
#
# Static dielectric constant tensor:
#      x y z
#    x 1.627360 0.000000 0.000000 
#    y 0.000000 1.587110 0.000000 
#    z 0.000000 0.000000 1.593790 
# 
# From -- ./inp_files/54597.got.cif
#   From: 2010.05.17/outbox.cif.g08.bks.cpg/sg65_28_cif.got.tgz:54597.got - 2010.06.03 17:01:31.
