data_PCOD9486433
_publ_section_title
;
Structure prediction by ZEFSAII (Michael W. Deem and Ramdas Pophale) SiO2 
 PCOD9486433
Probable space group: C M M M
;
_chemical_formula_sum "Si O2"
_cell_formula_units_Z 96
_cell_length_a 8.955462
_cell_length_b 32.954317
_cell_length_c 15.402988
_cell_angle_alpha 90.000000
_cell_angle_beta 90.000000
_cell_angle_gamma 90.000000
_cell_volume 4545.747280
_symmetry_space_group_name_H-M "C M M M"
_symmetry_group_IT_number 65
_symmetry_cell_setting 'orthorhombic'
loop_
_space_group_symop_operation_xyz
x,y,z
-x,-y,z
x,-y,-z
-x,y,-z
-x,-y,-z
x,y,-z
-x,y,z
x,-y,z
1/2+x,1/2+y,z
1/2-x,1/2-y,z
1/2+x,1/2-y,-z
1/2-x,1/2+y,-z
1/2-x,1/2-y,-z
1/2+x,1/2+y,-z
1/2-x,1/2+y,z
1/2+x,1/2-y,z
loop_
_atom_site_type_symbol
_atom_site_label
_atom_site_fract_x
_atom_site_fract_y
_atom_site_fract_z
Si Si1 0.676377 0.456818 0.641883
Si Si2 0.180144 0.870353 0.655978
Si Si3 0.832933 0.789787 0.102733
Si Si4 0.324161 0.455021 0.853448
Si Si5 0.677982 0.127648 0.847103
Si Si6 0.166698 0.710771 0.397267
O O1 0.500000 0.458095 0.621076
O O2 0.742783 0.500000 0.612654
O O3 0.730171 0.412796 0.611580
O O4 0.687305 0.455861 0.747536
O O5 0.254854 0.870585 0.750348
O O6 0.236493 0.829523 0.612811
O O7 0.000000 0.870858 0.662766
O O8 0.750000 0.750000 0.139227
O O9 0.741114 0.831239 0.111655
O O10 0.000000 0.794570 0.140280
O O11 0.848688 0.782754 0.000000
O O12 0.500000 0.450783 0.873665
O O13 0.274546 0.500000 0.883398
O O14 0.238047 0.415158 0.885001
O O15 0.500000 0.127587 0.847426
O O16 0.150828 0.717783 0.500000
O O17 0.250000 0.750000 0.359632
O O18 0.000000 0.705498 0.360047
#
# Coordination Sequence:
#
# PCOD9486433 Si02
#       6
#    16  16  16  16  16  16
#     4   7  11  22  42  68  96 126 160 198 238 281
#     4  10  19  32  52  77 104 133 169 210 251 295
#     4  10  21  38  58  77  99 130 169 210 254 306
#     4   8  14  27  47  70  99 135 172 208 248 296
#     4  11  21  32  50  78 110 138 168 208 254 301
#     4  10  21  37  55  74  98 129 166 207 254 309
#
# _framework density 21.118639000000002
#
# number of rings (size 3 to 8) (size 9 to 14) (size 15 to 20)
#    0.000    2.667    0.000    5.000    0.000    3.000 
#    0.000    3.333    0.000    2.500    0.000    7.000 
#    0.000    0.000    0.000    0.000    0.000    0.000 
#
# Total GULP energy -267549.914561 kJ/mol
# GULP energy per Si atom -5573.956553 kJ/mol
# Density = 2.107057 g / cm^3
# Si number density = 21.118639 Si / 1000 Ang^3
#
#
#
# Elastic Constant Matrix: (Units=GPa)
#
#
# Indices 1 2 3 4 5 6 
#
# 1 137.0804 93.6498 7.4212 0.0000 0.0000 0.0000
# 2 93.6498 235.0059 8.3851 0.0000 0.0000 0.0000
# 3 7.4212 8.3851 22.2185 0.0000 0.0000 0.0000
# 4 0.0000 0.0000 0.0000 8.7430 0.0000 0.0000
# 5 0.0000 0.0000 0.0000 0.0000 12.5656 0.0000
# 6 0.0000 0.0000 0.0000 0.0000 0.0000 25.5993
#
#
#
# Elastic Compliance Matrix: (Units=1/GPa)
#
#
# Indices 1 2 3 4 5 6 
#
# 1 0.010101 -0.003958 -0.001880 0.000000 0.000000 0.000000
# 2 -0.003958 0.005864 -0.000891 0.000000 0.000000 0.000000
# 3 -0.001880 -0.000891 0.045972 0.000000 0.000000 0.000000
# 4 0.000000 0.000000 0.000000 0.114377 0.000000 0.000000
# 5 0.000000 0.000000 0.000000 0.000000 0.079582 0.000000
# 6 0.000000 0.000000 0.000000 0.000000 0.000000 0.039064
#
#
# Mechanical properties :
#
#
# Convention : Reuss Voigt Hill
#
# Bulk Modulus (GPa) = 20.62773 68.13523 44.38148
# Shear Modulus (GPa) = 15.40466 28.37152 21.88809
#
# Velocity S-wave (km/s) = 2.70373 3.66927 3.22286
# Velocity P-wave (km/s) = 4.41992 7.09115 5.90847
#
# Compressibility (1/GPa) = 0.04847844
#
# Stress axis : x y z
#
# Youngs Moduli (GPa) = 99.00169 170.52303 21.75250
#
# Poissons Ratio (x) = 0.67495 0.04089
# Poissons Ratio (y) = 0.39186 0.01938
# Poissons Ratio (z) = 0.18612 0.15196
#
# Static dielectric constant tensor:
#      x y z
#    x 1.739530 0.000000 0.000000 
#    y 0.000000 1.815680 0.000000 
#    z 0.000000 0.000000 1.790960 
# 
# From -- ./inp_files/60310.got.cif
#   From: 2010.05.17/outbox.cif.g08.bks.cpg/sg65_31_cif.got.tgz:60310.got - 2010.06.03 17:01:31.
