data_PCOD9486690
_publ_section_title
;
Structure prediction by ZEFSAII (Michael W. Deem and Ramdas Pophale) SiO2 
 PCOD9486690
Probable space group: C M M M
;
_chemical_formula_sum "Si O2"
_cell_formula_units_Z 104
_cell_length_a 25.183746
_cell_length_b 23.532741
_cell_length_c 7.593035
_cell_angle_alpha 90.000000
_cell_angle_beta 90.000000
_cell_angle_gamma 90.000000
_cell_volume 4499.955792
_symmetry_space_group_name_H-M "C M M M"
_symmetry_group_IT_number 65
_symmetry_cell_setting 'orthorhombic'
loop_
_space_group_symop_operation_xyz
x,y,z
-x,-y,z
x,-y,-z
-x,y,-z
-x,-y,-z
x,y,-z
-x,y,z
x,-y,z
1/2+x,1/2+y,z
1/2-x,1/2-y,z
1/2+x,1/2-y,-z
1/2-x,1/2+y,-z
1/2-x,1/2-y,-z
1/2+x,1/2+y,-z
1/2-x,1/2+y,z
1/2+x,1/2-y,z
loop_
_atom_site_type_symbol
_atom_site_label
_atom_site_fract_x
_atom_site_fract_y
_atom_site_fract_z
Si Si1 0.168421 0.405171 0.197911
Si Si2 0.061900 0.000000 0.714545
Si Si3 0.414618 0.262996 0.299150
Si Si4 0.281854 0.562326 0.212615
Si Si5 0.200906 0.284287 0.703285
Si Si6 0.942199 0.634887 0.791777
Si Si7 0.612040 0.617472 0.710494
O O1 0.221159 0.432587 0.279747
O O2 0.186892 0.339823 0.189952
O O3 0.109774 0.397892 0.281913
O O4 0.162084 0.428781 0.000000
O O5 0.087896 0.941481 0.779156
O O6 0.067074 0.000000 0.500000
O O7 0.000000 0.000000 0.756610
O O8 0.434689 0.264380 0.500000
O O9 0.351269 0.253771 0.302285
O O10 0.435965 0.203574 0.223234
O O11 0.417522 0.326048 0.218377
O O12 0.302170 0.500000 0.268498
O O13 0.324370 0.610307 0.263348
O O14 0.278609 0.563737 0.000000
O O15 0.212849 0.301257 0.500000
O O16 0.250000 0.250000 0.775420
O O17 0.000000 0.619231 0.718704
O O18 0.941996 0.622714 0.000000
O O19 0.603923 0.620130 0.500000
#
# Coordination Sequence:
#
# PCOD9486690 Si02
#       7
#    16   8  16  16  16  16  16
#     4   9  18  31  47  68  93 124 160 196 239 292
#     4   9  18  32  49  69  93 123 162 203 238 274
#     4   9  18  29  45  70  96 122 155 195 237 282
#     4  10  20  33  50  72  99 129 161 202 250 295
#     4   9  16  27  42  64  94 122 148 185 233 282
#     4   9  18  33  51  70  95 128 164 200 240 290
#     4  10  19  33  52  73  96 127 165 203 242 284
#
# _framework density 23.111336999999999
#
# number of rings (size 3 to 8) (size 9 to 14) (size 15 to 20)
#    0.000    2.692    0.769    0.923    0.000    3.692 
#    0.000    4.615    0.000    1.385    0.000    3.231 
#    0.000    0.000    0.000    9.077    0.000    9.538 
#
# Total GULP energy -289768.939188 kJ/mol
# GULP energy per Si atom -5572.479600 kJ/mol
# Density = 2.305873 g / cm^3
# Si number density = 23.111337 Si / 1000 Ang^3
#
#
#
# Elastic Constant Matrix: (Units=GPa)
#
#
# Indices 1 2 3 4 5 6 
#
# 1 113.4122 -8.7686 -7.2611 0.0000 0.0000 0.0000
# 2 -8.7686 47.6139 -0.9185 0.0000 0.0000 0.0000
# 3 -7.2611 -0.9185 54.7197 0.0000 0.0000 0.0000
# 4 0.0000 0.0000 0.0000 5.2024 0.0000 0.0000
# 5 0.0000 0.0000 0.0000 0.0000 7.7864 0.0000
# 6 0.0000 0.0000 0.0000 0.0000 0.0000 19.8037
#
#
#
# Elastic Compliance Matrix: (Units=1/GPa)
#
#
# Indices 1 2 3 4 5 6 
#
# 1 0.009026 0.001686 0.001226 0.000000 0.000000 0.000000
# 2 0.001686 0.021324 0.000582 0.000000 0.000000 0.000000
# 3 0.001226 0.000582 0.018447 0.000000 0.000000 0.000000
# 4 0.000000 0.000000 0.000000 0.192219 0.000000 0.000000
# 5 0.000000 0.000000 0.000000 0.000000 0.128430 0.000000
# 6 0.000000 0.000000 0.000000 0.000000 0.000000 0.050496
#
#
# Mechanical properties :
#
#
# Convention : Reuss Voigt Hill
#
# Bulk Modulus (GPa) = 17.92601 20.20549 19.06575
# Shear Modulus (GPa) = 11.58615 22.07143 16.82879
#
# Velocity S-wave (km/s) = 2.24144 3.09367 2.70137
# Velocity P-wave (km/s) = 3.80420 4.63926 4.24233
#
# Compressibility (1/GPa) = 0.05578487
#
# Stress axis : x y z
#
# Youngs Moduli (GPa) = 110.78812 46.89561 54.20811
#
# Poissons Ratio (x) = -0.07906 -0.06646
# Poissons Ratio (y) = -0.18678 -0.03153
# Poissons Ratio (z) = -0.13583 -0.02728
#
# Static dielectric constant tensor:
#      x y z
#    x 1.911890 0.000000 0.000000 
#    y 0.000000 1.888930 0.000000 
#    z 0.000000 0.000000 1.896830 
# 
# From -- ./inp_files/16759.got.cif
#   From: 2010.05.17/outbox.cif.g08.bks.cpg/sg65_9_cif.got.tgz:16759.got - 2010.06.03 17:01:31.
