data_PCOD9486833
_publ_section_title
;
Structure prediction by ZEFSAII (Michael W. Deem and Ramdas Pophale) SiO2 
 PCOD9486833
Probable space group: C M M M
;
_chemical_formula_sum "Si O2"
_cell_formula_units_Z 80
_cell_length_a 8.937923
_cell_length_b 19.071813
_cell_length_c 26.843418
_cell_angle_alpha 90.000000
_cell_angle_beta 90.000000
_cell_angle_gamma 90.000000
_cell_volume 4575.793351
_symmetry_space_group_name_H-M "C M M M"
_symmetry_group_IT_number 65
_symmetry_cell_setting 'orthorhombic'
loop_
_space_group_symop_operation_xyz
x,y,z
-x,-y,z
x,-y,-z
-x,y,-z
-x,-y,-z
x,y,-z
-x,y,z
x,-y,z
1/2+x,1/2+y,z
1/2-x,1/2-y,z
1/2+x,1/2-y,-z
1/2-x,1/2+y,-z
1/2-x,1/2-y,-z
1/2+x,1/2+y,-z
1/2-x,1/2+y,z
1/2+x,1/2-y,z
loop_
_atom_site_type_symbol
_atom_site_label
_atom_site_fract_x
_atom_site_fract_y
_atom_site_fract_z
Si Si1 0.673077 0.914631 0.102070
Si Si2 0.320595 0.581354 0.204692
Si Si3 0.181625 0.579938 0.500000
Si Si4 0.172797 0.914475 0.000000
Si Si5 0.819094 0.327381 0.595170
Si Si6 0.680490 0.673038 0.699226
O O1 0.500000 0.895270 0.101954
O O2 0.749982 0.891451 0.153304
O O3 0.749907 0.890486 0.051017
O O4 0.683055 0.000000 0.101961
O O5 0.500000 0.583090 0.199367
O O6 0.275540 0.500000 0.211293
O O7 0.280871 0.625359 0.253459
O O8 0.236412 0.500000 0.500000
O O9 0.224013 0.622596 0.549461
O O10 0.000000 0.577717 0.500000
O O11 0.000000 0.894736 0.000000
O O12 0.180619 0.000000 0.000000
O O13 0.750000 0.250000 0.587076
O O14 0.751759 0.353584 0.647545
O O15 0.000000 0.322629 0.598126
O O16 0.500000 0.677099 0.694630
O O17 0.750000 0.750000 0.706757
#
# Coordination Sequence:
#
# PCOD9486833 Si02
#       6
#    16  16   8   8  16  16
#     4   9  16  25  39  62  91 121 156 199 242 284
#     4   9  18  32  48  67  94 127 159 194 241 292
#     4   9  19  34  51  75 104 131 160 196 240 287
#     4   9  15  23  37  57  86 125 162 195 236 287
#     4  10  19  33  54  74  96 127 162 200 238 282
#     4  10  20  34  52  73  98 127 162 202 240 284
#
# _framework density 17.483307
#
# number of rings (size 3 to 8) (size 9 to 14) (size 15 to 20)
#    0.000    2.600    0.000    3.600    0.000    6.000 
#    0.000    1.500    0.000    4.200    0.000    0.700 
#    0.000    0.000    0.000    0.000    0.000    0.000 
#
# Total GULP energy -223003.831765 kJ/mol
# GULP energy per Si atom -5575.095794 kJ/mol
# Density = 1.744351 g / cm^3
# Si number density = 17.483307 Si / 1000 Ang^3
#
#
#
# Elastic Constant Matrix: (Units=GPa)
#
#
# Indices 1 2 3 4 5 6 
#
# 1 67.1072 30.9048 79.1822 0.0000 0.0000 0.0000
# 2 30.9048 42.8846 76.5992 0.0000 0.0000 0.0000
# 3 79.1822 76.5992 227.8531 0.0000 0.0000 0.0000
# 4 0.0000 0.0000 0.0000 -75.5676 0.0000 0.0000
# 5 0.0000 0.0000 0.0000 0.0000 21.2487 0.0000
# 6 0.0000 0.0000 0.0000 0.0000 0.0000 14.3466
#
#
#
# Elastic Compliance Matrix: (Units=1/GPa)
#
#
# Indices 1 2 3 4 5 6 
#
# 1 0.025962 -0.006494 -0.006839 0.000000 0.000000 0.000000
# 2 -0.006494 0.059989 -0.017910 0.000000 0.000000 0.000000
# 3 -0.006839 -0.017910 0.012786 0.000000 0.000000 0.000000
# 4 0.000000 0.000000 0.000000 -0.013233 0.000000 0.000000
# 5 0.000000 0.000000 0.000000 0.000000 0.047062 0.000000
# 6 0.000000 0.000000 0.000000 0.000000 0.000000 0.069703
#
#
# Mechanical properties :
#
#
# Convention : Reuss Voigt Hill
#
# Bulk Modulus (GPa) = 27.58538 79.02413 53.30476
# Shear Modulus (GPa) = 18.06113 2.08281 10.07197
#
# Velocity S-wave (km/s) = 3.21760 1.09266 2.40279
# Velocity P-wave (km/s) = 5.44208 6.84761 6.18490
#
# Compressibility (1/GPa) = 0.03625108
#
# Stress axis : x y z
#
# Youngs Moduli (GPa) = 38.51832 16.66980 78.20749
#
# Poissons Ratio (x) = 0.10825 0.53487
# Poissons Ratio (y) = 0.25012 1.40072
# Poissons Ratio (z) = 0.26343 0.29856
#
# Static dielectric constant tensor:
#      x y z
#    x 1.586340 0.000000 0.000000 
#    y 0.000000 1.582540 0.000000 
#    z 0.000000 0.000000 1.595110 
# 
# From -- ./inp_files/72952.got.cif
#   From: 2010.05.17/outbox.cif.g08.bks.cpg/sg65_37_cif.got.tgz:72952.got - 2010.06.03 17:01:31.
