data_PCOD9486380
_publ_section_title
;
Structure prediction by ZEFSAII (Michael W. Deem and Ramdas Pophale) SiO2 
 PCOD9486380
Probable space group: C M M M
;
_chemical_formula_sum "Si O2"
_cell_formula_units_Z 80
_cell_length_a 8.580333
_cell_length_b 28.000446
_cell_length_c 19.329916
_cell_angle_alpha 90.000000
_cell_angle_beta 90.000000
_cell_angle_gamma 90.000000
_cell_volume 4644.073224
_symmetry_space_group_name_H-M "C M M M"
_symmetry_group_IT_number 65
_symmetry_cell_setting 'orthorhombic'
loop_
_space_group_symop_operation_xyz
x,y,z
-x,-y,z
x,-y,-z
-x,y,-z
-x,-y,-z
x,y,-z
-x,y,z
x,-y,z
1/2+x,1/2+y,z
1/2-x,1/2-y,z
1/2+x,1/2-y,-z
1/2-x,1/2+y,-z
1/2-x,1/2-y,-z
1/2+x,1/2+y,-z
1/2-x,1/2+y,z
1/2+x,1/2-y,z
loop_
_atom_site_type_symbol
_atom_site_label
_atom_site_fract_x
_atom_site_fract_y
_atom_site_fract_z
Si Si1 0.313497 0.445581 0.786932
Si Si2 0.688088 0.803495 0.577320
Si Si3 0.814081 0.197448 0.147641
Si Si4 0.813039 0.352972 0.282701
Si Si5 0.186821 0.603662 0.078707
O O1 0.500000 0.441498 0.782199
O O2 0.267518 0.500000 0.772214
O O3 0.237231 0.406428 0.736906
O O4 0.262008 0.430687 0.864208
O O5 0.738385 0.818710 0.500000
O O6 0.500000 0.801919 0.577668
O O7 0.750000 0.750000 0.588764
O O8 0.736679 0.836785 0.640880
O O9 0.750000 0.250000 0.132829
O O10 0.762544 0.181177 0.224676
O O11 0.742975 0.157018 0.097772
O O12 0.000000 0.196728 0.142822
O O13 0.000000 0.348859 0.276866
O O14 0.000000 0.601686 0.085700
O O15 0.229185 0.591746 0.000000
#
# Coordination Sequence:
#
# PCOD9486380 Si02
#       5
#    16  16  16  16  16
#     4  10  21  36  54  75  98 126 162 204 249 297
#     4   9  18  31  48  74 106 137 167 198 236 284
#     4  11  21  33  50  71  99 133 168 204 242 289
#     4  10  19  32  52  75 100 130 165 206 247 290
#     4  10  21  36  53  74  99 126 160 202 247 296
#
# _framework density 17.226258000000001
#
# number of rings (size 3 to 8) (size 9 to 14) (size 15 to 20)
#    0.000    2.000    0.000    6.600    0.000    7.200 
#    0.000    2.000    0.000    0.600    0.000    4.200 
#    0.000    0.000    0.000    0.000    0.000    0.000 
#
# Total GULP energy -223304.533390 kJ/mol
# GULP energy per Si atom -5582.613335 kJ/mol
# Density = 1.718705 g / cm^3
# Si number density = 17.226258 Si / 1000 Ang^3
#
#
#
# Elastic Constant Matrix: (Units=GPa)
#
#
# Indices 1 2 3 4 5 6 
#
# 1 28.1685 -5.9587 4.4961 0.0000 0.0000 0.0000
# 2 -5.9587 49.6025 17.5039 0.0000 0.0000 0.0000
# 3 4.4961 17.5039 105.1644 0.0000 0.0000 0.0000
# 4 0.0000 0.0000 0.0000 6.1439 0.0000 0.0000
# 5 0.0000 0.0000 0.0000 0.0000 13.7679 0.0000
# 6 0.0000 0.0000 0.0000 0.0000 0.0000 28.0838
#
#
#
# Elastic Compliance Matrix: (Units=1/GPa)
#
#
# Indices 1 2 3 4 5 6 
#
# 1 0.037019 0.005318 -0.002468 0.000000 0.000000 0.000000
# 2 0.005318 0.022182 -0.003919 0.000000 0.000000 0.000000
# 3 -0.002468 -0.003919 0.010267 0.000000 0.000000 0.000000
# 4 0.000000 0.000000 0.000000 0.162762 0.000000 0.000000
# 5 0.000000 0.000000 0.000000 0.000000 0.072633 0.000000
# 6 0.000000 0.000000 0.000000 0.000000 0.000000 0.035608
#
#
# Mechanical properties :
#
#
# Convention : Reuss Voigt Hill
#
# Bulk Modulus (GPa) = 14.85225 23.89089 19.37157
# Shear Modulus (GPa) = 13.69665 20.72541 17.21103
#
# Velocity S-wave (km/s) = 2.82282 3.47238 3.16431
# Velocity P-wave (km/s) = 4.38919 5.47499 4.96188
#
# Compressibility (1/GPa) = 0.06732986
#
# Stress axis : x y z
#
# Youngs Moduli (GPa) = 27.01282 45.08116 97.40138
#
# Poissons Ratio (x) = -0.23974 0.24037
# Poissons Ratio (y) = -0.14365 0.38176
# Poissons Ratio (z) = 0.06666 0.17669
#
# Static dielectric constant tensor:
#      x y z
#    x 1.578550 0.000000 0.000000 
#    y 0.000000 1.561710 0.000000 
#    z 0.000000 0.000000 1.591370 
# 
# From -- ./inp_files/49877.got.cif
#   From: 2010.05.17/outbox.cif.g08.bks.cpg/sg65_25_cif.got.tgz:49877.got - 2010.06.03 17:01:31.
