data_PCOD9486236
_publ_section_title
;
Structure prediction by ZEFSAII (Michael W. Deem and Ramdas Pophale) SiO2 
 PCOD9486236
Probable space group: C M M M
;
_chemical_formula_sum "Si O2"
_cell_formula_units_Z 104
_cell_length_a 30.611072
_cell_length_b 22.947813
_cell_length_c 8.943028
_cell_angle_alpha 90.000000
_cell_angle_beta 90.000000
_cell_angle_gamma 90.000000
_cell_volume 6282.094015
_symmetry_space_group_name_H-M "C M M M"
_symmetry_group_IT_number 65
_symmetry_cell_setting 'orthorhombic'
loop_
_space_group_symop_operation_xyz
x,y,z
-x,-y,z
x,-y,-z
-x,y,-z
-x,-y,-z
x,y,-z
-x,y,z
x,-y,z
1/2+x,1/2+y,z
1/2-x,1/2-y,z
1/2+x,1/2-y,-z
1/2-x,1/2+y,-z
1/2-x,1/2-y,-z
1/2+x,1/2+y,-z
1/2-x,1/2+y,z
1/2+x,1/2-y,z
loop_
_atom_site_type_symbol
_atom_site_label
_atom_site_fract_x
_atom_site_fract_y
_atom_site_fract_z
Si Si1 0.627770 0.931702 0.680303
Si Si2 0.052145 0.000000 0.322566
Si Si3 0.950734 0.651051 0.681903
Si Si4 0.718788 0.929206 0.172266
Si Si5 0.948606 0.785790 0.678569
Si Si6 0.398047 0.609045 0.821970
Si Si7 0.809482 0.070003 0.323028
O O1 0.631272 0.927814 0.500000
O O2 0.586902 0.892895 0.731262
O O3 0.673379 0.911387 0.751635
O O4 0.621046 0.000000 0.717391
O O5 0.073516 0.943124 0.249528
O O6 0.061543 0.000000 0.500000
O O7 0.000000 0.000000 0.302165
O O8 0.951514 0.649080 0.500000
O O9 0.941340 0.718285 0.721110
O O10 0.000000 0.636200 0.732575
O O11 0.762240 0.911510 0.260866
O O12 0.718602 0.000000 0.175033
O O13 0.720928 0.910642 0.000000
O O14 0.940952 0.791699 0.500000
O O15 0.918848 0.830673 0.766672
O O16 0.000000 0.798617 0.704117
O O17 0.349023 0.600773 0.761651
O O18 0.398927 0.604553 0.000000
O O19 0.812343 0.080281 0.500000
O O20 0.813898 0.000000 0.298679
#
# Coordination Sequence:
#
# PCOD9486236 Si02
#       7
#    16   8  16  16  16  16  16
#     4   9  16  27  47  77 108 134 164 202 248 298
#     4  11  23  37  51  69  97 133 169 205 250 301
#     4   8  15  29  50  75 101 132 171 211 246 287
#     4   9  17  29  46  69 100 134 166 200 243 295
#     4   9  18  34  53  69  91 130 176 212 245 293
#     4  12  23  33  49  73 101 128 161 208 259 303
#     4  10  19  32  51  72  97 128 165 204 247 300
#
# _framework density 16.554988999999999
#
# number of rings (size 3 to 8) (size 9 to 14) (size 15 to 20)
#    0.000    2.385    0.769    3.923    0.000    5.538 
#    0.000    2.308    0.000    2.308    0.000    8.615 
#    0.000    0.000    0.000    0.000    0.000    0.000 
#
# Total GULP energy -290045.017382 kJ/mol
# GULP energy per Si atom -5577.788796 kJ/mol
# Density = 1.651731 g / cm^3
# Si number density = 16.554989 Si / 1000 Ang^3
#
#
#
# Elastic Constant Matrix: (Units=GPa)
#
#
# Indices 1 2 3 4 5 6 
#
# 1 164.6174 80.6695 77.2986 0.0000 0.0000 0.0000
# 2 80.6695 65.0631 44.7993 0.0000 0.0000 0.0000
# 3 77.2986 44.7993 75.5152 0.0000 0.0000 0.0000
# 4 0.0000 0.0000 0.0000 7.9835 0.0000 0.0000
# 5 0.0000 0.0000 0.0000 0.0000 -22.8341 0.0000
# 6 0.0000 0.0000 0.0000 0.0000 0.0000 0.8408
#
#
#
# Elastic Compliance Matrix: (Units=1/GPa)
#
#
# Indices 1 2 3 4 5 6 
#
# 1 0.018517 -0.016750 -0.009018 0.000000 0.000000 0.000000
# 2 -0.016750 0.041134 -0.007258 0.000000 0.000000 0.000000
# 3 -0.009018 -0.007258 0.026779 0.000000 0.000000 0.000000
# 4 0.000000 0.000000 0.000000 0.125258 0.000000 0.000000
# 5 0.000000 0.000000 0.000000 0.000000 -0.043794 0.000000
# 6 0.000000 0.000000 0.000000 0.000000 0.000000 1.189357
#
#
# Mechanical properties :
#
#
# Convention : Reuss Voigt Hill
#
# Bulk Modulus (GPa) = 49.06771 78.97004 64.01888
# Shear Modulus (GPa) = 3.49627 4.02661 3.76144
#
# Velocity S-wave (km/s) = 1.45482 1.56126 1.50898
# Velocity P-wave (km/s) = 5.70312 7.14530 6.46455
#
# Compressibility (1/GPa) = 0.02038000
#
# Stress axis : x y z
#
# Youngs Moduli (GPa) = 54.00411 24.31070 37.34310
#
# Poissons Ratio (x) = 0.40719 0.33675
# Poissons Ratio (y) = 0.90454 0.27102
# Poissons Ratio (z) = 0.48700 0.17644
#
# Static dielectric constant tensor:
#      x y z
#    x 1.550750 0.000000 0.000000 
#    y 0.000000 1.538440 0.000000 
#    z 0.000000 0.000000 1.548870 
# 
# From -- ./inp_files/16752.got.cif
#   From: 2010.05.17/outbox.cif.g08.bks.cpg/sg65_9_cif.got.tgz:16752.got - 2010.06.03 17:01:31.
