data_PCOD9486855
_publ_section_title
;
Structure prediction by ZEFSAII (Michael W. Deem and Ramdas Pophale) SiO2 
 PCOD9486855
Probable space group: C M M M
;
_chemical_formula_sum "Si O2"
_cell_formula_units_Z 72
_cell_length_a 16.053024
_cell_length_b 27.458180
_cell_length_c 7.512741
_cell_angle_alpha 90.000000
_cell_angle_beta 90.000000
_cell_angle_gamma 90.000000
_cell_volume 3311.517234
_symmetry_space_group_name_H-M "C M M M"
_symmetry_group_IT_number 65
_symmetry_cell_setting 'orthorhombic'
loop_
_space_group_symop_operation_xyz
x,y,z
-x,-y,z
x,-y,-z
-x,y,-z
-x,-y,-z
x,y,-z
-x,y,z
x,-y,z
1/2+x,1/2+y,z
1/2-x,1/2-y,z
1/2+x,1/2-y,-z
1/2-x,1/2+y,-z
1/2-x,1/2-y,-z
1/2+x,1/2+y,-z
1/2-x,1/2+y,z
1/2+x,1/2-y,z
loop_
_atom_site_type_symbol
_atom_site_label
_atom_site_fract_x
_atom_site_fract_y
_atom_site_fract_z
Si Si1 0.168935 0.279334 0.281882
Si Si2 0.661046 0.444593 0.285744
Si Si3 0.170175 0.391841 0.717524
Si Si4 0.000000 0.768628 0.704340
Si Si5 0.000000 0.879279 0.205441
Si Si6 0.500000 0.056137 0.282584
O O1 0.169832 0.278461 0.500000
O O2 0.250000 0.250000 0.222942
O O3 0.172173 0.335583 0.228128
O O4 0.084951 0.252987 0.218473
O O5 0.666118 0.446881 0.500000
O O6 0.650882 0.500000 0.220243
O O7 0.747250 0.420423 0.222881
O O8 0.581685 0.411227 0.244373
O O9 0.170722 0.392679 0.500000
O O10 0.084437 0.417157 0.774708
O O11 0.000000 0.826997 0.701241
O O12 0.000000 0.751308 0.500000
O O13 0.000000 0.866635 0.000000
O O14 0.500000 0.056860 0.500000
O O15 0.500000 0.000000 0.227299
#
# Coordination Sequence:
#
# PCOD9486855 Si02
#       6
#    16  16  16   8   8   8
#     4   9  16  26  44  71  99 127 162 205 248 289
#     4  10  20  35  56  80 106 139 177 214 255 309
#     4   9  16  27  46  76 110 137 165 205 252 302
#     4  10  19  33  54  77 102 135 174 213 254 307
#     4  12  25  38  53  74 102 137 176 224 277 316
#     4   9  15  23  38  66 106 141 162 191 243 300
#
# _framework density 21.742301000000001
#
# number of rings (size 3 to 8) (size 9 to 14) (size 15 to 20)
#    0.000    2.333    0.000    4.000    0.000   10.667 
#    0.000    0.000    0.000    6.000    0.000    0.778 
#    0.000    2.667    0.000    0.000    0.000    0.000 
#
# Total GULP energy -201221.834107 kJ/mol
# GULP energy per Si atom -5589.495392 kJ/mol
# Density = 2.169281 g / cm^3
# Si number density = 21.742301 Si / 1000 Ang^3
#
#
#
# Elastic Constant Matrix: (Units=GPa)
#
#
# Indices 1 2 3 4 5 6 
#
# 1 180.0405 59.4559 2.5318 0.0000 0.0000 0.0000
# 2 59.4559 121.1094 -5.3827 0.0000 0.0000 0.0000
# 3 2.5318 -5.3827 58.2211 0.0000 0.0000 0.0000
# 4 0.0000 0.0000 0.0000 -39.9232 0.0000 0.0000
# 5 0.0000 0.0000 0.0000 0.0000 -93.5135 0.0000
# 6 0.0000 0.0000 0.0000 0.0000 0.0000 49.1699
#
#
#
# Elastic Compliance Matrix: (Units=1/GPa)
#
#
# Indices 1 2 3 4 5 6 
#
# 1 0.006649 -0.003291 -0.000593 0.000000 0.000000 0.000000
# 2 -0.003291 0.009920 0.001060 0.000000 0.000000 0.000000
# 3 -0.000593 0.001060 0.017300 0.000000 0.000000 0.000000
# 4 0.000000 0.000000 0.000000 -0.025048 0.000000 0.000000
# 5 0.000000 0.000000 0.000000 0.000000 -0.010694 0.000000
# 6 0.000000 0.000000 0.000000 0.000000 0.000000 0.020338
#
#
# Mechanical properties :
#
#
# Convention : Reuss Voigt Hill
#
# Bulk Modulus (GPa) = 35.43478 52.50903 43.97191
# Shear Modulus (GPa) = 149.16725 3.33104 76.24915
#
# Velocity S-wave (km/s) = 8.29192 1.23911 5.92837
# Velocity P-wave (km/s) = 10.39267 5.12350 8.19322
#
# Compressibility (1/GPa) = 0.02822086
#
# Stress axis : x y z
#
# Youngs Moduli (GPa) = 150.39021 100.81026 57.80442
#
# Poissons Ratio (x) = 0.33174 0.03430
# Poissons Ratio (y) = 0.49489 -0.06128
# Poissons Ratio (z) = 0.08924 -0.10688
#
# Static dielectric constant tensor:
#      x y z
#    x 1.764780 0.000000 0.000000 
#    y 0.000000 1.750550 0.000000 
#    z 0.000000 0.000000 1.823750 
# 
# From -- ./inp_files/7384.got.cif
#   From: 2010.05.17/outbox.cif.g08.bks.cpg/sg65_4_cif.got.tgz:7384.got - 2010.06.03 17:01:31.
