data_PCOD9486221
_publ_section_title
;
Structure prediction by ZEFSAII (Michael W. Deem and Ramdas Pophale) SiO2 
 PCOD9486221
Probable space group: C M M M
;
_chemical_formula_sum "Si O2"
_cell_formula_units_Z 116
_cell_length_a 22.691951
_cell_length_b 25.318239
_cell_length_c 9.580515
_cell_angle_alpha 90.000000
_cell_angle_beta 90.000000
_cell_angle_gamma 90.000000
_cell_volume 5504.199766
_symmetry_space_group_name_H-M "C M M M"
_symmetry_group_IT_number 65
_symmetry_cell_setting 'orthorhombic'
loop_
_space_group_symop_operation_xyz
x,y,z
-x,-y,z
x,-y,-z
-x,y,-z
-x,-y,-z
x,y,-z
-x,y,z
x,-y,z
1/2+x,1/2+y,z
1/2-x,1/2-y,z
1/2+x,1/2-y,-z
1/2-x,1/2+y,-z
1/2-x,1/2-y,-z
1/2+x,1/2+y,-z
1/2-x,1/2+y,z
1/2+x,1/2-y,z
loop_
_atom_site_type_symbol
_atom_site_label
_atom_site_fract_x
_atom_site_fract_y
_atom_site_fract_z
Si Si1 0.726558 0.000000 0.000000
Si Si2 0.743772 0.342036 0.338102
Si Si3 0.067251 0.709098 0.660329
Si Si4 0.566409 0.617407 0.836792
Si Si5 0.650235 0.280239 0.164189
Si Si6 0.933292 0.418464 0.340459
Si Si7 0.155215 0.941253 0.343306
Si Si8 0.827771 0.593089 0.845557
O O1 0.719034 0.952804 0.881710
O O2 0.756129 0.327919 0.500000
O O3 0.707093 0.298090 0.253462
O O4 0.702566 0.394396 0.338008
O O5 0.800022 0.362103 0.251871
O O6 0.079842 0.725722 0.500000
O O7 0.114963 0.732748 0.764435
O O8 0.066624 0.645578 0.662335
O O9 0.000000 0.726214 0.695050
O O10 0.500000 0.623849 0.783092
O O11 0.604213 0.670906 0.823410
O O12 0.603162 0.572373 0.761289
O O13 0.563773 0.605269 0.000000
O O14 0.663711 0.272369 0.000000
O O15 0.919500 0.434397 0.500000
O O16 0.883415 0.433229 0.230866
O O17 0.000000 0.435802 0.307918
O O18 0.130763 0.939869 0.500000
O O19 0.178944 0.000000 0.318644
O O20 0.845273 0.613878 0.000000
#
# Coordination Sequence:
#
# PCOD9486221 Si02
#       8
#     4  16  16  16  16  16  16  16
#     4   8  24  40  59  90 118 148 183 224 282 348
#     4  10  20  35  56  78 106 145 188 234 286 336
#     4   9  18  33  55  83 115 152 195 240 283 332
#     4   9  18  31  44  62  92 131 171 215 269 322
#     4  10  19  32  50  78 111 147 187 236 283 337
#     4   9  19  38  63  89 118 153 189 227 275 332
#     4   9  19  32  46  67  91 121 167 221 273 326
#     4  10  21  39  59  86 116 147 181 228 279 339
#
# _framework density 21.074815999999998
#
# number of rings (size 3 to 8) (size 9 to 14) (size 15 to 20)
#    0.414    2.207    0.000    2.483    0.966    3.586 
#    0.000    5.172    0.000    4.966    0.000    0.000 
#    0.000    0.000    0.000    0.000    0.000    0.000 
#
# Total GULP energy -323069.057856 kJ/mol
# GULP energy per Si atom -5570.156170 kJ/mol
# Density = 2.102685 g / cm^3
# Si number density = 21.074816 Si / 1000 Ang^3
#
#
#
# Elastic Constant Matrix: (Units=GPa)
#
#
# Indices 1 2 3 4 5 6 
#
# 1 64.9505 11.0699 55.3574 0.0000 0.0000 0.0000
# 2 11.0699 65.8701 35.2358 0.0000 0.0000 0.0000
# 3 55.3574 35.2358 116.5183 0.0000 0.0000 0.0000
# 4 0.0000 0.0000 0.0000 51.2432 0.0000 0.0000
# 5 0.0000 0.0000 0.0000 0.0000 17.3988 0.0000
# 6 0.0000 0.0000 0.0000 0.0000 0.0000 144.3493
#
#
#
# Elastic Compliance Matrix: (Units=1/GPa)
#
#
# Indices 1 2 3 4 5 6 
#
# 1 0.026269 0.002698 -0.013296 0.000000 0.000000 0.000000
# 2 0.002698 0.018388 -0.006842 0.000000 0.000000 0.000000
# 3 -0.013296 -0.006842 0.016968 0.000000 0.000000 0.000000
# 4 0.000000 0.000000 0.000000 0.019515 0.000000 0.000000
# 5 0.000000 0.000000 0.000000 0.000000 0.057475 0.000000
# 6 0.000000 0.000000 0.000000 0.000000 0.000000 0.006928
#
#
# Mechanical properties :
#
#
# Convention : Reuss Voigt Hill
#
# Bulk Modulus (GPa) = 37.39140 50.07390 43.73265
# Shear Modulus (GPa) = 26.40766 52.30997 39.35881
#
# Velocity S-wave (km/s) = 3.54368 4.98748 4.32623
# Velocity P-wave (km/s) = 5.87573 7.54839 6.76397
#
# Compressibility (1/GPa) = 0.02674412
#
# Stress axis : x y z
#
# Youngs Moduli (GPa) = 38.06798 54.38263 58.93299
#
# Poissons Ratio (x) = -0.14671 0.78358
# Poissons Ratio (y) = -0.10270 0.40324
# Poissons Ratio (z) = 0.50615 0.37211
#
# Static dielectric constant tensor:
#      x y z
#    x 1.776240 0.000000 0.000000 
#    y 0.000000 1.769060 0.000000 
#    z 0.000000 0.000000 1.751140 
# 
# From -- ./inp_files/15152.got.cif
#   From: 2010.05.17/outbox.cif.g08.bks.cpg/sg65_8_cif.got.tgz:15152.got - 2010.06.03 17:01:31.
