data_PCOD9486104
_publ_section_title
;
Structure prediction by ZEFSAII (Michael W. Deem and Ramdas Pophale) SiO2 
 PCOD9486104
Probable space group: C M M M
;
_chemical_formula_sum "Si O2"
_cell_formula_units_Z 88
_cell_length_a 14.893010
_cell_length_b 8.895733
_cell_length_c 30.663556
_cell_angle_alpha 90.000000
_cell_angle_beta 90.000000
_cell_angle_gamma 90.000000
_cell_volume 4062.437928
_symmetry_space_group_name_H-M "C M M M"
_symmetry_group_IT_number 65
_symmetry_cell_setting 'orthorhombic'
loop_
_space_group_symop_operation_xyz
x,y,z
-x,-y,z
x,-y,-z
-x,y,-z
-x,-y,-z
x,y,-z
-x,y,z
x,-y,z
1/2+x,1/2+y,z
1/2-x,1/2-y,z
1/2+x,1/2-y,-z
1/2-x,1/2+y,-z
1/2-x,1/2-y,-z
1/2+x,1/2+y,-z
1/2-x,1/2+y,z
1/2+x,1/2-y,z
loop_
_atom_site_type_symbol
_atom_site_label
_atom_site_fract_x
_atom_site_fract_y
_atom_site_fract_z
Si Si1 0.850078 0.181116 0.229607
Si Si2 0.851043 0.819011 0.865019
Si Si3 0.850563 0.319826 0.952145
Si Si4 0.889558 0.171322 0.500000
Si Si5 0.894491 0.334134 0.586971
Si Si6 0.849039 0.819965 0.676266
O O1 0.750000 0.250000 0.229567
O O2 0.891582 0.220409 0.182521
O O3 0.891692 0.222448 0.276579
O O4 0.842619 0.000000 0.229629
O O5 0.750000 0.750000 0.863628
O O6 0.893259 0.750551 0.908771
O O7 0.847230 0.000000 0.868975
O O8 0.845146 0.500000 0.947425
O O9 0.750000 0.250000 0.953638
O O10 0.891024 0.287600 0.000000
O O11 0.858519 0.252009 0.544158
O O12 0.000000 0.170052 0.500000
O O13 0.859742 0.000000 0.500000
O O14 0.853725 0.500000 0.592590
O O15 0.888526 0.243829 0.631847
O O16 0.000000 0.350634 0.578274
O O17 0.750000 0.750000 0.677597
O O18 0.847051 0.000000 0.673799
#
# Coordination Sequence:
#
# PCOD9486104 Si02
#       6
#    16  16  16   8  16  16
#     4   8  15  25  37  54  75 101 133 171 211 253
#     4   9  14  20  30  43  60  84 118 158 200 244
#     4   9  15  20  25  35  53  78 111 153 199 243
#     4   9  17  31  52  75  96 121 154 187 221 265
#     4  10  20  34  52  74  99 125 154 188 225 265
#     4  10  19  32  49  69  95 124 155 190 230 273
#
# _framework density 21.661868999999999
#
# number of rings (size 3 to 8) (size 9 to 14) (size 15 to 20)
#    0.000    2.818    0.000    3.545    0.000    4.727 
#    0.000    0.455    0.000    0.000    0.000    0.000 
#    0.000    0.000    0.000    0.000    0.000    0.909 
#
# Total GULP energy -245114.903620 kJ/mol
# GULP energy per Si atom -5570.793264 kJ/mol
# Density = 2.161257 g / cm^3
# Si number density = 21.661869 Si / 1000 Ang^3
#
#
#
# Elastic Constant Matrix: (Units=GPa)
#
#
# Indices 1 2 3 4 5 6 
#
# 1 47.9514 6.2098 14.8549 0.0000 0.0000 0.0000
# 2 6.2098 105.3741 96.6939 0.0000 0.0000 0.0000
# 3 14.8549 96.6939 284.9840 0.0000 0.0000 0.0000
# 4 0.0000 0.0000 0.0000 36.2387 0.0000 0.0000
# 5 0.0000 0.0000 0.0000 0.0000 85.7460 0.0000
# 6 0.0000 0.0000 0.0000 0.0000 0.0000 2.5918
#
#
#
# Elastic Compliance Matrix: (Units=1/GPa)
#
#
# Indices 1 2 3 4 5 6 
#
# 1 0.021205 -0.000342 -0.000989 0.000000 0.000000 0.000000
# 2 -0.000342 0.013786 -0.004660 0.000000 0.000000 0.000000
# 3 -0.000989 -0.004660 0.005142 0.000000 0.000000 0.000000
# 4 0.000000 0.000000 0.000000 0.027595 0.000000 0.000000
# 5 0.000000 0.000000 0.000000 0.000000 0.011662 0.000000
# 6 0.000000 0.000000 0.000000 0.000000 0.000000 0.385829
#
#
# Mechanical properties :
#
#
# Convention : Reuss Voigt Hill
#
# Bulk Modulus (GPa) = 35.52266 74.86964 55.19615
# Shear Modulus (GPa) = 10.27570 46.28537 28.28054
#
# Velocity S-wave (km/s) = 2.18036 4.62748 3.61715
# Velocity P-wave (km/s) = 4.77210 7.94917 6.55600
#
# Compressibility (1/GPa) = 0.02815105
#
# Stress axis : x y z
#
# Youngs Moduli (GPa) = 47.15820 72.53727 194.49329
#
# Poissons Ratio (x) = 0.02479 0.19242
# Poissons Ratio (y) = 0.01612 0.90628
# Poissons Ratio (z) = 0.04666 0.33800
#
# Static dielectric constant tensor:
#      x y z
#    x 1.596160 0.000000 0.000000 
#    y 0.000000 1.744070 0.000000 
#    z 0.000000 0.000000 1.879060 
# 
# From -- ./inp_files/78339.got.cif
#   From: 2010.05.17/outbox.cif.g08.bks.cpg/sg65_40_cif.got.tgz:78339.got - 2010.06.03 17:01:31.
