data_PCOD9486713
_publ_section_title
;
Structure prediction by ZEFSAII (Michael W. Deem and Ramdas Pophale) SiO2 
 PCOD9486713
Probable space group: C M M M
;
_chemical_formula_sum "Si O2"
_cell_formula_units_Z 52
_cell_length_a 10.414160
_cell_length_b 33.063879
_cell_length_c 7.200798
_cell_angle_alpha 90.000000
_cell_angle_beta 90.000000
_cell_angle_gamma 90.000000
_cell_volume 2479.468965
_symmetry_space_group_name_H-M "C M M M"
_symmetry_group_IT_number 65
_symmetry_cell_setting 'orthorhombic'
loop_
_space_group_symop_operation_xyz
x,y,z
-x,-y,z
x,-y,-z
-x,y,-z
-x,-y,-z
x,y,-z
-x,y,z
x,-y,z
1/2+x,1/2+y,z
1/2-x,1/2-y,z
1/2+x,1/2-y,-z
1/2-x,1/2+y,-z
1/2-x,1/2-y,-z
1/2+x,1/2+y,-z
1/2-x,1/2+y,z
1/2+x,1/2-y,z
loop_
_atom_site_type_symbol
_atom_site_label
_atom_site_fract_x
_atom_site_fract_y
_atom_site_fract_z
Si Si1 0.000000 0.309929 0.273709
Si Si2 0.744297 0.500000 0.000000
Si Si3 0.000000 0.783367 0.726162
Si Si4 0.773676 0.157473 0.725228
Si Si5 0.349594 0.433647 0.722129
O O1 0.130263 0.331855 0.214505
O O2 0.000000 0.310046 0.500000
O O3 0.000000 0.263090 0.215589
O O4 0.733625 0.464693 0.161438
O O5 0.874884 0.808472 0.784709
O O6 0.000000 0.782995 0.500000
O O7 0.774605 0.158352 0.500000
O O8 0.819509 0.112639 0.775144
O O9 0.331225 0.437698 0.500000
O O10 0.500000 0.442503 0.761942
#
# Coordination Sequence:
#
# PCOD9486713 Si02
#       5
#     8   4   8  16  16
#     4   9  16  24  42  73 104 142 188 218 251 317
#     4  12  23  34  56  87 104 131 182 229 274 329
#     4   9  14  24  42  69 106 142 180 224 263 303
#     4   9  16  27  44  70 107 144 175 218 269 312
#     4  10  19  33  52  77 111 141 172 221 276 324
#
# _framework density 20.972232000000002
#
# number of rings (size 3 to 8) (size 9 to 14) (size 15 to 20)
#    0.000    2.462    1.538    2.769    0.000    4.923 
#    0.000    0.000    0.000    2.769    0.000   11.846 
#    0.000    0.000    0.000    0.000    0.000    1.846 
#
# Total GULP energy -144781.619758 kJ/mol
# GULP energy per Si atom -5568.523837 kJ/mol
# Density = 2.092450 g / cm^3
# Si number density = 20.972232 Si / 1000 Ang^3
#
#
#
# Elastic Constant Matrix: (Units=GPa)
#
#
# Indices 1 2 3 4 5 6 
#
# 1 69.5657 -12.7809 -2.6348 0.0000 0.0000 0.0000
# 2 -12.7809 73.6225 10.2783 0.0000 0.0000 0.0000
# 3 -2.6348 10.2783 110.4057 0.0000 0.0000 0.0000
# 4 0.0000 0.0000 0.0000 7.3327 0.0000 0.0000
# 5 0.0000 0.0000 0.0000 0.0000 -24.7333 0.0000
# 6 0.0000 0.0000 0.0000 0.0000 0.0000 -4.3233
#
#
#
# Elastic Compliance Matrix: (Units=1/GPa)
#
#
# Indices 1 2 3 4 5 6 
#
# 1 0.014850 0.002562 0.000116 0.000000 0.000000 0.000000
# 2 0.002562 0.014204 -0.001261 0.000000 0.000000 0.000000
# 3 0.000116 -0.001261 0.009178 0.000000 0.000000 0.000000
# 4 0.000000 0.000000 0.000000 0.136374 0.000000 0.000000
# 5 0.000000 0.000000 0.000000 0.000000 -0.040431 0.000000
# 6 0.000000 0.000000 0.000000 0.000000 0.000000 -0.231307
#
#
# Mechanical properties :
#
#
# Convention : Reuss Voigt Hill
#
# Bulk Modulus (GPa) = 24.35206 27.03544 25.69375
# Shear Modulus (GPa) = -57.95240 12.90399 -22.52420
#
# Velocity S-wave (km/s) = -5.26241 2.48319 -3.28075
# Velocity P-wave (km/s) = 5.02863 4.59790 1.43986
#
# Compressibility (1/GPa) = 0.04106428
#
# Stress axis : x y z
#
# Youngs Moduli (GPa) = 67.34025 70.40474 108.95999
#
# Poissons Ratio (x) = -0.18036 -0.01263
# Poissons Ratio (y) = -0.17251 0.13742
# Poissons Ratio (z) = -0.00780 0.08879
#
# Static dielectric constant tensor:
#      x y z
#    x 1.725850 0.000000 0.000000 
#    y 0.000000 1.696460 0.000000 
#    z 0.000000 0.000000 1.817410 
# 
# From -- ./inp_files/4672.got.cif
#   From: 2010.05.17/outbox.cif.g08.bks.cpg/sg65_3_cif.got.tgz:4672.got - 2010.06.03 17:01:31.
