data_PCOD9486769
_publ_section_title
;
Structure prediction by ZEFSAII (Michael W. Deem and Ramdas Pophale) SiO2 
 PCOD9486769
Probable space group: C M M M
;
_chemical_formula_sum "Si O2"
_cell_formula_units_Z 88
_cell_length_a 28.092283
_cell_length_b 18.116519
_cell_length_c 7.833006
_cell_angle_alpha 90.000000
_cell_angle_beta 90.000000
_cell_angle_gamma 90.000000
_cell_volume 3986.486042
_symmetry_space_group_name_H-M "C M M M"
_symmetry_group_IT_number 65
_symmetry_cell_setting 'orthorhombic'
loop_
_space_group_symop_operation_xyz
x,y,z
-x,-y,z
x,-y,-z
-x,y,-z
-x,-y,-z
x,y,-z
-x,y,z
x,-y,z
1/2+x,1/2+y,z
1/2-x,1/2-y,z
1/2+x,1/2-y,-z
1/2-x,1/2+y,-z
1/2-x,1/2-y,-z
1/2+x,1/2+y,-z
1/2-x,1/2+y,z
1/2+x,1/2-y,z
loop_
_atom_site_type_symbol
_atom_site_label
_atom_site_fract_x
_atom_site_fract_y
_atom_site_fract_z
Si Si1 0.818012 0.215073 0.305150
Si Si2 0.082588 0.190683 0.800242
Si Si3 0.000000 0.083881 0.705012
Si Si4 0.342417 0.879088 0.802020
Si Si5 0.258804 0.420534 0.300558
Si Si6 0.552714 0.144202 0.792244
O O1 0.804387 0.234347 0.500000
O O2 0.869385 0.176677 0.301804
O O3 0.829115 0.291967 0.211706
O O4 0.781025 0.155720 0.229780
O O5 0.058909 0.269010 0.749307
O O6 0.045509 0.126684 0.772679
O O7 0.094691 0.197274 0.000000
O O8 0.000000 0.087237 0.500000
O O9 0.000000 0.000000 0.760738
O O10 0.298195 0.917086 0.711716
O O11 0.396555 0.890311 0.735445
O O12 0.341909 0.901001 0.000000
O O13 0.272556 0.419564 0.500000
O O14 0.274505 0.500000 0.227099
O O15 0.500000 0.118649 0.734178
O O16 0.552671 0.138424 0.000000
#
# Coordination Sequence:
#
# PCOD9486769 Si02
#       6
#    16  16   8  16  16  16
#     4  10  20  35  56  80 107 142 182 224 271 329
#     4  10  19  33  53  76 102 134 175 225 273 315
#     4  11  23  35  47  67 101 145 186 223 266 323
#     4  10  20  33  55  85 111 138 178 227 274 321
#     4  10  22  39  56  74 104 147 186 222 274 336
#     4   8  14  28  51  77 104 132 162 206 262 315
#
# _framework density 22.074577999999999
#
# number of rings (size 3 to 8) (size 9 to 14) (size 15 to 20)
#    0.000    2.273    0.909    3.545    0.000    5.455 
#    0.000    1.818    0.000    0.545    0.000    3.818 
#    0.000    0.000    0.000    0.000    0.000    0.000 
#
# Total GULP energy -245445.917287 kJ/mol
# GULP energy per Si atom -5578.316302 kJ/mol
# Density = 2.202433 g / cm^3
# Si number density = 22.074578 Si / 1000 Ang^3
#
#
#
# Elastic Constant Matrix: (Units=GPa)
#
#
# Indices 1 2 3 4 5 6 
#
# 1 139.3745 8.9802 0.6126 0.0000 0.0000 0.0000
# 2 8.9802 37.0933 -4.1987 0.0000 0.0000 0.0000
# 3 0.6126 -4.1987 38.9593 0.0000 0.0000 0.0000
# 4 0.0000 0.0000 0.0000 10.5537 0.0000 0.0000
# 5 0.0000 0.0000 0.0000 0.0000 27.0561 0.0000
# 6 0.0000 0.0000 0.0000 0.0000 0.0000 9.0579
#
#
#
# Elastic Compliance Matrix: (Units=1/GPa)
#
#
# Indices 1 2 3 4 5 6 
#
# 1 0.007292 -0.001800 -0.000309 0.000000 0.000000 0.000000
# 2 -0.001800 0.027737 0.003018 0.000000 0.000000 0.000000
# 3 -0.000309 0.003018 0.025998 0.000000 0.000000 0.000000
# 4 0.000000 0.000000 0.000000 0.094754 0.000000 0.000000
# 5 0.000000 0.000000 0.000000 0.000000 0.036960 0.000000
# 6 0.000000 0.000000 0.000000 0.000000 0.000000 0.110400
#
#
# Mechanical properties :
#
#
# Convention : Reuss Voigt Hill
#
# Bulk Modulus (GPa) = 15.91254 25.13503 20.52378
# Shear Modulus (GPa) = 15.51485 23.33575 19.42530
#
# Velocity S-wave (km/s) = 2.65399 3.25488 2.96967
# Velocity P-wave (km/s) = 4.07624 5.05340 4.59089
#
# Compressibility (1/GPa) = 0.06284352
#
# Stress axis : x y z
#
# Youngs Moduli (GPa) = 137.13147 36.05356 38.46468
#
# Poissons Ratio (x) = 0.06491 0.01187
# Poissons Ratio (y) = 0.24689 -0.11607
# Poissons Ratio (z) = 0.04233 -0.10879
#
# Static dielectric constant tensor:
#      x y z
#    x 1.830470 0.000000 0.000000 
#    y 0.000000 1.838080 0.000000 
#    z 0.000000 0.000000 1.809210 
# 
# From -- ./inp_files/18340.got.cif
#   From: 2010.05.17/outbox.cif.g08.bks.cpg/sg65_10_cif.got.tgz:18340.got - 2010.06.03 17:01:31.
