data_PCOD9486540
_publ_section_title
;
Structure prediction by ZEFSAII (Michael W. Deem and Ramdas Pophale) SiO2 
 PCOD9486540
Probable space group: C M M M
;
_chemical_formula_sum "Si O2"
_cell_formula_units_Z 88
_cell_length_a 8.716114
_cell_length_b 25.403514
_cell_length_c 22.613106
_cell_angle_alpha 90.000000
_cell_angle_beta 90.000000
_cell_angle_gamma 90.000000
_cell_volume 5006.992212
_symmetry_space_group_name_H-M "C M M M"
_symmetry_group_IT_number 65
_symmetry_cell_setting 'orthorhombic'
loop_
_space_group_symop_operation_xyz
x,y,z
-x,-y,z
x,-y,-z
-x,y,-z
-x,-y,-z
x,y,-z
-x,y,z
x,-y,z
1/2+x,1/2+y,z
1/2-x,1/2-y,z
1/2+x,1/2-y,-z
1/2-x,1/2+y,-z
1/2-x,1/2-y,-z
1/2+x,1/2+y,-z
1/2-x,1/2+y,z
1/2+x,1/2-y,z
loop_
_atom_site_type_symbol
_atom_site_label
_atom_site_fract_x
_atom_site_fract_y
_atom_site_fract_z
Si Si1 0.315966 0.307203 0.798513
Si Si2 0.315458 0.084861 0.836510
Si Si3 0.184449 0.500000 0.616488
Si Si4 0.186295 0.500000 0.067107
Si Si5 0.183173 0.000000 0.747719
Si Si6 0.683218 0.693245 0.660794
Si Si7 0.184838 0.387039 0.566358
O O1 0.500000 0.306346 0.802607
O O2 0.250000 0.250000 0.815418
O O3 0.248745 0.356299 0.834346
O O4 0.272468 0.316336 0.729350
O O5 0.500000 0.085523 0.832730
O O6 0.269832 0.051280 0.894602
O O7 0.249878 0.050935 0.781708
O O8 0.264135 0.500000 0.680120
O O9 0.224175 0.447390 0.580919
O O10 0.000000 0.500000 0.625645
O O11 0.000000 0.500000 0.065235
O O12 0.243357 0.500000 0.000000
O O13 0.000000 0.000000 0.751932
O O14 0.500000 0.694689 0.658247
O O15 0.750000 0.750000 0.643936
O O16 0.745776 0.649610 0.616688
O O17 0.235751 0.372901 0.500000
O O18 0.000000 0.382503 0.568324
#
# Coordination Sequence:
#
# PCOD9486540 Si02
#       7
#    16  16   8   8   8  16  16
#     4  10  20  34  53  78 108 138 170 210 257 308
#     4  10  19  32  53  80 108 139 175 212 255 303
#     4  10  20  35  54  73  97 129 165 205 253 310
#     4   8  16  32  54  80 109 142 179 216 252 292
#     4  11  21  32  49  75 106 135 166 209 259 309
#     4  10  21  36  54  75  98 128 164 205 254 304
#     4  10  21  36  53  72  95 126 164 206 252 305
#
# _framework density 17.575422
#
# number of rings (size 3 to 8) (size 9 to 14) (size 15 to 20)
#    0.000    2.091    0.000    4.364    0.000    7.636 
#    0.000    0.000    0.000   12.000    0.000    0.000 
#    0.000    0.000    0.000    0.000    0.000    0.000 
#
# Total GULP energy -245669.121289 kJ/mol
# GULP energy per Si atom -5583.389120 kJ/mol
# Density = 1.753542 g / cm^3
# Si number density = 17.575422 Si / 1000 Ang^3
#
#
#
# Elastic Constant Matrix: (Units=GPa)
#
#
# Indices 1 2 3 4 5 6 
#
# 1 43.1699 41.6470 26.8959 0.0000 0.0000 0.0000
# 2 41.6470 154.7109 55.6889 0.0000 0.0000 0.0000
# 3 26.8959 55.6889 79.9404 0.0000 0.0000 0.0000
# 4 0.0000 0.0000 0.0000 -12.1603 0.0000 0.0000
# 5 0.0000 0.0000 0.0000 0.0000 12.6181 0.0000
# 6 0.0000 0.0000 0.0000 0.0000 0.0000 26.9703
#
#
#
# Elastic Compliance Matrix: (Units=1/GPa)
#
#
# Indices 1 2 3 4 5 6 
#
# 1 0.033792 -0.006679 -0.006717 0.000000 0.000000 0.000000
# 2 -0.006679 0.009947 -0.004682 0.000000 0.000000 0.000000
# 3 -0.006717 -0.004682 0.018031 0.000000 0.000000 0.000000
# 4 0.000000 0.000000 0.000000 -0.082234 0.000000 0.000000
# 5 0.000000 0.000000 0.000000 0.000000 0.079251 0.000000
# 6 0.000000 0.000000 0.000000 0.000000 0.000000 0.037078
#
#
# Mechanical properties :
#
#
# Convention : Reuss Voigt Hill
#
# Bulk Modulus (GPa) = 39.04035 58.47607 48.75821
# Shear Modulus (GPa) = 35.57233 15.72490 25.64862
#
# Velocity S-wave (km/s) = 4.50375 2.99441 3.82428
# Velocity P-wave (km/s) = 7.02184 6.73046 6.87769
#
# Compressibility (1/GPa) = 0.02561452
#
# Stress axis : x y z
#
# Youngs Moduli (GPa) = 29.59261 100.53300 55.46026
#
# Poissons Ratio (x) = 0.67145 0.37251
# Poissons Ratio (y) = 0.19765 0.25968
# Poissons Ratio (z) = 0.19876 0.47072
#
# Static dielectric constant tensor:
#      x y z
#    x 1.591110 0.000000 0.000000 
#    y 0.000000 1.587570 0.000000 
#    z 0.000000 0.000000 1.582580 
# 
# From -- ./inp_files/59895.got.cif
#   From: 2010.05.17/outbox.cif.g08.bks.cpg/sg65_30_cif.got.tgz:59895.got - 2010.06.03 17:01:31.
