data_PCOD9486241
_publ_section_title
;
Structure prediction by ZEFSAII (Michael W. Deem and Ramdas Pophale) SiO2 
 PCOD9486241
Probable space group: C M M M
;
_chemical_formula_sum "Si O2"
_cell_formula_units_Z 120
_cell_length_a 19.379472
_cell_length_b 31.110559
_cell_length_c 11.099428
_cell_angle_alpha 90.000000
_cell_angle_beta 90.000000
_cell_angle_gamma 90.000000
_cell_volume 6691.914036
_symmetry_space_group_name_H-M "C M M M"
_symmetry_group_IT_number 65
_symmetry_cell_setting 'orthorhombic'
loop_
_space_group_symop_operation_xyz
x,y,z
-x,-y,z
x,-y,-z
-x,y,-z
-x,-y,-z
x,y,-z
-x,y,z
x,-y,z
1/2+x,1/2+y,z
1/2-x,1/2-y,z
1/2+x,1/2-y,-z
1/2-x,1/2+y,-z
1/2-x,1/2-y,-z
1/2+x,1/2+y,-z
1/2-x,1/2+y,z
1/2+x,1/2-y,z
loop_
_atom_site_type_symbol
_atom_site_label
_atom_site_fract_x
_atom_site_fract_y
_atom_site_fract_z
Si Si1 0.081627 0.336217 0.360851
Si Si2 0.921158 0.051938 0.500000
Si Si3 0.714367 0.115925 0.642986
Si Si4 0.923581 0.896993 0.862137
Si Si5 0.578183 0.693378 0.268188
Si Si6 0.081996 0.277870 0.132262
Si Si7 0.822767 0.051011 0.724681
Si Si8 0.777090 0.794510 0.638115
O O1 0.092650 0.320468 0.500000
O O2 0.132509 0.376721 0.344721
O O3 0.102276 0.303116 0.254529
O O4 0.000000 0.345411 0.350335
O O5 0.875527 0.063525 0.615844
O O6 0.000000 0.068972 0.500000
O O7 0.926121 0.000000 0.500000
O O8 0.729085 0.111737 0.500000
O O9 0.751661 0.076308 0.706027
O O10 0.748482 0.160618 0.688906
O O11 0.916154 0.854963 0.779670
O O12 0.864014 0.931078 0.838425
O O13 0.000000 0.915981 0.838163
O O14 0.922105 0.882526 0.000000
O O15 0.500000 0.700515 0.314192
O O16 0.589634 0.727406 0.160192
O O17 0.640461 0.703012 0.357396
O O18 0.000000 0.285978 0.124666
O O19 0.111929 0.289142 0.000000
O O20 0.813725 0.000000 0.724180
O O21 0.752626 0.794241 0.500000
O O22 0.750000 0.750000 0.694926
#
# Coordination Sequence:
#
# PCOD9486241 Si02
#       8
#    16   8  16  16  16  16  16  16
#     4   9  18  33  56  82 106 139 184 227 268 326
#     4   9  18  32  52  78 102 125 167 221 261 306
#     4  10  19  34  54  77 109 142 173 215 272 328
#     4  10  21  37  55  75 104 144 187 229 272 317
#     4  10  19  32  51  73 102 142 184 223 265 318
#     4   9  17  30  50  76 106 140 179 224 270 314
#     4  11  21  35  55  78 103 138 178 218 271 327
#     4  10  20  33  50  74 106 143 177 216 269 323
#
# _framework density 17.932089999999999
#
# number of rings (size 3 to 8) (size 9 to 14) (size 15 to 20)
#    0.000    2.200    2.000    1.600    0.000    4.533 
#    0.000    2.667    0.000    2.000    0.000    1.867 
#    0.000    0.000    0.000    4.533    0.000    3.333 
#
# Total GULP energy -334174.392692 kJ/mol
# GULP energy per Si atom -5569.573212 kJ/mol
# Density = 1.789128 g / cm^3
# Si number density = 17.932090 Si / 1000 Ang^3
#
#
#
# Elastic Constant Matrix: (Units=GPa)
#
#
# Indices 1 2 3 4 5 6 
#
# 1 104.9336 48.0384 19.0695 0.0000 0.0000 0.0000
# 2 48.0384 98.2793 24.8808 0.0000 0.0000 0.0000
# 3 19.0695 24.8808 48.5972 0.0000 0.0000 0.0000
# 4 0.0000 0.0000 0.0000 10.6503 0.0000 0.0000
# 5 0.0000 0.0000 0.0000 0.0000 11.3836 0.0000
# 6 0.0000 0.0000 0.0000 0.0000 0.0000 27.2530
#
#
#
# Elastic Compliance Matrix: (Units=1/GPa)
#
#
# Indices 1 2 3 4 5 6 
#
# 1 0.012450 -0.005571 -0.002033 0.000000 0.000000 0.000000
# 2 -0.005571 0.014183 -0.005075 0.000000 0.000000 0.000000
# 3 -0.002033 -0.005075 0.023974 0.000000 0.000000 0.000000
# 4 0.000000 0.000000 0.000000 0.093894 0.000000 0.000000
# 5 0.000000 0.000000 0.000000 0.000000 0.087845 0.000000
# 6 0.000000 0.000000 0.000000 0.000000 0.000000 0.036693
#
#
# Mechanical properties :
#
#
# Convention : Reuss Voigt Hill
#
# Bulk Modulus (GPa) = 39.60758 48.42084 44.01421
# Shear Modulus (GPa) = 16.51185 20.51214 18.51199
#
# Velocity S-wave (km/s) = 3.03776 3.38580 3.21649
# Velocity P-wave (km/s) = 5.86851 6.50736 6.19618
#
# Compressibility (1/GPa) = 0.02524769
#
# Stress axis : x y z
#
# Youngs Moduli (GPa) = 80.32449 70.50768 41.71237
#
# Poissons Ratio (x) = 0.39276 0.08481
# Poissons Ratio (y) = 0.44745 0.21171
# Poissons Ratio (z) = 0.16331 0.35786
#
# Static dielectric constant tensor:
#      x y z
#    x 1.638070 0.000000 0.000000 
#    y 0.000000 1.608270 0.000000 
#    z 0.000000 0.000000 1.655930 
# 
# From -- ./inp_files/29682.got.cif
#   From: 2010.05.17/outbox.cif.g08.bks.cpg/sg65_15_cif.got.tgz:29682.got - 2010.06.03 17:01:31.
