data_PCOD9486894
_publ_section_title
;
Structure prediction by ZEFSAII (Michael W. Deem and Ramdas Pophale) SiO2 
 PCOD9486894
Probable space group: C M M M
;
_chemical_formula_sum "Si O2"
_cell_formula_units_Z 72
_cell_length_a 8.724792
_cell_length_b 15.652810
_cell_length_c 26.529936
_cell_angle_alpha 90.000000
_cell_angle_beta 90.000000
_cell_angle_gamma 90.000000
_cell_volume 3623.127339
_symmetry_space_group_name_H-M "C M M M"
_symmetry_group_IT_number 65
_symmetry_cell_setting 'orthorhombic'
loop_
_space_group_symop_operation_xyz
x,y,z
-x,-y,z
x,-y,-z
-x,y,-z
-x,-y,-z
x,y,-z
-x,y,z
x,-y,z
1/2+x,1/2+y,z
1/2-x,1/2-y,z
1/2+x,1/2-y,-z
1/2-x,1/2+y,-z
1/2-x,1/2-y,-z
1/2+x,1/2+y,-z
1/2-x,1/2+y,z
1/2+x,1/2-y,z
loop_
_atom_site_type_symbol
_atom_site_label
_atom_site_fract_x
_atom_site_fract_y
_atom_site_fract_z
Si Si1 0.312991 0.500000 0.442282
Si Si2 0.186683 0.899678 0.732457
Si Si3 0.814896 0.161313 0.624049
Si Si4 0.320293 0.604140 0.158400
Si Si5 0.317967 0.896983 0.945718
O O1 0.500000 0.500000 0.442836
O O2 0.260777 0.500000 0.500000
O O3 0.265600 0.416823 0.411049
O O4 0.238370 0.853593 0.681777
O O5 0.242422 0.867065 0.787050
O O6 0.000000 0.896074 0.733905
O O7 0.226093 0.000000 0.727635
O O8 0.750000 0.250000 0.604976
O O9 0.000000 0.162827 0.624613
O O10 0.500000 0.623368 0.156254
O O11 0.305429 0.500000 0.159278
O O12 0.247202 0.636702 0.106770
O O13 0.500000 0.884399 0.945375
O O14 0.291393 0.000000 0.945498
O O15 0.256661 0.865097 0.000000
#
# Coordination Sequence:
#
# PCOD9486894 Si02
#       5
#     8  16  16  16  16
#     4   9  18  34  57  81 105 141 184 213 242 300
#     4   8  13  25  45  65  87 122 164 201 243 298
#     4  10  19  33  54  78 105 137 174 215 256 302
#     4   8  13  20  33  53  73  99 145 197 236 276
#     4   8  13  20  28  41  69 109 146 180 228 290
#
# _framework density 19.872333999999999
#
# number of rings (size 3 to 8) (size 9 to 14) (size 15 to 20)
#    0.000    3.444    1.111    2.000    0.000    0.889 
#    0.000    3.889    0.000    2.000    0.000    0.000 
#    0.000    0.889    0.000    2.000    0.000    5.333 
#
# Total GULP energy -200481.783742 kJ/mol
# GULP energy per Si atom -5568.938437 kJ/mol
# Density = 1.982710 g / cm^3
# Si number density = 19.872334 Si / 1000 Ang^3
#
#
#
# Elastic Constant Matrix: (Units=GPa)
#
#
# Indices 1 2 3 4 5 6 
#
# 1 -9.2274 11.0967 30.1805 0.0000 0.0000 0.0000
# 2 11.0967 82.1279 64.2959 0.0000 0.0000 0.0000
# 3 30.1805 64.2959 202.4116 0.0000 0.0000 0.0000
# 4 0.0000 0.0000 0.0000 -11.4594 0.0000 0.0000
# 5 0.0000 0.0000 0.0000 0.0000 0.7800 0.0000
# 6 0.0000 0.0000 0.0000 0.0000 0.0000 10.7228
#
#
#
# Elastic Compliance Matrix: (Units=1/GPa)
#
#
# Indices 1 2 3 4 5 6 
#
# 1 -0.072651 0.001778 0.010268 0.000000 0.000000 0.000000
# 2 0.001778 0.016163 -0.005399 0.000000 0.000000 0.000000
# 3 0.010268 -0.005399 0.005124 0.000000 0.000000 0.000000
# 4 0.000000 0.000000 0.000000 -0.087265 0.000000 0.000000
# 5 0.000000 0.000000 0.000000 0.000000 1.282045 0.000000
# 6 0.000000 0.000000 0.000000 0.000000 0.000000 0.093259
#
#
# Mechanical properties :
#
#
# Convention : Reuss Voigt Hill
#
# Bulk Modulus (GPa) = -26.26687 54.05093 13.89203
# Shear Modulus (GPa) = 4.12987 11.32462 7.72724
#
# Velocity S-wave (km/s) = 1.44316 2.38978 1.97405
# Velocity P-wave (km/s) = 3.23567 5.90533 3.49309
#
# Compressibility (1/GPa) = -0.03807078
#
# Stress axis : x y z
#
# Youngs Moduli (GPa) = -13.76443 61.87044 195.14179
#
# Poissons Ratio (x) = -0.10999 -2.00370
# Poissons Ratio (y) = 0.02447 1.05360
# Poissons Ratio (z) = 0.14133 0.33405
#
# Static dielectric constant tensor:
#      x y z
#    x 1.675280 0.000000 0.000000 
#    y 0.000000 1.711840 0.000000 
#    z 0.000000 0.000000 1.750770 
# 
# From -- ./inp_files/72507.got.cif
#   From: 2010.05.17/outbox.cif.g08.bks.cpg/sg65_37_cif.got.tgz:72507.got - 2010.06.03 17:01:31.
