data_PCOD9486837
_publ_section_title
;
Structure prediction by ZEFSAII (Michael W. Deem and Ramdas Pophale) SiO2 
 PCOD9486837
Probable space group: C M M M
;
_chemical_formula_sum "Si O2"
_cell_formula_units_Z 88
_cell_length_a 19.966823
_cell_length_b 8.323686
_cell_length_c 28.981341
_cell_angle_alpha 90.000000
_cell_angle_beta 90.000000
_cell_angle_gamma 90.000000
_cell_volume 4816.628307
_symmetry_space_group_name_H-M "C M M M"
_symmetry_group_IT_number 65
_symmetry_cell_setting 'orthorhombic'
loop_
_space_group_symop_operation_xyz
x,y,z
-x,-y,z
x,-y,-z
-x,y,-z
-x,-y,-z
x,y,-z
-x,y,z
x,-y,z
1/2+x,1/2+y,z
1/2-x,1/2-y,z
1/2+x,1/2-y,-z
1/2-x,1/2+y,-z
1/2-x,1/2-y,-z
1/2+x,1/2+y,-z
1/2-x,1/2+y,z
1/2+x,1/2-y,z
loop_
_atom_site_type_symbol
_atom_site_label
_atom_site_fract_x
_atom_site_fract_y
_atom_site_fract_z
Si Si1 0.674576 0.807704 0.581939
Si Si2 0.422948 0.805930 0.866836
Si Si3 0.674872 0.692618 0.685086
Si Si4 0.422995 0.694015 0.765958
Si Si5 0.922684 0.696462 0.500000
Si Si6 0.325598 0.805781 0.947886
O O1 0.750000 0.750000 0.570653
O O2 0.658017 0.751487 0.633652
O O3 0.619859 0.752099 0.544779
O O4 0.675821 0.000000 0.581391
O O5 0.500000 0.751604 0.872696
O O6 0.399667 0.750388 0.816353
O O7 0.376043 0.748542 0.908373
O O8 0.422929 0.000000 0.867412
O O9 0.674292 0.500000 0.684560
O O10 0.750000 0.750000 0.695475
O O11 0.623747 0.750381 0.724264
O O12 0.500000 0.748525 0.760060
O O13 0.422857 0.500000 0.765625
O O14 0.923576 0.500000 0.500000
O O15 0.000000 0.749763 0.500000
O O16 0.250000 0.750000 0.938726
O O17 0.326632 0.000000 0.947605
O O18 0.343805 0.753056 0.000000
#
# Coordination Sequence:
#
# PCOD9486837 Si02
#       6
#    16  16  16  16   8  16
#     4  10  19  33  54  75  99 131 164 200 240 285
#     4   9  18  32  50  72  96 124 161 201 238 282
#     4  10  20  34  52  74 100 128 162 202 241 286
#     4   9  19  35  52  70  96 130 162 196 242 289
#     4   9  19  34  51  75 104 131 162 200 242 287
#     4   9  18  32  49  70  97 127 158 195 240 287
#
# _framework density 18.270040999999999
#
# number of rings (size 3 to 8) (size 9 to 14) (size 15 to 20)
#    0.000    2.636    0.000    2.455    0.000    4.000 
#    0.000    6.818    0.000    3.818    0.000    5.091 
#    0.000    0.000    0.000    0.000    0.000    0.000 
#
# Total GULP energy -245423.135707 kJ/mol
# GULP energy per Si atom -5577.798539 kJ/mol
# Density = 1.822846 g / cm^3
# Si number density = 18.270041 Si / 1000 Ang^3
#
#
#
# Elastic Constant Matrix: (Units=GPa)
#
#
# Indices 1 2 3 4 5 6 
#
# 1 122.5740 16.0292 134.2953 0.0000 0.0000 0.0000
# 2 16.0292 19.0195 19.7750 0.0000 0.0000 0.0000
# 3 134.2953 19.7750 185.2823 0.0000 0.0000 0.0000
# 4 0.0000 0.0000 0.0000 20.5910 0.0000 0.0000
# 5 0.0000 0.0000 0.0000 0.0000 34.8070 0.0000
# 6 0.0000 0.0000 0.0000 0.0000 0.0000 21.6622
#
#
#
# Elastic Compliance Matrix: (Units=1/GPa)
#
#
# Indices 1 2 3 4 5 6 
#
# 1 0.039897 -0.004002 -0.028491 0.000000 0.000000 0.000000
# 2 -0.004002 0.059542 -0.003454 0.000000 0.000000 0.000000
# 3 -0.028491 -0.003454 0.026416 0.000000 0.000000 0.000000
# 4 0.000000 0.000000 0.000000 0.048565 0.000000 0.000000
# 5 0.000000 0.000000 0.000000 0.000000 0.028730 0.000000
# 6 0.000000 0.000000 0.000000 0.000000 0.000000 0.046163
#
#
# Mechanical properties :
#
#
# Convention : Reuss Voigt Hill
#
# Bulk Modulus (GPa) = 18.53182 74.11942 46.32562
# Shear Modulus (GPa) = 14.74086 25.86380 20.30233
#
# Velocity S-wave (km/s) = 2.84356 3.76658 3.33714
# Velocity P-wave (km/s) = 4.57673 7.71836 6.34506
#
# Compressibility (1/GPa) = 0.05396124
#
# Stress axis : x y z
#
# Youngs Moduli (GPa) = 25.06469 16.79497 37.85546
#
# Poissons Ratio (x) = 0.06721 1.07853
# Poissons Ratio (y) = 0.10031 0.13076
# Poissons Ratio (z) = 0.71411 0.05801
#
# Static dielectric constant tensor:
#      x y z
#    x 1.611790 0.000000 0.000000 
#    y 0.000000 1.635830 0.000000 
#    z 0.000000 0.000000 1.621840 
# 
# From -- ./inp_files/77957.got.cif
#   From: 2010.05.17/outbox.cif.g08.bks.cpg/sg65_39_cif.got.tgz:77957.got - 2010.06.03 17:01:31.
