data_PCOD9486579
_publ_section_title
;
Structure prediction by ZEFSAII (Michael W. Deem and Ramdas Pophale) SiO2 
 PCOD9486579
Probable space group: C M M M
;
_chemical_formula_sum "Si O2"
_cell_formula_units_Z 96
_cell_length_a 29.833589
_cell_length_b 8.463751
_cell_length_c 21.230224
_cell_angle_alpha 90.000000
_cell_angle_beta 90.000000
_cell_angle_gamma 90.000000
_cell_volume 5360.717940
_symmetry_space_group_name_H-M "C M M M"
_symmetry_group_IT_number 65
_symmetry_cell_setting 'orthorhombic'
loop_
_space_group_symop_operation_xyz
x,y,z
-x,-y,z
x,-y,-z
-x,y,-z
-x,-y,-z
x,y,-z
-x,y,z
x,-y,z
1/2+x,1/2+y,z
1/2-x,1/2-y,z
1/2+x,1/2-y,-z
1/2-x,1/2+y,-z
1/2-x,1/2-y,-z
1/2+x,1/2+y,-z
1/2-x,1/2+y,z
1/2+x,1/2-y,z
loop_
_atom_site_type_symbol
_atom_site_label
_atom_site_fract_x
_atom_site_fract_y
_atom_site_fract_z
Si Si1 0.108422 0.690780 0.930613
Si Si2 0.702204 0.189817 0.739529
Si Si3 0.948853 0.190522 0.428155
Si Si4 0.701858 0.688009 0.883036
Si Si5 0.392224 0.190509 0.312566
Si Si6 0.551636 0.193087 0.190061
O O1 0.108273 0.500000 0.928772
O O2 0.159127 0.746973 0.919846
O O3 0.077630 0.746048 0.872717
O O4 0.092613 0.740807 0.000000
O O5 0.750000 0.250000 0.715099
O O6 0.697099 0.254075 0.810650
O O7 0.659056 0.240211 0.699425
O O8 0.702960 0.000000 0.743208
O O9 0.938875 0.240963 0.500000
O O10 0.914496 0.251251 0.376529
O O11 0.000000 0.241864 0.413060
O O12 0.948560 0.000000 0.427382
O O13 0.702098 0.500000 0.884462
O O14 0.750000 0.750000 0.906274
O O15 0.421744 0.243859 0.252494
O O16 0.392887 0.000000 0.312617
O O17 0.500000 0.243827 0.191107
O O18 0.551948 0.000000 0.189795
#
# Coordination Sequence:
#
# PCOD9486579 Si02
#       6
#    16  16  16  16  16  16
#     4  10  20  35  53  73 102 138 175 217 263 312
#     4  10  19  33  53  79 109 137 171 213 260 311
#     4   9  19  35  53  77 112 148 179 214 257 307
#     4  11  21  34  54  76 102 133 169 214 265 319
#     4  10  19  32  54  80 109 139 172 217 261 305
#     4   9  17  31  51  76 105 134 169 215 262 306
#
# _framework density 17.908048999999998
#
# number of rings (size 3 to 8) (size 9 to 14) (size 15 to 20)
#    0.000    2.167    1.667    4.000    0.000    3.667 
#    0.000    2.500    0.000    1.000    0.000    1.167 
#    0.000    0.000    0.000    0.000    0.000    0.000 
#
# Total GULP energy -267898.727013 kJ/mol
# GULP energy per Si atom -5581.223479 kJ/mol
# Density = 1.786729 g / cm^3
# Si number density = 17.908049 Si / 1000 Ang^3
#
#
#
# Elastic Constant Matrix: (Units=GPa)
#
#
# Indices 1 2 3 4 5 6 
#
# 1 141.2219 13.1235 79.6472 0.0000 0.0000 0.0000
# 2 13.1235 12.0263 16.4906 0.0000 0.0000 0.0000
# 3 79.6472 16.4906 114.6594 0.0000 0.0000 0.0000
# 4 0.0000 0.0000 0.0000 17.2050 0.0000 0.0000
# 5 0.0000 0.0000 0.0000 0.0000 20.3980 0.0000
# 6 0.0000 0.0000 0.0000 0.0000 0.0000 10.7659
#
#
#
# Elastic Compliance Matrix: (Units=1/GPa)
#
#
# Indices 1 2 3 4 5 6 
#
# 1 0.011681 -0.002019 -0.007824 0.000000 0.000000 0.000000
# 2 -0.002019 0.103926 -0.013545 0.000000 0.000000 0.000000
# 3 -0.007824 -0.013545 0.016104 0.000000 0.000000 0.000000
# 4 0.000000 0.000000 0.000000 0.058123 0.000000 0.000000
# 5 0.000000 0.000000 0.000000 0.000000 0.049024 0.000000
# 6 0.000000 0.000000 0.000000 0.000000 0.000000 0.092886
#
#
# Mechanical properties :
#
#
# Convention : Reuss Voigt Hill
#
# Bulk Modulus (GPa) = 11.77339 54.04782 32.91061
# Shear Modulus (GPa) = 12.29009 20.25021 16.27015
#
# Velocity S-wave (km/s) = 2.62255 3.36637 3.01747
# Velocity P-wave (km/s) = 3.96976 6.73470 5.52789
#
# Compressibility (1/GPa) = 0.08493727
#
# Stress axis : x y z
#
# Youngs Moduli (GPa) = 85.60732 9.62220 62.09493
#
# Poissons Ratio (x) = 0.01942 0.48583
# Poissons Ratio (y) = 0.17281 0.84106
# Poissons Ratio (z) = 0.66979 0.13033
#
# Static dielectric constant tensor:
#      x y z
#    x 1.610840 0.000000 0.000000 
#    y 0.000000 1.614870 0.000000 
#    z 0.000000 0.000000 1.600140 
# 
# From -- ./inp_files/65754.got.cif
#   From: 2010.05.17/outbox.cif.g08.bks.cpg/sg65_33_cif.got.tgz:65754.got - 2010.06.03 17:01:31.
