data_PCOD9486651
_publ_section_title
;
Structure prediction by ZEFSAII (Michael W. Deem and Ramdas Pophale) SiO2 
 PCOD9486651
Probable space group: C M M M
;
_chemical_formula_sum "Si O2"
_cell_formula_units_Z 50
_cell_length_a 7.426912
_cell_length_b 18.248150
_cell_length_c 19.744330
_cell_angle_alpha 90.000000
_cell_angle_beta 90.000000
_cell_angle_gamma 90.000000
_cell_volume 2675.897793
_symmetry_space_group_name_H-M "C M M M"
_symmetry_group_IT_number 65
_symmetry_cell_setting 'orthorhombic'
loop_
_space_group_symop_operation_xyz
x,y,z
-x,-y,z
x,-y,-z
-x,y,-z
-x,-y,-z
x,y,-z
-x,y,z
x,-y,z
1/2+x,1/2+y,z
1/2-x,1/2-y,z
1/2+x,1/2-y,-z
1/2-x,1/2+y,-z
1/2-x,1/2-y,-z
1/2+x,1/2+y,-z
1/2-x,1/2+y,z
1/2+x,1/2-y,z
loop_
_atom_site_type_symbol
_atom_site_label
_atom_site_fract_x
_atom_site_fract_y
_atom_site_fract_z
Si Si1 0.212806 0.336441 0.724430
Si Si2 0.500000 0.419031 0.640147
Si Si3 0.284692 0.836406 0.000000
Si Si4 0.219543 0.584590 0.136407
Si Si5 0.500000 0.500000 0.500000
O O1 0.250000 0.250000 0.725958
O O2 0.326963 0.374895 0.665742
O O3 0.271279 0.372179 0.795861
O O4 0.000000 0.349063 0.715715
O O5 0.500000 0.500000 0.673866
O O6 0.500000 0.437253 0.560767
O O7 0.250000 0.750000 0.000000
O O8 0.217273 0.874784 0.068473
O O9 0.500000 0.846426 0.000000
O O10 0.276512 0.500000 0.137926
O O11 0.000000 0.584878 0.135296
#
# Coordination Sequence:
#
# PCOD9486651 Si02
#       5
#    16   8   8  16   2
#     4  11  21  37  64  96 128 165 212 261 314 369
#     4  10  22  44  68  93 129 162 200 254 308 380
#     4  10  19  33  51  71 111 156 202 263 316 362
#     4   9  18  32  53  82 112 158 210 258 310 374
#     4   8  24  48  70  96 136 160 202 248 310 396
#
# _framework density 18.685317000000001
#
# number of rings (size 3 to 8) (size 9 to 14) (size 15 to 20)
#    0.480    1.600    1.600    2.400    0.000    3.840 
#    2.880    2.400    0.000    0.960    0.000    0.000 
#    0.000    0.000    0.000    0.000    0.000    0.000 
#
# Total GULP energy -139303.235544 kJ/mol
# GULP energy per Si atom -5572.129422 kJ/mol
# Density = 1.864279 g / cm^3
# Si number density = 18.685317 Si / 1000 Ang^3
#
#
#
# Elastic Constant Matrix: (Units=GPa)
#
#
# Indices 1 2 3 4 5 6 
#
# 1 94.5977 30.6784 50.6358 0.0000 0.0000 0.0000
# 2 30.6784 185.6982 102.6451 0.0000 0.0000 0.0000
# 3 50.6358 102.6451 196.9775 0.0000 0.0000 0.0000
# 4 0.0000 0.0000 0.0000 15.5065 0.0000 0.0000
# 5 0.0000 0.0000 0.0000 0.0000 6.8482 0.0000
# 6 0.0000 0.0000 0.0000 0.0000 0.0000 10.5920
#
#
#
# Elastic Compliance Matrix: (Units=1/GPa)
#
#
# Indices 1 2 3 4 5 6 
#
# 1 0.012279 -0.000399 -0.002949 0.000000 0.000000 0.000000
# 2 -0.000399 0.007577 -0.003846 0.000000 0.000000 0.000000
# 3 -0.002949 -0.003846 0.007839 0.000000 0.000000 0.000000
# 4 0.000000 0.000000 0.000000 0.064489 0.000000 0.000000
# 5 0.000000 0.000000 0.000000 0.000000 0.146024 0.000000
# 6 0.000000 0.000000 0.000000 0.000000 0.000000 0.094411
#
#
# Mechanical properties :
#
#
# Convention : Reuss Voigt Hill
#
# Bulk Modulus (GPa) = 75.14261 93.91023 84.52642
# Shear Modulus (GPa) = 14.22718 26.14362 20.18540
#
# Velocity S-wave (km/s) = 2.76236 3.74458 3.29033
# Velocity P-wave (km/s) = 7.10466 8.31046 7.73111
#
# Compressibility (1/GPa) = 0.01330803
#
# Stress axis : x y z
#
# Youngs Moduli (GPa) = 81.44177 131.98395 127.57146
#
# Poissons Ratio (x) = 0.05261 0.37617
# Poissons Ratio (y) = 0.03246 0.49061
# Poissons Ratio (z) = 0.24015 0.50758
#
# Static dielectric constant tensor:
#      x y z
#    x 1.701560 0.000000 0.000000 
#    y 0.000000 1.621780 0.000000 
#    z 0.000000 0.000000 1.608090 
# 
# From -- ./inp_files/48700.got.cif
#   From: 2010.05.17/outbox.cif.g08.bks.cpg/sg65_25_cif.got.tgz:48700.got - 2010.06.03 17:01:31.
