data_PCOD9486667
_publ_section_title
;
Structure prediction by ZEFSAII (Michael W. Deem and Ramdas Pophale) SiO2 
 PCOD9486667
Probable space group: C M M M
;
_chemical_formula_sum "Si O2"
_cell_formula_units_Z 72
_cell_length_a 14.306326
_cell_length_b 26.837158
_cell_length_c 10.672636
_cell_angle_alpha 90.000000
_cell_angle_beta 90.000000
_cell_angle_gamma 90.000000
_cell_volume 4097.663939
_symmetry_space_group_name_H-M "C M M M"
_symmetry_group_IT_number 65
_symmetry_cell_setting 'orthorhombic'
loop_
_space_group_symop_operation_xyz
x,y,z
-x,-y,z
x,-y,-z
-x,y,-z
-x,-y,-z
x,y,-z
-x,y,z
x,-y,z
1/2+x,1/2+y,z
1/2-x,1/2-y,z
1/2+x,1/2-y,-z
1/2-x,1/2+y,-z
1/2-x,1/2-y,-z
1/2+x,1/2+y,-z
1/2-x,1/2+y,z
1/2+x,1/2-y,z
loop_
_atom_site_type_symbol
_atom_site_label
_atom_site_fract_x
_atom_site_fract_y
_atom_site_fract_z
Si Si1 0.386222 0.000000 0.645781
Si Si2 0.886357 0.056829 0.500000
Si Si3 0.887802 0.885784 0.749477
Si Si4 0.261905 0.308155 0.650674
Si Si5 0.614235 0.557424 0.000000
Si Si6 0.608037 0.890586 0.652204
O O1 0.359488 0.945595 0.698942
O O2 0.500000 0.000000 0.646863
O O3 0.357383 0.000000 0.500000
O O4 0.855846 0.084037 0.374040
O O5 0.000000 0.057405 0.500000
O O6 0.856501 0.000000 0.500000
O O7 0.847159 0.831258 0.728160
O O8 0.856714 0.913433 0.875173
O O9 0.000000 0.885118 0.749665
O O10 0.278185 0.312573 0.500000
O O11 0.250000 0.250000 0.677281
O O12 0.174422 0.344169 0.683406
O O13 0.645076 0.500000 0.000000
O O14 0.500000 0.556481 0.000000
O O15 0.607863 0.893756 0.500000
O O16 0.500000 0.882657 0.690631
#
# Coordination Sequence:
#
# PCOD9486667 Si02
#       6
#     8   8  16  16   8  16
#     4   7  10  20  38  56  79 108 145 194 243 289
#     4   9  16  28  47  72 103 133 162 204 256 310
#     4  10  19  33  51  74 104 137 174 212 258 312
#     4  10  20  32  45  69 104 138 175 213 254 307
#     4   9  18  34  55  76 103 139 174 210 254 314
#     4   8  14  26  42  62  89 124 161 202 251 299
#
# _framework density 17.570986999999999
#
# number of rings (size 3 to 8) (size 9 to 14) (size 15 to 20)
#    0.000    3.000    1.111    2.000    0.000    3.556 
#    4.000    2.778    0.000    0.000    0.000    0.778 
#    0.000    0.889    0.000    0.000    0.000    0.000 
#
# Total GULP energy -200533.889633 kJ/mol
# GULP energy per Si atom -5570.385823 kJ/mol
# Density = 1.753099 g / cm^3
# Si number density = 17.570987 Si / 1000 Ang^3
#
#
#
# Elastic Constant Matrix: (Units=GPa)
#
#
# Indices 1 2 3 4 5 6 
#
# 1 49.6723 38.5725 17.5230 0.0000 0.0000 0.0000
# 2 38.5725 177.9700 59.5434 0.0000 0.0000 0.0000
# 3 17.5230 59.5434 91.3751 0.0000 0.0000 0.0000
# 4 0.0000 0.0000 0.0000 16.6757 0.0000 0.0000
# 5 0.0000 0.0000 0.0000 0.0000 6.6032 0.0000
# 6 0.0000 0.0000 0.0000 0.0000 0.0000 30.7775
#
#
#
# Elastic Compliance Matrix: (Units=1/GPa)
#
#
# Indices 1 2 3 4 5 6 
#
# 1 0.024382 -0.004757 -0.001576 0.000000 0.000000 0.000000
# 2 -0.004757 0.008114 -0.004375 0.000000 0.000000 0.000000
# 3 -0.001576 -0.004375 0.014097 0.000000 0.000000 0.000000
# 4 0.000000 0.000000 0.000000 0.059967 0.000000 0.000000
# 5 0.000000 0.000000 0.000000 0.000000 0.151442 0.000000
# 6 0.000000 0.000000 0.000000 0.000000 0.000000 0.032491
#
#
# Mechanical properties :
#
#
# Convention : Reuss Voigt Hill
#
# Bulk Modulus (GPa) = 39.71899 61.14390 50.43145
# Shear Modulus (GPa) = 15.61031 24.36986 19.99008
#
# Velocity S-wave (km/s) = 2.98386 3.72820 3.37660
# Velocity P-wave (km/s) = 5.87581 7.30797 6.63067
#
# Compressibility (1/GPa) = 0.02517687
#
# Stress axis : x y z
#
# Youngs Moduli (GPa) = 41.01380 123.24832 70.93749
#
# Poissons Ratio (x) = 0.58633 0.11178
# Poissons Ratio (y) = 0.19511 0.31034
# Poissons Ratio (z) = 0.06463 0.53920
#
# Static dielectric constant tensor:
#      x y z
#    x 1.643000 0.000000 0.000000 
#    y 0.000000 1.666510 0.000000 
#    z 0.000000 0.000000 1.565280 
# 
# From -- ./inp_files/7415.got.cif
#   From: 2010.05.17/outbox.cif.g08.bks.cpg/sg65_4_cif.got.tgz:7415.got - 2010.06.03 17:01:31.
