data_PCOD9486960
_publ_section_title
;
Structure prediction by ZEFSAII (Michael W. Deem and Ramdas Pophale) SiO2 
 PCOD9486960
Probable space group: C M M M
;
_chemical_formula_sum "Si O2"
_cell_formula_units_Z 72
_cell_length_a 21.203784
_cell_length_b 22.256734
_cell_length_c 7.710948
_cell_angle_alpha 90.000000
_cell_angle_beta 90.000000
_cell_angle_gamma 90.000000
_cell_volume 3639.004405
_symmetry_space_group_name_H-M "C M M M"
_symmetry_group_IT_number 65
_symmetry_cell_setting 'orthorhombic'
loop_
_space_group_symop_operation_xyz
x,y,z
-x,-y,z
x,-y,-z
-x,y,-z
-x,-y,-z
x,y,-z
-x,y,z
x,-y,z
1/2+x,1/2+y,z
1/2-x,1/2-y,z
1/2+x,1/2-y,-z
1/2-x,1/2+y,-z
1/2-x,1/2-y,-z
1/2+x,1/2+y,-z
1/2-x,1/2+y,z
1/2+x,1/2-y,z
loop_
_atom_site_type_symbol
_atom_site_label
_atom_site_fract_x
_atom_site_fract_y
_atom_site_fract_z
Si Si1 0.199685 0.302973 0.786605
Si Si2 0.500000 0.430224 0.806038
Si Si3 0.427599 0.748164 0.202442
Si Si4 0.753417 0.567097 0.798646
Si Si5 0.126555 0.121395 0.696335
O O1 0.250000 0.250000 0.735048
O O2 0.128038 0.290410 0.725854
O O3 0.218201 0.370242 0.728006
O O4 0.200958 0.302163 0.000000
O O5 0.500000 0.500000 0.830393
O O6 0.438552 0.413151 0.702713
O O7 0.500000 0.400821 0.000000
O O8 0.500000 0.746845 0.274086
O O9 0.392774 0.683968 0.216811
O O10 0.434018 0.762884 0.000000
O O11 0.765424 0.500000 0.723734
O O12 0.679142 0.581943 0.789099
O O13 0.772656 0.564359 0.000000
O O14 0.147287 0.132760 0.500000
#
# Coordination Sequence:
#
# PCOD9486960 Si02
#       5
#    16   8  16  16  16
#     4   9  16  30  54  79 101 131 178 226 261 305
#     4  11  23  37  51  67  95 141 188 215 246 311
#     4  10  19  33  55  77 102 138 179 218 260 315
#     4  10  20  35  55  76 101 137 179 219 261 314
#     4  12  23  33  49  75 108 138 170 216 266 310
#
# _framework density 19.785630000000001
#
# number of rings (size 3 to 8) (size 9 to 14) (size 15 to 20)
#    0.000    1.667    3.333    3.000    0.000    4.000 
#    0.000    2.222    0.000    0.667    0.000    4.667 
#    0.000    0.000    0.000    4.000    0.000    4.444 
#
# Total GULP energy -200509.554361 kJ/mol
# GULP energy per Si atom -5569.709843 kJ/mol
# Density = 1.974060 g / cm^3
# Si number density = 19.785630 Si / 1000 Ang^3
#
#
#
# Elastic Constant Matrix: (Units=GPa)
#
#
# Indices 1 2 3 4 5 6 
#
# 1 76.9199 62.5057 7.7869 0.0000 0.0000 0.0000
# 2 62.5057 156.9652 -0.6178 0.0000 0.0000 0.0000
# 3 7.7869 -0.6178 43.9241 0.0000 0.0000 0.0000
# 4 0.0000 0.0000 0.0000 -66.9148 0.0000 0.0000
# 5 0.0000 0.0000 0.0000 0.0000 -2.8375 0.0000
# 6 0.0000 0.0000 0.0000 0.0000 0.0000 47.9023
#
#
#
# Elastic Compliance Matrix: (Units=1/GPa)
#
#
# Indices 1 2 3 4 5 6 
#
# 1 0.019778 -0.007890 -0.003617 0.000000 0.000000 0.000000
# 2 -0.007890 0.009519 0.001533 0.000000 0.000000 0.000000
# 3 -0.003617 0.001533 0.023429 0.000000 0.000000 0.000000
# 4 0.000000 0.000000 0.000000 -0.014944 0.000000 0.000000
# 5 0.000000 0.000000 0.000000 0.000000 -0.352419 0.000000
# 6 0.000000 0.000000 0.000000 0.000000 0.000000 0.020876
#
#
# Mechanical properties :
#
#
# Convention : Reuss Voigt Hill
#
# Bulk Modulus (GPa) = 30.50931 46.35097 38.43014
# Shear Modulus (GPa) = -19.01967 9.50562 -4.75702
#
# Velocity S-wave (km/s) = -3.10383 2.19425 -1.55226
# Velocity P-wave (km/s) = 1.61506 5.46782 4.03147
#
# Compressibility (1/GPa) = 0.03277688
#
# Stress axis : x y z
#
# Youngs Moduli (GPa) = 50.56014 105.05431 42.68142
#
# Poissons Ratio (x) = 0.82891 0.15439
# Poissons Ratio (y) = 0.39893 -0.06542
# Poissons Ratio (z) = 0.18289 -0.16102
#
# Static dielectric constant tensor:
#      x y z
#    x 1.718000 0.000000 0.000000 
#    y 0.000000 1.762790 0.000000 
#    z 0.000000 0.000000 1.781910 
# 
# From -- ./inp_files/11274.got.cif
#   From: 2010.05.17/outbox.cif.g08.bks.cpg/sg65_6_cif.got.tgz:11274.got - 2010.06.03 17:01:31.
