data_PCOD9486510
_publ_section_title
;
Structure prediction by ZEFSAII (Michael W. Deem and Ramdas Pophale) SiO2 
 PCOD9486510
Probable space group: C M M M
;
_chemical_formula_sum "Si O2"
_cell_formula_units_Z 104
_cell_length_a 14.391185
_cell_length_b 18.933306
_cell_length_c 20.110687
_cell_angle_alpha 90.000000
_cell_angle_beta 90.000000
_cell_angle_gamma 90.000000
_cell_volume 5479.613373
_symmetry_space_group_name_H-M "C M M M"
_symmetry_group_IT_number 65
_symmetry_cell_setting 'orthorhombic'
loop_
_space_group_symop_operation_xyz
x,y,z
-x,-y,z
x,-y,-z
-x,y,-z
-x,-y,-z
x,y,-z
-x,y,z
x,-y,z
1/2+x,1/2+y,z
1/2-x,1/2-y,z
1/2+x,1/2-y,-z
1/2-x,1/2+y,-z
1/2-x,1/2-y,-z
1/2+x,1/2+y,-z
1/2-x,1/2+y,z
1/2+x,1/2-y,z
loop_
_atom_site_type_symbol
_atom_site_label
_atom_site_fract_x
_atom_site_fract_y
_atom_site_fract_z
Si Si1 0.104855 0.766863 0.765949
Si Si2 0.393731 0.215157 0.387225
Si Si3 0.781600 0.579501 0.350900
Si Si4 0.000000 0.920303 0.080310
Si Si5 0.797926 0.084467 0.925234
Si Si6 0.716640 0.136890 0.205356
Si Si7 0.110247 0.131134 0.425368
O O1 0.108629 0.744148 0.688558
O O2 0.186895 0.821794 0.779162
O O3 0.135519 0.694639 0.801567
O O4 0.000000 0.790087 0.781144
O O5 0.500000 0.199304 0.405688
O O6 0.335395 0.143396 0.387723
O O7 0.363665 0.285476 0.425765
O O8 0.809703 0.500000 0.369206
O O9 0.797331 0.590592 0.271762
O O10 0.674610 0.591841 0.372387
O O11 0.900469 0.886428 0.094648
O O12 0.000000 0.000000 0.109482
O O13 0.000000 0.926635 0.000000
O O14 0.729492 0.099851 0.865112
O O15 0.808779 0.000000 0.929756
O O16 0.773455 0.109603 0.000000
O O17 0.124220 0.102722 0.500000
O O18 0.000000 0.127351 0.409514
#
# Coordination Sequence:
#
# PCOD9486510 Si02
#       7
#    16  16  16   8  16  16  16
#     4   9  18  33  52  74 101 133 172 217 261 305
#     4   9  18  36  58  77 102 140 185 222 255 307
#     4  11  22  34  52  83 116 139 169 220 275 320
#     4   7  12  24  40  62  92 124 159 195 240 302
#     4   9  17  30  48  70 100 137 172 208 256 316
#     4  10  19  32  53  77 101 135 174 214 261 312
#     4  10  21  38  59  79 103 142 186 220 256 312
#
# _framework density 18.979441000000001
#
# number of rings (size 3 to 8) (size 9 to 14) (size 15 to 20)
#    0.000    2.538    1.538    1.846    1.077    2.154 
#    0.000    2.308    0.000    2.769    0.000    4.308 
#    0.000    0.000    0.000    0.000    0.000    0.000 
#
# Total GULP energy -289600.526171 kJ/mol
# GULP energy per Si atom -5569.240888 kJ/mol
# Density = 1.893624 g / cm^3
# Si number density = 18.979441 Si / 1000 Ang^3
#
#
#
# Elastic Constant Matrix: (Units=GPa)
#
#
# Indices 1 2 3 4 5 6 
#
# 1 33.0400 5.4057 -5.6215 0.0000 0.0000 0.0000
# 2 5.4057 46.9027 0.6036 0.0000 0.0000 0.0000
# 3 -5.6215 0.6036 48.1416 0.0000 0.0000 0.0000
# 4 0.0000 0.0000 0.0000 15.7935 0.0000 0.0000
# 5 0.0000 0.0000 0.0000 0.0000 15.0780 0.0000
# 6 0.0000 0.0000 0.0000 0.0000 0.0000 17.4988
#
#
#
# Elastic Compliance Matrix: (Units=1/GPa)
#
#
# Indices 1 2 3 4 5 6 
#
# 1 0.031502 -0.003679 0.003725 0.000000 0.000000 0.000000
# 2 -0.003679 0.021754 -0.000702 0.000000 0.000000 0.000000
# 3 0.003725 -0.000702 0.021216 0.000000 0.000000 0.000000
# 4 0.000000 0.000000 0.000000 0.063317 0.000000 0.000000
# 5 0.000000 0.000000 0.000000 0.000000 0.066322 0.000000
# 6 0.000000 0.000000 0.000000 0.000000 0.000000 0.057147
#
#
# Mechanical properties :
#
#
# Convention : Reuss Voigt Hill
#
# Bulk Modulus (GPa) = 13.66889 14.31776 13.99332
# Shear Modulus (GPa) = 17.42427 18.18717 17.80572
#
# Velocity S-wave (km/s) = 3.03324 3.09893 3.06626
# Velocity P-wave (km/s) = 4.41418 4.51273 4.46372
#
# Compressibility (1/GPa) = 0.07315882
#
# Stress axis : x y z
#
# Youngs Moduli (GPa) = 31.74414 45.96913 47.13472
#
# Poissons Ratio (x) = 0.16910 -0.17556
# Poissons Ratio (y) = 0.11677 0.03310
# Poissons Ratio (z) = -0.11824 0.03228
#
# Static dielectric constant tensor:
#      x y z
#    x 1.696510 0.000000 0.000000 
#    y 0.000000 1.680670 0.000000 
#    z 0.000000 0.000000 1.673450 
# 
# From -- ./inp_files/62844.got.cif
#   From: 2010.05.17/outbox.cif.g08.bks.cpg/sg65_32_cif.got.tgz:62844.got - 2010.06.03 17:01:31.
