data_PCOD9486006
_publ_section_title
;
Structure prediction by ZEFSAII (Michael W. Deem and Ramdas Pophale) SiO2 
 PCOD9486006
Probable space group: C M M M
;
_chemical_formula_sum "Si O2"
_cell_formula_units_Z 72
_cell_length_a 9.879447
_cell_length_b 23.084941
_cell_length_c 18.268750
_cell_angle_alpha 90.000000
_cell_angle_beta 90.000000
_cell_angle_gamma 90.000000
_cell_volume 4166.488979
_symmetry_space_group_name_H-M "C M M M"
_symmetry_group_IT_number 65
_symmetry_cell_setting 'orthorhombic'
loop_
_space_group_symop_operation_xyz
x,y,z
-x,-y,z
x,-y,-z
-x,y,-z
-x,-y,-z
x,y,-z
-x,y,z
x,-y,z
1/2+x,1/2+y,z
1/2-x,1/2-y,z
1/2+x,1/2-y,-z
1/2-x,1/2+y,-z
1/2-x,1/2-y,-z
1/2+x,1/2+y,-z
1/2-x,1/2+y,z
1/2+x,1/2-y,z
loop_
_atom_site_type_symbol
_atom_site_label
_atom_site_fract_x
_atom_site_fract_y
_atom_site_fract_z
Si Si1 0.153525 0.353011 0.796165
Si Si2 0.659358 0.933004 0.658683
Si Si3 0.152398 0.157752 0.417118
Si Si4 0.840990 0.808265 0.915603
Si Si5 0.750000 0.750000 0.304106
O O1 0.175234 0.405479 0.739589
O O2 0.267269 0.350190 0.858378
O O3 0.168921 0.294307 0.747651
O O4 0.000000 0.355594 0.825458
O O5 0.500000 0.928923 0.640974
O O6 0.743948 0.892234 0.605177
O O7 0.699811 0.000000 0.656092
O O8 0.178052 0.178216 0.500000
O O9 0.165190 0.209243 0.358404
O O10 0.000000 0.134687 0.413722
O O11 0.750000 0.750000 0.911753
O O12 0.000000 0.797913 0.897852
O O13 0.835103 0.828357 0.000000
#
# Coordination Sequence:
#
# PCOD9486006 Si02
#       5
#    16  16  16  16   8
#     4  10  19  31  52  77 101 132 169 211 254 299
#     4   9  20  38  56  75 100 132 173 217 261 307
#     4  10  21  35  52  76 105 136 171 213 259 308
#     4  10  20  32  48  73 107 141 169 200 243 296
#     4  10  19  32  51  74 104 136 168 204 253 312
#
# _framework density 17.280737999999999
#
# number of rings (size 3 to 8) (size 9 to 14) (size 15 to 20)
#    0.000    2.222    1.111    1.667    0.000    7.111 
#    0.000    2.222    0.000    0.667    0.000    4.667 
#    0.000    0.000    0.000    0.000    0.000    0.000 
#
# Total GULP energy -200690.545026 kJ/mol
# GULP energy per Si atom -5574.737362 kJ/mol
# Density = 1.724141 g / cm^3
# Si number density = 17.280738 Si / 1000 Ang^3
#
#
#
# Elastic Constant Matrix: (Units=GPa)
#
#
# Indices 1 2 3 4 5 6 
#
# 1 98.9648 15.8057 50.0043 0.0000 0.0000 0.0000
# 2 15.8057 59.3779 13.0752 0.0000 0.0000 0.0000
# 3 50.0043 13.0752 81.4502 0.0000 0.0000 0.0000
# 4 0.0000 0.0000 0.0000 8.0813 0.0000 0.0000
# 5 0.0000 0.0000 0.0000 0.0000 28.1356 0.0000
# 6 0.0000 0.0000 0.0000 0.0000 0.0000 17.3113
#
#
#
# Elastic Compliance Matrix: (Units=1/GPa)
#
#
# Indices 1 2 3 4 5 6 
#
# 1 0.014879 -0.002021 -0.008810 0.000000 0.000000 0.000000
# 2 -0.002021 0.017733 -0.001606 0.000000 0.000000 0.000000
# 3 -0.008810 -0.001606 0.017944 0.000000 0.000000 0.000000
# 4 0.000000 0.000000 0.000000 0.123742 0.000000 0.000000
# 5 0.000000 0.000000 0.000000 0.000000 0.035542 0.000000
# 6 0.000000 0.000000 0.000000 0.000000 0.000000 0.057766
#
#
# Mechanical properties :
#
#
# Convention : Reuss Voigt Hill
#
# Bulk Modulus (GPa) = 38.93782 44.17371 41.55576
# Shear Modulus (GPa) = 16.60908 21.43283 19.02095
#
# Velocity S-wave (km/s) = 3.10358 3.52557 3.32128
# Velocity P-wave (km/s) = 5.95183 6.49544 6.22957
#
# Compressibility (1/GPa) = 0.02568197
#
# Stress axis : x y z
#
# Youngs Moduli (GPa) = 67.20958 56.39258 55.72877
#
# Poissons Ratio (x) = 0.11394 0.49098
# Poissons Ratio (y) = 0.13580 0.08951
# Poissons Ratio (z) = 0.59213 0.09058
#
# Static dielectric constant tensor:
#      x y z
#    x 1.590770 0.000000 0.000000 
#    y 0.000000 1.562480 0.000000 
#    z 0.000000 0.000000 1.597160 
# 
# From -- ./inp_files/59488.got.cif
#   From: 2010.05.17/outbox.cif.g08.bks.cpg/sg65_30_cif.got.tgz:59488.got - 2010.06.03 17:01:31.
