data_PCOD9486744
_publ_section_title
;
Structure prediction by ZEFSAII (Michael W. Deem and Ramdas Pophale) SiO2 
 PCOD9486744
Probable space group: C M M M
;
_chemical_formula_sum "Si O2"
_cell_formula_units_Z 88
_cell_length_a 29.499542
_cell_length_b 18.873253
_cell_length_c 7.499987
_cell_angle_alpha 90.000000
_cell_angle_beta 90.000000
_cell_angle_gamma 90.000000
_cell_volume 4175.635159
_symmetry_space_group_name_H-M "C M M M"
_symmetry_group_IT_number 65
_symmetry_cell_setting 'orthorhombic'
loop_
_space_group_symop_operation_xyz
x,y,z
-x,-y,z
x,-y,-z
-x,y,-z
-x,-y,-z
x,y,-z
-x,y,z
x,-y,z
1/2+x,1/2+y,z
1/2-x,1/2-y,z
1/2+x,1/2-y,-z
1/2-x,1/2+y,-z
1/2-x,1/2-y,-z
1/2+x,1/2+y,-z
1/2-x,1/2+y,z
1/2+x,1/2-y,z
loop_
_atom_site_type_symbol
_atom_site_label
_atom_site_fract_x
_atom_site_fract_y
_atom_site_fract_z
Si Si1 0.386672 0.866821 0.213525
Si Si2 0.885493 0.206082 0.286501
Si Si3 0.552611 0.000000 0.218273
Si Si4 0.210699 0.581156 0.784760
Si Si5 0.216076 0.808268 0.290216
Si Si6 0.947654 0.078578 0.717600
O O1 0.400906 0.786592 0.253250
O O2 0.334996 0.879255 0.278928
O O3 0.419945 0.929570 0.276343
O O4 0.385128 0.873931 0.000000
O O5 0.884130 0.197308 0.500000
O O6 0.834378 0.195670 0.215429
O O7 0.917998 0.144219 0.217971
O O8 0.500000 0.000000 0.274086
O O9 0.552646 0.000000 0.000000
O O10 0.208223 0.500000 0.726671
O O11 0.256782 0.618800 0.726872
O O12 0.210130 0.582348 0.000000
O O13 0.211328 0.792126 0.500000
O O14 0.250000 0.750000 0.210401
O O15 0.947213 0.079324 0.500000
O O16 0.000000 0.085919 0.771559
O O17 0.931396 0.000000 0.771627
#
# Coordination Sequence:
#
# PCOD9486744 Si02
#       6
#    16  16   8  16  16  16
#     4  10  19  33  53  75 100 135 175 212 253 301
#     4  10  20  33  52  78 106 132 166 211 255 305
#     4   9  18  34  55  77 103 137 179 223 260 303
#     4  10  20  34  52  73  98 133 177 214 247 296
#     4  10  20  33  48  72 104 135 167 203 249 301
#     4   8  15  30  52  75  98 127 164 205 250 300
#
# _framework density 21.074639999999999
#
# number of rings (size 3 to 8) (size 9 to 14) (size 15 to 20)
#    0.000    2.455    2.727    0.545    0.000    2.909 
#    0.000    2.273    0.000    1.091    0.000    1.273 
#    0.000    0.000    0.000    0.000    0.000    0.000 
#
# Total GULP energy -245615.712344 kJ/mol
# GULP energy per Si atom -5582.175281 kJ/mol
# Density = 2.102667 g / cm^3
# Si number density = 21.074640 Si / 1000 Ang^3
#
#
#
# Elastic Constant Matrix: (Units=GPa)
#
#
# Indices 1 2 3 4 5 6 
#
# 1 130.7769 102.2055 6.6703 0.0000 0.0000 0.0000
# 2 102.2055 197.4530 -4.1753 0.0000 0.0000 0.0000
# 3 6.6703 -4.1753 55.3161 0.0000 0.0000 0.0000
# 4 0.0000 0.0000 0.0000 22.3185 0.0000 0.0000
# 5 0.0000 0.0000 0.0000 0.0000 -3.0436 0.0000
# 6 0.0000 0.0000 0.0000 0.0000 0.0000 39.1791
#
#
#
# Elastic Compliance Matrix: (Units=1/GPa)
#
#
# Indices 1 2 3 4 5 6 
#
# 1 0.013079 -0.006814 -0.002091 0.000000 0.000000 0.000000
# 2 -0.006814 0.008623 0.001472 0.000000 0.000000 0.000000
# 3 -0.002091 0.001472 0.018441 0.000000 0.000000 0.000000
# 4 0.000000 0.000000 0.000000 0.044806 0.000000 0.000000
# 5 0.000000 0.000000 0.000000 0.000000 -0.328556 0.000000
# 6 0.000000 0.000000 0.000000 0.000000 0.000000 0.025524
#
#
# Mechanical properties :
#
#
# Convention : Reuss Voigt Hill
#
# Bulk Modulus (GPa) = 39.56196 65.88300 52.72248
# Shear Modulus (GPa) = -25.66833 30.28049 2.30608
#
# Velocity S-wave (km/s) = -3.49373 3.79465 1.04720
# Velocity P-wave (km/s) = 1.59316 7.10836 5.15107
#
# Compressibility (1/GPa) = 0.02527681
#
# Stress axis : x y z
#
# Youngs Moduli (GPa) = 76.46111 115.97354 54.22623
#
# Poissons Ratio (x) = 0.79024 0.11341
# Poissons Ratio (y) = 0.52100 -0.07985
# Poissons Ratio (z) = 0.15991 -0.17077
#
# Static dielectric constant tensor:
#      x y z
#    x 1.741720 0.000000 0.000000 
#    y 0.000000 1.751010 0.000000 
#    z 0.000000 0.000000 1.800160 
# 
# From -- ./inp_files/10033.got.cif
#   From: 2010.05.17/outbox.cif.g08.bks.cpg/sg65_6_cif.got.tgz:10033.got - 2010.06.03 17:01:31.
