data_PCOD9486598
_publ_section_title
;
Structure prediction by ZEFSAII (Michael W. Deem and Ramdas Pophale) SiO2 
 PCOD9486598
Probable space group: C M M M
;
_chemical_formula_sum "Si O2"
_cell_formula_units_Z 96
_cell_length_a 22.954970
_cell_length_b 15.280079
_cell_length_c 14.320521
_cell_angle_alpha 90.000000
_cell_angle_beta 90.000000
_cell_angle_gamma 90.000000
_cell_volume 5022.976515
_symmetry_space_group_name_H-M "C M M M"
_symmetry_group_IT_number 65
_symmetry_cell_setting 'orthorhombic'
loop_
_space_group_symop_operation_xyz
x,y,z
-x,-y,z
x,-y,-z
-x,y,-z
-x,-y,-z
x,y,-z
-x,y,z
x,-y,z
1/2+x,1/2+y,z
1/2-x,1/2-y,z
1/2+x,1/2-y,-z
1/2-x,1/2+y,-z
1/2-x,1/2-y,-z
1/2+x,1/2+y,-z
1/2-x,1/2+y,z
1/2+x,1/2-y,z
loop_
_atom_site_type_symbol
_atom_site_label
_atom_site_fract_x
_atom_site_fract_y
_atom_site_fract_z
Si Si1 0.851276 0.098381 0.779022
Si Si2 0.226153 0.847329 0.607774
Si Si3 0.931825 0.228793 0.106909
Si Si4 0.239602 0.354078 0.890373
Si Si5 0.384886 0.896733 0.803585
Si Si6 0.143988 0.399745 0.601942
O O1 0.823523 0.126027 0.679679
O O2 0.895932 0.167716 0.822590
O O3 0.795565 0.099970 0.847467
O O4 0.875239 0.000000 0.774027
O O5 0.206858 0.852126 0.500000
O O6 0.250000 0.750000 0.627617
O O7 0.286149 0.901247 0.616362
O O8 0.922290 0.329846 0.135513
O O9 0.000000 0.207804 0.110075
O O10 0.910380 0.216272 0.000000
O O11 0.250000 0.250000 0.876484
O O12 0.181323 0.384524 0.838964
O O13 0.233546 0.370715 0.000000
O O14 0.385217 0.864567 0.695597
O O15 0.400063 0.000000 0.809270
O O16 0.133651 0.357299 0.500000
O O17 0.124397 0.500000 0.596494
#
# Coordination Sequence:
#
# PCOD9486598 Si02
#       6
#    16  16  16  16  16  16
#     4  12  23  37  60  87 118 156 197 244 294 347
#     4  10  19  32  54  86 125 162 192 227 281 351
#     4  11  26  46  63  80 108 151 205 260 305 353
#     4  11  21  34  54  83 122 159 188 231 295 363
#     4  11  21  36  61  90 120 153 189 240 303 366
#     4   9  17  30  50  81 121 156 183 215 266 343
#
# _framework density 19.112174
#
# number of rings (size 3 to 8) (size 9 to 14) (size 15 to 20)
#    0.000    1.333    3.333    3.500    0.000    5.000 
#    0.000    1.667    0.000    2.000    0.000    3.500 
#    0.000    0.000    0.000    0.000    0.000    0.000 
#
# Total GULP energy -267987.682024 kJ/mol
# GULP energy per Si atom -5583.076709 kJ/mol
# Density = 1.906867 g / cm^3
# Si number density = 19.112174 Si / 1000 Ang^3
#
#
#
# Elastic Constant Matrix: (Units=GPa)
#
#
# Indices 1 2 3 4 5 6 
#
# 1 25.8297 6.3797 10.2150 0.0000 0.0000 0.0000
# 2 6.3797 93.0109 33.6052 0.0000 0.0000 0.0000
# 3 10.2150 33.6052 122.4186 0.0000 0.0000 0.0000
# 4 0.0000 0.0000 0.0000 12.5386 0.0000 0.0000
# 5 0.0000 0.0000 0.0000 0.0000 13.9122 0.0000
# 6 0.0000 0.0000 0.0000 0.0000 0.0000 2.4160
#
#
#
# Elastic Compliance Matrix: (Units=1/GPa)
#
#
# Indices 1 2 3 4 5 6 
#
# 1 0.040282 -0.001719 -0.002889 0.000000 0.000000 0.000000
# 2 -0.001719 0.012009 -0.003153 0.000000 0.000000 0.000000
# 3 -0.002889 -0.003153 0.009275 0.000000 0.000000 0.000000
# 4 0.000000 0.000000 0.000000 0.079754 0.000000 0.000000
# 5 0.000000 0.000000 0.000000 0.000000 0.071879 0.000000
# 6 0.000000 0.000000 0.000000 0.000000 0.000000 0.413901
#
#
# Mechanical properties :
#
#
# Convention : Reuss Voigt Hill
#
# Bulk Modulus (GPa) = 21.71870 37.96212 29.84041
# Shear Modulus (GPa) = 7.59912 18.51065 13.05488
#
# Velocity S-wave (km/s) = 1.99617 3.11549 2.61639
# Velocity P-wave (km/s) = 4.08673 5.73129 4.97740
#
# Compressibility (1/GPa) = 0.04604327
#
# Stress axis : x y z
#
# Youngs Moduli (GPa) = 24.82478 83.27407 107.81275
#
# Poissons Ratio (x) = 0.14315 0.31151
# Poissons Ratio (y) = 0.04267 0.33994
# Poissons Ratio (z) = 0.07173 0.26257
#
# Static dielectric constant tensor:
#      x y z
#    x 1.628220 0.000000 0.000000 
#    y 0.000000 0.334290 0.000000 
#    z 0.000000 0.000000 1.710810 
# 
# From -- ./inp_files/44119.got.cif
#   From: 2010.05.17/outbox.cif.g08.bks.cpg/sg65_23_cif.got.tgz:44119.got - 2010.06.03 17:01:31.
