data_PCOD9486861
_publ_section_title
;
Structure prediction by ZEFSAII (Michael W. Deem and Ramdas Pophale) SiO2 
 PCOD9486861
Probable space group: C M M M
;
_chemical_formula_sum "Si O2"
_cell_formula_units_Z 56
_cell_length_a 33.938634
_cell_length_b 11.642964
_cell_length_c 7.510527
_cell_angle_alpha 90.000000
_cell_angle_beta 90.000000
_cell_angle_gamma 90.000000
_cell_volume 2967.756909
_symmetry_space_group_name_H-M "C M M M"
_symmetry_group_IT_number 65
_symmetry_cell_setting 'orthorhombic'
loop_
_space_group_symop_operation_xyz
x,y,z
-x,-y,z
x,-y,-z
-x,y,-z
-x,-y,-z
x,y,-z
-x,y,z
x,-y,z
1/2+x,1/2+y,z
1/2-x,1/2-y,z
1/2+x,1/2-y,-z
1/2-x,1/2+y,-z
1/2-x,1/2-y,-z
1/2+x,1/2+y,-z
1/2-x,1/2+y,z
1/2+x,1/2-y,z
loop_
_atom_site_type_symbol
_atom_site_label
_atom_site_fract_x
_atom_site_fract_y
_atom_site_fract_z
Si Si1 0.223129 0.865354 0.000000
Si Si2 0.578343 0.754173 0.291282
Si Si3 0.454340 0.000000 0.213276
Si Si4 0.500000 0.367237 0.717355
Si Si5 0.844032 0.132991 0.708446
O O1 0.250000 0.750000 0.000000
O O2 0.194598 0.856923 0.828305
O O3 0.239337 0.000000 0.000000
O O4 0.580091 0.722941 0.500000
O O5 0.539830 0.691439 0.215463
O O6 0.620362 0.712232 0.221873
O O7 0.568771 0.887582 0.273804
O O8 0.500000 0.000000 0.278232
O O9 0.455838 0.000000 0.000000
O O10 0.500000 0.500000 0.760635
O O11 0.500000 0.355515 0.500000
O O12 0.835675 0.158029 0.500000
O O13 0.857612 0.000000 0.719089
#
# Coordination Sequence:
#
# PCOD9486861 Si02
#       5
#     8  16   8   8  16
#     4  10  22  42  66  91 118 151 187 228 291 358
#     4  10  19  33  54  77 105 144 190 232 277 331
#     4  11  23  35  47  69 111 159 197 237 283 329
#     4   9  16  27  49  78 104 135 180 231 274 320
#     4   9  19  37  61  88 117 148 186 235 287 340
#
# _framework density 18.869471000000001
#
# number of rings (size 3 to 8) (size 9 to 14) (size 15 to 20)
#    0.000    2.286    1.429    1.286    2.000    4.571 
#    2.571    0.000    0.000    0.857    0.000    0.000 
#    0.000    0.000    0.000    0.000    0.000    0.000 
#
# Total GULP energy -156147.087145 kJ/mol
# GULP energy per Si atom -5576.681684 kJ/mol
# Density = 1.882652 g / cm^3
# Si number density = 18.869471 Si / 1000 Ang^3
#
#
#
# Elastic Constant Matrix: (Units=GPa)
#
#
# Indices 1 2 3 4 5 6 
#
# 1 89.9604 74.8778 25.4854 0.0000 0.0000 0.0000
# 2 74.8778 133.7341 8.3052 0.0000 0.0000 0.0000
# 3 25.4854 8.3052 71.4864 0.0000 0.0000 0.0000
# 4 0.0000 0.0000 0.0000 0.7907 0.0000 0.0000
# 5 0.0000 0.0000 0.0000 0.0000 6.9240 0.0000
# 6 0.0000 0.0000 0.0000 0.0000 0.0000 44.6018
#
#
#
# Elastic Compliance Matrix: (Units=1/GPa)
#
#
# Indices 1 2 3 4 5 6 
#
# 1 0.023855 -0.012922 -0.007003 0.000000 0.000000 0.000000
# 2 -0.012922 0.014531 0.002918 0.000000 0.000000 0.000000
# 3 -0.007003 0.002918 0.016146 0.000000 0.000000 0.000000
# 4 0.000000 0.000000 0.000000 1.264685 0.000000 0.000000
# 5 0.000000 0.000000 0.000000 0.000000 0.144426 0.000000
# 6 0.000000 0.000000 0.000000 0.000000 0.000000 0.022421
#
#
# Mechanical properties :
#
#
# Convention : Reuss Voigt Hill
#
# Bulk Modulus (GPa) = 48.73376 56.94639 52.84008
# Shear Modulus (GPa) = 3.27457 22.89745 13.08601
#
# Velocity S-wave (km/s) = 1.31877 3.48726 2.63630
# Velocity P-wave (km/s) = 5.31053 6.81611 6.10987
#
# Compressibility (1/GPa) = 0.02051966
#
# Stress axis : x y z
#
# Youngs Moduli (GPa) = 41.91951 68.81787 61.93346
#
# Poissons Ratio (x) = 0.88924 0.43374
# Poissons Ratio (y) = 0.54167 -0.18075
# Poissons Ratio (z) = 0.29358 -0.20084
#
# Static dielectric constant tensor:
#      x y z
#    x 1.640120 0.000000 0.000000 
#    y 0.000000 1.533850 0.000000 
#    z 0.000000 0.000000 1.712640 
# 
# From -- ./inp_files/4462.got.cif
#   From: 2010.05.17/outbox.cif.g08.bks.cpg/sg65_3_cif.got.tgz:4462.got - 2010.06.03 17:01:31.
