data_PCOD9486320
_publ_section_title
;
Structure prediction by ZEFSAII (Michael W. Deem and Ramdas Pophale) SiO2 
 PCOD9486320
Probable space group: C M M M
;
_chemical_formula_sum "Si O2"
_cell_formula_units_Z 88
_cell_length_a 14.723409
_cell_length_b 10.222532
_cell_length_c 27.190752
_cell_angle_alpha 90.000000
_cell_angle_beta 90.000000
_cell_angle_gamma 90.000000
_cell_volume 4092.494213
_symmetry_space_group_name_H-M "C M M M"
_symmetry_group_IT_number 65
_symmetry_cell_setting 'orthorhombic'
loop_
_space_group_symop_operation_xyz
x,y,z
-x,-y,z
x,-y,-z
-x,y,-z
-x,-y,-z
x,y,-z
-x,y,z
x,-y,z
1/2+x,1/2+y,z
1/2-x,1/2-y,z
1/2+x,1/2-y,-z
1/2-x,1/2+y,-z
1/2-x,1/2-y,-z
1/2+x,1/2+y,-z
1/2-x,1/2+y,z
1/2+x,1/2-y,z
loop_
_atom_site_type_symbol
_atom_site_label
_atom_site_fract_x
_atom_site_fract_y
_atom_site_fract_z
Si Si1 0.862994 0.000000 0.442529
Si Si2 0.393339 0.855145 0.109278
Si Si3 0.640474 0.753537 0.382055
Si Si4 0.111372 0.849164 0.811549
Si Si5 0.606691 0.149947 0.272805
Si Si6 0.858863 0.500000 0.555708
Si Si7 0.670119 0.147870 0.000000
O O1 0.890930 0.875533 0.410245
O O2 0.892001 0.000000 0.500000
O O3 0.752099 0.000000 0.444472
O O4 0.500000 0.862431 0.121059
O O5 0.359255 0.730325 0.139643
O O6 0.383619 0.836931 0.050872
O O7 0.354453 0.000000 0.122152
O O8 0.750000 0.750000 0.382078
O O9 0.614062 0.783716 0.326277
O O10 0.610432 0.874108 0.415077
O O11 0.141596 0.754246 0.767050
O O12 0.000000 0.855701 0.810608
O O13 0.142825 0.000000 0.808806
O O14 0.500000 0.135890 0.261679
O O15 0.644864 0.000000 0.272708
O O16 0.889079 0.500000 0.500000
O O17 0.750000 0.250000 0.000000
O O18 0.706549 0.000000 0.000000
#
# Coordination Sequence:
#
# PCOD9486320 Si02
#       7
#     8  16  16  16  16   8   8
#     4   9  18  30  49  75  99 129 167 210 259 302
#     4   9  17  33  57  81 104 135 180 225 258 296
#     4  10  19  32  51  76 102 129 167 212 256 305
#     4   9  18  32  52  79 106 133 170 216 263 308
#     4  10  20  35  54  75 102 137 173 208 254 310
#     4   9  16  30  51  73  99 129 167 212 251 298
#     4  10  21  35  53  79 113 150 180 212 260 314
#
# _framework density 21.502780000000001
#
# number of rings (size 3 to 8) (size 9 to 14) (size 15 to 20)
#    0.000    2.545    0.909    1.364    1.273    6.182 
#    0.000    0.909    0.000    6.000    0.000    0.000 
#    0.000    0.000    0.000    0.000    0.000    0.000 
#
# Total GULP energy -245515.591770 kJ/mol
# GULP energy per Si atom -5579.899813 kJ/mol
# Density = 2.145384 g / cm^3
# Si number density = 21.502780 Si / 1000 Ang^3
#
#
#
# Elastic Constant Matrix: (Units=GPa)
#
#
# Indices 1 2 3 4 5 6 
#
# 1 51.0516 11.6238 -6.8408 0.0000 0.0000 0.0000
# 2 11.6238 241.2749 126.1550 0.0000 0.0000 0.0000
# 3 -6.8408 126.1550 172.9395 0.0000 0.0000 0.0000
# 4 0.0000 0.0000 0.0000 29.2747 0.0000 0.0000
# 5 0.0000 0.0000 0.0000 0.0000 18.9641 0.0000
# 6 0.0000 0.0000 0.0000 0.0000 0.0000 9.5387
#
#
#
# Elastic Compliance Matrix: (Units=1/GPa)
#
#
# Indices 1 2 3 4 5 6 
#
# 1 0.020437 -0.002275 0.002468 0.000000 0.000000 0.000000
# 2 -0.002275 0.006954 -0.005162 0.000000 0.000000 0.000000
# 3 0.002468 -0.005162 0.009646 0.000000 0.000000 0.000000
# 4 0.000000 0.000000 0.000000 0.034159 0.000000 0.000000
# 5 0.000000 0.000000 0.000000 0.000000 0.052731 0.000000
# 6 0.000000 0.000000 0.000000 0.000000 0.000000 0.104836
#
#
# Mechanical properties :
#
#
# Convention : Reuss Voigt Hill
#
# Bulk Modulus (GPa) = 36.90421 80.79354 58.84888
# Shear Modulus (GPa) = 20.18296 33.84403 27.01349
#
# Velocity S-wave (km/s) = 3.06702 3.97159 3.54825
# Velocity P-wave (km/s) = 5.45361 7.66071 6.64938
#
# Compressibility (1/GPa) = 0.02709718
#
# Stress axis : x y z
#
# Youngs Moduli (GPa) = 48.93156 143.81240 103.67174
#
# Poissons Ratio (x) = 0.32717 -0.25586
# Poissons Ratio (y) = 0.11132 0.53519
# Poissons Ratio (z) = -0.12076 0.74242
#
# Static dielectric constant tensor:
#      x y z
#    x 1.823710 0.000000 0.000000 
#    y 0.000000 1.761090 0.000000 
#    z 0.000000 0.000000 1.762190 
# 
# From -- ./inp_files/78007.got.cif
#   From: 2010.05.17/outbox.cif.g08.bks.cpg/sg65_40_cif.got.tgz:78007.got - 2010.06.03 17:01:31.
