data_PCOD9486716
_publ_section_title
;
Structure prediction by ZEFSAII (Michael W. Deem and Ramdas Pophale) SiO2 
 PCOD9486716
Probable space group: C M M M
;
_chemical_formula_sum "Si O2"
_cell_formula_units_Z 80
_cell_length_a 18.808676
_cell_length_b 19.570821
_cell_length_c 12.742868
_cell_angle_alpha 90.000000
_cell_angle_beta 90.000000
_cell_angle_gamma 90.000000
_cell_volume 4690.665400
_symmetry_space_group_name_H-M "C M M M"
_symmetry_group_IT_number 65
_symmetry_cell_setting 'orthorhombic'
loop_
_space_group_symop_operation_xyz
x,y,z
-x,-y,z
x,-y,-z
-x,y,-z
-x,-y,-z
x,y,-z
-x,y,z
x,-y,z
1/2+x,1/2+y,z
1/2-x,1/2-y,z
1/2+x,1/2-y,-z
1/2-x,1/2+y,-z
1/2-x,1/2-y,-z
1/2+x,1/2+y,-z
1/2-x,1/2+y,z
1/2+x,1/2-y,z
loop_
_atom_site_type_symbol
_atom_site_label
_atom_site_fract_x
_atom_site_fract_y
_atom_site_fract_z
Si Si1 0.170593 0.718437 0.000000
Si Si2 0.735670 0.922681 0.622840
Si Si3 0.652286 0.577449 0.805531
Si Si4 0.828570 0.281697 0.376739
Si Si5 0.760805 0.422550 0.000000
Si Si6 0.917174 0.219552 0.192507
O O1 0.250000 0.750000 0.000000
O O2 0.181659 0.637092 0.000000
O O3 0.128701 0.744791 0.101407
O O4 0.755252 0.914955 0.500000
O O5 0.803658 0.914934 0.697533
O O6 0.680544 0.862360 0.646483
O O7 0.708328 0.000000 0.638456
O O8 0.623675 0.500000 0.811545
O O9 0.710110 0.585171 0.898568
O O10 0.596744 0.638318 0.814816
O O11 0.844421 0.272423 0.500000
O O12 0.750000 0.250000 0.357211
O O13 0.885004 0.246436 0.301812
O O14 0.789275 0.500000 0.000000
O O15 0.000000 0.234824 0.181899
#
# Coordination Sequence:
#
# PCOD9486716 Si02
#       6
#     8  16  16  16   8  16
#     4  12  21  38  63  80 103 143 184 227 265 310
#     4   9  17  30  53  82 106 132 176 230 272 308
#     4  10  19  33  52  78 110 142 175 211 262 323
#     4  10  19  34  57  80 105 142 186 228 266 309
#     4  10  20  34  58  86 105 129 174 228 271 309
#     4  12  24  36  53  81 115 147 178 217 269 322
#
# _framework density 17.055150000000001
#
# number of rings (size 3 to 8) (size 9 to 14) (size 15 to 20)
#    0.000    1.600    4.000    2.100    0.000    0.800 
#    0.000    0.000    0.000    6.000    0.000    7.000 
#    0.000    0.000    0.000    0.000    0.000    0.000 
#
# Total GULP energy -223240.424499 kJ/mol
# GULP energy per Si atom -5581.010612 kJ/mol
# Density = 1.701633 g / cm^3
# Si number density = 17.055150 Si / 1000 Ang^3
#
#
#
# Elastic Constant Matrix: (Units=GPa)
#
#
# Indices 1 2 3 4 5 6 
#
# 1 100.2771 53.3171 46.3233 0.0000 0.0000 0.0000
# 2 53.3171 126.5554 39.6855 0.0000 0.0000 0.0000
# 3 46.3233 39.6855 66.0614 0.0000 0.0000 0.0000
# 4 0.0000 0.0000 0.0000 24.6784 0.0000 0.0000
# 5 0.0000 0.0000 0.0000 0.0000 5.8576 0.0000
# 6 0.0000 0.0000 0.0000 0.0000 0.0000 18.1771
#
#
#
# Elastic Compliance Matrix: (Units=1/GPa)
#
#
# Indices 1 2 3 4 5 6 
#
# 1 0.016268 -0.004037 -0.008982 0.000000 0.000000 0.000000
# 2 -0.004037 0.010737 -0.003620 0.000000 0.000000 0.000000
# 3 -0.008982 -0.003620 0.023610 0.000000 0.000000 0.000000
# 4 0.000000 0.000000 0.000000 0.040521 0.000000 0.000000
# 5 0.000000 0.000000 0.000000 0.000000 0.170717 0.000000
# 6 0.000000 0.000000 0.000000 0.000000 0.000000 0.055014
#
#
# Mechanical properties :
#
#
# Convention : Reuss Voigt Hill
#
# Bulk Modulus (GPa) = 57.67600 63.50507 60.59054
# Shear Modulus (GPa) = 14.04784 19.98048 17.01416
#
# Velocity S-wave (km/s) = 2.87308 3.42646 3.16190
# Velocity P-wave (km/s) = 6.70051 7.27806 6.99525
#
# Compressibility (1/GPa) = 0.01733823
#
# Stress axis : x y z
#
# Youngs Moduli (GPa) = 61.46924 93.13164 42.35412
#
# Poissons Ratio (x) = 0.37598 0.38044
# Poissons Ratio (y) = 0.24815 0.15330
# Poissons Ratio (z) = 0.55214 0.33710
#
# Static dielectric constant tensor:
#      x y z
#    x 1.518690 0.000000 0.000000 
#    y 0.000000 1.623760 0.000000 
#    z 0.000000 0.000000 1.589980 
# 
# From -- ./inp_files/26662.got.cif
#   From: 2010.05.17/outbox.cif.g08.bks.cpg/sg65_14_cif.got.tgz:26662.got - 2010.06.03 17:01:31.
