data_PCOD9486186
_publ_section_title
;
Structure prediction by ZEFSAII (Michael W. Deem and Ramdas Pophale) SiO2 
 PCOD9486186
Probable space group: C M M M
;
_chemical_formula_sum "Si O2"
_cell_formula_units_Z 96
_cell_length_a 29.798706
_cell_length_b 20.898802
_cell_length_c 7.558840
_cell_angle_alpha 90.000000
_cell_angle_beta 90.000000
_cell_angle_gamma 90.000000
_cell_volume 4707.322461
_symmetry_space_group_name_H-M "C M M M"
_symmetry_group_IT_number 65
_symmetry_cell_setting 'orthorhombic'
loop_
_space_group_symop_operation_xyz
x,y,z
-x,-y,z
x,-y,-z
-x,y,-z
-x,-y,-z
x,y,-z
-x,y,z
x,-y,z
1/2+x,1/2+y,z
1/2-x,1/2-y,z
1/2+x,1/2-y,-z
1/2-x,1/2+y,-z
1/2-x,1/2-y,-z
1/2+x,1/2+y,-z
1/2-x,1/2+y,z
1/2+x,1/2-y,z
loop_
_atom_site_type_symbol
_atom_site_label
_atom_site_fract_x
_atom_site_fract_y
_atom_site_fract_z
Si Si1 0.669891 0.070520 0.714480
Si Si2 0.554434 0.430885 0.210885
Si Si3 0.130716 0.297146 0.708029
Si Si4 0.289613 0.293430 0.794656
Si Si5 0.775292 0.930231 0.207318
Si Si6 0.948633 0.791653 0.786292
O O1 0.670921 0.070627 0.500000
O O2 0.640953 0.131298 0.774286
O O3 0.721293 0.077259 0.777427
O O4 0.653852 0.000000 0.771144
O O5 0.500000 0.429937 0.229351
O O6 0.570156 0.500000 0.282668
O O7 0.569596 0.361247 0.277867
O O8 0.563773 0.431984 0.000000
O O9 0.140412 0.297546 0.500000
O O10 0.165529 0.247369 0.790660
O O11 0.081880 0.267786 0.735198
O O12 0.250000 0.250000 0.714114
O O13 0.294616 0.364355 0.716339
O O14 0.276573 0.304282 0.000000
O O15 0.786758 0.000000 0.285273
O O16 0.787821 0.933569 0.000000
O O17 0.000000 0.784631 0.726484
O O18 0.949121 0.795111 0.000000
#
# Coordination Sequence:
#
# PCOD9486186 Si02
#       6
#    16  16  16  16  16  16
#     4   9  18  32  49  70  96 126 162 202 243 292
#     4   7  10  20  42  70  93 114 149 196 239 279
#     4  11  22  33  50  75 101 131 165 202 247 299
#     4  10  19  32  50  73 101 131 162 201 245 288
#     4   9  17  30  49  72  98 130 167 204 242 284
#     4   9  18  33  53  75  99 129 165 207 253 296
#
# _framework density 20.393757999999998
#
# number of rings (size 3 to 8) (size 9 to 14) (size 15 to 20)
#    0.000    2.833    1.667    2.000    0.000    2.000 
#    0.000    0.833    0.000    6.000    0.000    5.833 
#    0.000    0.000    0.000    0.000    0.000    0.000 
#
# Total GULP energy -267491.356462 kJ/mol
# GULP energy per Si atom -5572.736593 kJ/mol
# Density = 2.034734 g / cm^3
# Si number density = 20.393758 Si / 1000 Ang^3
#
#
#
# Elastic Constant Matrix: (Units=GPa)
#
#
# Indices 1 2 3 4 5 6 
#
# 1 35.6163 46.7255 -9.4304 0.0000 0.0000 0.0000
# 2 46.7255 218.1307 8.6537 0.0000 0.0000 0.0000
# 3 -9.4304 8.6537 48.0642 0.0000 0.0000 0.0000
# 4 0.0000 0.0000 0.0000 4.2888 0.0000 0.0000
# 5 0.0000 0.0000 0.0000 0.0000 19.8333 0.0000
# 6 0.0000 0.0000 0.0000 0.0000 0.0000 24.6071
#
#
#
# Elastic Compliance Matrix: (Units=1/GPa)
#
#
# Indices 1 2 3 4 5 6 
#
# 1 0.043594 -0.009747 0.010308 0.000000 0.000000 0.000000
# 2 -0.009747 0.006797 -0.003136 0.000000 0.000000 0.000000
# 3 0.010308 -0.003136 0.023393 0.000000 0.000000 0.000000
# 4 0.000000 0.000000 0.000000 0.233167 0.000000 0.000000
# 5 0.000000 0.000000 0.000000 0.000000 0.050420 0.000000
# 6 0.000000 0.000000 0.000000 0.000000 0.000000 0.040639
#
#
# Mechanical properties :
#
#
# Convention : Reuss Voigt Hill
#
# Bulk Modulus (GPa) = 14.57022 43.74542 29.15782
# Shear Modulus (GPa) = 11.73606 26.80333 19.26970
#
# Velocity S-wave (km/s) = 2.40151 3.62925 3.07723
# Velocity P-wave (km/s) = 3.85352 6.24971 5.19175
#
# Compressibility (1/GPa) = 0.06863313
#
# Stress axis : x y z
#
# Youngs Moduli (GPa) = 22.93905 147.12930 42.74839
#
# Poissons Ratio (x) = 1.43409 -0.44066
# Poissons Ratio (y) = 0.22359 0.13407
# Poissons Ratio (z) = -0.23646 0.46142
#
# Static dielectric constant tensor:
#      x y z
#    x 1.696020 0.000000 0.000000 
#    y 0.000000 1.804020 0.000000 
#    z 0.000000 0.000000 1.873000 
# 
# From -- ./inp_files/16355.got.cif
#   From: 2010.05.17/outbox.cif.g08.bks.cpg/sg65_9_cif.got.tgz:16355.got - 2010.06.03 17:01:31.
