data_PCOD9486614
_publ_section_title
;
Structure prediction by ZEFSAII (Michael W. Deem and Ramdas Pophale) SiO2 
 PCOD9486614
Probable space group: C M M M
;
_chemical_formula_sum "Si O2"
_cell_formula_units_Z 64
_cell_length_a 20.578406
_cell_length_b 23.027724
_cell_length_c 7.926332
_cell_angle_alpha 90.000000
_cell_angle_beta 90.000000
_cell_angle_gamma 90.000000
_cell_volume 3756.081491
_symmetry_space_group_name_H-M "C M M M"
_symmetry_group_IT_number 65
_symmetry_cell_setting 'orthorhombic'
loop_
_space_group_symop_operation_xyz
x,y,z
-x,-y,z
x,-y,-z
-x,y,-z
-x,-y,-z
x,y,-z
-x,y,z
x,-y,z
1/2+x,1/2+y,z
1/2-x,1/2-y,z
1/2+x,1/2-y,-z
1/2-x,1/2+y,-z
1/2-x,1/2-y,-z
1/2+x,1/2+y,-z
1/2-x,1/2+y,z
1/2+x,1/2-y,z
loop_
_atom_site_type_symbol
_atom_site_label
_atom_site_fract_x
_atom_site_fract_y
_atom_site_fract_z
Si Si1 0.766587 0.126854 0.189556
Si Si2 0.236296 0.000000 0.696161
Si Si3 0.105952 0.500000 0.695218
Si Si4 0.427788 0.209461 0.500000
Si Si5 0.390990 0.872397 0.808976
Si Si6 0.308510 0.704038 0.500000
O O1 0.687905 0.129892 0.208535
O O2 0.799252 0.164783 0.334319
O O3 0.784549 0.059404 0.216045
O O4 0.782628 0.146021 0.000000
O O5 0.315139 0.000000 0.698722
O O6 0.216734 0.000000 0.500000
O O7 0.085326 0.500000 0.500000
O O8 0.087133 0.560850 0.779541
O O9 0.500000 0.233814 0.500000
O O10 0.418276 0.168623 0.336242
O O11 0.374271 0.259533 0.500000
O O12 0.407444 0.854923 0.000000
O O13 0.250000 0.750000 0.500000
#
# Coordination Sequence:
#
# PCOD9486614 Si02
#       6
#    16   8   8   8  16   8
#     4  10  19  32  56  87 114 140 174 221 274 322
#     4   9  15  27  51  84 120 141 161 212 277 327
#     4   9  15  27  53  79 108 141 176 220 269 312
#     4  12  26  41  54  73 106 146 187 230 272 315
#     4  10  19  34  55  80 108 142 182 224 268 317
#     4  12  22  37  57  79 107 143 189 229 262 314
#
# _framework density 17.039034999999998
#
# number of rings (size 3 to 8) (size 9 to 14) (size 15 to 20)
#    0.000    1.750    5.000    0.750    0.000    5.000 
#    0.000    1.250    0.000    1.500    0.000    1.750 
#    0.000    2.000    0.000    0.000    0.000    0.000 
#
# Total GULP energy -178654.905902 kJ/mol
# GULP energy per Si atom -5582.965809 kJ/mol
# Density = 1.700025 g / cm^3
# Si number density = 17.039035 Si / 1000 Ang^3
#
#
#
# Elastic Constant Matrix: (Units=GPa)
#
#
# Indices 1 2 3 4 5 6 
#
# 1 67.5175 44.7896 40.8225 0.0000 0.0000 0.0000
# 2 44.7896 99.0880 57.4003 0.0000 0.0000 0.0000
# 3 40.8225 57.4003 147.4075 0.0000 0.0000 0.0000
# 4 0.0000 0.0000 0.0000 -4.6497 0.0000 0.0000
# 5 0.0000 0.0000 0.0000 0.0000 1.1030 0.0000
# 6 0.0000 0.0000 0.0000 0.0000 0.0000 4.0229
#
#
#
# Elastic Compliance Matrix: (Units=1/GPa)
#
#
# Indices 1 2 3 4 5 6 
#
# 1 0.022059 -0.008306 -0.002875 0.000000 0.000000 0.000000
# 2 -0.008306 0.016159 -0.003992 0.000000 0.000000 0.000000
# 3 -0.002875 -0.003992 0.009135 0.000000 0.000000 0.000000
# 4 0.000000 0.000000 0.000000 -0.215069 0.000000 0.000000
# 5 0.000000 0.000000 0.000000 0.000000 0.906641 0.000000
# 6 0.000000 0.000000 0.000000 0.000000 0.000000 0.248580
#
#
# Mechanical properties :
#
#
# Convention : Reuss Voigt Hill
#
# Bulk Modulus (GPa) = 58.79819 66.67087 62.73453
# Shear Modulus (GPa) = 4.88511 11.49527 8.19019
#
# Velocity S-wave (km/s) = 1.69506 2.60021 2.19480
# Velocity P-wave (km/s) = 6.19789 6.94464 6.58186
#
# Compressibility (1/GPa) = 0.01700733
#
# Stress axis : x y z
#
# Youngs Moduli (GPa) = 45.33318 61.88510 109.47455
#
# Poissons Ratio (x) = 0.51400 0.31470
# Poissons Ratio (y) = 0.37653 0.43704
# Poissons Ratio (z) = 0.13032 0.24705
#
# Static dielectric constant tensor:
#      x y z
#    x 1.561990 0.000000 0.000000 
#    y 0.000000 1.573300 0.000000 
#    z 0.000000 0.000000 1.589550 
# 
# From -- ./inp_files/11179.got.cif
#   From: 2010.05.17/outbox.cif.g08.bks.cpg/sg65_6_cif.got.tgz:11179.got - 2010.06.03 17:01:31.
