data_PCOD9486222
_publ_section_title
;
Structure prediction by ZEFSAII (Michael W. Deem and Ramdas Pophale) SiO2 
 PCOD9486222
Probable space group: C M M M
;
_chemical_formula_sum "Si O2"
_cell_formula_units_Z 104
_cell_length_a 19.445130
_cell_length_b 8.851730
_cell_length_c 34.618030
_cell_angle_alpha 90.000000
_cell_angle_beta 90.000000
_cell_angle_gamma 90.000000
_cell_volume 5958.560582
_symmetry_space_group_name_H-M "C M M M"
_symmetry_group_IT_number 65
_symmetry_cell_setting 'orthorhombic'
loop_
_space_group_symop_operation_xyz
x,y,z
-x,-y,z
x,-y,-z
-x,y,-z
-x,-y,-z
x,y,-z
-x,y,z
x,-y,z
1/2+x,1/2+y,z
1/2-x,1/2-y,z
1/2+x,1/2-y,-z
1/2-x,1/2+y,-z
1/2-x,1/2-y,-z
1/2+x,1/2+y,-z
1/2-x,1/2+y,z
1/2+x,1/2-y,z
loop_
_atom_site_type_symbol
_atom_site_label
_atom_site_fract_x
_atom_site_fract_y
_atom_site_fract_z
Si Si1 0.325845 0.682287 0.314134
Si Si2 0.079468 0.318444 0.840042
Si Si3 0.675289 0.317649 0.455721
Si Si4 0.583653 0.674816 0.079688
Si Si5 0.083815 0.674840 0.000000
Si Si6 0.174353 0.682273 0.232036
Si Si7 0.921490 0.183912 0.613879
O O1 0.321255 0.500000 0.311936
O O2 0.250000 0.750000 0.321715
O O3 0.349102 0.749095 0.272971
O O4 0.377509 0.725308 0.348416
O O5 0.079861 0.500000 0.842688
O O6 0.105950 0.253909 0.880716
O O7 0.124821 0.275250 0.803261
O O8 0.000000 0.269629 0.834863
O O9 0.658100 0.275680 0.500000
O O10 0.679929 0.500000 0.454062
O O11 0.750000 0.250000 0.446470
O O12 0.619178 0.267585 0.424532
O O13 0.500000 0.685666 0.079385
O O14 0.602402 0.500000 0.080399
O O15 0.607710 0.748734 0.039703
O O16 0.102334 0.500000 0.000000
O O17 0.000000 0.684690 0.000000
O O18 0.177861 0.500000 0.234825
O O19 0.250000 0.750000 0.225086
O O20 0.000000 0.237589 0.615137
O O21 0.923282 0.000000 0.613144
#
# Coordination Sequence:
#
# PCOD9486222 Si02
#       7
#    16  16  16  16   8  16  16
#     4  10  19  32  51  70  91 121 155 193 234 278
#     4   9  18  32  48  67  93 124 155 189 234 284
#     4   9  17  30  50  73  96 126 163 201 239 281
#     4   9  16  25  39  62  91 121 155 196 238 279
#     4   9  15  23  37  57  86 125 162 195 234 281
#     4  10  20  34  52  72  95 123 157 197 236 280
#     4   9  18  31  47  71 100 126 156 196 240 284
#
# _framework density 17.453880000000002
#
# number of rings (size 3 to 8) (size 9 to 14) (size 15 to 20)
#    0.000    2.692    0.000    3.000    0.000    4.923 
#    0.000    2.308    0.000    3.692    0.000    2.692 
#    0.000    0.000    0.000    0.000    0.000    0.000 
#
# Total GULP energy -289884.354090 kJ/mol
# GULP energy per Si atom -5574.699117 kJ/mol
# Density = 1.741415 g / cm^3
# Si number density = 17.453880 Si / 1000 Ang^3
#
#
#
# Elastic Constant Matrix: (Units=GPa)
#
#
# Indices 1 2 3 4 5 6 
#
# 1 76.4884 29.2353 101.6193 0.0000 0.0000 0.0000
# 2 29.2353 38.6955 50.3971 0.0000 0.0000 0.0000
# 3 101.6193 50.3971 192.4671 0.0000 0.0000 0.0000
# 4 0.0000 0.0000 0.0000 22.9905 0.0000 0.0000
# 5 0.0000 0.0000 0.0000 0.0000 97.9143 0.0000
# 6 0.0000 0.0000 0.0000 0.0000 0.0000 15.7537
#
#
#
# Elastic Compliance Matrix: (Units=1/GPa)
#
#
# Indices 1 2 3 4 5 6 
#
# 1 0.044317 -0.004565 -0.022203 0.000000 0.000000 0.000000
# 2 -0.004565 0.039687 -0.007982 0.000000 0.000000 0.000000
# 3 -0.022203 -0.007982 0.019009 0.000000 0.000000 0.000000
# 4 0.000000 0.000000 0.000000 0.043496 0.000000 0.000000
# 5 0.000000 0.000000 0.000000 0.000000 0.010213 0.000000
# 6 0.000000 0.000000 0.000000 0.000000 0.000000 0.063477
#
#
# Mechanical properties :
#
#
# Convention : Reuss Voigt Hill
#
# Bulk Modulus (GPa) = 29.83920 74.46161 52.15040
# Shear Modulus (GPa) = 16.61845 35.75833 26.18839
#
# Velocity S-wave (km/s) = 3.08902 4.53120 3.87775
# Velocity P-wave (km/s) = 5.46405 8.37438 7.07058
#
# Compressibility (1/GPa) = 0.03351297
#
# Stress axis : x y z
#
# Youngs Moduli (GPa) = 22.56463 25.19702 52.60734
#
# Poissons Ratio (x) = 0.11502 1.16806
# Poissons Ratio (y) = 0.10300 0.41991
# Poissons Ratio (z) = 0.50101 0.20112
#
# Static dielectric constant tensor:
#      x y z
#    x 1.576840 0.000000 0.000000 
#    y 0.000000 1.588350 0.000000 
#    z 0.000000 0.000000 1.596440 
# 
# From -- ./inp_files/78209.got.cif
#   From: 2010.05.17/outbox.cif.g08.bks.cpg/sg65_40_cif.got.tgz:78209.got - 2010.06.03 17:01:31.
