data_PCOD9486963
_publ_section_title
;
Structure prediction by ZEFSAII (Michael W. Deem and Ramdas Pophale) SiO2 
 PCOD9486963
Probable space group: C M M M
;
_chemical_formula_sum "Si O2"
_cell_formula_units_Z 72
_cell_length_a 28.612992
_cell_length_b 7.986171
_cell_length_c 14.069710
_cell_angle_alpha 90.000000
_cell_angle_beta 90.000000
_cell_angle_gamma 90.000000
_cell_volume 3215.044767
_symmetry_space_group_name_H-M "C M M M"
_symmetry_group_IT_number 65
_symmetry_cell_setting 'orthorhombic'
loop_
_space_group_symop_operation_xyz
x,y,z
-x,-y,z
x,-y,-z
-x,y,-z
-x,-y,-z
x,y,-z
-x,y,z
x,-y,z
1/2+x,1/2+y,z
1/2-x,1/2-y,z
1/2+x,1/2-y,-z
1/2-x,1/2+y,-z
1/2-x,1/2-y,-z
1/2+x,1/2+y,-z
1/2-x,1/2+y,z
1/2+x,1/2-y,z
loop_
_atom_site_type_symbol
_atom_site_label
_atom_site_fract_x
_atom_site_fract_y
_atom_site_fract_z
Si Si1 0.901389 0.806368 0.895139
Si Si2 0.602368 0.700550 0.307224
Si Si3 0.445695 0.295651 0.500000
Si Si4 0.697188 0.800293 0.391937
Si Si5 0.799304 0.685743 0.886804
O O1 0.916903 0.731807 0.793693
O O2 0.845058 0.799675 0.882639
O O3 0.916433 0.000000 0.899025
O O4 0.911837 0.730938 0.000000
O O5 0.595415 0.500000 0.303957
O O6 0.578085 0.765964 0.402922
O O7 0.657386 0.732771 0.322970
O O8 0.441472 0.500000 0.500000
O O9 0.500000 0.254103 0.500000
O O10 0.687808 0.737141 0.500000
O O11 0.750000 0.750000 0.368768
O O12 0.694290 0.000000 0.393114
O O13 0.809925 0.500000 0.848322
O O14 0.750000 0.750000 0.847622
O O15 0.792011 0.668004 0.000000
#
# Coordination Sequence:
#
# PCOD9486963 Si02
#       5
#    16  16   8  16  16
#     4   9  18  31  46  67  96 131 169 207 250 298
#     4  10  19  33  55  78 104 138 175 216 258 306
#     4   9  18  34  58  85 106 127 164 213 264 317
#     4  10  20  33  51  76 108 143 178 217 261 310
#     4   9  16  26  41  61  88 126 171 215 253 289
#
# _framework density 22.394711999999998
#
# number of rings (size 3 to 8) (size 9 to 14) (size 15 to 20)
#    0.000    2.556    1.111    1.333    0.000    5.333 
#    0.000    0.000    0.000    2.000    0.000    4.667 
#    0.000    0.000    0.000    7.556    0.000    8.000 
#
# Total GULP energy -200728.130397 kJ/mol
# GULP energy per Si atom -5575.781400 kJ/mol
# Density = 2.234374 g / cm^3
# Si number density = 22.394712 Si / 1000 Ang^3
#
#
#
# Elastic Constant Matrix: (Units=GPa)
#
#
# Indices 1 2 3 4 5 6 
#
# 1 32.8338 -11.2807 36.9833 0.0000 0.0000 0.0000
# 2 -11.2807 30.5905 3.2163 0.0000 0.0000 0.0000
# 3 36.9833 3.2163 242.2291 0.0000 0.0000 0.0000
# 4 0.0000 0.0000 0.0000 6.7936 0.0000 0.0000
# 5 0.0000 0.0000 0.0000 0.0000 12.2647 0.0000
# 6 0.0000 0.0000 0.0000 0.0000 0.0000 5.1601
#
#
#
# Elastic Compliance Matrix: (Units=1/GPa)
#
#
# Indices 1 2 3 4 5 6 
#
# 1 0.044148 0.017013 -0.006966 0.000000 0.000000 0.000000
# 2 0.017013 0.039292 -0.003119 0.000000 0.000000 0.000000
# 3 -0.006966 -0.003119 0.005233 0.000000 0.000000 0.000000
# 4 0.000000 0.000000 0.000000 0.147196 0.000000 0.000000
# 5 0.000000 0.000000 0.000000 0.000000 0.081535 0.000000
# 6 0.000000 0.000000 0.000000 0.000000 0.000000 0.193793
#
#
# Mechanical properties :
#
#
# Convention : Reuss Voigt Hill
#
# Bulk Modulus (GPa) = 9.75344 40.38791 25.07068
# Shear Modulus (GPa) = 9.40699 23.29266 16.34983
#
# Velocity S-wave (km/s) = 2.05175 3.22855 2.70492
# Velocity P-wave (km/s) = 3.15873 5.65436 4.57981
#
# Compressibility (1/GPa) = 0.10252789
#
# Stress axis : x y z
#
# Youngs Moduli (GPa) = 22.65087 25.45069 191.08142
#
# Poissons Ratio (x) = -0.43299 1.33116
# Poissons Ratio (y) = -0.38536 0.59603
# Poissons Ratio (z) = 0.15780 0.07939
#
# Static dielectric constant tensor:
#      x y z
#    x 1.781330 0.000000 0.000000 
#    y 0.000000 1.854420 0.000000 
#    z 0.000000 0.000000 1.959310 
# 
# From -- ./inp_files/36550.got.cif
#   From: 2010.05.17/outbox.cif.g08.bks.cpg/sg65_19_cif.got.tgz:36550.got - 2010.06.03 17:01:31.
