data_PCOD9486011
_publ_section_title
;
Structure prediction by ZEFSAII (Michael W. Deem and Ramdas Pophale) SiO2 
 PCOD9486011
Probable space group: C M M M
;
_chemical_formula_sum "Si O2"
_cell_formula_units_Z 112
_cell_length_a 14.654409
_cell_length_b 17.075111
_cell_length_c 25.490976
_cell_angle_alpha 90.000000
_cell_angle_beta 90.000000
_cell_angle_gamma 90.000000
_cell_volume 6378.496302
_symmetry_space_group_name_H-M "C M M M"
_symmetry_group_IT_number 65
_symmetry_cell_setting 'orthorhombic'
loop_
_space_group_symop_operation_xyz
x,y,z
-x,-y,z
x,-y,-z
-x,y,-z
-x,-y,-z
x,y,-z
-x,y,z
x,-y,z
1/2+x,1/2+y,z
1/2-x,1/2-y,z
1/2+x,1/2-y,-z
1/2-x,1/2+y,-z
1/2-x,1/2-y,-z
1/2+x,1/2+y,-z
1/2-x,1/2+y,z
1/2+x,1/2-y,z
loop_
_atom_site_type_symbol
_atom_site_label
_atom_site_fract_x
_atom_site_fract_y
_atom_site_fract_z
Si Si1 0.605725 0.405864 0.057760
Si Si2 0.278379 0.665783 0.150165
Si Si3 0.105947 0.409025 0.201094
Si Si4 0.107584 0.238832 0.753518
Si Si5 0.106797 0.793118 0.365139
Si Si6 0.203010 0.911998 0.559207
Si Si7 0.399063 0.144770 0.559768
O O1 0.500000 0.381603 0.061439
O O2 0.608039 0.500000 0.058410
O O3 0.659100 0.375241 0.107660
O O4 0.640569 0.380593 0.000000
O O5 0.250000 0.750000 0.127652
O O6 0.189258 0.612921 0.162306
O O7 0.333453 0.691789 0.203205
O O8 0.117389 0.500000 0.219454
O O9 0.114247 0.333700 0.239951
O O10 0.000000 0.404479 0.181197
O O11 0.136338 0.216833 0.694849
O O12 0.000000 0.220050 0.760656
O O13 0.162852 0.856416 0.397073
O O14 0.113394 0.712668 0.397696
O O15 0.000000 0.814979 0.364756
O O16 0.180435 0.884024 0.500000
O O17 0.312596 0.910900 0.563479
O O18 0.168642 0.000000 0.564780
O O19 0.396824 0.177644 0.500000
O O20 0.500000 0.109467 0.566874
#
# Coordination Sequence:
#
# PCOD9486011 Si02
#       7
#    16  16  16  16  16  16  16
#     4   9  18  33  53  76 102 134 174 220 264 301
#     4  10  19  31  52  78 105 137 171 207 251 302
#     4   9  18  33  52  74 102 135 169 204 244 295
#     4   9  19  35  53  75 102 132 167 206 249 298
#     4  10  20  35  54  74  99 130 164 203 246 295
#     4  10  21  35  52  75 101 130 163 201 248 300
#     4   9  18  33  53  74  95 125 165 205 245 289
#
# _framework density 17.558997999999999
#
# number of rings (size 3 to 8) (size 9 to 14) (size 15 to 20)
#    0.000    2.571    0.000    2.143    0.000    6.857 
#    0.000    5.714    0.000    4.714    0.000    2.000 
#    0.000    0.000    0.000    0.000    0.000    0.000 
#
# Total GULP energy -311760.395258 kJ/mol
# GULP energy per Si atom -5567.149915 kJ/mol
# Density = 1.751903 g / cm^3
# Si number density = 17.558998 Si / 1000 Ang^3
#
#
#
# Elastic Constant Matrix: (Units=GPa)
#
#
# Indices 1 2 3 4 5 6 
#
# 1 77.7059 46.6365 61.0335 0.0000 0.0000 0.0000
# 2 46.6365 69.8238 54.0884 0.0000 0.0000 0.0000
# 3 61.0335 54.0884 125.5130 0.0000 0.0000 0.0000
# 4 0.0000 0.0000 0.0000 41.5376 0.0000 0.0000
# 5 0.0000 0.0000 0.0000 0.0000 14.1165 0.0000
# 6 0.0000 0.0000 0.0000 0.0000 0.0000 4.8697
#
#
#
# Elastic Compliance Matrix: (Units=1/GPa)
#
#
# Indices 1 2 3 4 5 6 
#
# 1 0.025551 -0.011170 -0.007611 0.000000 0.000000 0.000000
# 2 -0.011170 0.026382 -0.005937 0.000000 0.000000 0.000000
# 3 -0.007611 -0.005937 0.014227 0.000000 0.000000 0.000000
# 4 0.000000 0.000000 0.000000 0.024075 0.000000 0.000000
# 5 0.000000 0.000000 0.000000 0.000000 0.070839 0.000000
# 6 0.000000 0.000000 0.000000 0.000000 0.000000 0.205351
#
#
# Mechanical properties :
#
#
# Convention : Reuss Voigt Hill
#
# Bulk Modulus (GPa) = 59.79844 66.28438 63.04141
# Shear Modulus (GPa) = 11.86422 19.52372 15.69397
#
# Velocity S-wave (km/s) = 2.60220 3.33812 2.99287
# Velocity P-wave (km/s) = 6.56949 7.25871 6.92269
#
# Compressibility (1/GPa) = 0.01672285
#
# Stress axis : x y z
#
# Youngs Moduli (GPa) = 39.13734 37.90519 70.28924
#
# Poissons Ratio (x) = 0.42340 0.53498
# Poissons Ratio (y) = 0.43717 0.41732
# Poissons Ratio (z) = 0.29788 0.22505
#
# Static dielectric constant tensor:
#      x y z
#    x 1.635350 0.000000 0.000000 
#    y 0.000000 1.582530 0.000000 
#    z 0.000000 0.000000 1.579930 
# 
# From -- ./inp_files/74905.got.cif
#   From: 2010.05.17/outbox.cif.g08.bks.cpg/sg65_38_cif.got.tgz:74905.got - 2010.06.03 17:01:31.
