data_PCOD9486343
_publ_section_title
;
Structure prediction by ZEFSAII (Michael W. Deem and Ramdas Pophale) SiO2 
 PCOD9486343
Probable space group: C M M M
;
_chemical_formula_sum "Si O2"
_cell_formula_units_Z 120
_cell_length_a 7.653434
_cell_length_b 26.696021
_cell_length_c 28.302808
_cell_angle_alpha 90.000000
_cell_angle_beta 90.000000
_cell_angle_gamma 90.000000
_cell_volume 5782.723164
_symmetry_space_group_name_H-M "C M M M"
_symmetry_group_IT_number 65
_symmetry_cell_setting 'orthorhombic'
loop_
_space_group_symop_operation_xyz
x,y,z
-x,-y,z
x,-y,-z
-x,y,-z
-x,-y,-z
x,y,-z
-x,y,z
x,-y,z
1/2+x,1/2+y,z
1/2-x,1/2-y,z
1/2+x,1/2-y,-z
1/2-x,1/2+y,-z
1/2-x,1/2-y,-z
1/2+x,1/2+y,-z
1/2-x,1/2+y,z
1/2+x,1/2-y,z
loop_
_atom_site_type_symbol
_atom_site_label
_atom_site_fract_x
_atom_site_fract_y
_atom_site_fract_z
Si Si1 0.787647 0.055616 0.913117
Si Si2 0.710640 0.556303 0.291375
Si Si3 0.705827 0.163366 0.050785
Si Si4 0.713999 0.000000 0.554876
Si Si5 0.203763 0.088895 0.189515
Si Si6 0.791632 0.694443 0.152550
Si Si7 0.708829 0.901343 0.389778
Si Si8 0.709898 0.194051 0.553968
O O1 0.724943 0.103428 0.942430
O O2 0.725514 0.064837 0.858960
O O3 0.000000 0.057526 0.913628
O O4 0.735192 0.000000 0.928957
O O5 0.500000 0.555484 0.289071
O O6 0.772062 0.500000 0.302677
O O7 0.778074 0.571928 0.239658
O O8 0.757374 0.592224 0.334412
O O9 0.500000 0.175123 0.049878
O O10 0.778690 0.187640 0.098734
O O11 0.781993 0.178321 0.000000
O O12 0.774643 0.049660 0.582258
O O13 0.500000 0.000000 0.555590
O O14 0.765994 0.000000 0.500000
O O15 0.218113 0.148562 0.182734
O O16 0.000000 0.074409 0.189993
O O17 0.750000 0.750000 0.169551
O O18 0.000000 0.687756 0.151457
O O19 0.500000 0.901344 0.395983
O O20 0.777069 0.850404 0.413050
O O21 0.775999 0.189044 0.500000
O O22 0.500000 0.189915 0.551880
O O23 0.750000 0.250000 0.570891
#
# Coordination Sequence:
#
# PCOD9486343 Si02
#       8
#    16  16  16   8  16  16  16  16
#     4   9  17  30  49  72  97 126 166 211 249 292
#     4  10  20  34  53  77 107 139 168 203 253 309
#     4   9  19  34  49  69 100 134 165 198 243 301
#     4   9  16  28  49  75 103 137 175 215 258 305
#     4   9  18  34  54  74  97 131 170 207 250 299
#     4  10  20  35  55  77 100 127 163 209 255 300
#     4  10  19  32  51  77 106 137 175 216 257 307
#     4   9  18  33  53  76 101 133 175 218 258 302
#
# _framework density 20.751470000000001
#
# number of rings (size 3 to 8) (size 9 to 14) (size 15 to 20)
#    0.000    2.600    0.667    1.200    0.000    5.867 
#    0.000    2.000    0.000    5.600    0.000    0.000 
#    0.000    0.000    0.000    0.000    0.000    0.000 
#
# Total GULP energy -334869.964748 kJ/mol
# GULP energy per Si atom -5581.166079 kJ/mol
# Density = 2.070424 g / cm^3
# Si number density = 20.751470 Si / 1000 Ang^3
#
#
#
# Elastic Constant Matrix: (Units=GPa)
#
#
# Indices 1 2 3 4 5 6 
#
# 1 40.6220 -6.8743 0.9163 0.0000 0.0000 0.0000
# 2 -6.8743 90.7623 23.5180 0.0000 0.0000 0.0000
# 3 0.9163 23.5180 91.2570 0.0000 0.0000 0.0000
# 4 0.0000 0.0000 0.0000 3.0209 0.0000 0.0000
# 5 0.0000 0.0000 0.0000 0.0000 49.8304 0.0000
# 6 0.0000 0.0000 0.0000 0.0000 0.0000 18.2758
#
#
#
# Elastic Compliance Matrix: (Units=1/GPa)
#
#
# Indices 1 2 3 4 5 6 
#
# 1 0.024990 0.002098 -0.000792 0.000000 0.000000 0.000000
# 2 0.002098 0.011982 -0.003109 0.000000 0.000000 0.000000
# 3 -0.000792 -0.003109 0.011767 0.000000 0.000000 0.000000
# 4 0.000000 0.000000 0.000000 0.331032 0.000000 0.000000
# 5 0.000000 0.000000 0.000000 0.000000 0.020068 0.000000
# 6 0.000000 0.000000 0.000000 0.000000 0.000000 0.054717
#
#
# Mechanical properties :
#
#
# Convention : Reuss Voigt Hill
#
# Bulk Modulus (GPa) = 22.15621 28.64014 25.39817
# Shear Modulus (GPa) = 10.56620 27.89749 19.23185
#
# Velocity S-wave (km/s) = 2.25895 3.67053 3.04759
# Velocity P-wave (km/s) = 4.18377 5.63872 4.96483
#
# Compressibility (1/GPa) = 0.04513407
#
# Stress axis : x y z
#
# Youngs Moduli (GPa) = 40.01593 83.45651 84.98163
#
# Poissons Ratio (x) = -0.17508 0.06727
# Poissons Ratio (y) = -0.08395 0.26421
# Poissons Ratio (z) = 0.03168 0.25947
#
# Static dielectric constant tensor:
#      x y z
#    x 1.787970 0.000000 0.000000 
#    y 0.000000 1.728560 0.000000 
#    z 0.000000 0.000000 1.741160 
# 
# From -- ./inp_files/73970.got.cif
#   From: 2010.05.17/outbox.cif.g08.bks.cpg/sg65_37_cif.got.tgz:73970.got - 2010.06.03 17:01:31.
