data_PCOD9486553
_publ_section_title
;
Structure prediction by ZEFSAII (Michael W. Deem and Ramdas Pophale) SiO2 
 PCOD9486553
Probable space group: C M M M
;
_chemical_formula_sum "Si O2"
_cell_formula_units_Z 88
_cell_length_a 31.367483
_cell_length_b 7.894330
_cell_length_c 18.598513
_cell_angle_alpha 90.000000
_cell_angle_beta 90.000000
_cell_angle_gamma 90.000000
_cell_volume 4605.461656
_symmetry_space_group_name_H-M "C M M M"
_symmetry_group_IT_number 65
_symmetry_cell_setting 'orthorhombic'
loop_
_space_group_symop_operation_xyz
x,y,z
-x,-y,z
x,-y,-z
-x,y,-z
-x,-y,-z
x,y,-z
-x,y,z
x,-y,z
1/2+x,1/2+y,z
1/2-x,1/2-y,z
1/2+x,1/2-y,-z
1/2-x,1/2+y,-z
1/2-x,1/2-y,-z
1/2+x,1/2+y,-z
1/2-x,1/2+y,z
1/2+x,1/2-y,z
loop_
_atom_site_type_symbol
_atom_site_label
_atom_site_fract_x
_atom_site_fract_y
_atom_site_fract_z
Si Si1 0.048925 0.000000 0.414393
Si Si2 0.109024 0.304805 0.635569
Si Si3 0.385798 0.298403 0.798392
Si Si4 0.295751 0.308130 0.813640
Si Si5 0.950593 0.704706 0.919996
Si Si6 0.204778 0.702052 0.648486
O O1 0.075539 0.833277 0.391849
O O2 0.046463 0.000000 0.500000
O O3 0.000000 0.000000 0.385755
O O4 0.100827 0.500000 0.613464
O O5 0.107233 0.292738 0.722448
O O6 0.158399 0.259426 0.614787
O O7 0.381521 0.500000 0.782308
O O8 0.341312 0.228360 0.831450
O O9 0.422650 0.274072 0.855602
O O10 0.298863 0.500000 0.836542
O O11 0.250000 0.250000 0.840374
O O12 0.294523 0.292350 0.726400
O O13 0.948874 0.500000 0.917691
O O14 0.000000 0.754099 0.912118
O O15 0.936203 0.758326 0.000000
O O16 0.205026 0.500000 0.660858
O O17 0.250000 0.750000 0.612106
#
# Coordination Sequence:
#
# PCOD9486553 Si02
#       6
#     8  16  16  16  16  16
#     4  11  26  46  66  86 111 151 197 241 293 347
#     4  10  21  38  61  90 119 150 191 241 290 339
#     4  10  19  32  53  82 115 145 181 231 280 326
#     4   9  16  25  41  68 105 140 174 220 267 317
#     4   9  19  35  52  72 102 142 185 227 278 340
#     4   9  16  25  47  82 114 148 181 219 277 337
#
# _framework density 19.107748999999998
#
# number of rings (size 3 to 8) (size 9 to 14) (size 15 to 20)
#    0.000    2.455    0.909    3.273    2.545    4.364 
#    0.000    1.818    0.000    1.091    0.000    0.000 
#    0.000    0.000    0.000    0.000    0.000    0.000 
#
# Total GULP energy -245041.945489 kJ/mol
# GULP energy per Si atom -5569.135125 kJ/mol
# Density = 1.906426 g / cm^3
# Si number density = 19.107749 Si / 1000 Ang^3
#
#
#
# Elastic Constant Matrix: (Units=GPa)
#
#
# Indices 1 2 3 4 5 6 
#
# 1 146.9561 47.7941 36.5216 0.0000 0.0000 0.0000
# 2 47.7941 65.2158 12.6671 0.0000 0.0000 0.0000
# 3 36.5216 12.6671 29.0994 0.0000 0.0000 0.0000
# 4 0.0000 0.0000 0.0000-1665.8232 0.0000 0.0000
# 5 0.0000 0.0000 0.0000 0.0000 -44.0221 0.0000
# 6 0.0000 0.0000 0.0000 0.0000 0.0000 32.1549
#
#
#
# Elastic Compliance Matrix: (Units=1/GPa)
#
#
# Indices 1 2 3 4 5 6 
#
# 1 0.011894 -0.006354 -0.012161 0.000000 0.000000 0.000000
# 2 -0.006354 0.020145 -0.000794 0.000000 0.000000 0.000000
# 3 -0.012161 -0.000794 0.049974 0.000000 0.000000 0.000000
# 4 0.000000 0.000000 0.000000 -0.000600 0.000000 0.000000
# 5 0.000000 0.000000 0.000000 0.000000 -0.022716 0.000000
# 6 0.000000 0.000000 0.000000 0.000000 0.000000 0.031099
#
#
# Mechanical properties :
#
#
# Convention : Reuss Voigt Hill
#
# Bulk Modulus (GPa) = 23.04515 48.35964 35.70239
# Shear Modulus (GPa) = 34.99457 -325.91886 -145.46214
#
# Velocity S-wave (km/s) = 4.28417 -13.07437 -8.73456
# Velocity P-wave (km/s) = 6.04640 14.23219 9.11033
#
# Compressibility (1/GPa) = 0.04339308
#
# Stress axis : x y z
#
# Youngs Moduli (GPa) = 84.07831 49.64071 20.01044
#
# Poissons Ratio (x) = 0.31543 0.24335
# Poissons Ratio (y) = 0.53426 0.01589
# Poissons Ratio (z) = 1.02250 0.03942
#
# Static dielectric constant tensor:
#      x y z
#    x 1.750120 0.000000 0.000000 
#    y 0.000000 1.772810 0.000000 
#    z 0.000000 0.000000 1.625510 
# 
# From -- ./inp_files/66199.got.cif
#   From: 2010.05.17/outbox.cif.g08.bks.cpg/sg65_34_cif.got.tgz:66199.got - 2010.06.03 17:01:31.
