data_PCOD9486210
_publ_section_title
;
Structure prediction by ZEFSAII (Michael W. Deem and Ramdas Pophale) SiO2 
 PCOD9486210
Probable space group: C M M M
;
_chemical_formula_sum "Si O2"
_cell_formula_units_Z 104
_cell_length_a 8.679658
_cell_length_b 29.282164
_cell_length_c 24.022240
_cell_angle_alpha 90.000000
_cell_angle_beta 90.000000
_cell_angle_gamma 90.000000
_cell_volume 6105.472556
_symmetry_space_group_name_H-M "C M M M"
_symmetry_group_IT_number 65
_symmetry_cell_setting 'orthorhombic'
loop_
_space_group_symop_operation_xyz
x,y,z
-x,-y,z
x,-y,-z
-x,y,-z
-x,-y,-z
x,y,-z
-x,y,z
x,-y,z
1/2+x,1/2+y,z
1/2-x,1/2-y,z
1/2+x,1/2-y,-z
1/2-x,1/2+y,-z
1/2-x,1/2-y,-z
1/2+x,1/2+y,-z
1/2-x,1/2+y,z
1/2+x,1/2-y,z
loop_
_atom_site_type_symbol
_atom_site_label
_atom_site_fract_x
_atom_site_fract_y
_atom_site_fract_z
Si Si1 0.683330 0.699109 0.166409
Si Si2 0.182934 0.354778 0.937732
Si Si3 0.685059 0.301585 0.622113
Si Si4 0.814667 0.198742 0.500000
Si Si5 0.183323 0.051767 0.098180
Si Si6 0.815675 0.645695 0.272877
Si Si7 0.816083 0.551266 0.778365
O O1 0.500000 0.700426 0.171806
O O2 0.750000 0.750000 0.164386
O O3 0.730464 0.672395 0.110536
O O4 0.753948 0.673016 0.219347
O O5 0.229229 0.407841 0.932650
O O6 0.000000 0.350095 0.929107
O O7 0.221318 0.338470 0.000000
O O8 0.500000 0.299134 0.624814
O O9 0.750000 0.250000 0.628090
O O10 0.731619 0.320139 0.560543
O O11 0.746271 0.332765 0.671620
O O12 0.750000 0.250000 0.500000
O O13 0.000000 0.200230 0.500000
O O14 0.226677 0.056324 0.163442
O O15 0.000000 0.057118 0.090978
O O16 0.225644 0.000000 0.081207
O O17 0.775726 0.592565 0.262443
O O18 0.000000 0.649907 0.274753
O O19 0.787020 0.500000 0.756884
O O20 0.000000 0.554871 0.790485
#
# Coordination Sequence:
#
# PCOD9486210 Si02
#       7
#    16  16  16   8  16  16  16
#     4  12  25  41  60  79 104 136 173 217 265 313
#     4  11  24  41  59  79 104 136 175 216 262 319
#     4  10  19  32  50  75 108 144 183 220 262 307
#     4   8  16  30  48  70 101 142 181 221 260 305
#     4  10  20  34  55  82 109 136 169 212 262 315
#     4  11  21  34  54  81 111 139 174 215 261 313
#     4   9  18  33  54  77 104 138 172 210 259 315
#
# _framework density 17.033899000000002
#
# number of rings (size 3 to 8) (size 9 to 14) (size 15 to 20)
#    0.000    1.692    1.538    3.692    0.000    4.000 
#    0.000    1.538    0.000    0.000    0.000    0.538 
#    0.000    4.308    0.000    0.000    0.000    0.000 
#
# Total GULP energy -290303.838450 kJ/mol
# GULP energy per Si atom -5582.766124 kJ/mol
# Density = 1.699513 g / cm^3
# Si number density = 17.033899 Si / 1000 Ang^3
#
#
#
# Elastic Constant Matrix: (Units=GPa)
#
#
# Indices 1 2 3 4 5 6 
#
# 1 51.8807 27.3367 35.3440 0.0000 0.0000 0.0000
# 2 27.3367 90.8453 52.8792 0.0000 0.0000 0.0000
# 3 35.3440 52.8792 123.6933 0.0000 0.0000 0.0000
# 4 0.0000 0.0000 0.0000 25.4824 0.0000 0.0000
# 5 0.0000 0.0000 0.0000 0.0000 21.4002 0.0000
# 6 0.0000 0.0000 0.0000 0.0000 0.0000 23.6598
#
#
#
# Elastic Compliance Matrix: (Units=1/GPa)
#
#
# Indices 1 2 3 4 5 6 
#
# 1 0.025258 -0.004526 -0.005283 0.000000 0.000000 0.000000
# 2 -0.004526 0.015465 -0.005318 0.000000 0.000000 0.000000
# 3 -0.005283 -0.005318 0.011868 0.000000 0.000000 0.000000
# 4 0.000000 0.000000 0.000000 0.039243 0.000000 0.000000
# 5 0.000000 0.000000 0.000000 0.000000 0.046729 0.000000
# 6 0.000000 0.000000 0.000000 0.000000 0.000000 0.042266
#
#
# Mechanical properties :
#
#
# Convention : Reuss Voigt Hill
#
# Bulk Modulus (GPa) = 44.76661 55.28212 50.02436
# Shear Modulus (GPa) = 22.88042 24.16577 23.52310
#
# Velocity S-wave (km/s) = 3.66898 3.77063 3.72016
# Velocity P-wave (km/s) = 6.65481 7.17506 6.91983
#
# Compressibility (1/GPa) = 0.02233808
#
# Stress axis : x y z
#
# Youngs Moduli (GPa) = 39.59069 64.66113 84.26363
#
# Poissons Ratio (x) = 0.29264 0.44513
# Poissons Ratio (y) = 0.17918 0.44813
# Poissons Ratio (z) = 0.20914 0.34388
#
# Static dielectric constant tensor:
#      x y z
#    x 1.573220 0.000000 0.000000 
#    y 0.000000 1.572470 0.000000 
#    z 0.000000 0.000000 1.580030 
# 
# From -- ./inp_files/60404.got.cif
#   From: 2010.05.17/outbox.cif.g08.bks.cpg/sg65_31_cif.got.tgz:60404.got - 2010.06.03 17:01:31.
