data_PCOD9486848
_publ_section_title
;
Structure prediction by ZEFSAII (Michael W. Deem and Ramdas Pophale) SiO2 
 PCOD9486848
Probable space group: C M M M
;
_chemical_formula_sum "Si O2"
_cell_formula_units_Z 72
_cell_length_a 16.074373
_cell_length_b 7.334825
_cell_length_c 26.421448
_cell_angle_alpha 90.000000
_cell_angle_beta 90.000000
_cell_angle_gamma 90.000000
_cell_volume 3115.160399
_symmetry_space_group_name_H-M "C M M M"
_symmetry_group_IT_number 65
_symmetry_cell_setting 'orthorhombic'
loop_
_space_group_symop_operation_xyz
x,y,z
-x,-y,z
x,-y,-z
-x,y,-z
-x,-y,-z
x,y,-z
-x,y,z
x,-y,z
1/2+x,1/2+y,z
1/2-x,1/2-y,z
1/2+x,1/2-y,-z
1/2-x,1/2+y,-z
1/2-x,1/2-y,-z
1/2+x,1/2+y,-z
1/2-x,1/2+y,z
1/2+x,1/2-y,z
loop_
_atom_site_type_symbol
_atom_site_label
_atom_site_fract_x
_atom_site_fract_y
_atom_site_fract_z
Si Si1 0.904625 0.779337 0.727447
Si Si2 0.649958 0.717947 0.945541
Si Si3 0.842077 0.782973 0.622593
Si Si4 0.000000 0.223197 0.441751
Si Si5 0.348930 0.282419 0.163666
O O1 0.850164 0.712872 0.680345
O O2 0.884426 0.710506 0.783601
O O3 0.000000 0.739701 0.714715
O O4 0.895888 0.000000 0.730122
O O5 0.636752 0.500000 0.945691
O O6 0.750000 0.750000 0.945429
O O7 0.619446 0.787449 0.890957
O O8 0.618548 0.787734 0.000000
O O9 0.750000 0.750000 0.602346
O O10 0.917368 0.716030 0.587901
O O11 0.853323 0.000000 0.625760
O O12 0.000000 0.280143 0.500000
O O13 0.000000 0.000000 0.441551
O O14 0.363853 0.500000 0.163056
O O15 0.250000 0.250000 0.165201
#
# Coordination Sequence:
#
# PCOD9486848 Si02
#       5
#    16  16  16   8  16
#     4   9  16  28  46  66  89 120 157 191 228 281
#     4   8  13  21  33  51  76 104 134 172 219 268
#     4  10  19  33  54  77 101 131 167 205 243 286
#     4   9  18  34  55  77 103 137 172 200 234 289
#     4   9  16  25  40  61  83 108 142 184 226 272
#
# _framework density 23.112774000000002
#
# number of rings (size 3 to 8) (size 9 to 14) (size 15 to 20)
#    0.000    3.000    1.111    0.667    0.000    0.444 
#    0.000    0.556    0.000    3.333    0.000    4.667 
#    0.000    0.000    0.000   36.000    0.000   16.889 
#
# Total GULP energy -200825.845595 kJ/mol
# GULP energy per Si atom -5578.495711 kJ/mol
# Density = 2.306017 g / cm^3
# Si number density = 23.112774 Si / 1000 Ang^3
#
#
#
# Elastic Constant Matrix: (Units=GPa)
#
#
# Indices 1 2 3 4 5 6 
#
# 1 100.4447 -5.7681 79.1973 0.0000 0.0000 0.0000
# 2 -5.7681 94.5950 12.7189 0.0000 0.0000 0.0000
# 3 79.1973 12.7189 208.1329 0.0000 0.0000 0.0000
# 4 0.0000 0.0000 0.0000 62.7891 0.0000 0.0000
# 5 0.0000 0.0000 0.0000 0.0000 30.8003 0.0000
# 6 0.0000 0.0000 0.0000 0.0000 0.0000 6.5228
#
#
#
# Elastic Compliance Matrix: (Units=1/GPa)
#
#
# Indices 1 2 3 4 5 6 
#
# 1 0.014470 0.001636 -0.005606 0.000000 0.000000 0.000000
# 2 0.001636 0.010844 -0.001285 0.000000 0.000000 0.000000
# 3 -0.005606 -0.001285 0.007016 0.000000 0.000000 0.000000
# 4 0.000000 0.000000 0.000000 0.015926 0.000000 0.000000
# 5 0.000000 0.000000 0.000000 0.000000 0.032467 0.000000
# 6 0.000000 0.000000 0.000000 0.000000 0.000000 0.153308
#
#
# Mechanical properties :
#
#
# Convention : Reuss Voigt Hill
#
# Bulk Modulus (GPa) = 45.82978 63.94098 54.88538
# Shear Modulus (GPa) = 19.85583 41.15740 30.50662
#
# Velocity S-wave (km/s) = 2.93419 4.22444 3.63699
# Velocity P-wave (km/s) = 5.59921 7.17770 6.43702
#
# Compressibility (1/GPa) = 0.02181987
#
# Stress axis : x y z
#
# Youngs Moduli (GPa) = 69.10970 92.21731 142.52563
#
# Poissons Ratio (x) = -0.15087 0.79899
# Poissons Ratio (y) = -0.11307 0.18318
# Poissons Ratio (z) = 0.38742 0.11852
#
# Static dielectric constant tensor:
#      x y z
#    x 1.818780 0.000000 0.000000 
#    y 0.000000 1.861080 0.000000 
#    z 0.000000 0.000000 1.900330 
# 
# From -- ./inp_files/68788.got.cif
#   From: 2010.05.17/outbox.cif.g08.bks.cpg/sg65_35_cif.got.tgz:68788.got - 2010.06.03 17:01:31.
