data_PCOD9486001
_publ_section_title
;
Structure prediction by ZEFSAII (Michael W. Deem and Ramdas Pophale) SiO2 
 PCOD9486001
Probable space group: C M M M
;
_chemical_formula_sum "Si O2"
_cell_formula_units_Z 112
_cell_length_a 18.364300
_cell_length_b 19.707195
_cell_length_c 18.845128
_cell_angle_alpha 90.000000
_cell_angle_beta 90.000000
_cell_angle_gamma 90.000000
_cell_volume 6820.218436
_symmetry_space_group_name_H-M "C M M M"
_symmetry_group_IT_number 65
_symmetry_cell_setting 'orthorhombic'
loop_
_space_group_symop_operation_xyz
x,y,z
-x,-y,z
x,-y,-z
-x,y,-z
-x,-y,-z
x,y,-z
-x,y,z
x,-y,z
1/2+x,1/2+y,z
1/2-x,1/2-y,z
1/2+x,1/2-y,-z
1/2-x,1/2+y,-z
1/2-x,1/2-y,-z
1/2+x,1/2+y,-z
1/2-x,1/2+y,z
1/2+x,1/2-y,z
loop_
_atom_site_type_symbol
_atom_site_label
_atom_site_fract_x
_atom_site_fract_y
_atom_site_fract_z
Si Si1 0.709142 0.921254 0.308860
Si Si2 0.142399 0.077518 0.218083
Si Si3 0.854463 0.309629 0.919130
Si Si4 0.714243 0.324369 0.418234
Si Si5 0.584879 0.163543 0.232716
Si Si6 0.314518 0.348236 0.920300
Si Si7 0.417122 0.305843 0.311560
O O1 0.778060 0.917743 0.255328
O O2 0.734220 0.876877 0.376285
O O3 0.639592 0.888303 0.270685
O O4 0.696921 0.000000 0.326656
O O5 0.152819 0.103260 0.138452
O O6 0.091938 0.130079 0.259700
O O7 0.117682 0.000000 0.222438
O O8 0.900202 0.334116 0.851781
O O9 0.772755 0.339694 0.911986
O O10 0.845940 0.228074 0.913407
O O11 0.880076 0.324788 0.000000
O O12 0.703731 0.344366 0.500000
O O13 0.750000 0.250000 0.416273
O O14 0.639043 0.317504 0.375214
O O15 0.500000 0.148450 0.245620
O O16 0.601186 0.237813 0.266810
O O17 0.328966 0.372111 0.000000
O O18 0.500000 0.299589 0.336360
#
# Coordination Sequence:
#
# PCOD9486001 Si02
#       7
#    16  16  16  16  16  16  16
#     4  10  21  36  55  81 109 138 177 225 269 318
#     4  10  19  31  52  75 101 141 180 221 272 322
#     4   9  17  29  48  74 103 136 179 235 286 322
#     4  10  20  36  61  88 111 141 176 213 259 316
#     4  11  20  32  54  78 105 148 188 223 271 325
#     4   9  16  27  47  72  99 134 177 228 281 326
#     4  10  21  35  54  82 111 141 177 220 267 318
#
# _framework density 16.421761
#
# number of rings (size 3 to 8) (size 9 to 14) (size 15 to 20)
#    0.000    2.143    4.286    0.857    0.000    1.714 
#    0.000    0.000    0.000    1.286    0.000    7.000 
#    0.000    0.000    0.000    0.000    0.000    0.000 
#
# Total GULP energy -312228.258983 kJ/mol
# GULP energy per Si atom -5575.504625 kJ/mol
# Density = 1.638438 g / cm^3
# Si number density = 16.421761 Si / 1000 Ang^3
#
#
#
# Elastic Constant Matrix: (Units=GPa)
#
#
# Indices 1 2 3 4 5 6 
#
# 1 61.4928 29.3412 40.1388 0.0000 0.0000 0.0000
# 2 29.3412 86.0952 43.1735 0.0000 0.0000 0.0000
# 3 40.1388 43.1735 127.6418 0.0000 0.0000 0.0000
# 4 0.0000 0.0000 0.0000 15.8967 0.0000 0.0000
# 5 0.0000 0.0000 0.0000 0.0000 16.2117 0.0000
# 6 0.0000 0.0000 0.0000 0.0000 0.0000 13.5214
#
#
#
# Elastic Compliance Matrix: (Units=1/GPa)
#
#
# Indices 1 2 3 4 5 6 
#
# 1 0.022029 -0.004858 -0.005284 0.000000 0.000000 0.000000
# 2 -0.004858 0.015059 -0.003566 0.000000 0.000000 0.000000
# 3 -0.005284 -0.003566 0.010702 0.000000 0.000000 0.000000
# 4 0.000000 0.000000 0.000000 0.062906 0.000000 0.000000
# 5 0.000000 0.000000 0.000000 0.000000 0.061684 0.000000
# 6 0.000000 0.000000 0.000000 0.000000 0.000000 0.073957
#
#
# Mechanical properties :
#
#
# Convention : Reuss Voigt Hill
#
# Bulk Modulus (GPa) = 49.08116 55.61520 52.34818
# Shear Modulus (GPa) = 17.82248 19.96436 18.89342
#
# Velocity S-wave (km/s) = 3.29796 3.49051 3.39560
# Velocity P-wave (km/s) = 6.66744 7.08415 6.87895
#
# Compressibility (1/GPa) = 0.02037442
#
# Stress axis : x y z
#
# Youngs Moduli (GPa) = 45.39431 66.40686 93.43797
#
# Poissons Ratio (x) = 0.32258 0.49376
# Poissons Ratio (y) = 0.22051 0.33319
# Poissons Ratio (z) = 0.23988 0.23680
#
# Static dielectric constant tensor:
#      x y z
#    x 1.537670 0.000000 0.000000 
#    y 0.000000 1.537540 0.000000 
#    z 0.000000 0.000000 1.541860 
# 
# From -- ./inp_files/54817.got.cif
#   From: 2010.05.17/outbox.cif.g08.bks.cpg/sg65_28_cif.got.tgz:54817.got - 2010.06.03 17:01:31.
