data_PCOD9486277
_publ_section_title
;
Structure prediction by ZEFSAII (Michael W. Deem and Ramdas Pophale) SiO2 
 PCOD9486277
Probable space group: C M M M
;
_chemical_formula_sum "Si O2"
_cell_formula_units_Z 104
_cell_length_a 8.323618
_cell_length_b 19.585086
_cell_length_c 36.214345
_cell_angle_alpha 90.000000
_cell_angle_beta 90.000000
_cell_angle_gamma 90.000000
_cell_volume 5903.618136
_symmetry_space_group_name_H-M "C M M M"
_symmetry_group_IT_number 65
_symmetry_cell_setting 'orthorhombic'
loop_
_space_group_symop_operation_xyz
x,y,z
-x,-y,z
x,-y,-z
-x,y,-z
-x,-y,-z
x,y,-z
-x,y,z
x,-y,z
1/2+x,1/2+y,z
1/2-x,1/2-y,z
1/2+x,1/2-y,-z
1/2-x,1/2+y,-z
1/2-x,1/2-y,-z
1/2+x,1/2+y,-z
1/2-x,1/2+y,z
1/2+x,1/2-y,z
loop_
_atom_site_type_symbol
_atom_site_label
_atom_site_fract_x
_atom_site_fract_y
_atom_site_fract_z
Si Si1 0.691245 0.078143 0.381567
Si Si2 0.307024 0.419136 0.539941
Si Si3 0.680107 0.583084 0.086634
Si Si4 0.000000 0.416779 0.042911
Si Si5 0.190036 0.579922 0.165889
Si Si6 0.806824 0.827597 0.767589
Si Si7 0.308223 0.327047 0.684232
O O1 0.500000 0.075216 0.380785
O O2 0.741594 0.108172 0.421447
O O3 0.749322 0.122732 0.347447
O O4 0.754803 0.000000 0.378888
O O5 0.251744 0.391048 0.500000
O O6 0.500000 0.414435 0.540792
O O7 0.264967 0.500000 0.539805
O O8 0.500000 0.605343 0.075278
O O9 0.680818 0.500000 0.085092
O O10 0.834463 0.605880 0.062754
O O11 0.714047 0.601670 0.129250
O O12 0.000000 0.500000 0.044842
O O13 0.000000 0.397477 0.000000
O O14 0.225689 0.500000 0.172713
O O15 0.234689 0.623952 0.201317
O O16 0.000000 0.585416 0.157835
O O17 0.750000 0.750000 0.773648
O O18 0.754840 0.846817 0.725801
O O19 0.000000 0.830391 0.769417
O O20 0.500000 0.326901 0.684230
O O21 0.250000 0.250000 0.677332
#
# Coordination Sequence:
#
# PCOD9486277 Si02
#       7
#    16  16  16   8  16  16  16
#     4  10  20  32  49  75 104 132 165 206 246 290
#     4   8  14  26  45  69  97 128 161 198 243 291
#     4   9  16  27  43  64  94 132 171 211 257 308
#     4   9  16  26  40  62  96 134 172 212 255 309
#     4  10  19  32  51  74 102 137 172 210 260 310
#     4  10  21  36  53  74  99 130 167 212 259 304
#     4  10  21  37  55  72  96 131 169 206 252 306
#
# _framework density 17.616316000000001
#
# number of rings (size 3 to 8) (size 9 to 14) (size 15 to 20)
#    0.000    2.538    0.769    2.308    0.000    4.923 
#    0.000    6.154    0.000    0.462    0.000    0.000 
#    0.000    0.615    0.308    0.000    0.000    0.000 
#
# Total GULP energy -289790.841008 kJ/mol
# GULP energy per Si atom -5572.900789 kJ/mol
# Density = 1.757622 g / cm^3
# Si number density = 17.616316 Si / 1000 Ang^3
#
#
#
# Elastic Constant Matrix: (Units=GPa)
#
#
# Indices 1 2 3 4 5 6 
#
# 1 78.7813 20.8945 60.7891 0.0000 0.0000 0.0000
# 2 20.8945 25.9929 49.7927 0.0000 0.0000 0.0000
# 3 60.7891 49.7927 155.1119 0.0000 0.0000 0.0000
# 4 0.0000 0.0000 0.0000 -10.9656 0.0000 0.0000
# 5 0.0000 0.0000 0.0000 0.0000 24.4879 0.0000
# 6 0.0000 0.0000 0.0000 0.0000 0.0000 19.5840
#
#
#
# Elastic Compliance Matrix: (Units=1/GPa)
#
#
# Indices 1 2 3 4 5 6 
#
# 1 0.018259 -0.002518 -0.006347 0.000000 0.000000 0.000000
# 2 -0.002518 0.100258 -0.031197 0.000000 0.000000 0.000000
# 3 -0.006347 -0.031197 0.018949 0.000000 0.000000 0.000000
# 4 0.000000 0.000000 0.000000 -0.091194 0.000000 0.000000
# 5 0.000000 0.000000 0.000000 0.000000 0.040836 0.000000
# 6 0.000000 0.000000 0.000000 0.000000 0.000000 0.051062
#
#
# Mechanical properties :
#
#
# Convention : Reuss Voigt Hill
#
# Bulk Modulus (GPa) = 17.43960 58.09318 37.76639
# Shear Modulus (GPa) = 21.06062 15.18194 18.12128
#
# Velocity S-wave (km/s) = 3.46138 2.93885 3.21076
# Velocity P-wave (km/s) = 5.08881 6.67565 5.93550
#
# Compressibility (1/GPa) = 0.05734077
#
# Stress axis : x y z
#
# Youngs Moduli (GPa) = 54.76737 9.97423 52.77282
#
# Poissons Ratio (x) = 0.02512 0.33497
# Poissons Ratio (y) = 0.13793 1.64636
# Poissons Ratio (z) = 0.34763 0.31117
#
# Static dielectric constant tensor:
#      x y z
#    x 1.612570 0.000000 0.000000 
#    y 0.000000 1.561300 0.000000 
#    z 0.000000 0.000000 1.614050 
# 
# From -- ./inp_files/76944.got.cif
#   From: 2010.05.17/outbox.cif.g08.bks.cpg/sg65_39_cif.got.tgz:76944.got - 2010.06.03 17:01:31.
