data_PCOD9486892
_publ_section_title
;
Structure prediction by ZEFSAII (Michael W. Deem and Ramdas Pophale) SiO2 
 PCOD9486892
Probable space group: C M M M
;
_chemical_formula_sum "Si O2"
_cell_formula_units_Z 104
_cell_length_a 18.622439
_cell_length_b 34.814778
_cell_length_c 7.428675
_cell_angle_alpha 90.000000
_cell_angle_beta 90.000000
_cell_angle_gamma 90.000000
_cell_volume 4816.278026
_symmetry_space_group_name_H-M "C M M M"
_symmetry_group_IT_number 65
_symmetry_cell_setting 'orthorhombic'
loop_
_space_group_symop_operation_xyz
x,y,z
-x,-y,z
x,-y,-z
-x,y,-z
-x,-y,-z
x,y,-z
-x,y,z
x,-y,z
1/2+x,1/2+y,z
1/2-x,1/2-y,z
1/2+x,1/2-y,-z
1/2-x,1/2+y,-z
1/2-x,1/2-y,-z
1/2+x,1/2+y,-z
1/2-x,1/2+y,z
1/2+x,1/2-y,z
loop_
_atom_site_type_symbol
_atom_site_label
_atom_site_fract_x
_atom_site_fract_y
_atom_site_fract_z
Si Si1 0.080244 0.096606 0.213012
Si Si2 0.182698 0.326965 0.285226
Si Si3 0.644390 0.913846 0.784713
Si Si4 0.000000 0.544533 0.220373
Si Si5 0.789358 0.955611 0.779611
Si Si6 0.582519 0.757509 0.720250
Si Si7 0.153406 0.177619 0.282854
O O1 0.141105 0.067867 0.283909
O O2 0.108733 0.139903 0.234153
O O3 0.000000 0.092381 0.287959
O O4 0.075829 0.088987 0.000000
O O5 0.187549 0.321842 0.500000
O O6 0.149350 0.368686 0.252179
O O7 0.132459 0.292600 0.218159
O O8 0.264543 0.325561 0.216238
O O9 0.571793 0.933752 0.718253
O O10 0.716716 0.934537 0.718355
O O11 0.644318 0.918619 0.000000
O O12 0.000000 0.500000 0.273939
O O13 0.000000 0.545118 0.000000
O O14 0.790550 0.000000 0.726278
O O15 0.789152 0.954629 0.000000
O O16 0.582615 0.757703 0.500000
O O17 0.500000 0.761551 0.776950
O O18 0.615772 0.716831 0.777607
O O19 0.155703 0.178860 0.500000
#
# Coordination Sequence:
#
# PCOD9486892 Si02
#       7
#    16  16  16   8  16  16  16
#     4  10  20  33  51  77 107 134 166 212 260 303
#     4  10  20  33  52  77 104 134 170 212 256 302
#     4  10  19  33  54  78 105 136 171 212 256 305
#     4   9  18  32  53  81 107 135 177 223 259 299
#     4   9  17  31  52  75 100 133 170 206 248 301
#     4   9  18  32  51  75 101 133 172 210 248 300
#     4  10  19  34  55  76 100 134 175 212 249 299
#
# _framework density 21.593437999999999
#
# number of rings (size 3 to 8) (size 9 to 14) (size 15 to 20)
#    0.000    2.385    1.538    1.385    1.077    4.923 
#    0.000    2.308    0.000    6.462    0.000    1.077 
#    0.000    0.000    0.000    0.000    0.000    0.000 
#
# Total GULP energy -290632.904666 kJ/mol
# GULP energy per Si atom -5589.094321 kJ/mol
# Density = 2.154429 g / cm^3
# Si number density = 21.593438 Si / 1000 Ang^3
#
#
#
# Elastic Constant Matrix: (Units=GPa)
#
#
# Indices 1 2 3 4 5 6 
#
# 1 123.9118 29.1875 4.4940 0.0000 0.0000 0.0000
# 2 29.1875 110.5920 -10.1873 0.0000 0.0000 0.0000
# 3 4.4940 -10.1873 68.7357 0.0000 0.0000 0.0000
# 4 0.0000 0.0000 0.0000 18.6524 0.0000 0.0000
# 5 0.0000 0.0000 0.0000 0.0000 -3.6144 0.0000
# 6 0.0000 0.0000 0.0000 0.0000 0.0000 24.6676
#
#
#
# Elastic Compliance Matrix: (Units=1/GPa)
#
#
# Indices 1 2 3 4 5 6 
#
# 1 0.008662 -0.002371 -0.000918 0.000000 0.000000 0.000000
# 2 -0.002371 0.009816 0.001610 0.000000 0.000000 0.000000
# 3 -0.000918 0.001610 0.014847 0.000000 0.000000 0.000000
# 4 0.000000 0.000000 0.000000 0.053612 0.000000 0.000000
# 5 0.000000 0.000000 0.000000 0.000000 -0.276668 0.000000
# 6 0.000000 0.000000 0.000000 0.000000 0.000000 0.040539
#
#
# Mechanical properties :
#
#
# Convention : Reuss Voigt Hill
#
# Bulk Modulus (GPa) = 33.36852 38.91422 36.14137
# Shear Modulus (GPa) = -36.80650 26.59081 -5.10785
#
# Velocity S-wave (km/s) = -4.13307 3.51298 -1.53967
# Velocity P-wave (km/s) = 2.69994 5.87496 3.68954
#
# Compressibility (1/GPa) = 0.02996836
#
# Stress axis : x y z
#
# Youngs Moduli (GPa) = 115.44766 101.87249 67.35328
#
# Poissons Ratio (x) = 0.24150 0.06181
# Poissons Ratio (y) = 0.27368 -0.10843
# Poissons Ratio (z) = 0.10594 -0.16400
#
# Static dielectric constant tensor:
#      x y z
#    x 1.758590 0.000000 0.000000 
#    y 0.000000 1.715520 0.000000 
#    z 0.000000 0.000000 1.841340 
# 
# From -- ./inp_files/27488.got.cif
#   From: 2010.05.17/outbox.cif.g08.bks.cpg/sg65_14_cif.got.tgz:27488.got - 2010.06.03 17:01:31.
