data_PCOD9486251
_publ_section_title
;
Structure prediction by ZEFSAII (Michael W. Deem and Ramdas Pophale) SiO2 
 PCOD9486251
Probable space group: C M M M
;
_chemical_formula_sum "Si O2"
_cell_formula_units_Z 96
_cell_length_a 18.604071
_cell_length_b 18.631220
_cell_length_c 17.701209
_cell_angle_alpha 90.000000
_cell_angle_beta 90.000000
_cell_angle_gamma 90.000000
_cell_volume 6135.531812
_symmetry_space_group_name_H-M "C M M M"
_symmetry_group_IT_number 65
_symmetry_cell_setting 'orthorhombic'
loop_
_space_group_symop_operation_xyz
x,y,z
-x,-y,z
x,-y,-z
-x,y,-z
-x,-y,-z
x,y,-z
-x,y,z
x,-y,z
1/2+x,1/2+y,z
1/2-x,1/2-y,z
1/2+x,1/2-y,-z
1/2-x,1/2+y,-z
1/2-x,1/2-y,-z
1/2+x,1/2+y,-z
1/2-x,1/2+y,z
1/2+x,1/2-y,z
loop_
_atom_site_type_symbol
_atom_site_label
_atom_site_fract_x
_atom_site_fract_y
_atom_site_fract_z
Si Si1 0.145229 0.083485 0.309707
Si Si2 0.273472 0.332958 0.912842
Si Si3 0.081511 0.832195 0.826756
Si Si4 0.704665 0.084515 0.774703
Si Si5 0.916336 0.308512 0.277533
Si Si6 0.913746 0.795356 0.587292
O O1 0.096848 0.109599 0.238892
O O2 0.226958 0.094089 0.281076
O O3 0.125568 0.135311 0.378587
O O4 0.133606 0.000000 0.326259
O O5 0.250000 0.250000 0.902933
O O6 0.356925 0.339064 0.889029
O O7 0.229090 0.381422 0.854413
O O8 0.262437 0.352786 0.000000
O O9 0.090157 0.755587 0.784131
O O10 0.000000 0.838110 0.854459
O O11 0.637005 0.128124 0.743598
O O12 0.690790 0.000000 0.782004
O O13 0.897102 0.271113 0.357317
O O14 0.000000 0.330404 0.279681
O O15 0.896268 0.782602 0.500000
O O16 0.000000 0.807037 0.593707
#
# Coordination Sequence:
#
# PCOD9486251 Si02
#       6
#    16  16  16  16  16  16
#     4   9  18  30  46  70 101 134 166 202 242 288
#     4  10  19  32  51  73  98 130 162 195 242 296
#     4   9  17  29  48  72  97 128 166 205 240 283
#     4  10  20  34  52  73  97 128 166 206 245 287
#     4   9  17  32  52  72  96 125 164 208 244 288
#     4   9  18  31  49  74 101 130 163 200 244 293
#
# _framework density 15.646565000000001
#
# number of rings (size 3 to 8) (size 9 to 14) (size 15 to 20)
#    0.000    2.667    1.667    1.500    0.000    2.667 
#    0.000    2.500    0.000    2.000    0.000    8.167 
#    0.000    0.000    0.000    0.000    0.000    0.000 
#
# Total GULP energy -267541.559750 kJ/mol
# GULP energy per Si atom -5573.782495 kJ/mol
# Density = 1.561095 g / cm^3
# Si number density = 15.646565 Si / 1000 Ang^3
#
#
#
# Elastic Constant Matrix: (Units=GPa)
#
#
# Indices 1 2 3 4 5 6 
#
# 1 87.2284 71.3835 51.6954 0.0000 0.0000 0.0000
# 2 71.3835 110.5596 65.0919 0.0000 0.0000 0.0000
# 3 51.6954 65.0919 104.9670 0.0000 0.0000 0.0000
# 4 0.0000 0.0000 0.0000 12.2637 0.0000 0.0000
# 5 0.0000 0.0000 0.0000 0.0000 14.9498 0.0000
# 6 0.0000 0.0000 0.0000 0.0000 0.0000 16.6911
#
#
#
# Elastic Compliance Matrix: (Units=1/GPa)
#
#
# Indices 1 2 3 4 5 6 
#
# 1 0.025166 -0.014099 -0.003651 0.000000 0.000000 0.000000
# 2 -0.014099 0.022145 -0.006789 0.000000 0.000000 0.000000
# 3 -0.003651 -0.006789 0.015535 0.000000 0.000000 0.000000
# 4 0.000000 0.000000 0.000000 0.081542 0.000000 0.000000
# 5 0.000000 0.000000 0.000000 0.000000 0.066890 0.000000
# 6 0.000000 0.000000 0.000000 0.000000 0.000000 0.059912
#
#
# Mechanical properties :
#
#
# Convention : Reuss Voigt Hill
#
# Bulk Modulus (GPa) = 72.63230 75.45516 74.04373
# Shear Modulus (GPa) = 15.39143 16.41987 15.90565
#
# Velocity S-wave (km/s) = 3.13979 3.24300 3.19181
# Velocity P-wave (km/s) = 7.72436 7.89634 7.81082
#
# Compressibility (1/GPa) = 0.01376798
#
# Stress axis : x y z
#
# Youngs Moduli (GPa) = 39.73652 45.15719 64.37196
#
# Poissons Ratio (x) = 0.63667 0.23502
# Poissons Ratio (y) = 0.56024 0.43701
# Poissons Ratio (z) = 0.14508 0.30656
#
# Static dielectric constant tensor:
#      x y z
#    x 1.518910 0.000000 0.000000 
#    y 0.000000 1.501480 0.000000 
#    z 0.000000 0.000000 1.506770 
# 
# From -- ./inp_files/54473.got.cif
#   From: 2010.05.17/outbox.cif.g08.bks.cpg/sg65_28_cif.got.tgz:54473.got - 2010.06.03 17:01:31.
