data_PCOD9486080
_publ_section_title
;
Structure prediction by ZEFSAII (Michael W. Deem and Ramdas Pophale) SiO2 
 PCOD9486080
Probable space group: C M M M
;
_chemical_formula_sum "Si O2"
_cell_formula_units_Z 88
_cell_length_a 7.726582
_cell_length_b 30.217265
_cell_length_c 19.781783
_cell_angle_alpha 90.000000
_cell_angle_beta 90.000000
_cell_angle_gamma 90.000000
_cell_volume 4618.575046
_symmetry_space_group_name_H-M "C M M M"
_symmetry_group_IT_number 65
_symmetry_cell_setting 'orthorhombic'
loop_
_space_group_symop_operation_xyz
x,y,z
-x,-y,z
x,-y,-z
-x,y,-z
-x,-y,-z
x,y,-z
-x,y,z
x,-y,z
1/2+x,1/2+y,z
1/2-x,1/2-y,z
1/2+x,1/2-y,-z
1/2-x,1/2+y,-z
1/2-x,1/2-y,-z
1/2+x,1/2+y,-z
1/2-x,1/2+y,z
1/2+x,1/2-y,z
loop_
_atom_site_type_symbol
_atom_site_label
_atom_site_fract_x
_atom_site_fract_y
_atom_site_fract_z
Si Si1 0.195267 0.202300 0.852386
Si Si2 0.204701 0.315704 0.000000
Si Si3 0.805141 0.629685 0.238414
Si Si4 0.709264 0.802378 0.649041
Si Si5 0.211951 0.550462 0.850941
Si Si6 0.205879 0.421251 0.000000
Si Si7 0.707092 0.198146 0.500000
O O1 0.250000 0.250000 0.825444
O O2 0.312655 0.163407 0.824622
O O3 0.000000 0.192668 0.832341
O O4 0.210880 0.202633 0.932643
O O5 0.227476 0.368573 0.000000
O O6 0.000000 0.305983 0.000000
O O7 0.726831 0.661585 0.296361
O O8 0.725154 0.585685 0.205196
O O9 0.000000 0.618009 0.261019
O O10 0.500000 0.803978 0.650965
O O11 0.750000 0.750000 0.660396
O O12 0.770535 0.816605 0.573805
O O13 0.255438 0.500000 0.834378
O O14 0.000000 0.554485 0.852083
O O15 0.272518 0.560990 0.927780
O O16 0.000000 0.431502 0.000000
O O17 0.500000 0.191904 0.500000
O O18 0.750000 0.250000 0.500000
#
# Coordination Sequence:
#
# PCOD9486080 Si02
#       7
#    16   8  16  16  16   8   8
#     4  12  24  36  49  67  92 125 159 193 232 280
#     4  11  20  35  53  68  89 120 156 199 237 275
#     4  10  19  32  48  70  95 122 155 194 235 281
#     4   9  17  28  45  67  95 125 157 189 226 271
#     4   9  16  27  46  71  93 114 149 197 243 282
#     4   9  15  26  47  69  88 110 142 192 240 276
#     4   8  14  26  42  64  91 123 155 189 224 264
#
# _framework density 19.053495999999999
#
# number of rings (size 3 to 8) (size 9 to 14) (size 15 to 20)
#    0.000    2.182    1.818    3.000    0.000    3.273 
#    0.000    0.000    0.000    0.545    0.000    1.909 
#    0.000    5.091    0.000    0.000    0.000   34.545 
#
# Total GULP energy -245260.278177 kJ/mol
# GULP energy per Si atom -5574.097231 kJ/mol
# Density = 1.901013 g / cm^3
# Si number density = 19.053496 Si / 1000 Ang^3
#
#
#
# Elastic Constant Matrix: (Units=GPa)
#
#
# Indices 1 2 3 4 5 6 
#
# 1 49.8824 13.8557 1.3827 0.0000 0.0000 0.0000
# 2 13.8557 117.9918 68.6197 0.0000 0.0000 0.0000
# 3 1.3827 68.6197 148.7547 0.0000 0.0000 0.0000
# 4 0.0000 0.0000 0.0000 11.0590 0.0000 0.0000
# 5 0.0000 0.0000 0.0000 0.0000 8.5273 0.0000
# 6 0.0000 0.0000 0.0000 0.0000 0.0000 7.3402
#
#
#
# Elastic Compliance Matrix: (Units=1/GPa)
#
#
# Indices 1 2 3 4 5 6 
#
# 1 0.020900 -0.003200 0.001282 0.000000 0.000000 0.000000
# 2 -0.003200 0.012072 -0.005539 0.000000 0.000000 0.000000
# 3 0.001282 -0.005539 0.009266 0.000000 0.000000 0.000000
# 4 0.000000 0.000000 0.000000 0.090424 0.000000 0.000000
# 5 0.000000 0.000000 0.000000 0.000000 0.117271 0.000000
# 6 0.000000 0.000000 0.000000 0.000000 0.000000 0.136236
#
#
# Mechanical properties :
#
#
# Convention : Reuss Voigt Hill
#
# Bulk Modulus (GPa) = 36.59765 53.81614 45.20689
# Shear Modulus (GPa) = 12.18943 20.90334 16.54638
#
# Velocity S-wave (km/s) = 2.53207 3.31582 2.95009
# Velocity P-wave (km/s) = 5.27238 6.55482 5.94826
#
# Compressibility (1/GPa) = 0.02732416
#
# Stress axis : x y z
#
# Youngs Moduli (GPa) = 47.84595 82.83448 107.92459
#
# Poissons Ratio (x) = 0.26505 -0.13833
# Poissons Ratio (y) = 0.15309 0.59781
# Poissons Ratio (z) = -0.06133 0.45883
#
# Static dielectric constant tensor:
#      x y z
#    x 1.741690 0.000000 0.000000 
#    y 0.000000 1.691410 0.000000 
#    z 0.000000 0.000000 1.717680 
# 
# From -- ./inp_files/60743.got.cif
#   From: 2010.05.17/outbox.cif.g08.bks.cpg/sg65_31_cif.got.tgz:60743.got - 2010.06.03 17:01:31.
