data_PCOD9486146
_publ_section_title
;
Structure prediction by ZEFSAII (Michael W. Deem and Ramdas Pophale) SiO2 
 PCOD9486146
Probable space group: C M M M
;
_chemical_formula_sum "Si O2"
_cell_formula_units_Z 96
_cell_length_a 24.334053
_cell_length_b 15.430191
_cell_length_c 13.740921
_cell_angle_alpha 90.000000
_cell_angle_beta 90.000000
_cell_angle_gamma 90.000000
_cell_volume 5159.428452
_symmetry_space_group_name_H-M "C M M M"
_symmetry_group_IT_number 65
_symmetry_cell_setting 'orthorhombic'
loop_
_space_group_symop_operation_xyz
x,y,z
-x,-y,z
x,-y,-z
-x,y,-z
-x,-y,-z
x,y,-z
-x,y,z
x,-y,z
1/2+x,1/2+y,z
1/2-x,1/2-y,z
1/2+x,1/2-y,-z
1/2-x,1/2+y,-z
1/2-x,1/2-y,-z
1/2+x,1/2+y,-z
1/2-x,1/2+y,z
1/2+x,1/2-y,z
loop_
_atom_site_type_symbol
_atom_site_label
_atom_site_fract_x
_atom_site_fract_y
_atom_site_fract_z
Si Si1 0.218866 0.000000 0.383096
Si Si2 0.349215 0.000000 0.384239
Si Si3 0.436113 0.250665 0.113745
Si Si4 0.633697 0.161301 0.741718
Si Si5 0.807900 0.802287 0.384136
Si Si6 0.354857 0.592556 0.882286
Si Si7 0.266010 0.851332 0.888697
O O1 0.195933 0.904230 0.355463
O O2 0.213956 0.000000 0.500000
O O3 0.283795 0.000000 0.361691
O O4 0.373447 0.085010 0.334820
O O5 0.355282 0.000000 0.500000
O O6 0.500000 0.273479 0.122439
O O7 0.417814 0.176977 0.188241
O O8 0.395698 0.329833 0.140470
O O9 0.425609 0.228237 0.000000
O O10 0.650348 0.247132 0.680935
O O11 0.684372 0.138269 0.814291
O O12 0.820138 0.797777 0.500000
O O13 0.750000 0.750000 0.371032
O O14 0.374560 0.500000 0.844521
O O15 0.290853 0.604453 0.857739
O O16 0.354873 0.590731 0.000000
O O17 0.250000 0.750000 0.891386
O O18 0.280206 0.877340 0.000000
#
# Coordination Sequence:
#
# PCOD9486146 Si02
#       7
#     8   8  16  16  16  16  16
#     4   9  18  32  50  80 119 156 188 224 282 355
#     4  11  24  38  56  84 117 145 186 246 301 363
#     4  10  22  41  61  81 112 156 203 248 291 343
#     4  12  22  36  58  86 113 157 198 235 298 354
#     4  10  19  33  53  80 117 153 189 233 288 353
#     4   9  18  32  52  81 119 156 191 235 286 342
#     4  10  19  32  49  79 121 155 188 231 284 346
#
# _framework density 18.606712000000002
#
# number of rings (size 3 to 8) (size 9 to 14) (size 15 to 20)
#    0.000    1.833    3.333    1.500    1.167    0.333 
#    1.500    3.333    0.000    3.500    0.000    0.000 
#    0.000    2.000    0.000    0.000    0.000    0.000 
#
# Total GULP energy -267851.159951 kJ/mol
# GULP energy per Si atom -5580.232499 kJ/mol
# Density = 1.856436 g / cm^3
# Si number density = 18.606712 Si / 1000 Ang^3
#
#
#
# Elastic Constant Matrix: (Units=GPa)
#
#
# Indices 1 2 3 4 5 6 
#
# 1 39.2527 13.0968 18.2487 0.0000 0.0000 0.0000
# 2 13.0968 108.3060 36.2555 0.0000 0.0000 0.0000
# 3 18.2487 36.2555 103.3537 0.0000 0.0000 0.0000
# 4 0.0000 0.0000 0.0000 -4.8225 0.0000 0.0000
# 5 0.0000 0.0000 0.0000 0.0000 18.9171 0.0000
# 6 0.0000 0.0000 0.0000 0.0000 0.0000 -9.1734
#
#
#
# Elastic Compliance Matrix: (Units=1/GPa)
#
#
# Indices 1 2 3 4 5 6 
#
# 1 0.028120 -0.001970 -0.004274 0.000000 0.000000 0.000000
# 2 -0.001970 0.010600 -0.003370 0.000000 0.000000 0.000000
# 3 -0.004274 -0.003370 0.011612 0.000000 0.000000 0.000000
# 4 0.000000 0.000000 0.000000 -0.207363 0.000000 0.000000
# 5 0.000000 0.000000 0.000000 0.000000 0.052862 0.000000
# 6 0.000000 0.000000 0.000000 0.000000 0.000000 -0.109011
#
#
# Mechanical properties :
#
#
# Convention : Reuss Voigt Hill
#
# Bulk Modulus (GPa) = 32.15043 42.90162 37.52603
# Shear Modulus (GPa) = -27.23563 13.20501 -7.01531
#
# Velocity S-wave (km/s) = -3.83005 2.66689 -1.94384
# Velocity P-wave (km/s) = 1.49754 5.70878 3.89536
#
# Compressibility (1/GPa) = 0.03110378
#
# Stress axis : x y z
#
# Youngs Moduli (GPa) = 35.56165 94.34370 86.11411
#
# Poissons Ratio (x) = 0.18582 0.36806
# Poissons Ratio (y) = 0.07004 0.29024
# Poissons Ratio (z) = 0.15199 0.31798
#
# Static dielectric constant tensor:
#      x y z
#    x 1.606320 0.000000 0.000000 
#    y 0.000000 1.643060 0.000000 
#    z 0.000000 0.000000 1.677050 
# 
# From -- ./inp_files/45658.got.cif
#   From: 2010.05.17/outbox.cif.g08.bks.cpg/sg65_23_cif.got.tgz:45658.got - 2010.06.03 17:01:31.
