data_PCOD9486050
_publ_section_title
;
Structure prediction by ZEFSAII (Michael W. Deem and Ramdas Pophale) SiO2 
 PCOD9486050
Probable space group: C M M M
;
_chemical_formula_sum "Si O2"
_cell_formula_units_Z 60
_cell_length_a 25.911408
_cell_length_b 10.872910
_cell_length_c 11.317188
_cell_angle_alpha 90.000000
_cell_angle_beta 90.000000
_cell_angle_gamma 90.000000
_cell_volume 3188.418617
_symmetry_space_group_name_H-M "C M M M"
_symmetry_group_IT_number 65
_symmetry_cell_setting 'orthorhombic'
loop_
_space_group_symop_operation_xyz
x,y,z
-x,-y,z
x,-y,-z
-x,y,-z
-x,-y,-z
x,y,-z
-x,y,z
x,-y,z
1/2+x,1/2+y,z
1/2-x,1/2-y,z
1/2+x,1/2-y,-z
1/2-x,1/2+y,-z
1/2-x,1/2-y,-z
1/2+x,1/2+y,-z
1/2-x,1/2+y,z
1/2+x,1/2-y,z
loop_
_atom_site_type_symbol
_atom_site_label
_atom_site_fract_x
_atom_site_fract_y
_atom_site_fract_z
Si Si1 0.892864 0.749299 0.742942
Si Si2 0.000000 0.860248 0.222530
Si Si3 0.615063 0.138699 0.000000
Si Si4 0.000000 0.315017 0.000000
Si Si5 0.211429 0.859130 0.642532
Si Si6 0.060529 0.500000 0.641632
O O1 0.944823 0.829294 0.720485
O O2 0.845064 0.817429 0.683799
O O3 0.909044 0.618451 0.687820
O O4 0.877325 0.717609 0.879676
O O5 0.000000 0.000000 0.185056
O O6 0.000000 0.770156 0.112890
O O7 0.553630 0.118398 0.000000
O O8 0.638906 0.000000 0.000000
O O9 0.213224 0.860523 0.500000
O O10 0.250000 0.750000 0.682945
O O11 0.223413 0.000000 0.682087
O O12 0.059556 0.500000 0.500000
O O13 0.000000 0.500000 0.683076
#
# Coordination Sequence:
#
# PCOD9486050 Si02
#       6
#    16   8   8   4  16   8
#     4  11  21  37  58  87 121 159 197 251 300 359
#     4  10  19  32  52  79 114 157 195 238 296 354
#     4  10  19  31  54  85 119 158 200 242 299 356
#     4   8  18  28  48  74 112 153 201 244 280 346
#     4  10  23  43  66  91 118 155 203 254 306 360
#     4  11  22  35  55  87 123 160 203 246 298 357
#
# _framework density 18.818106
#
# number of rings (size 3 to 8) (size 9 to 14) (size 15 to 20)
#    0.000    1.733    2.667    2.000    1.867    0.000 
#    0.000    2.667    0.000    3.200    0.000    0.000 
#    0.000    0.000    0.000    0.000    0.000    0.000 
#
# Total GULP energy -167082.305375 kJ/mol
# GULP energy per Si atom -5569.410179 kJ/mol
# Density = 1.877528 g / cm^3
# Si number density = 18.818106 Si / 1000 Ang^3
#
#
#
# Elastic Constant Matrix: (Units=GPa)
#
#
# Indices 1 2 3 4 5 6 
#
# 1 111.8128 50.3754 6.6753 0.0000 0.0000 0.0000
# 2 50.3754 133.3161 16.3430 0.0000 0.0000 0.0000
# 3 6.6753 16.3430 34.0829 0.0000 0.0000 0.0000
# 4 0.0000 0.0000 0.0000 13.5214 0.0000 0.0000
# 5 0.0000 0.0000 0.0000 0.0000 21.1416 0.0000
# 6 0.0000 0.0000 0.0000 0.0000 0.0000 26.4058
#
#
#
# Elastic Compliance Matrix: (Units=1/GPa)
#
#
# Indices 1 2 3 4 5 6 
#
# 1 0.010779 -0.004053 -0.000168 0.000000 0.000000 0.000000
# 2 -0.004053 0.009493 -0.003758 0.000000 0.000000 0.000000
# 3 -0.000168 -0.003758 0.031175 0.000000 0.000000 0.000000
# 4 0.000000 0.000000 0.000000 0.073957 0.000000 0.000000
# 5 0.000000 0.000000 0.000000 0.000000 0.047300 0.000000
# 6 0.000000 0.000000 0.000000 0.000000 0.000000 0.037870
#
#
# Mechanical properties :
#
#
# Convention : Reuss Voigt Hill
#
# Bulk Modulus (GPa) = 28.17688 47.33323 37.75506
# Shear Modulus (GPa) = 20.97646 25.93498 23.45572
#
# Velocity S-wave (km/s) = 3.34233 3.71643 3.53433
# Velocity P-wave (km/s) = 5.46815 6.60480 6.06317
#
# Compressibility (1/GPa) = 0.03549008
#
# Stress axis : x y z
#
# Youngs Moduli (GPa) = 92.77001 105.34084 32.07675
#
# Poissons Ratio (x) = 0.42690 0.00539
# Poissons Ratio (y) = 0.37595 0.12055
# Poissons Ratio (z) = 0.01558 0.39590
#
# Static dielectric constant tensor:
#      x y z
#    x 1.664510 0.000000 0.000000 
#    y 0.000000 1.659850 0.000000 
#    z 0.000000 0.000000 1.667340 
# 
# From -- ./inp_files/21960.got.cif
#   From: 2010.05.17/outbox.cif.g08.bks.cpg/sg65_11_cif.got.tgz:21960.got - 2010.06.03 17:01:31.
