data_PCOD9486637
_publ_section_title
;
Structure prediction by ZEFSAII (Michael W. Deem and Ramdas Pophale) SiO2 
 PCOD9486637
Probable space group: C M M M
;
_chemical_formula_sum "Si O2"
_cell_formula_units_Z 64
_cell_length_a 10.708244
_cell_length_b 21.462565
_cell_length_c 15.780941
_cell_angle_alpha 90.000000
_cell_angle_beta 90.000000
_cell_angle_gamma 90.000000
_cell_volume 3626.876589
_symmetry_space_group_name_H-M "C M M M"
_symmetry_group_IT_number 65
_symmetry_cell_setting 'orthorhombic'
loop_
_space_group_symop_operation_xyz
x,y,z
-x,-y,z
x,-y,-z
-x,y,-z
-x,-y,-z
x,y,-z
-x,y,z
x,-y,z
1/2+x,1/2+y,z
1/2-x,1/2-y,z
1/2+x,1/2-y,-z
1/2-x,1/2+y,-z
1/2-x,1/2-y,-z
1/2+x,1/2+y,-z
1/2-x,1/2+y,z
1/2+x,1/2-y,z
loop_
_atom_site_type_symbol
_atom_site_label
_atom_site_fract_x
_atom_site_fract_y
_atom_site_fract_z
Si Si1 0.750000 0.750000 0.231099
Si Si2 0.152837 0.927831 0.500000
Si Si3 0.353246 0.630332 0.675359
Si Si4 0.862107 0.333948 0.904506
Si Si5 0.355112 0.427982 0.146688
O O1 0.703978 0.693833 0.289246
O O2 0.848556 0.719516 0.165979
O O3 0.196311 0.894348 0.585966
O O4 0.000000 0.927204 0.500000
O O5 0.190142 0.000000 0.500000
O O6 0.500000 0.641344 0.663978
O O7 0.340778 0.580607 0.751642
O O8 0.748535 0.382417 0.892210
O O9 0.000000 0.363487 0.894981
O O10 0.854806 0.308552 0.000000
O O11 0.500000 0.410666 0.126341
O O12 0.337137 0.500000 0.122721
#
# Coordination Sequence:
#
# PCOD9486637 Si02
#       5
#     8   8  16  16  16
#     4  10  19  33  50  68  96 130 168 205 245 294
#     4   9  16  27  46  72  99 124 154 196 244 290
#     4   9  17  29  47  71  98 128 161 200 245 290
#     4  10  21  35  51  72  98 131 170 211 255 301
#     4   9  18  33  52  74 101 133 169 208 251 299
#
# _framework density 17.646038000000001
#
# number of rings (size 3 to 8) (size 9 to 14) (size 15 to 20)
#    0.000    2.625    0.000    1.875    0.000    6.000 
#    0.000    2.500    0.000    0.000    0.000    7.875 
#    0.000   33.000    0.000    0.000    0.000    0.000 
#
# Total GULP energy -178237.638292 kJ/mol
# GULP energy per Si atom -5569.926197 kJ/mol
# Density = 1.760587 g / cm^3
# Si number density = 17.646038 Si / 1000 Ang^3
#
#
#
# Elastic Constant Matrix: (Units=GPa)
#
#
# Indices 1 2 3 4 5 6 
#
# 1 77.1622 34.2544 32.6995 0.0000 0.0000 0.0000
# 2 34.2544 93.2821 46.4029 0.0000 0.0000 0.0000
# 3 32.6995 46.4029 123.2479 0.0000 0.0000 0.0000
# 4 0.0000 0.0000 0.0000 7.7968 0.0000 0.0000
# 5 0.0000 0.0000 0.0000 0.0000 56.5381 0.0000
# 6 0.0000 0.0000 0.0000 0.0000 0.0000 19.6390
#
#
#
# Elastic Compliance Matrix: (Units=1/GPa)
#
#
# Indices 1 2 3 4 5 6 
#
# 1 0.016094 -0.004658 -0.002516 0.000000 0.000000 0.000000
# 2 -0.004658 0.014539 -0.004238 0.000000 0.000000 0.000000
# 3 -0.002516 -0.004238 0.010377 0.000000 0.000000 0.000000
# 4 0.000000 0.000000 0.000000 0.128258 0.000000 0.000000
# 5 0.000000 0.000000 0.000000 0.000000 0.017687 0.000000
# 6 0.000000 0.000000 0.000000 0.000000 0.000000 0.050919
#
#
# Mechanical properties :
#
#
# Convention : Reuss Voigt Hill
#
# Bulk Modulus (GPa) = 54.99047 57.82288 56.40668
# Shear Modulus (GPa) = 18.74345 28.81716 23.78030
#
# Velocity S-wave (km/s) = 3.26266 4.04551 3.67499
# Velocity P-wave (km/s) = 6.73973 7.39330 7.07407
#
# Compressibility (1/GPa) = 0.01818497
#
# Stress axis : x y z
#
# Youngs Moduli (GPa) = 62.13534 68.78089 96.36786
#
# Poissons Ratio (x) = 0.32040 0.24247
# Poissons Ratio (y) = 0.28944 0.40841
# Poissons Ratio (z) = 0.15634 0.29149
#
# Static dielectric constant tensor:
#      x y z
#    x 1.603920 0.000000 0.000000 
#    y 0.000000 1.593490 0.000000 
#    z 0.000000 0.000000 1.616970 
# 
# From -- ./inp_files/37791.got.cif
#   From: 2010.05.17/outbox.cif.g08.bks.cpg/sg65_19_cif.got.tgz:37791.got - 2010.06.03 17:01:31.
