data_PCOD9486816
_publ_section_title
;
Structure prediction by ZEFSAII (Michael W. Deem and Ramdas Pophale) SiO2 
 PCOD9486816
Probable space group: C M M M
;
_chemical_formula_sum "Si O2"
_cell_formula_units_Z 120
_cell_length_a 20.094644
_cell_length_b 28.168566
_cell_length_c 13.043350
_cell_angle_alpha 90.000000
_cell_angle_beta 90.000000
_cell_angle_gamma 90.000000
_cell_volume 7383.022692
_symmetry_space_group_name_H-M "C M M M"
_symmetry_group_IT_number 65
_symmetry_cell_setting 'orthorhombic'
loop_
_space_group_symop_operation_xyz
x,y,z
-x,-y,z
x,-y,-z
-x,y,-z
-x,-y,-z
x,y,-z
-x,y,z
x,-y,z
1/2+x,1/2+y,z
1/2-x,1/2-y,z
1/2+x,1/2-y,-z
1/2-x,1/2+y,-z
1/2-x,1/2-y,-z
1/2+x,1/2+y,-z
1/2-x,1/2+y,z
1/2+x,1/2-y,z
loop_
_atom_site_type_symbol
_atom_site_label
_atom_site_fract_x
_atom_site_fract_y
_atom_site_fract_z
Si Si1 0.426504 0.324788 0.621552
Si Si2 0.173541 0.766868 0.880755
Si Si3 0.809287 0.140310 0.254084
Si Si4 0.421128 0.778999 0.280202
Si Si5 0.171194 0.359241 0.622760
Si Si6 0.000000 0.557846 0.117644
Si Si7 0.233931 0.945462 0.120169
Si Si8 0.629703 0.055066 0.757654
O O1 0.425065 0.326516 0.500000
O O2 0.500000 0.338722 0.658971
O O3 0.369625 0.357631 0.666983
O O4 0.416213 0.270158 0.655887
O O5 0.250000 0.750000 0.872360
O O6 0.174831 0.817698 0.825607
O O7 0.121963 0.732560 0.821698
O O8 0.156075 0.770173 0.000000
O O9 0.740645 0.149768 0.316351
O O10 0.803791 0.091762 0.191312
O O11 0.500000 0.788594 0.263120
O O12 0.383241 0.820636 0.340755
O O13 0.179962 0.357849 0.500000
O O14 0.146637 0.410461 0.663861
O O15 0.935203 0.572046 0.181288
O O16 0.000000 0.500000 0.113585
O O17 0.000000 0.574668 0.000000
O O18 0.309621 0.943448 0.161494
O O19 0.211327 0.000000 0.131981
O O20 0.231144 0.933041 0.000000
O O21 0.620940 0.000000 0.726297
#
# Coordination Sequence:
#
# PCOD9486816 Si02
#       8
#    16  16  16  16  16   8  16  16
#     4   9  18  33  54  77 101 131 165 205 252 301
#     4  10  19  34  54  75 102 135 164 204 259 310
#     4  10  19  33  53  80 104 131 169 211 248 305
#     4  10  21  36  51  73 104 135 174 213 253 304
#     4  11  22  34  51  72 100 139 177 217 259 296
#     4   9  16  30  51  69  89 121 164 216 267 311
#     4   9  17  31  52  76 102 131 164 205 252 301
#     4   9  19  33  48  70  98 129 172 219 262 306
#
# _framework density 16.253505000000001
#
# number of rings (size 3 to 8) (size 9 to 14) (size 15 to 20)
#    0.000    2.333    1.333    1.600    0.933    2.933 
#    0.000    2.667    0.000    4.000    0.000    1.867 
#    0.000    0.000    0.000    0.000    0.000    0.000 
#
# Total GULP energy -334385.421682 kJ/mol
# GULP energy per Si atom -5573.090361 kJ/mol
# Density = 1.621651 g / cm^3
# Si number density = 16.253505 Si / 1000 Ang^3
#
#
#
# Elastic Constant Matrix: (Units=GPa)
#
#
# Indices 1 2 3 4 5 6 
#
# 1 96.7368 46.4816 47.4193 0.0000 0.0000 0.0000
# 2 46.4816 60.2604 47.5754 0.0000 0.0000 0.0000
# 3 47.4193 47.5754 116.4784 0.0000 0.0000 0.0000
# 4 0.0000 0.0000 0.0000 22.2275 0.0000 0.0000
# 5 0.0000 0.0000 0.0000 0.0000 20.7432 0.0000
# 6 0.0000 0.0000 0.0000 0.0000 0.0000 17.3217
#
#
#
# Elastic Compliance Matrix: (Units=1/GPa)
#
#
# Indices 1 2 3 4 5 6 
#
# 1 0.016827 -0.011175 -0.002286 0.000000 0.000000 0.000000
# 2 -0.011175 0.031914 -0.008486 0.000000 0.000000 0.000000
# 3 -0.002286 -0.008486 0.012982 0.000000 0.000000 0.000000
# 4 0.000000 0.000000 0.000000 0.044989 0.000000 0.000000
# 5 0.000000 0.000000 0.000000 0.000000 0.048209 0.000000
# 6 0.000000 0.000000 0.000000 0.000000 0.000000 0.057731
#
#
# Mechanical properties :
#
#
# Convention : Reuss Voigt Hill
#
# Bulk Modulus (GPa) = 56.08651 61.82534 58.95593
# Shear Modulus (GPa) = 19.04842 20.85844 19.95343
#
# Velocity S-wave (km/s) = 3.42710 3.58623 3.50757
# Velocity P-wave (km/s) = 7.08818 7.43430 7.26330
#
# Compressibility (1/GPa) = 0.01782960
#
# Stress axis : x y z
#
# Youngs Moduli (GPa) = 59.42671 31.33447 77.02939
#
# Poissons Ratio (x) = 0.35016 0.17611
# Poissons Ratio (y) = 0.66408 0.65366
# Poissons Ratio (z) = 0.13587 0.26590
#
# Static dielectric constant tensor:
#      x y z
#    x 1.548470 0.000000 0.000000 
#    y 0.000000 1.541640 0.000000 
#    z 0.000000 0.000000 1.525860 
# 
# From -- ./inp_files/29433.got.cif
#   From: 2010.05.17/outbox.cif.g08.bks.cpg/sg65_15_cif.got.tgz:29433.got - 2010.06.03 17:01:31.
