data_PCOD9486646
_publ_section_title
;
Structure prediction by ZEFSAII (Michael W. Deem and Ramdas Pophale) SiO2 
 PCOD9486646
Probable space group: C M M M
;
_chemical_formula_sum "Si O2"
_cell_formula_units_Z 104
_cell_length_a 28.691468
_cell_length_b 7.845558
_cell_length_c 25.162847
_cell_angle_alpha 90.000000
_cell_angle_beta 90.000000
_cell_angle_gamma 90.000000
_cell_volume 5664.171361
_symmetry_space_group_name_H-M "C M M M"
_symmetry_group_IT_number 65
_symmetry_cell_setting 'orthorhombic'
loop_
_space_group_symop_operation_xyz
x,y,z
-x,-y,z
x,-y,-z
-x,y,-z
-x,-y,-z
x,y,-z
-x,y,z
x,-y,z
1/2+x,1/2+y,z
1/2-x,1/2-y,z
1/2+x,1/2-y,-z
1/2-x,1/2+y,-z
1/2-x,1/2-y,-z
1/2+x,1/2+y,-z
1/2-x,1/2+y,z
1/2+x,1/2-y,z
loop_
_atom_site_type_symbol
_atom_site_label
_atom_site_fract_x
_atom_site_fract_y
_atom_site_fract_z
Si Si1 0.856836 0.298749 0.723801
Si Si2 0.443118 0.699682 0.556892
Si Si3 0.304944 0.794645 0.942863
Si Si4 0.305244 0.294483 0.500000
Si Si5 0.304507 0.793870 0.172780
Si Si6 0.695407 0.296780 0.384345
Si Si7 0.447636 0.704505 0.671879
O O1 0.856789 0.500000 0.729819
O O2 0.831726 0.225714 0.775936
O O3 0.829944 0.259912 0.669041
O O4 0.909759 0.241757 0.715884
O O5 0.428381 0.774830 0.500000
O O6 0.500000 0.700913 0.557415
O O7 0.428691 0.500000 0.556041
O O8 0.430370 0.772997 0.614243
O O9 0.250000 0.750000 0.942813
O O10 0.322228 0.732637 0.885252
O O11 0.309283 0.000000 0.943078
O O12 0.323903 0.731543 0.000000
O O13 0.310095 0.500000 0.500000
O O14 0.250000 0.250000 0.500000
O O15 0.322849 0.232422 0.557784
O O16 0.250000 0.750000 0.177836
O O17 0.307641 0.000000 0.172396
O O18 0.691268 0.500000 0.385834
O O19 0.750000 0.250000 0.380792
O O20 0.500000 0.767035 0.682370
O O21 0.450193 0.500000 0.665722
#
# Coordination Sequence:
#
# PCOD9486646 Si02
#       7
#    16  16  16   8  16  16  16
#     4  11  22  33  45  65  93 124 153 181 220 270
#     4   7  10  20  41  65  82  96 120 160 212 266
#     4   8  13  23  40  61  86 117 151 183 213 247
#     4   8  16  30  48  66  83 108 143 186 230 267
#     4   9  18  30  44  65  93 124 155 184 216 256
#     4  10  19  33  51  69  89 114 148 188 229 270
#     4   9  18  33  51  68  86 111 146 188 231 275
#
# _framework density 18.361027
#
# number of rings (size 3 to 8) (size 9 to 14) (size 15 to 20)
#    0.000    3.077    0.000    2.769    0.000    3.385 
#    1.385    0.000    0.000    0.000    0.000    2.154 
#    0.000    0.615    0.000    7.692    0.000    1.231 
#
# Total GULP energy -289621.206108 kJ/mol
# GULP energy per Si atom -5569.638579 kJ/mol
# Density = 1.831924 g / cm^3
# Si number density = 18.361027 Si / 1000 Ang^3
#
#
#
# Elastic Constant Matrix: (Units=GPa)
#
#
# Indices 1 2 3 4 5 6 
#
# 1 64.2013 2.4279 70.7299 0.0000 0.0000 0.0000
# 2 2.4279 23.2490 9.9801 0.0000 0.0000 0.0000
# 3 70.7299 9.9801 194.4290 0.0000 0.0000 0.0000
# 4 0.0000 0.0000 0.0000 7.2794 0.0000 0.0000
# 5 0.0000 0.0000 0.0000 0.0000 12.4017 0.0000
# 6 0.0000 0.0000 0.0000 0.0000 0.0000 13.0600
#
#
#
# Elastic Compliance Matrix: (Units=1/GPa)
#
#
# Indices 1 2 3 4 5 6 
#
# 1 0.026037 0.001377 -0.009542 0.000000 0.000000 0.000000
# 2 0.001377 0.044055 -0.002762 0.000000 0.000000 0.000000
# 3 -0.009542 -0.002762 0.008756 0.000000 0.000000 0.000000
# 4 0.000000 0.000000 0.000000 0.137373 0.000000 0.000000
# 5 0.000000 0.000000 0.000000 0.000000 0.080634 0.000000
# 6 0.000000 0.000000 0.000000 0.000000 0.000000 0.076570
#
#
# Mechanical properties :
#
#
# Convention : Reuss Voigt Hill
#
# Bulk Modulus (GPa) = 17.54608 49.79501 33.67055
# Shear Modulus (GPa) = 12.06920 19.79765 15.93342
#
# Velocity S-wave (km/s) = 2.56662 3.28722 2.94901
# Velocity P-wave (km/s) = 4.28489 6.44877 5.47480
#
# Compressibility (1/GPa) = 0.05699278
#
# Stress axis : x y z
#
# Youngs Moduli (GPa) = 38.40736 22.69908 114.20197
#
# Poissons Ratio (x) = -0.03126 1.08976
# Poissons Ratio (y) = -0.05290 0.31547
# Poissons Ratio (z) = 0.36650 0.06270
#
# Static dielectric constant tensor:
#      x y z
#    x 1.636520 0.000000 0.000000 
#    y 0.000000 1.748200 0.000000 
#    z 0.000000 0.000000 1.719040 
# 
# From -- ./inp_files/72105.got.cif
#   From: 2010.05.17/outbox.cif.g08.bks.cpg/sg65_37_cif.got.tgz:72105.got - 2010.06.03 17:01:31.
