data_PCOD9486059
_publ_section_title
;
Structure prediction by ZEFSAII (Michael W. Deem and Ramdas Pophale) SiO2 
 PCOD9486059
Probable space group: C M M M
;
_chemical_formula_sum "Si O2"
_cell_formula_units_Z 96
_cell_length_a 29.153248
_cell_length_b 26.969433
_cell_length_c 9.065798
_cell_angle_alpha 90.000000
_cell_angle_beta 90.000000
_cell_angle_gamma 90.000000
_cell_volume 7127.952570
_symmetry_space_group_name_H-M "C M M M"
_symmetry_group_IT_number 65
_symmetry_cell_setting 'orthorhombic'
loop_
_space_group_symop_operation_xyz
x,y,z
-x,-y,z
x,-y,-z
-x,y,-z
-x,-y,-z
x,y,-z
-x,y,z
x,-y,z
1/2+x,1/2+y,z
1/2-x,1/2-y,z
1/2+x,1/2-y,-z
1/2-x,1/2+y,-z
1/2-x,1/2-y,-z
1/2+x,1/2+y,-z
1/2-x,1/2+y,z
1/2+x,1/2-y,z
loop_
_atom_site_type_symbol
_atom_site_label
_atom_site_fract_x
_atom_site_fract_y
_atom_site_fract_z
Si Si1 0.143054 0.761192 0.325125
Si Si2 0.304795 0.354054 0.822740
Si Si3 0.052313 0.094488 0.175195
Si Si4 0.052408 0.213420 0.174698
Si Si5 0.642932 0.557431 0.674556
Si Si6 0.783159 0.701516 0.830454
O O1 0.145153 0.766157 0.500000
O O2 0.165215 0.810062 0.249333
O O3 0.091154 0.759416 0.267661
O O4 0.174089 0.715254 0.270806
O O5 0.323750 0.405312 0.760740
O O6 0.251496 0.342458 0.787508
O O7 0.309929 0.351288 0.000000
O O8 0.056492 0.153902 0.197881
O O9 0.091597 0.067857 0.266731
O O10 0.000000 0.080148 0.213024
O O11 0.058824 0.085451 0.000000
O O12 0.000000 0.227171 0.210836
O O13 0.059736 0.221801 0.000000
O O14 0.644983 0.567760 0.500000
O O15 0.654414 0.500000 0.699629
O O16 0.750000 0.750000 0.827756
O O17 0.798137 0.694998 0.000000
#
# Coordination Sequence:
#
# PCOD9486059 Si02
#       6
#    16  16  16  16  16  16
#     4  11  19  26  42  66  87 105 127 161 204 246
#     4  10  19  32  47  60  77 103 135 168 200 240
#     4   9  18  32  48  61  73  98 136 173 210 251
#     4   9  17  29  44  60  80 108 139 169 202 241
#     4  11  23  34  44  61  82 103 129 167 217 261
#     4   8  16  29  44  61  80 103 130 160 195 237
#
# _framework density 13.468102999999999
#
# number of rings (size 3 to 8) (size 9 to 14) (size 15 to 20)
#    0.000    2.333    1.667    4.500    0.000    6.000 
#    0.000    3.333    0.000    0.000    0.000    0.000 
#    0.000    0.000    0.000    0.000    0.000    0.833 
#
# Total GULP energy -267612.672870 kJ/mol
# GULP energy per Si atom -5575.264018 kJ/mol
# Density = 1.343745 g / cm^3
# Si number density = 13.468103 Si / 1000 Ang^3
#
#
#
# Elastic Constant Matrix: (Units=GPa)
#
#
# Indices 1 2 3 4 5 6 
#
# 1 87.0439 45.7957 62.8334 0.0000 0.0000 0.0000
# 2 45.7957 46.1575 38.2108 0.0000 0.0000 0.0000
# 3 62.8334 38.2108 74.2373 0.0000 0.0000 0.0000
# 4 0.0000 0.0000 0.0000 15.9500 0.0000 0.0000
# 5 0.0000 0.0000 0.0000 0.0000 -18.2170 0.0000
# 6 0.0000 0.0000 0.0000 0.0000 0.0000 14.6618
#
#
#
# Elastic Compliance Matrix: (Units=1/GPa)
#
#
# Indices 1 2 3 4 5 6 
#
# 1 0.036998 -0.018792 -0.021642 0.000000 0.000000 0.000000
# 2 -0.018792 0.047295 -0.008438 0.000000 0.000000 0.000000
# 3 -0.021642 -0.008438 0.036131 0.000000 0.000000 0.000000
# 4 0.000000 0.000000 0.000000 0.062696 0.000000 0.000000
# 5 0.000000 0.000000 0.000000 0.000000 -0.054894 0.000000
# 6 0.000000 0.000000 0.000000 0.000000 0.000000 0.068204
#
#
# Mechanical properties :
#
#
# Convention : Reuss Voigt Hill
#
# Bulk Modulus (GPa) = 44.09221 55.67987 49.88604
# Shear Modulus (GPa) = 16.57093 6.51888 11.54491
#
# Velocity S-wave (km/s) = 3.51149 2.20244 2.93098
# Velocity P-wave (km/s) = 7.01784 6.92094 6.96956
#
# Compressibility (1/GPa) = 0.02267974
#
# Stress axis : x y z
#
# Youngs Moduli (GPa) = 27.02880 21.14405 27.67704
#
# Poissons Ratio (x) = 0.39733 0.59899
# Poissons Ratio (y) = 0.50791 0.23354
# Poissons Ratio (z) = 0.58496 0.17842
#
# Static dielectric constant tensor:
#      x y z
#    x 1.456000 0.000000 0.000000 
#    y 0.000000 1.425390 0.000000 
#    z 0.000000 0.000000 1.444490 
# 
# From -- ./inp_files/16672.got.cif
#   From: 2010.05.17/outbox.cif.g08.bks.cpg/sg65_9_cif.got.tgz:16672.got - 2010.06.03 17:01:31.
