data_PCOD9486967
_publ_section_title
;
Structure prediction by ZEFSAII (Michael W. Deem and Ramdas Pophale) SiO2 
 PCOD9486967
Probable space group: C M M M
;
_chemical_formula_sum "Si O2"
_cell_formula_units_Z 104
_cell_length_a 30.557997
_cell_length_b 7.482236
_cell_length_c 20.765032
_cell_angle_alpha 90.000000
_cell_angle_beta 90.000000
_cell_angle_gamma 90.000000
_cell_volume 4747.761462
_symmetry_space_group_name_H-M "C M M M"
_symmetry_group_IT_number 65
_symmetry_cell_setting 'orthorhombic'
loop_
_space_group_symop_operation_xyz
x,y,z
-x,-y,z
x,-y,-z
-x,y,-z
-x,-y,-z
x,y,-z
-x,y,z
x,-y,z
1/2+x,1/2+y,z
1/2-x,1/2-y,z
1/2+x,1/2-y,-z
1/2-x,1/2+y,-z
1/2-x,1/2-y,-z
1/2+x,1/2+y,-z
1/2-x,1/2+y,z
1/2+x,1/2-y,z
loop_
_atom_site_type_symbol
_atom_site_label
_atom_site_fract_x
_atom_site_fract_y
_atom_site_fract_z
Si Si1 0.200347 0.214090 0.335209
Si Si2 0.548937 0.282443 0.262448
Si Si3 0.548329 0.282160 0.886502
Si Si4 0.858180 0.218616 0.069812
Si Si5 0.390894 0.286308 0.376527
Si Si6 0.800154 0.786389 0.811582
Si Si7 0.950449 0.289220 0.500000
O O1 0.250000 0.250000 0.356616
O O2 0.159320 0.278726 0.377560
O O3 0.194204 0.282121 0.261547
O O4 0.197854 0.000000 0.332101
O O5 0.500000 0.230393 0.283649
O O6 0.550295 0.500000 0.262272
O O7 0.554500 0.229113 0.188338
O O8 0.584917 0.217752 0.312356
O O9 0.500000 0.223032 0.907930
O O10 0.547667 0.500000 0.888145
O O11 0.591214 0.225996 0.924273
O O12 0.831815 0.281580 0.132409
O O13 0.857262 0.000000 0.071328
O O14 0.840365 0.273487 0.000000
O O15 0.388640 0.500000 0.370221
O O16 0.421655 0.254885 0.437470
O O17 0.750000 0.750000 0.829669
O O18 0.806982 0.000000 0.808173
O O19 0.955375 0.500000 0.500000
O O20 0.000000 0.211426 0.500000
#
# Coordination Sequence:
#
# PCOD9486967 Si02
#       7
#    16  16  16  16  16  16   8
#     4   9  18  32  52  77 101 126 161 206 252 294
#     4   8  13  22  40  66  90 112 146 197 248 284
#     4   8  13  21  34  56  87 118 149 191 243 292
#     4   9  16  24  35  54  84 124 163 195 233 284
#     4  10  19  33  55  78  98 127 169 208 239 280
#     4   9  17  30  47  68  96 126 157 198 245 288
#     4  11  25  41  54  75 110 143 164 187 230 285
#
# _framework density 21.905061
#
# number of rings (size 3 to 8) (size 9 to 14) (size 15 to 20)
#    0.000    3.000    0.000    2.538    0.000    6.154 
#    0.000    1.923    0.000    0.000    0.000    0.000 
#    0.000    0.615    0.000    1.385    0.000    1.538 
#
# Total GULP energy -290091.246178 kJ/mol
# GULP energy per Si atom -5578.677811 kJ/mol
# Density = 2.185520 g / cm^3
# Si number density = 21.905061 Si / 1000 Ang^3
#
#
#
# Elastic Constant Matrix: (Units=GPa)
#
#
# Indices 1 2 3 4 5 6 
#
# 1 172.7630 5.1138 71.5360 0.0000 0.0000 0.0000
# 2 5.1138 61.2242 -0.0072 0.0000 0.0000 0.0000
# 3 71.5360 -0.0072 57.0369 0.0000 0.0000 0.0000
# 4 0.0000 0.0000 0.0000 -31.9794 0.0000 0.0000
# 5 0.0000 0.0000 0.0000 0.0000 21.1581 0.0000
# 6 0.0000 0.0000 0.0000 0.0000 0.0000 7.1746
#
#
#
# Elastic Compliance Matrix: (Units=1/GPa)
#
#
# Indices 1 2 3 4 5 6 
#
# 1 0.012105 -0.001013 -0.015182 0.000000 0.000000 0.000000
# 2 -0.001013 0.016418 0.001272 0.000000 0.000000 0.000000
# 3 -0.015182 0.001272 0.036574 0.000000 0.000000 0.000000
# 4 0.000000 0.000000 0.000000 -0.031270 0.000000 0.000000
# 5 0.000000 0.000000 0.000000 0.000000 0.047263 0.000000
# 6 0.000000 0.000000 0.000000 0.000000 0.000000 0.139380
#
#
# Mechanical properties :
#
#
# Convention : Reuss Voigt Hill
#
# Bulk Modulus (GPa) = 28.36719 49.36771 38.86745
# Shear Modulus (GPa) = 19.07927 13.56278 16.32102
#
# Velocity S-wave (km/s) = 2.95447 2.49100 2.73258
# Velocity P-wave (km/s) = 4.96152 5.55513 5.26670
#
# Compressibility (1/GPa) = 0.03525200
#
# Stress axis : x y z
#
# Youngs Moduli (GPa) = 82.61347 60.90818 27.34206
#
# Poissons Ratio (x) = 0.06169 0.41510
# Poissons Ratio (y) = 0.08367 -0.03479
# Poissons Ratio (z) = 1.25422 -0.07750
#
# Static dielectric constant tensor:
#      x y z
#    x 1.815650 0.000000 0.000000 
#    y 0.000000 1.865180 0.000000 
#    z 0.000000 0.000000 1.802220 
# 
# From -- ./inp_files/66414.got.cif
#   From: 2010.05.17/outbox.cif.g08.bks.cpg/sg65_34_cif.got.tgz:66414.got - 2010.06.03 17:01:31.
