data_PCOD9486843
_publ_section_title
;
Structure prediction by ZEFSAII (Michael W. Deem and Ramdas Pophale) SiO2 
 PCOD9486843
Probable space group: C M M M
;
_chemical_formula_sum "Si O2"
_cell_formula_units_Z 112
_cell_length_a 28.671408
_cell_length_b 14.100871
_cell_length_c 14.715429
_cell_angle_alpha 90.000000
_cell_angle_beta 90.000000
_cell_angle_gamma 90.000000
_cell_volume 5949.327655
_symmetry_space_group_name_H-M "C M M M"
_symmetry_group_IT_number 65
_symmetry_cell_setting 'orthorhombic'
loop_
_space_group_symop_operation_xyz
x,y,z
-x,-y,z
x,-y,-z
-x,y,-z
-x,-y,-z
x,y,-z
-x,y,z
x,-y,z
1/2+x,1/2+y,z
1/2-x,1/2-y,z
1/2+x,1/2-y,-z
1/2-x,1/2+y,-z
1/2-x,1/2-y,-z
1/2+x,1/2+y,-z
1/2-x,1/2+y,z
1/2+x,1/2-y,z
loop_
_atom_site_type_symbol
_atom_site_label
_atom_site_fract_x
_atom_site_fract_y
_atom_site_fract_z
Si Si1 0.948328 0.386218 0.605209
Si Si2 0.553966 0.385271 0.600629
Si Si3 0.200683 0.786239 0.398456
Si Si4 0.633074 0.387376 0.265031
Si Si5 0.651458 0.892117 0.337887
Si Si6 0.287534 0.891157 0.847443
Si Si7 0.687025 0.683092 0.103721
O O1 0.939975 0.355655 0.500000
O O2 0.951262 0.500000 0.601771
O O3 0.903696 0.368871 0.668932
O O4 0.000000 0.352025 0.633076
O O5 0.571334 0.356675 0.500000
O O6 0.500000 0.358310 0.609001
O O7 0.555225 0.500000 0.601388
O O8 0.586869 0.353736 0.681980
O O9 0.207316 0.824788 0.500000
O O10 0.250000 0.750000 0.361315
O O11 0.174931 0.858602 0.332944
O O12 0.170838 0.690365 0.400562
O O13 0.631243 0.500000 0.253880
O O14 0.643865 0.340427 0.168690
O O15 0.683266 0.888503 0.247079
O O16 0.655263 0.000000 0.373374
O O17 0.305942 0.796873 0.897863
O O18 0.232040 0.867884 0.849373
O O19 0.293340 0.000000 0.881925
O O20 0.683387 0.649312 0.000000
#
# Coordination Sequence:
#
# PCOD9486843 Si02
#       7
#    16  16  16  16  16  16  16
#     4   8  14  26  46  74 107 142 182 226 269 316
#     4   8  15  31  57  86 112 142 186 237 285 335
#     4  11  23  36  50  73 109 149 189 230 270 323
#     4  11  22  37  57  80 111 149 187 233 288 340
#     4  10  19  33  54  76 105 146 186 225 276 333
#     4  10  20  36  58  82 111 146 183 232 286 336
#     4  11  23  38  58  85 114 144 185 236 288 344
#
# _framework density 18.825657
#
# number of rings (size 3 to 8) (size 9 to 14) (size 15 to 20)
#    0.000    2.143    1.429    3.857    0.000    5.429 
#    0.000    2.143    0.000    3.000    0.000    2.000 
#    0.000    1.714    0.000   23.571    0.000    0.000 
#
# Total GULP energy -312022.793687 kJ/mol
# GULP energy per Si atom -5571.835602 kJ/mol
# Density = 1.878281 g / cm^3
# Si number density = 18.825657 Si / 1000 Ang^3
#
#
#
# Elastic Constant Matrix: (Units=GPa)
#
#
# Indices 1 2 3 4 5 6 
#
# 1 110.3500 10.9592 57.8517 0.0000 0.0000 0.0000
# 2 10.9592 105.1008 13.7655 0.0000 0.0000 0.0000
# 3 57.8517 13.7655 102.0963 0.0000 0.0000 0.0000
# 4 0.0000 0.0000 0.0000 8.5535 0.0000 0.0000
# 5 0.0000 0.0000 0.0000 0.0000 34.2197 0.0000
# 6 0.0000 0.0000 0.0000 0.0000 0.0000 -35.5000
#
#
#
# Elastic Compliance Matrix: (Units=1/GPa)
#
#
# Indices 1 2 3 4 5 6 
#
# 1 0.012908 -0.000395 -0.007261 0.000000 0.000000 0.000000
# 2 -0.000395 0.009698 -0.001084 0.000000 0.000000 0.000000
# 3 -0.007261 -0.001084 0.014055 0.000000 0.000000 0.000000
# 4 0.000000 0.000000 0.000000 0.116912 0.000000 0.000000
# 5 0.000000 0.000000 0.000000 0.000000 0.029223 0.000000
# 6 0.000000 0.000000 0.000000 0.000000 0.000000 -0.028169
#
#
# Mechanical properties :
#
#
# Convention : Reuss Voigt Hill
#
# Bulk Modulus (GPa) = 52.13319 53.63332 52.88325
# Shear Modulus (GPa) = 28.01134 17.11936 22.56535
#
# Velocity S-wave (km/s) = 3.86156 3.01884 3.46591
# Velocity P-wave (km/s) = 6.90181 6.37985 6.64595
#
# Compressibility (1/GPa) = 0.01918164
#
# Stress axis : x y z
#
# Youngs Moduli (GPa) = 77.47232 103.11617 71.14881
#
# Poissons Ratio (x) = 0.04073 0.51660
# Poissons Ratio (y) = 0.03060 0.07711
# Poissons Ratio (z) = 0.56251 0.11175
#
# Static dielectric constant tensor:
#      x y z
#    x 1.705690 0.000000 0.000000 
#    y 0.000000 1.694510 0.000000 
#    z 0.000000 0.000000 1.647050 
# 
# From -- ./inp_files/47069.got.cif
#   From: 2010.05.17/outbox.cif.g08.bks.cpg/sg65_24_cif.got.tgz:47069.got - 2010.06.03 17:01:31.
