data_PCOD9486282
_publ_section_title
;
Structure prediction by ZEFSAII (Michael W. Deem and Ramdas Pophale) SiO2 
 PCOD9486282
Probable space group: C M M M
;
_chemical_formula_sum "Si O2"
_cell_formula_units_Z 72
_cell_length_a 28.252633
_cell_length_b 7.511169
_cell_length_c 16.067870
_cell_angle_alpha 90.000000
_cell_angle_beta 90.000000
_cell_angle_gamma 90.000000
_cell_volume 3409.767532
_symmetry_space_group_name_H-M "C M M M"
_symmetry_group_IT_number 65
_symmetry_cell_setting 'orthorhombic'
loop_
_space_group_symop_operation_xyz
x,y,z
-x,-y,z
x,-y,-z
-x,y,-z
-x,-y,-z
x,y,-z
-x,y,z
x,-y,z
1/2+x,1/2+y,z
1/2-x,1/2-y,z
1/2+x,1/2-y,-z
1/2-x,1/2+y,-z
1/2-x,1/2-y,-z
1/2+x,1/2+y,-z
1/2-x,1/2+y,z
1/2+x,1/2-y,z
loop_
_atom_site_type_symbol
_atom_site_label
_atom_site_fract_x
_atom_site_fract_y
_atom_site_fract_z
Si Si1 0.942615 0.500000 0.094383
Si Si2 0.694008 0.285444 0.500000
Si Si3 0.136665 0.796522 0.342169
Si Si4 0.444096 0.712283 0.770293
Si Si5 0.805960 0.287386 0.819835
Si Si6 0.306334 0.213078 0.000000
O O1 0.929695 0.672214 0.149218
O O2 0.000000 0.500000 0.088885
O O3 0.923981 0.500000 0.000000
O O4 0.691502 0.500000 0.500000
O O5 0.750000 0.250000 0.500000
O O6 0.666533 0.217124 0.418053
O O7 0.087008 0.723258 0.308038
O O8 0.168781 0.793569 0.259581
O O9 0.126563 0.000000 0.366525
O O10 0.500000 0.739077 0.756924
O O11 0.436248 0.500000 0.782630
O O12 0.813127 0.500000 0.816437
O O13 0.750000 0.250000 0.814939
O O14 0.823475 0.220479 0.910329
O O15 0.250000 0.250000 0.000000
O O16 0.311995 0.000000 0.000000
#
# Coordination Sequence:
#
# PCOD9486282 Si02
#       6
#     8   8  16  16  16   8
#     4   9  18  34  58  87 119 159 203 248 296 345
#     4  10  22  40  59  83 114 144 185 238 294 359
#     4  10  21  37  56  80 108 143 186 234 289 350
#     4   9  19  37  59  84 118 157 197 245 298 349
#     4  10  19  32  51  74 104 140 178 222 273 333
#     4   8  16  30  46  68  97 134 173 213 261 318
#
# _framework density 21.11581
#
# number of rings (size 3 to 8) (size 9 to 14) (size 15 to 20)
#    0.000    2.556    0.000    1.333    1.556    4.000 
#    2.000    2.778    0.000    3.333    0.000    2.333 
#    0.000    0.000    0.000    0.000    0.000    0.000 
#
# Total GULP energy -200841.578975 kJ/mol
# GULP energy per Si atom -5578.932749 kJ/mol
# Density = 2.106775 g / cm^3
# Si number density = 21.115810 Si / 1000 Ang^3
#
#
#
# Elastic Constant Matrix: (Units=GPa)
#
#
# Indices 1 2 3 4 5 6 
#
# 1 118.5955 21.7655 77.2967 0.0000 0.0000 0.0000
# 2 21.7655 79.7036 27.0292 0.0000 0.0000 0.0000
# 3 77.2967 27.0292 186.5578 0.0000 0.0000 0.0000
# 4 0.0000 0.0000 0.0000 14.3716 0.0000 0.0000
# 5 0.0000 0.0000 0.0000 0.0000 24.1124 0.0000
# 6 0.0000 0.0000 0.0000 0.0000 0.0000 16.8728
#
#
#
# Elastic Compliance Matrix: (Units=1/GPa)
#
#
# Indices 1 2 3 4 5 6 
#
# 1 0.011751 -0.001638 -0.004632 0.000000 0.000000 0.000000
# 2 -0.001638 0.013423 -0.001266 0.000000 0.000000 0.000000
# 3 -0.004632 -0.001266 0.007463 0.000000 0.000000 0.000000
# 4 0.000000 0.000000 0.000000 0.069582 0.000000 0.000000
# 5 0.000000 0.000000 0.000000 0.000000 0.041472 0.000000
# 6 0.000000 0.000000 0.000000 0.000000 0.000000 0.059267
#
#
# Mechanical properties :
#
#
# Convention : Reuss Voigt Hill
#
# Bulk Modulus (GPa) = 56.93011 70.78220 63.85615
# Shear Modulus (GPa) = 22.33283 28.32239 25.32761
#
# Velocity S-wave (km/s) = 3.25566 3.66633 3.46708
# Velocity P-wave (km/s) = 6.41497 7.17749 6.80692
#
# Compressibility (1/GPa) = 0.01756540
#
# Stress axis : x y z
#
# Youngs Moduli (GPa) = 85.09593 74.49780 133.99961
#
# Poissons Ratio (x) = 0.12206 0.62063
# Poissons Ratio (y) = 0.13942 0.16964
# Poissons Ratio (z) = 0.39413 0.09431
#
# Static dielectric constant tensor:
#      x y z
#    x 1.777080 0.000000 0.000000 
#    y 0.000000 1.724690 0.000000 
#    z 0.000000 0.000000 1.772370 
# 
# From -- ./inp_files/47498.got.cif
#   From: 2010.05.17/outbox.cif.g08.bks.cpg/sg65_24_cif.got.tgz:47498.got - 2010.06.03 17:01:31.
