data_PCOD9486723
_publ_section_title
;
Structure prediction by ZEFSAII (Michael W. Deem and Ramdas Pophale) SiO2 
 PCOD9486723
Probable space group: C M M M
;
_chemical_formula_sum "Si O2"
_cell_formula_units_Z 88
_cell_length_a 7.462489
_cell_length_b 31.945104
_cell_length_c 17.726283
_cell_angle_alpha 90.000000
_cell_angle_beta 90.000000
_cell_angle_gamma 90.000000
_cell_volume 4225.768378
_symmetry_space_group_name_H-M "C M M M"
_symmetry_group_IT_number 65
_symmetry_cell_setting 'orthorhombic'
loop_
_space_group_symop_operation_xyz
x,y,z
-x,-y,z
x,-y,-z
-x,y,-z
-x,-y,-z
x,y,-z
-x,y,z
x,-y,z
1/2+x,1/2+y,z
1/2-x,1/2-y,z
1/2+x,1/2-y,-z
1/2-x,1/2+y,-z
1/2-x,1/2-y,-z
1/2+x,1/2+y,-z
1/2-x,1/2+y,z
1/2+x,1/2-y,z
loop_
_atom_site_type_symbol
_atom_site_label
_atom_site_fract_x
_atom_site_fract_y
_atom_site_fract_z
Si Si1 0.288849 0.628561 0.264139
Si Si2 0.203271 0.000000 0.591630
Si Si3 0.788778 0.572520 0.000000
Si Si4 0.283231 0.953448 0.834481
Si Si5 0.720388 0.408686 0.586097
Si Si6 0.783499 0.171543 0.000000
Si Si7 0.285421 0.297395 0.160408
O O1 0.500000 0.636575 0.272703
O O2 0.271652 0.585250 0.217834
O O3 0.218563 0.622260 0.348646
O O4 0.213295 0.666943 0.216116
O O5 0.284395 0.044763 0.610029
O O6 0.193723 0.000000 0.500000
O O7 0.000000 0.000000 0.621294
O O8 0.718786 0.554828 0.079458
O O9 0.765551 0.622598 0.000000
O O10 0.000000 0.562629 0.000000
O O11 0.500000 0.953057 0.835522
O O12 0.226053 0.000000 0.809431
O O13 0.774505 0.399941 0.500000
O O14 0.500000 0.410342 0.585546
O O15 0.717147 0.193532 0.924026
O O16 0.000000 0.173442 0.000000
O O17 0.500000 0.302619 0.157082
O O18 0.250000 0.250000 0.183697
#
# Coordination Sequence:
#
# PCOD9486723 Si02
#       7
#    16   8   8  16  16   8  16
#     4  10  20  33  52  78 103 128 165 213 259 297
#     4   7  10  18  34  60  93 124 153 186 226 275
#     4  10  19  33  53  71  95 137 180 206 236 289
#     4  10  21  35  50  71 102 140 177 208 240 288
#     4   8  14  25  43  70 102 131 161 200 245 293
#     4  10  19  34  52  74 104 127 154 208 260 299
#     4  10  21  35  52  74 100 129 163 205 254 306
#
# _framework density 20.824615999999999
#
# number of rings (size 3 to 8) (size 9 to 14) (size 15 to 20)
#    0.000    2.636    1.818    1.636    1.273    2.909 
#    0.000    0.000    0.000    2.727    0.000    1.273 
#    0.000    0.000    0.000    0.000    0.000    0.000 
#
# Total GULP energy -245592.988814 kJ/mol
# GULP energy per Si atom -5581.658837 kJ/mol
# Density = 2.077722 g / cm^3
# Si number density = 20.824616 Si / 1000 Ang^3
#
#
#
# Elastic Constant Matrix: (Units=GPa)
#
#
# Indices 1 2 3 4 5 6 
#
# 1 62.2871 -7.2982 5.2421 0.0000 0.0000 0.0000
# 2 -7.2982 148.6478 82.3694 0.0000 0.0000 0.0000
# 3 5.2421 82.3694 155.5565 0.0000 0.0000 0.0000
# 4 0.0000 0.0000 0.0000 -1.1854 0.0000 0.0000
# 5 0.0000 0.0000 0.0000 0.0000 -18.3116 0.0000
# 6 0.0000 0.0000 0.0000 0.0000 0.0000 15.4104
#
#
#
# Elastic Compliance Matrix: (Units=1/GPa)
#
#
# Indices 1 2 3 4 5 6 
#
# 1 0.016355 0.001569 -0.001382 0.000000 0.000000 0.000000
# 2 0.001569 0.009671 -0.005174 0.000000 0.000000 0.000000
# 3 -0.001382 -0.005174 0.009215 0.000000 0.000000 0.000000
# 4 0.000000 0.000000 0.000000 -0.843573 0.000000 0.000000
# 5 0.000000 0.000000 0.000000 0.000000 -0.054610 0.000000
# 6 0.000000 0.000000 0.000000 0.000000 0.000000 0.064891
#
#
# Mechanical properties :
#
#
# Convention : Reuss Voigt Hill
#
# Bulk Modulus (GPa) = 39.57775 58.56867 49.07321
# Shear Modulus (GPa) = -6.41310 18.26122 5.92406
#
# Velocity S-wave (km/s) = -1.75678 2.96447 1.68847
# Velocity P-wave (km/s) = 3.86413 6.31690 5.23616
#
# Compressibility (1/GPa) = 0.02526672
#
# Stress axis : x y z
#
# Youngs Moduli (GPa) = 61.14424 103.39804 108.52113
#
# Poissons Ratio (x) = -0.16219 0.14995
# Poissons Ratio (y) = -0.09591 0.56149
# Poissons Ratio (z) = 0.08449 0.53498
#
# Static dielectric constant tensor:
#      x y z
#    x 1.796890 0.000000 0.000000 
#    y 0.000000 1.729450 0.000000 
#    z 0.000000 0.000000 1.760350 
# 
# From -- ./inp_files/50512.got.cif
#   From: 2010.05.17/outbox.cif.g08.bks.cpg/sg65_26_cif.got.tgz:50512.got - 2010.06.03 17:01:31.
