data_PCOD9486653
_publ_section_title
;
Structure prediction by ZEFSAII (Michael W. Deem and Ramdas Pophale) SiO2 
 PCOD9486653
Probable space group: C M M M
;
_chemical_formula_sum "Si O2"
_cell_formula_units_Z 88
_cell_length_a 20.228162
_cell_length_b 8.230776
_cell_length_c 30.634848
_cell_angle_alpha 90.000000
_cell_angle_beta 90.000000
_cell_angle_gamma 90.000000
_cell_volume 5100.502156
_symmetry_space_group_name_H-M "C M M M"
_symmetry_group_IT_number 65
_symmetry_cell_setting 'orthorhombic'
loop_
_space_group_symop_operation_xyz
x,y,z
-x,-y,z
x,-y,-z
-x,y,-z
-x,-y,-z
x,y,-z
-x,y,z
x,-y,z
1/2+x,1/2+y,z
1/2-x,1/2-y,z
1/2+x,1/2-y,-z
1/2-x,1/2+y,-z
1/2-x,1/2-y,-z
1/2+x,1/2+y,-z
1/2-x,1/2+y,z
1/2+x,1/2-y,z
loop_
_atom_site_type_symbol
_atom_site_label
_atom_site_fract_x
_atom_site_fract_y
_atom_site_fract_z
Si Si1 0.924631 0.697491 0.705835
Si Si2 0.924132 0.303767 0.049495
Si Si3 0.080614 0.000000 0.550557
Si Si4 0.675378 0.691910 0.876137
Si Si5 0.674872 0.193422 0.779628
Si Si6 0.419588 0.187071 0.393726
O O1 0.926984 0.500000 0.708506
O O2 0.875109 0.758345 0.742948
O O3 0.902283 0.731364 0.656306
O O4 0.000000 0.756247 0.711819
O O5 0.923044 0.500000 0.050058
O O6 0.874068 0.242311 0.085714
O O7 0.000000 0.252776 0.058115
O O8 0.906838 0.251790 0.000000
O O9 0.101994 0.166684 0.574672
O O10 0.100527 0.000000 0.500000
O O11 0.000000 0.000000 0.551940
O O12 0.676980 0.500000 0.872225
O O13 0.750000 0.750000 0.885442
O O14 0.655066 0.760788 0.828884
O O15 0.750000 0.250000 0.772768
O O16 0.674614 0.000000 0.776657
O O17 0.500000 0.182505 0.395014
O O18 0.397877 0.000000 0.403355
#
# Coordination Sequence:
#
# PCOD9486653 Si02
#       6
#    16  16   8  16  16  16
#     4   8  15  29  49  69  90 125 167 200 239 293
#     4   9  19  37  59  80 102 130 164 203 249 299
#     4   9  16  24  36  60  92 126 162 196 242 300
#     4  11  22  36  53  74 102 134 169 205 249 300
#     4  10  19  33  51  71  99 131 162 205 253 297
#     4   8  14  26  41  59  87 122 160 201 244 291
#
# _framework density 17.253202000000002
#
# number of rings (size 3 to 8) (size 9 to 14) (size 15 to 20)
#    0.000    2.818    0.000    4.909    0.000    2.182 
#    3.273    4.545    0.000    0.000    0.000    0.000 
#    0.000    0.727    0.364    0.000    0.000    0.000 
#
# Total GULP energy -245164.830979 kJ/mol
# GULP energy per Si atom -5571.927977 kJ/mol
# Density = 1.721393 g / cm^3
# Si number density = 17.253202 Si / 1000 Ang^3
#
#
#
# Elastic Constant Matrix: (Units=GPa)
#
#
# Indices 1 2 3 4 5 6 
#
# 1 49.3568 28.5664 76.8254 0.0000 0.0000 0.0000
# 2 28.5664 73.7654 58.1277 0.0000 0.0000 0.0000
# 3 76.8254 58.1277 160.6187 0.0000 0.0000 0.0000
# 4 0.0000 0.0000 0.0000 27.8443 0.0000 0.0000
# 5 0.0000 0.0000 0.0000 0.0000 -6.1028 0.0000
# 6 0.0000 0.0000 0.0000 0.0000 0.0000 18.0391
#
#
#
# Elastic Compliance Matrix: (Units=1/GPa)
#
#
# Indices 1 2 3 4 5 6 
#
# 1 0.079368 -0.001149 -0.037547 0.000000 0.000000 0.000000
# 2 -0.001149 0.018982 -0.006320 0.000000 0.000000 0.000000
# 3 -0.037547 -0.006320 0.026472 0.000000 0.000000 0.000000
# 4 0.000000 0.000000 0.000000 0.035914 0.000000 0.000000
# 5 0.000000 0.000000 0.000000 0.000000 -0.163859 0.000000
# 6 0.000000 0.000000 0.000000 0.000000 0.000000 0.055435
#
#
# Mechanical properties :
#
#
# Convention : Reuss Voigt Hill
#
# Bulk Modulus (GPa) = 28.74334 67.86444 48.30389
# Shear Modulus (GPa) = 32.48026 15.97088 24.22557
#
# Velocity S-wave (km/s) = 4.34356 3.04579 3.75122
# Velocity P-wave (km/s) = 6.46925 7.19645 6.84252
#
# Compressibility (1/GPa) = 0.03479067
#
# Stress axis : x y z
#
# Youngs Moduli (GPa) = 12.59948 52.68286 37.77575
#
# Poissons Ratio (x) = 0.06054 1.41836
# Poissons Ratio (y) = 0.01448 0.23873
# Poissons Ratio (z) = 0.47307 0.33294
#
# Static dielectric constant tensor:
#      x y z
#    x 1.569270 0.000000 0.000000 
#    y 0.000000 1.606510 0.000000 
#    z 0.000000 0.000000 1.595620 
# 
# From -- ./inp_files/75328.got.cif
#   From: 2010.05.17/outbox.cif.g08.bks.cpg/sg65_38_cif.got.tgz:75328.got - 2010.06.03 17:01:31.
