data_PCOD9486115
_publ_section_title
;
Structure prediction by ZEFSAII (Michael W. Deem and Ramdas Pophale) SiO2 
 PCOD9486115
Probable space group: C M M M
;
_chemical_formula_sum "Si O2"
_cell_formula_units_Z 96
_cell_length_a 28.068419
_cell_length_b 8.530361
_cell_length_c 24.756681
_cell_angle_alpha 90.000000
_cell_angle_beta 90.000000
_cell_angle_gamma 90.000000
_cell_volume 5927.584889
_symmetry_space_group_name_H-M "C M M M"
_symmetry_group_IT_number 65
_symmetry_cell_setting 'orthorhombic'
loop_
_space_group_symop_operation_xyz
x,y,z
-x,-y,z
x,-y,-z
-x,y,-z
-x,-y,-z
x,y,-z
-x,y,z
x,-y,z
1/2+x,1/2+y,z
1/2-x,1/2-y,z
1/2+x,1/2-y,-z
1/2-x,1/2+y,-z
1/2-x,1/2-y,-z
1/2+x,1/2+y,-z
1/2-x,1/2+y,z
1/2+x,1/2-y,z
loop_
_atom_site_type_symbol
_atom_site_label
_atom_site_fract_x
_atom_site_fract_y
_atom_site_fract_z
Si Si1 0.946098 0.810913 0.281385
Si Si2 0.695867 0.189923 0.117723
Si Si3 0.802919 0.687945 0.336851
Si Si4 0.895017 0.812069 0.607612
Si Si5 0.145384 0.311014 0.773491
Si Si6 0.055222 0.687854 0.500000
Si Si7 0.195785 0.310928 0.000000
O O1 0.927518 0.763977 0.340977
O O2 0.907444 0.747669 0.239486
O O3 0.000000 0.756741 0.272377
O O4 0.945546 0.000000 0.279635
O O5 0.750000 0.250000 0.122343
O O6 0.666078 0.244543 0.169421
O O7 0.676033 0.238895 0.058564
O O8 0.697004 0.000000 0.118938
O O9 0.802783 0.500000 0.338227
O O10 0.750000 0.750000 0.346566
O O11 0.842192 0.750313 0.378888
O O12 0.821476 0.739161 0.277162
O O13 0.917699 0.747440 0.553103
O O14 0.893981 0.000000 0.605426
O O15 0.145189 0.500000 0.773703
O O16 0.055235 0.500000 0.500000
O O17 0.000000 0.742205 0.500000
O O18 0.250000 0.250000 0.000000
O O19 0.196033 0.500000 0.000000
#
# Coordination Sequence:
#
# PCOD9486115 Si02
#       7
#    16  16  16  16  16   8   8
#     4   9  18  32  49  69  92 117 147 185 228 272
#     4   9  16  26  40  61  89 120 153 186 222 264
#     4  10  19  32  49  70  97 127 157 189 227 270
#     4  10  20  35  54  74  96 123 155 188 225 271
#     4   9  18  29  43  66  93 120 152 188 226 271
#     4  11  23  37  54  77 102 125 151 187 229 271
#     4   8  14  24  38  56  83 118 151 185 222 261
#
# _framework density 16.195464999999999
#
# number of rings (size 3 to 8) (size 9 to 14) (size 15 to 20)
#    0.000    2.583    0.000    2.250    0.000    3.667 
#    0.000    0.417    0.000    0.000    0.000    0.583 
#    0.000    4.667    0.000    0.000    0.000    0.000 
#
# Total GULP energy -267551.614636 kJ/mol
# GULP energy per Si atom -5573.991972 kJ/mol
# Density = 1.615860 g / cm^3
# Si number density = 16.195465 Si / 1000 Ang^3
#
#
#
# Elastic Constant Matrix: (Units=GPa)
#
#
# Indices 1 2 3 4 5 6 
#
# 1 142.3468 25.2331 85.1879 0.0000 0.0000 0.0000
# 2 25.2331 19.9564 25.9340 0.0000 0.0000 0.0000
# 3 85.1879 25.9340 154.6076 0.0000 0.0000 0.0000
# 4 0.0000 0.0000 0.0000 13.9092 0.0000 0.0000
# 5 0.0000 0.0000 0.0000 0.0000 20.3806 0.0000
# 6 0.0000 0.0000 0.0000 0.0000 0.0000 25.5443
#
#
#
# Elastic Compliance Matrix: (Units=1/GPa)
#
#
# Indices 1 2 3 4 5 6 
#
# 1 0.011398 -0.007993 -0.004940 0.000000 0.000000 0.000000
# 2 -0.007993 0.069682 -0.007285 0.000000 0.000000 0.000000
# 3 -0.004940 -0.007285 0.010412 0.000000 0.000000 0.000000
# 4 0.000000 0.000000 0.000000 0.071895 0.000000 0.000000
# 5 0.000000 0.000000 0.000000 0.000000 0.049066 0.000000
# 6 0.000000 0.000000 0.000000 0.000000 0.000000 0.039148
#
#
# Mechanical properties :
#
#
# Convention : Reuss Voigt Hill
#
# Bulk Modulus (GPa) = 19.58560 65.51341 42.54950
# Shear Modulus (GPa) = 16.17844 24.00387 20.09115
#
# Velocity S-wave (km/s) = 3.16404 3.85403 3.52595
# Velocity P-wave (km/s) = 5.04656 7.76815 6.55027
#
# Compressibility (1/GPa) = 0.05105791
#
# Stress axis : x y z
#
# Youngs Moduli (GPa) = 87.73479 14.35093 96.04711
#
# Poissons Ratio (x) = 0.11470 0.47443
# Poissons Ratio (y) = 0.70123 0.69966
# Poissons Ratio (z) = 0.43337 0.10454
#
# Static dielectric constant tensor:
#      x y z
#    x 1.511330 0.000000 0.000000 
#    y 0.000000 1.548990 0.000000 
#    z 0.000000 0.000000 1.561720 
# 
# From -- ./inp_files/68112.got.cif
#   From: 2010.05.17/outbox.cif.g08.bks.cpg/sg65_35_cif.got.tgz:68112.got - 2010.06.03 17:01:31.
