data_PCOD9486401
_publ_section_title
;
Structure prediction by ZEFSAII (Michael W. Deem and Ramdas Pophale) SiO2 
 PCOD9486401
Probable space group: C M M M
;
_chemical_formula_sum "Si O2"
_cell_formula_units_Z 80
_cell_length_a 28.426685
_cell_length_b 17.415618
_cell_length_c 7.368140
_cell_angle_alpha 90.000000
_cell_angle_beta 90.000000
_cell_angle_gamma 90.000000
_cell_volume 3647.732448
_symmetry_space_group_name_H-M "C M M M"
_symmetry_group_IT_number 65
_symmetry_cell_setting 'orthorhombic'
loop_
_space_group_symop_operation_xyz
x,y,z
-x,-y,z
x,-y,-z
-x,y,-z
-x,-y,-z
x,y,-z
-x,y,z
x,-y,z
1/2+x,1/2+y,z
1/2-x,1/2-y,z
1/2+x,1/2-y,-z
1/2-x,1/2+y,-z
1/2-x,1/2-y,-z
1/2+x,1/2+y,-z
1/2-x,1/2+y,z
1/2+x,1/2-y,z
loop_
_atom_site_type_symbol
_atom_site_label
_atom_site_fract_x
_atom_site_fract_y
_atom_site_fract_z
Si Si1 0.500000 0.588376 0.721764
Si Si2 0.385804 0.848575 0.285452
Si Si3 0.908276 0.181540 0.278105
Si Si4 0.553314 0.000000 0.784388
Si Si5 0.212168 0.589697 0.278942
Si Si6 0.683527 0.589165 0.720898
O O1 0.500000 0.500000 0.779627
O O2 0.500000 0.587950 0.500000
O O3 0.546617 0.633237 0.780641
O O4 0.379753 0.836929 0.500000
O O5 0.408392 0.769877 0.216786
O O6 0.333428 0.865064 0.212771
O O7 0.417902 0.923656 0.265185
O O8 0.909179 0.180053 0.500000
O O9 0.859789 0.141128 0.220506
O O10 0.500000 0.000000 0.711011
O O11 0.550239 0.000000 0.000000
O O12 0.211838 0.592148 0.500000
O O13 0.206805 0.500000 0.229438
O O14 0.264268 0.615195 0.221451
O O15 0.683493 0.589959 0.500000
O O16 0.677279 0.500000 0.774388
#
# Coordination Sequence:
#
# PCOD9486401 Si02
#       6
#     8  16  16   8  16  16
#     4   9  16  26  38  55  93 140 172 195 231 291
#     4  10  19  32  52  76 102 126 160 209 255 293
#     4   9  17  25  38  66  97 132 170 202 243 292
#     4  11  25  41  55  71  95 131 171 202 245 308
#     4   8  13  23  40  64  94 128 161 195 241 293
#     4   8  13  22  37  60  99 139 165 193 239 296
#
# _framework density 21.931435
#
# number of rings (size 3 to 8) (size 9 to 14) (size 15 to 20)
#    0.000    3.000    1.000    2.100    1.400    4.000 
#    0.000    4.000    0.000    0.000    0.000    2.800 
#    0.000    3.200    0.000    0.000    0.000    0.000 
#
# Total GULP energy -223333.928880 kJ/mol
# GULP energy per Si atom -5583.348222 kJ/mol
# Density = 2.188152 g / cm^3
# Si number density = 21.931435 Si / 1000 Ang^3
#
#
#
# Elastic Constant Matrix: (Units=GPa)
#
#
# Indices 1 2 3 4 5 6 
#
# 1 220.2987 136.2161 1.3852 0.0000 0.0000 0.0000
# 2 136.2161 184.6421 -0.6004 0.0000 0.0000 0.0000
# 3 1.3852 -0.6004 76.6538 0.0000 0.0000 0.0000
# 4 0.0000 0.0000 0.0000 -37.7349 0.0000 0.0000
# 5 0.0000 0.0000 0.0000 0.0000 18.2327 0.0000
# 6 0.0000 0.0000 0.0000 0.0000 0.0000 18.3612
#
#
#
# Elastic Compliance Matrix: (Units=1/GPa)
#
#
# Indices 1 2 3 4 5 6 
#
# 1 0.008350 -0.006160 -0.000199 0.000000 0.000000 0.000000
# 2 -0.006160 0.009961 0.000189 0.000000 0.000000 0.000000
# 3 -0.000199 0.000189 0.013051 0.000000 0.000000 0.000000
# 4 0.000000 0.000000 0.000000 -0.026501 0.000000 0.000000
# 5 0.000000 0.000000 0.000000 0.000000 0.054847 0.000000
# 6 0.000000 0.000000 0.000000 0.000000 0.000000 0.054463
#
#
# Mechanical properties :
#
#
# Convention : Reuss Voigt Hill
#
# Bulk Modulus (GPa) = 52.57297 83.95517 68.26407
# Shear Modulus (GPa) = 37.63605 22.74471 30.19038
#
# Velocity S-wave (km/s) = 4.14705 3.22387 3.71425
# Velocity P-wave (km/s) = 6.85232 7.22645 7.04187
#
# Compressibility (1/GPa) = 0.01902118
#
# Stress axis : x y z
#
# Youngs Moduli (GPa) = 119.76439 100.38868 76.62400
#
# Poissons Ratio (x) = 0.61844 0.01526
# Poissons Ratio (y) = 0.73781 -0.01451
# Poissons Ratio (z) = 0.02385 -0.01901
#
# Static dielectric constant tensor:
#      x y z
#    x 1.776970 0.000000 0.000000 
#    y 0.000000 -5.476120 0.000000 
#    z 0.000000 0.000000 1.837330 
# 
# From -- ./inp_files/16105.got.cif
#   From: 2010.05.17/outbox.cif.g08.bks.cpg/sg65_9_cif.got.tgz:16105.got - 2010.06.03 17:01:31.
