data_PCOD9486507
_publ_section_title
;
Structure prediction by ZEFSAII (Michael W. Deem and Ramdas Pophale) SiO2 
 PCOD9486507
Probable space group: C M M M
;
_chemical_formula_sum "Si O2"
_cell_formula_units_Z 104
_cell_length_a 30.528959
_cell_length_b 7.676038
_cell_length_c 21.014394
_cell_angle_alpha 90.000000
_cell_angle_beta 90.000000
_cell_angle_gamma 90.000000
_cell_volume 4924.543548
_symmetry_space_group_name_H-M "C M M M"
_symmetry_group_IT_number 65
_symmetry_cell_setting 'orthorhombic'
loop_
_space_group_symop_operation_xyz
x,y,z
-x,-y,z
x,-y,-z
-x,y,-z
-x,-y,-z
x,y,-z
-x,y,z
x,-y,z
1/2+x,1/2+y,z
1/2-x,1/2-y,z
1/2+x,1/2-y,-z
1/2-x,1/2+y,-z
1/2-x,1/2-y,-z
1/2+x,1/2+y,-z
1/2-x,1/2+y,z
1/2+x,1/2-y,z
loop_
_atom_site_type_symbol
_atom_site_label
_atom_site_fract_x
_atom_site_fract_y
_atom_site_fract_z
Si Si1 0.597128 0.294216 0.071812
Si Si2 0.047415 0.708051 0.402712
Si Si3 0.862065 0.708017 0.803505
Si Si4 0.500000 0.793018 0.927666
Si Si5 0.952863 0.291048 0.749835
Si Si6 0.355475 0.213271 0.430618
Si Si7 0.801012 0.290644 0.692262
O O1 0.599961 0.500000 0.067033
O O2 0.634340 0.237393 0.121226
O O3 0.548063 0.253641 0.097898
O O4 0.600398 0.219337 0.000000
O O5 0.046859 0.500000 0.416318
O O6 0.048666 0.727308 0.326352
O O7 0.093961 0.773948 0.427037
O O8 0.000000 0.777867 0.424431
O O9 0.862906 0.500000 0.794731
O O10 0.907968 0.781745 0.776879
O O11 0.823253 0.773337 0.758137
O O12 0.500000 0.000000 0.929968
O O13 0.500000 0.718989 0.000000
O O14 0.953374 0.500000 0.762854
O O15 0.000000 0.221002 0.772043
O O16 0.337166 0.261635 0.500000
O O17 0.327935 0.273388 0.369562
O O18 0.356474 0.000000 0.427764
O O19 0.804957 0.500000 0.691343
O O20 0.750000 0.250000 0.688534
#
# Coordination Sequence:
#
# PCOD9486507 Si02
#       7
#    16  16  16   8  16  16  16
#     4  10  21  35  50  74 112 149 178 215 264 314
#     4   8  12  20  36  61  97 136 169 203 249 303
#     4  10  19  32  53  77 100 132 178 224 265 317
#     4   9  17  31  51  75 107 151 196 225 248 291
#     4   8  13  22  39  65  96 127 162 208 255 297
#     4   9  16  27  44  68 102 140 174 212 260 313
#     4  10  21  37  55  77 103 132 172 223 276 325
#
# _framework density 21.118708999999999
#
# number of rings (size 3 to 8) (size 9 to 14) (size 15 to 20)
#    0.000    2.846    1.538    1.615    1.077    3.077 
#    0.000    1.538    0.000    0.462    0.000    0.000 
#    0.000    0.000    0.000    1.385    0.000    1.538 
#
# Total GULP energy -289912.017310 kJ/mol
# GULP energy per Si atom -5575.231102 kJ/mol
# Density = 2.107064 g / cm^3
# Si number density = 21.118709 Si / 1000 Ang^3
#
#
#
# Elastic Constant Matrix: (Units=GPa)
#
#
# Indices 1 2 3 4 5 6 
#
# 1 140.5443 7.8810 87.6356 0.0000 0.0000 0.0000
# 2 7.8810 39.6091 7.3335 0.0000 0.0000 0.0000
# 3 87.6356 7.3335 134.5775 0.0000 0.0000 0.0000
# 4 0.0000 0.0000 0.0000 -12.5958 0.0000 0.0000
# 5 0.0000 0.0000 0.0000 0.0000 -36.8656 0.0000
# 6 0.0000 0.0000 0.0000 0.0000 0.0000 16.0491
#
#
#
# Elastic Compliance Matrix: (Units=1/GPa)
#
#
# Indices 1 2 3 4 5 6 
#
# 1 0.012015 -0.000952 -0.007772 0.000000 0.000000 0.000000
# 2 -0.000952 0.025579 -0.000774 0.000000 0.000000 0.000000
# 3 -0.007772 -0.000774 0.012534 0.000000 0.000000 0.000000
# 4 0.000000 0.000000 0.000000 -0.079392 0.000000 0.000000
# 5 0.000000 0.000000 0.000000 0.000000 -0.027126 0.000000
# 6 0.000000 0.000000 0.000000 0.000000 0.000000 0.062309
#
#
# Mechanical properties :
#
#
# Convention : Reuss Voigt Hill
#
# Bulk Modulus (GPa) = 32.12094 57.82569 44.97331
# Shear Modulus (GPa) = 141.67170 7.44293 74.55731
#
# Velocity S-wave (km/s) = 8.19934 1.87936 5.94816
# Velocity P-wave (km/s) = 10.24117 5.67010 8.27743
#
# Compressibility (1/GPa) = 0.03113234
#
# Stress axis : x y z
#
# Youngs Moduli (GPa) = 83.23091 39.09399 79.78340
#
# Poissons Ratio (x) = 0.03720 0.62008
# Poissons Ratio (y) = 0.07920 0.06177
# Poissons Ratio (z) = 0.64687 0.03027
#
# Static dielectric constant tensor:
#      x y z
#    x 1.767140 0.000000 0.000000 
#    y 0.000000 1.806090 0.000000 
#    z 0.000000 0.000000 1.838450 
# 
# From -- ./inp_files/66345.got.cif
#   From: 2010.05.17/outbox.cif.g08.bks.cpg/sg65_34_cif.got.tgz:66345.got - 2010.06.03 17:01:31.
