data_PCOD9486523
_publ_section_title
;
Structure prediction by ZEFSAII (Michael W. Deem and Ramdas Pophale) SiO2 
 PCOD9486523
Probable space group: C M M M
;
_chemical_formula_sum "Si O2"
_cell_formula_units_Z 80
_cell_length_a 8.718061
_cell_length_b 17.985249
_cell_length_c 27.430122
_cell_angle_alpha 90.000000
_cell_angle_beta 90.000000
_cell_angle_gamma 90.000000
_cell_volume 4300.947066
_symmetry_space_group_name_H-M "C M M M"
_symmetry_group_IT_number 65
_symmetry_cell_setting 'orthorhombic'
loop_
_space_group_symop_operation_xyz
x,y,z
-x,-y,z
x,-y,-z
-x,y,-z
-x,-y,-z
x,y,-z
-x,y,z
x,-y,z
1/2+x,1/2+y,z
1/2-x,1/2-y,z
1/2+x,1/2-y,-z
1/2-x,1/2+y,-z
1/2-x,1/2-y,-z
1/2+x,1/2+y,-z
1/2-x,1/2+y,z
1/2+x,1/2-y,z
loop_
_atom_site_type_symbol
_atom_site_label
_atom_site_fract_x
_atom_site_fract_y
_atom_site_fract_z
Si Si1 0.817792 0.333317 0.347084
Si Si2 0.321323 0.411321 0.746583
Si Si3 0.315366 0.166204 0.840979
Si Si4 0.685062 0.833910 0.947643
Si Si5 0.183862 0.834072 0.553243
O O1 0.750000 0.250000 0.342664
O O2 0.765668 0.378212 0.299883
O O3 0.752976 0.367706 0.397527
O O4 0.000000 0.328578 0.350104
O O5 0.500000 0.389319 0.743470
O O6 0.310878 0.500000 0.746234
O O7 0.251239 0.379868 0.796377
O O8 0.500000 0.168675 0.837822
O O9 0.250000 0.250000 0.837915
O O10 0.270909 0.134473 0.894700
O O11 0.500000 0.830521 0.947661
O O12 0.750000 0.750000 0.947774
O O13 0.732403 0.868349 0.000000
O O14 0.221738 0.867693 0.500000
O O15 0.250000 0.750000 0.552200
O O16 0.000000 0.830893 0.557461
#
# Coordination Sequence:
#
# PCOD9486523 Si02
#       5
#    16  16  16  16  16
#     4  11  21  34  55  80 107 136 170 211 252 300
#     4  11  24  40  55  71  97 133 172 215 262 309
#     4  10  19  32  53  79 106 134 168 209 250 299
#     4   8  14  25  43  70 102 132 161 197 243 292
#     4   9  16  27  46  74 107 138 168 204 247 294
#
# _framework density 18.600553999999999
#
# number of rings (size 3 to 8) (size 9 to 14) (size 15 to 20)
#    0.000    2.200    0.000    5.400    0.000    3.600 
#    0.000    0.000    0.000    1.200    0.000    8.400 
#    0.000    0.000    0.000    0.000    0.000    0.000 
#
# Total GULP energy -222953.328973 kJ/mol
# GULP energy per Si atom -5573.833224 kJ/mol
# Density = 1.855822 g / cm^3
# Si number density = 18.600554 Si / 1000 Ang^3
#
#
#
# Elastic Constant Matrix: (Units=GPa)
#
#
# Indices 1 2 3 4 5 6 
#
# 1 103.6517 21.2963 68.7550 0.0000 0.0000 0.0000
# 2 21.2963 15.9620 33.3168 0.0000 0.0000 0.0000
# 3 68.7550 33.3168 224.1523 0.0000 0.0000 0.0000
# 4 0.0000 0.0000 0.0000 -8.2481 0.0000 0.0000
# 5 0.0000 0.0000 0.0000 0.0000 31.2021 0.0000
# 6 0.0000 0.0000 0.0000 0.0000 0.0000 16.5853
#
#
#
# Elastic Compliance Matrix: (Units=1/GPa)
#
#
# Indices 1 2 3 4 5 6 
#
# 1 0.014002 -0.014087 -0.002201 0.000000 0.000000 0.000000
# 2 -0.014087 0.105000 -0.011286 0.000000 0.000000 0.000000
# 3 -0.002201 -0.011286 0.006814 0.000000 0.000000 0.000000
# 4 0.000000 0.000000 0.000000 -0.121240 0.000000 0.000000
# 5 0.000000 0.000000 0.000000 0.000000 0.032049 0.000000
# 6 0.000000 0.000000 0.000000 0.000000 0.000000 0.060294
#
#
# Mechanical properties :
#
#
# Convention : Reuss Voigt Hill
#
# Bulk Modulus (GPa) = 14.15068 65.61134 39.88101
# Shear Modulus (GPa) = 28.47005 22.60104 25.53555
#
# Velocity S-wave (km/s) = 3.91654 3.48957 3.70920
# Velocity P-wave (km/s) = 5.29873 7.18238 6.31122
#
# Compressibility (1/GPa) = 0.07066799
#
# Stress axis : x y z
#
# Youngs Moduli (GPa) = 71.41802 9.52383 146.76040
#
# Poissons Ratio (x) = 0.13416 0.32303
# Poissons Ratio (y) = 1.00608 1.65628
# Poissons Ratio (z) = 0.15720 0.10748
#
# Static dielectric constant tensor:
#      x y z
#    x 1.627520 0.000000 0.000000 
#    y 0.000000 1.593240 0.000000 
#    z 0.000000 0.000000 1.714140 
# 
# From -- ./inp_files/72813.got.cif
#   From: 2010.05.17/outbox.cif.g08.bks.cpg/sg65_37_cif.got.tgz:72813.got - 2010.06.03 17:01:31.
