data_PCOD9486218
_publ_section_title
;
Structure prediction by ZEFSAII (Michael W. Deem and Ramdas Pophale) SiO2 
 PCOD9486218
Probable space group: C M M M
;
_chemical_formula_sum "Si O2"
_cell_formula_units_Z 60
_cell_length_a 32.730458
_cell_length_b 10.031315
_cell_length_c 8.500817
_cell_angle_alpha 90.000000
_cell_angle_beta 90.000000
_cell_angle_gamma 90.000000
_cell_volume 2791.069287
_symmetry_space_group_name_H-M "C M M M"
_symmetry_group_IT_number 65
_symmetry_cell_setting 'orthorhombic'
loop_
_space_group_symop_operation_xyz
x,y,z
-x,-y,z
x,-y,-z
-x,y,-z
-x,-y,-z
x,y,-z
-x,y,z
x,-y,z
1/2+x,1/2+y,z
1/2-x,1/2-y,z
1/2+x,1/2-y,-z
1/2-x,1/2+y,-z
1/2-x,1/2-y,-z
1/2+x,1/2+y,-z
1/2-x,1/2+y,z
1/2+x,1/2-y,z
loop_
_atom_site_type_symbol
_atom_site_label
_atom_site_fract_x
_atom_site_fract_y
_atom_site_fract_z
Si Si1 0.149570 0.000000 0.000000
Si Si2 0.586121 0.839037 0.821706
Si Si3 0.651161 0.500000 0.333045
Si Si4 0.500000 0.837217 0.317362
Si Si5 0.670793 0.208500 0.327208
Si Si6 0.702209 0.226370 0.000000
O O1 0.126979 0.000000 0.167998
O O2 0.177745 0.132480 0.000000
O O3 0.541595 0.792938 0.766787
O O4 0.622111 0.801900 0.702577
O O5 0.585256 0.000000 0.825087
O O6 0.595520 0.793484 0.000000
O O7 0.628063 0.500000 0.500000
O O8 0.678453 0.367316 0.332170
O O9 0.500000 0.799077 0.500000
O O10 0.500000 0.000000 0.311829
O O11 0.681494 0.154192 0.500000
O O12 0.690150 0.156729 0.165076
O O13 0.750000 0.250000 0.000000
#
# Coordination Sequence:
#
# PCOD9486218 Si02
#       6
#     4  16   8   8  16   8
#     4   8  16  32  52  68  92 129 158 203 246 302
#     4  10  19  32  50  76 109 143 176 211 254 309
#     4   8  16  30  52  75  93 121 169 213 245 292
#     4   9  17  29  47  72 103 142 181 212 247 300
#     4  10  19  34  55  77 101 132 172 215 259 305
#     4  10  20  36  52  75 100 131 169 209 262 310
#
# _framework density 21.497136999999999
#
# number of rings (size 3 to 8) (size 9 to 14) (size 15 to 20)
#    0.000    2.533    1.333    1.200    0.000    3.733 
#    2.400    0.000    0.000    0.800    0.000    5.600 
#    0.000    0.000    0.000    0.000    0.000    0.000 
#
# Total GULP energy -167112.039977 kJ/mol
# GULP energy per Si atom -5570.401333 kJ/mol
# Density = 2.144821 g / cm^3
# Si number density = 21.497137 Si / 1000 Ang^3
#
#
#
# Elastic Constant Matrix: (Units=GPa)
#
#
# Indices 1 2 3 4 5 6 
#
# 1 95.0969 -2.6296 43.6555 0.0000 0.0000 0.0000
# 2 -2.6296 61.6253 8.7407 0.0000 0.0000 0.0000
# 3 43.6555 8.7407 249.0291 0.0000 0.0000 0.0000
# 4 0.0000 0.0000 0.0000 3.1604 0.0000 0.0000
# 5 0.0000 0.0000 0.0000 0.0000 13.0883 0.0000
# 6 0.0000 0.0000 0.0000 0.0000 0.0000 1.8206
#
#
#
# Elastic Compliance Matrix: (Units=1/GPa)
#
#
# Indices 1 2 3 4 5 6 
#
# 1 0.011473 0.000779 -0.002039 0.000000 0.000000 0.000000
# 2 0.000779 0.016361 -0.000711 0.000000 0.000000 0.000000
# 3 -0.002039 -0.000711 0.004398 0.000000 0.000000 0.000000
# 4 0.000000 0.000000 0.000000 0.316414 0.000000 0.000000
# 5 0.000000 0.000000 0.000000 0.000000 0.076404 0.000000
# 6 0.000000 0.000000 0.000000 0.000000 0.000000 0.549266
#
#
# Mechanical properties :
#
#
# Convention : Reuss Voigt Hill
#
# Bulk Modulus (GPa) = 35.34726 56.14271 45.74498
# Shear Modulus (GPa) = 5.06233 27.34618 16.20425
#
# Velocity S-wave (km/s) = 1.53623 3.57050 2.74850
# Velocity P-wave (km/s) = 4.43003 6.57047 5.60340
#
# Compressibility (1/GPa) = 0.02829074
#
# Stress axis : x y z
#
# Youngs Moduli (GPa) = 87.16150 61.12038 227.38078
#
# Poissons Ratio (x) = -0.04759 0.46353
# Poissons Ratio (y) = -0.06787 0.16162
# Poissons Ratio (z) = 0.17768 0.04344
#
# Static dielectric constant tensor:
#      x y z
#    x 1.725330 0.000000 0.000000 
#    y 0.000000 1.827480 0.000000 
#    z 0.000000 0.000000 1.875660 
# 
# From -- ./inp_files/17749.got.cif
#   From: 2010.05.17/outbox.cif.g08.bks.cpg/sg65_9_cif.got.tgz:17749.got - 2010.06.03 17:01:31.
