data_PCOD9486560
_publ_section_title
;
Structure prediction by ZEFSAII (Michael W. Deem and Ramdas Pophale) SiO2 
 PCOD9486560
Probable space group: C M M M
;
_chemical_formula_sum "Si O2"
_cell_formula_units_Z 104
_cell_length_a 23.110320
_cell_length_b 15.183551
_cell_length_c 14.763801
_cell_angle_alpha 90.000000
_cell_angle_beta 90.000000
_cell_angle_gamma 90.000000
_cell_volume 5180.569380
_symmetry_space_group_name_H-M "C M M M"
_symmetry_group_IT_number 65
_symmetry_cell_setting 'orthorhombic'
loop_
_space_group_symop_operation_xyz
x,y,z
-x,-y,z
x,-y,-z
-x,y,-z
-x,-y,-z
x,y,-z
-x,y,z
x,-y,z
1/2+x,1/2+y,z
1/2-x,1/2-y,z
1/2+x,1/2-y,-z
1/2-x,1/2+y,-z
1/2-x,1/2-y,-z
1/2+x,1/2+y,-z
1/2-x,1/2+y,z
1/2+x,1/2-y,z
loop_
_atom_site_type_symbol
_atom_site_label
_atom_site_fract_x
_atom_site_fract_y
_atom_site_fract_z
Si Si1 0.620381 0.896682 0.695302
Si Si2 0.567747 0.279580 0.670170
Si Si3 0.755865 0.356017 0.393837
Si Si4 0.761806 0.849855 0.896813
Si Si5 0.155049 0.903588 0.258471
Si Si6 0.129716 0.398819 0.902176
Si Si7 0.069450 0.098382 0.500000
O O1 0.583629 0.820831 0.646496
O O2 0.686215 0.884584 0.660030
O O3 0.612000 0.870644 0.801482
O O4 0.605084 0.000000 0.683737
O O5 0.500000 0.286344 0.691113
O O6 0.609708 0.323667 0.743892
O O7 0.583084 0.343213 0.586475
O O8 0.758641 0.381888 0.500000
O O9 0.750000 0.250000 0.390416
O O10 0.700557 0.393078 0.340900
O O11 0.750000 0.750000 0.864163
O O12 0.805726 0.896396 0.830705
O O13 0.699398 0.895265 0.898499
O O14 0.783552 0.844880 0.000000
O O15 0.126804 0.000000 0.264394
O O16 0.110807 0.500000 0.906776
O O17 0.113094 0.356525 0.000000
O O18 0.000000 0.089800 0.500000
O O19 0.094504 0.000000 0.500000
#
# Coordination Sequence:
#
# PCOD9486560 Si02
#       7
#    16  16  16  16  16  16   8
#     4  11  22  38  63  91 125 164 201 249 309 374
#     4  11  25  43  61  84 117 158 210 263 303 353
#     4  11  23  39  59  87 127 165 196 236 295 371
#     4  10  19  32  53  83 121 158 192 238 297 365
#     4  12  23  36  60  88 119 156 198 249 304 362
#     4   9  17  31  53  83 118 153 192 240 294 357
#     4   9  20  42  67  86 107 145 205 265 306 341
#
# _framework density 20.075013999999999
#
# number of rings (size 3 to 8) (size 9 to 14) (size 15 to 20)
#    0.000    1.462    3.077    2.769    2.154    3.385 
#    0.000    0.000    0.000    3.231    0.000    3.231 
#    0.000    0.000    0.000    0.000    0.000    0.000 
#
# Total GULP energy -290063.980088 kJ/mol
# GULP energy per Si atom -5578.153463 kJ/mol
# Density = 2.002932 g / cm^3
# Si number density = 20.075014 Si / 1000 Ang^3
#
#
#
# Elastic Constant Matrix: (Units=GPa)
#
#
# Indices 1 2 3 4 5 6 
#
# 1 37.3149 16.2363 0.6744 0.0000 0.0000 0.0000
# 2 16.2363 144.1042 27.3859 0.0000 0.0000 0.0000
# 3 0.6744 27.3859 72.9467 0.0000 0.0000 0.0000
# 4 0.0000 0.0000 0.0000 30.4062 0.0000 0.0000
# 5 0.0000 0.0000 0.0000 0.0000 -1.3202 0.0000
# 6 0.0000 0.0000 0.0000 0.0000 0.0000 20.1376
#
#
#
# Elastic Compliance Matrix: (Units=1/GPa)
#
#
# Indices 1 2 3 4 5 6 
#
# 1 0.028249 -0.003374 0.001005 0.000000 0.000000 0.000000
# 2 -0.003374 0.007876 -0.002925 0.000000 0.000000 0.000000
# 3 0.001005 -0.002925 0.014798 0.000000 0.000000 0.000000
# 4 0.000000 0.000000 0.000000 0.032888 0.000000 0.000000
# 5 0.000000 0.000000 0.000000 0.000000 -0.757474 0.000000
# 6 0.000000 0.000000 0.000000 0.000000 0.000000 0.049658
#
#
# Mechanical properties :
#
#
# Convention : Reuss Voigt Hill
#
# Bulk Modulus (GPa) = 24.79286 38.10654 31.44970
# Shear Modulus (GPa) = -8.33370 23.84933 7.75781
#
# Velocity S-wave (km/s) = -2.03968 3.45049 1.96794
# Velocity P-wave (km/s) = 2.61340 5.90744 4.56769
#
# Compressibility (1/GPa) = 0.04033419
#
# Stress axis : x y z
#
# Youngs Moduli (GPa) = 35.39976 126.97570 67.57842
#
# Poissons Ratio (x) = 0.42840 -0.06795
# Poissons Ratio (y) = 0.11943 0.19770
# Poissons Ratio (z) = -0.03559 0.37146
#
# Static dielectric constant tensor:
#      x y z
#    x 1.690060 0.000000 0.000000 
#    y 0.000000 1.772090 0.000000 
#    z 0.000000 0.000000 1.807700 
# 
# From -- ./inp_files/45742.got.cif
#   From: 2010.05.17/outbox.cif.g08.bks.cpg/sg65_23_cif.got.tgz:45742.got - 2010.06.03 17:01:31.
