data_PCOD9486749
_publ_section_title
;
Structure prediction by ZEFSAII (Michael W. Deem and Ramdas Pophale) SiO2 
 PCOD9486749
Probable space group: C M M M
;
_chemical_formula_sum "Si O2"
_cell_formula_units_Z 80
_cell_length_a 8.040644
_cell_length_b 18.432707
_cell_length_c 28.278026
_cell_angle_alpha 90.000000
_cell_angle_beta 90.000000
_cell_angle_gamma 90.000000
_cell_volume 4191.109844
_symmetry_space_group_name_H-M "C M M M"
_symmetry_group_IT_number 65
_symmetry_cell_setting 'orthorhombic'
loop_
_space_group_symop_operation_xyz
x,y,z
-x,-y,z
x,-y,-z
-x,y,-z
-x,-y,-z
x,y,-z
-x,y,z
x,-y,z
1/2+x,1/2+y,z
1/2-x,1/2-y,z
1/2+x,1/2-y,-z
1/2-x,1/2+y,-z
1/2-x,1/2-y,-z
1/2+x,1/2+y,-z
1/2-x,1/2+y,z
1/2+x,1/2-y,z
loop_
_atom_site_type_symbol
_atom_site_label
_atom_site_fract_x
_atom_site_fract_y
_atom_site_fract_z
Si Si1 0.300770 0.666554 0.811372
Si Si2 0.296593 0.583658 0.905724
Si Si3 0.316102 0.588397 0.615609
Si Si4 0.000000 0.411331 0.554582
Si Si5 0.200678 0.833690 0.000000
Si Si6 0.696719 0.916286 0.282246
O O1 0.500000 0.661521 0.809792
O O2 0.250000 0.750000 0.815042
O O3 0.241754 0.623164 0.857787
O O4 0.232587 0.631010 0.763598
O O5 0.500000 0.584445 0.905870
O O6 0.244331 0.500000 0.906722
O O7 0.240463 0.626128 0.952506
O O8 0.500000 0.610861 0.599791
O O9 0.311415 0.500000 0.615724
O O10 0.165189 0.612596 0.582451
O O11 0.285822 0.609999 0.670053
O O12 0.000000 0.500000 0.555234
O O13 0.000000 0.388876 0.500000
O O14 0.250000 0.750000 0.000000
O O15 0.000000 0.837823 0.000000
O O16 0.500000 0.916506 0.292266
O O17 0.748139 0.000000 0.273026
#
# Coordination Sequence:
#
# PCOD9486749 Si02
#       6
#    16  16  16   8   8  16
#     4  11  22  35  51  74 105 138 172 220 273 331
#     4   9  18  33  54  78 102 133 179 225 267 324
#     4   9  16  27  44  67  97 137 181 223 272 328
#     4   9  16  26  40  64 102 142 180 225 274 326
#     4  10  19  33  55  79 105 138 174 220 274 328
#     4  10  19  33  53  75 101 136 177 222 272 330
#
# _framework density 19.088023
#
# number of rings (size 3 to 8) (size 9 to 14) (size 15 to 20)
#    0.000    2.300    1.000    2.700    0.000    3.600 
#    0.000    3.000    0.000    3.600    0.000    0.000 
#    0.000    0.800    0.400    0.000    0.000    0.000 
#
# Total GULP energy -223310.278288 kJ/mol
# GULP energy per Si atom -5582.756957 kJ/mol
# Density = 1.904458 g / cm^3
# Si number density = 19.088023 Si / 1000 Ang^3
#
#
#
# Elastic Constant Matrix: (Units=GPa)
#
#
# Indices 1 2 3 4 5 6 
#
# 1 82.6881 15.9903 55.5739 0.0000 0.0000 0.0000
# 2 15.9903 90.9934 61.1447 0.0000 0.0000 0.0000
# 3 55.5739 61.1447 169.5539 0.0000 0.0000 0.0000
# 4 0.0000 0.0000 0.0000 -5.1422 0.0000 0.0000
# 5 0.0000 0.0000 0.0000 0.0000 16.8367 0.0000
# 6 0.0000 0.0000 0.0000 0.0000 0.0000 16.9370
#
#
#
# Elastic Compliance Matrix: (Units=1/GPa)
#
#
# Indices 1 2 3 4 5 6 
#
# 1 0.015568 0.000915 -0.005432 0.000000 0.000000 0.000000
# 2 0.000915 0.014558 -0.005550 0.000000 0.000000 0.000000
# 3 -0.005432 -0.005550 0.009680 0.000000 0.000000 0.000000
# 4 0.000000 0.000000 0.000000 -0.194470 0.000000 0.000000
# 5 0.000000 0.000000 0.000000 0.000000 0.059394 0.000000
# 6 0.000000 0.000000 0.000000 0.000000 0.000000 0.059042
#
#
# Mechanical properties :
#
#
# Convention : Reuss Voigt Hill
#
# Bulk Modulus (GPa) = 50.83680 67.62816 59.23248
# Shear Modulus (GPa) = -524.34926 19.76140 -252.29393
#
# Velocity S-wave (km/s) = -16.59208 3.22106 -11.50917
# Velocity P-wave (km/s) = 18.44917 7.02426 12.06300
#
# Compressibility (1/GPa) = 0.01967079
#
# Stress axis : x y z
#
# Youngs Moduli (GPa) = 64.23488 68.68881 103.30782
#
# Poissons Ratio (x) = -0.06283 0.56122
# Poissons Ratio (y) = -0.05876 0.57335
# Poissons Ratio (z) = 0.34895 0.38121
#
# Static dielectric constant tensor:
#      x y z
#    x 1.691530 0.000000 0.000000 
#    y 0.000000 1.620580 0.000000 
#    z 0.000000 0.000000 1.639420 
# 
# From -- ./inp_files/67346.got.cif
#   From: 2010.05.17/outbox.cif.g08.bks.cpg/sg65_34_cif.got.tgz:67346.got - 2010.06.03 17:01:31.
