data_PCOD9486924
_publ_section_title
;
Structure prediction by ZEFSAII (Michael W. Deem and Ramdas Pophale) SiO2 
 PCOD9486924
Probable space group: C M M M
;
_chemical_formula_sum "Si O2"
_cell_formula_units_Z 64
_cell_length_a 8.734332
_cell_length_b 16.132116
_cell_length_c 22.909810
_cell_angle_alpha 90.000000
_cell_angle_beta 90.000000
_cell_angle_gamma 90.000000
_cell_volume 3228.066846
_symmetry_space_group_name_H-M "C M M M"
_symmetry_group_IT_number 65
_symmetry_cell_setting 'orthorhombic'
loop_
_space_group_symop_operation_xyz
x,y,z
-x,-y,z
x,-y,-z
-x,y,-z
-x,-y,-z
x,y,-z
-x,y,z
x,-y,z
1/2+x,1/2+y,z
1/2-x,1/2-y,z
1/2+x,1/2-y,-z
1/2-x,1/2+y,-z
1/2-x,1/2-y,-z
1/2+x,1/2+y,-z
1/2-x,1/2+y,z
1/2+x,1/2-y,z
loop_
_atom_site_type_symbol
_atom_site_label
_atom_site_fract_x
_atom_site_fract_y
_atom_site_fract_z
Si Si1 0.315668 0.343268 0.000000
Si Si2 0.184213 0.156574 0.873016
Si Si3 0.186796 0.000000 0.567288
Si Si4 0.317238 0.663075 0.637716
Si Si5 0.321774 0.903108 0.753775
O O1 0.250000 0.250000 0.000000
O O2 0.272003 0.379989 0.063060
O O3 0.500000 0.338602 0.000000
O O4 0.250000 0.250000 0.870853
O O5 0.251741 0.110131 0.817577
O O6 0.000000 0.158618 0.869054
O O7 0.236346 0.083436 0.600508
O O8 0.235144 0.000000 0.500000
O O9 0.000000 0.000000 0.568459
O O10 0.500000 0.666410 0.635284
O O11 0.250000 0.750000 0.616429
O O12 0.264963 0.648053 0.704258
O O13 0.500000 0.879025 0.754412
O O14 0.309773 0.000000 0.738470
#
# Coordination Sequence:
#
# PCOD9486924 Si02
#       5
#     8  16   8  16  16
#     4   8  16  30  49  74 103 139 181 233 287 347
#     4  10  19  33  54  79 108 142 187 236 292 354
#     4   9  20  40  65  93 127 164 201 242 289 347
#     4  11  22  39  64  92 123 161 203 245 296 351
#     4  11  23  38  56  80 113 150 194 247 299 349
#
# _framework density 19.826107
#
# number of rings (size 3 to 8) (size 9 to 14) (size 15 to 20)
#    0.000    1.875    1.250    3.000    0.000    3.000 
#    0.000    0.625    0.000    9.000    0.000    0.000 
#    0.000    0.000    0.000    0.000    0.000    0.000 
#
# Total GULP energy -178655.864962 kJ/mol
# GULP energy per Si atom -5582.995780 kJ/mol
# Density = 1.978098 g / cm^3
# Si number density = 19.826107 Si / 1000 Ang^3
#
#
#
# Elastic Constant Matrix: (Units=GPa)
#
#
# Indices 1 2 3 4 5 6 
#
# 1 57.8938 37.9468 25.2007 0.0000 0.0000 0.0000
# 2 37.9468 104.4609 62.1594 0.0000 0.0000 0.0000
# 3 25.2007 62.1594 136.9342 0.0000 0.0000 0.0000
# 4 0.0000 0.0000 0.0000 93.0621 0.0000 0.0000
# 5 0.0000 0.0000 0.0000 0.0000 10.3904 0.0000
# 6 0.0000 0.0000 0.0000 0.0000 0.0000 25.0217
#
#
#
# Elastic Compliance Matrix: (Units=1/GPa)
#
#
# Indices 1 2 3 4 5 6 
#
# 1 0.022706 -0.007894 -0.000595 0.000000 0.000000 0.000000
# 2 -0.007894 0.015860 -0.005747 0.000000 0.000000 0.000000
# 3 -0.000595 -0.005747 0.010021 0.000000 0.000000 0.000000
# 4 0.000000 0.000000 0.000000 0.010746 0.000000 0.000000
# 5 0.000000 0.000000 0.000000 0.000000 0.096242 0.000000
# 6 0.000000 0.000000 0.000000 0.000000 0.000000 0.039965
#
#
# Mechanical properties :
#
#
# Convention : Reuss Voigt Hill
#
# Bulk Modulus (GPa) = 49.71365 61.10028 55.40696
# Shear Modulus (GPa) = 21.67146 37.29365 29.48256
#
# Velocity S-wave (km/s) = 3.30976 4.34180 3.86042
# Velocity P-wave (km/s) = 6.30359 7.48465 6.91936
#
# Compressibility (1/GPa) = 0.02011520
#
# Stress axis : x y z
#
# Youngs Moduli (GPa) = 44.04039 63.05095 99.79065
#
# Poissons Ratio (x) = 0.49773 0.05941
# Poissons Ratio (y) = 0.34766 0.57347
# Poissons Ratio (z) = 0.02622 0.36234
#
# Static dielectric constant tensor:
#      x y z
#    x 1.676650 0.000000 0.000000 
#    y 0.000000 1.702280 0.000000 
#    z 0.000000 0.000000 1.709040 
# 
# From -- ./inp_files/66739.got.cif
#   From: 2010.05.17/outbox.cif.g08.bks.cpg/sg65_34_cif.got.tgz:66739.got - 2010.06.03 17:01:31.
