data_PCOD9486571
_publ_section_title
;
Structure prediction by ZEFSAII (Michael W. Deem and Ramdas Pophale) SiO2 
 PCOD9486571
Probable space group: C M M M
;
_chemical_formula_sum "Si O2"
_cell_formula_units_Z 104
_cell_length_a 24.438963
_cell_length_b 26.863319
_cell_length_c 7.923412
_cell_angle_alpha 90.000000
_cell_angle_beta 90.000000
_cell_angle_gamma 90.000000
_cell_volume 5201.812358
_symmetry_space_group_name_H-M "C M M M"
_symmetry_group_IT_number 65
_symmetry_cell_setting 'orthorhombic'
loop_
_space_group_symop_operation_xyz
x,y,z
-x,-y,z
x,-y,-z
-x,y,-z
-x,-y,-z
x,y,-z
-x,y,z
x,-y,z
1/2+x,1/2+y,z
1/2-x,1/2-y,z
1/2+x,1/2-y,-z
1/2-x,1/2+y,-z
1/2-x,1/2-y,-z
1/2+x,1/2+y,-z
1/2-x,1/2+y,z
1/2+x,1/2-y,z
loop_
_atom_site_type_symbol
_atom_site_label
_atom_site_fract_x
_atom_site_fract_y
_atom_site_fract_z
Si Si1 0.938678 0.559168 0.302122
Si Si2 0.438280 0.203850 0.199062
Si Si3 0.062363 0.000000 0.297022
Si Si4 0.135171 0.906763 0.199042
Si Si5 0.150109 0.371274 0.190074
Si Si6 0.938647 0.183892 0.699195
Si Si7 0.754809 0.557795 0.792656
O O1 0.929267 0.571465 0.500000
O O2 0.935686 0.500000 0.287668
O O3 0.894717 0.585154 0.188002
O O4 0.000000 0.574913 0.257337
O O5 0.500000 0.193791 0.268974
O O6 0.386371 0.173143 0.270483
O O7 0.429021 0.262761 0.216235
O O8 0.440178 0.191187 0.000000
O O9 0.093685 0.951483 0.234865
O O10 0.062801 0.000000 0.500000
O O11 0.000000 0.000000 0.238458
O O12 0.107632 0.856731 0.267416
O O13 0.194532 0.924545 0.262574
O O14 0.141215 0.899944 0.000000
O O15 0.202065 0.400192 0.266884
O O16 0.166102 0.355500 0.000000
O O17 0.940448 0.193007 0.500000
O O18 0.000000 0.166035 0.751592
O O19 0.765435 0.500000 0.740544
O O20 0.756907 0.557273 0.000000
#
# Coordination Sequence:
#
# PCOD9486571 Si02
#       7
#    16  16   8  16  16  16  16
#     4   9  18  31  45  66 101 139 173 217 274 332
#     4   9  18  33  53  80 110 138 176 225 274 326
#     4  11  23  37  55  83 117 145 174 219 270 323
#     4  11  21  36  58  82 110 146 183 220 266 322
#     4  10  19  32  54  79 103 136 181 231 273 312
#     4  10  21  37  57  81 109 141 176 219 275 331
#     4   9  18  34  54  78 109 144 182 224 268 317
#
# _framework density 19.993030999999998
#
# number of rings (size 3 to 8) (size 9 to 14) (size 15 to 20)
#    0.000    2.231    0.769    3.000    0.000    5.846 
#    0.000    4.615    0.000    4.615    0.000    0.000 
#    0.000    0.000    0.000    0.000    0.000    0.000 
#
# Total GULP energy -289934.545826 kJ/mol
# GULP energy per Si atom -5575.664343 kJ/mol
# Density = 1.994753 g / cm^3
# Si number density = 19.993031 Si / 1000 Ang^3
#
#
#
# Elastic Constant Matrix: (Units=GPa)
#
#
# Indices 1 2 3 4 5 6 
#
# 1 126.8564 64.1081 4.0892 0.0000 0.0000 0.0000
# 2 64.1081 109.8405 -2.9904 0.0000 0.0000 0.0000
# 3 4.0892 -2.9904 18.6027 0.0000 0.0000 0.0000
# 4 0.0000 0.0000 0.0000 -498.9687 0.0000 0.0000
# 5 0.0000 0.0000 0.0000 0.0000 17.6971 0.0000
# 6 0.0000 0.0000 0.0000 0.0000 0.0000 33.4364
#
#
#
# Elastic Compliance Matrix: (Units=1/GPa)
#
#
# Indices 1 2 3 4 5 6 
#
# 1 0.011415 -0.006760 -0.003596 0.000000 0.000000 0.000000
# 2 -0.006760 0.013148 0.003600 0.000000 0.000000 0.000000
# 3 -0.003596 0.003600 0.055125 0.000000 0.000000 0.000000
# 4 0.000000 0.000000 0.000000 -0.002004 0.000000 0.000000
# 5 0.000000 0.000000 0.000000 0.000000 0.056506 0.000000
# 6 0.000000 0.000000 0.000000 0.000000 0.000000 0.029908
#
#
# Mechanical properties :
#
#
# Convention : Reuss Voigt Hill
#
# Bulk Modulus (GPa) = 15.11162 42.85703 28.98433
# Shear Modulus (GPa) = 25.04138 -76.89419 -25.92641
#
# Velocity S-wave (km/s) = 3.54292 -6.20838 -3.60498
# Velocity P-wave (km/s) = 4.93064 5.46896 1.67306
#
# Compressibility (1/GPa) = 0.06617423
#
# Stress axis : x y z
#
# Youngs Moduli (GPa) = 87.60187 76.05836 18.14064
#
# Poissons Ratio (x) = 0.51418 0.06523
# Poissons Ratio (y) = 0.59222 -0.06530
# Poissons Ratio (z) = 0.31502 -0.27378
#
# Static dielectric constant tensor:
#      x y z
#    x 1.730290 0.000000 0.000000 
#    y 0.000000 1.692830 0.000000 
#    z 0.000000 0.000000 1.735720 
# 
# From -- ./inp_files/14771.got.cif
#   From: 2010.05.17/outbox.cif.g08.bks.cpg/sg65_8_cif.got.tgz:14771.got - 2010.06.03 17:01:31.
