data_PCOD9486739
_publ_section_title
;
Structure prediction by ZEFSAII (Michael W. Deem and Ramdas Pophale) SiO2 
 PCOD9486739
Probable space group: C M M M
;
_chemical_formula_sum "Si O2"
_cell_formula_units_Z 88
_cell_length_a 19.221044
_cell_length_b 9.047112
_cell_length_c 29.475462
_cell_angle_alpha 90.000000
_cell_angle_beta 90.000000
_cell_angle_gamma 90.000000
_cell_volume 5125.633632
_symmetry_space_group_name_H-M "C M M M"
_symmetry_group_IT_number 65
_symmetry_cell_setting 'orthorhombic'
loop_
_space_group_symop_operation_xyz
x,y,z
-x,-y,z
x,-y,-z
-x,y,-z
-x,-y,-z
x,y,-z
-x,y,z
x,-y,z
1/2+x,1/2+y,z
1/2-x,1/2-y,z
1/2+x,1/2-y,-z
1/2-x,1/2+y,-z
1/2-x,1/2-y,-z
1/2+x,1/2+y,-z
1/2-x,1/2+y,z
1/2+x,1/2-y,z
loop_
_atom_site_type_symbol
_atom_site_label
_atom_site_fract_x
_atom_site_fract_y
_atom_site_fract_z
Si Si1 0.582025 0.322049 0.628656
Si Si2 0.584529 0.329455 0.729790
Si Si3 0.674446 0.176303 0.448307
Si Si4 0.582984 0.825180 0.177683
Si Si5 0.825768 0.823205 0.000000
Si Si6 0.173264 0.177619 0.900361
O O1 0.500000 0.287915 0.624907
O O2 0.589289 0.500000 0.625389
O O3 0.606692 0.279574 0.679529
O O4 0.623991 0.243090 0.589258
O O5 0.500000 0.329173 0.728374
O O6 0.606068 0.500000 0.736720
O O7 0.605492 0.231792 0.772562
O O8 0.650219 0.207416 0.500000
O O9 0.750000 0.250000 0.443281
O O10 0.680195 0.000000 0.443265
O O11 0.500000 0.797008 0.173459
O O12 0.624705 0.740445 0.138885
O O13 0.594501 0.000000 0.173845
O O14 0.750000 0.750000 0.000000
O O15 0.856822 0.784626 0.950803
O O16 0.817795 0.000000 0.000000
O O17 0.250000 0.250000 0.896984
O O18 0.179123 0.000000 0.896836
#
# Coordination Sequence:
#
# PCOD9486739 Si02
#       6
#    16  16  16  16   8  16
#     4   9  18  33  54  79 104 130 163 204 248 294
#     4   8  15  30  51  73  98 130 166 202 244 294
#     4  10  21  36  53  73 100 135 171 206 247 296
#     4  10  20  33  50  74 103 134 168 204 245 294
#     4   8  16  30  49  72  95 125 163 201 245 296
#     4  10  19  33  53  75 100 129 164 206 250 296
#
# _framework density 17.168607999999999
#
# number of rings (size 3 to 8) (size 9 to 14) (size 15 to 20)
#    0.000    2.727    0.000    2.727    0.000    4.364 
#    0.000    5.000    0.000    7.091    0.000    0.000 
#    0.000    0.000    0.000    0.000    0.000    0.000 
#
# Total GULP energy -245163.627915 kJ/mol
# GULP energy per Si atom -5571.900634 kJ/mol
# Density = 1.712953 g / cm^3
# Si number density = 17.168608 Si / 1000 Ang^3
#
#
#
# Elastic Constant Matrix: (Units=GPa)
#
#
# Indices 1 2 3 4 5 6 
#
# 1 39.8731 42.2632 69.7547 0.0000 0.0000 0.0000
# 2 42.2632 66.0178 84.7893 0.0000 0.0000 0.0000
# 3 69.7547 84.7893 201.3868 0.0000 0.0000 0.0000
# 4 0.0000 0.0000 0.0000 29.1834 0.0000 0.0000
# 5 0.0000 0.0000 0.0000 0.0000 39.0349 0.0000
# 6 0.0000 0.0000 0.0000 0.0000 0.0000 26.7827
#
#
#
# Elastic Compliance Matrix: (Units=1/GPa)
#
#
# Indices 1 2 3 4 5 6 
#
# 1 0.097770 -0.041581 -0.016358 0.000000 0.000000 0.000000
# 2 -0.041581 0.050667 -0.006929 0.000000 0.000000 0.000000
# 3 -0.016358 -0.006929 0.013549 0.000000 0.000000 0.000000
# 4 0.000000 0.000000 0.000000 0.034266 0.000000 0.000000
# 5 0.000000 0.000000 0.000000 0.000000 0.025618 0.000000
# 6 0.000000 0.000000 0.000000 0.000000 0.000000 0.037338
#
#
# Mechanical properties :
#
#
# Convention : Reuss Voigt Hill
#
# Bulk Modulus (GPa) = 31.00905 77.87689 54.44297
# Shear Modulus (GPa) = 12.50954 26.36490 19.43722
#
# Velocity S-wave (km/s) = 2.70224 3.92298 3.36837
# Velocity P-wave (km/s) = 5.27606 8.12270 6.84891
#
# Compressibility (1/GPa) = 0.03224865
#
# Stress axis : x y z
#
# Youngs Moduli (GPa) = 10.22803 19.73687 73.80571
#
# Poissons Ratio (x) = 0.82068 1.20733
# Poissons Ratio (y) = 0.42529 0.51144
# Poissons Ratio (z) = 0.16731 0.13677
#
# Static dielectric constant tensor:
#      x y z
#    x 1.551010 0.000000 0.000000 
#    y 0.000000 1.569920 0.000000 
#    z 0.000000 0.000000 1.605510 
# 
# From -- ./inp_files/67540.got.cif
#   From: 2010.05.17/outbox.cif.g08.bks.cpg/sg65_34_cif.got.tgz:67540.got - 2010.06.03 17:01:31.
