data_PCOD9486620
_publ_section_title
;
Structure prediction by ZEFSAII (Michael W. Deem and Ramdas Pophale) SiO2 
 PCOD9486620
Probable space group: C M M M
;
_chemical_formula_sum "Si O2"
_cell_formula_units_Z 112
_cell_length_a 27.057749
_cell_length_b 14.653587
_cell_length_c 14.324831
_cell_angle_alpha 90.000000
_cell_angle_beta 90.000000
_cell_angle_gamma 90.000000
_cell_volume 5679.696349
_symmetry_space_group_name_H-M "C M M M"
_symmetry_group_IT_number 65
_symmetry_cell_setting 'orthorhombic'
loop_
_space_group_symop_operation_xyz
x,y,z
-x,-y,z
x,-y,-z
-x,y,-z
-x,-y,-z
x,y,-z
-x,y,z
x,-y,z
1/2+x,1/2+y,z
1/2-x,1/2-y,z
1/2+x,1/2-y,-z
1/2-x,1/2+y,-z
1/2-x,1/2-y,-z
1/2+x,1/2+y,-z
1/2-x,1/2+y,z
1/2+x,1/2-y,z
loop_
_atom_site_type_symbol
_atom_site_label
_atom_site_fract_x
_atom_site_fract_y
_atom_site_fract_z
Si Si1 0.845952 0.600183 0.891102
Si Si2 0.559532 0.394514 0.106620
Si Si3 0.176856 0.096762 0.724908
Si Si4 0.892685 0.748415 0.754743
Si Si5 0.765179 0.150435 0.107739
Si Si6 0.768044 0.645011 0.393852
Si Si7 0.383785 0.892639 0.610671
O O1 0.864648 0.500000 0.862100
O O2 0.865744 0.681529 0.828214
O O3 0.786473 0.598317 0.886862
O O4 0.858723 0.615034 0.000000
O O5 0.500000 0.394193 0.105545
O O6 0.574751 0.500000 0.127010
O O7 0.576338 0.319785 0.182489
O O8 0.576229 0.372667 0.000000
O O9 0.144557 0.183912 0.700175
O O10 0.190989 0.108200 0.833424
O O11 0.229704 0.098711 0.674970
O O12 0.152512 0.000000 0.704936
O O13 0.913085 0.677579 0.677360
O O14 0.750000 0.250000 0.146089
O O15 0.779642 0.160904 0.000000
O O16 0.761779 0.611971 0.500000
O O17 0.750000 0.750000 0.392377
O O18 0.825177 0.626721 0.369476
O O19 0.391362 0.875750 0.500000
O O20 0.393366 0.000000 0.628239
#
# Coordination Sequence:
#
# PCOD9486620 Si02
#       7
#    16  16  16  16  16  16  16
#     4  10  20  32  47  69 100 140 181 219 267 324
#     4   9  20  41  67  92 117 144 173 209 265 343
#     4  12  23  31  45  72 103 137 179 228 278 321
#     4  12  21  34  55  82 108 137 177 233 279 326
#     4  10  19  33  46  59  92 142 184 219 260 313
#     4  10  19  35  53  70 101 149 196 238 280 320
#     4  10  21  36  55  79 111 156 203 240 278 326
#
# _framework density 19.719363999999999
#
# number of rings (size 3 to 8) (size 9 to 14) (size 15 to 20)
#    0.000    1.571    2.857    3.857    0.000    2.286 
#    0.000    0.000    0.000    3.429    0.000    7.000 
#    0.000    0.000    0.000    0.000    0.000    0.000 
#
# Total GULP energy -312456.733827 kJ/mol
# GULP energy per Si atom -5579.584533 kJ/mol
# Density = 1.967448 g / cm^3
# Si number density = 19.719364 Si / 1000 Ang^3
#
#
#
# Elastic Constant Matrix: (Units=GPa)
#
#
# Indices 1 2 3 4 5 6 
#
# 1 15.5748 12.3780 15.1764 0.0000 0.0000 0.0000
# 2 12.3780 164.9554 49.2368 0.0000 0.0000 0.0000
# 3 15.1764 49.2368 81.7911 0.0000 0.0000 0.0000
# 4 0.0000 0.0000 0.0000 1.8636 0.0000 0.0000
# 5 0.0000 0.0000 0.0000 0.0000 22.3547 0.0000
# 6 0.0000 0.0000 0.0000 0.0000 0.0000 18.0007
#
#
#
# Elastic Compliance Matrix: (Units=1/GPa)
#
#
# Indices 1 2 3 4 5 6 
#
# 1 0.078857 -0.001889 -0.013495 0.000000 0.000000 0.000000
# 2 -0.001889 0.007435 -0.004125 0.000000 0.000000 0.000000
# 3 -0.013495 -0.004125 0.017214 0.000000 0.000000 0.000000
# 4 0.000000 0.000000 0.000000 0.536594 0.000000 0.000000
# 5 0.000000 0.000000 0.000000 0.000000 0.044733 0.000000
# 6 0.000000 0.000000 0.000000 0.000000 0.000000 0.055553
#
#
# Mechanical properties :
#
#
# Convention : Reuss Voigt Hill
#
# Bulk Modulus (GPa) = 15.50693 46.21153 30.85923
# Shear Modulus (GPa) = 6.24296 20.81247 13.52771
#
# Velocity S-wave (km/s) = 1.78123 3.25227 2.62202
# Velocity P-wave (km/s) = 3.48012 6.13094 4.98496
#
# Compressibility (1/GPa) = 0.06448728
#
# Stress axis : x y z
#
# Youngs Moduli (GPa) = 12.68117 134.49192 58.09349
#
# Poissons Ratio (x) = 0.25410 0.78395
# Poissons Ratio (y) = 0.02396 0.23966
# Poissons Ratio (z) = 0.17113 0.55483
#
# Static dielectric constant tensor:
#      x y z
#    x 1.680880 0.000000 0.000000 
#    y 0.000000 1.757980 0.000000 
#    z 0.000000 0.000000 1.734820 
# 
# From -- ./inp_files/41367.got.cif
#   From: 2010.05.17/outbox.cif.g08.bks.cpg/sg65_21_cif.got.tgz:41367.got - 2010.06.03 17:01:31.
