data_PCOD9486950
_publ_section_title
;
Structure prediction by ZEFSAII (Michael W. Deem and Ramdas Pophale) SiO2 
 PCOD9486950
Probable space group: C M M M
;
_chemical_formula_sum "Si O2"
_cell_formula_units_Z 90
_cell_length_a 24.632842
_cell_length_b 8.614072
_cell_length_c 22.917727
_cell_angle_alpha 90.000000
_cell_angle_beta 90.000000
_cell_angle_gamma 90.000000
_cell_volume 4862.891283
_symmetry_space_group_name_H-M "C M M M"
_symmetry_group_IT_number 65
_symmetry_cell_setting 'orthorhombic'
loop_
_space_group_symop_operation_xyz
x,y,z
-x,-y,z
x,-y,-z
-x,y,-z
-x,-y,-z
x,y,-z
-x,y,z
x,-y,z
1/2+x,1/2+y,z
1/2-x,1/2-y,z
1/2+x,1/2-y,-z
1/2-x,1/2+y,-z
1/2-x,1/2-y,-z
1/2+x,1/2+y,-z
1/2-x,1/2+y,z
1/2+x,1/2-y,z
loop_
_atom_site_type_symbol
_atom_site_label
_atom_site_fract_x
_atom_site_fract_y
_atom_site_fract_z
Si Si1 0.000000 0.500000 0.500000
Si Si2 0.189461 0.314414 0.500000
Si Si3 0.936591 0.188922 0.064553
Si Si4 0.500000 0.770149 0.388015
Si Si5 0.105196 0.185888 0.187766
Si Si6 0.382030 0.809504 0.387428
Si Si7 0.500000 0.176032 0.749745
Si Si8 0.189913 0.684627 0.726393
O O1 0.000000 0.630810 0.447744
O O2 0.193582 0.500000 0.500000
O O3 0.250000 0.250000 0.500000
O O4 0.155136 0.272373 0.557160
O O5 0.903900 0.241062 0.121257
O O6 0.000000 0.231868 0.071969
O O7 0.935143 0.000000 0.064328
O O8 0.918671 0.241060 0.000000
O O9 0.437697 0.711920 0.389542
O O10 0.500000 0.830366 0.320605
O O11 0.053576 0.241495 0.225742
O O12 0.159338 0.248476 0.217507
O O13 0.105845 0.000000 0.188107
O O14 0.347920 0.778862 0.329364
O O15 0.394319 0.000000 0.389045
O O16 0.500000 0.000000 0.771522
O O17 0.192811 0.500000 0.730743
O O18 0.250000 0.750000 0.718705
#
# Coordination Sequence:
#
# PCOD9486950 Si02
#       8
#     2   8  16   8  16  16   8  16
#     4  12  20  28  56  84 122 144 194 232 278 334
#     4  10  21  36  56  78 102 138 186 232 275 327
#     4   8  14  27  50  82 118 154 194 234 277 341
#     4  12  20  33  55  89 114 143 185 237 288 343
#     4  11  21  35  58  87 119 156 194 238 296 351
#     4  10  19  33  54  82 110 138 179 229 283 340
#     4  12  21  35  55  85 123 152 192 238 293 346
#     4  11  23  39  58  81 112 151 195 246 297 352
#
# _framework density 18.507508000000001
#
# number of rings (size 3 to 8) (size 9 to 14) (size 15 to 20)
#    0.000    1.600    4.000    2.933    1.244    0.000 
#    0.000    0.889    0.000    3.200    0.000    1.867 
#    0.000    0.000    0.000    0.000    0.000    0.000 
#
# Total GULP energy -250556.219830 kJ/mol
# GULP energy per Si atom -5567.915996 kJ/mol
# Density = 1.846538 g / cm^3
# Si number density = 18.507508 Si / 1000 Ang^3
#
#
#
# Elastic Constant Matrix: (Units=GPa)
#
#
# Indices 1 2 3 4 5 6 
#
# 1 152.0618 30.1094 64.9332 0.0000 0.0000 0.0000
# 2 30.1094 32.8323 29.0672 0.0000 0.0000 0.0000
# 3 64.9332 29.0672 172.6569 0.0000 0.0000 0.0000
# 4 0.0000 0.0000 0.0000 104.3730 0.0000 0.0000
# 5 0.0000 0.0000 0.0000 0.0000 8.7886 0.0000
# 6 0.0000 0.0000 0.0000 0.0000 0.0000 12.5474
#
#
#
# Elastic Compliance Matrix: (Units=1/GPa)
#
#
# Indices 1 2 3 4 5 6 
#
# 1 0.008735 -0.005996 -0.002276 0.000000 0.000000 0.000000
# 2 -0.005996 0.039908 -0.004464 0.000000 0.000000 0.000000
# 3 -0.002276 -0.004464 0.007399 0.000000 0.000000 0.000000
# 4 0.000000 0.000000 0.000000 0.009581 0.000000 0.000000
# 5 0.000000 0.000000 0.000000 0.000000 0.113783 0.000000
# 6 0.000000 0.000000 0.000000 0.000000 0.000000 0.079698
#
#
# Mechanical properties :
#
#
# Convention : Reuss Voigt Hill
#
# Bulk Modulus (GPa) = 32.70979 67.30786 50.00882
# Shear Modulus (GPa) = 16.96257 40.70455 28.83356
#
# Velocity S-wave (km/s) = 3.03070 4.69481 3.95135
# Velocity P-wave (km/s) = 5.47348 8.11389 6.92077
#
# Compressibility (1/GPa) = 0.03057189
#
# Stress axis : x y z
#
# Youngs Moduli (GPa) = 114.47757 25.05738 135.15040
#
# Poissons Ratio (x) = 0.15025 0.30757
# Poissons Ratio (y) = 0.68642 0.60326
# Poissons Ratio (z) = 0.26052 0.11185
#
# Static dielectric constant tensor:
#      x y z
#    x 1.630620 0.000000 0.000000 
#    y 0.000000 1.652160 0.000000 
#    z 0.000000 0.000000 1.650020 
# 
# From -- ./inp_files/65299.got.cif
#   From: 2010.05.17/outbox.cif.g08.bks.cpg/sg65_33_cif.got.tgz:65299.got - 2010.06.03 17:01:31.
