data_PCOD9486370
_publ_section_title
;
Structure prediction by ZEFSAII (Michael W. Deem and Ramdas Pophale) SiO2 
 PCOD9486370
Probable space group: C M M M
;
_chemical_formula_sum "Si O2"
_cell_formula_units_Z 104
_cell_length_a 8.857680
_cell_length_b 29.508584
_cell_length_c 23.887254
_cell_angle_alpha 90.000000
_cell_angle_beta 90.000000
_cell_angle_gamma 90.000000
_cell_volume 6243.592986
_symmetry_space_group_name_H-M "C M M M"
_symmetry_group_IT_number 65
_symmetry_cell_setting 'orthorhombic'
loop_
_space_group_symop_operation_xyz
x,y,z
-x,-y,z
x,-y,-z
-x,y,-z
-x,-y,-z
x,y,-z
-x,y,z
x,-y,z
1/2+x,1/2+y,z
1/2-x,1/2-y,z
1/2+x,1/2-y,-z
1/2-x,1/2+y,-z
1/2-x,1/2-y,-z
1/2+x,1/2+y,-z
1/2-x,1/2+y,z
1/2+x,1/2-y,z
loop_
_atom_site_type_symbol
_atom_site_label
_atom_site_fract_x
_atom_site_fract_y
_atom_site_fract_z
Si Si1 0.826391 0.554972 0.500000
Si Si2 0.181588 0.105624 0.062447
Si Si3 0.681724 0.894152 0.278810
Si Si4 0.181256 0.702989 0.233415
Si Si5 0.680877 0.296805 0.109127
Si Si6 0.817993 0.447525 0.166510
Si Si7 0.180518 0.946998 0.382652
O O1 0.823732 0.500000 0.500000
O O2 0.744921 0.568513 0.557354
O O3 0.000000 0.569775 0.500000
O O4 0.216944 0.158484 0.073811
O O5 0.252878 0.076053 0.111476
O O6 0.000000 0.101260 0.065276
O O7 0.231227 0.092506 0.000000
O O8 0.500000 0.898182 0.283480
O O9 0.718385 0.841303 0.269608
O O10 0.729079 0.920646 0.222353
O O11 0.756047 0.916988 0.332422
O O12 0.250000 0.750000 0.255385
O O13 0.249906 0.696679 0.171213
O O14 0.000000 0.706467 0.228724
O O15 0.500000 0.292477 0.113339
O O16 0.750000 0.250000 0.086595
O O17 0.772245 0.500000 0.170013
O O18 0.000000 0.445524 0.164018
O O19 0.000000 0.945240 0.383904
O O20 0.225373 0.000000 0.374149
#
# Coordination Sequence:
#
# PCOD9486370 Si02
#       7
#     8  16  16  16  16  16  16
#     4   9  17  31  51  73 104 147 186 217 253 297
#     4  10  22  38  53  71  97 129 165 206 255 311
#     4  10  20  34  53  76 104 136 170 208 254 306
#     4  10  19  32  52  76 102 131 164 203 252 306
#     4  10  19  32  52  74  98 126 158 199 251 309
#     4  10  21  37  55  74  98 129 167 212 257 302
#     4  10  20  32  49  77 111 144 179 218 256 295
#
# _framework density 16.657074999999999
#
# number of rings (size 3 to 8) (size 9 to 14) (size 15 to 20)
#    0.000    2.077    1.538    3.000    0.000    6.154 
#    0.000    1.538    0.000    0.000    0.000    0.538 
#    0.000    0.000    0.000    0.000    0.000    0.000 
#
# Total GULP energy -290212.918135 kJ/mol
# GULP energy per Si atom -5581.017656 kJ/mol
# Density = 1.661916 g / cm^3
# Si number density = 16.657075 Si / 1000 Ang^3
#
#
#
# Elastic Constant Matrix: (Units=GPa)
#
#
# Indices 1 2 3 4 5 6 
#
# 1 42.8043 42.7313 42.1963 0.0000 0.0000 0.0000
# 2 42.7313 116.2071 74.6958 0.0000 0.0000 0.0000
# 3 42.1963 74.6958 142.0147 0.0000 0.0000 0.0000
# 4 0.0000 0.0000 0.0000 22.5167 0.0000 0.0000
# 5 0.0000 0.0000 0.0000 0.0000 24.4926 0.0000
# 6 0.0000 0.0000 0.0000 0.0000 0.0000 26.3693
#
#
#
# Elastic Compliance Matrix: (Units=1/GPa)
#
#
# Indices 1 2 3 4 5 6 
#
# 1 0.040350 -0.010773 -0.006323 0.000000 0.000000 0.000000
# 2 -0.010773 0.015877 -0.005150 0.000000 0.000000 0.000000
# 3 -0.006323 -0.005150 0.011629 0.000000 0.000000 0.000000
# 4 0.000000 0.000000 0.000000 0.044411 0.000000 0.000000
# 5 0.000000 0.000000 0.000000 0.000000 0.040829 0.000000
# 6 0.000000 0.000000 0.000000 0.000000 0.000000 0.037923
#
#
# Mechanical properties :
#
#
# Convention : Reuss Voigt Hill
#
# Bulk Modulus (GPa) = 42.80035 68.91923 55.85979
# Shear Modulus (GPa) = 20.55090 24.10257 22.32674
#
# Velocity S-wave (km/s) = 3.51631 3.80805 3.66509
# Velocity P-wave (km/s) = 6.49898 7.79745 7.17764
#
# Compressibility (1/GPa) = 0.02336430
#
# Stress axis : x y z
#
# Youngs Moduli (GPa) = 24.78323 62.98375 85.99334
#
# Poissons Ratio (x) = 0.67854 0.54370
# Poissons Ratio (y) = 0.26700 0.44286
# Poissons Ratio (z) = 0.15669 0.32436
#
# Static dielectric constant tensor:
#      x y z
#    x 1.560850 0.000000 0.000000 
#    y 0.000000 1.564250 0.000000 
#    z 0.000000 0.000000 1.534420 
# 
# From -- ./inp_files/60880.got.cif
#   From: 2010.05.17/outbox.cif.g08.bks.cpg/sg65_31_cif.got.tgz:60880.got - 2010.06.03 17:01:31.
