data_PCOD9486946
_publ_section_title
;
Structure prediction by ZEFSAII (Michael W. Deem and Ramdas Pophale) SiO2 
 PCOD9486946
Probable space group: C M M M
;
_chemical_formula_sum "Si O2"
_cell_formula_units_Z 120
_cell_length_a 9.027604
_cell_length_b 28.086379
_cell_length_c 26.253368
_cell_angle_alpha 90.000000
_cell_angle_beta 90.000000
_cell_angle_gamma 90.000000
_cell_volume 6656.612535
_symmetry_space_group_name_H-M "C M M M"
_symmetry_group_IT_number 65
_symmetry_cell_setting 'orthorhombic'
loop_
_space_group_symop_operation_xyz
x,y,z
-x,-y,z
x,-y,-z
-x,y,-z
-x,-y,-z
x,y,-z
-x,y,z
x,-y,z
1/2+x,1/2+y,z
1/2-x,1/2-y,z
1/2+x,1/2-y,-z
1/2-x,1/2+y,-z
1/2-x,1/2-y,-z
1/2+x,1/2+y,-z
1/2-x,1/2+y,z
1/2+x,1/2-y,z
loop_
_atom_site_type_symbol
_atom_site_label
_atom_site_fract_x
_atom_site_fract_y
_atom_site_fract_z
Si Si1 0.822823 0.357137 0.897429
Si Si2 0.822819 0.301365 0.206664
Si Si3 0.679316 0.802258 0.000000
Si Si4 0.177897 0.054683 0.153492
Si Si5 0.676152 0.602751 0.439974
Si Si6 0.669991 0.798051 0.561970
Si Si7 0.822932 0.889867 0.257580
Si Si8 0.174286 0.444757 0.650882
O O1 0.789327 0.322469 0.849716
O O2 0.777091 0.331699 0.949619
O O3 0.747849 0.407713 0.885635
O O4 0.000000 0.363909 0.898683
O O5 0.750000 0.250000 0.212539
O O6 0.753417 0.339727 0.245070
O O7 0.000000 0.298877 0.212356
O O8 0.750000 0.750000 0.000000
O O9 0.500000 0.797578 0.000000
O O10 0.212656 0.075060 0.209919
O O11 0.000000 0.055654 0.148269
O O12 0.227804 0.000000 0.147857
O O13 0.706268 0.595645 0.500000
O O14 0.500000 0.601047 0.432444
O O15 0.738743 0.654769 0.425102
O O16 0.758495 0.565333 0.404533
O O17 0.666990 0.795953 0.500000
O O18 0.500000 0.800933 0.579436
O O19 0.750000 0.750000 0.579887
O O20 0.759856 0.912615 0.308615
O O21 0.000000 0.884627 0.260040
O O22 0.193593 0.500000 0.664428
O O23 0.000000 0.433623 0.651225
#
# Coordination Sequence:
#
# PCOD9486946 Si02
#       8
#    16  16   8  16  16  16  16  16
#     4   9  19  33  50  75 107 143 184 228 270 319
#     4  10  19  33  54  81 112 145 181 220 268 323
#     4  10  20  34  51  74 105 141 184 229 273 320
#     4   9  18  33  54  79 105 135 175 222 270 321
#     4  10  21  37  57  81 109 142 181 221 260 307
#     4   9  16  28  49  76 105 136 170 208 250 296
#     4  10  20  36  58  82 108 138 174 218 267 319
#     4  11  24  40  58  81 109 140 174 215 265 319
#
# _framework density 18.027187999999999
#
# number of rings (size 3 to 8) (size 9 to 14) (size 15 to 20)
#    0.000    2.267    0.000    2.800    0.000    6.133 
#    0.000    2.333    0.000    2.000    0.000    0.000 
#    0.000    0.000    0.000    0.000    0.000    0.000 
#
# Total GULP energy -334937.875394 kJ/mol
# GULP energy per Si atom -5582.297923 kJ/mol
# Density = 1.798616 g / cm^3
# Si number density = 18.027188 Si / 1000 Ang^3
#
#
#
# Elastic Constant Matrix: (Units=GPa)
#
#
# Indices 1 2 3 4 5 6 
#
# 1 68.5207 58.2078 43.5060 0.0000 0.0000 0.0000
# 2 58.2078 138.3375 50.3355 0.0000 0.0000 0.0000
# 3 43.5060 50.3355 69.2608 0.0000 0.0000 0.0000
# 4 0.0000 0.0000 0.0000 20.4941 0.0000 0.0000
# 5 0.0000 0.0000 0.0000 0.0000 24.3199 0.0000
# 6 0.0000 0.0000 0.0000 0.0000 0.0000 34.8886
#
#
#
# Elastic Compliance Matrix: (Units=1/GPa)
#
#
# Indices 1 2 3 4 5 6 
#
# 1 0.029202 -0.007631 -0.012797 0.000000 0.000000 0.000000
# 2 -0.007631 0.011821 -0.003798 0.000000 0.000000 0.000000
# 3 -0.012797 -0.003798 0.025237 0.000000 0.000000 0.000000
# 4 0.000000 0.000000 0.000000 0.048795 0.000000 0.000000
# 5 0.000000 0.000000 0.000000 0.000000 0.041119 0.000000
# 6 0.000000 0.000000 0.000000 0.000000 0.000000 0.028663
#
#
# Mechanical properties :
#
#
# Convention : Reuss Voigt Hill
#
# Bulk Modulus (GPa) = 56.15450 64.46863 60.31156
# Shear Modulus (GPa) = 20.90086 24.21182 22.55634
#
# Velocity S-wave (km/s) = 3.40870 3.66877 3.54112
# Velocity P-wave (km/s) = 6.83446 7.33390 7.08858
#
# Compressibility (1/GPa) = 0.01780801
#
# Stress axis : x y z
#
# Youngs Moduli (GPa) = 34.24438 84.59235 39.62418
#
# Poissons Ratio (x) = 0.64550 0.50709
# Poissons Ratio (y) = 0.26131 0.15049
# Poissons Ratio (z) = 0.43824 0.32129
#
# Static dielectric constant tensor:
#      x y z
#    x 1.599060 0.000000 0.000000 
#    y 0.000000 1.598010 0.000000 
#    z 0.000000 0.000000 1.617750 
# 
# From -- ./inp_files/73947.got.cif
#   From: 2010.05.17/outbox.cif.g08.bks.cpg/sg65_37_cif.got.tgz:73947.got - 2010.06.03 17:01:31.
