data_PCOD9486671
_publ_section_title
;
Structure prediction by ZEFSAII (Michael W. Deem and Ramdas Pophale) SiO2 
 PCOD9486671
Probable space group: C M M M
;
_chemical_formula_sum "Si O2"
_cell_formula_units_Z 104
_cell_length_a 29.626931
_cell_length_b 8.750445
_cell_length_c 24.068965
_cell_angle_alpha 90.000000
_cell_angle_beta 90.000000
_cell_angle_gamma 90.000000
_cell_volume 6239.851021
_symmetry_space_group_name_H-M "C M M M"
_symmetry_group_IT_number 65
_symmetry_cell_setting 'orthorhombic'
loop_
_space_group_symop_operation_xyz
x,y,z
-x,-y,z
x,-y,-z
-x,y,-z
-x,-y,-z
x,y,-z
-x,y,z
x,-y,z
1/2+x,1/2+y,z
1/2-x,1/2-y,z
1/2+x,1/2-y,-z
1/2-x,1/2+y,-z
1/2-x,1/2-y,-z
1/2+x,1/2+y,-z
1/2-x,1/2+y,z
1/2+x,1/2-y,z
loop_
_atom_site_type_symbol
_atom_site_label
_atom_site_fract_x
_atom_site_fract_y
_atom_site_fract_z
Si Si1 0.447382 0.685338 0.878288
Si Si2 0.701969 0.816980 0.600464
Si Si3 0.447657 0.184428 0.336412
Si Si4 0.108744 0.182705 0.561869
Si Si5 0.945206 0.176602 0.000000
Si Si6 0.702375 0.183252 0.731536
Si Si7 0.106290 0.315079 0.225204
O O1 0.500000 0.729081 0.869310
O O2 0.446095 0.500000 0.879061
O O3 0.416550 0.747646 0.829368
O O4 0.432672 0.742273 0.939838
O O5 0.750000 0.750000 0.581786
O O6 0.659125 0.747456 0.569748
O O7 0.696763 0.777225 0.666159
O O8 0.702058 0.000000 0.595285
O O9 0.500000 0.230233 0.334744
O O10 0.422331 0.250735 0.389677
O O11 0.422195 0.230424 0.279868
O O12 0.445397 0.000000 0.339400
O O13 0.092288 0.223700 0.500000
O O14 0.110081 0.000000 0.566431
O O15 0.000000 0.173844 0.000000
O O16 0.929905 0.000000 0.000000
O O17 0.750000 0.250000 0.750831
O O18 0.658011 0.233921 0.764621
O O19 0.704544 0.000000 0.734289
O O20 0.105341 0.500000 0.222188
#
# Coordination Sequence:
#
# PCOD9486671 Si02
#       7
#    16  16  16  16   8  16  16
#     4   9  17  29  47  73 103 138 177 210 242 285
#     4  10  19  35  57  79 102 129 162 201 249 306
#     4  10  21  38  57  74  97 132 169 205 252 307
#     4  11  24  39  54  74 100 130 166 209 256 303
#     4   7  12  26  45  65  98 139 174 209 244 281
#     4   9  18  32  51  74 100 128 159 196 244 297
#     4  10  19  33  51  75 105 133 161 201 252 299
#
# _framework density 16.667064
#
# number of rings (size 3 to 8) (size 9 to 14) (size 15 to 20)
#    0.000    2.385    1.538    2.308    0.000    4.923 
#    0.000    1.923    0.000    1.385    0.000    0.538 
#    0.000    0.000    0.000    0.000    0.000    0.000 
#
# Total GULP energy -290032.429536 kJ/mol
# GULP energy per Si atom -5577.546722 kJ/mol
# Density = 1.662913 g / cm^3
# Si number density = 16.667064 Si / 1000 Ang^3
#
#
#
# Elastic Constant Matrix: (Units=GPa)
#
#
# Indices 1 2 3 4 5 6 
#
# 1 122.0284 26.2005 76.9471 0.0000 0.0000 0.0000
# 2 26.2005 10.6157 28.7032 0.0000 0.0000 0.0000
# 3 76.9471 28.7032 142.6586 0.0000 0.0000 0.0000
# 4 0.0000 0.0000 0.0000 16.2183 0.0000 0.0000
# 5 0.0000 0.0000 0.0000 0.0000 22.4248 0.0000
# 6 0.0000 0.0000 0.0000 0.0000 0.0000 27.6713
#
#
#
# Elastic Compliance Matrix: (Units=1/GPa)
#
#
# Indices 1 2 3 4 5 6 
#
# 1 0.017609 -0.038992 -0.001653 0.000000 0.000000 0.000000
# 2 -0.038992 0.292928 -0.037907 0.000000 0.000000 0.000000
# 3 -0.001653 -0.037907 0.015528 0.000000 0.000000 0.000000
# 4 0.000000 0.000000 0.000000 0.061659 0.000000 0.000000
# 5 0.000000 0.000000 0.000000 0.000000 0.044593 0.000000
# 6 0.000000 0.000000 0.000000 0.000000 0.000000 0.036139
#
#
# Mechanical properties :
#
#
# Convention : Reuss Voigt Hill
#
# Bulk Modulus (GPa) = 5.91844 59.88938 32.90391
# Shear Modulus (GPa) = 7.33269 22.82635 15.07952
#
# Velocity S-wave (km/s) = 2.09978 3.70476 3.01117
# Velocity P-wave (km/s) = 3.07204 7.36960 5.64573
#
# Compressibility (1/GPa) = 0.16896340
#
# Stress axis : x y z
#
# Youngs Moduli (GPa) = 56.79014 3.41381 64.39988
#
# Poissons Ratio (x) = 0.13311 0.10643
# Poissons Ratio (y) = 2.21434 2.44117
# Poissons Ratio (z) = 0.09385 0.12941
#
# Static dielectric constant tensor:
#      x y z
#    x 1.547620 0.000000 0.000000 
#    y 0.000000 1.564930 0.000000 
#    z 0.000000 0.000000 1.566420 
# 
# From -- ./inp_files/66417.got.cif
#   From: 2010.05.17/outbox.cif.g08.bks.cpg/sg65_34_cif.got.tgz:66417.got - 2010.06.03 17:01:31.
