data_PCOD9486324
_publ_section_title
;
Structure prediction by ZEFSAII (Michael W. Deem and Ramdas Pophale) SiO2 
 PCOD9486324
Probable space group: C M M M
;
_chemical_formula_sum "Si O2"
_cell_formula_units_Z 104
_cell_length_a 8.108610
_cell_length_b 29.416693
_cell_length_c 24.118290
_cell_angle_alpha 90.000000
_cell_angle_beta 90.000000
_cell_angle_gamma 90.000000
_cell_volume 5752.899320
_symmetry_space_group_name_H-M "C M M M"
_symmetry_group_IT_number 65
_symmetry_cell_setting 'orthorhombic'
loop_
_space_group_symop_operation_xyz
x,y,z
-x,-y,z
x,-y,-z
-x,y,-z
-x,-y,-z
x,y,-z
-x,y,z
x,-y,z
1/2+x,1/2+y,z
1/2-x,1/2-y,z
1/2+x,1/2-y,-z
1/2-x,1/2+y,-z
1/2-x,1/2-y,-z
1/2+x,1/2+y,-z
1/2-x,1/2+y,z
1/2+x,1/2-y,z
loop_
_atom_site_type_symbol
_atom_site_label
_atom_site_fract_x
_atom_site_fract_y
_atom_site_fract_z
Si Si1 0.699801 0.949266 0.280220
Si Si2 0.304891 0.449242 0.592286
Si Si3 0.700030 0.197257 0.878800
Si Si4 0.191648 0.198322 0.669935
Si Si5 0.305360 0.141679 0.773937
Si Si6 0.306079 0.148101 0.439264
Si Si7 0.301470 0.197224 0.000000
O O1 0.500000 0.945632 0.286378
O O2 0.774868 0.945165 0.341638
O O3 0.760377 0.908091 0.242119
O O4 0.736799 0.000000 0.259253
O O5 0.500000 0.446340 0.580938
O O6 0.247652 0.500000 0.575782
O O7 0.218204 0.406125 0.565439
O O8 0.500000 0.196487 0.878115
O O9 0.750000 0.250000 0.872066
O O10 0.763743 0.167123 0.827818
O O11 0.755870 0.180005 0.939770
O O12 0.250000 0.250000 0.664499
O O13 0.284240 0.172823 0.719650
O O14 0.219407 0.171976 0.612359
O O15 0.000000 0.197595 0.684239
O O16 0.500000 0.135830 0.784192
O O17 0.245621 0.163003 0.500000
O O18 0.500000 0.158349 0.435084
O O19 0.250000 0.250000 0.000000
O O20 0.500000 0.194073 0.000000
#
# Coordination Sequence:
#
# PCOD9486324 Si02
#       7
#    16  16  16  16  16  16   8
#     4   9  17  30  50  73  99 132 166 203 248 299
#     4  10  20  34  54  80 107 133 163 203 252 303
#     4   9  17  28  44  68  98 134 170 209 249 295
#     4  12  25  40  58  77 101 132 165 206 255 303
#     4  10  19  32  51  76 104 131 167 209 252 301
#     4  11  24  41  59  78 101 131 169 209 250 302
#     4   8  14  26  42  62  93 131 171 207 248 292
#
# _framework density 18.077842
#
# number of rings (size 3 to 8) (size 9 to 14) (size 15 to 20)
#    0.000    2.000    1.538    2.769    0.000    4.615 
#    0.000    1.538    0.000    0.000    0.000    0.538 
#    0.000    4.308    0.000    0.000    0.000   36.538 
#
# Total GULP energy -290129.606862 kJ/mol
# GULP energy per Si atom -5579.415517 kJ/mol
# Density = 1.803670 g / cm^3
# Si number density = 18.077842 Si / 1000 Ang^3
#
#
#
# Elastic Constant Matrix: (Units=GPa)
#
#
# Indices 1 2 3 4 5 6 
#
# 1 12.4763 -7.1681 -11.1324 0.0000 0.0000 0.0000
# 2 -7.1681 88.6270 42.0872 0.0000 0.0000 0.0000
# 3 -11.1324 42.0872 115.4056 0.0000 0.0000 0.0000
# 4 0.0000 0.0000 0.0000 28.3427 0.0000 0.0000
# 5 0.0000 0.0000 0.0000 0.0000 0.2188 0.0000
# 6 0.0000 0.0000 0.0000 0.0000 0.0000 20.4087
#
#
#
# Elastic Compliance Matrix: (Units=1/GPa)
#
#
# Indices 1 2 3 4 5 6 
#
# 1 0.088726 0.003763 0.007186 0.000000 0.000000 0.000000
# 2 0.003763 0.013806 -0.004672 0.000000 0.000000 0.000000
# 3 0.007186 -0.004672 0.011062 0.000000 0.000000 0.000000
# 4 0.000000 0.000000 0.000000 0.035282 0.000000 0.000000
# 5 0.000000 0.000000 0.000000 0.000000 4.570995 0.000000
# 6 0.000000 0.000000 0.000000 0.000000 0.000000 0.048999
#
#
# Mechanical properties :
#
#
# Convention : Reuss Voigt Hill
#
# Bulk Modulus (GPa) = 7.92706 29.34249 18.63477
# Shear Modulus (GPa) = 1.04202 22.64217 11.84209
#
# Velocity S-wave (km/s) = 0.76004 3.54288 2.56219
# Velocity P-wave (km/s) = 2.27260 5.74477 4.36847
#
# Compressibility (1/GPa) = 0.12615019
#
# Stress axis : x y z
#
# Youngs Moduli (GPa) = 11.27063 72.43098 90.39846
#
# Poissons Ratio (x) = -0.27259 -0.64964
# Poissons Ratio (y) = -0.04242 0.42234
# Poissons Ratio (z) = -0.08100 0.33840
#
# Static dielectric constant tensor:
#      x y z
#    x 1.628600 0.000000 0.000000 
#    y 0.000000 1.610730 0.000000 
#    z 0.000000 0.000000 1.641250 
# 
# From -- ./inp_files/68216.got.cif
#   From: 2010.05.17/outbox.cif.g08.bks.cpg/sg65_35_cif.got.tgz:68216.got - 2010.06.03 17:01:31.
