data_PCOD9486082
_publ_section_title
;
Structure prediction by ZEFSAII (Michael W. Deem and Ramdas Pophale) SiO2 
 PCOD9486082
Probable space group: C M M M
;
_chemical_formula_sum "Si O2"
_cell_formula_units_Z 104
_cell_length_a 33.661361
_cell_length_b 17.686376
_cell_length_c 12.170600
_cell_angle_alpha 90.000000
_cell_angle_beta 90.000000
_cell_angle_gamma 90.000000
_cell_volume 7245.736129
_symmetry_space_group_name_H-M "C M M M"
_symmetry_group_IT_number 65
_symmetry_cell_setting 'orthorhombic'
loop_
_space_group_symop_operation_xyz
x,y,z
-x,-y,z
x,-y,-z
-x,y,-z
-x,-y,-z
x,y,-z
-x,y,z
x,-y,z
1/2+x,1/2+y,z
1/2-x,1/2-y,z
1/2+x,1/2-y,-z
1/2-x,1/2+y,-z
1/2-x,1/2-y,-z
1/2+x,1/2+y,-z
1/2-x,1/2+y,z
1/2+x,1/2-y,z
loop_
_atom_site_type_symbol
_atom_site_label
_atom_site_fract_x
_atom_site_fract_y
_atom_site_fract_z
Si Si1 0.169975 0.180121 0.228815
Si Si2 0.610390 0.588584 0.625070
Si Si3 0.247675 0.590214 0.211059
Si Si4 0.453996 0.584257 0.193076
Si Si5 0.863715 0.766651 0.000000
Si Si6 0.289445 0.197528 0.626043
Si Si7 0.781871 0.321647 0.000000
Si Si8 0.546974 0.705196 0.000000
O O1 0.144110 0.136749 0.317862
O O2 0.209241 0.130199 0.209808
O O3 0.146554 0.189568 0.113890
O O4 0.182437 0.259095 0.286702
O O5 0.603739 0.611082 0.500000
O O6 0.621410 0.500000 0.627257
O O7 0.571812 0.597663 0.699785
O O8 0.250233 0.500000 0.204692
O O9 0.224739 0.619176 0.319863
O O10 0.226304 0.627845 0.106534
O O11 0.500000 0.582450 0.222815
O O12 0.443485 0.500000 0.148633
O O13 0.449183 0.649616 0.104226
O O14 0.827541 0.705859 0.000000
O O15 0.911232 0.747073 0.000000
O O16 0.304209 0.191480 0.500000
O O17 0.250000 0.250000 0.622260
O O18 0.750000 0.250000 0.000000
O O19 0.500000 0.734433 0.000000
#
# Coordination Sequence:
#
# PCOD9486082 Si02
#       8
#    16  16  16  16   8  16   8   8
#     4  11  19  33  48  69  93 125 166 199 241 285
#     4  10  20  31  43  63  91 122 162 208 243 276
#     4  11  21  32  48  70  98 127 159 206 247 279
#     4   9  17  29  44  61  85 118 154 194 242 292
#     4  12  20  31  55  70  90 124 158 197 240 291
#     4   9  18  32  49  65  88 128 168 196 231 283
#     4  12  19  36  50  70  97 128 165 197 238 297
#     4  10  19  32  48  71  93 114 151 200 248 287
#
# _framework density 14.353268999999999
#
# number of rings (size 3 to 8) (size 9 to 14) (size 15 to 20)
#    0.000    1.692    4.615    1.846    0.000    2.154 
#    0.000    2.692    0.000    0.000    0.000    0.000 
#    0.000    1.231    0.000    0.000    0.000    2.308 
#
# Total GULP energy -289480.630526 kJ/mol
# GULP energy per Si atom -5566.935202 kJ/mol
# Density = 1.432060 g / cm^3
# Si number density = 14.353269 Si / 1000 Ang^3
#
#
#
# Elastic Constant Matrix: (Units=GPa)
#
#
# Indices 1 2 3 4 5 6 
#
# 1 77.5714 24.3638 20.9285 0.0000 0.0000 0.0000
# 2 24.3638 50.9361 20.8615 0.0000 0.0000 0.0000
# 3 20.9285 20.8615 66.3751 0.0000 0.0000 0.0000
# 4 0.0000 0.0000 0.0000 19.7352 0.0000 0.0000
# 5 0.0000 0.0000 0.0000 0.0000 6.8019 0.0000
# 6 0.0000 0.0000 0.0000 0.0000 0.0000 18.1755
#
#
#
# Elastic Compliance Matrix: (Units=1/GPa)
#
#
# Indices 1 2 3 4 5 6 
#
# 1 0.015663 -0.006277 -0.002966 0.000000 0.000000 0.000000
# 2 -0.006277 0.025049 -0.005893 0.000000 0.000000 0.000000
# 3 -0.002966 -0.005893 0.017853 0.000000 0.000000 0.000000
# 4 0.000000 0.000000 0.000000 0.050671 0.000000 0.000000
# 5 0.000000 0.000000 0.000000 0.000000 0.147017 0.000000
# 6 0.000000 0.000000 0.000000 0.000000 0.000000 0.055019
#
#
# Mechanical properties :
#
#
# Convention : Reuss Voigt Hill
#
# Bulk Modulus (GPa) = 35.34557 36.35448 35.85002
# Shear Modulus (GPa) = 14.24599 17.52444 15.88521
#
# Velocity S-wave (km/s) = 3.15386 3.49798 3.33037
# Velocity P-wave (km/s) = 6.15965 6.45739 6.31028
#
# Compressibility (1/GPa) = 0.02829209
#
# Stress axis : x y z
#
# Youngs Moduli (GPa) = 63.84434 39.92215 56.01207
#
# Poissons Ratio (x) = 0.25061 0.16612
# Poissons Ratio (y) = 0.40077 0.33010
# Poissons Ratio (z) = 0.18934 0.23528
#
# Static dielectric constant tensor:
#      x y z
#    x 1.488450 0.000000 0.000000 
#    y 0.000000 1.468440 0.000000 
#    z 0.000000 0.000000 1.486030 
# 
# From -- ./inp_files/34188.got.cif
#   From: 2010.05.17/outbox.cif.g08.bks.cpg/sg65_18_cif.got.tgz:34188.got - 2010.06.03 17:01:31.
