data_PCOD9486494
_publ_section_title
;
Structure prediction by ZEFSAII (Michael W. Deem and Ramdas Pophale) SiO2 
 PCOD9486494
Probable space group: C M M M
;
_chemical_formula_sum "Si O2"
_cell_formula_units_Z 88
_cell_length_a 27.680060
_cell_length_b 8.094422
_cell_length_c 23.181159
_cell_angle_alpha 90.000000
_cell_angle_beta 90.000000
_cell_angle_gamma 90.000000
_cell_volume 5193.833407
_symmetry_space_group_name_H-M "C M M M"
_symmetry_group_IT_number 65
_symmetry_cell_setting 'orthorhombic'
loop_
_space_group_symop_operation_xyz
x,y,z
-x,-y,z
x,-y,-z
-x,y,-z
-x,-y,-z
x,y,-z
-x,y,z
x,-y,z
1/2+x,1/2+y,z
1/2-x,1/2-y,z
1/2+x,1/2-y,-z
1/2-x,1/2+y,-z
1/2-x,1/2-y,-z
1/2+x,1/2+y,-z
1/2-x,1/2+y,z
1/2+x,1/2-y,z
loop_
_atom_site_type_symbol
_atom_site_label
_atom_site_fract_x
_atom_site_fract_y
_atom_site_fract_z
Si Si1 0.695311 0.800458 0.300491
Si Si2 0.099884 0.192319 0.362203
Si Si3 0.945706 0.196528 0.236321
Si Si4 0.442817 0.000000 0.568958
Si Si5 0.849405 0.307893 0.819037
Si Si6 0.805110 0.804207 0.063326
O O1 0.750000 0.750000 0.313523
O O2 0.655389 0.724812 0.343361
O O3 0.681077 0.739566 0.235679
O O4 0.690479 0.000000 0.302246
O O5 0.069526 0.217388 0.303039
O O6 0.081778 0.334354 0.405299
O O7 0.093788 0.000000 0.380535
O O8 0.904931 0.280483 0.197895
O O9 0.000000 0.256930 0.226929
O O10 0.944156 0.000000 0.224878
O O11 0.500000 0.000000 0.583790
O O12 0.438375 0.000000 0.500000
O O13 0.838017 0.500000 0.821076
O O14 0.836431 0.240359 0.881375
O O15 0.750000 0.750000 0.073642
O O16 0.805389 0.000000 0.059472
O O17 0.819993 0.736350 0.000000
#
# Coordination Sequence:
#
# PCOD9486494 Si02
#       6
#    16  16  16   8  16  16
#     4  10  19  32  52  83 114 146 181 222 276 328
#     4  10  20  37  58  84 115 149 184 226 275 328
#     4   9  18  32  52  77 105 137 172 213 264 318
#     4  11  24  40  60  86 116 150 187 231 274 318
#     4  10  20  31  47  74 107 136 170 216 264 316
#     4  10  20  33  49  68  94 132 172 212 258 310
#
# _framework density 16.943169000000001
#
# number of rings (size 3 to 8) (size 9 to 14) (size 15 to 20)
#    0.000    2.091    0.909    2.727    1.273    6.545 
#    0.000    0.909    0.000    1.091    0.000    3.818 
#    0.000    0.000    0.000    0.000    0.000    0.000 
#
# Total GULP energy -245385.627062 kJ/mol
# GULP energy per Si atom -5576.946070 kJ/mol
# Density = 1.690461 g / cm^3
# Si number density = 16.943169 Si / 1000 Ang^3
#
#
#
# Elastic Constant Matrix: (Units=GPa)
#
#
# Indices 1 2 3 4 5 6 
#
# 1 101.8263 28.4951 47.6721 0.0000 0.0000 0.0000
# 2 28.4951 78.4782 49.3584 0.0000 0.0000 0.0000
# 3 47.6721 49.3584 87.6983 0.0000 0.0000 0.0000
# 4 0.0000 0.0000 0.0000 24.9368 0.0000 0.0000
# 5 0.0000 0.0000 0.0000 0.0000 21.1795 0.0000
# 6 0.0000 0.0000 0.0000 0.0000 0.0000 27.9105
#
#
#
# Elastic Compliance Matrix: (Units=1/GPa)
#
#
# Indices 1 2 3 4 5 6 
#
# 1 0.013183 -0.000433 -0.006922 0.000000 0.000000 0.000000
# 2 -0.000433 0.019739 -0.010874 0.000000 0.000000 0.000000
# 3 -0.006922 -0.010874 0.021286 0.000000 0.000000 0.000000
# 4 0.000000 0.000000 0.000000 0.040101 0.000000 0.000000
# 5 0.000000 0.000000 0.000000 0.000000 0.047215 0.000000
# 6 0.000000 0.000000 0.000000 0.000000 0.000000 0.035829
#
#
# Mechanical properties :
#
#
# Convention : Reuss Voigt Hill
#
# Bulk Modulus (GPa) = 56.34228 57.67268 57.00748
# Shear Modulus (GPa) = 22.75545 24.30385 23.52965
#
# Velocity S-wave (km/s) = 3.66873 3.79150 3.73062
# Velocity P-wave (km/s) = 7.16045 7.29932 7.23022
#
# Compressibility (1/GPa) = 0.01774866
#
# Stress axis : x y z
#
# Youngs Moduli (GPa) = 75.85751 50.66180 46.97947
#
# Poissons Ratio (x) = 0.02192 0.32521
# Poissons Ratio (y) = 0.03283 0.51086
# Poissons Ratio (z) = 0.52512 0.55090
#
# Static dielectric constant tensor:
#      x y z
#    x 1.558310 0.000000 0.000000 
#    y 0.000000 1.543450 0.000000 
#    z 0.000000 0.000000 1.583580 
# 
# From -- ./inp_files/65198.got.cif
#   From: 2010.05.17/outbox.cif.g08.bks.cpg/sg65_33_cif.got.tgz:65198.got - 2010.06.03 17:01:31.
