data_PCOD9486501
_publ_section_title
;
Structure prediction by ZEFSAII (Michael W. Deem and Ramdas Pophale) SiO2 
 PCOD9486501
Probable space group: C M M M
;
_chemical_formula_sum "Si O2"
_cell_formula_units_Z 120
_cell_length_a 26.042432
_cell_length_b 21.405379
_cell_length_c 12.756117
_cell_angle_alpha 90.000000
_cell_angle_beta 90.000000
_cell_angle_gamma 90.000000
_cell_volume 7110.873530
_symmetry_space_group_name_H-M "C M M M"
_symmetry_group_IT_number 65
_symmetry_cell_setting 'orthorhombic'
loop_
_space_group_symop_operation_xyz
x,y,z
-x,-y,z
x,-y,-z
-x,y,-z
-x,-y,-z
x,y,-z
-x,y,z
x,-y,z
1/2+x,1/2+y,z
1/2-x,1/2-y,z
1/2+x,1/2-y,-z
1/2-x,1/2+y,-z
1/2-x,1/2-y,-z
1/2+x,1/2+y,-z
1/2-x,1/2+y,z
1/2+x,1/2-y,z
loop_
_atom_site_type_symbol
_atom_site_label
_atom_site_fract_x
_atom_site_fract_y
_atom_site_fract_z
Si Si1 0.871200 0.319524 0.734667
Si Si2 0.322646 0.294927 0.619624
Si Si3 0.938889 0.773391 0.875519
Si Si4 0.060829 0.426447 0.374097
Si Si5 0.440159 0.500000 0.384607
Si Si6 0.604372 0.385225 0.264033
Si Si7 0.806693 0.931531 0.882625
Si Si8 0.757636 0.681643 0.807569
O O1 0.850387 0.270655 0.646875
O O2 0.906720 0.280550 0.815842
O O3 0.902725 0.377493 0.686502
O O4 0.816903 0.334813 0.789469
O O5 0.305938 0.297452 0.500000
O O6 0.366004 0.345284 0.648051
O O7 0.275823 0.309467 0.699774
O O8 0.924396 0.836988 0.813380
O O9 0.000000 0.762383 0.866676
O O10 0.926072 0.777073 0.000000
O O11 0.067536 0.418887 0.500000
O O12 0.071228 0.500000 0.349762
O O13 0.000000 0.414966 0.351620
O O14 0.500000 0.500000 0.398962
O O15 0.414412 0.500000 0.500000
O O16 0.427601 0.561927 0.320143
O O17 0.647533 0.419965 0.196733
O O18 0.768070 0.874676 0.868555
O O19 0.783086 0.000000 0.864415
O O20 0.827540 0.930178 0.000000
O O21 0.750000 0.750000 0.859137
#
# Coordination Sequence:
#
# PCOD9486501 Si02
#       8
#    16  16  16  16   8  16  16  16
#     4  10  19  32  53  76 100 134 172 212 258 312
#     4   9  18  32  51  75 103 135 168 205 253 303
#     4  10  21  36  54  76 103 134 171 220 269 309
#     4   9  18  32  50  74 103 134 169 210 259 312
#     4  11  22  34  51  75 105 141 176 212 252 297
#     4  10  19  35  53  75 103 135 175 212 251 306
#     4  10  20  35  55  75 100 134 170 214 261 306
#     4   9  20  33  49  76 104 132 167 210 257 308
#
# _framework density 16.875564000000001
#
# number of rings (size 3 to 8) (size 9 to 14) (size 15 to 20)
#    0.000    2.333    0.667    3.200    0.000    4.267 
#    0.000    0.000    0.000    8.400    0.000    1.867 
#    0.000    0.000    0.000    0.000    0.000    0.000 
#
# Total GULP energy -334201.599949 kJ/mol
# GULP energy per Si atom -5570.026666 kJ/mol
# Density = 1.683715 g / cm^3
# Si number density = 16.875564 Si / 1000 Ang^3
#
#
#
# Elastic Constant Matrix: (Units=GPa)
#
#
# Indices 1 2 3 4 5 6 
#
# 1 88.3159 50.7204 23.2815 0.0000 0.0000 0.0000
# 2 50.7204 115.6920 43.5090 0.0000 0.0000 0.0000
# 3 23.2815 43.5090 73.6529 0.0000 0.0000 0.0000
# 4 0.0000 0.0000 0.0000 10.5922 0.0000 0.0000
# 5 0.0000 0.0000 0.0000 0.0000 -14.8532 0.0000
# 6 0.0000 0.0000 0.0000 0.0000 0.0000 32.4768
#
#
#
# Elastic Compliance Matrix: (Units=1/GPa)
#
#
# Indices 1 2 3 4 5 6 
#
# 1 0.015204 -0.006246 -0.001116 0.000000 0.000000 0.000000
# 2 -0.006246 0.013678 -0.006106 0.000000 0.000000 0.000000
# 3 -0.001116 -0.006106 0.017537 0.000000 0.000000 0.000000
# 4 0.000000 0.000000 0.000000 0.094409 0.000000 0.000000
# 5 0.000000 0.000000 0.000000 0.000000 -0.067326 0.000000
# 6 0.000000 0.000000 0.000000 0.000000 0.000000 0.030791
#
#
# Mechanical properties :
#
#
# Convention : Reuss Voigt Hill
#
# Bulk Modulus (GPa) = 51.32606 56.96474 54.14540
# Shear Modulus (GPa) = 36.30425 16.31982 26.31203
#
# Velocity S-wave (km/s) = 4.64323 3.11315 3.95293
# Velocity P-wave (km/s) = 7.69588 6.83749 7.27935
#
# Compressibility (1/GPa) = 0.01948328
#
# Stress axis : x y z
#
# Youngs Moduli (GPa) = 65.77069 73.10952 57.02244
#
# Poissons Ratio (x) = 0.45663 0.06366
# Poissons Ratio (y) = 0.41079 0.34817
# Poissons Ratio (z) = 0.07343 0.44639
#
# Static dielectric constant tensor:
#      x y z
#    x 1.557760 0.000000 0.000000 
#    y 0.000000 1.582700 0.000000 
#    z 0.000000 0.000000 1.565520 
# 
# From -- ./inp_files/31123.got.cif
#   From: 2010.05.17/outbox.cif.g08.bks.cpg/sg65_16_cif.got.tgz:31123.got - 2010.06.03 17:01:31.
