data_PCOD9486183
_publ_section_title
;
Structure prediction by ZEFSAII (Michael W. Deem and Ramdas Pophale) SiO2 
 PCOD9486183
Probable space group: C M M M
;
_chemical_formula_sum "Si O2"
_cell_formula_units_Z 104
_cell_length_a 24.493741
_cell_length_b 8.662393
_cell_length_c 29.386948
_cell_angle_alpha 90.000000
_cell_angle_beta 90.000000
_cell_angle_gamma 90.000000
_cell_volume 6235.158371
_symmetry_space_group_name_H-M "C M M M"
_symmetry_group_IT_number 65
_symmetry_cell_setting 'orthorhombic'
loop_
_space_group_symop_operation_xyz
x,y,z
-x,-y,z
x,-y,-z
-x,y,-z
-x,-y,-z
x,y,-z
-x,y,z
x,-y,z
1/2+x,1/2+y,z
1/2-x,1/2-y,z
1/2+x,1/2-y,-z
1/2-x,1/2+y,-z
1/2-x,1/2-y,-z
1/2+x,1/2+y,-z
1/2-x,1/2+y,z
1/2+x,1/2-y,z
loop_
_atom_site_type_symbol
_atom_site_label
_atom_site_fract_x
_atom_site_fract_y
_atom_site_fract_z
Si Si1 0.500000 0.674958 0.554976
Si Si2 0.688522 0.314840 0.000000
Si Si3 0.188831 0.185064 0.631783
Si Si4 0.000000 0.312426 0.052974
Si Si5 0.380043 0.186216 0.915066
Si Si6 0.188631 0.814367 0.269561
Si Si7 0.312149 0.313685 0.831178
Si Si8 0.615390 0.815888 0.447607
O O1 0.500000 0.500000 0.572528
O O2 0.500000 0.668220 0.500000
O O3 0.444915 0.762661 0.566989
O O4 0.750000 0.250000 0.000000
O O5 0.655970 0.253233 0.043774
O O6 0.690047 0.500000 0.000000
O O7 0.250000 0.250000 0.630186
O O8 0.164168 0.232172 0.681430
O O9 0.156722 0.247596 0.588677
O O10 0.190162 0.000000 0.629896
O O11 0.943294 0.265763 0.076999
O O12 0.000000 0.500000 0.052272
O O13 0.000000 0.261498 0.000000
O O14 0.352296 0.246475 0.869035
O O15 0.377770 0.000000 0.916399
O O16 0.250000 0.750000 0.270189
O O17 0.167179 0.769116 0.219756
O O18 0.190614 0.000000 0.269595
O O19 0.309979 0.500000 0.834654
O O20 0.250000 0.250000 0.836894
O O21 0.624965 0.762806 0.500000
O O22 0.618609 0.000000 0.447586
#
# Coordination Sequence:
#
# PCOD9486183 Si02
#       8
#     8   8  16   8  16  16  16  16
#     4   9  17  31  51  72  93 122 163 208 251 297
#     4  12  24  37  52  75 105 136 164 198 245 294
#     4  10  19  32  50  73 100 133 171 209 253 304
#     4   9  18  36  58  75  96 133 174 207 243 289
#     4  11  21  36  56  77 101 132 169 207 246 293
#     4   8  16  30  49  71  98 130 165 205 248 298
#     4  10  19  33  52  78 107 133 164 204 253 302
#     4  10  20  33  49  71 100 133 168 209 256 305
#
# _framework density 16.679608999999999
#
# number of rings (size 3 to 8) (size 9 to 14) (size 15 to 20)
#    0.000    2.154    0.769    3.231    0.000    3.385 
#    0.000    1.923    0.000    0.923    0.000    5.385 
#    0.000    0.000    0.000    0.000    0.000    0.000 
#
# Total GULP energy -289786.397260 kJ/mol
# GULP energy per Si atom -5572.815332 kJ/mol
# Density = 1.664165 g / cm^3
# Si number density = 16.679609 Si / 1000 Ang^3
#
#
#
# Elastic Constant Matrix: (Units=GPa)
#
#
# Indices 1 2 3 4 5 6 
#
# 1 113.8971 35.9841 83.2058 0.0000 0.0000 0.0000
# 2 35.9841 62.4422 47.3611 0.0000 0.0000 0.0000
# 3 83.2058 47.3611 168.0883 0.0000 0.0000 0.0000
# 4 0.0000 0.0000 0.0000 16.6722 0.0000 0.0000
# 5 0.0000 0.0000 0.0000 0.0000 -4.1125 0.0000
# 6 0.0000 0.0000 0.0000 0.0000 0.0000 25.3893
#
#
#
# Elastic Compliance Matrix: (Units=1/GPa)
#
#
# Indices 1 2 3 4 5 6 
#
# 1 0.014387 -0.003675 -0.006086 0.000000 0.000000 0.000000
# 2 -0.003675 0.021306 -0.004184 0.000000 0.000000 0.000000
# 3 -0.006086 -0.004184 0.010141 0.000000 0.000000 0.000000
# 4 0.000000 0.000000 0.000000 0.059980 0.000000 0.000000
# 5 0.000000 0.000000 0.000000 0.000000 -0.243159 0.000000
# 6 0.000000 0.000000 0.000000 0.000000 0.000000 0.039387
#
#
# Mechanical properties :
#
#
# Convention : Reuss Voigt Hill
#
# Bulk Modulus (GPa) = 55.72989 75.28107 65.50548
# Shear Modulus (GPa) = -78.01986 19.44824 -29.28581
#
# Velocity S-wave (km/s) = -6.84669 3.41836 -4.19475
# Velocity P-wave (km/s) = 5.38687 7.79819 3.98707
#
# Compressibility (1/GPa) = 0.01794369
#
# Stress axis : x y z
#
# Youngs Moduli (GPa) = 69.50653 46.93488 98.60841
#
# Poissons Ratio (x) = 0.17246 0.60018
# Poissons Ratio (y) = 0.25540 0.41261
# Poissons Ratio (z) = 0.42305 0.19639
#
# Static dielectric constant tensor:
#      x y z
#    x 1.527700 0.000000 0.000000 
#    y 0.000000 1.565190 0.000000 
#    z 0.000000 0.000000 1.592730 
# 
# From -- ./inp_files/75876.got.cif
#   From: 2010.05.17/outbox.cif.g08.bks.cpg/sg65_38_cif.got.tgz:75876.got - 2010.06.03 17:01:31.
