data_PCOD9486564
_publ_section_title
;
Structure prediction by ZEFSAII (Michael W. Deem and Ramdas Pophale) SiO2 
 PCOD9486564
Probable space group: C M M M
;
_chemical_formula_sum "Si O2"
_cell_formula_units_Z 88
_cell_length_a 20.024946
_cell_length_b 29.659631
_cell_length_c 7.560019
_cell_angle_alpha 90.000000
_cell_angle_beta 90.000000
_cell_angle_gamma 90.000000
_cell_volume 4490.141054
_symmetry_space_group_name_H-M "C M M M"
_symmetry_group_IT_number 65
_symmetry_cell_setting 'orthorhombic'
loop_
_space_group_symop_operation_xyz
x,y,z
-x,-y,z
x,-y,-z
-x,y,-z
-x,-y,-z
x,y,-z
-x,y,z
x,-y,z
1/2+x,1/2+y,z
1/2-x,1/2-y,z
1/2+x,1/2-y,-z
1/2-x,1/2+y,-z
1/2-x,1/2-y,-z
1/2+x,1/2+y,-z
1/2-x,1/2+y,z
1/2+x,1/2-y,z
loop_
_atom_site_type_symbol
_atom_site_label
_atom_site_fract_x
_atom_site_fract_y
_atom_site_fract_z
Si Si1 0.218410 0.796940 0.293385
Si Si2 0.925061 0.662046 0.216234
Si Si3 0.425043 0.733533 0.213701
Si Si4 0.075712 0.055012 0.500000
Si Si5 0.795716 0.615189 0.201351
Si Si6 0.179945 0.053965 0.207311
O O1 0.235818 0.800719 0.500000
O O2 0.250000 0.750000 0.225763
O O3 0.138591 0.794513 0.275411
O O4 0.251650 0.839327 0.200516
O O5 0.914381 0.714198 0.269735
O O6 0.866242 0.629919 0.282052
O O7 0.000000 0.648922 0.267788
O O8 0.922423 0.662272 0.000000
O O9 0.500000 0.720018 0.270999
O O10 0.424664 0.732862 0.000000
O O11 0.117805 0.068553 0.327524
O O12 0.000000 0.071509 0.500000
O O13 0.073526 0.000000 0.500000
O O14 0.747251 0.577308 0.277689
O O15 0.809723 0.600665 0.000000
O O16 0.185586 0.000000 0.218066
O O17 0.170723 0.066017 0.000000
#
# Coordination Sequence:
#
# PCOD9486564 Si02
#       6
#    16  16  16   8  16  16
#     4  11  22  32  45  71 103 133 166 210 257 305
#     4   8  14  26  47  74  98 125 168 214 251 294
#     4   9  17  31  50  68  90 125 168 211 250 293
#     4   9  18  34  58  84 106 137 177 217 271 325
#     4  10  19  32  54  76  98 135 174 213 258 307
#     4   9  19  35  55  83 112 138 176 222 267 317
#
# _framework density 19.598493999999999
#
# number of rings (size 3 to 8) (size 9 to 14) (size 15 to 20)
#    0.000    2.636    1.818    1.636    1.273    1.455 
#    0.000    2.727    0.000    2.182    0.000    3.818 
#    0.000    2.182    0.000    0.182    0.000    0.000 
#
# Total GULP energy -245426.831250 kJ/mol
# GULP energy per Si atom -5577.882528 kJ/mol
# Density = 1.955389 g / cm^3
# Si number density = 19.598494 Si / 1000 Ang^3
#
#
#
# Elastic Constant Matrix: (Units=GPa)
#
#
# Indices 1 2 3 4 5 6 
#
# 1 166.6727 27.9932 18.6758 0.0000 0.0000 0.0000
# 2 27.9932 21.8076 10.9173 0.0000 0.0000 0.0000
# 3 18.6758 10.9173 61.7220 0.0000 0.0000 0.0000
# 4 0.0000 0.0000 0.0000 13.7061 0.0000 0.0000
# 5 0.0000 0.0000 0.0000 0.0000 -54.4815 0.0000
# 6 0.0000 0.0000 0.0000 0.0000 0.0000 29.2907
#
#
#
# Elastic Compliance Matrix: (Units=1/GPa)
#
#
# Indices 1 2 3 4 5 6 
#
# 1 0.007671 -0.009529 -0.000636 0.000000 0.000000 0.000000
# 2 -0.009529 0.062147 -0.008109 0.000000 0.000000 0.000000
# 3 -0.000636 -0.008109 0.017828 0.000000 0.000000 0.000000
# 4 0.000000 0.000000 0.000000 0.072960 0.000000 0.000000
# 5 0.000000 0.000000 0.000000 0.000000 -0.018355 0.000000
# 6 0.000000 0.000000 0.000000 0.000000 0.000000 0.034141
#
#
# Mechanical properties :
#
#
# Convention : Reuss Voigt Hill
#
# Bulk Modulus (GPa) = 19.56989 40.59722 30.08356
# Shear Modulus (GPa) = 21.74160 10.54413 16.14287
#
# Velocity S-wave (km/s) = 3.33430 2.32201 2.87309
# Velocity P-wave (km/s) = 4.98302 5.28663 5.13707
#
# Compressibility (1/GPa) = 0.05109892
#
# Stress axis : x y z
#
# Youngs Moduli (GPa) = 130.35318 16.09083 56.09041
#
# Poissons Ratio (x) = 0.15333 0.03566
# Poissons Ratio (y) = 1.24216 0.45485
# Poissons Ratio (z) = 0.08287 0.13048
#
# Static dielectric constant tensor:
#      x y z
#    x 1.703340 0.000000 0.000000 
#    y 0.000000 1.666070 0.000000 
#    z 0.000000 0.000000 1.739740 
# 
# From -- ./inp_files/10116.got.cif
#   From: 2010.05.17/outbox.cif.g08.bks.cpg/sg65_6_cif.got.tgz:10116.got - 2010.06.03 17:01:31.
