data_PCOD9486879
_publ_section_title
;
Structure prediction by ZEFSAII (Michael W. Deem and Ramdas Pophale) SiO2 
 PCOD9486879
Probable space group: C M M M
;
_chemical_formula_sum "Si O2"
_cell_formula_units_Z 88
_cell_length_a 8.806579
_cell_length_b 16.347165
_cell_length_c 31.906092
_cell_angle_alpha 90.000000
_cell_angle_beta 90.000000
_cell_angle_gamma 90.000000
_cell_volume 4593.283960
_symmetry_space_group_name_H-M "C M M M"
_symmetry_group_IT_number 65
_symmetry_cell_setting 'orthorhombic'
loop_
_space_group_symop_operation_xyz
x,y,z
-x,-y,z
x,-y,-z
-x,y,-z
-x,-y,-z
x,y,-z
-x,y,z
x,-y,z
1/2+x,1/2+y,z
1/2-x,1/2-y,z
1/2+x,1/2-y,-z
1/2-x,1/2+y,-z
1/2-x,1/2-y,-z
1/2+x,1/2+y,-z
1/2-x,1/2+y,z
1/2+x,1/2-y,z
loop_
_atom_site_type_symbol
_atom_site_label
_atom_site_fract_x
_atom_site_fract_y
_atom_site_fract_z
Si Si1 0.331536 0.096420 0.629672
Si Si2 0.182690 0.841178 0.804174
Si Si3 0.314918 0.500000 0.048452
Si Si4 0.684014 0.342355 0.897554
Si Si5 0.818447 0.840704 0.545564
Si Si6 0.182027 0.159028 0.713943
O O1 0.500000 0.135278 0.629653
O O2 0.246124 0.118907 0.587127
O O3 0.245663 0.119535 0.672051
O O4 0.346363 0.000000 0.629882
O O5 0.250000 0.750000 0.803411
O O6 0.225712 0.872536 0.850247
O O7 0.226055 0.880223 0.759275
O O8 0.000000 0.837033 0.803930
O O9 0.500000 0.500000 0.050028
O O10 0.267501 0.415193 0.071174
O O11 0.268116 0.500000 0.000000
O O12 0.500000 0.335189 0.899773
O O13 0.750000 0.250000 0.904267
O O14 0.778234 0.879023 0.500000
O O15 0.750000 0.750000 0.545148
O O16 0.000000 0.837374 0.548035
O O17 0.250000 0.250000 0.714500
O O18 0.000000 0.161498 0.711727
#
# Coordination Sequence:
#
# PCOD9486879 Si02
#       6
#    16  16   8  16  16  16
#     4  11  24  39  53  73 106 143 175 210 257 310
#     4   8  15  28  48  75 100 130 169 213 261 311
#     4   9  18  32  51  77 109 145 185 227 276 335
#     4   9  17  32  53  77 106 141 182 228 277 331
#     4  10  21  38  61  85 106 131 168 213 258 306
#     4  10  19  33  54  78 103 134 172 215 262 313
#
# _framework density 19.158407
#
# number of rings (size 3 to 8) (size 9 to 14) (size 15 to 20)
#    0.000    2.455    0.000    2.182    0.000    4.000 
#    1.636    2.273    0.000    0.545    0.000    0.000 
#    0.000    0.000    0.000    0.000    0.000    0.000 
#
# Total GULP energy -245006.653550 kJ/mol
# GULP energy per Si atom -5568.333035 kJ/mol
# Density = 1.911480 g / cm^3
# Si number density = 19.158407 Si / 1000 Ang^3
#
#
#
# Elastic Constant Matrix: (Units=GPa)
#
#
# Indices 1 2 3 4 5 6 
#
# 1 52.5110 20.5805 56.6723 0.0000 0.0000 0.0000
# 2 20.5805 69.3288 77.5288 0.0000 0.0000 0.0000
# 3 56.6723 77.5288 233.7029 0.0000 0.0000 0.0000
# 4 0.0000 0.0000 0.0000 190.3195 0.0000 0.0000
# 5 0.0000 0.0000 0.0000 0.0000 20.2209 0.0000
# 6 0.0000 0.0000 0.0000 0.0000 0.0000 16.2902
#
#
#
# Elastic Compliance Matrix: (Units=1/GPa)
#
#
# Indices 1 2 3 4 5 6 
#
# 1 0.025843 -0.001055 -0.005917 0.000000 0.000000 0.000000
# 2 -0.001055 0.022974 -0.007366 0.000000 0.000000 0.000000
# 3 -0.005917 -0.007366 0.008157 0.000000 0.000000 0.000000
# 4 0.000000 0.000000 0.000000 0.005254 0.000000 0.000000
# 5 0.000000 0.000000 0.000000 0.000000 0.049454 0.000000
# 6 0.000000 0.000000 0.000000 0.000000 0.000000 0.061387
#
#
# Mechanical properties :
#
#
# Convention : Reuss Voigt Hill
#
# Bulk Modulus (GPa) = 35.33646 73.90067 54.61857
# Shear Modulus (GPa) = 23.67689 58.75020 41.21354
#
# Velocity S-wave (km/s) = 3.51928 5.54365 4.64313
# Velocity P-wave (km/s) = 5.91592 8.92375 7.57072
#
# Compressibility (1/GPa) = 0.02829938
#
# Stress axis : x y z
#
# Youngs Moduli (GPa) = 38.69549 43.52761 122.59051
#
# Poissons Ratio (x) = 0.04591 0.72535
# Poissons Ratio (y) = 0.04082 0.90295
# Poissons Ratio (z) = 0.22896 0.32061
#
# Static dielectric constant tensor:
#      x y z
#    x 1.681770 0.000000 0.000000 
#    y 0.000000 1.643840 0.000000 
#    z 0.000000 0.000000 1.734640 
# 
# From -- ./inp_files/76448.got.cif
#   From: 2010.05.17/outbox.cif.g08.bks.cpg/sg65_39_cif.got.tgz:76448.got - 2010.06.03 17:01:31.
