data_PCOD9486623
_publ_section_title
;
Structure prediction by ZEFSAII (Michael W. Deem and Ramdas Pophale) SiO2 
 PCOD9486623
Probable space group: C M M M
;
_chemical_formula_sum "Si O2"
_cell_formula_units_Z 88
_cell_length_a 29.510144
_cell_length_b 7.739759
_cell_length_c 27.833733
_cell_angle_alpha 90.000000
_cell_angle_beta 90.000000
_cell_angle_gamma 90.000000
_cell_volume 6357.263657
_symmetry_space_group_name_H-M "C M M M"
_symmetry_group_IT_number 65
_symmetry_cell_setting 'orthorhombic'
loop_
_space_group_symop_operation_xyz
x,y,z
-x,-y,z
x,-y,-z
-x,y,-z
-x,-y,-z
x,y,-z
-x,y,z
x,-y,z
1/2+x,1/2+y,z
1/2-x,1/2-y,z
1/2+x,1/2-y,-z
1/2-x,1/2+y,-z
1/2-x,1/2-y,-z
1/2+x,1/2+y,-z
1/2-x,1/2+y,z
1/2+x,1/2-y,z
loop_
_atom_site_type_symbol
_atom_site_label
_atom_site_fract_x
_atom_site_fract_y
_atom_site_fract_z
Si Si1 0.555409 0.500000 0.625035
Si Si2 0.606653 0.205859 0.904143
Si Si3 0.054184 0.294804 0.809109
Si Si4 0.055073 0.697814 0.554467
Si Si5 0.300368 0.792200 0.944770
Si Si6 0.945158 0.000000 0.265147
Si Si7 0.948428 0.793246 0.000000
O O1 0.500000 0.500000 0.625677
O O2 0.569918 0.332286 0.594722
O O3 0.571172 0.500000 0.680013
O O4 0.580700 0.266601 0.856691
O O5 0.657306 0.274252 0.913980
O O6 0.610138 0.000000 0.898089
O O7 0.577793 0.237174 0.952213
O O8 0.062472 0.500000 0.800459
O O9 0.067270 0.171376 0.764893
O O10 0.000000 0.276445 0.817339
O O11 0.068616 0.747084 0.500000
O O12 0.069098 0.500000 0.563405
O O13 0.000000 0.699359 0.554707
O O14 0.250000 0.750000 0.927112
O O15 0.303975 0.000000 0.946761
O O16 0.304231 0.727814 0.000000
O O17 0.000000 0.000000 0.267299
O O18 0.000000 0.726963 0.000000
O O19 0.949758 0.000000 0.000000
#
# Coordination Sequence:
#
# PCOD9486623 Si02
#       7
#     8  16  16  16  16   8   8
#     4   9  15  22  33  48  65  92 123 155 197 239
#     4  10  19  33  48  60  76 101 126 149 186 236
#     4   9  18  31  45  58  74  99 128 162 201 235
#     4   8  13  20  30  46  68  92 119 154 196 239
#     4   9  17  30  45  62  82  99 117 142 176 227
#     4   9  18  29  40  54  74  97 128 169 203 237
#     4  11  23  31  40  63  84  97 120 155 188 227
#
# _framework density 13.842434000000001
#
# number of rings (size 3 to 8) (size 9 to 14) (size 15 to 20)
#    0.000    2.818    0.909    1.636    1.273    4.000 
#    0.000    3.636    0.000    0.000    0.000    0.000 
#    0.000    0.000    0.000    0.000    0.000    0.000 
#
# Total GULP energy -245016.810989 kJ/mol
# GULP energy per Si atom -5568.563886 kJ/mol
# Density = 1.381093 g / cm^3
# Si number density = 13.842434 Si / 1000 Ang^3
#
#
#
# Elastic Constant Matrix: (Units=GPa)
#
#
# Indices 1 2 3 4 5 6 
#
# 1 58.8836 19.7852 37.0730 0.0000 0.0000 0.0000
# 2 19.7852 54.1150 54.9986 0.0000 0.0000 0.0000
# 3 37.0730 54.9986 132.3637 0.0000 0.0000 0.0000
# 4 0.0000 0.0000 0.0000 9.0751 0.0000 0.0000
# 5 0.0000 0.0000 0.0000 0.0000 1.9639 0.0000
# 6 0.0000 0.0000 0.0000 0.0000 0.0000 9.4112
#
#
#
# Elastic Compliance Matrix: (Units=1/GPa)
#
#
# Indices 1 2 3 4 5 6 
#
# 1 0.020883 -0.002926 -0.004633 0.000000 0.000000 0.000000
# 2 -0.002926 0.032397 -0.012642 0.000000 0.000000 0.000000
# 3 -0.004633 -0.012642 0.014105 0.000000 0.000000 0.000000
# 4 0.000000 0.000000 0.000000 0.110191 0.000000 0.000000
# 5 0.000000 0.000000 0.000000 0.000000 0.509198 0.000000
# 6 0.000000 0.000000 0.000000 0.000000 0.000000 0.106256
#
#
# Mechanical properties :
#
#
# Convention : Reuss Voigt Hill
#
# Bulk Modulus (GPa) = 37.06018 52.11954 44.58986
# Shear Modulus (GPa) = 5.93523 12.99041 9.46282
#
# Velocity S-wave (km/s) = 2.07292 3.06673 2.61743
# Velocity P-wave (km/s) = 5.70617 7.09039 6.43560
#
# Compressibility (1/GPa) = 0.02698314
#
# Stress axis : x y z
#
# Youngs Moduli (GPa) = 47.88614 30.86668 70.89485
#
# Poissons Ratio (x) = 0.09033 0.32846
# Poissons Ratio (y) = 0.14014 0.89624
# Poissons Ratio (z) = 0.22186 0.39021
#
# Static dielectric constant tensor:
#      x y z
#    x 1.443010 0.000000 0.000000 
#    y 0.000000 1.490650 0.000000 
#    z 0.000000 0.000000 1.614070 
# 
# From -- ./inp_files/72092.got.cif
#   From: 2010.05.17/outbox.cif.g08.bks.cpg/sg65_37_cif.got.tgz:72092.got - 2010.06.03 17:01:31.
