data_PCOD9486547
_publ_section_title
;
Structure prediction by ZEFSAII (Michael W. Deem and Ramdas Pophale) SiO2 
 PCOD9486547
Probable space group: C M M M
;
_chemical_formula_sum "Si O2"
_cell_formula_units_Z 104
_cell_length_a 18.067642
_cell_length_b 19.525292
_cell_length_c 13.497290
_cell_angle_alpha 90.000000
_cell_angle_beta 90.000000
_cell_angle_gamma 90.000000
_cell_volume 4761.519785
_symmetry_space_group_name_H-M "C M M M"
_symmetry_group_IT_number 65
_symmetry_cell_setting 'orthorhombic'
loop_
_space_group_symop_operation_xyz
x,y,z
-x,-y,z
x,-y,-z
-x,y,-z
-x,-y,-z
x,y,-z
-x,y,z
x,-y,z
1/2+x,1/2+y,z
1/2-x,1/2-y,z
1/2+x,1/2-y,-z
1/2-x,1/2+y,-z
1/2-x,1/2-y,-z
1/2+x,1/2+y,-z
1/2-x,1/2+y,z
1/2+x,1/2-y,z
loop_
_atom_site_type_symbol
_atom_site_label
_atom_site_fract_x
_atom_site_fract_y
_atom_site_fract_z
Si Si1 0.810974 0.802507 0.610614
Si Si2 0.150596 0.580628 0.766622
Si Si3 0.500000 0.080706 0.891408
Si Si4 0.085186 0.696512 0.319689
Si Si5 0.084249 0.221020 0.886821
Si Si6 0.084364 0.079941 0.379256
Si Si7 0.735220 0.331952 0.887396
O O1 0.783453 0.817845 0.500000
O O2 0.750000 0.750000 0.657544
O O3 0.882845 0.754200 0.610158
O O4 0.846948 0.872006 0.653683
O O5 0.160706 0.500000 0.752029
O O6 0.075655 0.592269 0.831977
O O7 0.132243 0.627124 0.671871
O O8 0.218568 0.617999 0.819127
O O9 0.500000 0.000000 0.904820
O O10 0.500000 0.114423 0.000000
O O11 0.093253 0.728841 0.207673
O O12 0.000000 0.682726 0.337135
O O13 0.146972 0.164002 0.876458
O O14 0.000000 0.196621 0.882791
O O15 0.095401 0.249761 0.000000
O O16 0.084550 0.083694 0.500000
O O17 0.000000 0.101119 0.347951
O O18 0.094224 0.000000 0.352423
O O19 0.750000 0.250000 0.874426
O O20 0.756060 0.348538 0.000000
#
# Coordination Sequence:
#
# PCOD9486547 Si02
#       7
#    16  16   8  16  16  16  16
#     4  10  22  38  59  87 121 158 197 246 301 359
#     4  11  22  35  52  80 114 152 196 245 301 352
#     4   9  18  32  50  76 115 151 182 233 295 351
#     4  11  22  36  58  85 114 157 198 240 290 349
#     4   9  19  35  56  84 116 152 193 234 281 342
#     4   8  14  29  57  90 119 145 177 229 298 360
#     4  10  19  32  53  80 112 150 191 238 289 349
#
# _framework density 21.841766
#
# number of rings (size 3 to 8) (size 9 to 14) (size 15 to 20)
#    0.000    2.231    2.308    1.385    2.154    2.462 
#    0.000    0.769    0.000    1.846    0.000    3.231 
#    0.000    0.000    0.000    0.000    0.000    0.000 
#
# Total GULP energy -289812.003145 kJ/mol
# GULP energy per Si atom -5573.307753 kJ/mol
# Density = 2.179205 g / cm^3
# Si number density = 21.841766 Si / 1000 Ang^3
#
#
#
# Elastic Constant Matrix: (Units=GPa)
#
#
# Indices 1 2 3 4 5 6 
#
# 1 133.9479 53.4394 0.9369 0.0000 0.0000 0.0000
# 2 53.4394 108.6526 2.6731 0.0000 0.0000 0.0000
# 3 0.9369 2.6731 56.5082 0.0000 0.0000 0.0000
# 4 0.0000 0.0000 0.0000 14.4758 0.0000 0.0000
# 5 0.0000 0.0000 0.0000 0.0000 176.4766 0.0000
# 6 0.0000 0.0000 0.0000 0.0000 0.0000 42.5318
#
#
#
# Elastic Compliance Matrix: (Units=1/GPa)
#
#
# Indices 1 2 3 4 5 6 
#
# 1 0.009288 -0.004570 0.000062 0.000000 0.000000 0.000000
# 2 -0.004570 0.011463 -0.000466 0.000000 0.000000 0.000000
# 3 0.000062 -0.000466 0.017718 0.000000 0.000000 0.000000
# 4 0.000000 0.000000 0.000000 0.069081 0.000000 0.000000
# 5 0.000000 0.000000 0.000000 0.000000 0.005666 0.000000
# 6 0.000000 0.000000 0.000000 0.000000 0.000000 0.023512
#
#
# Mechanical properties :
#
#
# Convention : Reuss Voigt Hill
#
# Bulk Modulus (GPa) = 35.06271 45.91194 40.48732
# Shear Modulus (GPa) = 32.01374 62.83414 47.42394
#
# Velocity S-wave (km/s) = 3.83261 5.36939 4.66472
# Velocity P-wave (km/s) = 5.97270 7.71403 6.89853
#
# Compressibility (1/GPa) = 0.02852033
#
# Stress axis : x y z
#
# Youngs Moduli (GPa) = 107.66181 87.23899 56.44109
#
# Poissons Ratio (x) = 0.39867 -0.00351
# Poissons Ratio (y) = 0.49200 0.02633
# Poissons Ratio (z) = -0.00669 0.04069
#
# Static dielectric constant tensor:
#      x y z
#    x 1.859900 0.000000 0.000000 
#    y 0.000000 1.795740 0.000000 
#    z 0.000000 0.000000 1.863630 
# 
# From -- ./inp_files/54565.got.cif
#   From: 2010.05.17/outbox.cif.g08.bks.cpg/sg65_28_cif.got.tgz:54565.got - 2010.06.03 17:01:31.
