data_PCOD9486650
_publ_section_title
;
Structure prediction by ZEFSAII (Michael W. Deem and Ramdas Pophale) SiO2 
 PCOD9486650
Probable space group: C M M M
;
_chemical_formula_sum "Si O2"
_cell_formula_units_Z 104
_cell_length_a 33.082840
_cell_length_b 24.207894
_cell_length_c 7.609940
_cell_angle_alpha 90.000000
_cell_angle_beta 90.000000
_cell_angle_gamma 90.000000
_cell_volume 6094.541325
_symmetry_space_group_name_H-M "C M M M"
_symmetry_group_IT_number 65
_symmetry_cell_setting 'orthorhombic'
loop_
_space_group_symop_operation_xyz
x,y,z
-x,-y,z
x,-y,-z
-x,y,-z
-x,-y,-z
x,y,-z
-x,y,z
x,-y,z
1/2+x,1/2+y,z
1/2-x,1/2-y,z
1/2+x,1/2-y,-z
1/2-x,1/2+y,-z
1/2-x,1/2-y,-z
1/2+x,1/2+y,-z
1/2-x,1/2+y,z
1/2+x,1/2-y,z
loop_
_atom_site_type_symbol
_atom_site_label
_atom_site_fract_x
_atom_site_fract_y
_atom_site_fract_z
Si Si1 0.765250 0.932897 0.000000
Si Si2 0.795462 0.432774 0.700852
Si Si3 0.859409 0.066929 0.000000
Si Si4 0.500000 0.436856 0.286599
Si Si5 0.584529 0.383929 0.297406
Si Si6 0.614152 0.936557 0.714823
Si Si7 0.454259 0.852433 0.711731
Si Si8 0.953810 0.774691 0.208575
O O1 0.739934 0.914414 0.170148
O O2 0.812111 0.917854 0.000000
O O3 0.764288 0.000000 0.000000
O O4 0.789861 0.414166 0.500000
O O5 0.795418 0.500000 0.698234
O O6 0.840590 0.418041 0.765043
O O7 0.881491 0.092472 0.830057
O O8 0.863353 0.000000 0.000000
O O9 0.500000 0.500000 0.228655
O O10 0.500000 0.435523 0.500000
O O11 0.541335 0.407872 0.232246
O O12 0.591047 0.400728 0.500000
O O13 0.577306 0.318216 0.288458
O O14 0.614242 0.936992 0.500000
O O15 0.579059 0.895688 0.775480
O O16 0.607654 0.000000 0.770999
O O17 0.455138 0.856555 0.500000
O O18 0.500000 0.863430 0.776000
O O19 0.444113 0.789196 0.756798
O O20 0.000000 0.784113 0.275644
O O21 0.954162 0.783673 0.000000
#
# Coordination Sequence:
#
# PCOD9486650 Si02
#       8
#     8  16   8   8  16  16  16  16
#     4   9  18  32  49  71  98 129 164 199 245 307
#     4   8  14  27  48  71  96 128 167 209 248 291
#     4  11  24  37  50  76 110 134 160 201 251 316
#     4   9  18  31  49  73  98 127 164 198 236 295
#     4  11  21  35  54  74  99 135 172 208 251 293
#     4   8  14  26  45  72 105 137 171 210 251 300
#     4   9  17  28  45  71 103 138 174 212 254 297
#     4  10  19  33  51  70  95 131 178 224 255 285
#
# _framework density 17.064450999999998
#
# number of rings (size 3 to 8) (size 9 to 14) (size 15 to 20)
#    0.000    2.692    1.538    1.846    0.000    2.769 
#    1.385    3.846    0.000    0.000    0.000    4.308 
#    0.000    4.923    0.000    0.000    0.000    0.000 
#
# Total GULP energy -289933.382636 kJ/mol
# GULP energy per Si atom -5575.641974 kJ/mol
# Density = 1.702561 g / cm^3
# Si number density = 17.064451 Si / 1000 Ang^3
#
#
#
# Elastic Constant Matrix: (Units=GPa)
#
#
# Indices 1 2 3 4 5 6 
#
# 1 152.8724 69.4582 55.8869 0.0000 0.0000 0.0000
# 2 69.4582 72.4343 22.6164 0.0000 0.0000 0.0000
# 3 55.8869 22.6164 78.8279 0.0000 0.0000 0.0000
# 4 0.0000 0.0000 0.0000 13.9396 0.0000 0.0000
# 5 0.0000 0.0000 0.0000 0.0000 -8.0239 0.0000
# 6 0.0000 0.0000 0.0000 0.0000 0.0000 3.9974
#
#
#
# Elastic Compliance Matrix: (Units=1/GPa)
#
#
# Indices 1 2 3 4 5 6 
#
# 1 0.014292 -0.011578 -0.006811 0.000000 0.000000 0.000000
# 2 -0.011578 0.024544 0.001167 0.000000 0.000000 0.000000
# 3 -0.006811 0.001167 0.017180 0.000000 0.000000 0.000000
# 4 0.000000 0.000000 0.000000 0.071738 0.000000 0.000000
# 5 0.000000 0.000000 0.000000 0.000000 -0.124628 0.000000
# 6 0.000000 0.000000 0.000000 0.000000 0.000000 0.250164
#
#
# Mechanical properties :
#
#
# Convention : Reuss Voigt Hill
#
# Bulk Modulus (GPa) = 46.35813 66.67310 56.51561
# Shear Modulus (GPa) = 16.95351 12.39415 14.67383
#
# Velocity S-wave (km/s) = 3.15540 2.69794 2.93560
# Velocity P-wave (km/s) = 6.36403 6.99009 6.68439
#
# Compressibility (1/GPa) = 0.02157119
#
# Stress axis : x y z
#
# Youngs Moduli (GPa) = 69.97037 40.74372 58.20834
#
# Poissons Ratio (x) = 0.47173 0.39644
# Poissons Ratio (y) = 0.81012 -0.06791
# Poissons Ratio (z) = 0.47654 -0.04754
#
# Static dielectric constant tensor:
#      x y z
#    x 1.567590 0.000000 0.000000 
#    y 0.000000 1.568290 0.000000 
#    z 0.000000 0.000000 1.623110 
# 
# From -- ./inp_files/16833.got.cif
#   From: 2010.05.17/outbox.cif.g08.bks.cpg/sg65_9_cif.got.tgz:16833.got - 2010.06.03 17:01:31.
