data_PCOD9486514
_publ_section_title
;
Structure prediction by ZEFSAII (Michael W. Deem and Ramdas Pophale) SiO2 
 PCOD9486514
Probable space group: C M M M
;
_chemical_formula_sum "Si O2"
_cell_formula_units_Z 72
_cell_length_a 18.726982
_cell_length_b 8.523698
_cell_length_c 24.686507
_cell_angle_alpha 90.000000
_cell_angle_beta 90.000000
_cell_angle_gamma 90.000000
_cell_volume 3940.537739
_symmetry_space_group_name_H-M "C M M M"
_symmetry_group_IT_number 65
_symmetry_cell_setting 'orthorhombic'
loop_
_space_group_symop_operation_xyz
x,y,z
-x,-y,z
x,-y,-z
-x,y,-z
-x,-y,-z
x,y,-z
-x,y,z
x,-y,z
1/2+x,1/2+y,z
1/2-x,1/2-y,z
1/2+x,1/2-y,-z
1/2-x,1/2+y,-z
1/2-x,1/2-y,-z
1/2+x,1/2+y,-z
1/2-x,1/2+y,z
1/2+x,1/2-y,z
loop_
_atom_site_type_symbol
_atom_site_label
_atom_site_fract_x
_atom_site_fract_y
_atom_site_fract_z
Si Si1 0.168835 0.811016 0.500000
Si Si2 0.417900 0.187921 0.279172
Si Si3 0.831551 0.810515 0.941837
Si Si4 0.831270 0.188581 0.823251
Si Si5 0.831305 0.188599 0.618377
O O1 0.250000 0.750000 0.500000
O O2 0.139271 0.762104 0.558724
O O3 0.169364 0.000000 0.500000
O O4 0.500000 0.241241 0.279215
O O5 0.377740 0.248012 0.225842
O O6 0.377655 0.247936 0.332476
O O7 0.416203 0.000000 0.279158
O O8 0.750000 0.750000 0.942050
O O9 0.860483 0.762038 0.882938
O O10 0.830913 0.000000 0.941891
O O11 0.863854 0.759563 0.000000
O O12 0.750000 0.250000 0.818384
O O13 0.829715 0.000000 0.821003
O O14 0.750000 0.250000 0.623137
O O15 0.829729 0.000000 0.620663
#
# Coordination Sequence:
#
# PCOD9486514 Si02
#       5
#     8  16  16  16  16
#     4   8  16  30  51  80 107 131 159 197 243 290
#     4  11  24  39  52  69  98 135 174 215 256 296
#     4   8  14  25  43  70 101 128 156 195 243 293
#     4  10  19  32  53  78 103 132 167 206 249 299
#     4  10  19  34  57  82 107 133 165 203 245 296
#
# _framework density 18.271616999999999
#
# number of rings (size 3 to 8) (size 9 to 14) (size 15 to 20)
#    0.000    2.444    0.000    2.667    0.000    3.556 
#    0.000    0.556    0.000    4.000    0.000    4.667 
#    0.000    0.000    0.000    0.000    0.000    0.000 
#
# Total GULP energy -200549.006628 kJ/mol
# GULP energy per Si atom -5570.805740 kJ/mol
# Density = 1.823003 g / cm^3
# Si number density = 18.271617 Si / 1000 Ang^3
#
#
#
# Elastic Constant Matrix: (Units=GPa)
#
#
# Indices 1 2 3 4 5 6 
#
# 1 70.2772 21.5721 82.9650 0.0000 0.0000 0.0000
# 2 21.5721 34.2932 40.5401 0.0000 0.0000 0.0000
# 3 82.9650 40.5401 253.7760 0.0000 0.0000 0.0000
# 4 0.0000 0.0000 0.0000 -25.5042 0.0000 0.0000
# 5 0.0000 0.0000 0.0000 0.0000 -7.1120 0.0000
# 6 0.0000 0.0000 0.0000 0.0000 0.0000 19.1097
#
#
#
# Elastic Compliance Matrix: (Units=1/GPa)
#
#
# Indices 1 2 3 4 5 6 
#
# 1 0.024590 -0.007354 -0.006864 0.000000 0.000000 0.000000
# 2 -0.007354 0.038148 -0.003690 0.000000 0.000000 0.000000
# 3 -0.006864 -0.003690 0.006774 0.000000 0.000000 0.000000
# 4 0.000000 0.000000 0.000000 -0.039209 0.000000 0.000000
# 5 0.000000 0.000000 0.000000 0.000000 -0.140608 0.000000
# 6 0.000000 0.000000 0.000000 0.000000 0.000000 0.052330
#
#
# Mechanical properties :
#
#
# Convention : Reuss Voigt Hill
#
# Bulk Modulus (GPa) = 29.67663 72.05562 50.86613
# Shear Modulus (GPa) = -457.60532 11.51663 -223.04434
#
# Velocity S-wave (km/s) = -15.84265 2.51330 -11.06058
# Velocity P-wave (km/s) = 17.84309 6.92414 11.62824
#
# Compressibility (1/GPa) = 0.03369655
#
# Stress axis : x y z
#
# Youngs Moduli (GPa) = 40.66640 26.21344 147.62163
#
# Poissons Ratio (x) = 0.19277 1.01333
# Poissons Ratio (y) = 0.29905 0.54473
# Poissons Ratio (z) = 0.27915 0.09673
#
# Static dielectric constant tensor:
#      x y z
#    x 1.560320 0.000000 0.000000 
#    y 0.000000 1.614510 0.000000 
#    z 0.000000 0.000000 1.696240 
# 
# From -- ./inp_files/66997.got.cif
#   From: 2010.05.17/outbox.cif.g08.bks.cpg/sg65_34_cif.got.tgz:66997.got - 2010.06.03 17:01:31.
