data_PCOD9486931
_publ_section_title
;
Structure prediction by ZEFSAII (Michael W. Deem and Ramdas Pophale) SiO2 
 PCOD9486931
Probable space group: C M M M
;
_chemical_formula_sum "Si O2"
_cell_formula_units_Z 88
_cell_length_a 18.313847
_cell_length_b 10.007309
_cell_length_c 26.906636
_cell_angle_alpha 90.000000
_cell_angle_beta 90.000000
_cell_angle_gamma 90.000000
_cell_volume 4931.241762
_symmetry_space_group_name_H-M "C M M M"
_symmetry_group_IT_number 65
_symmetry_cell_setting 'orthorhombic'
loop_
_space_group_symop_operation_xyz
x,y,z
-x,-y,z
x,-y,-z
-x,y,-z
-x,-y,-z
x,y,-z
-x,y,z
x,-y,z
1/2+x,1/2+y,z
1/2-x,1/2-y,z
1/2+x,1/2-y,-z
1/2-x,1/2+y,-z
1/2-x,1/2-y,-z
1/2+x,1/2+y,-z
1/2-x,1/2+y,z
1/2+x,1/2-y,z
loop_
_atom_site_type_symbol
_atom_site_label
_atom_site_fract_x
_atom_site_fract_y
_atom_site_fract_z
Si Si1 0.586659 0.345461 0.400147
Si Si2 0.910805 0.000000 0.942138
Si Si3 0.587764 0.752617 0.122602
Si Si4 0.822512 0.658491 0.330767
Si Si5 0.320851 0.842415 0.786248
Si Si6 0.411152 0.000000 0.944089
Si Si7 0.180597 0.846040 0.500000
O O1 0.500000 0.333312 0.408138
O O2 0.600603 0.500000 0.383070
O O3 0.615802 0.234042 0.362256
O O4 0.630869 0.326867 0.451319
O O5 0.888084 0.124578 0.908567
O O6 0.000000 0.000000 0.944466
O O7 0.886571 0.000000 0.000000
O O8 0.500000 0.749121 0.126308
O O9 0.619992 0.780355 0.176631
O O10 0.610781 0.873292 0.087299
O O11 0.812238 0.500000 0.343634
O O12 0.750000 0.750000 0.338709
O O13 0.840571 0.664040 0.272074
O O14 0.250000 0.750000 0.792812
O O15 0.308593 0.000000 0.797781
O O16 0.500000 0.000000 0.946455
O O17 0.383615 0.000000 0.000000
O O18 0.250000 0.750000 0.500000
O O19 0.206013 0.000000 0.500000
#
# Coordination Sequence:
#
# PCOD9486931 Si02
#       7
#    16   8  16  16  16   8   8
#     4  10  21  38  59  86 119 154 191 235 286 334
#     4   9  18  32  51  79 111 139 171 218 273 324
#     4  10  19  33  54  80 106 136 177 223 270 321
#     4  10  21  38  59  82 110 147 191 235 281 336
#     4  10  22  38  57  79 108 145 181 224 276 331
#     4   9  16  28  51  79 103 131 173 222 267 318
#     4  10  21  37  59  85 117 158 199 238 278 328
#
# _framework density 17.845403000000001
#
# number of rings (size 3 to 8) (size 9 to 14) (size 15 to 20)
#    0.000    2.182    0.909    1.909    1.273    7.273 
#    0.000    1.818    0.000    4.909    0.000    0.000 
#    0.000    0.000    0.000    0.000    0.000    0.000 
#
# Total GULP energy -245255.011469 kJ/mol
# GULP energy per Si atom -5573.977533 kJ/mol
# Density = 1.780479 g / cm^3
# Si number density = 17.845403 Si / 1000 Ang^3
#
#
#
# Elastic Constant Matrix: (Units=GPa)
#
#
# Indices 1 2 3 4 5 6 
#
# 1 68.9117 62.4003 53.6314 0.0000 0.0000 0.0000
# 2 62.4003 178.8744 78.4590 0.0000 0.0000 0.0000
# 3 53.6314 78.4590 83.4131 0.0000 0.0000 0.0000
# 4 0.0000 0.0000 0.0000 81.7586 0.0000 0.0000
# 5 0.0000 0.0000 0.0000 0.0000 43.0395 0.0000
# 6 0.0000 0.0000 0.0000 0.0000 0.0000 31.6951
#
#
#
# Elastic Compliance Matrix: (Units=1/GPa)
#
#
# Indices 1 2 3 4 5 6 
#
# 1 0.030240 -0.003440 -0.016207 0.000000 0.000000 0.000000
# 2 -0.003440 0.009908 -0.007108 0.000000 0.000000 0.000000
# 3 -0.016207 -0.007108 0.029095 0.000000 0.000000 0.000000
# 4 0.000000 0.000000 0.000000 0.012231 0.000000 0.000000
# 5 0.000000 0.000000 0.000000 0.000000 0.023234 0.000000
# 6 0.000000 0.000000 0.000000 0.000000 0.000000 0.031551
#
#
# Mechanical properties :
#
#
# Convention : Reuss Voigt Hill
#
# Bulk Modulus (GPa) = 63.56284 80.02006 71.79145
# Shear Modulus (GPa) = 25.63911 40.41255 33.02583
#
# Velocity S-wave (km/s) = 3.79454 4.76394 4.30660
# Velocity P-wave (km/s) = 7.40905 8.67169 8.06511
#
# Compressibility (1/GPa) = 0.01573246
#
# Stress axis : x y z
#
# Youngs Moduli (GPa) = 33.06872 100.92459 34.37028
#
# Poissons Ratio (x) = 0.34721 0.55705
# Poissons Ratio (y) = 0.11377 0.24430
# Poissons Ratio (z) = 0.53595 0.71736
#
# Static dielectric constant tensor:
#      x y z
#    x 1.597410 0.000000 0.000000 
#    y 0.000000 1.593550 0.000000 
#    z 0.000000 0.000000 1.598260 
# 
# From -- ./inp_files/71043.got.cif
#   From: 2010.05.17/outbox.cif.g08.bks.cpg/sg65_36_cif.got.tgz:71043.got - 2010.06.03 17:01:31.
