data_PCOD9486957
_publ_section_title
;
Structure prediction by ZEFSAII (Michael W. Deem and Ramdas Pophale) SiO2 
 PCOD9486957
Probable space group: C M M M
;
_chemical_formula_sum "Si O2"
_cell_formula_units_Z 62
_cell_length_a 19.896345
_cell_length_b 17.423976
_cell_length_c 10.117935
_cell_angle_alpha 90.000000
_cell_angle_beta 90.000000
_cell_angle_gamma 90.000000
_cell_volume 3507.619310
_symmetry_space_group_name_H-M "C M M M"
_symmetry_group_IT_number 65
_symmetry_cell_setting 'orthorhombic'
loop_
_space_group_symop_operation_xyz
x,y,z
-x,-y,z
x,-y,-z
-x,y,-z
-x,-y,-z
x,y,-z
-x,y,z
x,-y,z
1/2+x,1/2+y,z
1/2-x,1/2-y,z
1/2+x,1/2-y,-z
1/2-x,1/2+y,-z
1/2-x,1/2-y,-z
1/2+x,1/2+y,-z
1/2-x,1/2+y,z
1/2+x,1/2-y,z
loop_
_atom_site_type_symbol
_atom_site_label
_atom_site_fract_x
_atom_site_fract_y
_atom_site_fract_z
Si Si1 0.000000 0.500000 0.500000
Si Si2 0.081166 0.299563 0.766005
Si Si3 0.864120 0.000000 0.348414
Si Si4 0.581754 0.087323 0.000000
Si Si5 0.621168 0.127115 0.500000
Si Si6 0.919051 0.125932 0.849157
Si Si7 0.266444 0.000000 0.500000
O O1 0.058847 0.567232 0.500000
O O2 0.101100 0.364572 0.871420
O O3 0.114953 0.320085 0.628504
O O4 0.096293 0.215114 0.820598
O O5 0.000000 0.303655 0.750091
O O6 0.886917 0.927337 0.262390
O O7 0.784386 0.000000 0.375789
O O8 0.892650 0.000000 0.500000
O O9 0.500000 0.084805 0.000000
O O10 0.606001 0.000000 0.000000
O O11 0.687285 0.074893 0.500000
O O12 0.000000 0.116797 0.842416
O O13 0.898813 0.106255 0.000000
#
# Coordination Sequence:
#
# PCOD9486957 Si02
#       7
#     2  16   8   8   8  16   4
#     4  10  20  32  52  94 110 146 194 242 282 352
#     4  10  19  33  54  94 125 151 182 241 305 359
#     4  10  23  42  60  82 111 162 208 245 298 345
#     4   9  18  28  48  79 128 160 178 217 289 359
#     4  11  21  35  60  80 121 155 202 239 291 347
#     4  10  20  37  64  94 124 147 184 245 313 365
#     4   9  26  43  55  80 117 164 208 254 283 336
#
# _framework density 17.675806000000001
#
# number of rings (size 3 to 8) (size 9 to 14) (size 15 to 20)
#    0.387    1.677    2.581    0.774    5.419    2.065 
#    0.000    2.581    5.677    1.548    0.000    0.000 
#    0.000    0.000    0.000    0.000    0.000    0.000 
#
# Total GULP energy -172591.325383 kJ/mol
# GULP energy per Si atom -5567.462109 kJ/mol
# Density = 1.763558 g / cm^3
# Si number density = 17.675806 Si / 1000 Ang^3
#
#
#
# Elastic Constant Matrix: (Units=GPa)
#
#
# Indices 1 2 3 4 5 6 
#
# 1 52.2745 36.9957 39.0950 0.0000 0.0000 0.0000
# 2 36.9957 125.9131 77.9050 0.0000 0.0000 0.0000
# 3 39.0950 77.9050 177.0464 0.0000 0.0000 0.0000
# 4 0.0000 0.0000 0.0000 24.0819 0.0000 0.0000
# 5 0.0000 0.0000 0.0000 0.0000 -12.9601 0.0000
# 6 0.0000 0.0000 0.0000 0.0000 0.0000 28.7922
#
#
#
# Elastic Compliance Matrix: (Units=1/GPa)
#
#
# Indices 1 2 3 4 5 6 
#
# 1 0.025402 -0.005487 -0.003195 0.000000 0.000000 0.000000
# 2 -0.005487 0.012098 -0.004112 0.000000 0.000000 0.000000
# 3 -0.003195 -0.004112 0.008163 0.000000 0.000000 0.000000
# 4 0.000000 0.000000 0.000000 0.041525 0.000000 0.000000
# 5 0.000000 0.000000 0.000000 0.000000 -0.077160 0.000000
# 6 0.000000 0.000000 0.000000 0.000000 0.000000 0.034732
#
#
# Mechanical properties :
#
#
# Convention : Reuss Voigt Hill
#
# Bulk Modulus (GPa) = 49.81027 73.69172 61.75100
# Shear Modulus (GPa) = 64.90121 21.39868 43.14994
#
# Velocity S-wave (km/s) = 6.06607 3.48317 4.94620
# Velocity P-wave (km/s) = 8.79227 7.61301 8.22381
#
# Compressibility (1/GPa) = 0.02007618
#
# Stress axis : x y z
#
# Youngs Moduli (GPa) = 39.36633 82.65620 122.50265
#
# Poissons Ratio (x) = 0.45353 0.39138
# Poissons Ratio (y) = 0.21600 0.50372
# Poissons Ratio (z) = 0.12577 0.33988
#
# Static dielectric constant tensor:
#      x y z
#    x 1.577700 0.000000 0.000000 
#    y 0.000000 1.592920 0.000000 
#    z 0.000000 0.000000 1.573800 
# 
# From -- ./inp_files/10905.got.cif
#   From: 2010.05.17/outbox.cif.g08.bks.cpg/sg65_6_cif.got.tgz:10905.got - 2010.06.03 17:01:31.
