data_PCOD9486347
_publ_section_title
;
Structure prediction by ZEFSAII (Michael W. Deem and Ramdas Pophale) SiO2 
 PCOD9486347
Probable space group: C M M M
;
_chemical_formula_sum "Si O2"
_cell_formula_units_Z 96
_cell_length_a 25.209671
_cell_length_b 23.415828
_cell_length_c 7.573507
_cell_angle_alpha 90.000000
_cell_angle_beta 90.000000
_cell_angle_gamma 90.000000
_cell_volume 4470.681474
_symmetry_space_group_name_H-M "C M M M"
_symmetry_group_IT_number 65
_symmetry_cell_setting 'orthorhombic'
loop_
_space_group_symop_operation_xyz
x,y,z
-x,-y,z
x,-y,-z
-x,y,-z
-x,-y,-z
x,y,-z
-x,y,z
x,-y,z
1/2+x,1/2+y,z
1/2-x,1/2-y,z
1/2+x,1/2-y,-z
1/2-x,1/2+y,-z
1/2-x,1/2-y,-z
1/2+x,1/2+y,-z
1/2-x,1/2+y,z
1/2+x,1/2-y,z
loop_
_atom_site_type_symbol
_atom_site_label
_atom_site_fract_x
_atom_site_fract_y
_atom_site_fract_z
Si Si1 0.696725 0.897944 0.286842
Si Si2 0.084561 0.561933 0.284291
Si Si3 0.808744 0.268382 0.286556
Si Si4 0.500000 0.711323 0.788835
Si Si5 0.611752 0.332717 0.792139
Si Si6 0.500000 0.846003 0.713172
Si Si7 0.816245 0.936084 0.209980
O O1 0.697609 0.898401 0.500000
O O2 0.645795 0.933623 0.229500
O O3 0.684930 0.833330 0.228468
O O4 0.754733 0.918569 0.232293
O O5 0.083349 0.563136 0.500000
O O6 0.063100 0.500000 0.230365
O O7 0.050552 0.616541 0.226649
O O8 0.810655 0.267343 0.500000
O O9 0.750000 0.250000 0.230980
O O10 0.851918 0.223496 0.223758
O O11 0.446076 0.682696 0.717536
O O12 0.500000 0.779783 0.763041
O O13 0.500000 0.703175 0.000000
O O14 0.645078 0.386443 0.717839
O O15 0.604569 0.344151 0.000000
O O16 0.500000 0.846449 0.500000
O O17 0.824661 0.000000 0.282254
O O18 0.825319 0.938654 0.000000
#
# Coordination Sequence:
#
# PCOD9486347 Si02
#       7
#    16  16  16   8  16   8  16
#     4  10  19  32  51  77 108 141 173 209 257 309
#     4   9  17  29  48  75 104 135 175 216 249 292
#     4  10  19  32  52  81 113 138 169 216 261 304
#     4  10  22  39  56  77 104 134 169 216 266 314
#     4  10  21  37  56  77 105 139 175 213 262 317
#     4  10  19  34  56  77  99 133 175 216 260 304
#     4  10  21  36  53  75 103 134 171 215 260 310
#
# _framework density 21.473236
#
# number of rings (size 3 to 8) (size 9 to 14) (size 15 to 20)
#    0.000    2.167    1.667    1.750    0.000    5.000 
#    0.000    1.250    0.000    4.500    0.000    0.000 
#    0.000    3.333    0.000    0.000    0.000    0.000 
#
# Total GULP energy -268041.835084 kJ/mol
# GULP energy per Si atom -5584.204898 kJ/mol
# Density = 2.142436 g / cm^3
# Si number density = 21.473236 Si / 1000 Ang^3
#
#
#
# Elastic Constant Matrix: (Units=GPa)
#
#
# Indices 1 2 3 4 5 6 
#
# 1 188.9930 97.7321 4.1032 0.0000 0.0000 0.0000
# 2 97.7321 178.8610 4.2744 0.0000 0.0000 0.0000
# 3 4.1032 4.2744 47.0422 0.0000 0.0000 0.0000
# 4 0.0000 0.0000 0.0000 48.1038 0.0000 0.0000
# 5 0.0000 0.0000 0.0000 0.0000 29.8609 0.0000
# 6 0.0000 0.0000 0.0000 0.0000 0.0000 17.3882
#
#
#
# Elastic Compliance Matrix: (Units=1/GPa)
#
#
# Indices 1 2 3 4 5 6 
#
# 1 0.007379 -0.004025 -0.000278 0.000000 0.000000 0.000000
# 2 -0.004025 0.007799 -0.000358 0.000000 0.000000 0.000000
# 3 -0.000278 -0.000358 0.021314 0.000000 0.000000 0.000000
# 4 0.000000 0.000000 0.000000 0.020788 0.000000 0.000000
# 5 0.000000 0.000000 0.000000 0.000000 0.033489 0.000000
# 6 0.000000 0.000000 0.000000 0.000000 0.000000 0.057510
#
#
# Mechanical properties :
#
#
# Convention : Reuss Voigt Hill
#
# Bulk Modulus (GPa) = 36.80439 69.67951 53.24195
# Shear Modulus (GPa) = 30.00172 39.65636 34.82904
#
# Velocity S-wave (km/s) = 3.74193 4.30208 4.03174
# Velocity P-wave (km/s) = 5.98717 7.56288 6.82068
#
# Compressibility (1/GPa) = 0.02717067
#
# Stress axis : x y z
#
# Youngs Moduli (GPa) = 135.52429 128.22309 46.91701
#
# Poissons Ratio (x) = 0.51612 0.01304
# Poissons Ratio (y) = 0.54551 0.01677
# Poissons Ratio (z) = 0.03766 0.04584
#
# Static dielectric constant tensor:
#      x y z
#    x 1.770010 0.000000 0.000000 
#    y 0.000000 1.792120 0.000000 
#    z 0.000000 0.000000 1.830710 
# 
# From -- ./inp_files/14348.got.cif
#   From: 2010.05.17/outbox.cif.g08.bks.cpg/sg65_8_cif.got.tgz:14348.got - 2010.06.03 17:01:31.
