data_PCOD9486539
_publ_section_title
;
Structure prediction by ZEFSAII (Michael W. Deem and Ramdas Pophale) SiO2 
 PCOD9486539
Probable space group: C M M M
;
_chemical_formula_sum "Si O2"
_cell_formula_units_Z 88
_cell_length_a 22.781723
_cell_length_b 23.954784
_cell_length_c 7.499375
_cell_angle_alpha 90.000000
_cell_angle_beta 90.000000
_cell_angle_gamma 90.000000
_cell_volume 4092.643320
_symmetry_space_group_name_H-M "C M M M"
_symmetry_group_IT_number 65
_symmetry_cell_setting 'orthorhombic'
loop_
_space_group_symop_operation_xyz
x,y,z
-x,-y,z
x,-y,-z
-x,y,-z
-x,-y,-z
x,y,-z
-x,y,z
x,-y,z
1/2+x,1/2+y,z
1/2-x,1/2-y,z
1/2+x,1/2-y,-z
1/2-x,1/2+y,-z
1/2-x,1/2-y,-z
1/2+x,1/2+y,-z
1/2-x,1/2+y,z
1/2+x,1/2-y,z
loop_
_atom_site_type_symbol
_atom_site_label
_atom_site_fract_x
_atom_site_fract_y
_atom_site_fract_z
Si Si1 0.500000 0.565914 0.782493
Si Si2 0.566911 0.060819 0.282956
Si Si3 0.245725 0.938778 0.706607
Si Si4 0.125643 0.112440 0.791600
Si Si5 0.183542 0.231773 0.714882
Si Si6 0.660483 0.148656 0.717737
O O1 0.500000 0.500000 0.731071
O O2 0.560234 0.597267 0.724106
O O3 0.500000 0.567151 0.000000
O O4 0.566940 0.061676 0.500000
O O5 0.500000 0.066127 0.225203
O O6 0.607768 0.109936 0.222868
O O7 0.589637 0.000000 0.229157
O O8 0.264305 0.942189 0.500000
O O9 0.176937 0.925650 0.710874
O O10 0.281084 0.884882 0.778036
O O11 0.257611 0.000000 0.786407
O O12 0.150143 0.175866 0.773562
O O13 0.125075 0.099084 0.000000
O O14 0.186710 0.225985 0.500000
O O15 0.250000 0.250000 0.770309
O O16 0.150688 0.287972 0.772367
O O17 0.663014 0.151420 0.500000
#
# Coordination Sequence:
#
# PCOD9486539 Si02
#       6
#     8  16  16  16  16  16
#     4   9  20  40  61  79 105 145 186 229 286 342
#     4   8  13  22  38  63  95 128 165 206 245 294
#     4  10  19  32  53  80 108 138 174 217 271 330
#     4  11  22  37  58  80 106 140 184 229 273 330
#     4  10  19  35  55  75 107 143 174 214 267 324
#     4   9  16  28  46  68 100 140 173 204 254 316
#
# _framework density 21.501995000000001
#
# number of rings (size 3 to 8) (size 9 to 14) (size 15 to 20)
#    0.000    2.455    1.818    2.182    0.000    3.636 
#    1.636    1.818    0.000    3.273    0.000    0.000 
#    0.000    0.000    0.000    5.818    0.000    5.455 
#
# Total GULP energy -245278.813277 kJ/mol
# GULP energy per Si atom -5574.518484 kJ/mol
# Density = 2.145306 g / cm^3
# Si number density = 21.501995 Si / 1000 Ang^3
#
#
#
# Elastic Constant Matrix: (Units=GPa)
#
#
# Indices 1 2 3 4 5 6 
#
# 1 102.9925 55.9640 -8.4815 0.0000 0.0000 0.0000
# 2 55.9640 144.0846 -6.1346 0.0000 0.0000 0.0000
# 3 -8.4815 -6.1346 53.8257 0.0000 0.0000 0.0000
# 4 0.0000 0.0000 0.0000 24.8788 0.0000 0.0000
# 5 0.0000 0.0000 0.0000 0.0000 49.7392 0.0000
# 6 0.0000 0.0000 0.0000 0.0000 0.0000 71.5563
#
#
#
# Elastic Compliance Matrix: (Units=1/GPa)
#
#
# Indices 1 2 3 4 5 6 
#
# 1 0.012413 -0.004761 0.001413 0.000000 0.000000 0.000000
# 2 -0.004761 0.008800 0.000253 0.000000 0.000000 0.000000
# 3 0.001413 0.000253 0.018830 0.000000 0.000000 0.000000
# 4 0.000000 0.000000 0.000000 0.040195 0.000000 0.000000
# 5 0.000000 0.000000 0.000000 0.000000 0.020105 0.000000
# 6 0.000000 0.000000 0.000000 0.000000 0.000000 0.013975
#
#
# Mechanical properties :
#
#
# Convention : Reuss Voigt Hill
#
# Bulk Modulus (GPa) = 29.53929 42.62206 36.08067
# Shear Modulus (GPa) = 37.93841 46.53852 42.23846
#
# Velocity S-wave (km/s) = 4.20505 4.65734 4.43696
# Velocity P-wave (km/s) = 6.11100 6.98473 6.56242
#
# Compressibility (1/GPa) = 0.03385322
#
# Stress axis : x y z
#
# Youngs Moduli (GPa) = 80.56112 113.63109 53.10673
#
# Poissons Ratio (x) = 0.54101 -0.07506
# Poissons Ratio (y) = 0.38356 -0.01342
# Poissons Ratio (z) = -0.11386 -0.02872
#
# Static dielectric constant tensor:
#      x y z
#    x 1.789850 0.000000 0.000000 
#    y 0.000000 1.800740 0.000000 
#    z 0.000000 0.000000 1.854210 
# 
# From -- ./inp_files/11832.got.cif
#   From: 2010.05.17/outbox.cif.g08.bks.cpg/sg65_6_cif.got.tgz:11832.got - 2010.06.03 17:01:31.
