data_PCOD9486441
_publ_section_title
;
Structure prediction by ZEFSAII (Michael W. Deem and Ramdas Pophale) SiO2 
 PCOD9486441
Probable space group: C M M M
;
_chemical_formula_sum "Si O2"
_cell_formula_units_Z 104
_cell_length_a 20.146534
_cell_length_b 15.358956
_cell_length_c 15.948831
_cell_angle_alpha 90.000000
_cell_angle_beta 90.000000
_cell_angle_gamma 90.000000
_cell_volume 4935.042458
_symmetry_space_group_name_H-M "C M M M"
_symmetry_group_IT_number 65
_symmetry_cell_setting 'orthorhombic'
loop_
_space_group_symop_operation_xyz
x,y,z
-x,-y,z
x,-y,-z
-x,y,-z
-x,-y,-z
x,y,-z
-x,y,z
x,-y,z
1/2+x,1/2+y,z
1/2-x,1/2-y,z
1/2+x,1/2-y,-z
1/2-x,1/2+y,-z
1/2-x,1/2-y,-z
1/2+x,1/2+y,-z
1/2-x,1/2+y,z
1/2+x,1/2-y,z
loop_
_atom_site_type_symbol
_atom_site_label
_atom_site_fract_x
_atom_site_fract_y
_atom_site_fract_z
Si Si1 0.720749 0.404563 0.901102
Si Si2 0.666027 0.900884 0.355755
Si Si3 0.368269 0.905845 0.839701
Si Si4 0.424362 0.739952 0.599502
Si Si5 0.500000 0.403680 0.101589
Si Si6 0.682966 0.600667 0.398332
Si Si7 0.115560 0.774360 0.899130
O O1 0.700396 0.500000 0.865488
O O2 0.799352 0.399101 0.890615
O O3 0.684573 0.317955 0.869213
O O4 0.704621 0.407342 0.000000
O O5 0.652616 0.905006 0.256892
O O6 0.613584 0.831681 0.390314
O O7 0.742365 0.873862 0.371375
O O8 0.658574 0.000000 0.389515
O O9 0.405047 0.817199 0.860293
O O10 0.399697 0.000000 0.858722
O O11 0.429753 0.723750 0.500000
O O12 0.500000 0.740115 0.633589
O O13 0.374423 0.665440 0.633444
O O14 0.500000 0.500000 0.136586
O O15 0.436165 0.348665 0.123753
O O16 0.500000 0.409470 0.000000
O O17 0.682715 0.603364 0.500000
O O18 0.672017 0.500000 0.372775
O O19 0.116858 0.762142 0.000000
#
# Coordination Sequence:
#
# PCOD9486441 Si02
#       7
#    16  16  16  16   8  16  16
#     4   9  17  30  50  77 106 134 169 218 272 321
#     4  10  21  37  56  79 108 146 189 230 273 321
#     4  10  21  35  51  75 105 140 178 220 270 321
#     4  10  21  36  56  84 114 144 179 222 274 330
#     4   9  18  34  55  77 101 131 171 218 266 320
#     4   9  18  34  58  86 114 145 181 223 271 326
#     4  10  19  32  52  77 104 137 177 220 267 318
#
# _framework density 21.073779999999999
#
# number of rings (size 3 to 8) (size 9 to 14) (size 15 to 20)
#    0.000    2.385    0.000    2.308    0.000    9.231 
#    1.385    2.692    0.000    2.308    0.000    0.000 
#    0.000    0.000    0.000    0.000    0.000    0.000 
#
# Total GULP energy -290043.092819 kJ/mol
# GULP energy per Si atom -5577.751785 kJ/mol
# Density = 2.102581 g / cm^3
# Si number density = 21.073780 Si / 1000 Ang^3
#
#
#
# Elastic Constant Matrix: (Units=GPa)
#
#
# Indices 1 2 3 4 5 6 
#
# 1 101.5543 63.4132 4.4768 0.0000 0.0000 0.0000
# 2 63.4132 157.2162 14.3052 0.0000 0.0000 0.0000
# 3 4.4768 14.3052 17.6752 0.0000 0.0000 0.0000
# 4 0.0000 0.0000 0.0000 12.2228 0.0000 0.0000
# 5 0.0000 0.0000 0.0000 0.0000 -16.8226 0.0000
# 6 0.0000 0.0000 0.0000 0.0000 0.0000 -142.1413
#
#
#
# Elastic Compliance Matrix: (Units=1/GPa)
#
#
# Indices 1 2 3 4 5 6 
#
# 1 0.013180 -0.005411 0.001041 0.000000 0.000000 0.000000
# 2 -0.005411 0.009088 -0.005985 0.000000 0.000000 0.000000
# 3 0.001041 -0.005985 0.061156 0.000000 0.000000 0.000000
# 4 0.000000 0.000000 0.000000 0.081814 0.000000 0.000000
# 5 0.000000 0.000000 0.000000 0.000000 -0.059444 0.000000
# 6 0.000000 0.000000 0.000000 0.000000 0.000000 -0.007035
#
#
# Mechanical properties :
#
#
# Convention : Reuss Voigt Hill
#
# Bulk Modulus (GPa) = 15.94515 48.98179 32.46347
# Shear Modulus (GPa) = 35.61958 -16.39817 9.61070
#
# Velocity S-wave (km/s) = 4.11570 -2.79253 2.13785
# Velocity P-wave (km/s) = 5.49255 3.59108 4.64026
#
# Compressibility (1/GPa) = 0.06271500
#
# Stress axis : x y z
#
# Youngs Moduli (GPa) = 75.87449 110.03977 16.35153
#
# Poissons Ratio (x) = 0.59540 -0.01702
# Poissons Ratio (y) = 0.41054 0.09786
# Poissons Ratio (z) = -0.07898 0.65854
#
# Static dielectric constant tensor:
#      x y z
#    x 1.793130 0.000000 0.000000 
#    y 0.000000 1.818550 0.000000 
#    z 0.000000 0.000000 1.771690 
# 
# From -- ./inp_files/55848.got.cif
#   From: 2010.05.17/outbox.cif.g08.bks.cpg/sg65_28_cif.got.tgz:55848.got - 2010.06.03 17:01:31.
