data_PCOD9486134
_publ_section_title
;
Structure prediction by ZEFSAII (Michael W. Deem and Ramdas Pophale) SiO2 
 PCOD9486134
Probable space group: C M M M
;
_chemical_formula_sum "Si O2"
_cell_formula_units_Z 120
_cell_length_a 18.756323
_cell_length_b 14.680338
_cell_length_c 20.110050
_cell_angle_alpha 90.000000
_cell_angle_beta 90.000000
_cell_angle_gamma 90.000000
_cell_volume 5537.285401
_symmetry_space_group_name_H-M "C M M M"
_symmetry_group_IT_number 65
_symmetry_cell_setting 'orthorhombic'
loop_
_space_group_symop_operation_xyz
x,y,z
-x,-y,z
x,-y,-z
-x,y,-z
-x,-y,-z
x,y,-z
-x,y,z
x,-y,z
1/2+x,1/2+y,z
1/2-x,1/2-y,z
1/2+x,1/2-y,-z
1/2-x,1/2+y,-z
1/2-x,1/2-y,-z
1/2+x,1/2+y,-z
1/2-x,1/2+y,z
1/2+x,1/2-y,z
loop_
_atom_site_type_symbol
_atom_site_label
_atom_site_fract_x
_atom_site_fract_y
_atom_site_fract_z
Si Si1 0.337089 0.604591 0.207644
Si Si2 0.919346 0.111565 0.663791
Si Si3 0.358346 0.888658 0.346591
Si Si4 0.500000 0.111629 0.576524
Si Si5 0.918622 0.649525 0.925476
Si Si6 0.418358 0.631824 0.072835
Si Si7 0.322828 0.890761 0.798650
Si Si8 0.215091 0.111286 0.576547
O O1 0.326231 0.500000 0.229030
O O2 0.390256 0.641621 0.263722
O O3 0.372198 0.604771 0.135506
O O4 0.258253 0.645080 0.202648
O O5 0.858535 0.139514 0.611551
O O6 0.000000 0.143269 0.651413
O O7 0.922302 0.000000 0.662369
O O8 0.428287 0.858910 0.386102
O O9 0.359549 0.859742 0.269696
O O10 0.284620 0.859671 0.381707
O O11 0.358167 0.000000 0.347951
O O12 0.500000 0.140854 0.500000
O O13 0.500000 0.000000 0.576746
O O14 0.920474 0.758848 0.928250
O O15 0.865530 0.628467 0.865784
O O16 0.000000 0.617756 0.912343
O O17 0.897951 0.617266 0.000000
O O18 0.500000 0.601071 0.080751
O O19 0.391972 0.602428 0.000000
O O20 0.319568 0.000000 0.795261
O O21 0.219452 0.140300 0.500000
O O22 0.215689 0.000000 0.577101
#
# Coordination Sequence:
#
# PCOD9486134 Si02
#       8
#    16  16  16   8  16  16  16  16
#     4  10  19  32  49  73 103 134 165 202 248 298
#     4   9  16  26  40  61  92 128 164 201 243 290
#     4   9  16  27  40  61  94 129 164 203 248 294
#     4   9  16  24  38  62  91 127 169 207 247 298
#     4   9  20  38  55  72  97 129 165 207 253 298
#     4   9  19  36  55  74  98 128 162 204 252 299
#     4  10  20  32  49  72 101 135 170 206 247 296
#     4   9  15  24  39  58  88 130 165 196 241 293
#
# _framework density 21.671268999999999
#
# number of rings (size 3 to 8) (size 9 to 14) (size 15 to 20)
#    0.000    2.733    1.333    1.600    0.933    4.533 
#    0.000    5.333    0.000    0.000    0.000    0.000 
#    0.000    3.200    0.267    0.000    0.000    0.000 
#
# Total GULP energy -335012.768178 kJ/mol
# GULP energy per Si atom -5583.546136 kJ/mol
# Density = 2.162194 g / cm^3
# Si number density = 21.671269 Si / 1000 Ang^3
#
#
#
# Elastic Constant Matrix: (Units=GPa)
#
#
# Indices 1 2 3 4 5 6 
#
# 1 180.1802 13.0537 109.3130 0.0000 0.0000 0.0000
# 2 13.0537 54.7186 2.3717 0.0000 0.0000 0.0000
# 3 109.3130 2.3717 178.2468 0.0000 0.0000 0.0000
# 4 0.0000 0.0000 0.0000 47.0757 0.0000 0.0000
# 5 0.0000 0.0000 0.0000 0.0000 40.5039 0.0000
# 6 0.0000 0.0000 0.0000 0.0000 0.0000 13.4884
#
#
#
# Elastic Compliance Matrix: (Units=1/GPa)
#
#
# Indices 1 2 3 4 5 6 
#
# 1 0.009035 -0.001916 -0.005515 0.000000 0.000000 0.000000
# 2 -0.001916 0.018692 0.000927 0.000000 0.000000 0.000000
# 3 -0.005515 0.000927 0.008980 0.000000 0.000000 0.000000
# 4 0.000000 0.000000 0.000000 0.021242 0.000000 0.000000
# 5 0.000000 0.000000 0.000000 0.000000 0.024689 0.000000
# 6 0.000000 0.000000 0.000000 0.000000 0.000000 0.074138
#
#
# Mechanical properties :
#
#
# Convention : Reuss Voigt Hill
#
# Bulk Modulus (GPa) = 42.19907 73.62471 57.91189
# Shear Modulus (GPa) = 28.13953 39.44075 33.79014
#
# Velocity S-wave (km/s) = 3.60734 4.27072 3.95297
# Velocity P-wave (km/s) = 6.07167 7.63976 6.90040
#
# Compressibility (1/GPa) = 0.02369720
#
# Stress axis : x y z
#
# Youngs Moduli (GPa) = 110.68181 53.49788 111.35564
#
# Poissons Ratio (x) = 0.10252 0.61416
# Poissons Ratio (y) = 0.21210 -0.10317
# Poissons Ratio (z) = 0.61045 -0.04957
#
# Static dielectric constant tensor:
#      x y z
#    x 1.752740 0.000000 0.000000 
#    y 0.000000 1.853280 0.000000 
#    z 0.000000 0.000000 1.756220 
# 
# From -- ./inp_files/54950.got.cif
#   From: 2010.05.17/outbox.cif.g08.bks.cpg/sg65_28_cif.got.tgz:54950.got - 2010.06.03 17:01:31.
