data_PCOD9486760
_publ_section_title
;
Structure prediction by ZEFSAII (Michael W. Deem and Ramdas Pophale) SiO2 
 PCOD9486760
Probable space group: C M M M
;
_chemical_formula_sum "Si O2"
_cell_formula_units_Z 80
_cell_length_a 7.375273
_cell_length_b 16.027898
_cell_length_c 30.446862
_cell_angle_alpha 90.000000
_cell_angle_beta 90.000000
_cell_angle_gamma 90.000000
_cell_volume 3599.127313
_symmetry_space_group_name_H-M "C M M M"
_symmetry_group_IT_number 65
_symmetry_cell_setting 'orthorhombic'
loop_
_space_group_symop_operation_xyz
x,y,z
-x,-y,z
x,-y,-z
-x,y,-z
-x,-y,-z
x,y,-z
-x,y,z
x,-y,z
1/2+x,1/2+y,z
1/2-x,1/2-y,z
1/2+x,1/2-y,-z
1/2-x,1/2+y,-z
1/2-x,1/2-y,-z
1/2+x,1/2+y,-z
1/2-x,1/2+y,z
1/2+x,1/2-y,z
loop_
_atom_site_type_symbol
_atom_site_label
_atom_site_fract_x
_atom_site_fract_y
_atom_site_fract_z
Si Si1 0.781088 0.095313 0.802917
Si Si2 0.784034 0.151633 0.290920
Si Si3 0.278158 0.500000 0.449492
Si Si4 0.283929 0.658053 0.893501
Si Si5 0.782943 0.848615 0.611555
Si Si6 0.277916 0.500000 0.949464
O O1 0.711521 0.112065 0.753878
O O2 0.713415 0.150528 0.843381
O O3 0.000000 0.105958 0.800155
O O4 0.745628 0.000000 0.815295
O O5 0.750000 0.250000 0.286735
O O6 0.713664 0.129060 0.339387
O O7 0.000000 0.135058 0.292017
O O8 0.500000 0.500000 0.449468
O O9 0.220224 0.500000 0.500000
O O10 0.219085 0.583761 0.423817
O O11 0.500000 0.646945 0.890600
O O12 0.250000 0.750000 0.911354
O O13 0.217370 0.582672 0.923627
O O14 0.750000 0.750000 0.602711
O O15 0.000000 0.856532 0.613035
O O16 0.500000 0.500000 0.949317
O O17 0.221088 0.500000 0.000000
#
# Coordination Sequence:
#
# PCOD9486760 Si02
#       6
#    16  16   8  16  16   8
#     4   9  16  27  46  71  96 125 162 198 230 275
#     4   9  17  28  45  68  94 122 155 193 232 277
#     4   9  18  32  50  72  96 123 159 201 242 284
#     4  10  19  33  53  75  99 129 164 200 240 286
#     4   9  18  32  50  72  97 126 159 196 239 285
#     4   9  18  34  54  74  98 129 165 201 240 292
#
# _framework density 22.227611
#
# number of rings (size 3 to 8) (size 9 to 14) (size 15 to 20)
#    0.000    2.800    1.000    0.600    1.400    0.800 
#    0.000    1.000    0.000    3.000    0.000    0.000 
#    0.000    0.000    0.000    0.000    0.000    0.000 
#
# Total GULP energy -223228.420111 kJ/mol
# GULP energy per Si atom -5580.710503 kJ/mol
# Density = 2.217702 g / cm^3
# Si number density = 22.227611 Si / 1000 Ang^3
#
#
#
# Elastic Constant Matrix: (Units=GPa)
#
#
# Indices 1 2 3 4 5 6 
#
# 1 81.1619 -2.7444 10.4373 0.0000 0.0000 0.0000
# 2 -2.7444 145.1247 113.7632 0.0000 0.0000 0.0000
# 3 10.4373 113.7632 186.0294 0.0000 0.0000 0.0000
# 4 0.0000 0.0000 0.0000 14.7079 0.0000 0.0000
# 5 0.0000 0.0000 0.0000 0.0000 -104.5947 0.0000
# 6 0.0000 0.0000 0.0000 0.0000 0.0000 16.2885
#
#
#
# Elastic Compliance Matrix: (Units=1/GPa)
#
#
# Indices 1 2 3 4 5 6 
#
# 1 0.012583 0.001520 -0.001636 0.000000 0.000000 0.000000
# 2 0.001520 0.013419 -0.008291 0.000000 0.000000 0.000000
# 3 -0.001636 -0.008291 0.010538 0.000000 0.000000 0.000000
# 4 0.000000 0.000000 0.000000 0.067991 0.000000 0.000000
# 5 0.000000 0.000000 0.000000 0.000000 -0.009561 0.000000
# 6 0.000000 0.000000 0.000000 0.000000 0.000000 0.061393
#
#
# Mechanical properties :
#
#
# Convention : Reuss Voigt Hill
#
# Bulk Modulus (GPa) = 50.69535 72.80312 61.74924
# Shear Modulus (GPa) = 27.81616 4.67101 16.24359
#
# Velocity S-wave (km/s) = 3.54138 1.45121 2.70623
# Velocity P-wave (km/s) = 6.29117 5.96930 6.13235
#
# Compressibility (1/GPa) = 0.01972567
#
# Stress axis : x y z
#
# Youngs Moduli (GPa) = 79.47371 74.52088 94.89669
#
# Poissons Ratio (x) = -0.11327 0.15520
# Poissons Ratio (y) = -0.12080 0.78683
# Poissons Ratio (z) = 0.12998 0.61789
#
# Static dielectric constant tensor:
#      x y z
#    x 1.859050 0.000000 0.000000 
#    y 0.000000 1.781020 0.000000 
#    z 0.000000 0.000000 1.819670 
# 
# From -- ./inp_files/74188.got.cif
#   From: 2010.05.17/outbox.cif.g08.bks.cpg/sg65_38_cif.got.tgz:74188.got - 2010.06.03 17:01:31.
