data_PCOD9486536
_publ_section_title
;
Structure prediction by ZEFSAII (Michael W. Deem and Ramdas Pophale) SiO2 
 PCOD9486536
Probable space group: C M M M
;
_chemical_formula_sum "Si O2"
_cell_formula_units_Z 104
_cell_length_a 29.404115
_cell_length_b 8.715084
_cell_length_c 23.510397
_cell_angle_alpha 90.000000
_cell_angle_beta 90.000000
_cell_angle_gamma 90.000000
_cell_volume 6024.758634
_symmetry_space_group_name_H-M "C M M M"
_symmetry_group_IT_number 65
_symmetry_cell_setting 'orthorhombic'
loop_
_space_group_symop_operation_xyz
x,y,z
-x,-y,z
x,-y,-z
-x,y,-z
-x,-y,-z
x,y,-z
-x,y,z
x,-y,z
1/2+x,1/2+y,z
1/2-x,1/2-y,z
1/2+x,1/2-y,-z
1/2-x,1/2+y,-z
1/2-x,1/2-y,-z
1/2+x,1/2+y,-z
1/2-x,1/2+y,z
1/2+x,1/2-y,z
loop_
_atom_site_type_symbol
_atom_site_label
_atom_site_fract_x
_atom_site_fract_y
_atom_site_fract_z
Si Si1 0.449535 0.813408 0.779188
Si Si2 0.800723 0.814848 0.500000
Si Si3 0.948438 0.315069 0.646011
Si Si4 0.855507 0.183782 0.612614
Si Si5 0.143808 0.314707 0.832818
Si Si6 0.200335 0.816491 0.934472
Si Si7 0.300650 0.184090 0.280500
O O1 0.500000 0.761919 0.796959
O O2 0.442925 0.772200 0.712822
O O3 0.407102 0.762146 0.816736
O O4 0.449491 0.000000 0.780371
O O5 0.750000 0.750000 0.500000
O O6 0.828040 0.767464 0.443562
O O7 0.798232 0.000000 0.500000
O O8 0.944685 0.500000 0.642743
O O9 0.907538 0.239489 0.611952
O O10 0.000000 0.273083 0.628971
O O11 0.830990 0.253865 0.667812
O O12 0.854154 0.000000 0.616341
O O13 0.143784 0.500000 0.837033
O O14 0.163833 0.245777 0.890151
O O15 0.175978 0.273154 0.779389
O O16 0.250000 0.750000 0.919601
O O17 0.202341 0.000000 0.931497
O O18 0.190632 0.771719 0.000000
O O19 0.250000 0.250000 0.284137
O O20 0.299313 0.000000 0.283754
#
# Coordination Sequence:
#
# PCOD9486536 Si02
#       7
#    16   8  16  16  16  16  16
#     4   8  14  28  51  78 107 137 169 208 256 307
#     4  10  24  42  57  76 101 139 184 225 267 316
#     4   9  17  33  57  82 109 140 174 215 264 317
#     4  11  22  37  56  78 106 139 178 222 268 319
#     4  10  19  32  53  80 107 136 172 214 262 312
#     4  10  21  36  53  74 103 140 180 220 261 308
#     4  11  22  35  51  77 109 138 172 215 269 321
#
# _framework density 17.262103
#
# number of rings (size 3 to 8) (size 9 to 14) (size 15 to 20)
#    0.000    2.154    1.538    3.231    0.000    6.154 
#    0.000    0.385    0.000    3.231    0.000    3.231 
#    0.000    0.000    0.000    0.000    0.000    0.000 
#
# Total GULP energy -290221.333521 kJ/mol
# GULP energy per Si atom -5581.179491 kJ/mol
# Density = 1.722281 g / cm^3
# Si number density = 17.262103 Si / 1000 Ang^3
#
#
#
# Elastic Constant Matrix: (Units=GPa)
#
#
# Indices 1 2 3 4 5 6 
#
# 1 168.2856 33.9856 72.3620 0.0000 0.0000 0.0000
# 2 33.9856 23.2719 25.6622 0.0000 0.0000 0.0000
# 3 72.3620 25.6622 88.2925 0.0000 0.0000 0.0000
# 4 0.0000 0.0000 0.0000 17.5447 0.0000 0.0000
# 5 0.0000 0.0000 0.0000 0.0000 30.5828 0.0000
# 6 0.0000 0.0000 0.0000 0.0000 0.0000 27.0976
#
#
#
# Elastic Compliance Matrix: (Units=1/GPa)
#
#
# Indices 1 2 3 4 5 6 
#
# 1 0.010166 -0.008328 -0.005911 0.000000 0.000000 0.000000
# 2 -0.008328 0.070060 -0.013538 0.000000 0.000000 0.000000
# 3 -0.005911 -0.013538 0.020105 0.000000 0.000000 0.000000
# 4 0.000000 0.000000 0.000000 0.056997 0.000000 0.000000
# 5 0.000000 0.000000 0.000000 0.000000 0.032698 0.000000
# 6 0.000000 0.000000 0.000000 0.000000 0.000000 0.036904
#
#
# Mechanical properties :
#
#
# Convention : Reuss Voigt Hill
#
# Bulk Modulus (GPa) = 22.33243 60.42996 41.38120
# Shear Modulus (GPa) = 16.81183 24.90104 20.85643
#
# Velocity S-wave (km/s) = 3.12415 3.80218 3.47972
# Velocity P-wave (km/s) = 5.09697 7.37284 6.33789
#
# Compressibility (1/GPa) = 0.04477792
#
# Stress axis : x y z
#
# Youngs Moduli (GPa) = 98.36859 14.27349 49.73770
#
# Poissons Ratio (x) = 0.11886 0.29401
# Poissons Ratio (y) = 0.81917 0.67334
# Poissons Ratio (z) = 0.58148 0.19323
#
# Static dielectric constant tensor:
#      x y z
#    x 1.585330 0.000000 0.000000 
#    y 0.000000 1.583640 0.000000 
#    z 0.000000 0.000000 1.566020 
# 
# From -- ./inp_files/60831.got.cif
#   From: 2010.05.17/outbox.cif.g08.bks.cpg/sg65_31_cif.got.tgz:60831.got - 2010.06.03 17:01:31.
