data_PCOD9486590
_publ_section_title
;
Structure prediction by ZEFSAII (Michael W. Deem and Ramdas Pophale) SiO2 
 PCOD9486590
Probable space group: C M M M
;
_chemical_formula_sum "Si O2"
_cell_formula_units_Z 56
_cell_length_a 15.339971
_cell_length_b 8.999747
_cell_length_c 19.979304
_cell_angle_alpha 90.000000
_cell_angle_beta 90.000000
_cell_angle_gamma 90.000000
_cell_volume 2758.259956
_symmetry_space_group_name_H-M "C M M M"
_symmetry_group_IT_number 65
_symmetry_cell_setting 'orthorhombic'
loop_
_space_group_symop_operation_xyz
x,y,z
-x,-y,z
x,-y,-z
-x,y,-z
-x,-y,-z
x,y,-z
-x,y,z
x,-y,z
1/2+x,1/2+y,z
1/2-x,1/2-y,z
1/2+x,1/2-y,-z
1/2-x,1/2+y,-z
1/2-x,1/2-y,-z
1/2+x,1/2+y,-z
1/2-x,1/2+y,z
1/2+x,1/2-y,z
loop_
_atom_site_type_symbol
_atom_site_label
_atom_site_fract_x
_atom_site_fract_y
_atom_site_fract_z
Si Si1 0.605942 0.670477 0.790688
Si Si2 0.840516 0.323368 0.344457
Si Si3 0.606298 0.827267 0.925634
Si Si4 0.500000 0.326435 0.580024
O O1 0.500000 0.675830 0.788518
O O2 0.632713 0.500000 0.779216
O O3 0.640901 0.774215 0.731961
O O4 0.634766 0.727720 0.863514
O O5 0.838339 0.500000 0.349835
O O6 0.750000 0.250000 0.365305
O O7 0.916662 0.254147 0.389060
O O8 0.500000 0.823684 0.925713
O O9 0.630980 0.000000 0.916066
O O10 0.634564 0.778738 0.000000
O O11 0.500000 0.500000 0.600419
O O12 0.500000 0.318349 0.500000
#
# Coordination Sequence:
#
# PCOD9486590 Si02
#       4
#    16  16  16   8
#     4  10  19  32  54  83 120 161 207 261 314 372
#     4  12  25  42  67  96 130 170 213 260 311 371
#     4   8  14  25  43  71 109 153 204 258 311 369
#     4  11  25  47  73 101 134 167 204 253 307 369
#
# _framework density 20.302655999999999
#
# number of rings (size 3 to 8) (size 9 to 14) (size 15 to 20)
#    0.000    1.857    1.429    4.714    0.000    3.429 
#    0.000    2.857    0.000    0.857    0.000    0.000 
#    0.000    0.000    0.000    0.000    0.000    0.000 
#
# Total GULP energy -156565.250833 kJ/mol
# GULP energy per Si atom -5591.616101 kJ/mol
# Density = 2.025645 g / cm^3
# Si number density = 20.302656 Si / 1000 Ang^3
#
#
#
# Elastic Constant Matrix: (Units=GPa)
#
#
# Indices 1 2 3 4 5 6 
#
# 1 102.6559 70.9452 47.9337 0.0000 0.0000 0.0000
# 2 70.9452 191.6747 74.8610 0.0000 0.0000 0.0000
# 3 47.9337 74.8610 97.9455 0.0000 0.0000 0.0000
# 4 0.0000 0.0000 0.0000 33.8659 0.0000 0.0000
# 5 0.0000 0.0000 0.0000 0.0000 -26.6550 0.0000
# 6 0.0000 0.0000 0.0000 0.0000 0.0000 23.8526
#
#
#
# Elastic Compliance Matrix: (Units=1/GPa)
#
#
# Indices 1 2 3 4 5 6 
#
# 1 0.014196 -0.003622 -0.004179 0.000000 0.000000 0.000000
# 2 -0.003622 0.008362 -0.004618 0.000000 0.000000 0.000000
# 3 -0.004179 -0.004618 0.015785 0.000000 0.000000 0.000000
# 4 0.000000 0.000000 0.000000 0.029528 0.000000 0.000000
# 5 0.000000 0.000000 0.000000 0.000000 -0.037516 0.000000
# 6 0.000000 0.000000 0.000000 0.000000 0.000000 0.041924
#
#
# Mechanical properties :
#
#
# Convention : Reuss Voigt Hill
#
# Bulk Modulus (GPa) = 74.05460 86.63954 80.34707
# Shear Modulus (GPa) = 49.20421 19.44847 34.32634
#
# Velocity S-wave (km/s) = 4.92828 3.09840 4.11631
# Velocity P-wave (km/s) = 8.30292 7.45431 7.89003
#
# Compressibility (1/GPa) = 0.01350355
#
# Stress axis : x y z
#
# Youngs Moduli (GPa) = 70.44315 119.59461 63.35318
#
# Poissons Ratio (x) = 0.43321 0.26474
# Poissons Ratio (y) = 0.25517 0.29257
# Poissons Ratio (z) = 0.29437 0.55231
#
# Static dielectric constant tensor:
#      x y z
#    x 1.730020 0.000000 0.000000 
#    y 0.000000 1.674130 0.000000 
#    z 0.000000 0.000000 1.703500 
# 
# From -- ./inp_files/58550.got.cif
#   From: 2010.05.17/outbox.cif.g08.bks.cpg/sg65_30_cif.got.tgz:58550.got - 2010.06.03 17:01:31.
