data_PCOD9486762
_publ_section_title
;
Structure prediction by ZEFSAII (Michael W. Deem and Ramdas Pophale) SiO2 
 PCOD9486762
Probable space group: C M M M
;
_chemical_formula_sum "Si O2"
_cell_formula_units_Z 120
_cell_length_a 29.399639
_cell_length_b 9.003476
_cell_length_c 29.043379
_cell_angle_alpha 90.000000
_cell_angle_beta 90.000000
_cell_angle_gamma 90.000000
_cell_volume 7687.751756
_symmetry_space_group_name_H-M "C M M M"
_symmetry_group_IT_number 65
_symmetry_cell_setting 'orthorhombic'
loop_
_space_group_symop_operation_xyz
x,y,z
-x,-y,z
x,-y,-z
-x,y,-z
-x,-y,-z
x,y,-z
-x,y,z
x,-y,z
1/2+x,1/2+y,z
1/2-x,1/2-y,z
1/2+x,1/2-y,-z
1/2-x,1/2+y,-z
1/2-x,1/2-y,-z
1/2+x,1/2+y,-z
1/2-x,1/2+y,z
1/2+x,1/2-y,z
loop_
_atom_site_type_symbol
_atom_site_label
_atom_site_fract_x
_atom_site_fract_y
_atom_site_fract_z
Si Si1 0.202052 0.177717 0.303973
Si Si2 0.702925 0.676893 0.413401
Si Si3 0.555473 0.328155 0.000000
Si Si4 0.395089 0.679359 0.448269
Si Si5 0.109992 0.321421 0.272664
Si Si6 0.446018 0.677235 0.809967
Si Si7 0.052565 0.678494 0.363735
Si Si8 0.555244 0.829310 0.094062
O O1 0.250000 0.250000 0.290069
O O2 0.196549 0.208843 0.358876
O O3 0.159694 0.250322 0.278004
O O4 0.202809 0.000000 0.298086
O O5 0.707201 0.500000 0.418590
O O6 0.750000 0.750000 0.428798
O O7 0.657285 0.725415 0.439221
O O8 0.570551 0.246349 0.046572
O O9 0.569170 0.500000 0.000000
O O10 0.500000 0.325291 0.000000
O O11 0.408909 0.720894 0.500000
O O12 0.396570 0.500000 0.444510
O O13 0.426105 0.748519 0.408890
O O14 0.112830 0.500000 0.270045
O O15 0.083029 0.257307 0.229176
O O16 0.081752 0.280917 0.318780
O O17 0.500000 0.709410 0.803442
O O18 0.440158 0.500000 0.807872
O O19 0.432566 0.738134 0.860305
O O20 0.054511 0.500000 0.368271
O O21 0.000000 0.722032 0.357714
O O22 0.500000 0.830154 0.092571
O O23 0.570322 0.000000 0.097188
#
# Coordination Sequence:
#
# PCOD9486762 Si02
#       8
#    16  16   8  16  16  16  16  16
#     4  10  19  33  53  76 100 124 153 188 230 280
#     4   9  18  32  51  74  99 122 147 180 222 273
#     4   9  15  23  37  57  83 119 164 211 254 295
#     4  10  21  37  54  73  97 123 152 188 231 279
#     4  11  21  34  53  74  97 125 158 196 241 288
#     4  10  20  32  46  67  96 130 167 207 250 293
#     4  10  22  38  54  72  94 121 156 196 235 278
#     4   9  16  26  40  59  86 122 165 210 252 293
#
# _framework density 15.609245
#
# number of rings (size 3 to 8) (size 9 to 14) (size 15 to 20)
#    0.000    2.200    1.333    2.200    0.000    6.400 
#    0.000    1.333    0.000    0.000    0.000    0.000 
#    0.000    0.000    0.000    0.600    0.000    8.467 
#
# Total GULP energy -334772.309087 kJ/mol
# GULP energy per Si atom -5579.538485 kJ/mol
# Density = 1.557372 g / cm^3
# Si number density = 15.609245 Si / 1000 Ang^3
#
#
#
# Elastic Constant Matrix: (Units=GPa)
#
#
# Indices 1 2 3 4 5 6 
#
# 1 90.1036 39.7663 57.4083 0.0000 0.0000 0.0000
# 2 39.7663 59.1002 53.0330 0.0000 0.0000 0.0000
# 3 57.4083 53.0330 124.7921 0.0000 0.0000 0.0000
# 4 0.0000 0.0000 0.0000 25.7999 0.0000 0.0000
# 5 0.0000 0.0000 0.0000 0.0000 2.0284 0.0000
# 6 0.0000 0.0000 0.0000 0.0000 0.0000 24.9343
#
#
#
# Elastic Compliance Matrix: (Units=1/GPa)
#
#
# Indices 1 2 3 4 5 6 
#
# 1 0.017472 -0.007345 -0.004917 0.000000 0.000000 0.000000
# 2 -0.007345 0.030438 -0.009556 0.000000 0.000000 0.000000
# 3 -0.004917 -0.009556 0.014336 0.000000 0.000000 0.000000
# 4 0.000000 0.000000 0.000000 0.038760 0.000000 0.000000
# 5 0.000000 0.000000 0.000000 0.000000 0.493011 0.000000
# 6 0.000000 0.000000 0.000000 0.000000 0.000000 0.040105
#
#
# Mechanical properties :
#
#
# Convention : Reuss Voigt Hill
#
# Bulk Modulus (GPa) = 53.73126 63.82347 58.77737
# Shear Modulus (GPa) = 7.31036 18.80506 13.05771
#
# Velocity S-wave (km/s) = 2.16645 3.47470 2.89543
# Velocity P-wave (km/s) = 6.38400 7.55480 6.99395
#
# Compressibility (1/GPa) = 0.01861114
#
# Stress axis : x y z
#
# Youngs Moduli (GPa) = 57.23331 32.85406 69.75318
#
# Poissons Ratio (x) = 0.24130 0.34295
# Poissons Ratio (y) = 0.42036 0.66659
# Poissons Ratio (z) = 0.28139 0.31396
#
# Static dielectric constant tensor:
#      x y z
#    x 1.500570 0.000000 0.000000 
#    y 0.000000 1.520790 0.000000 
#    z 0.000000 0.000000 1.507880 
# 
# From -- ./inp_files/73901.got.cif
#   From: 2010.05.17/outbox.cif.g08.bks.cpg/sg65_37_cif.got.tgz:73901.got - 2010.06.03 17:01:31.
