data_PCOD9486044
_publ_section_title
;
Structure prediction by ZEFSAII (Michael W. Deem and Ramdas Pophale) SiO2 
 PCOD9486044
Probable space group: C M M M
;
_chemical_formula_sum "Si O2"
_cell_formula_units_Z 88
_cell_length_a 23.562793
_cell_length_b 23.242881
_cell_length_c 7.732238
_cell_angle_alpha 90.000000
_cell_angle_beta 90.000000
_cell_angle_gamma 90.000000
_cell_volume 4234.693087
_symmetry_space_group_name_H-M "C M M M"
_symmetry_group_IT_number 65
_symmetry_cell_setting 'orthorhombic'
loop_
_space_group_symop_operation_xyz
x,y,z
-x,-y,z
x,-y,-z
-x,y,-z
-x,-y,-z
x,y,-z
-x,y,z
x,-y,z
1/2+x,1/2+y,z
1/2-x,1/2-y,z
1/2+x,1/2-y,-z
1/2-x,1/2+y,-z
1/2-x,1/2-y,-z
1/2+x,1/2+y,-z
1/2-x,1/2+y,z
1/2+x,1/2-y,z
loop_
_atom_site_type_symbol
_atom_site_label
_atom_site_fract_x
_atom_site_fract_y
_atom_site_fract_z
Si Si1 0.562909 0.265192 0.791432
Si Si2 0.435452 0.063923 0.210922
Si Si3 0.145948 0.334666 0.210146
Si Si4 0.877818 0.879261 0.703108
Si Si5 0.064639 0.000000 0.796611
Si Si6 0.732050 0.312298 0.297992
O O1 0.500000 0.246705 0.732470
O O2 0.614316 0.224089 0.732219
O O3 0.575219 0.330491 0.739127
O O4 0.562818 0.261964 0.000000
O O5 0.500000 0.074049 0.266501
O O6 0.394344 0.113816 0.266799
O O7 0.418145 0.000000 0.265065
O O8 0.435847 0.064663 0.000000
O O9 0.208279 0.344298 0.282705
O O10 0.149319 0.333596 0.000000
O O11 0.868192 0.884516 0.500000
O O12 0.900260 0.941744 0.757497
O O13 0.819781 0.849869 0.777497
O O14 0.000000 0.000000 0.719257
O O15 0.057435 0.000000 0.000000
O O16 0.718147 0.301565 0.500000
O O17 0.750000 0.250000 0.218818
#
# Coordination Sequence:
#
# PCOD9486044 Si02
#       6
#    16  16  16  16   8  16
#     4  10  20  33  52  82 117 147 181 234 296 347
#     4   8  14  27  48  75 109 144 177 219 271 324
#     4  10  19  31  53  82 110 143 189 235 279 336
#     4  11  23  40  62  85 113 152 197 237 282 347
#     4  11  25  45  67  91 121 153 188 241 304 355
#     4  10  21  39  58  78 111 150 186 228 280 333
#
# _framework density 20.780726999999999
#
# number of rings (size 3 to 8) (size 9 to 14) (size 15 to 20)
#    0.000    2.091    1.818    2.455    0.000    7.273 
#    1.636    0.000    0.000    1.636    0.000    1.273 
#    0.000    0.000    0.000    0.000    0.000    0.000 
#
# Total GULP energy -245433.880204 kJ/mol
# GULP energy per Si atom -5578.042732 kJ/mol
# Density = 2.073343 g / cm^3
# Si number density = 20.780727 Si / 1000 Ang^3
#
#
#
# Elastic Constant Matrix: (Units=GPa)
#
#
# Indices 1 2 3 4 5 6 
#
# 1 125.3994 80.4830 9.4387 0.0000 0.0000 0.0000
# 2 80.4830 110.9412 13.1754 0.0000 0.0000 0.0000
# 3 9.4387 13.1754 38.0874 0.0000 0.0000 0.0000
# 4 0.0000 0.0000 0.0000 -21.4711 0.0000 0.0000
# 5 0.0000 0.0000 0.0000 0.0000 24.7033 0.0000
# 6 0.0000 0.0000 0.0000 0.0000 0.0000 29.5004
#
#
#
# Elastic Compliance Matrix: (Units=1/GPa)
#
#
# Indices 1 2 3 4 5 6 
#
# 1 0.014923 -0.010832 0.000049 0.000000 0.000000 0.000000
# 2 -0.010832 0.017262 -0.003287 0.000000 0.000000 0.000000
# 3 0.000049 -0.003287 0.027380 0.000000 0.000000 0.000000
# 4 0.000000 0.000000 0.000000 -0.046574 0.000000 0.000000
# 5 0.000000 0.000000 0.000000 0.000000 0.040480 0.000000
# 6 0.000000 0.000000 0.000000 0.000000 0.000000 0.033898
#
#
# Mechanical properties :
#
#
# Convention : Reuss Voigt Hill
#
# Bulk Modulus (GPa) = 31.82141 53.40245 42.61193
# Shear Modulus (GPa) = 39.68754 17.96856 28.82805
#
# Velocity S-wave (km/s) = 4.37490 2.94372 3.72862
# Velocity P-wave (km/s) = 6.39264 6.10802 6.25195
#
# Compressibility (1/GPa) = 0.03142538
#
# Stress axis : x y z
#
# Youngs Moduli (GPa) = 67.01211 57.93076 36.52246
#
# Poissons Ratio (x) = 0.62748 -0.00178
# Poissons Ratio (y) = 0.72585 0.12005
# Poissons Ratio (z) = -0.00327 0.19043
#
# Static dielectric constant tensor:
#      x y z
#    x 1.778280 0.000000 0.000000 
#    y 0.000000 1.788820 0.000000 
#    z 0.000000 0.000000 1.775700 
# 
# From -- ./inp_files/11768.got.cif
#   From: 2010.05.17/outbox.cif.g08.bks.cpg/sg65_6_cif.got.tgz:11768.got - 2010.06.03 17:01:31.
