data_PCOD9486721
_publ_section_title
;
Structure prediction by ZEFSAII (Michael W. Deem and Ramdas Pophale) SiO2 
 PCOD9486721
Probable space group: C M M M
;
_chemical_formula_sum "Si O2"
_cell_formula_units_Z 64
_cell_length_a 17.931648
_cell_length_b 17.559981
_cell_length_c 11.387051
_cell_angle_alpha 90.000000
_cell_angle_beta 90.000000
_cell_angle_gamma 90.000000
_cell_volume 3585.547766
_symmetry_space_group_name_H-M "C M M M"
_symmetry_group_IT_number 65
_symmetry_cell_setting 'orthorhombic'
loop_
_space_group_symop_operation_xyz
x,y,z
-x,-y,z
x,-y,-z
-x,y,-z
-x,-y,-z
x,y,-z
-x,y,z
x,-y,z
1/2+x,1/2+y,z
1/2-x,1/2-y,z
1/2+x,1/2-y,-z
1/2-x,1/2+y,-z
1/2-x,1/2-y,-z
1/2+x,1/2+y,-z
1/2-x,1/2+y,z
1/2+x,1/2-y,z
loop_
_atom_site_type_symbol
_atom_site_label
_atom_site_fract_x
_atom_site_fract_y
_atom_site_fract_z
Si Si1 0.190647 0.140512 0.857688
Si Si2 0.083473 0.000000 0.141247
Si Si3 0.581586 0.228537 0.860160
Si Si4 0.152420 0.408846 0.248409
Si Si5 0.414146 0.091883 0.500000
O O1 0.130558 0.074837 0.830800
O O2 0.150853 0.219123 0.821100
O O3 0.265880 0.118385 0.791359
O O4 0.204964 0.141860 0.000000
O O5 0.000000 0.000000 0.190312
O O6 0.077426 0.000000 0.000000
O O7 0.500000 0.252632 0.814362
O O8 0.596421 0.141141 0.829518
O O9 0.579935 0.238373 0.000000
O O10 0.146218 0.500000 0.232899
O O11 0.130321 0.388358 0.381956
O O12 0.500000 0.120719 0.500000
O O13 0.419207 0.000000 0.500000
#
# Coordination Sequence:
#
# PCOD9486721 Si02
#       5
#    16   8  16  16   8
#     4  10  19  33  52  80 114 142 175 217 263 316
#     4   9  16  28  50  77 107 144 180 211 248 306
#     4  10  21  35  52  77 113 151 179 211 261 320
#     4  11  21  35  56  80 104 136 178 227 277 318
#     4   9  20  38  57  76 102 139 182 228 270 316
#
# _framework density 17.849436000000001
#
# number of rings (size 3 to 8) (size 9 to 14) (size 15 to 20)
#    0.000    2.000    1.250    3.000    0.000    8.000 
#    0.000    3.750    0.000    0.000    0.000    3.500 
#    0.000    0.000    0.000    0.000    0.000    0.000 
#
# Total GULP energy -178366.973305 kJ/mol
# GULP energy per Si atom -5573.967916 kJ/mol
# Density = 1.780881 g / cm^3
# Si number density = 17.849436 Si / 1000 Ang^3
#
#
#
# Elastic Constant Matrix: (Units=GPa)
#
#
# Indices 1 2 3 4 5 6 
#
# 1 130.7231 35.9242 49.8456 0.0000 0.0000 0.0000
# 2 35.9242 87.7533 17.6242 0.0000 0.0000 0.0000
# 3 49.8456 17.6242 37.0569 0.0000 0.0000 0.0000
# 4 0.0000 0.0000 0.0000 14.8558 0.0000 0.0000
# 5 0.0000 0.0000 0.0000 0.0000 -79.7135 0.0000
# 6 0.0000 0.0000 0.0000 0.0000 0.0000 162.2337
#
#
#
# Elastic Compliance Matrix: (Units=1/GPa)
#
#
# Indices 1 2 3 4 5 6 
#
# 1 0.016183 -0.002491 -0.020583 0.000000 0.000000 0.000000
# 2 -0.002491 0.012982 -0.002824 0.000000 0.000000 0.000000
# 3 -0.020583 -0.002824 0.056014 0.000000 0.000000 0.000000
# 4 0.000000 0.000000 0.000000 0.067314 0.000000 0.000000
# 5 0.000000 0.000000 0.000000 0.000000 -0.012545 0.000000
# 6 0.000000 0.000000 0.000000 0.000000 0.000000 0.006164
#
#
# Mechanical properties :
#
#
# Convention : Reuss Voigt Hill
#
# Bulk Modulus (GPa) = 29.95392 51.36904 40.66148
# Shear Modulus (GPa) = 23.91940 29.61781 26.76860
#
# Velocity S-wave (km/s) = 3.66466 4.07789 3.87678
# Velocity P-wave (km/s) = 5.89272 7.14239 6.54744
#
# Compressibility (1/GPa) = 0.03338461
#
# Stress axis : x y z
#
# Youngs Moduli (GPa) = 61.79473 77.02695 17.85257
#
# Poissons Ratio (x) = 0.19188 0.36745
# Poissons Ratio (y) = 0.15393 0.05041
# Poissons Ratio (z) = 1.27190 0.21751
#
# Static dielectric constant tensor:
#      x y z
#    x 1.644940 0.000000 0.000000 
#    y 0.000000 1.633100 0.000000 
#    z 0.000000 0.000000 1.595880 
# 
# From -- ./inp_files/23965.got.cif
#   From: 2010.05.17/outbox.cif.g08.bks.cpg/sg65_12_cif.got.tgz:23965.got - 2010.06.03 17:01:31.
