data_PCOD9486709
_publ_section_title
;
Structure prediction by ZEFSAII (Michael W. Deem and Ramdas Pophale) SiO2 
 PCOD9486709
Probable space group: C M M M
;
_chemical_formula_sum "Si O2"
_cell_formula_units_Z 104
_cell_length_a 29.312451
_cell_length_b 8.745107
_cell_length_c 23.650018
_cell_angle_alpha 90.000000
_cell_angle_beta 90.000000
_cell_angle_gamma 90.000000
_cell_volume 6062.457922
_symmetry_space_group_name_H-M "C M M M"
_symmetry_group_IT_number 65
_symmetry_cell_setting 'orthorhombic'
loop_
_space_group_symop_operation_xyz
x,y,z
-x,-y,z
x,-y,-z
-x,y,-z
-x,-y,-z
x,y,-z
-x,y,z
x,-y,z
1/2+x,1/2+y,z
1/2-x,1/2-y,z
1/2+x,1/2-y,-z
1/2-x,1/2+y,-z
1/2-x,1/2-y,-z
1/2+x,1/2+y,-z
1/2-x,1/2+y,z
1/2+x,1/2-y,z
loop_
_atom_site_type_symbol
_atom_site_label
_atom_site_fract_x
_atom_site_fract_y
_atom_site_fract_z
Si Si1 0.392446 0.316602 0.388476
Si Si2 0.606651 0.184459 0.831503
Si Si3 0.552471 0.686300 0.500000
Si Si4 0.053360 0.315694 0.717943
Si Si5 0.798541 0.683876 0.779982
Si Si6 0.552493 0.684331 0.935377
Si Si7 0.701073 0.183174 0.352572
O O1 0.390020 0.500000 0.388185
O O2 0.420567 0.266457 0.443790
O O3 0.419118 0.259785 0.333028
O O4 0.341632 0.249164 0.386400
O O5 0.575046 0.228686 0.778117
O O6 0.658050 0.234627 0.816377
O O7 0.586176 0.249674 0.888866
O O8 0.606415 0.000000 0.834493
O O9 0.551456 0.500000 0.500000
O O10 0.500000 0.739103 0.500000
O O11 0.057831 0.500000 0.712956
O O12 0.000000 0.276247 0.715512
O O13 0.796543 0.500000 0.781878
O O14 0.750000 0.750000 0.798341
O O15 0.805636 0.726275 0.713890
O O16 0.500000 0.731330 0.923262
O O17 0.553792 0.500000 0.933408
O O18 0.563128 0.730715 0.000000
O O19 0.750000 0.250000 0.370137
O O20 0.701715 0.000000 0.356046
#
# Coordination Sequence:
#
# PCOD9486709 Si02
#       7
#    16  16   8  16  16  16  16
#     4  11  21  35  56  79 104 139 180 221 268 319
#     4  10  19  33  52  77 106 137 172 214 263 312
#     4   9  20  38  56  75 104 141 182 227 266 309
#     4  10  20  34  51  74 108 142 170 214 272 319
#     4   9  18  32  51  75 106 137 168 208 258 311
#     4   9  19  35  52  73 105 142 178 218 261 305
#     4  10  19  35  56  80 110 139 172 215 266 320
#
# _framework density 17.154758000000001
#
# number of rings (size 3 to 8) (size 9 to 14) (size 15 to 20)
#    0.000    2.231    1.538    2.308    0.000    4.000 
#    0.000    2.692    0.000    3.231    0.000    0.000 
#    0.000    0.000    0.000    0.000    0.000    0.000 
#
# Total GULP energy -290208.968639 kJ/mol
# GULP energy per Si atom -5580.941705 kJ/mol
# Density = 1.711571 g / cm^3
# Si number density = 17.154758 Si / 1000 Ang^3
#
#
#
# Elastic Constant Matrix: (Units=GPa)
#
#
# Indices 1 2 3 4 5 6 
#
# 1 182.0302 42.3597 88.9744 0.0000 0.0000 0.0000
# 2 42.3597 19.5711 25.7163 0.0000 0.0000 0.0000
# 3 88.9744 25.7163 109.3839 0.0000 0.0000 0.0000
# 4 0.0000 0.0000 0.0000 18.8765 0.0000 0.0000
# 5 0.0000 0.0000 0.0000 0.0000 31.8490 0.0000
# 6 0.0000 0.0000 0.0000 0.0000 0.0000 31.6535
#
#
#
# Elastic Compliance Matrix: (Units=1/GPa)
#
#
# Indices 1 2 3 4 5 6 
#
# 1 0.013216 -0.020952 -0.005824 0.000000 0.000000 0.000000
# 2 -0.020952 0.107152 -0.008149 0.000000 0.000000 0.000000
# 3 -0.005824 -0.008149 0.015796 0.000000 0.000000 0.000000
# 4 0.000000 0.000000 0.000000 0.052976 0.000000 0.000000
# 5 0.000000 0.000000 0.000000 0.000000 0.031398 0.000000
# 6 0.000000 0.000000 0.000000 0.000000 0.000000 0.031592
#
#
# Mechanical properties :
#
#
# Convention : Reuss Voigt Hill
#
# Bulk Modulus (GPa) = 15.08001 69.45401 42.26701
# Shear Modulus (GPa) = 14.53132 26.73810 20.63471
#
# Velocity S-wave (km/s) = 2.91361 3.95224 3.47198
# Velocity P-wave (km/s) = 4.48648 7.83592 6.38475
#
# Compressibility (1/GPa) = 0.06631295
#
# Stress axis : x y z
#
# Youngs Moduli (GPa) = 75.66517 9.33257 63.30872
#
# Poissons Ratio (x) = 0.19553 0.36873
# Poissons Ratio (y) = 1.58532 0.51591
# Poissons Ratio (z) = 0.44070 0.07605
#
# Static dielectric constant tensor:
#      x y z
#    x 1.575710 0.000000 0.000000 
#    y 0.000000 1.581450 0.000000 
#    z 0.000000 0.000000 1.557760 
# 
# From -- ./inp_files/60800.got.cif
#   From: 2010.05.17/outbox.cif.g08.bks.cpg/sg65_31_cif.got.tgz:60800.got - 2010.06.03 17:01:31.
