data_PCOD9486615
_publ_section_title
;
Structure prediction by ZEFSAII (Michael W. Deem and Ramdas Pophale) SiO2 
 PCOD9486615
Probable space group: C M M M
;
_chemical_formula_sum "Si O2"
_cell_formula_units_Z 96
_cell_length_a 18.499107
_cell_length_b 14.961778
_cell_length_c 14.243266
_cell_angle_alpha 90.000000
_cell_angle_beta 90.000000
_cell_angle_gamma 90.000000
_cell_volume 3942.244500
_symmetry_space_group_name_H-M "C M M M"
_symmetry_group_IT_number 65
_symmetry_cell_setting 'orthorhombic'
loop_
_space_group_symop_operation_xyz
x,y,z
-x,-y,z
x,-y,-z
-x,y,-z
-x,-y,-z
x,y,-z
-x,y,z
x,-y,z
1/2+x,1/2+y,z
1/2-x,1/2-y,z
1/2+x,1/2-y,-z
1/2-x,1/2+y,-z
1/2-x,1/2-y,-z
1/2+x,1/2+y,-z
1/2-x,1/2+y,z
1/2+x,1/2-y,z
loop_
_atom_site_type_symbol
_atom_site_label
_atom_site_fract_x
_atom_site_fract_y
_atom_site_fract_z
Si Si1 0.262492 0.355390 0.398636
Si Si2 0.901069 0.405808 0.391738
Si Si3 0.500000 0.250293 0.611953
Si Si4 0.764621 0.606888 0.806081
Si Si5 0.625141 0.390860 0.898594
Si Si6 0.582551 0.108864 0.889207
Si Si7 0.000000 0.892736 0.240049
O O1 0.298538 0.380629 0.500000
O O2 0.250000 0.250000 0.403566
O O3 0.184190 0.400794 0.396990
O O4 0.280918 0.374107 0.290569
O O5 0.925085 0.410018 0.500000
O O6 0.921501 0.500000 0.344839
O O7 0.933330 0.313054 0.358007
O O8 0.500000 0.262741 0.500000
O O9 0.500000 0.343987 0.661451
O O10 0.770536 0.500000 0.809859
O O11 0.707543 0.638182 0.883434
O O12 0.847115 0.638876 0.826991
O O13 0.625229 0.500000 0.897212
O O14 0.569854 0.363316 0.818727
O O15 0.598027 0.362005 0.000000
O O16 0.500000 0.137407 0.862001
O O17 0.582100 0.000000 0.885694
O O18 0.593698 0.131943 0.000000
O O19 0.000000 0.000000 0.248838
#
# Coordination Sequence:
#
# PCOD9486615 Si02
#       7
#    16  16   8  16  16  16   8
#     4  10  22  38  57  82 121 166 204 250 316 389
#     4   9  18  36  61  88 119 161 217 277 332 386
#     4  10  21  36  61  93 128 170 219 277 336 395
#     4  10  19  32  56  89 118 153 204 257 311 379
#     4   9  18  34  58  88 121 159 210 271 329 390
#     4   8  14  27  50  82 119 155 193 244 309 376
#     4  10  21  36  57  91 132 176 219 265 336 409
#
# _framework density 24.351610000000001
#
# number of rings (size 3 to 8) (size 9 to 14) (size 15 to 20)
#    0.000    2.667    0.000    2.000    2.333    5.167 
#    1.500    0.000    0.000    5.000    0.000    0.000 
#    0.000    5.333    0.000    0.000    0.000    0.000 
#
# Total GULP energy -267519.584507 kJ/mol
# GULP energy per Si atom -5573.324677 kJ/mol
# Density = 2.429618 g / cm^3
# Si number density = 24.351610 Si / 1000 Ang^3
#
#
#
# Elastic Constant Matrix: (Units=GPa)
#
#
# Indices 1 2 3 4 5 6 
#
# 1 97.8739 31.0000 44.3018 0.0000 0.0000 0.0000
# 2 31.0000 68.3867 20.9756 0.0000 0.0000 0.0000
# 3 44.3018 20.9756 137.8873 0.0000 0.0000 0.0000
# 4 0.0000 0.0000 0.0000 -77.6485 0.0000 0.0000
# 5 0.0000 0.0000 0.0000 0.0000 13.9351 0.0000
# 6 0.0000 0.0000 0.0000 0.0000 0.0000 15.2701
#
#
#
# Elastic Compliance Matrix: (Units=1/GPa)
#
#
# Indices 1 2 3 4 5 6 
#
# 1 0.013403 -0.004987 -0.003547 0.000000 0.000000 0.000000
# 2 -0.004987 0.017194 -0.001013 0.000000 0.000000 0.000000
# 3 -0.003547 -0.001013 0.008546 0.000000 0.000000 0.000000
# 4 0.000000 0.000000 0.000000 -0.012879 0.000000 0.000000
# 5 0.000000 0.000000 0.000000 0.000000 0.071761 0.000000
# 6 0.000000 0.000000 0.000000 0.000000 0.000000 0.065487
#
#
# Mechanical properties :
#
#
# Convention : Reuss Voigt Hill
#
# Bulk Modulus (GPa) = 49.88275 55.18920 52.53597
# Shear Modulus (GPa) = 26.41424 4.16937 15.29180
#
# Velocity S-wave (km/s) = 3.29705 1.30991 2.50863
# Velocity P-wave (km/s) = 5.91802 5.00005 5.47829
#
# Compressibility (1/GPa) = 0.02004701
#
# Stress axis : x y z
#
# Youngs Moduli (GPa) = 74.61215 58.15870 117.01118
#
# Poissons Ratio (x) = 0.29006 0.41509
# Poissons Ratio (y) = 0.37212 0.11856
# Poissons Ratio (z) = 0.26468 0.05893
#
# Static dielectric constant tensor:
#      x y z
#    x 1.961760 0.000000 0.000000 
#    y 0.000000 1.897640 0.000000 
#    z 0.000000 0.000000 2.064150 
# 
# From -- ./inp_files/44153.got.cif
#   From: 2010.05.17/outbox.cif.g08.bks.cpg/sg65_23_cif.got.tgz:44153.got - 2010.06.03 17:01:31.
