data_PCOD9486103
_publ_section_title
;
Structure prediction by ZEFSAII (Michael W. Deem and Ramdas Pophale) SiO2 
 PCOD9486103
Probable space group: C M M M
;
_chemical_formula_sum "Si O2"
_cell_formula_units_Z 88
_cell_length_a 7.797518
_cell_length_b 28.131653
_cell_length_c 22.054295
_cell_angle_alpha 90.000000
_cell_angle_beta 90.000000
_cell_angle_gamma 90.000000
_cell_volume 4837.765546
_symmetry_space_group_name_H-M "C M M M"
_symmetry_group_IT_number 65
_symmetry_cell_setting 'orthorhombic'
loop_
_space_group_symop_operation_xyz
x,y,z
-x,-y,z
x,-y,-z
-x,y,-z
-x,-y,-z
x,y,-z
-x,y,z
x,-y,z
1/2+x,1/2+y,z
1/2-x,1/2-y,z
1/2+x,1/2-y,-z
1/2-x,1/2+y,-z
1/2-x,1/2-y,-z
1/2+x,1/2+y,-z
1/2-x,1/2+y,z
1/2+x,1/2-y,z
loop_
_atom_site_type_symbol
_atom_site_label
_atom_site_fract_x
_atom_site_fract_y
_atom_site_fract_z
Si Si1 0.710467 0.648261 0.190664
Si Si2 0.206528 0.805481 0.066864
Si Si3 0.204223 0.804041 0.315089
Si Si4 0.290230 0.944650 0.500000
Si Si5 0.702014 0.552552 0.750924
Si Si6 0.701921 0.900509 0.373988
O O1 0.500000 0.648400 0.190280
O O2 0.770470 0.666444 0.125580
O O3 0.763829 0.681966 0.246875
O O4 0.771064 0.595365 0.207850
O O5 0.250000 0.750000 0.074048
O O6 0.000000 0.809778 0.066354
O O7 0.269745 0.820624 0.000000
O O8 0.250000 0.750000 0.329772
O O9 0.272251 0.844758 0.360013
O O10 0.000000 0.808631 0.315494
O O11 0.500000 0.943521 0.500000
O O12 0.232415 0.918206 0.561126
O O13 0.239413 0.000000 0.500000
O O14 0.500000 0.549571 0.764540
O O15 0.777456 0.500000 0.758155
O O16 0.717943 0.570580 0.681851
O O17 0.500000 0.910604 0.371831
#
# Coordination Sequence:
#
# PCOD9486103 Si02
#       6
#    16  16  16   8  16  16
#     4   8  15  27  43  64  89 117 148 183 222 264
#     4   9  16  26  41  61  86 115 146 180 219 264
#     4  10  19  32  49  69  94 122 153 187 225 267
#     4   9  18  32  50  71  94 119 146 181 226 271
#     4   9  17  30  47  66  90 119 150 186 228 269
#     4  10  19  32  50  71  94 119 149 184 224 270
#
# _framework density 18.190215999999999
#
# number of rings (size 3 to 8) (size 9 to 14) (size 15 to 20)
#    0.000    2.818    0.000    3.273    0.000    1.091 
#    0.000    5.909    0.000    3.818    0.000    3.818 
#    0.000    0.000    0.000   11.091    0.000   12.000 
#
# Total GULP energy -245293.222194 kJ/mol
# GULP energy per Si atom -5574.845959 kJ/mol
# Density = 1.814881 g / cm^3
# Si number density = 18.190216 Si / 1000 Ang^3
#
#
#
# Elastic Constant Matrix: (Units=GPa)
#
#
# Indices 1 2 3 4 5 6 
#
# 1 22.4433 -9.7005 -2.7065 0.0000 0.0000 0.0000
# 2 -9.7005 128.4738 81.3587 0.0000 0.0000 0.0000
# 3 -2.7065 81.3587 160.6956 0.0000 0.0000 0.0000
# 4 0.0000 0.0000 0.0000 7.1018 0.0000 0.0000
# 5 0.0000 0.0000 0.0000 0.0000 -133.7156 0.0000
# 6 0.0000 0.0000 0.0000 0.0000 0.0000 14.5337
#
#
#
# Elastic Compliance Matrix: (Units=1/GPa)
#
#
# Indices 1 2 3 4 5 6 
#
# 1 0.046290 0.004418 -0.001457 0.000000 0.000000 0.000000
# 2 0.004418 0.011879 -0.005940 0.000000 0.000000 0.000000
# 3 -0.001457 -0.005940 0.009206 0.000000 0.000000 0.000000
# 4 0.000000 0.000000 0.000000 0.140809 0.000000 0.000000
# 5 0.000000 0.000000 0.000000 0.000000 -0.007479 0.000000
# 6 0.000000 0.000000 0.000000 0.000000 0.000000 0.068806
#
#
# Mechanical properties :
#
#
# Convention : Reuss Voigt Hill
#
# Bulk Modulus (GPa) = 16.28210 49.94622 33.11416
# Shear Modulus (GPa) = 16.89529 -6.23860 5.32835
#
# Velocity S-wave (km/s) = 3.05095 -1.85394 1.71336
# Velocity P-wave (km/s) = 4.62401 4.78900 4.70723
#
# Compressibility (1/GPa) = 0.06141713
#
# Stress axis : x y z
#
# Youngs Moduli (GPa) = 21.60271 84.18448 108.62961
#
# Poissons Ratio (x) = -0.37192 0.15829
# Poissons Ratio (y) = -0.09544 0.64522
# Poissons Ratio (z) = 0.03148 0.50003
#
# Static dielectric constant tensor:
#      x y z
#    x 1.683180 0.000000 0.000000 
#    y 0.000000 1.640630 0.000000 
#    z 0.000000 0.000000 1.624770 
# 
# From -- ./inp_files/60713.got.cif
#   From: 2010.05.17/outbox.cif.g08.bks.cpg/sg65_31_cif.got.tgz:60713.got - 2010.06.03 17:01:31.
