data_PCOD9486521
_publ_section_title
;
Structure prediction by ZEFSAII (Michael W. Deem and Ramdas Pophale) SiO2 
 PCOD9486521
Probable space group: C M M M
;
_chemical_formula_sum "Si O2"
_cell_formula_units_Z 72
_cell_length_a 15.789767
_cell_length_b 26.633049
_cell_length_c 7.500313
_cell_angle_alpha 90.000000
_cell_angle_beta 90.000000
_cell_angle_gamma 90.000000
_cell_volume 3154.103912
_symmetry_space_group_name_H-M "C M M M"
_symmetry_group_IT_number 65
_symmetry_cell_setting 'orthorhombic'
loop_
_space_group_symop_operation_xyz
x,y,z
-x,-y,z
x,-y,-z
-x,y,-z
-x,-y,-z
x,y,-z
-x,y,z
x,-y,z
1/2+x,1/2+y,z
1/2-x,1/2-y,z
1/2+x,1/2-y,-z
1/2-x,1/2+y,-z
1/2-x,1/2-y,-z
1/2+x,1/2+y,-z
1/2-x,1/2+y,z
1/2+x,1/2-y,z
loop_
_atom_site_type_symbol
_atom_site_label
_atom_site_fract_x
_atom_site_fract_y
_atom_site_fract_z
Si Si1 0.821352 0.094571 0.295129
Si Si2 0.316289 0.291517 0.791400
Si Si3 0.500000 0.559491 0.285266
Si Si4 0.144728 0.555945 0.718258
Si Si5 0.000000 0.253346 0.285786
Si Si6 0.500000 0.868439 0.717672
O O1 0.825662 0.076604 0.500000
O O2 0.806334 0.154046 0.294275
O O3 0.739531 0.067285 0.217492
O O4 0.912847 0.082697 0.214038
O O5 0.250000 0.250000 0.721043
O O6 0.412960 0.273066 0.771699
O O7 0.297547 0.298229 0.000000
O O8 0.500000 0.500000 0.256987
O O9 0.500000 0.569142 0.500000
O O10 0.144876 0.557152 0.500000
O O11 0.117227 0.500000 0.770025
O O12 0.081538 0.599764 0.775081
O O13 0.000000 0.252825 0.500000
O O14 0.000000 0.311045 0.222422
O O15 0.500000 0.867238 0.500000
#
# Coordination Sequence:
#
# PCOD9486521 Si02
#       6
#    16  16   8  16   8   8
#     4  10  19  32  53  79 105 137 179 225 269 314
#     4  11  24  40  57  79 111 151 189 227 277 334
#     4   9  17  30  50  78 108 135 168 214 270 327
#     4   9  16  27  46  74 107 139 171 212 264 320
#     4  11  22  37  59  85 112 143 184 235 281 323
#     4   9  17  28  45  73 106 137 170 214 269 320
#
# _framework density 22.827403
#
# number of rings (size 3 to 8) (size 9 to 14) (size 15 to 20)
#    0.000    2.111    0.000    4.000    0.000    8.444 
#    0.000    0.000    0.000    3.333    0.000    0.000 
#    0.000    8.889    0.000    0.000    0.000    0.000 
#
# Total GULP energy -201268.613725 kJ/mol
# GULP energy per Si atom -5590.794826 kJ/mol
# Density = 2.277545 g / cm^3
# Si number density = 22.827403 Si / 1000 Ang^3
#
#
#
# Elastic Constant Matrix: (Units=GPa)
#
#
# Indices 1 2 3 4 5 6 
#
# 1 93.1886 -8.2830 -6.1335 0.0000 0.0000 0.0000
# 2 -8.2830 38.2796 -13.8268 0.0000 0.0000 0.0000
# 3 -6.1335 -13.8268 65.6956 0.0000 0.0000 0.0000
# 4 0.0000 0.0000 0.0000 69.3493 0.0000 0.0000
# 5 0.0000 0.0000 0.0000 0.0000 16.5810 0.0000
# 6 0.0000 0.0000 0.0000 0.0000 0.0000 45.3478
#
#
#
# Elastic Compliance Matrix: (Units=1/GPa)
#
#
# Indices 1 2 3 4 5 6 
#
# 1 0.011108 0.003007 0.001670 0.000000 0.000000 0.000000
# 2 0.003007 0.029087 0.006403 0.000000 0.000000 0.000000
# 3 0.001670 0.006403 0.016725 0.000000 0.000000 0.000000
# 4 0.000000 0.000000 0.000000 0.014420 0.000000 0.000000
# 5 0.000000 0.000000 0.000000 0.000000 0.060310 0.000000
# 6 0.000000 0.000000 0.000000 0.000000 0.000000 0.022052
#
#
# Mechanical properties :
#
#
# Convention : Reuss Voigt Hill
#
# Bulk Modulus (GPa) = 12.64564 15.63079 14.13822
# Shear Modulus (GPa) = 31.66504 41.28275 36.47390
#
# Velocity S-wave (km/s) = 3.72849 4.25723 4.00160
# Velocity P-wave (km/s) = 4.90787 5.57024 5.24951
#
# Compressibility (1/GPa) = 0.07907861
#
# Stress axis : x y z
#
# Youngs Moduli (GPa) = 90.02449 34.37979 59.79013
#
# Poissons Ratio (x) = -0.10337 -0.09984
# Poissons Ratio (y) = -0.27068 -0.38281
# Poissons Ratio (z) = -0.15033 -0.22012
#
# Static dielectric constant tensor:
#      x y z
#    x 1.867520 0.000000 0.000000 
#    y 0.000000 1.786770 0.000000 
#    z 0.000000 0.000000 1.906820 
# 
# From -- ./inp_files/7346.got.cif
#   From: 2010.05.17/outbox.cif.g08.bks.cpg/sg65_4_cif.got.tgz:7346.got - 2010.06.03 17:01:31.
