data_PCOD9486828
_publ_section_title
;
Structure prediction by ZEFSAII (Michael W. Deem and Ramdas Pophale) SiO2 
 PCOD9486828
Probable space group: C M M M
;
_chemical_formula_sum "Si O2"
_cell_formula_units_Z 72
_cell_length_a 18.254861
_cell_length_b 13.433616
_cell_length_c 16.715530
_cell_angle_alpha 90.000000
_cell_angle_beta 90.000000
_cell_angle_gamma 90.000000
_cell_volume 4099.129243
_symmetry_space_group_name_H-M "C M M M"
_symmetry_group_IT_number 65
_symmetry_cell_setting 'orthorhombic'
loop_
_space_group_symop_operation_xyz
x,y,z
-x,-y,z
x,-y,-z
-x,y,-z
-x,-y,-z
x,y,-z
-x,y,z
x,-y,z
1/2+x,1/2+y,z
1/2-x,1/2-y,z
1/2+x,1/2-y,-z
1/2-x,1/2+y,-z
1/2-x,1/2-y,-z
1/2+x,1/2+y,-z
1/2-x,1/2+y,z
1/2+x,1/2-y,z
loop_
_atom_site_type_symbol
_atom_site_label
_atom_site_fract_x
_atom_site_fract_y
_atom_site_fract_z
Si Si1 0.411908 0.380093 0.500000
Si Si2 0.860061 0.191061 0.329141
Si Si3 0.000000 0.730010 0.908602
Si Si4 0.500000 0.617006 0.231648
Si Si5 0.793961 0.616491 0.262784
Si Si6 0.153717 0.380724 0.089467
O O1 0.401419 0.500000 0.500000
O O2 0.500000 0.362706 0.500000
O O3 0.375574 0.332963 0.578660
O O4 0.928787 0.148618 0.281206
O O5 0.847626 0.307393 0.308653
O O6 0.786457 0.137751 0.297598
O O7 0.073413 0.665520 0.896775
O O8 0.000000 0.821897 0.849673
O O9 0.000000 0.764080 0.000000
O O10 0.500000 0.500000 0.218628
O O11 0.812511 0.500000 0.272008
O O12 0.798232 0.642257 0.167869
O O13 0.147137 0.500000 0.087229
O O14 0.179305 0.348968 0.000000
#
# Coordination Sequence:
#
# PCOD9486828 Si02
#       6
#     8  16   8   8  16  16
#     4  11  22  39  65  89 113 150 200 247 281 336
#     4  11  23  40  61  89 115 151 196 244 287 348
#     4  10  19  33  53  84 118 155 198 242 285 337
#     4  12  22  37  59  82 115 156 200 242 287 347
#     4  10  21  38  60  89 123 155 188 235 300 353
#     4   9  17  32  56  85 117 155 199 240 281 339
#
# _framework density 17.564706000000001
#
# number of rings (size 3 to 8) (size 9 to 14) (size 15 to 20)
#    0.000    1.667    3.333    2.333    0.000    3.333 
#    0.000    5.556    0.000    3.333    0.000    0.000 
#    0.000    0.000    0.000    0.000    0.000    0.000 
#
# Total GULP energy -200863.013367 kJ/mol
# GULP energy per Si atom -5579.528149 kJ/mol
# Density = 1.752473 g / cm^3
# Si number density = 17.564706 Si / 1000 Ang^3
#
#
#
# Elastic Constant Matrix: (Units=GPa)
#
#
# Indices 1 2 3 4 5 6 
#
# 1 60.8227 15.1628 72.0930 0.0000 0.0000 0.0000
# 2 15.1628 92.2698 63.9399 0.0000 0.0000 0.0000
# 3 72.0930 63.9399 180.1597 0.0000 0.0000 0.0000
# 4 0.0000 0.0000 0.0000 22.3412 0.0000 0.0000
# 5 0.0000 0.0000 0.0000 0.0000 25.5354 0.0000
# 6 0.0000 0.0000 0.0000 0.0000 0.0000 10.3375
#
#
#
# Elastic Compliance Matrix: (Units=1/GPa)
#
#
# Indices 1 2 3 4 5 6 
#
# 1 0.032882 0.004926 -0.014906 0.000000 0.000000 0.000000
# 2 0.004926 0.015111 -0.007334 0.000000 0.000000 0.000000
# 3 -0.014906 -0.007334 0.014118 0.000000 0.000000 0.000000
# 4 0.000000 0.000000 0.000000 0.044760 0.000000 0.000000
# 5 0.000000 0.000000 0.000000 0.000000 0.039161 0.000000
# 6 0.000000 0.000000 0.000000 0.000000 0.000000 0.096735
#
#
# Mechanical properties :
#
#
# Convention : Reuss Voigt Hill
#
# Bulk Modulus (GPa) = 36.38738 70.62705 53.50722
# Shear Modulus (GPa) = 17.44858 23.77993 20.61426
#
# Velocity S-wave (km/s) = 3.15523 3.68346 3.42953
# Velocity P-wave (km/s) = 5.83396 7.64117 6.79789
#
# Compressibility (1/GPa) = 0.02748205
#
# Stress axis : x y z
#
# Youngs Moduli (GPa) = 30.41222 66.17902 70.82941
#
# Poissons Ratio (x) = -0.32600 1.05580
# Poissons Ratio (y) = -0.14981 0.51947
# Poissons Ratio (z) = 0.45333 0.48536
#
# Static dielectric constant tensor:
#      x y z
#    x 1.578020 0.000000 0.000000 
#    y 0.000000 1.591370 0.000000 
#    z 0.000000 0.000000 1.612350 
# 
# From -- ./inp_files/42177.got.cif
#   From: 2010.05.17/outbox.cif.g08.bks.cpg/sg65_22_cif.got.tgz:42177.got - 2010.06.03 17:01:31.
