data_PCOD9486395
_publ_section_title
;
Structure prediction by ZEFSAII (Michael W. Deem and Ramdas Pophale) SiO2 
 PCOD9486395
Probable space group: C M M M
;
_chemical_formula_sum "Si O2"
_cell_formula_units_Z 72
_cell_length_a 15.909393
_cell_length_b 27.771697
_cell_length_c 7.372747
_cell_angle_alpha 90.000000
_cell_angle_beta 90.000000
_cell_angle_gamma 90.000000
_cell_volume 3257.507014
_symmetry_space_group_name_H-M "C M M M"
_symmetry_group_IT_number 65
_symmetry_cell_setting 'orthorhombic'
loop_
_space_group_symop_operation_xyz
x,y,z
-x,-y,z
x,-y,-z
-x,y,-z
-x,-y,-z
x,y,-z
-x,y,z
x,-y,z
1/2+x,1/2+y,z
1/2-x,1/2-y,z
1/2+x,1/2-y,-z
1/2-x,1/2+y,-z
1/2-x,1/2-y,-z
1/2+x,1/2+y,-z
1/2-x,1/2+y,z
1/2+x,1/2-y,z
loop_
_atom_site_type_symbol
_atom_site_label
_atom_site_fract_x
_atom_site_fract_y
_atom_site_fract_z
Si Si1 0.000000 0.396222 0.778813
Si Si2 0.666900 0.383959 0.213799
Si Si3 0.162631 0.225481 0.221632
Si Si4 0.000000 0.945117 0.284067
Si Si5 0.500000 0.785305 0.778566
Si Si6 0.825726 0.444753 0.221852
O O1 0.000000 0.340708 0.721052
O O2 0.084952 0.422943 0.721750
O O3 0.000000 0.396562 0.000000
O O4 0.656690 0.329758 0.284598
O O5 0.583153 0.415614 0.232379
O O6 0.747706 0.412497 0.285684
O O7 0.682680 0.378121 0.000000
O O8 0.250000 0.250000 0.276154
O O9 0.083081 0.256928 0.279697
O O10 0.161067 0.225425 0.000000
O O11 0.000000 0.948117 0.500000
O O12 0.000000 0.000000 0.212422
O O13 0.500000 0.785611 0.000000
O O14 0.816345 0.500000 0.278570
O O15 0.824895 0.444605 0.000000
#
# Coordination Sequence:
#
# PCOD9486395 Si02
#       6
#     8  16  16   8   8  16
#     4   9  15  23  36  59  95 131 155 182 230 287
#     4  10  19  32  52  76 100 129 167 208 248 296
#     4   9  16  26  42  68 100 128 156 194 239 285
#     4  11  24  39  53  71  98 133 171 215 270 321
#     4   9  15  22  33  52  83 122 154 179 218 273
#     4   9  16  25  39  62  92 124 156 191 233 281
#
# _framework density 22.102792999999998
#
# number of rings (size 3 to 8) (size 9 to 14) (size 15 to 20)
#    0.000    2.556    0.000    3.333    0.000   10.222 
#    0.000    0.000    0.000    0.667    0.000    0.778 
#    0.000    3.556    0.000    0.000    0.000    0.000 
#
# Total GULP energy -201263.828774 kJ/mol
# GULP energy per Si atom -5590.661910 kJ/mol
# Density = 2.205249 g / cm^3
# Si number density = 22.102793 Si / 1000 Ang^3
#
#
#
# Elastic Constant Matrix: (Units=GPa)
#
#
# Indices 1 2 3 4 5 6 
#
# 1 107.7158 6.5055 -13.5845 0.0000 0.0000 0.0000
# 2 6.5055 109.4921 -5.4759 0.0000 0.0000 0.0000
# 3 -13.5845 -5.4759 76.5538 0.0000 0.0000 0.0000
# 4 0.0000 0.0000 0.0000 -6.3493 0.0000 0.0000
# 5 0.0000 0.0000 0.0000 0.0000 52.0715 0.0000
# 6 0.0000 0.0000 0.0000 0.0000 0.0000 51.2578
#
#
#
# Elastic Compliance Matrix: (Units=1/GPa)
#
#
# Indices 1 2 3 4 5 6 
#
# 1 0.009522 -0.000483 0.001655 0.000000 0.000000 0.000000
# 2 -0.000483 0.009190 0.000572 0.000000 0.000000 0.000000
# 3 0.001655 0.000572 0.013397 0.000000 0.000000 0.000000
# 4 0.000000 0.000000 0.000000 -0.157498 0.000000 0.000000
# 5 0.000000 0.000000 0.000000 0.000000 0.019204 0.000000
# 6 0.000000 0.000000 0.000000 0.000000 0.000000 0.019509
#
#
# Mechanical properties :
#
#
# Convention : Reuss Voigt Hill
#
# Bulk Modulus (GPa) = 28.09239 29.85021 28.97130
# Shear Modulus (GPa) = -63.85963 39.81710 -12.02126
#
# Velocity S-wave (km/s) = -5.38097 4.24896 -2.33465
# Velocity P-wave (km/s) = 5.08615 6.13237 2.42250
#
# Compressibility (1/GPa) = 0.03559683
#
# Stress axis : x y z
#
# Youngs Moduli (GPa) = 105.02450 108.80964 74.64198
#
# Poissons Ratio (x) = 0.05255 -0.12354
# Poissons Ratio (y) = 0.05072 -0.04267
# Poissons Ratio (z) = -0.17382 -0.06221
#
# Static dielectric constant tensor:
#      x y z
#    x 1.739130 0.000000 0.000000 
#    y 0.000000 1.764070 0.000000 
#    z 0.000000 0.000000 1.835040 
# 
# From -- ./inp_files/7365.got.cif
#   From: 2010.05.17/outbox.cif.g08.bks.cpg/sg65_4_cif.got.tgz:7365.got - 2010.06.03 17:01:31.
