data_PCOD9486057
_publ_section_title
;
Structure prediction by ZEFSAII (Michael W. Deem and Ramdas Pophale) SiO2 
 PCOD9486057
Probable space group: C M M M
;
_chemical_formula_sum "Si O2"
_cell_formula_units_Z 80
_cell_length_a 20.101709
_cell_length_b 14.557766
_cell_length_c 18.030661
_cell_angle_alpha 90.000000
_cell_angle_beta 90.000000
_cell_angle_gamma 90.000000
_cell_volume 5276.420076
_symmetry_space_group_name_H-M "C M M M"
_symmetry_group_IT_number 65
_symmetry_cell_setting 'orthorhombic'
loop_
_space_group_symop_operation_xyz
x,y,z
-x,-y,z
x,-y,-z
-x,y,-z
-x,-y,-z
x,y,-z
-x,y,z
x,-y,z
1/2+x,1/2+y,z
1/2-x,1/2-y,z
1/2+x,1/2-y,-z
1/2-x,1/2+y,-z
1/2-x,1/2-y,-z
1/2+x,1/2+y,-z
1/2-x,1/2+y,z
1/2+x,1/2-y,z
loop_
_atom_site_type_symbol
_atom_site_label
_atom_site_fract_x
_atom_site_fract_y
_atom_site_fract_z
Si Si1 0.654985 0.392864 0.228009
Si Si2 0.576483 0.388449 0.083451
Si Si3 0.750000 0.250000 0.693264
Si Si4 0.635498 0.792961 0.584194
Si Si5 0.421442 0.602667 0.621796
Si Si6 0.000000 0.606021 0.589975
O O1 0.676431 0.500000 0.222172
O O2 0.624533 0.360831 0.149977
O O3 0.711443 0.325003 0.257805
O O4 0.597523 0.391298 0.291178
O O5 0.500000 0.359279 0.096402
O O6 0.575991 0.500000 0.084351
O O7 0.595953 0.359927 0.000000
O O8 0.696927 0.199056 0.639843
O O9 0.650623 0.823444 0.500000
O O10 0.617188 0.684997 0.583486
O O11 0.568413 0.843675 0.611907
O O12 0.500000 0.614121 0.610559
O O13 0.402699 0.500000 0.596825
O O14 0.000000 0.500000 0.613192
O O15 0.000000 0.609360 0.500000
#
# Coordination Sequence:
#
# PCOD9486057 Si02
#       6
#    16  16   8  16  16   8
#     4   9  17  29  43  62  91 121 147 178 214 262
#     4   8  13  23  43  70  95 118 142 170 211 263
#     4  10  21  32  45  64  88 120 156 184 233 278
#     4  10  19  32  46  63  86 113 149 194 237 277
#     4   9  16  26  43  66  89 112 137 171 225 282
#     4   9  18  32  49  65  81 109 151 196 236 266
#
# _framework density 15.161795
#
# number of rings (size 3 to 8) (size 9 to 14) (size 15 to 20)
#    0.000    2.900    1.000    1.500    0.000    3.600 
#    0.000    1.500    0.000    3.600    0.000    0.000 
#    0.000    0.000    0.000    2.200    0.000    0.200 
#
# Total GULP energy -222696.680862 kJ/mol
# GULP energy per Si atom -5567.417022 kJ/mol
# Density = 1.512729 g / cm^3
# Si number density = 15.161795 Si / 1000 Ang^3
#
#
#
# Elastic Constant Matrix: (Units=GPa)
#
#
# Indices 1 2 3 4 5 6 
#
# 1 86.1433 24.0447 55.5686 0.0000 0.0000 0.0000
# 2 24.0447 37.1831 22.9376 0.0000 0.0000 0.0000
# 3 55.5686 22.9376 97.9534 0.0000 0.0000 0.0000
# 4 0.0000 0.0000 0.0000 13.1932 0.0000 0.0000
# 5 0.0000 0.0000 0.0000 0.0000 9.1604 0.0000
# 6 0.0000 0.0000 0.0000 0.0000 0.0000 21.0668
#
#
#
# Elastic Compliance Matrix: (Units=1/GPa)
#
#
# Indices 1 2 3 4 5 6 
#
# 1 0.019688 -0.006828 -0.009570 0.000000 0.000000 0.000000
# 2 -0.006828 0.033803 -0.004042 0.000000 0.000000 0.000000
# 3 -0.009570 -0.004042 0.016584 0.000000 0.000000 0.000000
# 4 0.000000 0.000000 0.000000 0.075796 0.000000 0.000000
# 5 0.000000 0.000000 0.000000 0.000000 0.109166 0.000000
# 6 0.000000 0.000000 0.000000 0.000000 0.000000 0.047468
#
#
# Mechanical properties :
#
#
# Convention : Reuss Voigt Hill
#
# Bulk Modulus (GPa) = 34.25219 47.37574 40.81396
# Shear Modulus (GPa) = 14.15964 16.59934 15.37949
#
# Velocity S-wave (km/s) = 3.05930 3.31239 3.18835
# Velocity P-wave (km/s) = 5.92615 6.77819 6.36644
#
# Compressibility (1/GPa) = 0.02919521
#
# Stress axis : x y z
#
# Youngs Moduli (GPa) = 50.79354 29.58350 60.29748
#
# Poissons Ratio (x) = 0.20198 0.57704
# Poissons Ratio (y) = 0.34680 0.24374
# Poissons Ratio (z) = 0.48609 0.11958
#
# Static dielectric constant tensor:
#      x y z
#    x 1.499760 0.000000 0.000000 
#    y 0.000000 1.501160 0.000000 
#    z 0.000000 0.000000 1.518730 
# 
# From -- ./inp_files/55735.got.cif
#   From: 2010.05.17/outbox.cif.g08.bks.cpg/sg65_28_cif.got.tgz:55735.got - 2010.06.03 17:01:31.
