data_PCOD9486116
_publ_section_title
;
Structure prediction by ZEFSAII (Michael W. Deem and Ramdas Pophale) SiO2 
 PCOD9486116
Probable space group: C M M M
;
_chemical_formula_sum "Si O2"
_cell_formula_units_Z 72
_cell_length_a 27.913776
_cell_length_b 7.377737
_cell_length_c 15.357047
_cell_angle_alpha 90.000000
_cell_angle_beta 90.000000
_cell_angle_gamma 90.000000
_cell_volume 3162.637907
_symmetry_space_group_name_H-M "C M M M"
_symmetry_group_IT_number 65
_symmetry_cell_setting 'orthorhombic'
loop_
_space_group_symop_operation_xyz
x,y,z
-x,-y,z
x,-y,-z
-x,y,-z
-x,-y,-z
x,y,-z
-x,y,z
x,-y,z
1/2+x,1/2+y,z
1/2-x,1/2-y,z
1/2+x,1/2-y,-z
1/2-x,1/2+y,-z
1/2-x,1/2-y,-z
1/2+x,1/2+y,-z
1/2-x,1/2+y,z
1/2+x,1/2-y,z
loop_
_atom_site_type_symbol
_atom_site_label
_atom_site_fract_x
_atom_site_fract_y
_atom_site_fract_z
Si Si1 0.806218 0.784352 0.815620
Si Si2 0.691662 0.218212 0.500000
Si Si3 0.870557 0.298699 0.337396
Si Si4 0.555926 0.221376 0.194125
Si Si5 0.807006 0.783993 0.000000
Si Si6 0.058116 0.711243 0.000000
O O1 0.750000 0.750000 0.813122
O O2 0.830564 0.688860 0.736527
O O3 0.814568 0.000000 0.809545
O O4 0.824837 0.713601 0.908484
O O5 0.750000 0.250000 0.500000
O O6 0.659915 0.283570 0.417255
O O7 0.689378 0.000000 0.500000
O O8 0.886959 0.500000 0.365604
O O9 0.913512 0.216067 0.278332
O O10 0.500000 0.266417 0.204848
O O11 0.559699 0.000000 0.192411
O O12 0.571185 0.286221 0.096415
O O13 0.750000 0.750000 0.000000
O O14 0.814027 0.000000 0.000000
O O15 0.072373 0.500000 0.000000
O O16 0.000000 0.716289 0.000000
#
# Coordination Sequence:
#
# PCOD9486116 Si02
#       6
#    16   8  16  16   8   8
#     4  10  19  32  49  70  97 128 161 198 243 295
#     4  10  22  38  53  71  97 127 162 210 263 312
#     4  10  20  33  50  73  98 126 165 209 252 297
#     4   8  14  26  45  70 101 133 163 198 240 288
#     4   8  16  29  44  64  94 128 157 190 236 292
#     4   7  10  19  38  66  99 131 160 192 234 284
#
# _framework density 22.765806000000001
#
# number of rings (size 3 to 8) (size 9 to 14) (size 15 to 20)
#    0.000    3.000    0.000    2.667    0.000    4.444 
#    0.000    1.667    0.000    4.000    0.000    0.000 
#    0.000    8.000    0.000    0.000    0.000    0.000 
#
# Total GULP energy -200476.496096 kJ/mol
# GULP energy per Si atom -5568.791558 kJ/mol
# Density = 2.271399 g / cm^3
# Si number density = 22.765806 Si / 1000 Ang^3
#
#
#
# Elastic Constant Matrix: (Units=GPa)
#
#
# Indices 1 2 3 4 5 6 
#
# 1 159.1308 -3.6207 79.2529 0.0000 0.0000 0.0000
# 2 -3.6207 94.8527 10.8140 0.0000 0.0000 0.0000
# 3 79.2529 10.8140 213.7828 0.0000 0.0000 0.0000
# 4 0.0000 0.0000 0.0000 -3.4542 0.0000 0.0000
# 5 0.0000 0.0000 0.0000 0.0000 48.0003 0.0000
# 6 0.0000 0.0000 0.0000 0.0000 0.0000 3.0913
#
#
#
# Elastic Compliance Matrix: (Units=1/GPa)
#
#
# Indices 1 2 3 4 5 6 
#
# 1 0.007744 0.000627 -0.002903 0.000000 0.000000 0.000000
# 2 0.000627 0.010655 -0.000771 0.000000 0.000000 0.000000
# 3 -0.002903 -0.000771 0.005793 0.000000 0.000000 0.000000
# 4 0.000000 0.000000 0.000000 -0.289504 0.000000 0.000000
# 5 0.000000 0.000000 0.000000 0.000000 0.020833 0.000000
# 6 0.000000 0.000000 0.000000 0.000000 0.000000 0.323490
#
#
# Mechanical properties :
#
#
# Convention : Reuss Voigt Hill
#
# Bulk Modulus (GPa) = 55.25864 71.18430 63.22147
# Shear Modulus (GPa) = 54.86260 34.94881 44.90570
#
# Velocity S-wave (km/s) = 4.91437 3.92234 4.44611
# Velocity P-wave (km/s) = 7.51842 7.20062 7.36124
#
# Compressibility (1/GPa) = 0.01809672
#
# Stress axis : x y z
#
# Youngs Moduli (GPa) = 129.13311 93.85700 172.63216
#
# Poissons Ratio (x) = -0.05880 0.50107
# Poissons Ratio (y) = -0.08090 0.13314
# Poissons Ratio (z) = 0.37481 0.07238
#
# Static dielectric constant tensor:
#      x y z
#    x 1.871800 0.000000 0.000000 
#    y 0.000000 2.046810 0.000000 
#    z 0.000000 0.000000 1.916790 
# 
# From -- ./inp_files/46526.got.cif
#   From: 2010.05.17/outbox.cif.g08.bks.cpg/sg65_24_cif.got.tgz:46526.got - 2010.06.03 17:01:31.
