data_PCOD9486695
_publ_section_title
;
Structure prediction by ZEFSAII (Michael W. Deem and Ramdas Pophale) SiO2 
 PCOD9486695
Probable space group: C M M M
;
_chemical_formula_sum "Si O2"
_cell_formula_units_Z 76
_cell_length_a 25.851224
_cell_length_b 21.050736
_cell_length_c 7.234328
_cell_angle_alpha 90.000000
_cell_angle_beta 90.000000
_cell_angle_gamma 90.000000
_cell_volume 3936.829362
_symmetry_space_group_name_H-M "C M M M"
_symmetry_group_IT_number 65
_symmetry_cell_setting 'orthorhombic'
loop_
_space_group_symop_operation_xyz
x,y,z
-x,-y,z
x,-y,-z
-x,y,-z
-x,-y,-z
x,y,-z
-x,y,z
x,-y,z
1/2+x,1/2+y,z
1/2-x,1/2-y,z
1/2+x,1/2-y,-z
1/2-x,1/2+y,-z
1/2-x,1/2-y,-z
1/2+x,1/2+y,-z
1/2-x,1/2+y,z
1/2+x,1/2-y,z
loop_
_atom_site_type_symbol
_atom_site_label
_atom_site_fract_x
_atom_site_fract_y
_atom_site_fract_z
Si Si1 0.764740 0.927311 0.774295
Si Si2 0.591741 0.240905 0.776105
Si Si3 0.000000 0.706906 0.500000
Si Si4 0.558950 0.500000 0.721920
Si Si5 0.125163 0.122712 0.210147
Si Si6 0.707656 0.197448 0.223434
O O1 0.820533 0.900987 0.710055
O O2 0.724138 0.873331 0.719136
O O3 0.756395 0.000000 0.714298
O O4 0.765675 0.929462 0.000000
O O5 0.545715 0.210134 0.661567
O O6 0.596360 0.315308 0.717970
O O7 0.648812 0.213982 0.729687
O O8 0.583750 0.235996 0.000000
O O9 0.500000 0.500000 0.782479
O O10 0.560483 0.500000 0.500000
O O11 0.588000 0.437403 0.787098
O O12 0.138464 0.141281 0.000000
O O13 0.750000 0.250000 0.285989
O O14 0.710139 0.198832 0.000000
#
# Coordination Sequence:
#
# PCOD9486695 Si02
#       6
#    16  16   4   8  16  16
#     4   9  15  26  50  83 112 141 180 227 281 341
#     4  10  22  38  59  83 110 150 190 233 289 338
#     4  12  26  40  58  79 115 146 192 254 274 330
#     4  11  25  35  45  63 101 153 197 239 275 308
#     4  10  19  33  52  74 102 141 191 232 273 329
#     4   9  15  29  54  83 114 147 183 231 291 349
#
# _framework density 19.304874999999999
#
# number of rings (size 3 to 8) (size 9 to 14) (size 15 to 20)
#    0.000    2.211    3.158    0.632    2.947    0.842 
#    0.000    0.526    2.316    0.000    0.000    1.474 
#    0.000    5.053    0.000    0.000    0.000    0.000 
#
# Total GULP energy -211544.402919 kJ/mol
# GULP energy per Si atom -5566.957972 kJ/mol
# Density = 1.926094 g / cm^3
# Si number density = 19.304875 Si / 1000 Ang^3
#
#
#
# Elastic Constant Matrix: (Units=GPa)
#
#
# Indices 1 2 3 4 5 6 
#
# 1 144.6432 21.8277 26.2514 0.0000 0.0000 0.0000
# 2 21.8277 36.9239 5.5429 0.0000 0.0000 0.0000
# 3 26.2514 5.5429 112.1161 0.0000 0.0000 0.0000
# 4 0.0000 0.0000 0.0000 -2.7914 0.0000 0.0000
# 5 0.0000 0.0000 0.0000 0.0000 79.3462 0.0000
# 6 0.0000 0.0000 0.0000 0.0000 0.0000 -19.8541
#
#
#
# Elastic Compliance Matrix: (Units=1/GPa)
#
#
# Indices 1 2 3 4 5 6 
#
# 1 0.007874 -0.004411 -0.001626 0.000000 0.000000 0.000000
# 2 -0.004411 0.029756 -0.000438 0.000000 0.000000 0.000000
# 3 -0.001626 -0.000438 0.009322 0.000000 0.000000 0.000000
# 4 0.000000 0.000000 0.000000 -0.358238 0.000000 0.000000
# 5 0.000000 0.000000 0.000000 0.000000 0.012603 0.000000
# 6 0.000000 0.000000 0.000000 0.000000 0.000000 -0.050367
#
#
# Mechanical properties :
#
#
# Convention : Reuss Voigt Hill
#
# Bulk Modulus (GPa) = 29.40983 44.54746 36.97865
# Shear Modulus (GPa) = -15.39568 27.34421 5.97427
#
# Velocity S-wave (km/s) = -2.82707 3.76765 1.76108
# Velocity P-wave (km/s) = 2.14733 6.48481 4.83031
#
# Compressibility (1/GPa) = 0.03400224
#
# Stress axis : x y z
#
# Youngs Moduli (GPa) = 126.99651 33.60667 107.27740
#
# Poissons Ratio (x) = 0.14823 0.17439
# Poissons Ratio (y) = 0.56016 0.04702
# Poissons Ratio (z) = 0.20645 0.01473
#
# Static dielectric constant tensor:
#      x y z
#    x 1.643620 0.000000 0.000000 
#    y 0.000000 1.692560 0.000000 
#    z 0.000000 0.000000 1.771210 
# 
# From -- ./inp_files/16076.got.cif
#   From: 2010.05.17/outbox.cif.g08.bks.cpg/sg65_9_cif.got.tgz:16076.got - 2010.06.03 17:01:31.
