data_PCOD9486981
_publ_section_title
;
Structure prediction by ZEFSAII (Michael W. Deem and Ramdas Pophale) SiO2 
 PCOD9486981
Probable space group: C M M M
;
_chemical_formula_sum "Si O2"
_cell_formula_units_Z 120
_cell_length_a 14.009347
_cell_length_b 14.252100
_cell_length_c 32.779680
_cell_angle_alpha 90.000000
_cell_angle_beta 90.000000
_cell_angle_gamma 90.000000
_cell_volume 6544.876607
_symmetry_space_group_name_H-M "C M M M"
_symmetry_group_IT_number 65
_symmetry_cell_setting 'orthorhombic'
loop_
_space_group_symop_operation_xyz
x,y,z
-x,-y,z
x,-y,-z
-x,y,-z
-x,-y,-z
x,y,-z
-x,y,z
x,-y,z
1/2+x,1/2+y,z
1/2-x,1/2-y,z
1/2+x,1/2-y,-z
1/2-x,1/2+y,-z
1/2-x,1/2-y,-z
1/2+x,1/2+y,-z
1/2-x,1/2+y,z
1/2+x,1/2-y,z
loop_
_atom_site_type_symbol
_atom_site_label
_atom_site_fract_x
_atom_site_fract_y
_atom_site_fract_z
Si Si1 0.284802 0.387814 0.627684
Si Si2 0.890743 0.113678 0.545856
Si Si3 0.611010 0.224336 0.760028
Si Si4 0.105966 0.111343 0.124010
Si Si5 0.610765 0.218584 0.664327
Si Si6 0.279091 0.612506 0.202872
Si Si7 0.271490 0.641086 0.953664
Si Si8 0.108147 0.500000 0.049345
O O1 0.292540 0.500000 0.633414
O O2 0.317598 0.362754 0.581644
O O3 0.355118 0.324988 0.655450
O O4 0.180197 0.349461 0.638922
O O5 0.866705 0.146210 0.500000
O O6 0.000000 0.143981 0.555434
O O7 0.893023 0.000000 0.544672
O O8 0.500000 0.218853 0.770225
O O9 0.623891 0.199795 0.712429
O O10 0.650236 0.329540 0.767510
O O11 0.675778 0.154856 0.786871
O O12 0.182681 0.140757 0.157947
O O13 0.145663 0.125023 0.078734
O O14 0.000000 0.152840 0.129760
O O15 0.097899 0.000000 0.130111
O O16 0.500000 0.207112 0.654041
O O17 0.281547 0.500000 0.207667
O O18 0.250000 0.750000 0.954953
O O19 0.175218 0.587754 0.939790
O O20 0.294787 0.610056 0.000000
O O21 0.000000 0.500000 0.065472
O O22 0.100615 0.500000 0.000000
#
# Coordination Sequence:
#
# PCOD9486981 Si02
#       8
#    16  16  16  16  16  16  16   8
#     4  10  19  33  55  79 106 146 187 224 275 331
#     4   8  14  26  47  76 107 140 183 232 275 318
#     4  10  22  39  59  82 109 146 184 223 276 333
#     4  10  21  37  58  83 112 144 179 224 277 326
#     4  10  22  37  52  80 116 140 175 230 280 331
#     4  10  21  38  59  82 112 143 181 227 273 325
#     4  10  21  36  57  85 114 147 188 227 266 320
#     4   9  18  36  57  77 111 151 182 222 273 315
#
# _framework density 18.334951
#
# number of rings (size 3 to 8) (size 9 to 14) (size 15 to 20)
#    0.000    2.333    0.667    2.800    1.867    5.067 
#    0.000    6.667    0.000    1.200    0.000    1.867 
#    0.000    0.000    0.000    0.000    0.000    0.000 
#
# Total GULP energy -334347.370442 kJ/mol
# GULP energy per Si atom -5572.456174 kJ/mol
# Density = 1.829322 g / cm^3
# Si number density = 18.334951 Si / 1000 Ang^3
#
#
#
# Elastic Constant Matrix: (Units=GPa)
#
#
# Indices 1 2 3 4 5 6 
#
# 1 155.3332 46.2287 72.8914 0.0000 0.0000 0.0000
# 2 46.2287 87.6075 27.6719 0.0000 0.0000 0.0000
# 3 72.8914 27.6719 87.7736 0.0000 0.0000 0.0000
# 4 0.0000 0.0000 0.0000 27.8814 0.0000 0.0000
# 5 0.0000 0.0000 0.0000 0.0000 -4.9603 0.0000
# 6 0.0000 0.0000 0.0000 0.0000 0.0000 12.1541
#
#
#
# Elastic Compliance Matrix: (Units=1/GPa)
#
#
# Indices 1 2 3 4 5 6 
#
# 1 0.011370 -0.003351 -0.008386 0.000000 0.000000 0.000000
# 2 -0.003351 0.013665 -0.001525 0.000000 0.000000 0.000000
# 3 -0.008386 -0.001525 0.018838 0.000000 0.000000 0.000000
# 4 0.000000 0.000000 0.000000 0.035866 0.000000 0.000000
# 5 0.000000 0.000000 0.000000 0.000000 -0.201599 0.000000
# 6 0.000000 0.000000 0.000000 0.000000 0.000000 0.082277
#
#
# Mechanical properties :
#
#
# Convention : Reuss Voigt Hill
#
# Bulk Modulus (GPa) = 57.64185 69.36649 63.50417
# Shear Modulus (GPa) = -687.14565 19.27652 -333.93456
#
# Velocity S-wave (km/s) = -19.38007 3.24598 -13.51020
# Velocity P-wave (km/s) = 21.66279 7.20857 14.44495
#
# Compressibility (1/GPa) = 0.01734851
#
# Stress axis : x y z
#
# Youngs Moduli (GPa) = 87.94880 73.18211 53.08470
#
# Poissons Ratio (x) = 0.24524 0.44516
# Poissons Ratio (y) = 0.29472 0.08096
# Poissons Ratio (z) = 0.73753 0.11161
#
# Static dielectric constant tensor:
#      x y z
#    x 1.633390 0.000000 0.000000 
#    y 0.000000 1.629220 0.000000 
#    z 0.000000 0.000000 1.663620 
# 
# From -- ./inp_files/77754.got.cif
#   From: 2010.05.17/outbox.cif.g08.bks.cpg/sg65_39_cif.got.tgz:77754.got - 2010.06.03 17:01:31.
