data_PCOD9486212
_publ_section_title
;
Structure prediction by ZEFSAII (Michael W. Deem and Ramdas Pophale) SiO2 
 PCOD9486212
Probable space group: C M M M
;
_chemical_formula_sum "Si O2"
_cell_formula_units_Z 72
_cell_length_a 19.855490
_cell_length_b 18.932410
_cell_length_c 10.770477
_cell_angle_alpha 90.000000
_cell_angle_beta 90.000000
_cell_angle_gamma 90.000000
_cell_volume 4048.754538
_symmetry_space_group_name_H-M "C M M M"
_symmetry_group_IT_number 65
_symmetry_cell_setting 'orthorhombic'
loop_
_space_group_symop_operation_xyz
x,y,z
-x,-y,z
x,-y,-z
-x,y,-z
-x,-y,-z
x,y,-z
-x,y,z
x,-y,z
1/2+x,1/2+y,z
1/2-x,1/2-y,z
1/2+x,1/2-y,-z
1/2-x,1/2+y,-z
1/2-x,1/2-y,-z
1/2+x,1/2+y,-z
1/2-x,1/2+y,z
1/2+x,1/2-y,z
loop_
_atom_site_type_symbol
_atom_site_label
_atom_site_fract_x
_atom_site_fract_y
_atom_site_fract_z
Si Si1 0.196003 0.083487 0.137651
Si Si2 0.081396 0.079533 0.500000
Si Si3 0.923372 0.315188 0.354329
Si Si4 0.797409 0.415630 0.641594
Si Si5 0.079463 0.162608 0.248813
O O1 0.245482 0.103838 0.249976
O O2 0.128544 0.129122 0.148754
O O3 0.180067 0.000000 0.152520
O O4 0.226247 0.092548 0.000000
O O5 0.098344 0.121559 0.376017
O O6 0.000000 0.074660 0.500000
O O7 0.109750 0.000000 0.500000
O O8 0.921303 0.293332 0.500000
O O9 0.867091 0.374337 0.337609
O O10 0.910381 0.245510 0.273454
O O11 0.000000 0.339837 0.330191
O O12 0.773908 0.399142 0.500000
O O13 0.807747 0.500000 0.647766
O O14 0.000000 0.151022 0.224883
#
# Coordination Sequence:
#
# PCOD9486212 Si02
#       5
#    16   8  16  16  16
#     4  10  22  38  54  74 105 144 179 218 267 310
#     4   9  16  26  44  71  99 129 166 209 251 291
#     4   9  17  32  54  81 112 139 166 213 273 318
#     4   9  19  35  56  81 105 135 178 221 261 314
#     4  10  19  32  50  76 107 138 174 214 258 311
#
# _framework density 17.783246999999999
#
# number of rings (size 3 to 8) (size 9 to 14) (size 15 to 20)
#    0.000    2.556    1.111    0.667    1.556    3.111 
#    0.000    7.778    0.000    2.000    0.000    3.111 
#    0.000    0.000    0.000    0.000    0.000    0.000 
#
# Total GULP energy -200722.328843 kJ/mol
# GULP energy per Si atom -5575.620246 kJ/mol
# Density = 1.774277 g / cm^3
# Si number density = 17.783247 Si / 1000 Ang^3
#
#
#
# Elastic Constant Matrix: (Units=GPa)
#
#
# Indices 1 2 3 4 5 6 
#
# 1 91.9372 43.9061 59.8855 0.0000 0.0000 0.0000
# 2 43.9061 39.5992 35.5637 0.0000 0.0000 0.0000
# 3 59.8855 35.5637 96.6702 0.0000 0.0000 0.0000
# 4 0.0000 0.0000 0.0000 17.6061 0.0000 0.0000
# 5 0.0000 0.0000 0.0000 0.0000 11.7174 0.0000
# 6 0.0000 0.0000 0.0000 0.0000 0.0000 28.1471
#
#
#
# Elastic Compliance Matrix: (Units=1/GPa)
#
#
# Indices 1 2 3 4 5 6 
#
# 1 0.027179 -0.022422 -0.008588 0.000000 0.000000 0.000000
# 2 -0.022422 0.056211 -0.006789 0.000000 0.000000 0.000000
# 3 -0.008588 -0.006789 0.018162 0.000000 0.000000 0.000000
# 4 0.000000 0.000000 0.000000 0.056798 0.000000 0.000000
# 5 0.000000 0.000000 0.000000 0.000000 0.085343 0.000000
# 6 0.000000 0.000000 0.000000 0.000000 0.000000 0.035528
#
#
# Mechanical properties :
#
#
# Convention : Reuss Voigt Hill
#
# Bulk Modulus (GPa) = 38.53041 56.32413 47.42727
# Shear Modulus (GPa) = 13.75618 17.41753 15.58685
#
# Velocity S-wave (km/s) = 2.78429 3.13299 2.96377
# Velocity P-wave (km/s) = 5.66128 6.69543 6.19996
#
# Compressibility (1/GPa) = 0.02595353
#
# Stress axis : x y z
#
# Youngs Moduli (GPa) = 36.79276 17.79002 55.05891
#
# Poissons Ratio (x) = 0.39889 0.47286
# Poissons Ratio (y) = 0.82498 0.37381
# Poissons Ratio (z) = 0.31598 0.12078
#
# Static dielectric constant tensor:
#      x y z
#    x 1.602390 0.000000 0.000000 
#    y 0.000000 1.585680 0.000000 
#    z 0.000000 0.000000 1.619280 
# 
# From -- ./inp_files/11253.got.cif
#   From: 2010.05.17/outbox.cif.g08.bks.cpg/sg65_6_cif.got.tgz:11253.got - 2010.06.03 17:01:31.
