data_PCOD9486656
_publ_section_title
;
Structure prediction by ZEFSAII (Michael W. Deem and Ramdas Pophale) SiO2 
 PCOD9486656
Probable space group: C M M M
;
_chemical_formula_sum "Si O2"
_cell_formula_units_Z 120
_cell_length_a 29.709790
_cell_length_b 8.357103
_cell_length_c 29.398432
_cell_angle_alpha 90.000000
_cell_angle_beta 90.000000
_cell_angle_gamma 90.000000
_cell_volume 7299.271274
_symmetry_space_group_name_H-M "C M M M"
_symmetry_group_IT_number 65
_symmetry_cell_setting 'orthorhombic'
loop_
_space_group_symop_operation_xyz
x,y,z
-x,-y,z
x,-y,-z
-x,y,-z
-x,-y,-z
x,y,-z
-x,y,z
x,-y,z
1/2+x,1/2+y,z
1/2-x,1/2-y,z
1/2+x,1/2-y,-z
1/2-x,1/2+y,-z
1/2-x,1/2-y,-z
1/2+x,1/2+y,-z
1/2-x,1/2+y,z
1/2+x,1/2-y,z
loop_
_atom_site_type_symbol
_atom_site_label
_atom_site_fract_x
_atom_site_fract_y
_atom_site_fract_z
Si Si1 0.298916 0.191395 0.279877
Si Si2 0.948590 0.192979 0.051695
Si Si3 0.892638 0.191384 0.312905
Si Si4 0.051710 0.693477 0.225555
Si Si5 0.201259 0.692837 0.825656
Si Si6 0.606996 0.806864 0.136724
Si Si7 0.447789 0.303940 0.400657
Si Si8 0.945303 0.185156 0.500000
O O1 0.250000 0.250000 0.295619
O O2 0.341241 0.254254 0.307824
O O3 0.304221 0.245907 0.227051
O O4 0.299758 0.000000 0.279988
O O5 0.914646 0.252642 0.089722
O O6 0.000000 0.245405 0.062069
O O7 0.948481 0.000000 0.052021
O O8 0.937913 0.244736 0.000000
O O9 0.920361 0.252586 0.269346
O O10 0.916698 0.248557 0.359129
O O11 0.894275 0.000000 0.312711
O O12 0.051599 0.500000 0.225084
O O13 0.076352 0.747543 0.179345
O O14 0.000000 0.748954 0.227457
O O15 0.201272 0.500000 0.825445
O O16 0.250000 0.750000 0.841903
O O17 0.158092 0.748123 0.854101
O O18 0.607174 0.000000 0.137550
O O19 0.500000 0.257982 0.392985
O O20 0.447316 0.500000 0.402137
O O21 0.432751 0.245455 0.450798
O O22 0.000000 0.182835 0.500000
O O23 0.930090 0.000000 0.500000
#
# Coordination Sequence:
#
# PCOD9486656 Si02
#       8
#    16  16  16  16  16  16  16   8
#     4  10  19  34  51  68  93 124 160 198 238 283
#     4   9  19  35  52  72  99 127 156 194 238 281
#     4  11  20  29  44  69  99 128 158 195 238 285
#     4  10  20  33  46  63  95 135 165 192 232 281
#     4   9  18  32  50  70  94 120 153 194 234 275
#     4  10  19  33  51  72  95 123 159 198 235 275
#     4   8  14  24  39  62  93 126 161 200 237 277
#     4   7  10  20  38  58  84 121 160 199 242 277
#
# _framework density 16.439997999999999
#
# number of rings (size 3 to 8) (size 9 to 14) (size 15 to 20)
#    0.000    2.600    1.333    2.800    0.000    3.467 
#    0.000    0.667    0.000    0.400    0.000    2.333 
#    0.000    7.467    0.000    0.000    0.000    0.000 
#
# Total GULP energy -334470.774029 kJ/mol
# GULP energy per Si atom -5574.512900 kJ/mol
# Density = 1.640258 g / cm^3
# Si number density = 16.439998 Si / 1000 Ang^3
#
#
#
# Elastic Constant Matrix: (Units=GPa)
#
#
# Indices 1 2 3 4 5 6 
#
# 1 150.2443 16.6040 89.9771 0.0000 0.0000 0.0000
# 2 16.6040 7.4040 12.3537 0.0000 0.0000 0.0000
# 3 89.9771 12.3537 131.3196 0.0000 0.0000 0.0000
# 4 0.0000 0.0000 0.0000 12.6586 0.0000 0.0000
# 5 0.0000 0.0000 0.0000 0.0000 11.6214 0.0000
# 6 0.0000 0.0000 0.0000 0.0000 0.0000 24.4722
#
#
#
# Elastic Compliance Matrix: (Units=1/GPa)
#
#
# Indices 1 2 3 4 5 6 
#
# 1 0.012824 -0.016723 -0.007213 0.000000 0.000000 0.000000
# 2 -0.016723 0.182015 -0.005665 0.000000 0.000000 0.000000
# 3 -0.007213 -0.005665 0.013090 0.000000 0.000000 0.000000
# 4 0.000000 0.000000 0.000000 0.078998 0.000000 0.000000
# 5 0.000000 0.000000 0.000000 0.000000 0.086048 0.000000
# 6 0.000000 0.000000 0.000000 0.000000 0.000000 0.040863
#
#
# Mechanical properties :
#
#
# Convention : Reuss Voigt Hill
#
# Bulk Modulus (GPa) = 6.72371 58.53751 32.63061
# Shear Modulus (GPa) = 9.56727 21.08598 15.32662
#
# Velocity S-wave (km/s) = 2.41498 3.58523 3.05663
# Velocity P-wave (km/s) = 3.44600 7.26791 5.68759
#
# Compressibility (1/GPa) = 0.14872737
#
# Stress axis : x y z
#
# Youngs Moduli (GPa) = 77.97995 5.49405 76.39195
#
# Poissons Ratio (x) = 0.09187 0.55105
# Poissons Ratio (y) = 1.30403 0.43275
# Poissons Ratio (z) = 0.56250 0.03112
#
# Static dielectric constant tensor:
#      x y z
#    x 1.544650 0.000000 0.000000 
#    y 0.000000 1.574850 0.000000 
#    z 0.000000 0.000000 1.552920 
# 
# From -- ./inp_files/76109.got.cif
#   From: 2010.05.17/outbox.cif.g08.bks.cpg/sg65_39_cif.got.tgz:76109.got - 2010.06.03 17:01:31.
