data_PCOD9486927
_publ_section_title
;
Structure prediction by ZEFSAII (Michael W. Deem and Ramdas Pophale) SiO2 
 PCOD9486927
Probable space group: C M M M
;
_chemical_formula_sum "Si O2"
_cell_formula_units_Z 66
_cell_length_a 15.810852
_cell_length_b 7.582279
_cell_length_c 26.578347
_cell_angle_alpha 90.000000
_cell_angle_beta 90.000000
_cell_angle_gamma 90.000000
_cell_volume 3186.273132
_symmetry_space_group_name_H-M "C M M M"
_symmetry_group_IT_number 65
_symmetry_cell_setting 'orthorhombic'
loop_
_space_group_symop_operation_xyz
x,y,z
-x,-y,z
x,-y,-z
-x,y,-z
-x,-y,-z
x,y,-z
-x,y,z
x,-y,z
1/2+x,1/2+y,z
1/2-x,1/2-y,z
1/2+x,1/2-y,-z
1/2-x,1/2+y,-z
1/2-x,1/2-y,-z
1/2+x,1/2+y,-z
1/2-x,1/2+y,z
1/2+x,1/2-y,z
loop_
_atom_site_type_symbol
_atom_site_label
_atom_site_fract_x
_atom_site_fract_y
_atom_site_fract_z
Si Si1 0.400989 0.214737 0.734636
Si Si2 0.655401 0.788965 0.374041
Si Si3 0.000000 0.805408 0.914842
Si Si4 0.000000 0.716269 0.557753
Si Si5 0.345342 0.789651 0.156308
Si Si6 0.500000 0.000000 0.000000
O O1 0.500000 0.262277 0.734930
O O2 0.359300 0.278515 0.682864
O O3 0.358253 0.275541 0.786313
O O4 0.397020 0.000000 0.734536
O O5 0.750000 0.750000 0.391075
O O6 0.582756 0.725048 0.411578
O O7 0.645709 0.000000 0.371597
O O8 0.082566 0.786548 0.879456
O O9 0.000000 0.653634 0.956013
O O10 0.000000 0.000000 0.937472
O O11 0.000000 0.500000 0.557474
O O12 0.000000 0.773515 0.500000
O O13 0.250000 0.750000 0.139632
O O14 0.357663 0.000000 0.156449
#
# Coordination Sequence:
#
# PCOD9486927 Si02
#       6
#    16  16   8   8  16   2
#     4   9  16  30  56  85 117 161 198 240 304 374
#     4  10  19  33  54  79 110 148 195 245 304 370
#     4  12  25  46  74 101 132 173 221 272 324 379
#     4   9  18  33  53  74 100 146 204 253 299 366
#     4  11  21  38  64  96 133 168 208 259 318 388
#     4  12  26  52  76  98 136 178 222 272 334 366
#
# _framework density 20.713856
#
# number of rings (size 3 to 8) (size 9 to 14) (size 15 to 20)
#    0.000    1.818    3.636    1.636    0.000    0.485 
#    0.000    2.424    0.000    0.727    0.000    0.000 
#    0.000    0.000    0.000    0.000    0.000    0.000 
#
# Total GULP energy -184182.581641 kJ/mol
# GULP energy per Si atom -5581.290353 kJ/mol
# Density = 2.066671 g / cm^3
# Si number density = 20.713856 Si / 1000 Ang^3
#
#
#
# Elastic Constant Matrix: (Units=GPa)
#
#
# Indices 1 2 3 4 5 6 
#
# 1 178.6588 11.5017 83.1671 0.0000 0.0000 0.0000
# 2 11.5017 94.2823 36.7307 0.0000 0.0000 0.0000
# 3 83.1671 36.7307 165.4038 0.0000 0.0000 0.0000
# 4 0.0000 0.0000 0.0000 -26.2954 0.0000 0.0000
# 5 0.0000 0.0000 0.0000 0.0000 11.1469 0.0000
# 6 0.0000 0.0000 0.0000 0.0000 0.0000 15.0585
#
#
#
# Elastic Compliance Matrix: (Units=1/GPa)
#
#
# Indices 1 2 3 4 5 6 
#
# 1 0.007338 0.000594 -0.003821 0.000000 0.000000 0.000000
# 2 0.000594 0.011659 -0.002888 0.000000 0.000000 0.000000
# 3 -0.003821 -0.002888 0.008608 0.000000 0.000000 0.000000
# 4 0.000000 0.000000 0.000000 -0.038029 0.000000 0.000000
# 5 0.000000 0.000000 0.000000 0.000000 0.089711 0.000000
# 6 0.000000 0.000000 0.000000 0.000000 0.000000 0.066408
#
#
# Mechanical properties :
#
#
# Convention : Reuss Voigt Hill
#
# Bulk Modulus (GPa) = 65.04206 77.90488 71.47347
# Shear Modulus (GPa) = 30.66543 20.44504 25.55524
#
# Velocity S-wave (km/s) = 3.85181 3.14510 3.51626
# Velocity P-wave (km/s) = 7.15894 7.13306 7.14601
#
# Compressibility (1/GPa) = 0.01537467
#
# Stress axis : x y z
#
# Youngs Moduli (GPa) = 136.27784 85.77089 116.16432
#
# Poissons Ratio (x) = -0.05091 0.44391
# Poissons Ratio (y) = -0.08089 0.33543
# Poissons Ratio (z) = 0.52078 0.24767
#
# Static dielectric constant tensor:
#      x y z
#    x 1.713630 0.000000 0.000000 
#    y 0.000000 1.771570 0.000000 
#    z 0.000000 0.000000 1.710270 
# 
# From -- ./inp_files/72408.got.cif
#   From: 2010.05.17/outbox.cif.g08.bks.cpg/sg65_37_cif.got.tgz:72408.got - 2010.06.03 17:01:31.
