data_PCOD9486225
_publ_section_title
;
Structure prediction by ZEFSAII (Michael W. Deem and Ramdas Pophale) SiO2 
 PCOD9486225
Probable space group: C M M M
;
_chemical_formula_sum "Si O2"
_cell_formula_units_Z 104
_cell_length_a 33.485773
_cell_length_b 14.562161
_cell_length_c 9.713692
_cell_angle_alpha 90.000000
_cell_angle_beta 90.000000
_cell_angle_gamma 90.000000
_cell_volume 4736.641176
_symmetry_space_group_name_H-M "C M M M"
_symmetry_group_IT_number 65
_symmetry_cell_setting 'orthorhombic'
loop_
_space_group_symop_operation_xyz
x,y,z
-x,-y,z
x,-y,-z
-x,y,-z
-x,-y,-z
x,y,-z
-x,y,z
x,-y,z
1/2+x,1/2+y,z
1/2-x,1/2-y,z
1/2+x,1/2-y,-z
1/2-x,1/2+y,-z
1/2-x,1/2-y,-z
1/2+x,1/2+y,-z
1/2-x,1/2+y,z
1/2+x,1/2-y,z
loop_
_atom_site_type_symbol
_atom_site_label
_atom_site_fract_x
_atom_site_fract_y
_atom_site_fract_z
Si Si1 0.545734 0.887687 0.151936
Si Si2 0.185927 0.633119 0.844052
Si Si3 0.759289 0.139549 0.341970
Si Si4 0.668190 0.651393 0.843756
Si Si5 0.000000 0.112260 0.340466
Si Si6 0.111281 0.393072 0.650527
Si Si7 0.423455 0.611196 0.159495
O O1 0.500000 0.859528 0.167355
O O2 0.574051 0.850382 0.269917
O O3 0.545963 0.000000 0.154041
O O4 0.560646 0.861280 0.000000
O O5 0.225293 0.605248 0.761785
O O6 0.182155 0.743199 0.853150
O O7 0.148523 0.607290 0.751269
O O8 0.184669 0.599159 0.000000
O O9 0.756202 0.108176 0.500000
O O10 0.750000 0.250000 0.346743
O O11 0.801730 0.115152 0.272732
O O12 0.621384 0.645254 0.806233
O O13 0.672437 0.612348 0.000000
O O14 0.959892 0.140017 0.257825
O O15 0.000000 0.142604 0.500000
O O16 0.000000 0.000000 0.341101
O O17 0.119959 0.353112 0.500000
O O18 0.101021 0.500000 0.632756
O O19 0.421527 0.500000 0.164900
O O20 0.431894 0.636744 0.000000
#
# Coordination Sequence:
#
# PCOD9486225 Si02
#       7
#    16  16  16  16   8  16  16
#     4   8  14  26  45  67  89 115 150 190 230 276
#     4  10  19  32  51  71  95 127 165 205 245 291
#     4   9  17  30  49  72  96 126 164 202 244 292
#     4   9  18  32  51  75  99 125 163 205 244 287
#     4   9  17  29  47  73 103 133 166 201 238 287
#     4  10  20  32  47  69  96 124 157 199 245 293
#     4   9  17  31  52  76 102 132 165 201 242 289
#
# _framework density 21.956486999999999
#
# number of rings (size 3 to 8) (size 9 to 14) (size 15 to 20)
#    0.000    2.846    0.000    2.077    0.000    5.231 
#    0.000    2.308    1.692    2.769    0.000    0.000 
#    0.000    0.000    0.000    0.000    0.000    0.000 
#
# Total GULP energy -290177.348440 kJ/mol
# GULP energy per Si atom -5580.333624 kJ/mol
# Density = 2.190651 g / cm^3
# Si number density = 21.956487 Si / 1000 Ang^3
#
#
#
# Elastic Constant Matrix: (Units=GPa)
#
#
# Indices 1 2 3 4 5 6 
#
# 1 166.2545 5.1850 137.6187 0.0000 0.0000 0.0000
# 2 5.1850 59.9575 8.5315 0.0000 0.0000 0.0000
# 3 137.6187 8.5315 234.6915 0.0000 0.0000 0.0000
# 4 0.0000 0.0000 0.0000 1.8107 0.0000 0.0000
# 5 0.0000 0.0000 0.0000 0.0000 91.2254 0.0000
# 6 0.0000 0.0000 0.0000 0.0000 0.0000 21.6951
#
#
#
# Elastic Compliance Matrix: (Units=1/GPa)
#
#
# Indices 1 2 3 4 5 6 
#
# 1 0.011688 -0.000036 -0.006852 0.000000 0.000000 0.000000
# 2 -0.000036 0.016765 -0.000589 0.000000 0.000000 0.000000
# 3 -0.006852 -0.000589 0.008300 0.000000 0.000000 0.000000
# 4 0.000000 0.000000 0.000000 0.552286 0.000000 0.000000
# 5 0.000000 0.000000 0.000000 0.000000 0.010962 0.000000
# 6 0.000000 0.000000 0.000000 0.000000 0.000000 0.046093
#
#
# Mechanical properties :
#
#
# Convention : Reuss Voigt Hill
#
# Bulk Modulus (GPa) = 45.87030 84.84156 65.35593
# Shear Modulus (GPa) = 7.48150 43.58411 25.53281
#
# Velocity S-wave (km/s) = 1.84792 4.46019 3.41381
# Velocity P-wave (km/s) = 5.04875 8.07769 6.73569
#
# Compressibility (1/GPa) = 0.02180060
#
# Stress axis : x y z
#
# Youngs Moduli (GPa) = 85.55686 59.64701 120.47567
#
# Poissons Ratio (x) = 0.00213 0.82555
# Poissons Ratio (y) = 0.00306 0.07090
# Poissons Ratio (z) = 0.58627 0.03510
#
# Static dielectric constant tensor:
#      x y z
#    x 1.766930 0.000000 0.000000 
#    y 0.000000 1.955250 0.000000 
#    z 0.000000 0.000000 1.787560 
# 
# From -- ./inp_files/18680.got.cif
#   From: 2010.05.17/outbox.cif.g08.bks.cpg/sg65_10_cif.got.tgz:18680.got - 2010.06.03 17:01:31.
