data_PCOD9486360
_publ_section_title
;
Structure prediction by ZEFSAII (Michael W. Deem and Ramdas Pophale) SiO2 
 PCOD9486360
Probable space group: C M M M
;
_chemical_formula_sum "Si O2"
_cell_formula_units_Z 88
_cell_length_a 27.696148
_cell_length_b 14.181135
_cell_length_c 12.134147
_cell_angle_alpha 90.000000
_cell_angle_beta 90.000000
_cell_angle_gamma 90.000000
_cell_volume 4765.841718
_symmetry_space_group_name_H-M "C M M M"
_symmetry_group_IT_number 65
_symmetry_cell_setting 'orthorhombic'
loop_
_space_group_symop_operation_xyz
x,y,z
-x,-y,z
x,-y,-z
-x,y,-z
-x,-y,-z
x,y,-z
-x,y,z
x,-y,z
1/2+x,1/2+y,z
1/2-x,1/2-y,z
1/2+x,1/2-y,-z
1/2-x,1/2+y,-z
1/2-x,1/2-y,-z
1/2+x,1/2+y,-z
1/2-x,1/2+y,z
1/2+x,1/2-y,z
loop_
_atom_site_type_symbol
_atom_site_label
_atom_site_fract_x
_atom_site_fract_y
_atom_site_fract_z
Si Si1 0.445823 0.828460 0.500000
Si Si2 0.837452 0.390356 0.500000
Si Si3 0.200920 0.312210 0.267657
Si Si4 0.445447 0.671541 0.311851
Si Si5 0.832425 0.000000 0.844724
Si Si6 0.375895 0.500000 0.623362
Si Si7 0.121987 0.201128 0.875741
Si Si8 0.779470 0.500000 0.874150
O O1 0.500000 0.873135 0.500000
O O2 0.396158 0.886351 0.500000
O O3 0.443466 0.759750 0.394087
O O4 0.822410 0.500000 0.500000
O O5 0.817345 0.339559 0.610087
O O6 0.250000 0.250000 0.271812
O O7 0.160556 0.253331 0.201783
O O8 0.207691 0.407173 0.195877
O O9 0.500000 0.634890 0.311790
O O10 0.409142 0.591208 0.354756
O O11 0.427966 0.701490 0.190851
O O12 0.833500 0.000000 0.711791
O O13 0.860399 0.093058 0.880518
O O14 0.778260 0.000000 0.883603
O O15 0.357719 0.500000 0.500000
O O16 0.120080 0.238937 0.000000
O O17 0.799314 0.500000 0.000000
#
# Coordination Sequence:
#
# PCOD9486360 Si02
#       8
#     8   8  16  16   8   8  16   8
#     4  10  20  37  64  89 111 146 195 247 296 360
#     4  12  25  46  65  88 126 153 188 249 313 358
#     4  12  25  42  64  92 120 161 201 245 297 354
#     4  10  20  34  56  85 118 154 198 245 296 354
#     4  10  22  37  55  87 120 159 205 250 297 344
#     4  10  19  32  51  84 122 161 198 244 300 354
#     4  11  22  38  60  86 121 161 202 247 296 350
#     4  12  24  41  62  89 120 159 211 246 285 353
#
# _framework density 18.464734
#
# number of rings (size 3 to 8) (size 9 to 14) (size 15 to 20)
#    0.000    1.091    5.455    1.909    0.000    1.636 
#    1.636    0.000    0.000    3.273    0.000    0.000 
#    0.000    5.818    0.000    0.000    0.000    0.000 
#
# Total GULP energy -245640.856110 kJ/mol
# GULP energy per Si atom -5582.746730 kJ/mol
# Density = 1.842271 g / cm^3
# Si number density = 18.464734 Si / 1000 Ang^3
#
#
#
# Elastic Constant Matrix: (Units=GPa)
#
#
# Indices 1 2 3 4 5 6 
#
# 1 33.5759 19.6957 27.7356 0.0000 0.0000 0.0000
# 2 19.6957 89.5408 39.4554 0.0000 0.0000 0.0000
# 3 27.7356 39.4554 183.3872 0.0000 0.0000 0.0000
# 4 0.0000 0.0000 0.0000 21.6620 0.0000 0.0000
# 5 0.0000 0.0000 0.0000 0.0000 12.1993 0.0000
# 6 0.0000 0.0000 0.0000 0.0000 0.0000 20.8689
#
#
#
# Elastic Compliance Matrix: (Units=1/GPa)
#
#
# Indices 1 2 3 4 5 6 
#
# 1 0.036961 -0.006260 -0.004243 0.000000 0.000000 0.000000
# 2 -0.006260 0.013398 -0.001936 0.000000 0.000000 0.000000
# 3 -0.004243 -0.001936 0.006511 0.000000 0.000000 0.000000
# 4 0.000000 0.000000 0.000000 0.046164 0.000000 0.000000
# 5 0.000000 0.000000 0.000000 0.000000 0.081972 0.000000
# 6 0.000000 0.000000 0.000000 0.000000 0.000000 0.047918
#
#
# Mechanical properties :
#
#
# Convention : Reuss Voigt Hill
#
# Bulk Modulus (GPa) = 31.25819 53.36415 42.31117
# Shear Modulus (GPa) = 18.62434 25.58718 22.10576
#
# Velocity S-wave (km/s) = 3.17936 3.72658 3.46379
# Velocity P-wave (km/s) = 5.51753 6.89056 6.24191
#
# Compressibility (1/GPa) = 0.03199162
#
# Stress axis : x y z
#
# Youngs Moduli (GPa) = 27.05582 74.63740 153.58292
#
# Poissons Ratio (x) = 0.46725 0.65166
# Poissons Ratio (y) = 0.16938 0.29730
# Poissons Ratio (z) = 0.11480 0.14448
#
# Static dielectric constant tensor:
#      x y z
#    x 1.616770 0.000000 0.000000 
#    y 0.000000 1.636610 0.000000 
#    z 0.000000 0.000000 1.655770 
# 
# From -- ./inp_files/32310.got.cif
#   From: 2010.05.17/outbox.cif.g08.bks.cpg/sg65_17_cif.got.tgz:32310.got - 2010.06.03 17:01:31.
