data_PCOD9486811
_publ_section_title
;
Structure prediction by ZEFSAII (Michael W. Deem and Ramdas Pophale) SiO2 
 PCOD9486811
Probable space group: C M M M
;
_chemical_formula_sum "Si O2"
_cell_formula_units_Z 72
_cell_length_a 13.058038
_cell_length_b 22.927198
_cell_length_c 11.157836
_cell_angle_alpha 90.000000
_cell_angle_beta 90.000000
_cell_angle_gamma 90.000000
_cell_volume 3340.480058
_symmetry_space_group_name_H-M "C M M M"
_symmetry_group_IT_number 65
_symmetry_cell_setting 'orthorhombic'
loop_
_space_group_symop_operation_xyz
x,y,z
-x,-y,z
x,-y,-z
-x,y,-z
-x,-y,-z
x,y,-z
-x,y,z
x,-y,z
1/2+x,1/2+y,z
1/2-x,1/2-y,z
1/2+x,1/2-y,-z
1/2-x,1/2+y,-z
1/2-x,1/2-y,-z
1/2+x,1/2+y,-z
1/2-x,1/2+y,z
1/2+x,1/2-y,z
loop_
_atom_site_type_symbol
_atom_site_label
_atom_site_fract_x
_atom_site_fract_y
_atom_site_fract_z
Si Si1 0.380328 0.344596 0.193961
Si Si2 0.620581 0.872071 0.638646
Si Si3 0.625584 0.565552 0.000000
Si Si4 0.124810 0.713216 0.137900
Si Si5 0.818896 0.062776 0.638894
O O1 0.500000 0.340873 0.165322
O O2 0.337550 0.395904 0.110672
O O3 0.342486 0.280018 0.166765
O O4 0.367604 0.376053 0.319949
O O5 0.635568 0.849593 0.500000
O O6 0.500000 0.885605 0.649586
O O7 0.649132 0.828172 0.747866
O O8 0.697086 0.926437 0.651417
O O9 0.663439 0.500000 0.000000
O O10 0.500000 0.562864 0.000000
O O11 0.000000 0.713036 0.136134
O O12 0.155348 0.697747 0.000000
O O13 0.842842 0.058205 0.500000
O O14 0.850753 0.000000 0.695187
#
# Coordination Sequence:
#
# PCOD9486811 Si02
#       5
#    16  16   8  16  16
#     4  10  19  33  53  79 110 144 179 215 261 319
#     4   9  19  37  60  82 105 139 183 230 280 330
#     4   9  16  28  48  71  99 139 182 217 247 291
#     4   9  17  33  57  83 113 144 177 222 274 327
#     4  10  22  38  54  77 108 141 183 230 273 324
#
# _framework density 21.553788000000001
#
# number of rings (size 3 to 8) (size 9 to 14) (size 15 to 20)
#    0.000    2.556    1.111    0.667    0.000    4.000 
#    2.000    8.889    0.000    0.000    0.000    3.111 
#    0.000    0.000    0.000    0.000    0.000    0.000 
#
# Total GULP energy -200470.123671 kJ/mol
# GULP energy per Si atom -5568.614546 kJ/mol
# Density = 2.150473 g / cm^3
# Si number density = 21.553788 Si / 1000 Ang^3
#
#
#
# Elastic Constant Matrix: (Units=GPa)
#
#
# Indices 1 2 3 4 5 6 
#
# 1 24.5203 7.1063 -3.7629 0.0000 0.0000 0.0000
# 2 7.1063 117.9220 48.2075 0.0000 0.0000 0.0000
# 3 -3.7629 48.2075 101.1264 0.0000 0.0000 0.0000
# 4 0.0000 0.0000 0.0000 25.0868 0.0000 0.0000
# 5 0.0000 0.0000 0.0000 0.0000 30.3215 0.0000
# 6 0.0000 0.0000 0.0000 0.0000 0.0000 -1.9915
#
#
#
# Elastic Compliance Matrix: (Units=1/GPa)
#
#
# Indices 1 2 3 4 5 6 
#
# 1 0.042470 -0.003981 0.003478 0.000000 0.000000 0.000000
# 2 -0.003981 0.010906 -0.005347 0.000000 0.000000 0.000000
# 3 0.003478 -0.005347 0.012567 0.000000 0.000000 0.000000
# 4 0.000000 0.000000 0.000000 0.039862 0.000000 0.000000
# 5 0.000000 0.000000 0.000000 0.000000 0.032980 0.000000
# 6 0.000000 0.000000 0.000000 0.000000 0.000000 -0.502129
#
#
# Mechanical properties :
#
#
# Convention : Reuss Voigt Hill
#
# Bulk Modulus (GPa) = 18.43562 38.51896 28.47729
# Shear Modulus (GPa) = -14.98967 23.48454 4.24743
#
# Velocity S-wave (km/s) = -2.64001 3.30446 1.40531
# Velocity P-wave (km/s) = 0.84910 5.69817 3.98423
#
# Compressibility (1/GPa) = 0.05424281
#
# Stress axis : x y z
#
# Youngs Moduli (GPa) = 23.54596 91.69226 79.57327
#
# Poissons Ratio (x) = 0.36505 -0.27677
# Poissons Ratio (y) = 0.09374 0.42549
# Poissons Ratio (z) = -0.08190 0.49029
#
# Static dielectric constant tensor:
#      x y z
#    x 1.866510 0.000000 0.000000 
#    y 0.000000 1.760260 0.000000 
#    z 0.000000 0.000000 1.975860 
# 
# From -- ./inp_files/26542.got.cif
#   From: 2010.05.17/outbox.cif.g08.bks.cpg/sg65_14_cif.got.tgz:26542.got - 2010.06.03 17:01:31.
