data_PCOD9486940
_publ_section_title
;
Structure prediction by ZEFSAII (Michael W. Deem and Ramdas Pophale) SiO2 
 PCOD9486940
Probable space group: C M M M
;
_chemical_formula_sum "Si O2"
_cell_formula_units_Z 88
_cell_length_a 8.893903
_cell_length_b 29.622216
_cell_length_c 17.865781
_cell_angle_alpha 90.000000
_cell_angle_beta 90.000000
_cell_angle_gamma 90.000000
_cell_volume 4706.867133
_symmetry_space_group_name_H-M "C M M M"
_symmetry_group_IT_number 65
_symmetry_cell_setting 'orthorhombic'
loop_
_space_group_symop_operation_xyz
x,y,z
-x,-y,z
x,-y,-z
-x,y,-z
-x,-y,-z
x,y,-z
-x,y,z
x,-y,z
1/2+x,1/2+y,z
1/2-x,1/2-y,z
1/2+x,1/2-y,-z
1/2-x,1/2+y,-z
1/2-x,1/2-y,-z
1/2+x,1/2+y,-z
1/2-x,1/2+y,z
1/2+x,1/2-y,z
loop_
_atom_site_type_symbol
_atom_site_label
_atom_site_fract_x
_atom_site_fract_y
_atom_site_fract_z
Si Si1 0.671171 0.825262 0.348322
Si Si2 0.819485 0.000000 0.587793
Si Si3 0.671008 0.929353 0.698118
Si Si4 0.680262 0.296329 0.803861
Si Si5 0.818672 0.898082 0.152000
Si Si6 0.316720 0.447722 0.000000
Si Si7 0.821573 0.200807 0.500000
O O1 0.500000 0.807642 0.355471
O O2 0.664492 0.877660 0.327732
O O3 0.756902 0.801092 0.280547
O O4 0.759742 0.821574 0.425123
O O5 0.757134 0.957819 0.635327
O O6 0.772095 0.000000 0.500000
O O7 0.000000 0.000000 0.589110
O O8 0.500000 0.945991 0.705914
O O9 0.752203 0.926206 0.778375
O O10 0.500000 0.292889 0.803846
O O11 0.750000 0.250000 0.836152
O O12 0.722467 0.344659 0.841722
O O13 0.770276 0.920914 0.074487
O O14 0.000000 0.899834 0.157144
O O15 0.267505 0.500000 0.000000
O O16 0.500000 0.448125 0.000000
O O17 0.750000 0.250000 0.500000
O O18 0.000000 0.202221 0.500000
#
# Coordination Sequence:
#
# PCOD9486940 Si02
#       7
#    16   8  16  16  16   8   8
#     4  10  21  37  55  77 107 143 184 230 285 342
#     4  11  25  41  59  84 113 150 197 243 286 337
#     4  10  22  39  60  84 114 151 188 234 289 345
#     4  10  19  33  54  80 111 149 191 233 280 336
#     4   9  19  36  59  88 119 152 192 237 286 346
#     4   9  18  34  60  91 119 149 190 238 291 346
#     4  12  24  36  52  75 106 141 182 232 283 336
#
# _framework density 18.696088
#
# number of rings (size 3 to 8) (size 9 to 14) (size 15 to 20)
#    0.000    2.000    0.000    3.273    2.545    3.636 
#    0.000    0.909    0.000    0.545    0.000    0.000 
#    0.000    0.000    0.000    0.000    0.000    0.000 
#
# Total GULP energy -245535.499112 kJ/mol
# GULP energy per Si atom -5580.352253 kJ/mol
# Density = 1.865354 g / cm^3
# Si number density = 18.696088 Si / 1000 Ang^3
#
#
#
# Elastic Constant Matrix: (Units=GPa)
#
#
# Indices 1 2 3 4 5 6 
#
# 1 82.9450 37.7772 50.7720 0.0000 0.0000 0.0000
# 2 37.7772 114.0697 70.3027 0.0000 0.0000 0.0000
# 3 50.7720 70.3027 162.4045 0.0000 0.0000 0.0000
# 4 0.0000 0.0000 0.0000 13.9600 0.0000 0.0000
# 5 0.0000 0.0000 0.0000 0.0000 12.0958 0.0000
# 6 0.0000 0.0000 0.0000 0.0000 0.0000 28.4126
#
#
#
# Elastic Compliance Matrix: (Units=1/GPa)
#
#
# Indices 1 2 3 4 5 6 
#
# 1 0.015604 -0.002947 -0.003602 0.000000 0.000000 0.000000
# 2 -0.002947 0.012513 -0.004495 0.000000 0.000000 0.000000
# 3 -0.003602 -0.004495 0.009230 0.000000 0.000000 0.000000
# 4 0.000000 0.000000 0.000000 0.071633 0.000000 0.000000
# 5 0.000000 0.000000 0.000000 0.000000 0.082673 0.000000
# 6 0.000000 0.000000 0.000000 0.000000 0.000000 0.035196
#
#
# Mechanical properties :
#
#
# Convention : Reuss Voigt Hill
#
# Bulk Modulus (GPa) = 65.54629 75.23589 70.39109
# Shear Modulus (GPa) = 19.68321 24.26485 21.97403
#
# Velocity S-wave (km/s) = 3.24821 3.60649 3.43202
# Velocity P-wave (km/s) = 7.01446 7.59416 7.31006
#
# Compressibility (1/GPa) = 0.01525639
#
# Stress axis : x y z
#
# Youngs Moduli (GPa) = 64.08804 79.91532 108.34730
#
# Poissons Ratio (x) = 0.23555 0.39029
# Poissons Ratio (y) = 0.18890 0.48706
# Poissons Ratio (z) = 0.23086 0.35925
#
# Static dielectric constant tensor:
#      x y z
#    x 1.645020 0.000000 0.000000 
#    y 0.000000 1.662930 0.000000 
#    z 0.000000 0.000000 1.591320 
# 
# From -- ./inp_files/50532.got.cif
#   From: 2010.05.17/outbox.cif.g08.bks.cpg/sg65_26_cif.got.tgz:50532.got - 2010.06.03 17:01:31.
