data_PCOD9486797
_publ_section_title
;
Structure prediction by ZEFSAII (Michael W. Deem and Ramdas Pophale) SiO2 
 PCOD9486797
Probable space group: C M M M
;
_chemical_formula_sum "Si O2"
_cell_formula_units_Z 88
_cell_length_a 7.654804
_cell_length_b 29.345728
_cell_length_c 18.722697
_cell_angle_alpha 90.000000
_cell_angle_beta 90.000000
_cell_angle_gamma 90.000000
_cell_volume 4205.787945
_symmetry_space_group_name_H-M "C M M M"
_symmetry_group_IT_number 65
_symmetry_cell_setting 'orthorhombic'
loop_
_space_group_symop_operation_xyz
x,y,z
-x,-y,z
x,-y,-z
-x,y,-z
-x,-y,-z
x,y,-z
-x,y,z
x,-y,z
1/2+x,1/2+y,z
1/2-x,1/2-y,z
1/2+x,1/2-y,-z
1/2-x,1/2+y,-z
1/2-x,1/2-y,-z
1/2+x,1/2+y,-z
1/2-x,1/2+y,z
1/2+x,1/2-y,z
loop_
_atom_site_type_symbol
_atom_site_label
_atom_site_fract_x
_atom_site_fract_y
_atom_site_fract_z
Si Si1 0.208161 0.699171 0.133929
Si Si2 0.204853 0.897107 0.922493
Si Si3 0.788070 0.052733 0.780894
Si Si4 0.214785 0.447372 0.500000
Si Si5 0.205898 0.392739 0.362090
Si Si6 0.290233 0.800661 0.701706
O O1 0.250000 0.750000 0.107620
O O2 0.281450 0.657007 0.090062
O O3 0.274650 0.695874 0.216154
O O4 0.000000 0.694116 0.134632
O O5 0.277286 0.922193 0.852547
O O6 0.000000 0.909158 0.924681
O O7 0.281430 0.908893 0.000000
O O8 0.725950 0.078524 0.710338
O O9 0.000000 0.054647 0.780229
O O10 0.735518 0.000000 0.780152
O O11 0.270554 0.500000 0.500000
O O12 0.275749 0.420655 0.429431
O O13 0.000000 0.448200 0.500000
O O14 0.278610 0.342450 0.345218
O O15 0.000000 0.386927 0.376512
O O16 0.500000 0.804876 0.705524
O O17 0.250000 0.750000 0.675137
#
# Coordination Sequence:
#
# PCOD9486797 Si02
#       6
#    16  16  16   8  16  16
#     4  10  19  33  53  78 106 138 176 218 267 318
#     4  10  21  36  53  75 105 140 178 221 267 316
#     4  10  21  36  55  79 105 137 177 220 268 319
#     4   9  18  32  54  83 111 141 177 219 264 309
#     4  10  19  35  57  82 109 140 179 219 261 311
#     4   9  18  31  51  78 106 137 173 214 258 308
#
# _framework density 20.923546999999999
#
# number of rings (size 3 to 8) (size 9 to 14) (size 15 to 20)
#    0.000    2.273    1.818    1.091    0.000    3.636 
#    0.000    2.727    0.000    1.636    0.000    2.545 
#    0.000    0.000    0.000    0.000    0.000    0.000 
#
# Total GULP energy -245678.975121 kJ/mol
# GULP energy per Si atom -5583.613071 kJ/mol
# Density = 2.087592 g / cm^3
# Si number density = 20.923547 Si / 1000 Ang^3
#
#
#
# Elastic Constant Matrix: (Units=GPa)
#
#
# Indices 1 2 3 4 5 6 
#
# 1 37.2546 -15.6752 -6.8965 0.0000 0.0000 0.0000
# 2 -15.6752 128.9207 75.4126 0.0000 0.0000 0.0000
# 3 -6.8965 75.4126 151.1808 0.0000 0.0000 0.0000
# 4 0.0000 0.0000 0.0000 250.9852 0.0000 0.0000
# 5 0.0000 0.0000 0.0000 0.0000 14.3439 0.0000
# 6 0.0000 0.0000 0.0000 0.0000 0.0000 11.6313
#
#
#
# Elastic Compliance Matrix: (Units=1/GPa)
#
#
# Indices 1 2 3 4 5 6 
#
# 1 0.028328 0.003796 -0.000601 0.000000 0.000000 0.000000
# 2 0.003796 0.011461 -0.005544 0.000000 0.000000 0.000000
# 3 -0.000601 -0.005544 0.009353 0.000000 0.000000 0.000000
# 4 0.000000 0.000000 0.000000 0.003984 0.000000 0.000000
# 5 0.000000 0.000000 0.000000 0.000000 0.069716 0.000000
# 6 0.000000 0.000000 0.000000 0.000000 0.000000 0.085975
#
#
# Mechanical properties :
#
#
# Convention : Reuss Voigt Hill
#
# Bulk Modulus (GPa) = 22.50030 47.00418 34.75224
# Shear Modulus (GPa) = 21.89811 73.02643 47.46227
#
# Velocity S-wave (km/s) = 3.23859 5.91416 4.76790
# Velocity P-wave (km/s) = 4.97610 8.31564 6.85243
#
# Compressibility (1/GPa) = 0.04444385
#
# Stress axis : x y z
#
# Youngs Moduli (GPa) = 35.30039 87.25062 106.92181
#
# Poissons Ratio (x) = -0.33122 0.06430
# Poissons Ratio (y) = -0.13401 0.59277
# Poissons Ratio (z) = 0.02123 0.48371
#
# Static dielectric constant tensor:
#      x y z
#    x 1.771270 0.000000 0.000000 
#    y 0.000000 1.735380 0.000000 
#    z 0.000000 0.000000 1.745320 
# 
# From -- ./inp_files/50370.got.cif
#   From: 2010.05.17/outbox.cif.g08.bks.cpg/sg65_26_cif.got.tgz:50370.got - 2010.06.03 17:01:31.
