data_PCOD9486492
_publ_section_title
;
Structure prediction by ZEFSAII (Michael W. Deem and Ramdas Pophale) SiO2 
 PCOD9486492
Probable space group: C M M M
;
_chemical_formula_sum "Si O2"
_cell_formula_units_Z 82
_cell_length_a 24.174490
_cell_length_b 21.947116
_cell_length_c 7.366063
_cell_angle_alpha 90.000000
_cell_angle_beta 90.000000
_cell_angle_gamma 90.000000
_cell_volume 3908.140862
_symmetry_space_group_name_H-M "C M M M"
_symmetry_group_IT_number 65
_symmetry_cell_setting 'orthorhombic'
loop_
_space_group_symop_operation_xyz
x,y,z
-x,-y,z
x,-y,-z
-x,y,-z
-x,-y,-z
x,y,-z
-x,y,z
x,-y,z
1/2+x,1/2+y,z
1/2-x,1/2-y,z
1/2+x,1/2-y,-z
1/2-x,1/2+y,-z
1/2-x,1/2-y,-z
1/2+x,1/2+y,-z
1/2-x,1/2+y,z
1/2+x,1/2-y,z
loop_
_atom_site_type_symbol
_atom_site_label
_atom_site_fract_x
_atom_site_fract_y
_atom_site_fract_z
Si Si1 0.396719 0.500000 0.721558
Si Si2 0.825836 0.120202 0.281767
Si Si3 0.712448 0.931209 0.718408
Si Si4 0.686911 0.754388 0.211218
Si Si5 0.000000 0.571373 0.777130
Si Si6 0.891177 0.639970 0.204969
Si Si7 0.500000 0.500000 0.000000
O O1 0.404929 0.500000 0.500000
O O2 0.362506 0.438253 0.768030
O O3 0.451659 0.500000 0.840091
O O4 0.824934 0.120431 0.500000
O O5 0.762931 0.110057 0.218017
O O6 0.841060 0.187939 0.222049
O O7 0.707869 0.926016 0.500000
O O8 0.654343 0.913118 0.799260
O O9 0.727814 0.000000 0.760755
O O10 0.750000 0.750000 0.288121
O O11 0.644528 0.804539 0.289812
O O12 0.693952 0.771491 0.000000
O O13 0.946111 0.609466 0.716485
O O14 0.000000 0.500000 0.720910
O O15 0.000000 0.569933 0.000000
O O16 0.906096 0.659601 0.000000
#
# Coordination Sequence:
#
# PCOD9486492 Si02
#       7
#     8  16  16  16   8  16   2
#     4  10  23  45  67  96 131 160 209 270 316 380
#     4  10  20  36  59  85 119 156 192 247 312 369
#     4  10  19  32  52  82 115 147 187 238 306 368
#     4  10  20  33  51  82 122 152 192 250 304 365
#     4   9  18  34  56  77 105 145 200 240 279 347
#     4  10  20  35  53  78 111 154 194 244 300 350
#     4  12  26  44  72  98 112 176 202 242 326 390
#
# _framework density 20.981845
#
# number of rings (size 3 to 8) (size 9 to 14) (size 15 to 20)
#    0.000    2.049    2.927    0.732    1.366    2.341 
#    0.000    1.463    2.146    1.756    0.000    0.000 
#    0.000    0.000    0.000    0.000    0.000    0.000 
#
# Total GULP energy -228444.267154 kJ/mol
# GULP energy per Si atom -5571.811394 kJ/mol
# Density = 2.093409 g / cm^3
# Si number density = 20.981845 Si / 1000 Ang^3
#
#
#
# Elastic Constant Matrix: (Units=GPa)
#
#
# Indices 1 2 3 4 5 6 
#
# 1 168.0250 66.6278 23.0214 0.0000 0.0000 0.0000
# 2 66.6278 145.9394 11.6735 0.0000 0.0000 0.0000
# 3 23.0214 11.6735 80.5096 0.0000 0.0000 0.0000
# 4 0.0000 0.0000 0.0000 15.5076 0.0000 0.0000
# 5 0.0000 0.0000 0.0000 0.0000 7.1120 0.0000
# 6 0.0000 0.0000 0.0000 0.0000 0.0000 27.2650
#
#
#
# Elastic Compliance Matrix: (Units=1/GPa)
#
#
# Indices 1 2 3 4 5 6 
#
# 1 0.007481 -0.003282 -0.001663 0.000000 0.000000 0.000000
# 2 -0.003282 0.008373 -0.000275 0.000000 0.000000 0.000000
# 3 -0.001663 -0.000275 0.012936 0.000000 0.000000 0.000000
# 4 0.000000 0.000000 0.000000 0.064484 0.000000 0.000000
# 5 0.000000 0.000000 0.000000 0.000000 0.140608 0.000000
# 6 0.000000 0.000000 0.000000 0.000000 0.000000 0.036677
#
#
# Mechanical properties :
#
#
# Convention : Reuss Voigt Hill
#
# Bulk Modulus (GPa) = 54.50158 66.34657 60.42407
# Shear Modulus (GPa) = 17.41446 29.52034 23.46740
#
# Velocity S-wave (km/s) = 2.88406 3.75500 3.34797
# Velocity P-wave (km/s) = 6.09281 7.10560 6.61861
#
# Compressibility (1/GPa) = 0.01834809
#
# Stress axis : x y z
#
# Youngs Moduli (GPa) = 133.67305 119.43545 77.30119
#
# Poissons Ratio (x) = 0.39203 0.12857
# Poissons Ratio (y) = 0.43876 0.02129
# Poissons Ratio (z) = 0.22233 0.03290
#
# Static dielectric constant tensor:
#      x y z
#    x 1.725870 0.000000 0.000000 
#    y 0.000000 1.769490 0.000000 
#    z 0.000000 0.000000 1.821610 
# 
# From -- ./inp_files/11659.got.cif
#   From: 2010.05.17/outbox.cif.g08.bks.cpg/sg65_6_cif.got.tgz:11659.got - 2010.06.03 17:01:31.
