data_PCOD9486686
_publ_section_title
;
Structure prediction by ZEFSAII (Michael W. Deem and Ramdas Pophale) SiO2 
 PCOD9486686
Probable space group: C M M M
;
_chemical_formula_sum "Si O2"
_cell_formula_units_Z 88
_cell_length_a 15.416531
_cell_length_b 20.517270
_cell_length_c 13.260430
_cell_angle_alpha 90.000000
_cell_angle_beta 90.000000
_cell_angle_gamma 90.000000
_cell_volume 4194.342022
_symmetry_space_group_name_H-M "C M M M"
_symmetry_group_IT_number 65
_symmetry_cell_setting 'orthorhombic'
loop_
_space_group_symop_operation_xyz
x,y,z
-x,-y,z
x,-y,-z
-x,y,-z
-x,-y,-z
x,y,-z
-x,y,z
x,-y,z
1/2+x,1/2+y,z
1/2-x,1/2-y,z
1/2+x,1/2-y,-z
1/2-x,1/2+y,-z
1/2-x,1/2-y,-z
1/2+x,1/2+y,-z
1/2-x,1/2+y,z
1/2+x,1/2-y,z
loop_
_atom_site_type_symbol
_atom_site_label
_atom_site_fract_x
_atom_site_fract_y
_atom_site_fract_z
Si Si1 0.905898 0.618164 0.883271
Si Si2 0.901546 0.000000 0.877351
Si Si3 0.716749 0.380966 0.121595
Si Si4 0.900138 0.926503 0.621671
Si Si5 0.157106 0.214791 0.615623
Si Si6 0.905863 0.233912 0.824778
O O1 0.812328 0.600905 0.837777
O O2 0.902675 0.696914 0.879482
O O3 0.000000 0.598462 0.839021
O O4 0.906739 0.596445 0.000000
O O5 0.851805 0.935146 0.846206
O O6 0.000000 0.000000 0.844608
O O7 0.901046 0.000000 0.000000
O O8 0.674916 0.311485 0.147508
O O9 0.723928 0.382552 0.000000
O O10 0.902089 0.929631 0.500000
O O11 0.842199 0.862686 0.642130
O O12 0.000000 0.912761 0.653697
O O13 0.875783 0.000000 0.654173
O O14 0.124762 0.220806 0.500000
O O15 0.250000 0.250000 0.619752
O O16 0.100351 0.245323 0.704679
O O17 0.000000 0.203211 0.849581
#
# Coordination Sequence:
#
# PCOD9486686 Si02
#       6
#    16   8  16  16  16  16
#     4   9  18  32  51  76 102 130 169 213 256 305
#     4   9  18  32  49  71 102 138 171 204 249 307
#     4  10  19  33  52  73 102 136 168 209 257 305
#     4   8  14  27  47  68  93 126 161 201 252 308
#     4  10  20  33  49  71 102 138 176 219 267 319
#     4  11  21  32  50  74 100 134 172 213 259 309
#
# _framework density 20.980644000000002
#
# number of rings (size 3 to 8) (size 9 to 14) (size 15 to 20)
#    0.000    2.455    0.000    3.818    0.000    4.364 
#    1.636    0.455    0.000    2.727    0.000    0.000 
#    0.000    2.182    0.000   32.545    0.000    1.091 
#
# Total GULP energy -245402.814986 kJ/mol
# GULP energy per Si atom -5577.336704 kJ/mol
# Density = 2.093289 g / cm^3
# Si number density = 20.980644 Si / 1000 Ang^3
#
#
#
# Elastic Constant Matrix: (Units=GPa)
#
#
# Indices 1 2 3 4 5 6 
#
# 1 163.3977 34.1520 3.6627 0.0000 0.0000 0.0000
# 2 34.1520 70.5599 3.8915 0.0000 0.0000 0.0000
# 3 3.6627 3.8915 55.8553 0.0000 0.0000 0.0000
# 4 0.0000 0.0000 0.0000 22.9415 0.0000 0.0000
# 5 0.0000 0.0000 0.0000 0.0000 14.7676 0.0000
# 6 0.0000 0.0000 0.0000 0.0000 0.0000 30.9197
#
#
#
# Elastic Compliance Matrix: (Units=1/GPa)
#
#
# Indices 1 2 3 4 5 6 
#
# 1 0.006811 -0.003285 -0.000218 0.000000 0.000000 0.000000
# 2 -0.003285 0.015811 -0.000886 0.000000 0.000000 0.000000
# 3 -0.000218 -0.000886 0.017979 0.000000 0.000000 0.000000
# 4 0.000000 0.000000 0.000000 0.043589 0.000000 0.000000
# 5 0.000000 0.000000 0.000000 0.000000 0.067716 0.000000
# 6 0.000000 0.000000 0.000000 0.000000 0.000000 0.032342
#
#
# Mechanical properties :
#
#
# Convention : Reuss Voigt Hill
#
# Bulk Modulus (GPa) = 31.42243 41.46948 36.44596
# Shear Modulus (GPa) = 24.55379 30.26621 27.41000
#
# Velocity S-wave (km/s) = 3.42469 3.80225 3.61839
# Velocity P-wave (km/s) = 5.53600 6.25177 5.90474
#
# Compressibility (1/GPa) = 0.03182440
#
# Stress axis : x y z
#
# Youngs Moduli (GPa) = 146.81069 63.24653 55.61916
#
# Poissons Ratio (x) = 0.20776 0.01211
# Poissons Ratio (y) = 0.48225 0.04929
# Poissons Ratio (z) = 0.03198 0.05605
#
# Static dielectric constant tensor:
#      x y z
#    x 1.805630 0.000000 0.000000 
#    y 0.000000 1.745500 0.000000 
#    z 0.000000 0.000000 1.805450 
# 
# From -- ./inp_files/40202.got.cif
#   From: 2010.05.17/outbox.cif.g08.bks.cpg/sg65_21_cif.got.tgz:40202.got - 2010.06.03 17:01:31.
