data_PCOD9486419
_publ_section_title
;
Structure prediction by ZEFSAII (Michael W. Deem and Ramdas Pophale) SiO2 
 PCOD9486419
Probable space group: C M M M
;
_chemical_formula_sum "Si O2"
_cell_formula_units_Z 88
_cell_length_a 27.999962
_cell_length_b 20.057756
_cell_length_c 7.371568
_cell_angle_alpha 90.000000
_cell_angle_beta 90.000000
_cell_angle_gamma 90.000000
_cell_volume 4139.993525
_symmetry_space_group_name_H-M "C M M M"
_symmetry_group_IT_number 65
_symmetry_cell_setting 'orthorhombic'
loop_
_space_group_symop_operation_xyz
x,y,z
-x,-y,z
x,-y,-z
-x,y,-z
-x,-y,-z
x,y,-z
-x,y,z
x,-y,z
1/2+x,1/2+y,z
1/2-x,1/2-y,z
1/2+x,1/2-y,-z
1/2-x,1/2+y,-z
1/2-x,1/2-y,-z
1/2+x,1/2+y,-z
1/2-x,1/2+y,z
1/2+x,1/2-y,z
loop_
_atom_site_type_symbol
_atom_site_label
_atom_site_fract_x
_atom_site_fract_y
_atom_site_fract_z
Si Si1 0.500000 0.576037 0.214722
Si Si2 0.118275 0.303536 0.722083
Si Si3 0.555213 0.073130 0.720880
Si Si4 0.727225 0.179854 0.279232
Si Si5 0.098354 0.154066 0.284803
Si Si6 0.192705 0.923541 0.721890
O O1 0.500000 0.500000 0.289885
O O2 0.548004 0.616883 0.260417
O O3 0.500000 0.569986 0.000000
O O4 0.117476 0.303010 0.500000
O O5 0.084621 0.363443 0.783076
O O6 0.172357 0.319629 0.777879
O O7 0.101415 0.230182 0.783114
O O8 0.556171 0.073772 0.500000
O O9 0.500000 0.078317 0.774647
O O10 0.573508 0.000000 0.776937
O O11 0.727121 0.178557 0.500000
O O12 0.750000 0.250000 0.224158
O O13 0.761723 0.120099 0.220813
O O14 0.105606 0.159121 0.500000
O O15 0.143418 0.111167 0.216847
O O16 0.192392 0.923430 0.500000
O O17 0.195129 0.000000 0.779873
#
# Coordination Sequence:
#
# PCOD9486419 Si02
#       6
#     8  16  16  16  16  16
#     4  11  25  41  53  69  98 131 160 198 249 299
#     4   9  16  24  40  65  93 125 162 200 238 283
#     4   8  14  23  33  49  81 123 158 189 230 281
#     4   9  14  23  35  54  89 125 152 183 231 280
#     4  10  19  32  52  76  98 125 164 207 246 286
#     4   9  16  25  40  64  93 125 161 199 238 285
#
# _framework density 21.256073000000001
#
# number of rings (size 3 to 8) (size 9 to 14) (size 15 to 20)
#    0.000    2.818    1.818    1.364    1.273    2.182 
#    0.000    3.636    0.000    0.000    0.000    2.545 
#    0.000    1.455    0.000    0.000    0.000    0.000 
#
# Total GULP energy -245656.011609 kJ/mol
# GULP energy per Si atom -5583.091173 kJ/mol
# Density = 2.120769 g / cm^3
# Si number density = 21.256073 Si / 1000 Ang^3
#
#
#
# Elastic Constant Matrix: (Units=GPa)
#
#
# Indices 1 2 3 4 5 6 
#
# 1 170.0438 149.9498 -2.1825 0.0000 0.0000 0.0000
# 2 149.9498 273.5937 8.1463 0.0000 0.0000 0.0000
# 3 -2.1825 8.1463 74.3139 0.0000 0.0000 0.0000
# 4 0.0000 0.0000 0.0000 6.2057 0.0000 0.0000
# 5 0.0000 0.0000 0.0000 0.0000 -270.0045 0.0000
# 6 0.0000 0.0000 0.0000 0.0000 0.0000 45.8432
#
#
#
# Elastic Compliance Matrix: (Units=1/GPa)
#
#
# Indices 1 2 3 4 5 6 
#
# 1 0.011460 -0.006311 0.001028 0.000000 0.000000 0.000000
# 2 -0.006311 0.007143 -0.000968 0.000000 0.000000 0.000000
# 3 0.001028 -0.000968 0.013593 0.000000 0.000000 0.000000
# 4 0.000000 0.000000 0.000000 0.161142 0.000000 0.000000
# 5 0.000000 0.000000 0.000000 0.000000 -0.003704 0.000000
# 6 0.000000 0.000000 0.000000 0.000000 0.000000 0.021813
#
#
# Mechanical properties :
#
#
# Convention : Reuss Voigt Hill
#
# Bulk Modulus (GPa) = 50.78013 92.19761 71.48887
# Shear Modulus (GPa) = 21.69063 -19.45527 1.11768
#
# Velocity S-wave (km/s) = 3.19790 -3.02864 0.72592
# Velocity P-wave (km/s) = 6.13001 5.58915 5.86582
#
# Compressibility (1/GPa) = 0.01969274
#
# Stress axis : x y z
#
# Youngs Moduli (GPa) = 87.26355 139.99808 73.56842
#
# Poissons Ratio (x) = 0.88357 -0.07566
# Poissons Ratio (y) = 0.55075 0.07124
# Poissons Ratio (z) = -0.08974 0.13557
#
# Static dielectric constant tensor:
#      x y z
#    x 1.727950 0.000000 0.000000 
#    y 0.000000 1.740700 0.000000 
#    z 0.000000 0.000000 1.804230 
# 
# From -- ./inp_files/13998.got.cif
#   From: 2010.05.17/outbox.cif.g08.bks.cpg/sg65_7_cif.got.tgz:13998.got - 2010.06.03 17:01:31.
