data_PCOD9486980
_publ_section_title
;
Structure prediction by ZEFSAII (Michael W. Deem and Ramdas Pophale) SiO2 
 PCOD9486980
Probable space group: C M M M
;
_chemical_formula_sum "Si O2"
_cell_formula_units_Z 64
_cell_length_a 18.420139
_cell_length_b 7.861270
_cell_length_c 21.353082
_cell_angle_alpha 90.000000
_cell_angle_beta 90.000000
_cell_angle_gamma 90.000000
_cell_volume 3092.047690
_symmetry_space_group_name_H-M "C M M M"
_symmetry_group_IT_number 65
_symmetry_cell_setting 'orthorhombic'
loop_
_space_group_symop_operation_xyz
x,y,z
-x,-y,z
x,-y,-z
-x,y,-z
-x,-y,-z
x,y,-z
-x,y,z
x,-y,z
1/2+x,1/2+y,z
1/2-x,1/2-y,z
1/2+x,1/2-y,-z
1/2-x,1/2+y,-z
1/2-x,1/2-y,-z
1/2+x,1/2+y,-z
1/2-x,1/2+y,z
1/2+x,1/2-y,z
loop_
_atom_site_type_symbol
_atom_site_label
_atom_site_fract_x
_atom_site_fract_y
_atom_site_fract_z
Si Si1 0.417566 0.203927 0.376506
Si Si2 0.165539 0.705399 0.500000
Si Si3 0.165617 0.202681 0.749779
Si Si4 0.834491 0.204820 0.000000
Si Si5 0.415922 0.291608 0.874579
O O1 0.500000 0.270400 0.373486
O O2 0.374511 0.268916 0.437361
O O3 0.374274 0.238840 0.313044
O O4 0.421922 0.000000 0.383135
O O5 0.160740 0.500000 0.500000
O O6 0.250000 0.750000 0.500000
O O7 0.250000 0.250000 0.749608
O O8 0.125286 0.267791 0.812141
O O9 0.160663 0.000000 0.751200
O O10 0.750000 0.250000 0.000000
O O11 0.874491 0.265802 0.062878
O O12 0.840048 0.000000 0.000000
O O13 0.500000 0.239806 0.874639
O O14 0.414952 0.500000 0.874558
#
# Coordination Sequence:
#
# PCOD9486980 Si02
#       5
#    16   8  16   8  16
#     4  10  21  38  59  82 109 142 180 222 269 320
#     4  10  21  37  57  81 109 142 179 220 266 316
#     4  11  22  36  55  80 111 144 180 223 269 320
#     4  10  19  33  55  79 105 138 176 218 264 316
#     4   9  18  33  54  79 105 137 179 223 265 313
#
# _framework density 20.698259
#
# number of rings (size 3 to 8) (size 9 to 14) (size 15 to 20)
#    0.000    2.000    0.000    3.750    0.000    7.500 
#    0.000    1.250    0.000    6.750    0.000    0.000 
#    0.000    0.000    0.000    0.000    0.000    0.000 
#
# Total GULP energy -178863.071291 kJ/mol
# GULP energy per Si atom -5589.470978 kJ/mol
# Density = 2.065115 g / cm^3
# Si number density = 20.698259 Si / 1000 Ang^3
#
#
#
# Elastic Constant Matrix: (Units=GPa)
#
#
# Indices 1 2 3 4 5 6 
#
# 1 249.3611 2.7139 159.0182 0.0000 0.0000 0.0000
# 2 2.7139 23.4456 8.2342 0.0000 0.0000 0.0000
# 3 159.0182 8.2342 257.8566 0.0000 0.0000 0.0000
# 4 0.0000 0.0000 0.0000 27.7010 0.0000 0.0000
# 5 0.0000 0.0000 0.0000 0.0000 49.1353 0.0000
# 6 0.0000 0.0000 0.0000 0.0000 0.0000 21.7803
#
#
#
# Elastic Compliance Matrix: (Units=1/GPa)
#
#
# Indices 1 2 3 4 5 6 
#
# 1 0.006620 0.000675 -0.004104 0.000000 0.000000 0.000000
# 2 0.000675 0.043205 -0.001796 0.000000 0.000000 0.000000
# 3 -0.004104 -0.001796 0.006466 0.000000 0.000000 0.000000
# 4 0.000000 0.000000 0.000000 0.036100 0.000000 0.000000
# 5 0.000000 0.000000 0.000000 0.000000 0.020352 0.000000
# 6 0.000000 0.000000 0.000000 0.000000 0.000000 0.045913
#
#
# Mechanical properties :
#
#
# Convention : Reuss Voigt Hill
#
# Bulk Modulus (GPa) = 21.81448 96.73287 59.27367
# Shear Modulus (GPa) = 27.11697 43.76979 35.44338
#
# Velocity S-wave (km/s) = 3.62347 4.60353 4.14259
# Velocity P-wave (km/s) = 5.29794 8.66562 7.18196
#
# Compressibility (1/GPa) = 0.04584111
#
# Stress axis : x y z
#
# Youngs Moduli (GPa) = 151.05476 23.14569 154.64405
#
# Poissons Ratio (x) = -0.01563 0.63468
# Poissons Ratio (y) = -0.10197 0.27774
# Poissons Ratio (z) = 0.61995 0.04157
#
# Static dielectric constant tensor:
#      x y z
#    x 1.683240 0.000000 0.000000 
#    y 0.000000 1.767960 0.000000 
#    z 0.000000 0.000000 1.716990 
# 
# From -- ./inp_files/58817.got.cif
#   From: 2010.05.17/outbox.cif.g08.bks.cpg/sg65_30_cif.got.tgz:58817.got - 2010.06.03 17:01:31.
