data_PCOD9486102
_publ_section_title
;
Structure prediction by ZEFSAII (Michael W. Deem and Ramdas Pophale) SiO2 
 PCOD9486102
Probable space group: C M M M
;
_chemical_formula_sum "Si O2"
_cell_formula_units_Z 104
_cell_length_a 8.598840
_cell_length_b 28.790818
_cell_length_c 24.674699
_cell_angle_alpha 90.000000
_cell_angle_beta 90.000000
_cell_angle_gamma 90.000000
_cell_volume 6108.656936
_symmetry_space_group_name_H-M "C M M M"
_symmetry_group_IT_number 65
_symmetry_cell_setting 'orthorhombic'
loop_
_space_group_symop_operation_xyz
x,y,z
-x,-y,z
x,-y,-z
-x,y,-z
-x,-y,-z
x,y,-z
-x,y,z
x,-y,z
1/2+x,1/2+y,z
1/2-x,1/2-y,z
1/2+x,1/2-y,-z
1/2-x,1/2+y,-z
1/2-x,1/2-y,-z
1/2+x,1/2+y,-z
1/2-x,1/2+y,z
1/2+x,1/2-y,z
loop_
_atom_site_type_symbol
_atom_site_label
_atom_site_fract_x
_atom_site_fract_y
_atom_site_fract_z
Si Si1 0.183561 0.133197 0.850228
Si Si2 0.674559 0.500000 0.435105
Si Si3 0.314026 0.098854 0.560973
Si Si4 0.317078 0.199418 0.760398
Si Si5 0.814348 0.299948 0.937032
Si Si6 0.815940 0.380154 0.323998
Si Si7 0.687801 0.553771 0.768837
O O1 0.220997 0.172775 0.806203
O O2 0.259410 0.154934 0.903865
O O3 0.240009 0.085672 0.820358
O O4 0.000000 0.128568 0.859156
O O5 0.500000 0.500000 0.411240
O O6 0.657899 0.500000 0.500000
O O7 0.769751 0.453854 0.423581
O O8 0.251973 0.108898 0.500000
O O9 0.500000 0.103743 0.557476
O O10 0.256664 0.125170 0.614458
O O11 0.500000 0.200464 0.775397
O O12 0.250000 0.250000 0.752606
O O13 0.299615 0.168081 0.707253
O O14 0.750000 0.250000 0.916112
O O15 0.000000 0.297425 0.934448
O O16 0.765183 0.303663 0.000000
O O17 0.739746 0.419624 0.285957
O O18 0.000000 0.391311 0.326418
O O19 0.500000 0.553864 0.769658
O O20 0.740232 0.500000 0.770707
#
# Coordination Sequence:
#
# PCOD9486102 Si02
#       7
#    16   8  16  16  16  16  16
#     4  10  19  32  51  73  98 128 161 195 234 280
#     4   9  17  27  39  59  85 113 145 179 218 265
#     4   9  17  30  46  63  87 119 153 189 230 279
#     4  10  19  32  49  69  94 121 154 195 237 283
#     4  10  20  33  50  74 104 134 163 196 235 279
#     4   9  19  32  47  69  92 119 156 194 234 282
#     4   9  19  34  50  70  96 126 159 196 238 280
#
# _framework density 17.025019
#
# number of rings (size 3 to 8) (size 9 to 14) (size 15 to 20)
#    0.000    2.538    0.000    2.077    1.077    4.000 
#    0.000    0.000    0.000    0.923    0.000    3.231 
#    0.000    0.000    0.000    0.000    0.000    0.462 
#
# Total GULP energy -289519.827737 kJ/mol
# GULP energy per Si atom -5567.688995 kJ/mol
# Density = 1.698627 g / cm^3
# Si number density = 17.025019 Si / 1000 Ang^3
#
#
#
# Elastic Constant Matrix: (Units=GPa)
#
#
# Indices 1 2 3 4 5 6 
#
# 1 9.1055 10.5987 7.0888 0.0000 0.0000 0.0000
# 2 10.5987 96.4407 32.8523 0.0000 0.0000 0.0000
# 3 7.0888 32.8523 81.9380 0.0000 0.0000 0.0000
# 4 0.0000 0.0000 0.0000 43.5932 0.0000 0.0000
# 5 0.0000 0.0000 0.0000 0.0000 16.4317 0.0000
# 6 0.0000 0.0000 0.0000 0.0000 0.0000 17.5594
#
#
#
# Elastic Compliance Matrix: (Units=1/GPa)
#
#
# Indices 1 2 3 4 5 6 
#
# 1 0.128705 -0.011989 -0.006328 0.000000 0.000000 0.000000
# 2 -0.011989 0.013126 -0.004226 0.000000 0.000000 0.000000
# 3 -0.006328 -0.004226 0.014446 0.000000 0.000000 0.000000
# 4 0.000000 0.000000 0.000000 0.022939 0.000000 0.000000
# 5 0.000000 0.000000 0.000000 0.000000 0.060858 0.000000
# 6 0.000000 0.000000 0.000000 0.000000 0.000000 0.056950
#
#
# Mechanical properties :
#
#
# Convention : Reuss Voigt Hill
#
# Bulk Modulus (GPa) = 8.99344 32.06262 20.52803
# Shear Modulus (GPa) = 13.18660 24.64647 18.91653
#
# Velocity S-wave (km/s) = 2.78608 3.80894 3.33694
# Velocity P-wave (km/s) = 3.95520 6.18204 5.18947
#
# Compressibility (1/GPa) = 0.11119210
#
# Stress axis : x y z
#
# Youngs Moduli (GPa) = 7.76971 76.18431 69.22325
#
# Poissons Ratio (x) = 0.91337 0.43804
# Poissons Ratio (y) = 0.09315 0.29251
# Poissons Ratio (z) = 0.04917 0.32192
#
# Static dielectric constant tensor:
#      x y z
#    x 1.595120 0.000000 0.000000 
#    y 0.000000 1.593540 0.000000 
#    z 0.000000 0.000000 1.628940 
# 
# From -- ./inp_files/68222.got.cif
#   From: 2010.05.17/outbox.cif.g08.bks.cpg/sg65_35_cif.got.tgz:68222.got - 2010.06.03 17:01:31.
