data_PCOD9486037
_publ_section_title
;
Structure prediction by ZEFSAII (Michael W. Deem and Ramdas Pophale) SiO2 
 PCOD9486037
Probable space group: C M M M
;
_chemical_formula_sum "Si O2"
_cell_formula_units_Z 88
_cell_length_a 28.461816
_cell_length_b 19.197636
_cell_length_c 7.421929
_cell_angle_alpha 90.000000
_cell_angle_beta 90.000000
_cell_angle_gamma 90.000000
_cell_volume 4055.338914
_symmetry_space_group_name_H-M "C M M M"
_symmetry_group_IT_number 65
_symmetry_cell_setting 'orthorhombic'
loop_
_space_group_symop_operation_xyz
x,y,z
-x,-y,z
x,-y,-z
-x,y,-z
-x,-y,-z
x,y,-z
-x,y,z
x,-y,z
1/2+x,1/2+y,z
1/2-x,1/2-y,z
1/2+x,1/2-y,-z
1/2-x,1/2+y,-z
1/2-x,1/2-y,-z
1/2+x,1/2+y,-z
1/2-x,1/2+y,z
1/2+x,1/2-y,z
loop_
_atom_site_type_symbol
_atom_site_label
_atom_site_fract_x
_atom_site_fract_y
_atom_site_fract_z
Si Si1 0.783442 0.920123 0.217664
Si Si2 0.114951 0.133644 0.779369
Si Si3 0.054147 0.000000 0.780226
Si Si4 0.444863 0.923527 0.219215
Si Si5 0.212092 0.304608 0.291160
Si Si6 0.605831 0.212946 0.794743
O O1 0.831404 0.882012 0.276469
O O2 0.737630 0.878642 0.278060
O O3 0.784340 0.000000 0.277334
O O4 0.783614 0.919903 0.000000
O O5 0.082057 0.069452 0.724320
O O6 0.098953 0.209871 0.715992
O O7 0.115166 0.134991 0.000000
O O8 0.000000 0.000000 0.722773
O O9 0.054566 0.000000 0.000000
O O10 0.500000 0.918328 0.262242
O O11 0.418064 0.855359 0.287300
O O12 0.427770 0.000000 0.280244
O O13 0.440925 0.924089 0.000000
O O14 0.204323 0.286681 0.500000
O O15 0.250000 0.250000 0.214909
O O16 0.161670 0.300022 0.201726
O O17 0.587866 0.217330 0.000000
#
# Coordination Sequence:
#
# PCOD9486037 Si02
#       6
#    16  16   8  16  16  16
#     4  10  19  33  54  74  98 135 178 214 252 308
#     4   9  16  27  44  69  98 131 168 207 251 303
#     4   9  16  26  42  70 109 139 161 207 272 319
#     4   8  15  29  49  75 106 133 160 203 256 306
#     4  11  23  36  50  73 106 139 174 216 264 309
#     4  10  19  31  53  78 102 134 174 214 255 308
#
# _framework density 21.699788999999999
#
# number of rings (size 3 to 8) (size 9 to 14) (size 15 to 20)
#    0.000    2.455    2.727    1.091    0.000    2.545 
#    0.000    5.455    0.000    0.545    0.000    1.273 
#    0.000    3.636    0.000    0.000    0.000    0.000 
#
# Total GULP energy -245702.992618 kJ/mol
# GULP energy per Si atom -5584.158923 kJ/mol
# Density = 2.165040 g / cm^3
# Si number density = 21.699789 Si / 1000 Ang^3
#
#
#
# Elastic Constant Matrix: (Units=GPa)
#
#
# Indices 1 2 3 4 5 6 
#
# 1 78.3625 76.6014 -4.5334 0.0000 0.0000 0.0000
# 2 76.6014 235.3482 3.7230 0.0000 0.0000 0.0000
# 3 -4.5334 3.7230 71.2815 0.0000 0.0000 0.0000
# 4 0.0000 0.0000 0.0000 -13.1865 0.0000 0.0000
# 5 0.0000 0.0000 0.0000 0.0000 -44.0347 0.0000
# 6 0.0000 0.0000 0.0000 0.0000 0.0000 44.2918
#
#
#
# Elastic Compliance Matrix: (Units=1/GPa)
#
#
# Indices 1 2 3 4 5 6 
#
# 1 0.018880 -0.006169 0.001523 0.000000 0.000000 0.000000
# 2 -0.006169 0.006268 -0.000720 0.000000 0.000000 0.000000
# 3 0.001523 -0.000720 0.014163 0.000000 0.000000 0.000000
# 4 0.000000 0.000000 0.000000 -0.075835 0.000000 0.000000
# 5 0.000000 0.000000 0.000000 0.000000 -0.022709 0.000000
# 6 0.000000 0.000000 0.000000 0.000000 0.000000 0.022578
#
#
# Mechanical properties :
#
#
# Convention : Reuss Voigt Hill
#
# Bulk Modulus (GPa) = 34.98996 59.61936 47.30466
# Shear Modulus (GPa) = -304.93288 18.02752 -143.45268
#
# Velocity S-wave (km/s) = -11.86712 2.88543 -8.13950
# Velocity P-wave (km/s) = 13.10007 6.21573 8.15403
#
# Compressibility (1/GPa) = 0.02857963
#
# Stress axis : x y z
#
# Youngs Moduli (GPa) = 52.96670 159.53194 70.60488
#
# Poissons Ratio (x) = 0.98417 -0.10753
# Poissons Ratio (y) = 0.32676 0.05082
# Poissons Ratio (z) = -0.08066 0.11482
#
# Static dielectric constant tensor:
#      x y z
#    x 1.723960 0.000000 0.000000 
#    y 0.000000 1.801200 0.000000 
#    z 0.000000 0.000000 1.833190 
# 
# From -- ./inp_files/12227.got.cif
#   From: 2010.05.17/outbox.cif.g08.bks.cpg/sg65_7_cif.got.tgz:12227.got - 2010.06.03 17:01:31.
