data_PCOD9486215
_publ_section_title
;
Structure prediction by ZEFSAII (Michael W. Deem and Ramdas Pophale) SiO2 
 PCOD9486215
Probable space group: C M M M
;
_chemical_formula_sum "Si O2"
_cell_formula_units_Z 104
_cell_length_a 14.115339
_cell_length_b 21.580172
_cell_length_c 17.725836
_cell_angle_alpha 90.000000
_cell_angle_beta 90.000000
_cell_angle_gamma 90.000000
_cell_volume 5399.492490
_symmetry_space_group_name_H-M "C M M M"
_symmetry_group_IT_number 65
_symmetry_cell_setting 'orthorhombic'
loop_
_space_group_symop_operation_xyz
x,y,z
-x,-y,z
x,-y,-z
-x,y,-z
-x,-y,-z
x,y,-z
-x,y,z
x,-y,z
1/2+x,1/2+y,z
1/2-x,1/2-y,z
1/2+x,1/2-y,-z
1/2-x,1/2+y,-z
1/2-x,1/2-y,-z
1/2+x,1/2+y,-z
1/2-x,1/2+y,z
1/2+x,1/2-y,z
loop_
_atom_site_type_symbol
_atom_site_label
_atom_site_fract_x
_atom_site_fract_y
_atom_site_fract_z
Si Si1 0.885737 0.132294 0.759830
Si Si2 0.385451 0.900463 0.207377
Si Si3 0.242954 0.430478 0.652724
Si Si4 0.384675 0.571778 0.916810
Si Si5 0.674270 0.806310 0.417413
Si Si6 0.391713 0.771009 0.743236
Si Si7 0.384685 0.000000 0.914495
O O1 0.837558 0.088167 0.698393
O O2 0.858000 0.110338 0.843453
O O3 0.849442 0.202528 0.747210
O O4 0.000000 0.129660 0.752555
O O5 0.500000 0.903096 0.214227
O O6 0.337681 0.928399 0.282056
O O7 0.355507 0.828416 0.207379
O O8 0.357554 0.939970 0.134441
O O9 0.247709 0.500000 0.621204
O O10 0.220966 0.373821 0.596351
O O11 0.500000 0.572146 0.917955
O O12 0.355905 0.500000 0.907357
O O13 0.353179 0.593439 0.000000
O O14 0.627785 0.805540 0.500000
O O15 0.750000 0.750000 0.416996
O O16 0.612378 0.793411 0.343399
O O17 0.500000 0.762505 0.767256
O O18 0.500000 0.000000 0.917346
O O19 0.349850 0.000000 0.000000
#
# Coordination Sequence:
#
# PCOD9486215 Si02
#       7
#    16  16  16  16  16  16   8
#     4  10  19  32  50  76 108 142 182 220 253 309
#     4   9  18  33  52  76 103 133 174 223 267 314
#     4  11  21  33  55  81 105 139 177 215 268 315
#     4   8  14  26  44  65  94 134 174 214 257 292
#     4  10  20  36  55  76 102 135 171 216 265 315
#     4   9  18  33  54  78 103 136 175 216 263 316
#     4   9  16  30  52  76 106 142 176 219 276 330
#
# _framework density 19.261068999999999
#
# number of rings (size 3 to 8) (size 9 to 14) (size 15 to 20)
#    0.000    2.538    2.308    0.923    0.000    1.538 
#    0.000    1.538    0.000    5.077    0.000    8.615 
#    0.000    0.000    0.000    0.000    0.000    0.000 
#
# Total GULP energy -289865.800800 kJ/mol
# GULP energy per Si atom -5574.342323 kJ/mol
# Density = 1.921723 g / cm^3
# Si number density = 19.261069 Si / 1000 Ang^3
#
#
#
# Elastic Constant Matrix: (Units=GPa)
#
#
# Indices 1 2 3 4 5 6 
#
# 1 62.7569 17.6764 4.5549 0.0000 0.0000 0.0000
# 2 17.6764 134.0395 32.6998 0.0000 0.0000 0.0000
# 3 4.5549 32.6998 92.9981 0.0000 0.0000 0.0000
# 4 0.0000 0.0000 0.0000 -16.5181 0.0000 0.0000
# 5 0.0000 0.0000 0.0000 0.0000 17.4250 0.0000
# 6 0.0000 0.0000 0.0000 0.0000 0.0000 20.3290
#
#
#
# Elastic Compliance Matrix: (Units=1/GPa)
#
#
# Indices 1 2 3 4 5 6 
#
# 1 0.016549 -0.002171 -0.000047 0.000000 0.000000 0.000000
# 2 -0.002171 0.008445 -0.002863 0.000000 0.000000 0.000000
# 3 -0.000047 -0.002863 0.011762 0.000000 0.000000 0.000000
# 4 0.000000 0.000000 0.000000 -0.060540 0.000000 0.000000
# 5 0.000000 0.000000 0.000000 0.000000 0.057389 0.000000
# 6 0.000000 0.000000 0.000000 0.000000 0.000000 0.049191
#
#
# Mechanical properties :
#
#
# Convention : Reuss Voigt Hill
#
# Bulk Modulus (GPa) = 37.60253 44.40632 41.00442
# Shear Modulus (GPa) = 49.10454 19.90476 34.50465
#
# Velocity S-wave (km/s) = 5.05466 3.21817 4.23711
# Velocity P-wave (km/s) = 7.32332 6.07568 6.72848
#
# Compressibility (1/GPa) = 0.02659396
#
# Stress axis : x y z
#
# Youngs Moduli (GPa) = 60.42518 118.40951 85.01977
#
# Poissons Ratio (x) = 0.25706 0.00402
# Poissons Ratio (y) = 0.13118 0.24343
# Poissons Ratio (z) = 0.00285 0.33903
#
# Static dielectric constant tensor:
#      x y z
#    x 1.724430 0.000000 0.000000 
#    y 0.000000 1.695150 0.000000 
#    z 0.000000 0.000000 1.643140 
# 
# From -- ./inp_files/53310.got.cif
#   From: 2010.05.17/outbox.cif.g08.bks.cpg/sg65_27_cif.got.tgz:53310.got - 2010.06.03 17:01:31.
