data_PCOD9486365
_publ_section_title
;
Structure prediction by ZEFSAII (Michael W. Deem and Ramdas Pophale) SiO2 
 PCOD9486365
Probable space group: C M M M
;
_chemical_formula_sum "Si O2"
_cell_formula_units_Z 104
_cell_length_a 20.223154
_cell_length_b 28.367550
_cell_length_c 9.882296
_cell_angle_alpha 90.000000
_cell_angle_beta 90.000000
_cell_angle_gamma 90.000000
_cell_volume 5669.288735
_symmetry_space_group_name_H-M "C M M M"
_symmetry_group_IT_number 65
_symmetry_cell_setting 'orthorhombic'
loop_
_space_group_symop_operation_xyz
x,y,z
-x,-y,z
x,-y,-z
-x,y,-z
-x,-y,-z
x,y,-z
-x,y,z
x,-y,z
1/2+x,1/2+y,z
1/2-x,1/2-y,z
1/2+x,1/2-y,-z
1/2-x,1/2+y,-z
1/2-x,1/2-y,-z
1/2+x,1/2+y,-z
1/2-x,1/2+y,z
1/2+x,1/2-y,z
loop_
_atom_site_type_symbol
_atom_site_label
_atom_site_fract_x
_atom_site_fract_y
_atom_site_fract_z
Si Si1 0.921733 0.194450 0.847512
Si Si2 0.232687 0.500000 0.348058
Si Si3 0.578902 0.224617 0.653019
Si Si4 0.106299 0.000000 0.343707
Si Si5 0.230921 0.581777 0.849418
Si Si6 0.896554 0.635707 0.842989
Si Si7 0.611248 0.412144 0.157247
Si Si8 0.500000 0.945608 0.837259
O O1 0.893843 0.231057 0.738711
O O2 0.914201 0.139793 0.808383
O O3 0.000000 0.203879 0.857103
O O4 0.893707 0.200202 0.000000
O O5 0.208706 0.500000 0.500000
O O6 0.313153 0.500000 0.347974
O O7 0.211515 0.454687 0.265203
O O8 0.605572 0.221063 0.500000
O O9 0.500000 0.231531 0.640906
O O10 0.587962 0.177741 0.741710
O O11 0.088205 0.046624 0.257923
O O12 0.083473 0.000000 0.500000
O O13 0.181547 0.625256 0.839575
O O14 0.308779 0.591180 0.836787
O O15 0.220680 0.560988 0.000000
O O16 0.936962 0.587985 0.804997
O O17 0.914647 0.647109 0.000000
O O18 0.593563 0.422873 0.000000
O O19 0.500000 0.000000 0.784678
O O20 0.500000 0.949854 0.000000
#
# Coordination Sequence:
#
# PCOD9486365 Si02
#       8
#    16   8  16   8  16  16  16   8
#     4   9  18  33  55  77  96 123 164 206 247 294
#     4   9  17  29  45  67  95 131 169 201 235 282
#     4  10  20  34  52  73  98 127 162 205 250 294
#     4   9  17  29  48  72 100 135 168 194 232 292
#     4   9  18  30  48  72  97 127 164 203 244 289
#     4  10  19  32  52  73  97 130 167 203 244 294
#     4   9  17  32  51  74 102 129 161 206 247 285
#     4   9  18  30  47  73 101 127 161 206 245 280
#
# _framework density 18.344453000000001
#
# number of rings (size 3 to 8) (size 9 to 14) (size 15 to 20)
#    0.000    2.692    0.769    0.923    1.077    3.692 
#    0.000    1.154    0.000    7.385    0.000    0.000 
#    0.000    0.000    0.000    0.000    0.000    0.000 
#
# Total GULP energy -289624.350672 kJ/mol
# GULP energy per Si atom -5569.699051 kJ/mol
# Density = 1.830270 g / cm^3
# Si number density = 18.344453 Si / 1000 Ang^3
#
#
#
# Elastic Constant Matrix: (Units=GPa)
#
#
# Indices 1 2 3 4 5 6 
#
# 1 19.3362 5.0863 14.8745 0.0000 0.0000 0.0000
# 2 5.0863 129.8149 92.1387 0.0000 0.0000 0.0000
# 3 14.8745 92.1387 136.1421 0.0000 0.0000 0.0000
# 4 0.0000 0.0000 0.0000 36.0060 0.0000 0.0000
# 5 0.0000 0.0000 0.0000 0.0000 11.3016 0.0000
# 6 0.0000 0.0000 0.0000 0.0000 0.0000 1.8683
#
#
#
# Elastic Compliance Matrix: (Units=1/GPa)
#
#
# Indices 1 2 3 4 5 6 
#
# 1 0.057659 0.004257 -0.009181 0.000000 0.000000 0.000000
# 2 0.004257 0.015139 -0.010711 0.000000 0.000000 0.000000
# 3 -0.009181 -0.010711 0.015597 0.000000 0.000000 0.000000
# 4 0.000000 0.000000 0.000000 0.027773 0.000000 0.000000
# 5 0.000000 0.000000 0.000000 0.000000 0.088483 0.000000
# 6 0.000000 0.000000 0.000000 0.000000 0.000000 0.535249
#
#
# Mechanical properties :
#
#
# Convention : Reuss Voigt Hill
#
# Bulk Modulus (GPa) = 17.50515 56.61024 37.05770
# Shear Modulus (GPa) = 6.32743 21.38143 13.85443
#
# Velocity S-wave (km/s) = 1.85923 3.41772 2.75114
# Velocity P-wave (km/s) = 3.76459 6.81917 5.50787
#
# Compressibility (1/GPa) = 0.05712605
#
# Stress axis : x y z
#
# Youngs Moduli (GPa) = 17.34333 66.05642 64.11437
#
# Poissons Ratio (x) = -0.28121 0.58862
# Poissons Ratio (y) = -0.07383 0.68671
# Poissons Ratio (z) = 0.15923 0.70751
#
# Static dielectric constant tensor:
#      x y z
#    x 1.653220 0.000000 0.000000 
#    y 0.000000 1.618130 0.000000 
#    z 0.000000 0.000000 1.642730 
# 
# From -- ./inp_files/12873.got.cif
#   From: 2010.05.17/outbox.cif.g08.bks.cpg/sg65_7_cif.got.tgz:12873.got - 2010.06.03 17:01:31.
