data_PCOD9486551
_publ_section_title
;
Structure prediction by ZEFSAII (Michael W. Deem and Ramdas Pophale) SiO2 
 PCOD9486551
Probable space group: C M M M
;
_chemical_formula_sum "Si O2"
_cell_formula_units_Z 120
_cell_length_a 19.690513
_cell_length_b 14.561022
_cell_length_c 20.315283
_cell_angle_alpha 90.000000
_cell_angle_beta 90.000000
_cell_angle_gamma 90.000000
_cell_volume 5824.675908
_symmetry_space_group_name_H-M "C M M M"
_symmetry_group_IT_number 65
_symmetry_cell_setting 'orthorhombic'
loop_
_space_group_symop_operation_xyz
x,y,z
-x,-y,z
x,-y,-z
-x,y,-z
-x,-y,-z
x,y,-z
-x,y,z
x,-y,z
1/2+x,1/2+y,z
1/2-x,1/2-y,z
1/2+x,1/2-y,-z
1/2-x,1/2+y,-z
1/2-x,1/2-y,-z
1/2+x,1/2+y,-z
1/2-x,1/2+y,z
1/2+x,1/2-y,z
loop_
_atom_site_type_symbol
_atom_site_label
_atom_site_fract_x
_atom_site_fract_y
_atom_site_fract_z
Si Si1 0.804729 0.673912 0.297485
Si Si2 0.077043 0.888176 0.000000
Si Si3 0.201674 0.604645 0.842219
Si Si4 0.852663 0.112282 0.136113
Si Si5 0.727727 0.389433 0.572474
Si Si6 0.575018 0.393016 0.600965
Si Si7 0.424174 0.112309 0.923643
Si Si8 0.577129 0.303399 0.263877
O O1 0.750000 0.750000 0.276500
O O2 0.803982 0.604438 0.236713
O O3 0.775856 0.641341 0.367647
O O4 0.877609 0.722310 0.295094
O O5 0.113893 0.861381 0.067074
O O6 0.000000 0.854769 0.000000
O O7 0.075850 0.000000 0.000000
O O8 0.203581 0.500000 0.866354
O O9 0.274485 0.643184 0.861967
O O10 0.135078 0.646730 0.875806
O O11 0.890376 0.156420 0.198122
O O12 0.855564 0.000000 0.142542
O O13 0.753416 0.363035 0.500000
O O14 0.724731 0.500000 0.575961
O O15 0.648886 0.356126 0.578365
O O16 0.500000 0.354530 0.580638
O O17 0.574131 0.500000 0.582271
O O18 0.577404 0.381350 0.679701
O O19 0.500000 0.144422 0.905741
O O20 0.426270 0.000000 0.920332
O O21 0.410751 0.135658 0.000000
O O22 0.500000 0.274206 0.252512
#
# Coordination Sequence:
#
# PCOD9486551 Si02
#       8
#    16   8  16  16  16  16  16  16
#     4  12  22  38  56  82 114 147 185 233 272 328
#     4   9  18  30  46  73 109 147 188 233 275 325
#     4  10  20  33  56  82 108 145 187 235 285 332
#     4  10  19  32  53  82 112 147 192 236 280 335
#     4  10  21  38  62  88 114 148 185 223 276 338
#     4   9  17  31  53  84 119 150 184 224 266 322
#     4   8  15  29  51  80 110 140 183 241 295 334
#     4  11  22  36  55  79 110 151 190 231 284 337
#
# _framework density 20.602004999999998
#
# number of rings (size 3 to 8) (size 9 to 14) (size 15 to 20)
#    0.000    2.067    2.667    1.600    0.933    4.533 
#    0.000    1.333    1.467    2.800    0.000    0.933 
#    0.000    0.000    0.000    0.000    0.000    0.000 
#
# Total GULP energy -334765.116845 kJ/mol
# GULP energy per Si atom -5579.418614 kJ/mol
# Density = 2.055511 g / cm^3
# Si number density = 20.602005 Si / 1000 Ang^3
#
#
#
# Elastic Constant Matrix: (Units=GPa)
#
#
# Indices 1 2 3 4 5 6 
#
# 1 198.3013 28.9046 105.0452 0.0000 0.0000 0.0000
# 2 28.9046 42.7311 18.5026 0.0000 0.0000 0.0000
# 3 105.0452 18.5026 170.0531 0.0000 0.0000 0.0000
# 4 0.0000 0.0000 0.0000 8.2302 0.0000 0.0000
# 5 0.0000 0.0000 0.0000 0.0000 19.7818 0.0000
# 6 0.0000 0.0000 0.0000 0.0000 0.0000 24.1887
#
#
#
# Elastic Compliance Matrix: (Units=1/GPa)
#
#
# Indices 1 2 3 4 5 6 
#
# 1 0.007942 -0.003409 -0.004535 0.000000 0.000000 0.000000
# 2 -0.003409 0.026022 -0.000726 0.000000 0.000000 0.000000
# 3 -0.004535 -0.000726 0.008761 0.000000 0.000000 0.000000
# 4 0.000000 0.000000 0.000000 0.121504 0.000000 0.000000
# 5 0.000000 0.000000 0.000000 0.000000 0.050552 0.000000
# 6 0.000000 0.000000 0.000000 0.000000 0.000000 0.041342
#
#
# Mechanical properties :
#
#
# Convention : Reuss Voigt Hill
#
# Bulk Modulus (GPa) = 39.39157 79.55447 59.47302
# Shear Modulus (GPa) = 17.73532 27.68233 22.70883
#
# Velocity S-wave (km/s) = 2.93721 3.66959 3.32364
# Velocity P-wave (km/s) = 5.53758 7.52684 6.60750
#
# Compressibility (1/GPa) = 0.02538614
#
# Stress axis : x y z
#
# Youngs Moduli (GPa) = 125.91286 38.42895 114.14357
#
# Poissons Ratio (x) = 0.13099 0.51765
# Poissons Ratio (y) = 0.42917 0.08285
# Poissons Ratio (z) = 0.57102 0.02789
#
# Static dielectric constant tensor:
#      x y z
#    x 1.756170 0.000000 0.000000 
#    y 0.000000 1.788590 0.000000 
#    z 0.000000 0.000000 1.718960 
# 
# From -- ./inp_files/64003.got.cif
#   From: 2010.05.17/outbox.cif.g08.bks.cpg/sg65_33_cif.got.tgz:64003.got - 2010.06.03 17:01:31.
