data_PCOD9486051
_publ_section_title
;
Structure prediction by ZEFSAII (Michael W. Deem and Ramdas Pophale) SiO2 
 PCOD9486051
Probable space group: C M M M
;
_chemical_formula_sum "Si O2"
_cell_formula_units_Z 104
_cell_length_a 21.804132
_cell_length_b 14.276010
_cell_length_c 19.536196
_cell_angle_alpha 90.000000
_cell_angle_beta 90.000000
_cell_angle_gamma 90.000000
_cell_volume 6081.149073
_symmetry_space_group_name_H-M "C M M M"
_symmetry_group_IT_number 65
_symmetry_cell_setting 'orthorhombic'
loop_
_space_group_symop_operation_xyz
x,y,z
-x,-y,z
x,-y,-z
-x,y,-z
-x,-y,-z
x,y,-z
-x,y,z
x,-y,z
1/2+x,1/2+y,z
1/2-x,1/2-y,z
1/2+x,1/2-y,-z
1/2-x,1/2+y,-z
1/2-x,1/2-y,-z
1/2+x,1/2+y,-z
1/2-x,1/2+y,z
1/2+x,1/2-y,z
loop_
_atom_site_type_symbol
_atom_site_label
_atom_site_fract_x
_atom_site_fract_y
_atom_site_fract_z
Si Si1 0.573617 0.392172 0.920726
Si Si2 0.237242 0.892896 0.629690
Si Si3 0.368560 0.108012 0.422682
Si Si4 0.500000 0.612037 0.579910
Si Si5 0.613654 0.290395 0.347424
Si Si6 0.648677 0.287380 0.809424
Si Si7 0.274396 0.890855 0.212573
O O1 0.500000 0.386349 0.916809
O O2 0.590596 0.500000 0.902831
O O3 0.604124 0.319794 0.869170
O O4 0.591234 0.376279 0.000000
O O5 0.294466 0.882197 0.579636
O O6 0.179589 0.825129 0.623469
O O7 0.266943 0.880134 0.705157
O O8 0.214418 0.000000 0.625597
O O9 0.390064 0.125925 0.500000
O O10 0.395020 0.183351 0.370547
O O11 0.381743 0.000000 0.404428
O O12 0.500000 0.500000 0.581632
O O13 0.500000 0.641693 0.500000
O O14 0.559759 0.650212 0.618815
O O15 0.618846 0.301335 0.265664
O O16 0.673632 0.180976 0.812020
O O17 0.709107 0.353123 0.814142
O O18 0.284529 0.000000 0.197127
#
# Coordination Sequence:
#
# PCOD9486051 Si02
#       7
#    16  16  16   8  16  16  16
#     4   9  19  36  57  82 113 145 175 214 260 302
#     4   9  17  31  50  74 104 135 171 216 266 316
#     4  10  20  33  52  77 102 133 176 225 272 315
#     4  11  26  42  51  67 100 138 171 212 273 331
#     4  11  21  35  53  75 101 137 177 219 262 312
#     4  10  19  31  55  84 105 138 181 214 257 313
#     4   9  17  31  50  78 115 142 167 213 265 312
#
# _framework density 17.102031
#
# number of rings (size 3 to 8) (size 9 to 14) (size 15 to 20)
#    0.000    2.231    1.538    2.308    1.077    3.692 
#    0.000    3.462    0.000    3.231    0.000    1.077 
#    0.000    0.000    0.000    0.000    0.000    0.000 
#
# Total GULP energy -290060.743014 kJ/mol
# GULP energy per Si atom -5578.091212 kJ/mol
# Density = 1.706311 g / cm^3
# Si number density = 17.102031 Si / 1000 Ang^3
#
#
#
# Elastic Constant Matrix: (Units=GPa)
#
#
# Indices 1 2 3 4 5 6 
#
# 1 43.1134 42.4144 37.7568 0.0000 0.0000 0.0000
# 2 42.4144 123.5695 52.8626 0.0000 0.0000 0.0000
# 3 37.7568 52.8626 70.5765 0.0000 0.0000 0.0000
# 4 0.0000 0.0000 0.0000 25.4629 0.0000 0.0000
# 5 0.0000 0.0000 0.0000 0.0000 18.8123 0.0000
# 6 0.0000 0.0000 0.0000 0.0000 0.0000 30.1239
#
#
#
# Elastic Compliance Matrix: (Units=1/GPa)
#
#
# Indices 1 2 3 4 5 6 
#
# 1 0.048696 -0.008196 -0.019912 0.000000 0.000000 0.000000
# 2 -0.008196 0.013288 -0.005568 0.000000 0.000000 0.000000
# 3 -0.019912 -0.005568 0.028992 0.000000 0.000000 0.000000
# 4 0.000000 0.000000 0.000000 0.039273 0.000000 0.000000
# 5 0.000000 0.000000 0.000000 0.000000 0.053157 0.000000
# 6 0.000000 0.000000 0.000000 0.000000 0.000000 0.033196
#
#
# Mechanical properties :
#
#
# Convention : Reuss Voigt Hill
#
# Bulk Modulus (GPa) = 42.33119 55.92524 49.12821
# Shear Modulus (GPa) = 17.13328 21.82817 19.48073
#
# Velocity S-wave (km/s) = 3.16860 3.57648 3.37870
# Velocity P-wave (km/s) = 6.18001 7.05881 6.63398
#
# Compressibility (1/GPa) = 0.02362325
#
# Stress axis : x y z
#
# Youngs Moduli (GPa) = 20.53544 75.25647 34.49217
#
# Poissons Ratio (x) = 0.61682 0.68682
# Poissons Ratio (y) = 0.16831 0.19205
# Poissons Ratio (z) = 0.40891 0.41903
#
# Static dielectric constant tensor:
#      x y z
#    x 1.574110 0.000000 0.000000 
#    y 0.000000 1.598650 0.000000 
#    z 0.000000 0.000000 1.573570 
# 
# From -- ./inp_files/64679.got.cif
#   From: 2010.05.17/outbox.cif.g08.bks.cpg/sg65_33_cif.got.tgz:64679.got - 2010.06.03 17:01:31.
