data_PCOD9486047
_publ_section_title
;
Structure prediction by ZEFSAII (Michael W. Deem and Ramdas Pophale) SiO2 
 PCOD9486047
Probable space group: C M M M
;
_chemical_formula_sum "Si O2"
_cell_formula_units_Z 104
_cell_length_a 20.653591
_cell_length_b 17.451920
_cell_length_c 15.137306
_cell_angle_alpha 90.000000
_cell_angle_beta 90.000000
_cell_angle_gamma 90.000000
_cell_volume 5456.163504
_symmetry_space_group_name_H-M "C M M M"
_symmetry_group_IT_number 65
_symmetry_cell_setting 'orthorhombic'
loop_
_space_group_symop_operation_xyz
x,y,z
-x,-y,z
x,-y,-z
-x,y,-z
-x,-y,-z
x,y,-z
-x,y,z
x,-y,z
1/2+x,1/2+y,z
1/2-x,1/2-y,z
1/2+x,1/2-y,-z
1/2-x,1/2+y,-z
1/2-x,1/2-y,-z
1/2+x,1/2+y,-z
1/2-x,1/2+y,z
1/2+x,1/2-y,z
loop_
_atom_site_type_symbol
_atom_site_label
_atom_site_fract_x
_atom_site_fract_y
_atom_site_fract_z
Si Si1 0.263122 0.412467 0.907111
Si Si2 0.315149 0.696425 0.761386
Si Si3 0.073557 0.594217 0.500000
Si Si4 0.689754 0.592004 0.395250
Si Si5 0.882424 0.412703 0.852341
Si Si6 0.426639 0.754469 0.102672
Si Si7 0.338565 0.908384 0.655789
O O1 0.285003 0.500000 0.905848
O O2 0.288105 0.372147 0.821098
O O3 0.185639 0.412857 0.903221
O O4 0.283270 0.375621 0.000000
O O5 0.250000 0.750000 0.748380
O O6 0.340387 0.655712 0.671139
O O7 0.372232 0.729509 0.825168
O O8 0.075230 0.500000 0.500000
O O9 0.111231 0.622809 0.585309
O O10 0.000000 0.617570 0.500000
O O11 0.676916 0.602874 0.500000
O O12 0.677790 0.500000 0.375883
O O13 0.766026 0.607147 0.375732
O O14 0.907862 0.500000 0.851456
O O15 0.926257 0.346878 0.891368
O O16 0.861175 0.388427 0.753305
O O17 0.500000 0.726821 0.122447
O O18 0.411395 0.733692 0.000000
O O19 0.342681 0.000000 0.654118
#
# Coordination Sequence:
#
# PCOD9486047 Si02
#       7
#    16  16   8  16  16  16  16
#     4  10  19  31  53  85 116 146 189 247 299 340
#     4  12  22  36  59  88 118 154 197 245 293 353
#     4   9  16  24  38  64 101 148 193 225 263 327
#     4  10  19  34  59  88 117 147 184 240 304 354
#     4  10  19  33  55  83 117 155 194 239 289 341
#     4  11  25  42  58  80 116 162 204 242 293 355
#     4   9  15  27  46  74 111 146 180 228 286 336
#
# _framework density 19.061011000000001
#
# number of rings (size 3 to 8) (size 9 to 14) (size 15 to 20)
#    0.000    1.769    3.846    1.385    0.000    2.769 
#    0.000    2.308    0.000    2.308    0.000    6.462 
#    0.000    0.000    0.000    0.000    0.000    0.000 
#
# Total GULP energy -289494.354026 kJ/mol
# GULP energy per Si atom -5567.199116 kJ/mol
# Density = 1.901763 g / cm^3
# Si number density = 19.061011 Si / 1000 Ang^3
#
#
#
# Elastic Constant Matrix: (Units=GPa)
#
#
# Indices 1 2 3 4 5 6 
#
# 1 66.3977 28.6241 26.1774 0.0000 0.0000 0.0000
# 2 28.6241 58.5305 44.7184 0.0000 0.0000 0.0000
# 3 26.1774 44.7184 143.7543 0.0000 0.0000 0.0000
# 4 0.0000 0.0000 0.0000 -97.0982 0.0000 0.0000
# 5 0.0000 0.0000 0.0000 0.0000 12.2162 0.0000
# 6 0.0000 0.0000 0.0000 0.0000 0.0000 10.6252
#
#
#
# Elastic Compliance Matrix: (Units=1/GPa)
#
#
# Indices 1 2 3 4 5 6 
#
# 1 0.019146 -0.008788 -0.000753 0.000000 0.000000 0.000000
# 2 -0.008788 0.026446 -0.006626 0.000000 0.000000 0.000000
# 3 -0.000753 -0.006626 0.009155 0.000000 0.000000 0.000000
# 4 0.000000 0.000000 0.000000 -0.010299 0.000000 0.000000
# 5 0.000000 0.000000 0.000000 0.000000 0.081858 0.000000
# 6 0.000000 0.000000 0.000000 0.000000 0.000000 0.094116
#
#
# Mechanical properties :
#
#
# Convention : Reuss Voigt Hill
#
# Bulk Modulus (GPa) = 44.61904 51.96914 48.29409
# Shear Modulus (GPa) = 19.21402 -3.57385 7.82008
#
# Velocity S-wave (km/s) = 3.17839 -1.37077 2.02770
# Velocity P-wave (km/s) = 6.07692 4.98181 5.55641
#
# Compressibility (1/GPa) = 0.02241195
#
# Stress axis : x y z
#
# Youngs Moduli (GPa) = 52.22982 37.81360 109.23452
#
# Poissons Ratio (x) = 0.33232 0.08222
# Poissons Ratio (y) = 0.45901 0.72381
# Poissons Ratio (z) = 0.03931 0.25056
#
# Static dielectric constant tensor:
#      x y z
#    x 1.652330 0.000000 0.000000 
#    y 0.000000 1.708130 0.000000 
#    z 0.000000 0.000000 1.724320 
# 
# From -- ./inp_files/44394.got.cif
#   From: 2010.05.17/outbox.cif.g08.bks.cpg/sg65_23_cif.got.tgz:44394.got - 2010.06.03 17:01:31.
