data_PCOD9486330
_publ_section_title
;
Structure prediction by ZEFSAII (Michael W. Deem and Ramdas Pophale) SiO2 
 PCOD9486330
Probable space group: C M M M
;
_chemical_formula_sum "Si O2"
_cell_formula_units_Z 104
_cell_length_a 8.592767
_cell_length_b 29.302543
_cell_length_c 23.712358
_cell_angle_alpha 90.000000
_cell_angle_beta 90.000000
_cell_angle_gamma 90.000000
_cell_volume 5970.532831
_symmetry_space_group_name_H-M "C M M M"
_symmetry_group_IT_number 65
_symmetry_cell_setting 'orthorhombic'
loop_
_space_group_symop_operation_xyz
x,y,z
-x,-y,z
x,-y,-z
-x,y,-z
-x,-y,-z
x,y,-z
-x,y,z
x,-y,z
1/2+x,1/2+y,z
1/2-x,1/2-y,z
1/2+x,1/2-y,-z
1/2-x,1/2+y,-z
1/2-x,1/2-y,-z
1/2+x,1/2+y,-z
1/2-x,1/2+y,z
1/2+x,1/2-y,z
loop_
_atom_site_type_symbol
_atom_site_label
_atom_site_fract_x
_atom_site_fract_y
_atom_site_fract_z
Si Si1 0.312331 0.051174 0.726468
Si Si2 0.312162 0.801262 0.000000
Si Si3 0.313874 0.551614 0.853193
Si Si4 0.185597 0.801148 0.779946
Si Si5 0.188308 0.355433 0.672473
Si Si6 0.313619 0.855076 0.887865
Si Si7 0.311916 0.199322 0.436073
O O1 0.500000 0.053108 0.733041
O O2 0.238513 0.057791 0.788146
O O3 0.264963 0.092549 0.686048
O O4 0.271688 0.000000 0.706812
O O5 0.250000 0.750000 0.000000
O O6 0.262989 0.828208 0.056158
O O7 0.500000 0.799759 0.000000
O O8 0.500000 0.554983 0.856205
O O9 0.267547 0.500000 0.869813
O O10 0.238235 0.592347 0.888165
O O11 0.250000 0.750000 0.785310
O O12 0.248478 0.824091 0.722843
O O13 0.242022 0.830962 0.832966
O O14 0.000000 0.800130 0.778738
O O15 0.239609 0.335554 0.612332
O O16 0.000000 0.353563 0.674072
O O17 0.500000 0.852755 0.883471
O O18 0.262554 0.187480 0.500000
O O19 0.500000 0.200794 0.435436
O O20 0.250000 0.250000 0.423341
#
# Coordination Sequence:
#
# PCOD9486330 Si02
#       7
#    16   8  16  16  16  16  16
#     4   9  17  30  50  75 104 139 176 214 260 317
#     4  10  24  42  61  82 105 139 182 223 261 316
#     4  10  20  34  54  82 112 141 176 218 265 316
#     4  12  24  36  52  77 108 139 172 217 269 319
#     4  10  19  32  51  76 105 137 175 219 267 319
#     4  11  22  39  59  81 108 140 179 219 265 318
#     4   9  18  32  49  70  99 137 179 221 265 314
#
# _framework density 17.418880999999999
#
# number of rings (size 3 to 8) (size 9 to 14) (size 15 to 20)
#    0.000    1.846    1.538    3.231    0.000    5.231 
#    0.000    0.385    0.000    2.769    0.000    3.231 
#    0.000    0.000    0.000    9.077    0.000    9.538 
#
# Total GULP energy -290319.034109 kJ/mol
# GULP energy per Si atom -5583.058348 kJ/mol
# Density = 1.737923 g / cm^3
# Si number density = 17.418881 Si / 1000 Ang^3
#
#
#
# Elastic Constant Matrix: (Units=GPa)
#
#
# Indices 1 2 3 4 5 6 
#
# 1 24.9709 29.6931 22.0867 0.0000 0.0000 0.0000
# 2 29.6931 157.2676 76.5657 0.0000 0.0000 0.0000
# 3 22.0867 76.5657 106.3060 0.0000 0.0000 0.0000
# 4 0.0000 0.0000 0.0000 31.2174 0.0000 0.0000
# 5 0.0000 0.0000 0.0000 0.0000 2.9194 0.0000
# 6 0.0000 0.0000 0.0000 0.0000 0.0000 24.2516
#
#
#
# Elastic Compliance Matrix: (Units=1/GPa)
#
#
# Indices 1 2 3 4 5 6 
#
# 1 0.053992 -0.007288 -0.005968 0.000000 0.000000 0.000000
# 2 -0.007288 0.010776 -0.006247 0.000000 0.000000 0.000000
# 3 -0.005968 -0.006247 0.015146 0.000000 0.000000 0.000000
# 4 0.000000 0.000000 0.000000 0.032033 0.000000 0.000000
# 5 0.000000 0.000000 0.000000 0.000000 0.342535 0.000000
# 6 0.000000 0.000000 0.000000 0.000000 0.000000 0.041234
#
#
# Mechanical properties :
#
#
# Convention : Reuss Voigt Hill
#
# Bulk Modulus (GPa) = 24.44577 60.58175 42.51376
# Shear Modulus (GPa) = 9.11808 22.35761 15.73785
#
# Velocity S-wave (km/s) = 2.29041 3.58652 3.00908
# Velocity P-wave (km/s) = 4.58902 7.21150 6.04421
#
# Compressibility (1/GPa) = 0.04090688
#
# Stress axis : x y z
#
# Youngs Moduli (GPa) = 18.52119 92.79828 66.02312
#
# Poissons Ratio (x) = 0.67635 0.39405
# Poissons Ratio (y) = 0.13499 0.41245
# Poissons Ratio (z) = 0.11054 0.57972
#
# Static dielectric constant tensor:
#      x y z
#    x 1.568110 0.000000 0.000000 
#    y 0.000000 1.597130 0.000000 
#    z 0.000000 0.000000 1.572870 
# 
# From -- ./inp_files/60833.got.cif
#   From: 2010.05.17/outbox.cif.g08.bks.cpg/sg65_31_cif.got.tgz:60833.got - 2010.06.03 17:01:31.
