data_PCOD9486676
_publ_section_title
;
Structure prediction by ZEFSAII (Michael W. Deem and Ramdas Pophale) SiO2 
 PCOD9486676
Probable space group: C M M M
;
_chemical_formula_sum "Si O2"
_cell_formula_units_Z 88
_cell_length_a 16.559227
_cell_length_b 20.609801
_cell_length_c 15.571718
_cell_angle_alpha 90.000000
_cell_angle_beta 90.000000
_cell_angle_gamma 90.000000
_cell_volume 5314.352874
_symmetry_space_group_name_H-M "C M M M"
_symmetry_group_IT_number 65
_symmetry_cell_setting 'orthorhombic'
loop_
_space_group_symop_operation_xyz
x,y,z
-x,-y,z
x,-y,-z
-x,y,-z
-x,-y,-z
x,y,-z
-x,y,z
x,-y,z
1/2+x,1/2+y,z
1/2-x,1/2-y,z
1/2+x,1/2-y,-z
1/2-x,1/2+y,-z
1/2-x,1/2-y,-z
1/2+x,1/2+y,-z
1/2-x,1/2+y,z
1/2+x,1/2-y,z
loop_
_atom_site_type_symbol
_atom_site_label
_atom_site_fract_x
_atom_site_fract_y
_atom_site_fract_z
Si Si1 0.669340 0.125747 0.325273
Si Si2 0.000000 0.206375 0.897808
Si Si3 0.092525 0.157539 0.500000
Si Si4 0.655287 0.244468 0.203880
Si Si5 0.351138 0.626004 0.313838
Si Si6 0.168265 0.291002 0.500000
Si Si7 0.500000 0.573936 0.792750
Si Si8 0.094879 0.500000 0.598237
O O1 0.643460 0.175280 0.250275
O O2 0.759924 0.102981 0.302343
O O3 0.668266 0.166941 0.413862
O O4 0.618661 0.063024 0.347908
O O5 0.082233 0.239973 0.861436
O O6 0.000000 0.132066 0.862360
O O7 0.000000 0.207629 0.000000
O O8 0.132295 0.130412 0.585569
O O9 0.100082 0.235742 0.500000
O O10 0.000000 0.138554 0.500000
O O11 0.750000 0.250000 0.173219
O O12 0.647170 0.300809 0.275925
O O13 0.420508 0.586356 0.265475
O O14 0.250000 0.250000 0.500000
O O15 0.500000 0.500000 0.825289
O O16 0.130564 0.500000 0.500000
O O17 0.000000 0.500000 0.587880
#
# Coordination Sequence:
#
# PCOD9486676 Si02
#       8
#    16   8   8  16  16   8   8   8
#     4  11  20  35  54  73 108 151 190 231 270 312
#     4  10  22  39  63  92 111 129 168 219 286 352
#     4  12  20  28  46  79 109 145 187 235 270 302
#     4   9  19  35  59  85 110 139 178 229 278 327
#     4  10  19  33  51  79 108 145 193 227 262 307
#     4  12  18  29  51  75 102 145 190 230 276 307
#     4  10  22  38  54  78 118 145 172 211 261 330
#     4  11  26  38  44  71 111 153 200 234 266 310
#
# _framework density 16.558931000000001
#
# number of rings (size 3 to 8) (size 9 to 14) (size 15 to 20)
#    0.000    1.545    5.455    0.545    2.545    1.273 
#    0.000    0.909    0.000    0.000    0.000    1.273 
#    0.000    0.000    0.000    0.000    0.000    0.000 
#
# Total GULP energy -245313.359439 kJ/mol
# GULP energy per Si atom -5575.303624 kJ/mol
# Density = 1.652124 g / cm^3
# Si number density = 16.558931 Si / 1000 Ang^3
#
#
#
# Elastic Constant Matrix: (Units=GPa)
#
#
# Indices 1 2 3 4 5 6 
#
# 1 99.2785 54.2530 57.9395 0.0000 0.0000 0.0000
# 2 54.2530 101.5972 36.1851 0.0000 0.0000 0.0000
# 3 57.9395 36.1851 106.0517 0.0000 0.0000 0.0000
# 4 0.0000 0.0000 0.0000 5.7861 0.0000 0.0000
# 5 0.0000 0.0000 0.0000 0.0000 16.8209 0.0000
# 6 0.0000 0.0000 0.0000 0.0000 0.0000 22.2759
#
#
#
# Elastic Compliance Matrix: (Units=1/GPa)
#
#
# Indices 1 2 3 4 5 6 
#
# 1 0.018416 -0.007115 -0.007633 0.000000 0.000000 0.000000
# 2 -0.007115 0.013954 -0.000874 0.000000 0.000000 0.000000
# 3 -0.007633 -0.000874 0.013898 0.000000 0.000000 0.000000
# 4 0.000000 0.000000 0.000000 0.172828 0.000000 0.000000
# 5 0.000000 0.000000 0.000000 0.000000 0.059450 0.000000
# 6 0.000000 0.000000 0.000000 0.000000 0.000000 0.044892
#
#
# Mechanical properties :
#
#
# Convention : Reuss Voigt Hill
#
# Bulk Modulus (GPa) = 66.56705 67.07586 66.82146
# Shear Modulus (GPa) = 13.90088 19.54656 16.72372
#
# Velocity S-wave (km/s) = 2.90052 3.43946 3.18142
# Velocity P-wave (km/s) = 7.17668 7.50789 7.34415
#
# Compressibility (1/GPa) = 0.01502245
#
# Stress axis : x y z
#
# Youngs Moduli (GPa) = 54.30063 71.66617 71.95359
#
# Poissons Ratio (x) = 0.50993 0.54925
# Poissons Ratio (y) = 0.38637 0.06286
# Poissons Ratio (z) = 0.41450 0.06261
#
# Static dielectric constant tensor:
#      x y z
#    x 1.606760 0.000000 0.000000 
#    y 0.000000 1.573420 0.000000 
#    z 0.000000 0.000000 1.668650 
# 
# From -- ./inp_files/42608.got.cif
#   From: 2010.05.17/outbox.cif.g08.bks.cpg/sg65_22_cif.got.tgz:42608.got - 2010.06.03 17:01:31.
