data_PCOD9486098
_publ_section_title
;
Structure prediction by ZEFSAII (Michael W. Deem and Ramdas Pophale) SiO2 
 PCOD9486098
Probable space group: C M M M
;
_chemical_formula_sum "Si O2"
_cell_formula_units_Z 96
_cell_length_a 33.578957
_cell_length_b 13.924858
_cell_length_c 11.849981
_cell_angle_alpha 90.000000
_cell_angle_beta 90.000000
_cell_angle_gamma 90.000000
_cell_volume 5540.840281
_symmetry_space_group_name_H-M "C M M M"
_symmetry_group_IT_number 65
_symmetry_cell_setting 'orthorhombic'
loop_
_space_group_symop_operation_xyz
x,y,z
-x,-y,z
x,-y,-z
-x,y,-z
-x,-y,-z
x,y,-z
-x,y,z
x,-y,z
1/2+x,1/2+y,z
1/2-x,1/2-y,z
1/2+x,1/2-y,-z
1/2-x,1/2+y,-z
1/2-x,1/2-y,-z
1/2+x,1/2+y,-z
1/2-x,1/2+y,z
1/2+x,1/2-y,z
loop_
_atom_site_type_symbol
_atom_site_label
_atom_site_fract_x
_atom_site_fract_y
_atom_site_fract_z
Si Si1 0.723713 0.845666 0.000000
Si Si2 0.344681 0.614256 0.863667
Si Si3 0.047124 0.389502 0.365634
Si Si4 0.866441 0.386945 0.000000
Si Si5 0.314396 0.884111 0.633328
Si Si6 0.886999 0.707269 0.226918
Si Si7 0.260263 0.392696 0.767708
O O1 0.750000 0.750000 0.000000
O O2 0.676556 0.835020 0.000000
O O3 0.736247 0.897023 0.885323
O O4 0.350259 0.500000 0.842703
O O5 0.377901 0.683896 0.811668
O O6 0.303093 0.647163 0.804887
O O7 0.341830 0.624106 0.000000
O O8 0.053471 0.379408 0.500000
O O9 0.058636 0.500000 0.336166
O O10 0.073799 0.314511 0.298454
O O11 0.000000 0.379199 0.344310
O O12 0.888492 0.354201 0.112241
O O13 0.858930 0.500000 0.000000
O O14 0.317744 0.867374 0.500000
O O15 0.349772 0.832972 0.700511
O O16 0.271453 0.850005 0.680619
O O17 0.316959 0.000000 0.652957
O O18 0.268774 0.500000 0.725448
#
# Coordination Sequence:
#
# PCOD9486098 Si02
#       7
#     8  16  16   8  16  16  16
#     4  12  20  28  46  69  98 139 185 232 267 314
#     4  10  21  37  55  76 104 144 193 236 271 316
#     4   9  19  38  64  90 115 145 177 207 250 321
#     4  12  22  30  46  82 117 139 173 228 283 328
#     4  10  21  34  49  73 108 148 185 223 274 336
#     4  12  21  34  55  82 110 144 178 223 274 329
#     4  10  19  32  49  68  96 138 188 235 274 309
#
# _framework density 17.325892
#
# number of rings (size 3 to 8) (size 9 to 14) (size 15 to 20)
#    0.000    1.500    3.333    4.250    0.000    1.333 
#    0.000    2.917    0.000    6.000    0.000    2.333 
#    0.000    0.000    0.000    0.000    0.000    0.000 
#
# Total GULP energy -267846.965393 kJ/mol
# GULP energy per Si atom -5580.145112 kJ/mol
# Density = 1.728646 g / cm^3
# Si number density = 17.325892 Si / 1000 Ang^3
#
#
#
# Elastic Constant Matrix: (Units=GPa)
#
#
# Indices 1 2 3 4 5 6 
#
# 1 65.3627 33.0847 36.9586 0.0000 0.0000 0.0000
# 2 33.0847 94.3110 39.5036 0.0000 0.0000 0.0000
# 3 36.9586 39.5036 89.1771 0.0000 0.0000 0.0000
# 4 0.0000 0.0000 0.0000 24.9181 0.0000 0.0000
# 5 0.0000 0.0000 0.0000 0.0000 33.0067 0.0000
# 6 0.0000 0.0000 0.0000 0.0000 0.0000 25.0801
#
#
#
# Elastic Compliance Matrix: (Units=1/GPa)
#
#
# Indices 1 2 3 4 5 6 
#
# 1 0.021547 -0.004688 -0.006853 0.000000 0.000000 0.000000
# 2 -0.004688 0.014039 -0.004276 0.000000 0.000000 0.000000
# 3 -0.006853 -0.004276 0.015948 0.000000 0.000000 0.000000
# 4 0.000000 0.000000 0.000000 0.040131 0.000000 0.000000
# 5 0.000000 0.000000 0.000000 0.000000 0.030297 0.000000
# 6 0.000000 0.000000 0.000000 0.000000 0.000000 0.039872
#
#
# Mechanical properties :
#
#
# Convention : Reuss Voigt Hill
#
# Bulk Modulus (GPa) = 50.25289 51.99384 51.12337
# Shear Modulus (GPa) = 24.98708 25.88789 25.43749
#
# Velocity S-wave (km/s) = 3.80173 3.86965 3.83584
# Velocity P-wave (km/s) = 6.95257 7.07390 7.01350
#
# Compressibility (1/GPa) = 0.01989935
#
# Stress axis : x y z
#
# Youngs Moduli (GPa) = 46.40910 71.23041 62.70347
#
# Poissons Ratio (x) = 0.33395 0.42973
# Poissons Ratio (y) = 0.21758 0.26812
# Poissons Ratio (z) = 0.31806 0.30458
#
# Static dielectric constant tensor:
#      x y z
#    x 1.579200 0.000000 0.000000 
#    y 0.000000 1.638820 0.000000 
#    z 0.000000 0.000000 1.590260 
# 
# From -- ./inp_files/33921.got.cif
#   From: 2010.05.17/outbox.cif.g08.bks.cpg/sg65_17_cif.got.tgz:33921.got - 2010.06.03 17:01:31.
