data_PCOD9486339
_publ_section_title
;
Structure prediction by ZEFSAII (Michael W. Deem and Ramdas Pophale) SiO2 
 PCOD9486339
Probable space group: C M M M
;
_chemical_formula_sum "Si O2"
_cell_formula_units_Z 96
_cell_length_a 14.886224
_cell_length_b 10.323947
_cell_length_c 30.870085
_cell_angle_alpha 90.000000
_cell_angle_beta 90.000000
_cell_angle_gamma 90.000000
_cell_volume 4744.256283
_symmetry_space_group_name_H-M "C M M M"
_symmetry_group_IT_number 65
_symmetry_cell_setting 'orthorhombic'
loop_
_space_group_symop_operation_xyz
x,y,z
-x,-y,z
x,-y,-z
-x,y,-z
-x,-y,-z
x,y,-z
-x,y,z
x,-y,z
1/2+x,1/2+y,z
1/2-x,1/2-y,z
1/2+x,1/2-y,-z
1/2-x,1/2+y,-z
1/2-x,1/2-y,-z
1/2+x,1/2+y,-z
1/2-x,1/2+y,z
1/2+x,1/2-y,z
loop_
_atom_site_type_symbol
_atom_site_label
_atom_site_fract_x
_atom_site_fract_y
_atom_site_fract_z
Si Si1 0.358304 0.252208 0.102679
Si Si2 0.334765 0.152243 0.546686
Si Si3 0.606390 0.352963 0.802670
Si Si4 0.605635 0.855847 0.263849
Si Si5 0.832585 0.348990 0.359445
Si Si6 0.861291 0.500000 0.949559
Si Si7 0.641563 0.500000 0.950658
O O1 0.250000 0.250000 0.101665
O O2 0.383519 0.276584 0.152232
O O3 0.389734 0.124487 0.077993
O O4 0.388979 0.374587 0.074970
O O5 0.382012 0.173273 0.500000
O O6 0.250000 0.250000 0.546825
O O7 0.380233 0.170976 0.593728
O O8 0.306809 0.000000 0.546423
O O9 0.500000 0.367322 0.794960
O O10 0.644087 0.500000 0.805664
O O11 0.643728 0.261792 0.764530
O O12 0.500000 0.863175 0.253394
O O13 0.613875 0.830402 0.315108
O O14 0.644288 0.000000 0.254805
O O15 0.802765 0.500000 0.358848
O O16 0.750000 0.250000 0.357999
O O17 0.751413 0.500000 0.950760
O O18 0.889801 0.500000 0.000000
O O19 0.612253 0.500000 0.000000
#
# Coordination Sequence:
#
# PCOD9486339 Si02
#       7
#    16  16  16  16  16   8   8
#     4  10  19  32  51  77 102 126 158 195 233 274
#     4   8  13  22  38  61  91 124 155 188 229 278
#     4  10  21  37  54  71  94 125 161 199 239 284
#     4   9  19  35  52  68  89 124 163 195 236 290
#     4   9  17  29  46  71  98 124 157 199 242 280
#     4   9  18  30  49  77 103 129 159 191 228 273
#     4   9  16  30  51  73 101 131 159 191 228 273
#
# _framework density 20.234995999999999
#
# number of rings (size 3 to 8) (size 9 to 14) (size 15 to 20)
#    0.000    2.833    0.833    0.500    1.167    3.333 
#    0.000    1.667    0.000    3.500    0.000    3.500 
#    0.000    0.000    0.000   31.167    0.000   17.000 
#
# Total GULP energy -267281.474270 kJ/mol
# GULP energy per Si atom -5568.364047 kJ/mol
# Density = 2.018894 g / cm^3
# Si number density = 20.234996 Si / 1000 Ang^3
#
#
#
# Elastic Constant Matrix: (Units=GPa)
#
#
# Indices 1 2 3 4 5 6 
#
# 1 37.1506 11.3204 -1.3863 0.0000 0.0000 0.0000
# 2 11.3204 141.7649 92.7856 0.0000 0.0000 0.0000
# 3 -1.3863 92.7856 189.3882 0.0000 0.0000 0.0000
# 4 0.0000 0.0000 0.0000 32.9641 0.0000 0.0000
# 5 0.0000 0.0000 0.0000 0.0000 30.8974 0.0000
# 6 0.0000 0.0000 0.0000 0.0000 0.0000 -3.8973
#
#
#
# Elastic Compliance Matrix: (Units=1/GPa)
#
#
# Indices 1 2 3 4 5 6 
#
# 1 0.028054 -0.003495 0.001918 0.000000 0.000000 0.000000
# 2 -0.003495 0.010819 -0.005326 0.000000 0.000000 0.000000
# 3 0.001918 -0.005326 0.007904 0.000000 0.000000 0.000000
# 4 0.000000 0.000000 0.000000 0.030336 0.000000 0.000000
# 5 0.000000 0.000000 0.000000 0.000000 0.032365 0.000000
# 6 0.000000 0.000000 0.000000 0.000000 0.000000 -0.256589
#
#
# Mechanical properties :
#
#
# Convention : Reuss Voigt Hill
#
# Bulk Modulus (GPa) = 30.33119 63.74923 47.04021
# Shear Modulus (GPa) = -40.87844 29.69845 -5.58999
#
# Velocity S-wave (km/s) = -4.49952 3.83518 -1.66389
# Velocity P-wave (km/s) = 3.46010 7.15432 4.42787
#
# Compressibility (1/GPa) = 0.03296937
#
# Stress axis : x y z
#
# Youngs Moduli (GPa) = 35.64537 92.43025 126.52539
#
# Poissons Ratio (x) = 0.32309 -0.24266
# Poissons Ratio (y) = 0.12460 0.67388
# Poissons Ratio (z) = -0.06836 0.49229
#
# Static dielectric constant tensor:
#      x y z
#    x 1.720270 0.000000 0.000000 
#    y 0.000000 1.710410 0.000000 
#    z 0.000000 0.000000 1.739760 
# 
# From -- ./inp_files/75708.got.cif
#   From: 2010.05.17/outbox.cif.g08.bks.cpg/sg65_38_cif.got.tgz:75708.got - 2010.06.03 17:01:31.
