data_PCOD9486028
_publ_section_title
;
Structure prediction by ZEFSAII (Michael W. Deem and Ramdas Pophale) SiO2 
 PCOD9486028
Probable space group: C M M M
;
_chemical_formula_sum "Si O2"
_cell_formula_units_Z 96
_cell_length_a 14.566931
_cell_length_b 23.844714
_cell_length_c 15.126306
_cell_angle_alpha 90.000000
_cell_angle_beta 90.000000
_cell_angle_gamma 90.000000
_cell_volume 5254.036223
_symmetry_space_group_name_H-M "C M M M"
_symmetry_group_IT_number 65
_symmetry_cell_setting 'orthorhombic'
loop_
_space_group_symop_operation_xyz
x,y,z
-x,-y,z
x,-y,-z
-x,y,-z
-x,-y,-z
x,y,-z
-x,y,z
x,-y,z
1/2+x,1/2+y,z
1/2-x,1/2-y,z
1/2+x,1/2-y,-z
1/2-x,1/2+y,-z
1/2-x,1/2-y,-z
1/2+x,1/2+y,-z
1/2-x,1/2+y,z
1/2+x,1/2-y,z
loop_
_atom_site_type_symbol
_atom_site_label
_atom_site_fract_x
_atom_site_fract_y
_atom_site_fract_z
Si Si1 0.107804 0.566620 0.500000
Si Si2 0.387925 0.934963 0.000000
Si Si3 0.896633 0.162220 0.730710
Si Si4 0.602560 0.233297 0.599686
Si Si5 0.711321 0.870672 0.344409
Si Si6 0.642260 0.263749 0.898472
Si Si7 0.603865 0.139141 0.163414
O O1 0.104986 0.500000 0.500000
O O2 0.164866 0.587677 0.585541
O O3 0.000000 0.586335 0.500000
O O4 0.357717 0.899258 0.084731
O O5 0.500000 0.933938 0.000000
O O6 0.359727 0.000000 0.000000
O O7 0.894860 0.218480 0.671542
O O8 0.817716 0.125174 0.684143
O O9 0.876238 0.185868 0.829619
O O10 0.000000 0.138819 0.728145
O O11 0.607852 0.255748 0.500000
O O12 0.500000 0.206035 0.608506
O O13 0.684171 0.189886 0.614980
O O14 0.659585 0.870357 0.251448
O O15 0.750000 0.250000 0.898264
O O16 0.601756 0.204475 0.864772
O O17 0.613837 0.275151 0.000000
O O18 0.500000 0.121027 0.179808
#
# Coordination Sequence:
#
# PCOD9486028 Si02
#       7
#     8   8  16  16  16  16  16
#     4  11  26  46  68  93 117 145 188 242 300 361
#     4   9  20  36  53  78 109 145 190 237 288 350
#     4  11  23  36  52  83 121 158 201 238 279 343
#     4  10  19  31  52  81 114 152 186 227 281 342
#     4  12  22  37  58  83 115 153 191 237 290 347
#     4  11  20  33  53  81 120 165 205 243 292 353
#     4  11  20  32  54  81 113 154 192 235 294 354
#
# _framework density 18.271666
#
# number of rings (size 3 to 8) (size 9 to 14) (size 15 to 20)
#    0.000    1.167    5.000    2.500    1.167    2.333 
#    0.000    1.667    0.000    1.000    0.000    0.000 
#    0.000    0.667    0.000    0.000    0.000    0.000 
#
# Total GULP energy -267740.035884 kJ/mol
# GULP energy per Si atom -5577.917414 kJ/mol
# Density = 1.823008 g / cm^3
# Si number density = 18.271666 Si / 1000 Ang^3
#
#
#
# Elastic Constant Matrix: (Units=GPa)
#
#
# Indices 1 2 3 4 5 6 
#
# 1 124.2146 14.3953 42.8803 0.0000 0.0000 0.0000
# 2 14.3953 44.1614 24.9299 0.0000 0.0000 0.0000
# 3 42.8803 24.9299 142.7735 0.0000 0.0000 0.0000
# 4 0.0000 0.0000 0.0000 -1.0173 0.0000 0.0000
# 5 0.0000 0.0000 0.0000 0.0000 -4.8005 0.0000
# 6 0.0000 0.0000 0.0000 0.0000 0.0000 10.2288
#
#
#
# Elastic Compliance Matrix: (Units=1/GPa)
#
#
# Indices 1 2 3 4 5 6 
#
# 1 0.009080 -0.001576 -0.002452 0.000000 0.000000 0.000000
# 2 -0.001576 0.025394 -0.003961 0.000000 0.000000 0.000000
# 3 -0.002452 -0.003961 0.008432 0.000000 0.000000 0.000000
# 4 0.000000 0.000000 0.000000 -0.982951 0.000000 0.000000
# 5 0.000000 0.000000 0.000000 0.000000 -0.208312 0.000000
# 6 0.000000 0.000000 0.000000 0.000000 0.000000 0.097763
#
#
# Mechanical properties :
#
#
# Convention : Reuss Voigt Hill
#
# Bulk Modulus (GPa) = 37.13477 52.84004 44.98741
# Shear Modulus (GPa) = -4.87500 16.14514 5.63507
#
# Velocity S-wave (km/s) = -1.63519 2.97579 1.75805
# Velocity P-wave (km/s) = 4.09911 6.38663 5.36618
#
# Compressibility (1/GPa) = 0.02692894
#
# Stress axis : x y z
#
# Youngs Moduli (GPa) = 110.13727 39.37981 118.59468
#
# Poissons Ratio (x) = 0.06205 0.29077
# Poissons Ratio (y) = 0.17353 0.46973
# Poissons Ratio (z) = 0.27004 0.15598
#
# Static dielectric constant tensor:
#      x y z
#    x 1.715210 0.000000 0.000000 
#    y 0.000000 1.610420 0.000000 
#    z 0.000000 0.000000 1.696010 
# 
# From -- ./inp_files/41002.got.cif
#   From: 2010.05.17/outbox.cif.g08.bks.cpg/sg65_21_cif.got.tgz:41002.got - 2010.06.03 17:01:31.
