data_PCOD9486206
_publ_section_title
;
Structure prediction by ZEFSAII (Michael W. Deem and Ramdas Pophale) SiO2 
 PCOD9486206
Probable space group: C M M M
;
_chemical_formula_sum "Si O2"
_cell_formula_units_Z 104
_cell_length_a 25.178201
_cell_length_b 18.158522
_cell_length_c 14.448621
_cell_angle_alpha 90.000000
_cell_angle_beta 90.000000
_cell_angle_gamma 90.000000
_cell_volume 6605.893870
_symmetry_space_group_name_H-M "C M M M"
_symmetry_group_IT_number 65
_symmetry_cell_setting 'orthorhombic'
loop_
_space_group_symop_operation_xyz
x,y,z
-x,-y,z
x,-y,-z
-x,y,-z
-x,-y,-z
x,y,-z
-x,y,z
x,-y,z
1/2+x,1/2+y,z
1/2-x,1/2-y,z
1/2+x,1/2-y,-z
1/2-x,1/2+y,-z
1/2-x,1/2-y,-z
1/2+x,1/2+y,-z
1/2-x,1/2+y,z
1/2+x,1/2-y,z
loop_
_atom_site_type_symbol
_atom_site_label
_atom_site_fract_x
_atom_site_fract_y
_atom_site_fract_z
Si Si1 0.243398 0.915567 0.887732
Si Si2 0.436784 0.086163 0.254870
Si Si3 0.564492 0.500000 0.606434
Si Si4 0.064025 0.856002 0.276794
Si Si5 0.637594 0.327289 0.108837
Si Si6 0.435655 0.212551 0.605135
Si Si7 0.356405 0.849206 0.891129
O O1 0.192608 0.866531 0.862803
O O2 0.299433 0.880476 0.859118
O O3 0.238447 0.000000 0.856098
O O4 0.244307 0.916222 0.000000
O O5 0.500000 0.096063 0.238186
O O6 0.421753 0.137664 0.341600
O O7 0.402931 0.114640 0.168371
O O8 0.427175 0.000000 0.271627
O O9 0.500000 0.500000 0.602605
O O10 0.583269 0.500000 0.500000
O O11 0.579657 0.572869 0.662991
O O12 0.091811 0.854526 0.177352
O O13 0.080141 0.782717 0.333345
O O14 0.000000 0.855750 0.266962
O O15 0.642701 0.239110 0.117617
O O16 0.627486 0.343694 0.000000
O O17 0.415774 0.216176 0.500000
O O18 0.500000 0.215093 0.600744
O O19 0.362798 0.866980 0.000000
#
# Coordination Sequence:
#
# PCOD9486206 Si02
#       7
#    16  16   8  16  16  16  16
#     4   9  18  32  50  71  95 126 167 211 247 283
#     4  10  20  32  47  73 105 131 164 206 247 299
#     4   9  18  32  51  75 101 131 170 216 254 287
#     4  10  19  32  50  75 105 135 167 202 247 301
#     4  10  20  32  49  73 103 134 167 205 242 292
#     4   9  17  31  50  70  96 130 165 204 249 294
#     4  10  19  33  51  71  99 135 170 203 242 289
#
# _framework density 15.743517000000001
#
# number of rings (size 3 to 8) (size 9 to 14) (size 15 to 20)
#    0.000    2.385    1.538    1.385    1.077    5.538 
#    0.000    3.846    0.000    1.385    0.000    3.231 
#    0.000    0.000    0.000    0.000    0.000    0.000 
#
# Total GULP energy -289799.881629 kJ/mol
# GULP energy per Si atom -5573.074647 kJ/mol
# Density = 1.570768 g / cm^3
# Si number density = 15.743517 Si / 1000 Ang^3
#
#
#
# Elastic Constant Matrix: (Units=GPa)
#
#
# Indices 1 2 3 4 5 6 
#
# 1 54.0164 42.3807 45.7390 0.0000 0.0000 0.0000
# 2 42.3807 114.0366 59.9842 0.0000 0.0000 0.0000
# 3 45.7390 59.9842 99.6747 0.0000 0.0000 0.0000
# 4 0.0000 0.0000 0.0000 19.0244 0.0000 0.0000
# 5 0.0000 0.0000 0.0000 0.0000 -2.1497 0.0000
# 6 0.0000 0.0000 0.0000 0.0000 0.0000 21.3104
#
#
#
# Elastic Compliance Matrix: (Units=1/GPa)
#
#
# Indices 1 2 3 4 5 6 
#
# 1 0.033117 -0.006312 -0.011398 0.000000 0.000000 0.000000
# 2 -0.006312 0.014034 -0.005549 0.000000 0.000000 0.000000
# 3 -0.011398 -0.005549 0.018602 0.000000 0.000000 0.000000
# 4 0.000000 0.000000 0.000000 0.052564 0.000000 0.000000
# 5 0.000000 0.000000 0.000000 0.000000 -0.465183 0.000000
# 6 0.000000 0.000000 0.000000 0.000000 0.000000 0.046925
#
#
# Mechanical properties :
#
#
# Convention : Reuss Voigt Hill
#
# Bulk Modulus (GPa) = 51.98971 62.65953 57.32462
# Shear Modulus (GPa) = -20.24206 15.61194 -2.31506
#
# Velocity S-wave (km/s) = -3.58961 3.15245 -1.21395
# Velocity P-wave (km/s) = 3.98926 7.28953 5.87586
#
# Compressibility (1/GPa) = 0.01923458
#
# Stress axis : x y z
#
# Youngs Moduli (GPa) = 30.19614 71.25671 53.75634
#
# Poissons Ratio (x) = 0.44978 0.61272
# Poissons Ratio (y) = 0.19060 0.29830
# Poissons Ratio (z) = 0.34418 0.39541
#
# Static dielectric constant tensor:
#      x y z
#    x 1.504700 0.000000 0.000000 
#    y 0.000000 1.533270 0.000000 
#    z 0.000000 0.000000 1.513220 
# 
# From -- ./inp_files/27491.got.cif
#   From: 2010.05.17/outbox.cif.g08.bks.cpg/sg65_14_cif.got.tgz:27491.got - 2010.06.03 17:01:31.
