data_PCOD9486955
_publ_section_title
;
Structure prediction by ZEFSAII (Michael W. Deem and Ramdas Pophale) SiO2 
 PCOD9486955
Probable space group: C M M M
;
_chemical_formula_sum "Si O2"
_cell_formula_units_Z 120
_cell_length_a 19.061747
_cell_length_b 26.755052
_cell_length_c 13.230335
_cell_angle_alpha 90.000000
_cell_angle_beta 90.000000
_cell_angle_gamma 90.000000
_cell_volume 6747.444815
_symmetry_space_group_name_H-M "C M M M"
_symmetry_group_IT_number 65
_symmetry_cell_setting 'orthorhombic'
loop_
_space_group_symop_operation_xyz
x,y,z
-x,-y,z
x,-y,-z
-x,y,-z
-x,-y,-z
x,y,-z
-x,y,z
x,-y,z
1/2+x,1/2+y,z
1/2-x,1/2-y,z
1/2+x,1/2-y,-z
1/2-x,1/2+y,-z
1/2-x,1/2-y,-z
1/2+x,1/2+y,-z
1/2-x,1/2+y,z
1/2+x,1/2-y,z
loop_
_atom_site_type_symbol
_atom_site_label
_atom_site_fract_x
_atom_site_fract_y
_atom_site_fract_z
Si Si1 0.706390 0.058790 0.385670
Si Si2 0.678362 0.716724 0.776061
Si Si3 0.156187 0.601501 0.818197
Si Si4 0.073550 0.558318 0.000000
Si Si5 0.420580 0.337692 0.619372
Si Si6 0.812501 0.110450 0.883459
Si Si7 0.866800 0.058365 0.307592
Si Si8 0.583098 0.797844 0.878762
O O1 0.695919 0.077511 0.500000
O O2 0.662959 0.085776 0.298038
O O3 0.788733 0.062508 0.356372
O O4 0.689028 0.000000 0.383256
O O5 0.750000 0.750000 0.761350
O O6 0.639833 0.693712 0.676994
O O7 0.690626 0.667460 0.843863
O O8 0.620885 0.749348 0.834692
O O9 0.232710 0.593829 0.866677
O O10 0.125718 0.656816 0.828758
O O11 0.108532 0.570794 0.894150
O O12 0.066322 0.500000 0.000000
O O13 0.000000 0.586962 0.000000
O O14 0.414814 0.329584 0.500000
O O15 0.500000 0.323556 0.652305
O O16 0.410709 0.397090 0.641376
O O17 0.858652 0.076204 0.808869
O O18 0.833207 0.107706 0.000000
O O19 0.888837 0.000000 0.316834
O O20 0.500000 0.799217 0.856949
O O21 0.592329 0.800722 0.000000
#
# Coordination Sequence:
#
# PCOD9486955 Si02
#       8
#    16  16  16   8  16  16  16  16
#     4   9  18  33  53  78 110 146 185 230 279 334
#     4  11  22  37  58  84 113 148 190 238 287 348
#     4  11  19  33  52  79 108 141 184 233 283 335
#     4  11  22  34  50  73 106 144 179 226 286 346
#     4  10  22  40  60  83 114 150 192 244 296 348
#     4  10  19  33  54  84 118 148 183 233 283 333
#     4   9  19  34  55  86 119 152 189 229 282 343
#     4  11  22  36  56  81 113 150 185 229 284 341
#
# _framework density 17.784510000000001
#
# number of rings (size 3 to 8) (size 9 to 14) (size 15 to 20)
#    0.000    1.800    2.667    2.000    0.000    2.667 
#    0.000    1.333    0.000    6.000    0.000    8.400 
#    0.000    0.000    0.000    0.000    0.000    0.000 
#
# Total GULP energy -334325.705091 kJ/mol
# GULP energy per Si atom -5572.095085 kJ/mol
# Density = 1.774403 g / cm^3
# Si number density = 17.784510 Si / 1000 Ang^3
#
#
#
# Elastic Constant Matrix: (Units=GPa)
#
#
# Indices 1 2 3 4 5 6 
#
# 1 39.3192 0.7866 24.8509 0.0000 0.0000 0.0000
# 2 0.7866 55.8836 26.2965 0.0000 0.0000 0.0000
# 3 24.8509 26.2965 129.9440 0.0000 0.0000 0.0000
# 4 0.0000 0.0000 0.0000 20.6204 0.0000 0.0000
# 5 0.0000 0.0000 0.0000 0.0000 21.2735 0.0000
# 6 0.0000 0.0000 0.0000 0.0000 0.0000 15.0316
#
#
#
# Elastic Compliance Matrix: (Units=1/GPa)
#
#
# Indices 1 2 3 4 5 6 
#
# 1 0.029231 0.002453 -0.006087 0.000000 0.000000 0.000000
# 2 0.002453 0.019983 -0.004513 0.000000 0.000000 0.000000
# 3 -0.006087 -0.004513 0.009773 0.000000 0.000000 0.000000
# 4 0.000000 0.000000 0.000000 0.048496 0.000000 0.000000
# 5 0.000000 0.000000 0.000000 0.000000 0.047007 0.000000
# 6 0.000000 0.000000 0.000000 0.000000 0.000000 0.066526
#
#
# Mechanical properties :
#
#
# Convention : Reuss Voigt Hill
#
# Bulk Modulus (GPa) = 23.42297 36.55722 29.99009
# Shear Modulus (GPa) = 19.87750 22.93263 21.40506
#
# Velocity S-wave (km/s) = 3.34681 3.59482 3.47303
# Velocity P-wave (km/s) = 5.30414 6.15066 5.74301
#
# Compressibility (1/GPa) = 0.04269313
#
# Stress axis : x y z
#
# Youngs Moduli (GPa) = 34.21069 50.04133 102.32345
#
# Poissons Ratio (x) = -0.12273 0.62279
# Poissons Ratio (y) = -0.08391 0.46179
# Poissons Ratio (z) = 0.20822 0.22584
#
# Static dielectric constant tensor:
#      x y z
#    x 1.499070 0.000000 0.000000 
#    y 0.000000 1.686310 0.000000 
#    z 0.000000 0.000000 1.540390 
# 
# From -- ./inp_files/29668.got.cif
#   From: 2010.05.17/outbox.cif.g08.bks.cpg/sg65_15_cif.got.tgz:29668.got - 2010.06.03 17:01:31.
