data_PCOD9486451
_publ_section_title
;
Structure prediction by ZEFSAII (Michael W. Deem and Ramdas Pophale) SiO2 
 PCOD9486451
Probable space group: C M M M
;
_chemical_formula_sum "Si O2"
_cell_formula_units_Z 52
_cell_length_a 22.044751
_cell_length_b 19.056773
_cell_length_c 7.402932
_cell_angle_alpha 90.000000
_cell_angle_beta 90.000000
_cell_angle_gamma 90.000000
_cell_volume 3109.985174
_symmetry_space_group_name_H-M "C M M M"
_symmetry_group_IT_number 65
_symmetry_cell_setting 'orthorhombic'
loop_
_space_group_symop_operation_xyz
x,y,z
-x,-y,z
x,-y,-z
-x,y,-z
-x,-y,-z
x,y,-z
-x,y,z
x,-y,z
1/2+x,1/2+y,z
1/2-x,1/2-y,z
1/2+x,1/2-y,-z
1/2-x,1/2+y,-z
1/2-x,1/2-y,-z
1/2+x,1/2+y,-z
1/2-x,1/2+y,z
1/2+x,1/2-y,z
loop_
_atom_site_type_symbol
_atom_site_label
_atom_site_fract_x
_atom_site_fract_y
_atom_site_fract_z
Si Si1 0.428695 0.751373 0.000000
Si Si2 0.260473 0.000000 0.000000
Si Si3 0.427410 0.000000 0.291213
Si Si4 0.655259 0.500000 0.283934
Si Si5 0.628156 0.899725 0.000000
Si Si6 0.430189 0.369051 0.714011
O O1 0.419092 0.700826 0.828289
O O2 0.500000 0.774107 0.000000
O O3 0.384612 0.817640 0.000000
O O4 0.217079 0.000000 0.826812
O O5 0.304298 0.068058 0.000000
O O6 0.500000 0.000000 0.287027
O O7 0.407537 0.000000 0.500000
O O8 0.403278 0.933869 0.176934
O O9 0.665094 0.500000 0.500000
O O10 0.615474 0.431405 0.238020
O O11 0.424999 0.355885 0.500000
O O12 0.500000 0.391084 0.750231
#
# Coordination Sequence:
#
# PCOD9486451 Si02
#       6
#     8   4   8   8   8  16
#     4  10  19  32  52  77 107 135 160 199 254 315
#     4  10  22  36  52  70  94 138 186 216 244 286
#     4   9  17  31  53  75  93 123 170 219 265 305
#     4  10  19  35  56  75 100 132 172 218 254 294
#     4  10  21  35  49  71 105 138 170 212 249 292
#     4   9  18  32  53  81 106 129 160 204 262 317
#
# _framework density 16.720337000000001
#
# number of rings (size 3 to 8) (size 9 to 14) (size 15 to 20)
#    0.000    2.615    0.000    3.231    0.000    5.538 
#    0.000    9.231    0.000    3.692    0.000    0.000 
#    0.000    0.000    0.000    0.000    0.000    0.000 
#
# Total GULP energy -144992.851654 kJ/mol
# GULP energy per Si atom -5576.648141 kJ/mol
# Density = 1.668228 g / cm^3
# Si number density = 16.720337 Si / 1000 Ang^3
#
#
#
# Elastic Constant Matrix: (Units=GPa)
#
#
# Indices 1 2 3 4 5 6 
#
# 1 117.4452 79.3592 56.4225 0.0000 0.0000 0.0000
# 2 79.3592 122.7780 48.5060 0.0000 0.0000 0.0000
# 3 56.4225 48.5060 102.7808 0.0000 0.0000 0.0000
# 4 0.0000 0.0000 0.0000 11.6980 0.0000 0.0000
# 5 0.0000 0.0000 0.0000 0.0000 -2.4186 0.0000
# 6 0.0000 0.0000 0.0000 0.0000 0.0000 3.0632
#
#
#
# Elastic Compliance Matrix: (Units=1/GPa)
#
#
# Indices 1 2 3 4 5 6 
#
# 1 0.017055 -0.009004 -0.005113 0.000000 0.000000 0.000000
# 2 -0.009004 0.014765 -0.002025 0.000000 0.000000 0.000000
# 3 -0.005113 -0.002025 0.013492 0.000000 0.000000 0.000000
# 4 0.000000 0.000000 0.000000 0.085484 0.000000 0.000000
# 5 0.000000 0.000000 0.000000 0.000000 -0.413454 0.000000
# 6 0.000000 0.000000 0.000000 0.000000 0.000000 0.326460
#
#
# Mechanical properties :
#
#
# Convention : Reuss Voigt Hill
#
# Bulk Modulus (GPa) = 76.76213 79.06440 77.91327
# Shear Modulus (GPa) = 62.16663 13.04960 37.60812
#
# Velocity S-wave (km/s) = 6.10418 2.79671 4.74776
# Velocity P-wave (km/s) = 9.78215 7.60380 8.76094
#
# Compressibility (1/GPa) = 0.01302726
#
# Stress axis : x y z
#
# Youngs Moduli (GPa) = 58.63393 67.73003 74.11639
#
# Poissons Ratio (x) = 0.60981 0.37898
# Poissons Ratio (y) = 0.52791 0.15011
# Poissons Ratio (z) = 0.29982 0.13717
#
# Static dielectric constant tensor:
#      x y z
#    x 1.554490 0.000000 0.000000 
#    y 0.000000 1.540100 0.000000 
#    z 0.000000 0.000000 1.576450 
# 
# From -- ./inp_files/8448.got.cif
#   From: 2010.05.17/outbox.cif.g08.bks.cpg/sg65_5_cif.got.tgz:8448.got - 2010.06.03 17:01:31.
