data_PCOD9486900
_publ_section_title
;
Structure prediction by ZEFSAII (Michael W. Deem and Ramdas Pophale) SiO2 
 PCOD9486900
Probable space group: C M M M
;
_chemical_formula_sum "Si O2"
_cell_formula_units_Z 88
_cell_length_a 18.570072
_cell_length_b 8.740228
_cell_length_c 30.077189
_cell_angle_alpha 90.000000
_cell_angle_beta 90.000000
_cell_angle_gamma 90.000000
_cell_volume 4881.728187
_symmetry_space_group_name_H-M "C M M M"
_symmetry_group_IT_number 65
_symmetry_cell_setting 'orthorhombic'
loop_
_space_group_symop_operation_xyz
x,y,z
-x,-y,z
x,-y,-z
-x,y,-z
-x,-y,-z
x,y,-z
-x,y,z
x,-y,z
1/2+x,1/2+y,z
1/2-x,1/2-y,z
1/2+x,1/2-y,-z
1/2-x,1/2+y,-z
1/2-x,1/2-y,-z
1/2+x,1/2+y,-z
1/2-x,1/2+y,z
1/2+x,1/2-y,z
loop_
_atom_site_type_symbol
_atom_site_label
_atom_site_fract_x
_atom_site_fract_y
_atom_site_fract_z
Si Si1 0.915622 0.682887 0.500000
Si Si2 0.586047 0.318255 0.050107
Si Si3 0.331059 0.315897 0.416491
Si Si4 0.331562 0.316081 0.222899
Si Si5 0.169175 0.815958 0.319032
Si Si6 0.669760 0.181178 0.867855
O O1 0.907168 0.500000 0.500000
O O2 0.877868 0.750521 0.456363
O O3 0.000000 0.720488 0.500000
O O4 0.500000 0.297596 0.053105
O O5 0.600477 0.500000 0.054947
O O6 0.625338 0.228805 0.088966
O O7 0.608433 0.272763 0.000000
O O8 0.327900 0.500000 0.419426
O O9 0.250000 0.250000 0.419868
O O10 0.361454 0.272515 0.367326
O O11 0.329207 0.500000 0.219552
O O12 0.250000 0.250000 0.223764
O O13 0.364325 0.272519 0.271182
O O14 0.363936 0.248911 0.177709
O O15 0.250000 0.750000 0.319049
O O16 0.173683 0.000000 0.318703
O O17 0.750000 0.250000 0.872211
O O18 0.675004 0.000000 0.863632
#
# Coordination Sequence:
#
# PCOD9486900 Si02
#       6
#     8  16  16  16  16  16
#     4  11  24  39  52  69  97 133 170 207 252 301
#     4   9  19  37  58  76  96 126 164 206 254 305
#     4  10  19  33  54  79 104 129 163 205 248 293
#     4   9  15  26  44  68 100 132 163 199 242 290
#     4   8  15  26  44  71  99 127 159 198 242 288
#     4  11  21  32  49  75 106 137 169 205 245 290
#
# _framework density 18.026402999999998
#
# number of rings (size 3 to 8) (size 9 to 14) (size 15 to 20)
#    0.000    2.455    0.000    4.909    0.000    3.273 
#    0.000    0.909    0.000    1.091    0.000    2.545 
#    0.000    0.000    0.000    0.000    0.000    0.000 
#
# Total GULP energy -245138.193190 kJ/mol
# GULP energy per Si atom -5571.322573 kJ/mol
# Density = 1.798537 g / cm^3
# Si number density = 18.026403 Si / 1000 Ang^3
#
#
#
# Elastic Constant Matrix: (Units=GPa)
#
#
# Indices 1 2 3 4 5 6 
#
# 1 29.3784 30.1402 50.8396 0.0000 0.0000 0.0000
# 2 30.1402 74.7530 73.7790 0.0000 0.0000 0.0000
# 3 50.8396 73.7790 219.4420 0.0000 0.0000 0.0000
# 4 0.0000 0.0000 0.0000 35.7400 0.0000 0.0000
# 5 0.0000 0.0000 0.0000 0.0000 -14.0370 0.0000
# 6 0.0000 0.0000 0.0000 0.0000 0.0000 17.2544
#
#
#
# Elastic Compliance Matrix: (Units=1/GPa)
#
#
# Indices 1 2 3 4 5 6 
#
# 1 0.070463 -0.018407 -0.010136 0.000000 0.000000 0.000000
# 2 -0.018407 0.024829 -0.004083 0.000000 0.000000 0.000000
# 3 -0.010136 -0.004083 0.008278 0.000000 0.000000 0.000000
# 4 0.000000 0.000000 0.000000 0.027980 0.000000 0.000000
# 5 0.000000 0.000000 0.000000 0.000000 -0.071240 0.000000
# 6 0.000000 0.000000 0.000000 0.000000 0.000000 0.057956
#
#
# Mechanical properties :
#
#
# Convention : Reuss Voigt Hill
#
# Bulk Modulus (GPa) = 26.09718 70.34346 48.22032
# Shear Modulus (GPa) = 25.47223 19.04576 22.25899
#
# Velocity S-wave (km/s) = 3.76314 3.25398 3.51778
# Velocity P-wave (km/s) = 5.77843 7.29555 6.58085
#
# Compressibility (1/GPa) = 0.03831831
#
# Stress axis : x y z
#
# Youngs Moduli (GPa) = 14.19177 40.27523 120.79822
#
# Poissons Ratio (x) = 0.74133 1.22444
# Poissons Ratio (y) = 0.26122 0.49328
# Poissons Ratio (z) = 0.14385 0.16446
#
# Static dielectric constant tensor:
#      x y z
#    x 1.575520 0.000000 0.000000 
#    y 0.000000 1.599490 0.000000 
#    z 0.000000 0.000000 1.686110 
# 
# From -- ./inp_files/77928.got.cif
#   From: 2010.05.17/outbox.cif.g08.bks.cpg/sg65_39_cif.got.tgz:77928.got - 2010.06.03 17:01:31.
