data_PCOD9486086
_publ_section_title
;
Structure prediction by ZEFSAII (Michael W. Deem and Ramdas Pophale) SiO2 
 PCOD9486086
Probable space group: C M M M
;
_chemical_formula_sum "Si O2"
_cell_formula_units_Z 80
_cell_length_a 7.967054
_cell_length_b 26.476179
_cell_length_c 24.633111
_cell_angle_alpha 90.000000
_cell_angle_beta 90.000000
_cell_angle_gamma 90.000000
_cell_volume 5196.038176
_symmetry_space_group_name_H-M "C M M M"
_symmetry_group_IT_number 65
_symmetry_cell_setting 'orthorhombic'
loop_
_space_group_symop_operation_xyz
x,y,z
-x,-y,z
x,-y,-z
-x,y,-z
-x,-y,-z
x,y,-z
-x,y,z
x,-y,z
1/2+x,1/2+y,z
1/2-x,1/2-y,z
1/2+x,1/2-y,-z
1/2-x,1/2+y,-z
1/2-x,1/2-y,-z
1/2+x,1/2+y,-z
1/2-x,1/2+y,z
1/2+x,1/2-y,z
loop_
_atom_site_type_symbol
_atom_site_label
_atom_site_fract_x
_atom_site_fract_y
_atom_site_fract_z
Si Si1 0.000000 0.938346 0.562570
Si Si2 0.686913 0.938540 0.364562
Si Si3 0.797568 0.806485 0.937838
Si Si4 0.298100 0.598677 0.130409
Si Si5 0.203153 0.059310 0.244931
Si Si6 0.701115 0.000000 0.937751
O O1 0.834533 0.921915 0.595354
O O2 0.000000 0.922300 0.500000
O O3 0.000000 0.000000 0.562797
O O4 0.500000 0.922943 0.381146
O O5 0.723375 0.923498 0.302398
O O6 0.691512 0.000000 0.364427
O O7 0.750000 0.750000 0.920528
O O8 0.734178 0.850919 0.898999
O O9 0.000000 0.809470 0.939062
O O10 0.737058 0.813690 0.000000
O O11 0.500000 0.602390 0.133759
O O12 0.237823 0.589028 0.191734
O O13 0.258910 0.549805 0.094041
O O14 0.000000 0.062063 0.248772
O O15 0.245510 0.000000 0.237090
O O16 0.500000 0.000000 0.938739
O O17 0.763136 0.000000 0.000000
#
# Coordination Sequence:
#
# PCOD9486086 Si02
#       6
#     8  16  16  16  16   8
#     4   9  16  26  38  54  78 108 146 192 222 248
#     4   9  16  25  38  55  77 110 144 180 223 261
#     4   9  18  32  49  66  83 108 144 185 227 274
#     4  10  19  32  49  66  82 111 149 184 220 274
#     4   9  15  26  42  59  82 107 139 181 222 260
#     4  11  23  33  41  61  93 117 135 176 235 278
#
# _framework density 15.396345
#
# number of rings (size 3 to 8) (size 9 to 14) (size 15 to 20)
#    0.000    2.600    2.000    0.900    0.000    3.600 
#    0.000    4.000    0.000    0.000    0.000    0.000 
#    0.000    0.000    0.000    0.000    0.000    1.000 
#
# Total GULP energy -222948.458295 kJ/mol
# GULP energy per Si atom -5573.711457 kJ/mol
# Density = 1.536130 g / cm^3
# Si number density = 15.396345 Si / 1000 Ang^3
#
#
#
# Elastic Constant Matrix: (Units=GPa)
#
#
# Indices 1 2 3 4 5 6 
#
# 1 55.0472 18.0283 51.8010 0.0000 0.0000 0.0000
# 2 18.0283 67.4986 48.7811 0.0000 0.0000 0.0000
# 3 51.8010 48.7811 138.4890 0.0000 0.0000 0.0000
# 4 0.0000 0.0000 0.0000 1.5256 0.0000 0.0000
# 5 0.0000 0.0000 0.0000 0.0000 6.2391 0.0000
# 6 0.0000 0.0000 0.0000 0.0000 0.0000 12.5221
#
#
#
# Elastic Compliance Matrix: (Units=1/GPa)
#
#
# Indices 1 2 3 4 5 6 
#
# 1 0.028035 0.000121 -0.010529 0.000000 0.000000 0.000000
# 2 0.000121 0.019875 -0.007046 0.000000 0.000000 0.000000
# 3 -0.010529 -0.007046 0.013641 0.000000 0.000000 0.000000
# 4 0.000000 0.000000 0.000000 0.655471 0.000000 0.000000
# 5 0.000000 0.000000 0.000000 0.000000 0.160279 0.000000
# 6 0.000000 0.000000 0.000000 0.000000 0.000000 0.079859
#
#
# Mechanical properties :
#
#
# Convention : Reuss Voigt Hill
#
# Bulk Modulus (GPa) = 37.53301 55.36174 46.44737
# Shear Modulus (GPa) = 4.99526 13.55232 9.27379
#
# Velocity S-wave (km/s) = 1.80319 2.97009 2.45692
# Velocity P-wave (km/s) = 5.36341 6.91358 6.18724
#
# Compressibility (1/GPa) = 0.02664321
#
# Stress axis : x y z
#
# Youngs Moduli (GPa) = 35.67033 50.31472 73.30841
#
# Poissons Ratio (x) = -0.00611 0.77186
# Poissons Ratio (y) = -0.00433 0.51654
# Poissons Ratio (z) = 0.37557 0.35452
#
# Static dielectric constant tensor:
#      x y z
#    x 1.548400 0.000000 0.000000 
#    y 0.000000 1.478140 0.000000 
#    z 0.000000 0.000000 1.519190 
# 
# From -- ./inp_files/60093.got.cif
#   From: 2010.05.17/outbox.cif.g08.bks.cpg/sg65_31_cif.got.tgz:60093.got - 2010.06.03 17:01:31.
