data_PCOD9486290
_publ_section_title
;
Structure prediction by ZEFSAII (Michael W. Deem and Ramdas Pophale) SiO2 
 PCOD9486290
Probable space group: C M M M
;
_chemical_formula_sum "Si O2"
_cell_formula_units_Z 116
_cell_length_a 7.459974
_cell_length_b 25.593316
_cell_length_c 27.590704
_cell_angle_alpha 90.000000
_cell_angle_beta 90.000000
_cell_angle_gamma 90.000000
_cell_volume 5267.768182
_symmetry_space_group_name_H-M "C M M M"
_symmetry_group_IT_number 65
_symmetry_cell_setting 'orthorhombic'
loop_
_space_group_symop_operation_xyz
x,y,z
-x,-y,z
x,-y,-z
-x,y,-z
-x,-y,-z
x,y,-z
-x,y,z
x,-y,z
1/2+x,1/2+y,z
1/2-x,1/2-y,z
1/2+x,1/2-y,-z
1/2-x,1/2+y,-z
1/2-x,1/2-y,-z
1/2+x,1/2+y,-z
1/2-x,1/2+y,z
1/2+x,1/2-y,z
loop_
_atom_site_type_symbol
_atom_site_label
_atom_site_fract_x
_atom_site_fract_y
_atom_site_fract_z
Si Si1 0.707774 0.584551 0.840221
Si Si2 0.500000 0.000000 0.808524
Si Si3 0.793294 0.920797 0.448276
Si Si4 0.283067 0.561054 0.052509
Si Si5 0.707351 0.828831 0.312436
Si Si6 0.786715 0.692600 0.580839
Si Si7 0.786698 0.307083 0.792337
Si Si8 0.217491 0.943315 0.340189
O O1 0.500000 0.566029 0.838510
O O2 0.770105 0.585683 0.896607
O O3 0.712769 0.642974 0.819838
O O4 0.841746 0.545887 0.812548
O O5 0.712679 0.936799 0.500000
O O6 0.789772 0.857798 0.445651
O O7 0.719499 0.938943 0.396391
O O8 0.000000 0.937967 0.448439
O O9 0.500000 0.562867 0.051359
O O10 0.230988 0.500000 0.055366
O O11 0.220310 0.581510 0.000000
O O12 0.500000 0.812732 0.313725
O O13 0.785559 0.810323 0.363752
O O14 0.787599 0.808358 0.262790
O O15 0.716817 0.891952 0.313078
O O16 0.750000 0.750000 0.560864
O O17 0.000000 0.684578 0.581445
O O18 0.750000 0.250000 0.813645
O O19 0.000000 0.314397 0.789745
O O20 0.000000 0.940940 0.340222
O O21 0.272202 0.000000 0.320486
#
# Coordination Sequence:
#
# PCOD9486290 Si02
#       8
#    16   4  16  16  16  16  16  16
#     4  11  22  39  62  91 129 171 210 261 320 375
#     4  12  22  40  61  92 136 168 212 262 317 388
#     4   9  18  32  49  69  96 131 168 207 254 311
#     4   8  14  28  53  84 120 162 205 253 312 372
#     4   9  20  37  56  78 105 137 175 224 280 336
#     4  10  19  32  51  74  98 127 162 206 262 317
#     4  11  23  41  62  87 119 158 208 258 307 370
#     4   9  18  33  52  76 105 133 170 219 268 330
#
# _framework density 22.020710999999999
#
# number of rings (size 3 to 8) (size 9 to 14) (size 15 to 20)
#    0.000    2.345    1.379    1.862    0.000    2.759 
#    1.241    2.069    0.000    0.414    0.000    3.862 
#    0.000    0.000    0.000    0.000    0.000    0.000 
#
# Total GULP energy -323366.345097 kJ/mol
# GULP energy per Si atom -5575.281812 kJ/mol
# Density = 2.197059 g / cm^3
# Si number density = 22.020711 Si / 1000 Ang^3
#
#
#
# Elastic Constant Matrix: (Units=GPa)
#
#
# Indices 1 2 3 4 5 6 
#
# 1 101.9924 2.2509 -1.0356 0.0000 0.0000 0.0000
# 2 2.2509 142.5902 24.2676 0.0000 0.0000 0.0000
# 3 -1.0356 24.2676 62.2048 0.0000 0.0000 0.0000
# 4 0.0000 0.0000 0.0000 536.1361 0.0000 0.0000
# 5 0.0000 0.0000 0.0000 0.0000 13.0782 0.0000
# 6 0.0000 0.0000 0.0000 0.0000 0.0000 21.9759
#
#
#
# Elastic Compliance Matrix: (Units=1/GPa)
#
#
# Indices 1 2 3 4 5 6 
#
# 1 0.009811 -0.000196 0.000240 0.000000 0.000000 0.000000
# 2 -0.000196 0.007516 -0.002935 0.000000 0.000000 0.000000
# 3 0.000240 -0.002935 0.017225 0.000000 0.000000 0.000000
# 4 0.000000 0.000000 0.000000 0.001865 0.000000 0.000000
# 5 0.000000 0.000000 0.000000 0.000000 0.076463 0.000000
# 6 0.000000 0.000000 0.000000 0.000000 0.000000 0.045504
#
#
# Mechanical properties :
#
#
# Convention : Reuss Voigt Hill
#
# Bulk Modulus (GPa) = 34.75895 39.75035 37.25465
# Shear Modulus (GPa) = 28.77569 132.99165 80.88367
#
# Velocity S-wave (km/s) = 3.61883 7.77978 6.06716
# Velocity P-wave (km/s) = 5.76890 9.93934 8.12621
#
# Compressibility (1/GPa) = 0.02876957
#
# Stress axis : x y z
#
# Youngs Moduli (GPa) = 101.92217 133.05367 58.05496
#
# Poissons Ratio (x) = 0.02604 -0.01391
# Poissons Ratio (y) = 0.01994 0.17041
# Poissons Ratio (z) = -0.02443 0.39056
#
# Static dielectric constant tensor:
#      x y z
#    x 1.846550 0.000000 0.000000 
#    y 0.000000 1.791310 0.000000 
#    z 0.000000 0.000000 1.854750 
# 
# From -- ./inp_files/73683.got.cif
#   From: 2010.05.17/outbox.cif.g08.bks.cpg/sg65_37_cif.got.tgz:73683.got - 2010.06.03 17:01:31.
