data_PCOD9486776
_publ_section_title
;
Structure prediction by ZEFSAII (Michael W. Deem and Ramdas Pophale) SiO2 
 PCOD9486776
Probable space group: C M M M
;
_chemical_formula_sum "Si O2"
_cell_formula_units_Z 128
_cell_length_a 15.581707
_cell_length_b 22.572520
_cell_length_c 19.013404
_cell_angle_alpha 90.000000
_cell_angle_beta 90.000000
_cell_angle_gamma 90.000000
_cell_volume 6687.363898
_symmetry_space_group_name_H-M "C M M M"
_symmetry_group_IT_number 65
_symmetry_cell_setting 'orthorhombic'
loop_
_space_group_symop_operation_xyz
x,y,z
-x,-y,z
x,-y,-z
-x,y,-z
-x,-y,-z
x,y,-z
-x,y,z
x,-y,z
1/2+x,1/2+y,z
1/2-x,1/2-y,z
1/2+x,1/2-y,-z
1/2-x,1/2+y,-z
1/2-x,1/2-y,-z
1/2+x,1/2+y,-z
1/2-x,1/2+y,z
1/2+x,1/2-y,z
loop_
_atom_site_type_symbol
_atom_site_label
_atom_site_fract_x
_atom_site_fract_y
_atom_site_fract_z
Si Si1 0.230313 0.935537 0.205686
Si Si2 0.599982 0.815017 0.332757
Si Si3 0.898988 0.833145 0.815936
Si Si4 0.627165 0.065580 0.580146
Si Si5 0.599323 0.311186 0.351797
Si Si6 0.603003 0.870671 0.812884
Si Si7 0.603634 0.771170 0.078986
Si Si8 0.315120 0.564920 0.371437
O O1 0.166758 0.886685 0.174898
O O2 0.330302 0.923993 0.190515
O O3 0.216106 0.934130 0.290075
O O4 0.204848 0.000000 0.179973
O O5 0.500000 0.800624 0.323109
O O6 0.604027 0.875871 0.376404
O O7 0.637123 0.754753 0.366856
O O8 0.630940 0.830541 0.254441
O O9 0.895260 0.815239 0.733530
O O10 0.870824 0.780687 0.867646
O O11 0.000000 0.847595 0.829302
O O12 0.597542 0.070683 0.500000
O O13 0.730047 0.064499 0.582305
O O14 0.599938 0.000000 0.607787
O O15 0.500000 0.312857 0.373678
O O16 0.639190 0.371921 0.381431
O O17 0.500000 0.883007 0.807077
O O18 0.620115 0.833285 0.882927
O O19 0.500000 0.766847 0.075371
O O20 0.637863 0.766395 0.000000
O O21 0.359715 0.500000 0.381370
#
# Coordination Sequence:
#
# PCOD9486776 Si02
#       8
#    16  16  16  16  16  16  16  16
#     4  10  20  33  51  78 106 136 182 227 264 319
#     4  10  19  33  53  76 105 137 174 221 268 316
#     4   9  17  32  53  78 108 138 171 218 277 324
#     4  10  21  37  54  74 105 141 176 217 264 316
#     4   9  17  31  52  78 106 134 168 219 274 318
#     4  10  19  33  53  77 108 143 178 221 270 316
#     4   9  17  32  55  82 111 141 178 224 271 325
#     4   9  18  33  51  75 105 136 175 217 262 320
#
# _framework density 19.140577
#
# number of rings (size 3 to 8) (size 9 to 14) (size 15 to 20)
#    0.000    2.500    2.500    0.000    0.000    2.250 
#    0.000    6.875    0.000    2.625    0.000    5.250 
#    0.000    0.000    0.000    0.000    0.000    0.000 
#
# Total GULP energy -356298.168090 kJ/mol
# GULP energy per Si atom -5567.158876 kJ/mol
# Density = 1.909701 g / cm^3
# Si number density = 19.140577 Si / 1000 Ang^3
#
#
#
# Elastic Constant Matrix: (Units=GPa)
#
#
# Indices 1 2 3 4 5 6 
#
# 1 40.3229 28.0753 1.0677 0.0000 0.0000 0.0000
# 2 28.0753 124.3749 12.6714 0.0000 0.0000 0.0000
# 3 1.0677 12.6714 31.6799 0.0000 0.0000 0.0000
# 4 0.0000 0.0000 0.0000 16.2292 0.0000 0.0000
# 5 0.0000 0.0000 0.0000 0.0000 14.5355 0.0000
# 6 0.0000 0.0000 0.0000 0.0000 0.0000 32.2222
#
#
#
# Elastic Compliance Matrix: (Units=1/GPa)
#
#
# Indices 1 2 3 4 5 6 
#
# 1 0.029516 -0.006840 0.001741 0.000000 0.000000 0.000000
# 2 -0.006840 0.009967 -0.003756 0.000000 0.000000 0.000000
# 3 0.001741 -0.003756 0.033009 0.000000 0.000000 0.000000
# 4 0.000000 0.000000 0.000000 0.061617 0.000000 0.000000
# 5 0.000000 0.000000 0.000000 0.000000 0.068797 0.000000
# 6 0.000000 0.000000 0.000000 0.000000 0.000000 0.031035
#
#
# Mechanical properties :
#
#
# Convention : Reuss Voigt Hill
#
# Bulk Modulus (GPa) = 18.25398 31.11184 24.68291
# Shear Modulus (GPa) = 18.52455 22.90161 20.71308
#
# Velocity S-wave (km/s) = 3.11435 3.46279 3.29318
# Velocity P-wave (km/s) = 4.74233 5.68134 5.23294
#
# Compressibility (1/GPa) = 0.05478258
#
# Stress axis : x y z
#
# Youngs Moduli (GPa) = 33.87966 100.33197 30.29433
#
# Poissons Ratio (x) = 0.68628 -0.05275
# Poissons Ratio (y) = 0.23174 0.11379
# Poissons Ratio (z) = -0.05899 0.37686
#
# Static dielectric constant tensor:
#      x y z
#    x 1.690790 0.000000 0.000000 
#    y 0.000000 1.722810 0.000000 
#    z 0.000000 0.000000 1.663030 
# 
# From -- ./inp_files/64104.got.cif
#   From: 2010.05.17/outbox.cif.g08.bks.cpg/sg65_33_cif.got.tgz:64104.got - 2010.06.03 17:01:31.
