data_PCOD9486300
_publ_section_title
;
Structure prediction by ZEFSAII (Michael W. Deem and Ramdas Pophale) SiO2 
 PCOD9486300
Probable space group: C M M M
;
_chemical_formula_sum "Si O2"
_cell_formula_units_Z 88
_cell_length_a 35.884067
_cell_length_b 7.462747
_cell_length_c 15.280893
_cell_angle_alpha 90.000000
_cell_angle_beta 90.000000
_cell_angle_gamma 90.000000
_cell_volume 4092.127080
_symmetry_space_group_name_H-M "C M M M"
_symmetry_group_IT_number 65
_symmetry_cell_setting 'orthorhombic'
loop_
_space_group_symop_operation_xyz
x,y,z
-x,-y,z
x,-y,-z
-x,y,-z
-x,-y,-z
x,y,-z
-x,y,z
x,-y,z
1/2+x,1/2+y,z
1/2-x,1/2-y,z
1/2+x,1/2-y,-z
1/2-x,1/2+y,-z
1/2-x,1/2-y,-z
1/2+x,1/2+y,-z
1/2-x,1/2+y,z
1/2+x,1/2-y,z
loop_
_atom_site_type_symbol
_atom_site_label
_atom_site_fract_x
_atom_site_fract_y
_atom_site_fract_z
Si Si1 0.153027 0.720505 0.252137
Si Si2 0.955462 0.788018 0.905575
Si Si3 0.429558 0.203151 0.716116
Si Si4 0.792567 0.285354 0.900337
Si Si5 0.707924 0.786141 0.402055
Si Si6 0.500000 0.219341 0.397023
O O1 0.151558 0.500000 0.248274
O O2 0.111499 0.784889 0.274404
O O3 0.174622 0.778502 0.164007
O O4 0.179026 0.779224 0.331617
O O5 0.942732 0.699055 0.816686
O O6 0.000000 0.770354 0.908231
O O7 0.946946 0.000000 0.899438
O O8 0.940725 0.722641 0.000000
O O9 0.462800 0.280220 0.655726
O O10 0.424373 0.000000 0.682964
O O11 0.795961 0.500000 0.903698
O O12 0.750000 0.250000 0.869127
O O13 0.795607 0.216071 0.000000
O O14 0.703123 0.713453 0.500000
O O15 0.750000 0.750000 0.373732
O O16 0.703358 0.000000 0.406445
O O17 0.500000 0.268697 0.500000
O O18 0.500000 0.000000 0.392816
#
# Coordination Sequence:
#
# PCOD9486300 Si02
#       6
#    16  16  16  16  16   8
#     4   9  18  30  46  70  98 125 155 195 242 286
#     4   9  18  33  52  72  97 129 159 193 244 297
#     4  10  19  32  51  75 100 128 167 209 245 289
#     4   9  17  30  47  66  91 125 160 192 229 275
#     4   9  17  30  48  69  93 123 158 196 240 290
#     4   9  18  32  50  73 100 128 161 205 252 291
#
# _framework density 21.504707
#
# number of rings (size 3 to 8) (size 9 to 14) (size 15 to 20)
#    0.000    2.818    0.909    1.091    0.000    1.818 
#    0.000    8.182    0.000    3.273    0.000    0.000 
#    0.000    0.000    0.000    0.000    0.000    0.000 
#
# Total GULP energy -245315.090655 kJ/mol
# GULP energy per Si atom -5575.342969 kJ/mol
# Density = 2.145576 g / cm^3
# Si number density = 21.504707 Si / 1000 Ang^3
#
#
#
# Elastic Constant Matrix: (Units=GPa)
#
#
# Indices 1 2 3 4 5 6 
#
# 1 169.6422 10.2270 116.8595 0.0000 0.0000 0.0000
# 2 10.2270 57.9291 7.8304 0.0000 0.0000 0.0000
# 3 116.8595 7.8304 141.3194 0.0000 0.0000 0.0000
# 4 0.0000 0.0000 0.0000 -33.6726 0.0000 0.0000
# 5 0.0000 0.0000 0.0000 0.0000 -20.8153 0.0000
# 6 0.0000 0.0000 0.0000 0.0000 0.0000 4.2301
#
#
#
# Elastic Compliance Matrix: (Units=1/GPa)
#
#
# Indices 1 2 3 4 5 6 
#
# 1 0.013743 -0.000897 -0.011315 0.000000 0.000000 0.000000
# 2 -0.000897 0.017451 -0.000225 0.000000 0.000000 0.000000
# 3 -0.011315 -0.000225 0.016445 0.000000 0.000000 0.000000
# 4 0.000000 0.000000 0.000000 -0.029698 0.000000 0.000000
# 5 0.000000 0.000000 0.000000 0.000000 -0.048042 0.000000
# 6 0.000000 0.000000 0.000000 0.000000 0.000000 0.236400
#
#
# Mechanical properties :
#
#
# Convention : Reuss Voigt Hill
#
# Bulk Modulus (GPa) = 43.92600 70.96938 57.44769
# Shear Modulus (GPa) = 20.94132 5.54670 13.24401
#
# Velocity S-wave (km/s) = 3.12397 1.60776 2.48436
# Velocity P-wave (km/s) = 5.78643 6.04317 5.91620
#
# Compressibility (1/GPa) = 0.02276556
#
# Stress axis : x y z
#
# Youngs Moduli (GPa) = 72.76406 57.30244 60.80883
#
# Poissons Ratio (x) = 0.05139 0.68803
# Poissons Ratio (y) = 0.06526 0.01370
# Poissons Ratio (z) = 0.82330 0.01291
#
# Static dielectric constant tensor:
#      x y z
#    x 1.710800 0.000000 0.000000 
#    y 0.000000 1.948810 0.000000 
#    z 0.000000 0.000000 1.773920 
# 
# From -- ./inp_files/47654.got.cif
#   From: 2010.05.17/outbox.cif.g08.bks.cpg/sg65_24_cif.got.tgz:47654.got - 2010.06.03 17:01:31.
