data_PCOD9486991
_publ_section_title
;
Structure prediction by ZEFSAII (Michael W. Deem and Ramdas Pophale) SiO2 
 PCOD9486991
Probable space group: C M M M
;
_chemical_formula_sum "Si O2"
_cell_formula_units_Z 88
_cell_length_a 16.704211
_cell_length_b 7.740184
_cell_length_c 31.687554
_cell_angle_alpha 90.000000
_cell_angle_beta 90.000000
_cell_angle_gamma 90.000000
_cell_volume 4097.000046
_symmetry_space_group_name_H-M "C M M M"
_symmetry_group_IT_number 65
_symmetry_cell_setting 'orthorhombic'
loop_
_space_group_symop_operation_xyz
x,y,z
-x,-y,z
x,-y,-z
-x,y,-z
-x,-y,-z
x,y,-z
-x,y,z
x,-y,z
1/2+x,1/2+y,z
1/2-x,1/2-y,z
1/2+x,1/2-y,-z
1/2-x,1/2+y,-z
1/2-x,1/2-y,-z
1/2+x,1/2+y,-z
1/2-x,1/2+y,z
1/2+x,1/2-y,z
loop_
_atom_site_type_symbol
_atom_site_label
_atom_site_fract_x
_atom_site_fract_y
_atom_site_fract_z
Si Si1 0.343046 0.796074 0.863747
Si Si2 0.500000 0.211364 0.548864
Si Si3 0.844325 0.708416 0.226811
Si Si4 0.591446 0.210814 0.316004
Si Si5 0.408754 0.293134 0.955099
Si Si6 0.839433 0.707520 0.402478
O O1 0.250000 0.750000 0.862776
O O2 0.376136 0.726388 0.818828
O O3 0.372990 0.744140 0.909642
O O4 0.353894 0.000000 0.861971
O O5 0.500000 0.261952 0.500000
O O6 0.582810 0.268579 0.571213
O O7 0.500000 0.000000 0.550746
O O8 0.853068 0.500000 0.226789
O O9 0.750000 0.750000 0.229171
O O10 0.884809 0.773843 0.269529
O O11 0.500000 0.257239 0.325917
O O12 0.647869 0.269646 0.354187
O O13 0.595004 0.000000 0.314986
O O14 0.500000 0.229146 0.954497
O O15 0.410180 0.500000 0.957515
O O16 0.371544 0.231114 0.000000
O O17 0.844613 0.500000 0.402126
O O18 0.750000 0.750000 0.417855
#
# Coordination Sequence:
#
# PCOD9486991 Si02
#       6
#    16   8  16  16  16  16
#     4  10  20  33  50  73 100 130 163 203 250 300
#     4   9  18  34  55  79 109 145 187 229 268 325
#     4   9  18  31  48  70  97 128 162 203 249 299
#     4   9  16  29  50  74 100 133 175 215 253 308
#     4   9  19  36  55  73  95 125 160 200 249 303
#     4  10  19  33  55  80 106 142 184 226 273 324
#
# _framework density 21.479130000000001
#
# number of rings (size 3 to 8) (size 9 to 14) (size 15 to 20)
#    0.000    2.636    0.909    1.636    0.000    2.909 
#    0.000    3.182    0.000    2.182    0.000    0.000 
#    0.000    0.000    0.000    0.000    0.000    0.000 
#
# Total GULP energy -245176.843023 kJ/mol
# GULP energy per Si atom -5572.200978 kJ/mol
# Density = 2.143024 g / cm^3
# Si number density = 21.479130 Si / 1000 Ang^3
#
#
#
# Elastic Constant Matrix: (Units=GPa)
#
#
# Indices 1 2 3 4 5 6 
#
# 1 101.5014 -2.1788 76.7100 0.0000 0.0000 0.0000
# 2 -2.1788 29.0251 14.0687 0.0000 0.0000 0.0000
# 3 76.7100 14.0687 192.7336 0.0000 0.0000 0.0000
# 4 0.0000 0.0000 0.0000 -3.7766 0.0000 0.0000
# 5 0.0000 0.0000 0.0000 0.0000 36.9689 0.0000
# 6 0.0000 0.0000 0.0000 0.0000 0.0000 0.5948
#
#
#
# Elastic Compliance Matrix: (Units=1/GPa)
#
#
# Indices 1 2 3 4 5 6 
#
# 1 0.014533 0.004037 -0.006079 0.000000 0.000000 0.000000
# 2 0.004037 0.036838 -0.004296 0.000000 0.000000 0.000000
# 3 -0.006079 -0.004296 0.007922 0.000000 0.000000 0.000000
# 4 0.000000 0.000000 0.000000 -0.264785 0.000000 0.000000
# 5 0.000000 0.000000 0.000000 0.000000 0.027050 0.000000
# 6 0.000000 0.000000 0.000000 0.000000 0.000000 1.681357
#
#
# Mechanical properties :
#
#
# Convention : Reuss Voigt Hill
#
# Bulk Modulus (GPa) = 21.45105 55.60667 38.52886
# Shear Modulus (GPa) = 3.26557 22.40143 12.83350
#
# Velocity S-wave (km/s) = 1.23436 3.23296 2.44701
# Velocity P-wave (km/s) = 3.46989 6.31514 5.09515
#
# Compressibility (1/GPa) = 0.04661777
#
# Stress axis : x y z
#
# Youngs Moduli (GPa) = 68.80917 27.14570 126.23721
#
# Poissons Ratio (x) = -0.10960 0.76739
# Poissons Ratio (y) = -0.27781 0.54231
# Poissons Ratio (z) = 0.41829 0.11662
#
# Static dielectric constant tensor:
#      x y z
#    x 1.756840 0.000000 0.000000 
#    y 0.000000 1.805760 0.000000 
#    z 0.000000 0.000000 1.852630 
# 
# From -- ./inp_files/77803.got.cif
#   From: 2010.05.17/outbox.cif.g08.bks.cpg/sg65_39_cif.got.tgz:77803.got - 2010.06.03 17:01:31.
