data_PCOD9486493
_publ_section_title
;
Structure prediction by ZEFSAII (Michael W. Deem and Ramdas Pophale) SiO2 
 PCOD9486493
Probable space group: C M M M
;
_chemical_formula_sum "Si O2"
_cell_formula_units_Z 112
_cell_length_a 18.548411
_cell_length_b 22.302464
_cell_length_c 14.121930
_cell_angle_alpha 90.000000
_cell_angle_beta 90.000000
_cell_angle_gamma 90.000000
_cell_volume 5841.893186
_symmetry_space_group_name_H-M "C M M M"
_symmetry_group_IT_number 65
_symmetry_cell_setting 'orthorhombic'
loop_
_space_group_symop_operation_xyz
x,y,z
-x,-y,z
x,-y,-z
-x,y,-z
-x,-y,-z
x,y,-z
-x,y,z
x,-y,z
1/2+x,1/2+y,z
1/2-x,1/2-y,z
1/2+x,1/2-y,-z
1/2-x,1/2+y,-z
1/2-x,1/2-y,-z
1/2+x,1/2+y,-z
1/2-x,1/2+y,z
1/2+x,1/2-y,z
loop_
_atom_site_type_symbol
_atom_site_label
_atom_site_fract_x
_atom_site_fract_y
_atom_site_fract_z
Si Si1 0.585520 0.169554 0.737662
Si Si2 0.218067 0.069940 0.898929
Si Si3 0.657199 0.602413 0.394997
Si Si4 0.830037 0.755782 0.392810
Si Si5 0.701153 0.071296 0.710563
Si Si6 0.587265 0.262215 0.108665
Si Si7 0.085112 0.110045 0.198455
O O1 0.500000 0.160026 0.737909
O O2 0.609864 0.219548 0.662346
O O3 0.629272 0.110402 0.708870
O O4 0.607488 0.200793 0.837629
O O5 0.259235 0.093049 0.807068
O O6 0.133555 0.074913 0.876677
O O7 0.237013 0.000000 0.903234
O O8 0.235509 0.098312 0.000000
O O9 0.636909 0.579730 0.500000
O O10 0.653140 0.674327 0.397609
O O11 0.739541 0.584353 0.370421
O O12 0.609204 0.587488 0.302836
O O13 0.824920 0.731446 0.500000
O O14 0.750000 0.750000 0.348615
O O15 0.688042 0.000000 0.712980
O O16 0.500000 0.262216 0.104689
O O17 0.605383 0.320348 0.173428
O O18 0.613550 0.267396 0.000000
O O19 0.000000 0.103563 0.187297
#
# Coordination Sequence:
#
# PCOD9486493 Si02
#       7
#    16  16  16  16  16  16  16
#     4  11  22  36  57  86 117 148 188 240 294 348
#     4   9  19  36  56  78 106 146 198 247 285 331
#     4  10  20  35  58  82 110 150 194 234 280 340
#     4  10  19  34  57  82 110 145 184 230 283 341
#     4  10  22  39  58  80 111 151 197 244 286 340
#     4   9  18  32  49  74 111 148 177 216 277 345
#     4  10  19  32  52  82 119 151 185 233 291 349
#
# _framework density 19.171866999999999
#
# number of rings (size 3 to 8) (size 9 to 14) (size 15 to 20)
#    0.000    2.143    2.857    0.429    0.000    2.857 
#    0.000    2.143    0.000    3.000    0.000   10.000 
#    0.000    0.000    0.000    0.000    0.000    0.000 
#
# Total GULP energy -311955.465738 kJ/mol
# GULP energy per Si atom -5570.633317 kJ/mol
# Density = 1.912823 g / cm^3
# Si number density = 19.171867 Si / 1000 Ang^3
#
#
#
# Elastic Constant Matrix: (Units=GPa)
#
#
# Indices 1 2 3 4 5 6 
#
# 1 57.6663 17.6740 4.5985 0.0000 0.0000 0.0000
# 2 17.6740 60.1591 13.7737 0.0000 0.0000 0.0000
# 3 4.5985 13.7737 86.5862 0.0000 0.0000 0.0000
# 4 0.0000 0.0000 0.0000 43.3544 0.0000 0.0000
# 5 0.0000 0.0000 0.0000 0.0000 12.5773 0.0000
# 6 0.0000 0.0000 0.0000 0.0000 0.0000 13.7403
#
#
#
# Elastic Compliance Matrix: (Units=1/GPa)
#
#
# Indices 1 2 3 4 5 6 
#
# 1 0.019058 -0.005570 -0.000126 0.000000 0.000000 0.000000
# 2 -0.005570 0.018879 -0.002707 0.000000 0.000000 0.000000
# 3 -0.000126 -0.002707 0.011987 0.000000 0.000000 0.000000
# 4 0.000000 0.000000 0.000000 0.023066 0.000000 0.000000
# 5 0.000000 0.000000 0.000000 0.000000 0.079508 0.000000
# 6 0.000000 0.000000 0.000000 0.000000 0.000000 0.072779
#
#
# Mechanical properties :
#
#
# Convention : Reuss Voigt Hill
#
# Bulk Modulus (GPa) = 30.19639 30.72266 30.45953
# Shear Modulus (GPa) = 19.75326 25.15875 22.45600
#
# Velocity S-wave (km/s) = 3.21335 3.62646 3.42614
# Velocity P-wave (km/s) = 5.43618 5.79609 5.61902
#
# Compressibility (1/GPa) = 0.03311654
#
# Stress axis : x y z
#
# Youngs Moduli (GPa) = 52.47019 52.96908 83.42683
#
# Poissons Ratio (x) = 0.29505 0.01052
# Poissons Ratio (y) = 0.29227 0.22586
# Poissons Ratio (z) = 0.00662 0.14341
#
# Static dielectric constant tensor:
#      x y z
#    x 1.653330 0.000000 0.000000 
#    y 0.000000 1.697840 0.000000 
#    z 0.000000 0.000000 1.733610 
# 
# From -- ./inp_files/40774.got.cif
#   From: 2010.05.17/outbox.cif.g08.bks.cpg/sg65_21_cif.got.tgz:40774.got - 2010.06.03 17:01:31.
