data_PCOD9486907
_publ_section_title
;
Structure prediction by ZEFSAII (Michael W. Deem and Ramdas Pophale) SiO2 
 PCOD9486907
Probable space group: C M M M
;
_chemical_formula_sum "Si O2"
_cell_formula_units_Z 88
_cell_length_a 18.671767
_cell_length_b 8.141180
_cell_length_c 30.060032
_cell_angle_alpha 90.000000
_cell_angle_beta 90.000000
_cell_angle_gamma 90.000000
_cell_volume 4569.431959
_symmetry_space_group_name_H-M "C M M M"
_symmetry_group_IT_number 65
_symmetry_cell_setting 'orthorhombic'
loop_
_space_group_symop_operation_xyz
x,y,z
-x,-y,z
x,-y,-z
-x,y,-z
-x,-y,-z
x,y,-z
-x,y,z
x,-y,z
1/2+x,1/2+y,z
1/2-x,1/2-y,z
1/2+x,1/2-y,-z
1/2-x,1/2+y,-z
1/2-x,1/2-y,-z
1/2+x,1/2+y,-z
1/2-x,1/2+y,z
1/2+x,1/2-y,z
loop_
_atom_site_type_symbol
_atom_site_label
_atom_site_fract_x
_atom_site_fract_y
_atom_site_fract_z
Si Si1 0.167030 0.196937 0.403064
Si Si2 0.581432 0.197686 0.316405
Si Si3 0.417631 0.802774 0.143427
Si Si4 0.832157 0.698741 0.770162
Si Si5 0.333183 0.698046 0.500000
Si Si6 0.915496 0.802487 0.048011
O O1 0.250000 0.250000 0.398453
O O2 0.121187 0.259693 0.361983
O O3 0.139065 0.255106 0.451809
O O4 0.165269 0.000000 0.402706
O O5 0.500000 0.259889 0.315930
O O6 0.625851 0.257835 0.273668
O O7 0.578759 0.000000 0.313089
O O8 0.500000 0.740812 0.146317
O O9 0.371161 0.742303 0.184873
O O10 0.386392 0.759968 0.094890
O O11 0.420855 0.000000 0.146281
O O12 0.835052 0.500000 0.770253
O O13 0.750000 0.750000 0.768790
O O14 0.337661 0.500000 0.500000
O O15 0.250000 0.750000 0.500000
O O16 0.000000 0.755975 0.048104
O O17 0.912085 0.000000 0.048557
O O18 0.885670 0.745881 0.000000
#
# Coordination Sequence:
#
# PCOD9486907 Si02
#       6
#    16  16  16  16   8  16
#     4  10  19  33  54  79 106 136 172 211 251 297
#     4  10  21  37  55  75 102 135 169 208 256 305
#     4   9  17  30  49  72  97 126 161 200 241 286
#     4  10  21  36  53  73  98 129 164 203 248 298
#     4   8  16  30  49  74 103 135 169 207 249 292
#     4   8  14  25  42  67  99 130 158 192 237 286
#
# _framework density 19.258412
#
# number of rings (size 3 to 8) (size 9 to 14) (size 15 to 20)
#    0.000    2.727    0.000    2.182    0.000    6.545 
#    0.000    2.273    0.000    6.545    0.000    0.000 
#    0.000    0.000    0.000    0.000    0.000    0.000 
#
# Total GULP energy -245215.745662 kJ/mol
# GULP energy per Si atom -5573.085129 kJ/mol
# Density = 1.921458 g / cm^3
# Si number density = 19.258412 Si / 1000 Ang^3
#
#
#
# Elastic Constant Matrix: (Units=GPa)
#
#
# Indices 1 2 3 4 5 6 
#
# 1 96.5983 7.5929 96.4911 0.0000 0.0000 0.0000
# 2 7.5929 8.1331 15.3762 0.0000 0.0000 0.0000
# 3 96.4911 15.3762 247.7011 0.0000 0.0000 0.0000
# 4 0.0000 0.0000 0.0000 27.3829 0.0000 0.0000
# 5 0.0000 0.0000 0.0000 0.0000 31.2703 0.0000
# 6 0.0000 0.0000 0.0000 0.0000 0.0000 20.5009
#
#
#
# Elastic Compliance Matrix: (Units=1/GPa)
#
#
# Indices 1 2 3 4 5 6 
#
# 1 0.017050 -0.003808 -0.006405 0.000000 0.000000 0.000000
# 2 -0.003808 0.140153 -0.007217 0.000000 0.000000 0.000000
# 3 -0.006405 -0.007217 0.006980 0.000000 0.000000 0.000000
# 4 0.000000 0.000000 0.000000 0.036519 0.000000 0.000000
# 5 0.000000 0.000000 0.000000 0.000000 0.031979 0.000000
# 6 0.000000 0.000000 0.000000 0.000000 0.000000 0.048778
#
#
# Mechanical properties :
#
#
# Convention : Reuss Voigt Hill
#
# Bulk Modulus (GPa) = 7.73253 65.70587 36.71920
# Shear Modulus (GPa) = 13.91103 31.36230 22.63667
#
# Velocity S-wave (km/s) = 2.69054 4.03984 3.43215
# Velocity P-wave (km/s) = 3.69809 7.48014 5.90036
#
# Compressibility (1/GPa) = 0.12932381
#
# Stress axis : x y z
#
# Youngs Moduli (GPa) = 58.65246 7.13504 143.26110
#
# Poissons Ratio (x) = 0.02717 0.91762
# Poissons Ratio (y) = 0.22332 1.03390
# Poissons Ratio (z) = 0.37568 0.05149
#
# Static dielectric constant tensor:
#      x y z
#    x 1.638160 0.000000 0.000000 
#    y 0.000000 1.688450 0.000000 
#    z 0.000000 0.000000 1.716200 
# 
# From -- ./inp_files/77799.got.cif
#   From: 2010.05.17/outbox.cif.g08.bks.cpg/sg65_39_cif.got.tgz:77799.got - 2010.06.03 17:01:31.
