data_PCOD9486434
_publ_section_title
;
Structure prediction by ZEFSAII (Michael W. Deem and Ramdas Pophale) SiO2 
 PCOD9486434
Probable space group: C M M M
;
_chemical_formula_sum "Si O2"
_cell_formula_units_Z 104
_cell_length_a 8.156520
_cell_length_b 28.541690
_cell_length_c 24.242110
_cell_angle_alpha 90.000000
_cell_angle_beta 90.000000
_cell_angle_gamma 90.000000
_cell_volume 5643.584185
_symmetry_space_group_name_H-M "C M M M"
_symmetry_group_IT_number 65
_symmetry_cell_setting 'orthorhombic'
loop_
_space_group_symop_operation_xyz
x,y,z
-x,-y,z
x,-y,-z
-x,y,-z
-x,-y,-z
x,y,-z
-x,y,z
x,-y,z
1/2+x,1/2+y,z
1/2-x,1/2-y,z
1/2+x,1/2-y,-z
1/2-x,1/2+y,-z
1/2-x,1/2-y,-z
1/2+x,1/2+y,-z
1/2-x,1/2+y,z
1/2+x,1/2-y,z
loop_
_atom_site_type_symbol
_atom_site_label
_atom_site_fract_x
_atom_site_fract_y
_atom_site_fract_z
Si Si1 0.811190 0.302307 0.766904
Si Si2 0.685054 0.000000 0.433383
Si Si3 0.695267 0.635122 0.323658
Si Si4 0.687059 0.625001 0.148405
Si Si5 0.699381 0.101746 0.436947
Si Si6 0.305566 0.800752 0.062564
Si Si7 0.700090 0.553970 0.238241
O O1 0.750000 0.250000 0.770422
O O2 0.788770 0.322790 0.706041
O O3 0.699549 0.335445 0.804413
O O4 0.000000 0.306484 0.785096
O O5 0.763992 0.049607 0.420930
O O6 0.500000 0.000000 0.410118
O O7 0.670226 0.000000 0.500000
O O8 0.500000 0.640341 0.316858
O O9 0.739214 0.633444 0.387734
O O10 0.745759 0.587692 0.289754
O O11 0.500000 0.614217 0.134187
O O12 0.762846 0.652704 0.096883
O O13 0.756696 0.579653 0.181286
O O14 0.748599 0.112623 0.500000
O O15 0.500000 0.099777 0.436792
O O16 0.500000 0.798151 0.059919
O O17 0.250000 0.750000 0.086519
O O18 0.237560 0.803589 0.000000
O O19 0.500000 0.553883 0.236669
O O20 0.754219 0.500000 0.243419
#
# Coordination Sequence:
#
# PCOD9486434 Si02
#       7
#    16   8  16  16  16  16  16
#     4  11  21  35  54  74 100 129 163 203 248 298
#     4   7  12  24  41  61  87 121 159 195 232 279
#     4  10  20  32  49  74 101 128 164 205 251 300
#     4  10  19  32  52  77 104 134 169 206 248 296
#     4   9  17  30  47  67  95 131 167 203 246 297
#     4  10  20  33  50  74 105 138 171 208 251 299
#     4   8  16  31  49  70  98 131 165 205 249 290
#
# _framework density 18.428004999999999
#
# number of rings (size 3 to 8) (size 9 to 14) (size 15 to 20)
#    0.000    2.538    0.000    5.077    1.077    1.231 
#    0.000    0.000    0.000   11.538    0.000    3.231 
#    0.000    0.000    0.000    0.000    0.000    0.000 
#
# Total GULP energy -289600.651223 kJ/mol
# GULP energy per Si atom -5569.243293 kJ/mol
# Density = 1.838606 g / cm^3
# Si number density = 18.428005 Si / 1000 Ang^3
#
#
#
# Elastic Constant Matrix: (Units=GPa)
#
#
# Indices 1 2 3 4 5 6 
#
# 1 32.3303 -2.1548 2.2276 0.0000 0.0000 0.0000
# 2 -2.1548 55.9377 11.7610 0.0000 0.0000 0.0000
# 3 2.2276 11.7610 75.6303 0.0000 0.0000 0.0000
# 4 0.0000 0.0000 0.0000 16.3010 0.0000 0.0000
# 5 0.0000 0.0000 0.0000 0.0000 21.1056 0.0000
# 6 0.0000 0.0000 0.0000 0.0000 0.0000 12.6576
#
#
#
# Elastic Compliance Matrix: (Units=1/GPa)
#
#
# Indices 1 2 3 4 5 6 
#
# 1 0.031105 0.001438 -0.001140 0.000000 0.000000 0.000000
# 2 0.001438 0.018548 -0.002927 0.000000 0.000000 0.000000
# 3 -0.001140 -0.002927 0.013711 0.000000 0.000000 0.000000
# 4 0.000000 0.000000 0.000000 0.061346 0.000000 0.000000
# 5 0.000000 0.000000 0.000000 0.000000 0.047381 0.000000
# 6 0.000000 0.000000 0.000000 0.000000 0.000000 0.079004
#
#
# Mechanical properties :
#
#
# Convention : Reuss Voigt Hill
#
# Bulk Modulus (GPa) = 17.20975 20.84066 19.02520
# Shear Modulus (GPa) = 18.13431 20.15047 19.14239
#
# Velocity S-wave (km/s) = 3.14038 3.31035 3.22649
# Velocity P-wave (km/s) = 4.74431 5.09363 4.92207
#
# Compressibility (1/GPa) = 0.05810661
#
# Stress axis : x y z
#
# Youngs Moduli (GPa) = 32.14911 53.91486 72.93465
#
# Poissons Ratio (x) = -0.07752 0.08313
# Poissons Ratio (y) = -0.04623 0.21345
# Poissons Ratio (z) = 0.03664 0.15779
#
# Static dielectric constant tensor:
#      x y z
#    x 1.665250 0.000000 0.000000 
#    y 0.000000 1.653560 0.000000 
#    z 0.000000 0.000000 1.679170 
# 
# From -- ./inp_files/68183.got.cif
#   From: 2010.05.17/outbox.cif.g08.bks.cpg/sg65_35_cif.got.tgz:68183.got - 2010.06.03 17:01:31.
