data_PCOD9486853
_publ_section_title
;
Structure prediction by ZEFSAII (Michael W. Deem and Ramdas Pophale) SiO2 
 PCOD9486853
Probable space group: C M M M
;
_chemical_formula_sum "Si O2"
_cell_formula_units_Z 104
_cell_length_a 30.560366
_cell_length_b 7.480988
_cell_length_c 20.674377
_cell_angle_alpha 90.000000
_cell_angle_beta 90.000000
_cell_angle_gamma 90.000000
_cell_volume 4726.611864
_symmetry_space_group_name_H-M "C M M M"
_symmetry_group_IT_number 65
_symmetry_cell_setting 'orthorhombic'
loop_
_space_group_symop_operation_xyz
x,y,z
-x,-y,z
x,-y,-z
-x,y,-z
-x,-y,-z
x,y,-z
-x,y,z
x,-y,z
1/2+x,1/2+y,z
1/2-x,1/2-y,z
1/2+x,1/2-y,-z
1/2-x,1/2+y,-z
1/2-x,1/2-y,-z
1/2+x,1/2+y,-z
1/2-x,1/2+y,z
1/2+x,1/2-y,z
loop_
_atom_site_type_symbol
_atom_site_label
_atom_site_fract_x
_atom_site_fract_y
_atom_site_fract_z
Si Si1 0.889523 0.707573 0.116348
Si Si2 0.859706 0.280841 0.570528
Si Si3 0.700139 0.213437 0.686920
Si Si4 0.200145 0.285265 0.833914
Si Si5 0.949665 0.280484 0.000000
Si Si6 0.951977 0.710383 0.614848
Si Si7 0.450664 0.714308 0.765956
O O1 0.883995 0.500000 0.098625
O O2 0.840630 0.783580 0.124094
O O3 0.922473 0.781502 0.062654
O O4 0.914131 0.717529 0.185147
O O5 0.842470 0.228735 0.500000
O O6 0.859647 0.500000 0.572512
O O7 0.832109 0.217606 0.631937
O O8 0.909634 0.218830 0.578842
O O9 0.750000 0.250000 0.667726
O O10 0.694726 0.283336 0.760073
O O11 0.693828 0.000000 0.690510
O O12 0.195938 0.500000 0.831414
O O13 0.250000 0.250000 0.855153
O O14 0.951366 0.500000 0.000000
O O15 0.000000 0.220843 0.000000
O O16 0.954123 0.500000 0.599567
O O17 0.944085 0.727366 0.691966
O O18 0.000000 0.787871 0.600997
O O19 0.500000 0.772688 0.785409
O O20 0.449604 0.500000 0.767456
#
# Coordination Sequence:
#
# PCOD9486853 Si02
#       7
#    16  16  16  16   8  16  16
#     4  10  19  33  54  77 102 134 171 207 244 290
#     4   9  17  29  46  69  96 124 156 198 246 293
#     4   9  17  30  47  67  92 122 156 196 243 289
#     4   9  18  32  51  74  99 128 164 207 251 294
#     4   9  18  32  52  79 107 135 169 207 244 285
#     4   9  17  30  49  71  94 123 161 203 246 295
#     4  10  20  32  48  73 102 130 163 206 255 301
#
# _framework density 22.003077000000001
#
# number of rings (size 3 to 8) (size 9 to 14) (size 15 to 20)
#    0.000    2.692    0.000    1.846    0.000    5.231 
#    0.000    6.154    0.000    2.769    0.000    2.154 
#    0.000    0.000    0.000    0.000    0.000    0.000 
#
# Total GULP energy -290274.709829 kJ/mol
# GULP energy per Si atom -5582.205958 kJ/mol
# Density = 2.195300 g / cm^3
# Si number density = 22.003077 Si / 1000 Ang^3
#
#
#
# Elastic Constant Matrix: (Units=GPa)
#
#
# Indices 1 2 3 4 5 6 
#
# 1 174.2950 4.7114 71.9704 0.0000 0.0000 0.0000
# 2 4.7114 65.3071 0.7428 0.0000 0.0000 0.0000
# 3 71.9704 0.7428 44.8685 0.0000 0.0000 0.0000
# 4 0.0000 0.0000 0.0000 -21.3818 0.0000 0.0000
# 5 0.0000 0.0000 0.0000 0.0000 21.5434 0.0000
# 6 0.0000 0.0000 0.0000 0.0000 0.0000 14.4939
#
#
#
# Elastic Compliance Matrix: (Units=1/GPa)
#
#
# Indices 1 2 3 4 5 6 
#
# 1 0.017047 -0.000919 -0.027328 0.000000 0.000000 0.000000
# 2 -0.000919 0.015365 0.001220 0.000000 0.000000 0.000000
# 3 -0.027328 0.001220 0.066102 0.000000 0.000000 0.000000
# 4 0.000000 0.000000 0.000000 -0.046769 0.000000 0.000000
# 5 0.000000 0.000000 0.000000 0.000000 0.046418 0.000000
# 6 0.000000 0.000000 0.000000 0.000000 0.000000 0.068995
#
#
# Mechanical properties :
#
#
# Convention : Reuss Voigt Hill
#
# Bulk Modulus (GPa) = 22.49277 48.81331 35.65304
# Shear Modulus (GPa) = 21.18357 16.73414 18.95886
#
# Velocity S-wave (km/s) = 3.10620 2.76077 2.93856
# Velocity P-wave (km/s) = 4.80722 5.69170 5.26805
#
# Compressibility (1/GPa) = 0.04445874
#
# Stress axis : x y z
#
# Youngs Moduli (GPa) = 58.66256 65.08424 15.12809
#
# Poissons Ratio (x) = 0.05981 0.41342
# Poissons Ratio (y) = 0.05391 -0.01845
# Poissons Ratio (z) = 1.60314 -0.07938
#
# Static dielectric constant tensor:
#      x y z
#    x 1.792480 0.000000 0.000000 
#    y 0.000000 1.858950 0.000000 
#    z 0.000000 0.000000 1.784250 
# 
# From -- ./inp_files/66330.got.cif
#   From: 2010.05.17/outbox.cif.g08.bks.cpg/sg65_34_cif.got.tgz:66330.got - 2010.06.03 17:01:31.
