data_PCOD9486294
_publ_section_title
;
Structure prediction by ZEFSAII (Michael W. Deem and Ramdas Pophale) SiO2 
 PCOD9486294
Probable space group: C M M M
;
_chemical_formula_sum "Si O2"
_cell_formula_units_Z 88
_cell_length_a 19.405909
_cell_length_b 8.795261
_cell_length_c 29.350641
_cell_angle_alpha 90.000000
_cell_angle_beta 90.000000
_cell_angle_gamma 90.000000
_cell_volume 5009.568421
_symmetry_space_group_name_H-M "C M M M"
_symmetry_group_IT_number 65
_symmetry_cell_setting 'orthorhombic'
loop_
_space_group_symop_operation_xyz
x,y,z
-x,-y,z
x,-y,-z
-x,y,-z
-x,-y,-z
x,y,-z
-x,y,z
x,-y,z
1/2+x,1/2+y,z
1/2-x,1/2-y,z
1/2+x,1/2-y,-z
1/2-x,1/2+y,-z
1/2-x,1/2-y,-z
1/2+x,1/2+y,-z
1/2-x,1/2+y,z
1/2+x,1/2-y,z
loop_
_atom_site_type_symbol
_atom_site_label
_atom_site_fract_x
_atom_site_fract_y
_atom_site_fract_z
Si Si1 0.584081 0.175963 0.500000
Si Si2 0.417928 0.179777 0.310038
Si Si3 0.920458 0.684939 0.050716
Si Si4 0.173651 0.818686 0.768794
Si Si5 0.083812 0.825505 0.405505
Si Si6 0.673560 0.816375 0.135077
O O1 0.500000 0.181620 0.500000
O O2 0.607368 0.256187 0.453504
O O3 0.603942 0.000000 0.500000
O O4 0.500000 0.209441 0.305536
O O5 0.375642 0.269944 0.272213
O O6 0.396508 0.231121 0.360816
O O7 0.406750 0.000000 0.304454
O O8 0.919768 0.500000 0.050675
O O9 0.873265 0.732884 0.092590
O O10 0.000000 0.731532 0.056798
O O11 0.897518 0.733941 0.000000
O O12 0.250000 0.750000 0.761266
O O13 0.147860 0.747985 0.816585
O O14 0.178429 0.000000 0.772641
O O15 0.000000 0.823593 0.406820
O O16 0.105744 0.000000 0.400896
O O17 0.750000 0.750000 0.128961
O O18 0.675886 0.000000 0.137110
#
# Coordination Sequence:
#
# PCOD9486294 Si02
#       6
#     8  16  16  16  16  16
#     4   9  15  23  37  59  90 129 168 205 250 301
#     4  10  20  34  52  75 103 133 167 208 254 305
#     4   8  15  29  49  73 100 130 165 203 242 288
#     4  11  22  37  55  74 100 133 170 211 255 304
#     4   9  16  26  41  64  95 129 165 206 252 300
#     4  10  19  32  51  74  99 128 163 204 249 296
#
# _framework density 17.566382999999998
#
# number of rings (size 3 to 8) (size 9 to 14) (size 15 to 20)
#    0.000    2.455    0.000    5.182    0.000    5.455 
#    0.000    1.818    0.000    3.273    0.000    5.727 
#    0.000    0.000    0.000    0.000    0.000    0.000 
#
# Total GULP energy -245371.009128 kJ/mol
# GULP energy per Si atom -5576.613844 kJ/mol
# Density = 1.752640 g / cm^3
# Si number density = 17.566383 Si / 1000 Ang^3
#
#
#
# Elastic Constant Matrix: (Units=GPa)
#
#
# Indices 1 2 3 4 5 6 
#
# 1 26.4530 25.8616 53.0458 0.0000 0.0000 0.0000
# 2 25.8616 93.8790 52.3623 0.0000 0.0000 0.0000
# 3 53.0458 52.3623 165.9364 0.0000 0.0000 0.0000
# 4 0.0000 0.0000 0.0000 26.3507 0.0000 0.0000
# 5 0.0000 0.0000 0.0000 0.0000 -49.3954 0.0000
# 6 0.0000 0.0000 0.0000 0.0000 0.0000 18.7912
#
#
#
# Elastic Compliance Matrix: (Units=1/GPa)
#
#
# Indices 1 2 3 4 5 6 
#
# 1 0.118768 -0.014006 -0.033547 0.000000 0.000000 0.000000
# 2 -0.014006 0.014579 -0.000123 0.000000 0.000000 0.000000
# 3 -0.033547 -0.000123 0.016789 0.000000 0.000000 0.000000
# 4 0.000000 0.000000 0.000000 0.037950 0.000000 0.000000
# 5 0.000000 0.000000 0.000000 0.000000 -0.020245 0.000000
# 6 0.000000 0.000000 0.000000 0.000000 0.000000 0.053216
#
#
# Mechanical properties :
#
#
# Convention : Reuss Voigt Hill
#
# Bulk Modulus (GPa) = 18.25386 60.97866 39.61626
# Shear Modulus (GPa) = 14.93997 9.48255 12.21126
#
# Velocity S-wave (km/s) = 2.91947 2.32591 2.63943
# Velocity P-wave (km/s) = 4.66673 6.48088 5.64713
#
# Compressibility (1/GPa) = 0.05478292
#
# Stress axis : x y z
#
# Youngs Moduli (GPa) = 8.41977 68.59139 59.56113
#
# Poissons Ratio (x) = 0.96072 1.99812
# Poissons Ratio (y) = 0.11793 0.00733
# Poissons Ratio (z) = 0.28246 0.00844
#
# Static dielectric constant tensor:
#      x y z
#    x 1.578730 0.000000 0.000000 
#    y 0.000000 1.593610 0.000000 
#    z 0.000000 0.000000 1.600520 
# 
# From -- ./inp_files/75381.got.cif
#   From: 2010.05.17/outbox.cif.g08.bks.cpg/sg65_38_cif.got.tgz:75381.got - 2010.06.03 17:01:31.
