data_PCOD9486704
_publ_section_title
;
Structure prediction by ZEFSAII (Michael W. Deem and Ramdas Pophale) SiO2 
 PCOD9486704
Probable space group: C M M M
;
_chemical_formula_sum "Si O2"
_cell_formula_units_Z 96
_cell_length_a 29.464919
_cell_length_b 14.481249
_cell_length_c 12.106139
_cell_angle_alpha 90.000000
_cell_angle_beta 90.000000
_cell_angle_gamma 90.000000
_cell_volume 5165.554271
_symmetry_space_group_name_H-M "C M M M"
_symmetry_group_IT_number 65
_symmetry_cell_setting 'orthorhombic'
loop_
_space_group_symop_operation_xyz
x,y,z
-x,-y,z
x,-y,-z
-x,y,-z
-x,-y,-z
x,y,-z
-x,y,z
x,-y,z
1/2+x,1/2+y,z
1/2-x,1/2-y,z
1/2+x,1/2-y,-z
1/2-x,1/2+y,-z
1/2-x,1/2-y,-z
1/2+x,1/2+y,-z
1/2-x,1/2+y,z
1/2+x,1/2-y,z
loop_
_atom_site_type_symbol
_atom_site_label
_atom_site_fract_x
_atom_site_fract_y
_atom_site_fract_z
Si Si1 0.733752 0.646246 0.500000
Si Si2 0.369094 0.887616 0.737839
Si Si3 0.306642 0.389597 0.736628
Si Si4 0.161663 0.605016 0.500000
Si Si5 0.447133 0.788957 0.871170
Si Si6 0.779807 0.612925 0.125728
Si Si7 0.106297 0.891970 0.127996
O O1 0.750000 0.750000 0.500000
O O2 0.704684 0.627953 0.609232
O O3 0.783409 0.598535 0.500000
O O4 0.356876 0.853767 0.614072
O O5 0.414030 0.845354 0.791120
O O6 0.325882 0.861397 0.812610
O O7 0.371780 0.000000 0.737662
O O8 0.307303 0.500000 0.750613
O O9 0.264225 0.354502 0.807979
O O10 0.354161 0.359648 0.788909
O O11 0.144771 0.500000 0.500000
O O12 0.500000 0.804418 0.847997
O O13 0.434436 0.680498 0.861559
O O14 0.438329 0.814805 0.000000
O O15 0.778585 0.500000 0.125476
O O16 0.779536 0.644400 0.000000
O O17 0.094833 0.000000 0.148270
O O18 0.122852 0.886922 0.000000
#
# Coordination Sequence:
#
# PCOD9486704 Si02
#       7
#     8  16  16   8  16  16  16
#     4  12  24  32  48  78 113 154 192 227 264 312
#     4  10  20  35  57  81 110 147 185 226 274 329
#     4  10  19  33  52  75 109 146 182 224 268 317
#     4  10  20  38  57  75 107 153 193 227 266 318
#     4  10  22  39  59  83 111 142 179 230 287 339
#     4   9  16  27  48  77 107 141 177 212 259 319
#     4   9  19  36  58  83 111 145 185 229 276 328
#
# _framework density 18.584645999999999
#
# number of rings (size 3 to 8) (size 9 to 14) (size 15 to 20)
#    0.000    2.167    1.667    1.750    2.333    3.667 
#    0.000    2.917    0.000    5.500    0.000    0.000 
#    0.000    4.000    0.000    0.000    0.000    0.000 
#
# Total GULP energy -267900.312100 kJ/mol
# GULP energy per Si atom -5581.256502 kJ/mol
# Density = 1.854235 g / cm^3
# Si number density = 18.584646 Si / 1000 Ang^3
#
#
#
# Elastic Constant Matrix: (Units=GPa)
#
#
# Indices 1 2 3 4 5 6 
#
# 1 68.7946 -0.4281 44.6806 0.0000 0.0000 0.0000
# 2 -0.4281 38.6853 0.9552 0.0000 0.0000 0.0000
# 3 44.6806 0.9552 131.7042 0.0000 0.0000 0.0000
# 4 0.0000 0.0000 0.0000 12.3309 0.0000 0.0000
# 5 0.0000 0.0000 0.0000 0.0000 -7.9665 0.0000
# 6 0.0000 0.0000 0.0000 0.0000 0.0000 26.6932
#
#
#
# Elastic Compliance Matrix: (Units=1/GPa)
#
#
# Indices 1 2 3 4 5 6 
#
# 1 0.018649 0.000363 -0.006329 0.000000 0.000000 0.000000
# 2 0.000363 0.025861 -0.000311 0.000000 0.000000 0.000000
# 3 -0.006329 -0.000311 0.009742 0.000000 0.000000 0.000000
# 4 0.000000 0.000000 0.000000 0.081097 0.000000 0.000000
# 5 0.000000 0.000000 0.000000 0.000000 -0.125526 0.000000
# 6 0.000000 0.000000 0.000000 0.000000 0.000000 0.037463
#
#
# Mechanical properties :
#
#
# Convention : Reuss Voigt Hill
#
# Bulk Modulus (GPa) = 23.98193 36.62216 30.30205
# Shear Modulus (GPa) = 67.80564 19.14328 43.47446
#
# Velocity S-wave (km/s) = 6.04681 3.21294 4.84184
# Velocity P-wave (km/s) = 7.85392 5.78898 6.89915
#
# Compressibility (1/GPa) = 0.04169805
#
# Stress axis : x y z
#
# Youngs Moduli (GPa) = 53.62214 38.66784 102.64590
#
# Poissons Ratio (x) = -0.01402 0.64968
# Poissons Ratio (y) = -0.01945 0.03188
# Poissons Ratio (z) = 0.33939 0.01201
#
# Static dielectric constant tensor:
#      x y z
#    x 1.500310 0.000000 0.000000 
#    y 0.000000 1.662030 0.000000 
#    z 0.000000 0.000000 1.627540 
# 
# From -- ./inp_files/33889.got.cif
#   From: 2010.05.17/outbox.cif.g08.bks.cpg/sg65_17_cif.got.tgz:33889.got - 2010.06.03 17:01:31.
