data_PCOD9486254
_publ_section_title
;
Structure prediction by ZEFSAII (Michael W. Deem and Ramdas Pophale) SiO2 
 PCOD9486254
Probable space group: C M M M
;
_chemical_formula_sum "Si O2"
_cell_formula_units_Z 96
_cell_length_a 9.668098
_cell_length_b 29.975405
_cell_length_c 18.172721
_cell_angle_alpha 90.000000
_cell_angle_beta 90.000000
_cell_angle_gamma 90.000000
_cell_volume 5266.548192
_symmetry_space_group_name_H-M "C M M M"
_symmetry_group_IT_number 65
_symmetry_cell_setting 'orthorhombic'
loop_
_space_group_symop_operation_xyz
x,y,z
-x,-y,z
x,-y,-z
-x,y,-z
-x,-y,-z
x,y,-z
-x,y,z
x,-y,z
1/2+x,1/2+y,z
1/2-x,1/2-y,z
1/2+x,1/2-y,-z
1/2-x,1/2+y,-z
1/2-x,1/2-y,-z
1/2+x,1/2+y,-z
1/2-x,1/2+y,z
1/2+x,1/2-y,z
loop_
_atom_site_type_symbol
_atom_site_label
_atom_site_fract_x
_atom_site_fract_y
_atom_site_fract_z
Si Si1 0.335761 0.140315 0.653154
Si Si2 0.653956 0.711105 0.586430
Si Si3 0.332582 0.949970 0.415385
Si Si4 0.339026 0.450285 0.089504
Si Si5 0.664279 0.795362 0.208214
Si Si6 0.163964 0.634923 0.086927
O O1 0.500000 0.145137 0.636211
O O2 0.238944 0.166246 0.596428
O O3 0.298454 0.088439 0.643200
O O4 0.311334 0.166895 0.728966
O O5 0.639243 0.720096 0.500000
O O6 0.500000 0.710160 0.619110
O O7 0.750000 0.750000 0.618510
O O8 0.290349 0.938792 0.500000
O O9 0.500000 0.951755 0.416760
O O10 0.282456 0.000000 0.398254
O O11 0.500000 0.444374 0.109699
O O12 0.293856 0.500000 0.113764
O O13 0.246895 0.408676 0.113686
O O14 0.333204 0.450573 0.000000
O O15 0.500000 0.785274 0.209634
O O16 0.750000 0.750000 0.216288
O O17 0.699744 0.821023 0.132620
O O18 0.000000 0.626920 0.096990
O O19 0.190298 0.640853 0.000000
#
# Coordination Sequence:
#
# PCOD9486254 Si02
#       6
#    16  16  16  16  16  16
#     4  10  19  32  51  73  99 129 162 202 247 295
#     4  10  20  32  47  70  99 129 163 201 239 283
#     4   8  14  26  47  75 102 128 161 198 234 276
#     4   8  14  26  46  73 102 128 156 193 238 292
#     4  10  22  37  51  71  97 127 165 209 259 311
#     4   9  18  33  51  71  97 128 166 213 261 310
#
# _framework density 18.228259000000001
#
# number of rings (size 3 to 8) (size 9 to 14) (size 15 to 20)
#    0.000    2.833    0.000    2.500    0.000    5.000 
#    0.000    2.500    0.000    3.500    0.000    2.333 
#    0.000    0.000    0.000    0.000    0.000    0.000 
#
# Total GULP energy -267229.840432 kJ/mol
# GULP energy per Si atom -5567.288342 kJ/mol
# Density = 1.818677 g / cm^3
# Si number density = 18.228259 Si / 1000 Ang^3
#
#
#
# Elastic Constant Matrix: (Units=GPa)
#
#
# Indices 1 2 3 4 5 6 
#
# 1 50.9755 58.5326 33.6494 0.0000 0.0000 0.0000
# 2 58.5326 171.7563 57.2737 0.0000 0.0000 0.0000
# 3 33.6494 57.2737 46.8599 0.0000 0.0000 0.0000
# 4 0.0000 0.0000 0.0000 23.7519 0.0000 0.0000
# 5 0.0000 0.0000 0.0000 0.0000 9.4667 0.0000
# 6 0.0000 0.0000 0.0000 0.0000 0.0000 28.8116
#
#
#
# Elastic Compliance Matrix: (Units=1/GPa)
#
#
# Indices 1 2 3 4 5 6 
#
# 1 0.041955 -0.007176 -0.021356 0.000000 0.000000 0.000000
# 2 -0.007176 0.011055 -0.008359 0.000000 0.000000 0.000000
# 3 -0.021356 -0.008359 0.046892 0.000000 0.000000 0.000000
# 4 0.000000 0.000000 0.000000 0.042102 0.000000 0.000000
# 5 0.000000 0.000000 0.000000 0.000000 0.105634 0.000000
# 6 0.000000 0.000000 0.000000 0.000000 0.000000 0.034708
#
#
# Mechanical properties :
#
#
# Convention : Reuss Voigt Hill
#
# Bulk Modulus (GPa) = 38.28513 63.16703 50.72608
# Shear Modulus (GPa) = 13.70486 20.41511 17.05999
#
# Velocity S-wave (km/s) = 2.74496 3.35023 3.06258
# Velocity P-wave (km/s) = 5.57630 7.04939 6.35567
#
# Compressibility (1/GPa) = 0.02611980
#
# Stress axis : x y z
#
# Youngs Moduli (GPa) = 23.83513 90.45591 21.32569
#
# Poissons Ratio (x) = 0.64915 0.45543
# Poissons Ratio (y) = 0.17105 0.17825
# Poissons Ratio (z) = 0.50902 0.75609
#
# Static dielectric constant tensor:
#      x y z
#    x 1.621330 0.000000 0.000000 
#    y 0.000000 1.648680 0.000000 
#    z 0.000000 0.000000 1.669030 
# 
# From -- ./inp_files/60232.got.cif
#   From: 2010.05.17/outbox.cif.g08.bks.cpg/sg65_31_cif.got.tgz:60232.got - 2010.06.03 17:01:31.
