data_PCOD9486561
_publ_section_title
;
Structure prediction by ZEFSAII (Michael W. Deem and Ramdas Pophale) SiO2 
 PCOD9486561
Probable space group: C M M M
;
_chemical_formula_sum "Si O2"
_cell_formula_units_Z 66
_cell_length_a 15.277033
_cell_length_b 24.780118
_cell_length_c 9.623923
_cell_angle_alpha 90.000000
_cell_angle_beta 90.000000
_cell_angle_gamma 90.000000
_cell_volume 3643.296583
_symmetry_space_group_name_H-M "C M M M"
_symmetry_group_IT_number 65
_symmetry_cell_setting 'orthorhombic'
loop_
_space_group_symop_operation_xyz
x,y,z
-x,-y,z
x,-y,-z
-x,y,-z
-x,-y,-z
x,y,-z
-x,y,z
x,-y,z
1/2+x,1/2+y,z
1/2-x,1/2-y,z
1/2+x,1/2-y,-z
1/2-x,1/2+y,-z
1/2-x,1/2-y,-z
1/2+x,1/2+y,-z
1/2-x,1/2+y,z
1/2+x,1/2-y,z
loop_
_atom_site_type_symbol
_atom_site_label
_atom_site_fract_x
_atom_site_fract_y
_atom_site_fract_z
Si Si1 0.145676 0.000000 0.341321
Si Si2 0.651087 0.000000 0.265271
Si Si3 0.000000 0.500000 0.500000
Si Si4 0.154702 0.117871 0.667644
Si Si5 0.669897 0.118082 0.839087
Si Si6 0.500000 0.188537 0.833387
Si Si7 0.500000 0.298949 0.334815
O O1 0.120910 0.941388 0.282519
O O2 0.114474 0.000000 0.500000
O O3 0.251738 0.000000 0.333462
O O4 0.645869 0.944906 0.178579
O O5 0.576535 0.000000 0.379769
O O6 0.167205 0.114229 0.500000
O O7 0.246485 0.128885 0.742424
O O8 0.084527 0.164137 0.695148
O O9 0.586454 0.153977 0.798444
O O10 0.691290 0.128870 0.000000
O O11 0.500000 0.244640 0.752895
O O12 0.500000 0.196919 0.000000
O O13 0.500000 0.286895 0.500000
#
# Coordination Sequence:
#
# PCOD9486561 Si02
#       7
#     8   8   2  16  16   8   8
#     4   8  14  30  51  80 111 138 168 216 266 335
#     4  10  19  32  53  84 119 143 182 221 278 332
#     4  12  20  28  50  88 116 154 190 220 264 334
#     4   9  19  35  59  84 115 144 185 229 288 341
#     4  10  21  38  58  83 114 151 188 231 282 336
#     4  10  23  40  55  76 109 149 196 235 276 336
#     4  10  22  40  56  82 111 146 188 245 287 333
#
# _framework density 18.115462000000001
#
# number of rings (size 3 to 8) (size 9 to 14) (size 15 to 20)
#    0.000    2.424    0.606    1.091    1.697    3.394 
#    2.182    9.697    0.000    0.000    0.000    5.939 
#    0.000    0.000    0.000    0.000    0.000    0.000 
#
# Total GULP energy -183747.437457 kJ/mol
# GULP energy per Si atom -5568.104165 kJ/mol
# Density = 1.807423 g / cm^3
# Si number density = 18.115462 Si / 1000 Ang^3
#
#
#
# Elastic Constant Matrix: (Units=GPa)
#
#
# Indices 1 2 3 4 5 6 
#
# 1 114.3160 87.1809 51.1736 0.0000 0.0000 0.0000
# 2 87.1809 163.2094 48.2748 0.0000 0.0000 0.0000
# 3 51.1736 48.2748 44.9106 0.0000 0.0000 0.0000
# 4 0.0000 0.0000 0.0000 1.1222 0.0000 0.0000
# 5 0.0000 0.0000 0.0000 0.0000 21.8292 0.0000
# 6 0.0000 0.0000 0.0000 0.0000 0.0000 27.8574
#
#
#
# Elastic Compliance Matrix: (Units=1/GPa)
#
#
# Indices 1 2 3 4 5 6 
#
# 1 0.021410 -0.006188 -0.017744 0.000000 0.000000 0.000000
# 2 -0.006188 0.010772 -0.004528 0.000000 0.000000 0.000000
# 3 -0.017744 -0.004528 0.047352 0.000000 0.000000 0.000000
# 4 0.000000 0.000000 0.000000 0.891073 0.000000 0.000000
# 5 0.000000 0.000000 0.000000 0.000000 0.045810 0.000000
# 6 0.000000 0.000000 0.000000 0.000000 0.000000 0.035897
#
#
# Mechanical properties :
#
#
# Convention : Reuss Voigt Hill
#
# Bulk Modulus (GPa) = 44.22038 77.29939 60.75989
# Shear Modulus (GPa) = 4.47719 19.21555 11.84637
#
# Velocity S-wave (km/s) = 1.57380 3.26041 2.55999
# Velocity P-wave (km/s) = 5.26932 7.54564 6.50778
#
# Compressibility (1/GPa) = 0.02261401
#
# Stress axis : x y z
#
# Youngs Moduli (GPa) = 46.70690 92.83533 21.11841
#
# Poissons Ratio (x) = 0.57447 0.37473
# Poissons Ratio (y) = 0.28903 0.09562
# Poissons Ratio (z) = 0.82878 0.42032
#
# Static dielectric constant tensor:
#      x y z
#    x 1.605560 0.000000 0.000000 
#    y 0.000000 1.631140 0.000000 
#    z 0.000000 0.000000 1.602980 
# 
# From -- ./inp_files/7174.got.cif
#   From: 2010.05.17/outbox.cif.g08.bks.cpg/sg65_4_cif.got.tgz:7174.got - 2010.06.03 17:01:31.
