data_PCOD9486430
_publ_section_title
;
Structure prediction by ZEFSAII (Michael W. Deem and Ramdas Pophale) SiO2 
 PCOD9486430
Probable space group: C M M M
;
_chemical_formula_sum "Si O2"
_cell_formula_units_Z 80
_cell_length_a 8.379176
_cell_length_b 19.757901
_cell_length_c 26.201938
_cell_angle_alpha 90.000000
_cell_angle_beta 90.000000
_cell_angle_gamma 90.000000
_cell_volume 4337.860008
_symmetry_space_group_name_H-M "C M M M"
_symmetry_group_IT_number 65
_symmetry_cell_setting 'orthorhombic'
loop_
_space_group_symop_operation_xyz
x,y,z
-x,-y,z
x,-y,-z
-x,y,-z
-x,-y,-z
x,y,-z
-x,y,z
x,-y,z
1/2+x,1/2+y,z
1/2-x,1/2-y,z
1/2+x,1/2-y,-z
1/2-x,1/2+y,-z
1/2-x,1/2-y,-z
1/2+x,1/2+y,-z
1/2-x,1/2+y,z
1/2+x,1/2-y,z
loop_
_atom_site_type_symbol
_atom_site_label
_atom_site_fract_x
_atom_site_fract_y
_atom_site_fract_z
Si Si1 0.810178 0.173462 0.738571
Si Si2 0.694531 0.921829 0.056991
Si Si3 0.191869 0.326067 0.851601
Si Si4 0.192771 0.324778 0.558427
Si Si5 0.306977 0.077666 0.648476
O O1 0.750000 0.250000 0.728132
O O2 0.753449 0.154530 0.795518
O O3 0.745840 0.120950 0.697195
O O4 0.000000 0.174549 0.737172
O O5 0.500000 0.920611 0.057314
O O6 0.748924 0.874993 0.103223
O O7 0.742233 0.000000 0.064035
O O8 0.744966 0.899884 0.000000
O O9 0.250000 0.250000 0.861518
O O10 0.000000 0.326784 0.850250
O O11 0.246472 0.336528 0.500000
O O12 0.250000 0.250000 0.574124
O O13 0.247351 0.381654 0.598060
O O14 0.000000 0.324506 0.558453
O O15 0.500000 0.076481 0.647587
O O16 0.250829 0.000000 0.649812
#
# Coordination Sequence:
#
# PCOD9486430 Si02
#       5
#    16  16  16  16  16
#     4  11  22  37  56  76 102 136 175 218 262 310
#     4   8  15  29  49  73 100 131 168 207 247 296
#     4  10  19  32  52  77 103 132 167 209 257 306
#     4   9  18  33  54  79 105 136 174 213 254 302
#     4  10  21  36  54  78 108 140 174 213 258 308
#
# _framework density 18.442274000000001
#
# number of rings (size 3 to 8) (size 9 to 14) (size 15 to 20)
#    0.000    2.400    0.000    4.800    0.000    4.400 
#    0.000    4.000    0.000    3.600    0.000    9.800 
#    0.000    0.000    0.000    0.000    0.000    0.000 
#
# Total GULP energy -223218.924246 kJ/mol
# GULP energy per Si atom -5580.473106 kJ/mol
# Density = 1.840030 g / cm^3
# Si number density = 18.442274 Si / 1000 Ang^3
#
#
#
# Elastic Constant Matrix: (Units=GPa)
#
#
# Indices 1 2 3 4 5 6 
#
# 1 28.3889 21.6890 19.4336 0.0000 0.0000 0.0000
# 2 21.6890 143.9951 132.0811 0.0000 0.0000 0.0000
# 3 19.4336 132.0811 164.3813 0.0000 0.0000 0.0000
# 4 0.0000 0.0000 0.0000 17.0120 0.0000 0.0000
# 5 0.0000 0.0000 0.0000 0.0000 11.1752 0.0000
# 6 0.0000 0.0000 0.0000 0.0000 0.0000 23.3574
#
#
#
# Elastic Compliance Matrix: (Units=1/GPa)
#
#
# Indices 1 2 3 4 5 6 
#
# 1 0.039814 -0.006386 0.000424 0.000000 0.000000 0.000000
# 2 -0.006386 0.027432 -0.021287 0.000000 0.000000 0.000000
# 3 0.000424 -0.021287 0.023137 0.000000 0.000000 0.000000
# 4 0.000000 0.000000 0.000000 0.058782 0.000000 0.000000
# 5 0.000000 0.000000 0.000000 0.000000 0.089484 0.000000
# 6 0.000000 0.000000 0.000000 0.000000 0.000000 0.042813
#
#
# Mechanical properties :
#
#
# Convention : Reuss Voigt Hill
#
# Bulk Modulus (GPa) = 27.86614 75.90808 51.88711
# Shear Modulus (GPa) = 14.37105 21.21302 17.79204
#
# Velocity S-wave (km/s) = 2.79452 3.39520 3.10940
# Velocity P-wave (km/s) = 5.05522 7.52456 6.40992
#
# Compressibility (1/GPa) = 0.03588585
#
# Stress axis : x y z
#
# Youngs Moduli (GPa) = 25.11708 36.45343 43.22008
#
# Poissons Ratio (x) = 0.23280 -0.01834
# Poissons Ratio (y) = 0.16040 0.92002
# Poissons Ratio (z) = -0.01066 0.77598
#
# Static dielectric constant tensor:
#      x y z
#    x 1.640550 0.000000 0.000000 
#    y 0.000000 1.611220 0.000000 
#    z 0.000000 0.000000 1.636660 
# 
# From -- ./inp_files/72741.got.cif
#   From: 2010.05.17/outbox.cif.g08.bks.cpg/sg65_37_cif.got.tgz:72741.got - 2010.06.03 17:01:31.
