data_PCOD9486569
_publ_section_title
;
Structure prediction by ZEFSAII (Michael W. Deem and Ramdas Pophale) SiO2 
 PCOD9486569
Probable space group: C M M M
;
_chemical_formula_sum "Si O2"
_cell_formula_units_Z 64
_cell_length_a 20.573493
_cell_length_b 14.101082
_cell_length_c 8.501884
_cell_angle_alpha 90.000000
_cell_angle_beta 90.000000
_cell_angle_gamma 90.000000
_cell_volume 2466.468915
_symmetry_space_group_name_H-M "C M M M"
_symmetry_group_IT_number 65
_symmetry_cell_setting 'orthorhombic'
loop_
_space_group_symop_operation_xyz
x,y,z
-x,-y,z
x,-y,-z
-x,y,-z
-x,-y,-z
x,y,-z
-x,y,z
x,-y,z
1/2+x,1/2+y,z
1/2-x,1/2-y,z
1/2+x,1/2-y,-z
1/2-x,1/2+y,-z
1/2-x,1/2-y,-z
1/2+x,1/2+y,-z
1/2-x,1/2+y,z
1/2+x,1/2-y,z
loop_
_atom_site_type_symbol
_atom_site_label
_atom_site_fract_x
_atom_site_fract_y
_atom_site_fract_z
Si Si1 0.246306 0.138187 0.165551
Si Si2 0.421366 0.890608 0.311886
Si Si3 0.237744 0.105265 0.500000
Si Si4 0.601173 0.689827 0.823236
Si Si5 0.905964 0.886268 0.500000
O O1 0.250000 0.250000 0.156932
O O2 0.273875 0.113752 0.335837
O O3 0.168004 0.126835 0.173511
O O4 0.270823 0.099425 0.000000
O O5 0.409347 0.878466 0.500000
O O6 0.500000 0.883652 0.291307
O O7 0.391932 0.803224 0.211104
O O8 0.403587 0.000000 0.269249
O O9 0.169107 0.159938 0.500000
O O10 0.212631 0.000000 0.500000
O O11 0.567860 0.652107 0.665192
O O12 0.574292 0.680263 0.000000
O O13 0.913266 0.000000 0.500000
#
# Coordination Sequence:
#
# PCOD9486569 Si02
#       5
#    16  16   8  16   8
#     4   9  18  32  49  69  98 134 167 204 253 308
#     4   9  18  34  56  80 107 140 175 212 260 317
#     4   9  17  29  47  69  91 121 165 210 248 292
#     4  10  19  32  54  79 102 135 176 215 260 313
#     4   9  18  33  51  73 103 132 165 214 259 299
#
# _framework density 25.948028000000001
#
# number of rings (size 3 to 8) (size 9 to 14) (size 15 to 20)
#    0.000    2.750    1.250    1.125    0.000    2.000 
#    0.000    7.500    0.000    6.000    0.000    1.750 
#    0.000    0.000    0.000    0.000    0.000    0.000 
#
# Total GULP energy -178302.156437 kJ/mol
# GULP energy per Si atom -5571.942389 kJ/mol
# Density = 2.588897 g / cm^3
# Si number density = 25.948028 Si / 1000 Ang^3
#
#
#
# Elastic Constant Matrix: (Units=GPa)
#
#
# Indices 1 2 3 4 5 6 
#
# 1 75.7673 -6.3495 28.8508 0.0000 0.0000 0.0000
# 2 -6.3495 135.5062 61.2542 0.0000 0.0000 0.0000
# 3 28.8508 61.2542 313.3514 0.0000 0.0000 0.0000
# 4 0.0000 0.0000 0.0000 396.3788 0.0000 0.0000
# 5 0.0000 0.0000 0.0000 0.0000 -0.5314 0.0000
# 6 0.0000 0.0000 0.0000 0.0000 0.0000 42.0107
#
#
#
# Elastic Compliance Matrix: (Units=1/GPa)
#
#
# Indices 1 2 3 4 5 6 
#
# 1 0.013899 0.001349 -0.001543 0.000000 0.000000 0.000000
# 2 0.001349 0.008226 -0.001732 0.000000 0.000000 0.000000
# 3 -0.001543 -0.001732 0.003672 0.000000 0.000000 0.000000
# 4 0.000000 0.000000 0.000000 0.002523 0.000000 0.000000
# 5 0.000000 0.000000 0.000000 0.000000 -1.881823 0.000000
# 6 0.000000 0.000000 0.000000 0.000000 0.000000 0.023803
#
#
# Mechanical properties :
#
#
# Convention : Reuss Voigt Hill
#
# Bulk Modulus (GPa) = 45.57112 76.90399 61.23755
# Shear Modulus (GPa) = -2.74947 116.96292 57.10672
#
# Velocity S-wave (km/s) = -1.03049 6.72114 4.69637
# Velocity P-wave (km/s) = 4.02302 9.48333 7.28417
#
# Compressibility (1/GPa) = 0.02194372
#
# Stress axis : x y z
#
# Youngs Moduli (GPa) = 71.94734 121.56609 272.32927
#
# Poissons Ratio (x) = -0.16399 0.42031
# Poissons Ratio (y) = -0.09705 0.47173
# Poissons Ratio (z) = 0.11104 0.21058
#
# Static dielectric constant tensor:
#      x y z
#    x 2.184970 0.000000 0.000000 
#    y 0.000000 1.973560 0.000000 
#    z 0.000000 0.000000 2.178230 
# 
# From -- ./inp_files/7118.got.cif
#   From: 2010.05.17/outbox.cif.g08.bks.cpg/sg65_4_cif.got.tgz:7118.got - 2010.06.03 17:01:31.
