data_PCOD9486172
_publ_section_title
;
Structure prediction by ZEFSAII (Michael W. Deem and Ramdas Pophale) SiO2 
 PCOD9486172
Probable space group: C M M M
;
_chemical_formula_sum "Si O2"
_cell_formula_units_Z 100
_cell_length_a 9.463131
_cell_length_b 31.729218
_cell_length_c 20.219017
_cell_angle_alpha 90.000000
_cell_angle_beta 90.000000
_cell_angle_gamma 90.000000
_cell_volume 6070.916480
_symmetry_space_group_name_H-M "C M M M"
_symmetry_group_IT_number 65
_symmetry_cell_setting 'orthorhombic'
loop_
_space_group_symop_operation_xyz
x,y,z
-x,-y,z
x,-y,-z
-x,y,-z
-x,-y,-z
x,y,-z
-x,y,z
x,-y,z
1/2+x,1/2+y,z
1/2-x,1/2-y,z
1/2+x,1/2-y,-z
1/2-x,1/2+y,-z
1/2-x,1/2-y,-z
1/2+x,1/2+y,-z
1/2-x,1/2+y,z
1/2+x,1/2-y,z
loop_
_atom_site_type_symbol
_atom_site_label
_atom_site_fract_x
_atom_site_fract_y
_atom_site_fract_z
Si Si1 0.840425 0.080547 0.766767
Si Si2 0.727270 0.000000 0.000000
Si Si3 0.165158 0.707809 0.808903
Si Si4 0.838360 0.402741 0.000000
Si Si5 0.168631 0.707212 0.578115
Si Si6 0.338585 0.355797 0.888517
Si Si7 0.163604 0.357965 0.313504
Si Si8 0.169766 0.000000 0.848170
O O1 0.850416 0.116921 0.821940
O O2 0.749932 0.101038 0.708488
O O3 0.779419 0.040805 0.807326
O O4 0.000000 0.070293 0.744568
O O5 0.657641 0.953620 0.000000
O O6 0.799442 0.000000 0.926749
O O7 0.250000 0.750000 0.792082
O O8 0.248215 0.685153 0.868946
O O9 0.168596 0.675892 0.746672
O O10 0.000000 0.715906 0.824048
O O11 0.750286 0.384455 0.061398
O O12 0.000000 0.387511 0.000000
O O13 0.191088 0.699964 0.500000
O O14 0.250000 0.750000 0.596696
O O15 0.215232 0.667758 0.622531
O O16 0.000000 0.712963 0.589175
O O17 0.500000 0.347144 0.911171
O O18 0.000000 0.369463 0.323424
O O19 0.000000 0.000000 0.844642
#
# Coordination Sequence:
#
# PCOD9486172 Si02
#       8
#    16   4  16   8  16  16  16   8
#     4   9  18  32  50  72  96 125 162 203 245 292
#     4  12  22  36  54  78 105 134 161 194 249 316
#     4  10  19  32  50  72  97 126 162 204 244 289
#     4  12  24  37  51  74 102 128 157 193 241 297
#     4   9  17  29  46  71 104 138 171 206 244 288
#     4  10  20  35  53  71  93 125 162 200 244 294
#     4   9  18  31  47  70 100 134 166 201 246 291
#     4  10  19  33  53  78 102 127 163 206 249 300
#
# _framework density 16.471978
#
# number of rings (size 3 to 8) (size 9 to 14) (size 15 to 20)
#    0.000    2.240    1.600    1.920    0.000    2.560 
#    0.000    0.800    0.000    0.000    0.000    0.560 
#    0.000    4.480    0.000    0.000    0.000    0.000 
#
# Total GULP energy -278368.492985 kJ/mol
# GULP energy per Si atom -5567.369860 kJ/mol
# Density = 1.643449 g / cm^3
# Si number density = 16.471978 Si / 1000 Ang^3
#
#
#
# Elastic Constant Matrix: (Units=GPa)
#
#
# Indices 1 2 3 4 5 6 
#
# 1 89.5762 35.1263 32.1464 0.0000 0.0000 0.0000
# 2 35.1263 66.3234 28.8982 0.0000 0.0000 0.0000
# 3 32.1464 28.8982 64.6442 0.0000 0.0000 0.0000
# 4 0.0000 0.0000 0.0000 30.9853 0.0000 0.0000
# 5 0.0000 0.0000 0.0000 0.0000 13.1783 0.0000
# 6 0.0000 0.0000 0.0000 0.0000 0.0000 22.4247
#
#
#
# Elastic Compliance Matrix: (Units=1/GPa)
#
#
# Indices 1 2 3 4 5 6 
#
# 1 0.015262 -0.005931 -0.004938 0.000000 0.000000 0.000000
# 2 -0.005931 0.021030 -0.006452 0.000000 0.000000 0.000000
# 3 -0.004938 -0.006452 0.020809 0.000000 0.000000 0.000000
# 4 0.000000 0.000000 0.000000 0.032273 0.000000 0.000000
# 5 0.000000 0.000000 0.000000 0.000000 0.075883 0.000000
# 6 0.000000 0.000000 0.000000 0.000000 0.000000 0.044594
#
#
# Mechanical properties :
#
#
# Convention : Reuss Voigt Hill
#
# Bulk Modulus (GPa) = 44.52561 45.87619 45.20090
# Shear Modulus (GPa) = 19.84298 21.60918 20.72608
#
# Velocity S-wave (km/s) = 3.47457 3.62591 3.55105
# Velocity P-wave (km/s) = 6.57166 6.74101 6.65687
#
# Compressibility (1/GPa) = 0.02245898
#
# Stress axis : x y z
#
# Youngs Moduli (GPa) = 65.52362 47.55082 48.05645
#
# Poissons Ratio (x) = 0.28204 0.23729
# Poissons Ratio (y) = 0.38865 0.31004
# Poissons Ratio (z) = 0.32354 0.30678
#
# Static dielectric constant tensor:
#      x y z
#    x 1.574170 0.000000 0.000000 
#    y 0.000000 1.555360 0.000000 
#    z 0.000000 0.000000 1.556410 
# 
# From -- ./inp_files/60949.got.cif
#   From: 2010.05.17/outbox.cif.g08.bks.cpg/sg65_31_cif.got.tgz:60949.got - 2010.06.03 17:01:31.
