data_PCOD9486789
_publ_section_title
;
Structure prediction by ZEFSAII (Michael W. Deem and Ramdas Pophale) SiO2 
 PCOD9486789
Probable space group: C M M M
;
_chemical_formula_sum "Si O2"
_cell_formula_units_Z 120
_cell_length_a 18.340731
_cell_length_b 28.419402
_cell_length_c 13.109533
_cell_angle_alpha 90.000000
_cell_angle_beta 90.000000
_cell_angle_gamma 90.000000
_cell_volume 6833.116066
_symmetry_space_group_name_H-M "C M M M"
_symmetry_group_IT_number 65
_symmetry_cell_setting 'orthorhombic'
loop_
_space_group_symop_operation_xyz
x,y,z
-x,-y,z
x,-y,-z
-x,y,-z
-x,-y,-z
x,y,-z
-x,y,z
x,-y,z
1/2+x,1/2+y,z
1/2-x,1/2-y,z
1/2+x,1/2-y,-z
1/2-x,1/2+y,-z
1/2-x,1/2-y,-z
1/2+x,1/2+y,-z
1/2-x,1/2+y,z
1/2+x,1/2-y,z
loop_
_atom_site_type_symbol
_atom_site_label
_atom_site_fract_x
_atom_site_fract_y
_atom_site_fract_z
Si Si1 0.413318 0.208859 0.116920
Si Si2 0.215743 0.197718 0.618540
Si Si3 0.676047 0.392686 0.880968
Si Si4 0.912866 0.190470 0.775890
Si Si5 0.182447 0.364447 0.762920
Si Si6 0.000000 0.054435 0.379195
Si Si7 0.810809 0.443611 0.617013
Si Si8 0.848881 0.945449 0.686976
O O1 0.500000 0.201666 0.115987
O O2 0.400459 0.260469 0.164110
O O3 0.376156 0.169135 0.185393
O O4 0.386450 0.207222 0.000000
O O5 0.209778 0.184848 0.500000
O O6 0.250000 0.250000 0.625097
O O7 0.137856 0.193675 0.675325
O O8 0.272208 0.165187 0.679524
O O9 0.621218 0.351549 0.843776
O O10 0.758009 0.378136 0.848808
O O11 0.660199 0.436515 0.806662
O O12 0.668973 0.401513 0.000000
O O13 0.000000 0.184984 0.759092
O O14 0.153258 0.410456 0.702689
O O15 0.924717 0.077879 0.345289
O O16 0.000000 0.051898 0.500000
O O17 0.000000 0.000000 0.338917
O O18 0.833048 0.434566 0.500000
O O19 0.818089 0.500000 0.635963
O O20 0.724764 0.430717 0.630384
O O21 0.854714 0.000000 0.660878
#
# Coordination Sequence:
#
# PCOD9486789 Si02
#       8
#    16  16  16  16  16   8  16  16
#     4  10  20  35  56  79 102 131 168 213 259 304
#     4  10  19  33  53  77 106 139 168 205 255 306
#     4  10  21  33  50  72 100 137 173 216 263 305
#     4  10  21  36  52  73 102 135 179 219 257 303
#     4  10  19  34  54  79 105 133 170 210 250 308
#     4   9  16  28  47  67  89 121 164 214 259 299
#     4   9  17  31  53  78 103 132 167 208 252 299
#     4   9  18  31  47  70  98 130 173 216 257 305
#
# _framework density 17.561534000000002
#
# number of rings (size 3 to 8) (size 9 to 14) (size 15 to 20)
#    0.000    2.333    1.333    1.600    0.933    2.933 
#    0.000    2.667    0.000    4.400    0.000    1.867 
#    0.000    0.000    0.000    0.000    0.000    0.000 
#
# Total GULP energy -334368.707703 kJ/mol
# GULP energy per Si atom -5572.811795 kJ/mol
# Density = 1.752156 g / cm^3
# Si number density = 17.561534 Si / 1000 Ang^3
#
#
#
# Elastic Constant Matrix: (Units=GPa)
#
#
# Indices 1 2 3 4 5 6 
#
# 1 21.2870 4.2892 10.3742 0.0000 0.0000 0.0000
# 2 4.2892 36.8541 -1.6001 0.0000 0.0000 0.0000
# 3 10.3742 -1.6001 89.0314 0.0000 0.0000 0.0000
# 4 0.0000 0.0000 0.0000 22.6764 0.0000 0.0000
# 5 0.0000 0.0000 0.0000 0.0000 17.1573 0.0000
# 6 0.0000 0.0000 0.0000 0.0000 0.0000 9.3915
#
#
#
# Elastic Compliance Matrix: (Units=1/GPa)
#
#
# Indices 1 2 3 4 5 6 
#
# 1 0.051192 -0.006222 -0.006077 0.000000 0.000000 0.000000
# 2 -0.006222 0.027911 0.001227 0.000000 0.000000 0.000000
# 3 -0.006077 0.001227 0.011962 0.000000 0.000000 0.000000
# 4 0.000000 0.000000 0.000000 0.044099 0.000000 0.000000
# 5 0.000000 0.000000 0.000000 0.000000 0.058284 0.000000
# 6 0.000000 0.000000 0.000000 0.000000 0.000000 0.106479
#
#
# Mechanical properties :
#
#
# Convention : Reuss Voigt Hill
#
# Bulk Modulus (GPa) = 14.50921 19.25545 16.88233
# Shear Modulus (GPa) = 14.49084 18.78566 16.63825
#
# Velocity S-wave (km/s) = 2.87565 3.27418 3.08137
# Velocity P-wave (km/s) = 4.39383 5.02813 4.72164
#
# Compressibility (1/GPa) = 0.06892174
#
# Stress axis : x y z
#
# Youngs Moduli (GPa) = 19.53423 35.82766 83.59716
#
# Poissons Ratio (x) = 0.22291 0.50801
# Poissons Ratio (y) = 0.12154 -0.10254
# Poissons Ratio (z) = 0.11871 -0.04395
#
# Static dielectric constant tensor:
#      x y z
#    x 1.611320 0.000000 0.000000 
#    y 0.000000 1.626820 0.000000 
#    z 0.000000 0.000000 1.580690 
# 
# From -- ./inp_files/29760.got.cif
#   From: 2010.05.17/outbox.cif.g08.bks.cpg/sg65_15_cif.got.tgz:29760.got - 2010.06.03 17:01:31.
