data_PCOD9486964
_publ_section_title
;
Structure prediction by ZEFSAII (Michael W. Deem and Ramdas Pophale) SiO2 
 PCOD9486964
Probable space group: C M M M
;
_chemical_formula_sum "Si O2"
_cell_formula_units_Z 64
_cell_length_a 8.600032
_cell_length_b 18.825002
_cell_length_c 21.163734
_cell_angle_alpha 90.000000
_cell_angle_beta 90.000000
_cell_angle_gamma 90.000000
_cell_volume 3426.315829
_symmetry_space_group_name_H-M "C M M M"
_symmetry_group_IT_number 65
_symmetry_cell_setting 'orthorhombic'
loop_
_space_group_symop_operation_xyz
x,y,z
-x,-y,z
x,-y,-z
-x,y,-z
-x,-y,-z
x,y,-z
-x,y,z
x,-y,z
1/2+x,1/2+y,z
1/2-x,1/2-y,z
1/2+x,1/2-y,-z
1/2-x,1/2+y,-z
1/2-x,1/2-y,-z
1/2+x,1/2+y,-z
1/2-x,1/2+y,z
1/2+x,1/2-y,z
loop_
_atom_site_type_symbol
_atom_site_label
_atom_site_fract_x
_atom_site_fract_y
_atom_site_fract_z
Si Si1 0.314910 0.329933 0.000000
Si Si2 0.311965 0.917600 0.118700
Si Si3 0.313119 0.670435 0.621812
Si Si4 0.310344 0.418927 0.500000
Si Si5 0.686595 0.829670 0.242387
O O1 0.250000 0.250000 0.000000
O O2 0.256571 0.372349 0.938597
O O3 0.500000 0.326852 0.000000
O O4 0.500000 0.915486 0.114076
O O5 0.268262 0.880980 0.184993
O O6 0.263760 0.000000 0.115707
O O7 0.500000 0.672463 0.623642
O O8 0.250000 0.750000 0.612306
O O9 0.261942 0.621979 0.563343
O O10 0.251351 0.645780 0.689919
O O11 0.257348 0.500000 0.500000
O O12 0.500000 0.418997 0.500000
O O13 0.500000 0.826252 0.245727
O O14 0.750000 0.750000 0.231089
#
# Coordination Sequence:
#
# PCOD9486964 Si02
#       5
#     8  16  16   8  16
#     4  12  25  40  61  87 113 145 187 232 273 320
#     4  10  22  40  60  83 115 151 182 221 276 330
#     4  10  19  33  55  78 104 139 178 223 269 317
#     4   9  19  34  51  75 106 139 176 218 268 323
#     4  10  20  35  56  81 109 142 182 224 267 320
#
# _framework density 18.678954000000001
#
# number of rings (size 3 to 8) (size 9 to 14) (size 15 to 20)
#    0.000    1.875    0.000    5.625    0.000    7.000 
#    0.000    1.875    0.000    5.250    0.000    0.000 
#    0.000    0.000    0.000    0.000    0.000    0.000 
#
# Total GULP energy -178787.713633 kJ/mol
# GULP energy per Si atom -5587.116051 kJ/mol
# Density = 1.863644 g / cm^3
# Si number density = 18.678954 Si / 1000 Ang^3
#
#
#
# Elastic Constant Matrix: (Units=GPa)
#
#
# Indices 1 2 3 4 5 6 
#
# 1 47.4289 42.7353 55.4501 0.0000 0.0000 0.0000
# 2 42.7353 152.2673 139.7240 0.0000 0.0000 0.0000
# 3 55.4501 139.7240 219.5353 0.0000 0.0000 0.0000
# 4 0.0000 0.0000 0.0000 -351.3653 0.0000 0.0000
# 5 0.0000 0.0000 0.0000 0.0000 10.8473 0.0000
# 6 0.0000 0.0000 0.0000 0.0000 0.0000 20.5706
#
#
#
# Elastic Compliance Matrix: (Units=1/GPa)
#
#
# Indices 1 2 3 4 5 6 
#
# 1 0.030723 -0.003611 -0.005462 0.000000 0.000000 0.000000
# 2 -0.003611 0.016212 -0.009406 0.000000 0.000000 0.000000
# 3 -0.005462 -0.009406 0.011921 0.000000 0.000000 0.000000
# 4 0.000000 0.000000 0.000000 -0.002846 0.000000 0.000000
# 5 0.000000 0.000000 0.000000 0.000000 0.092189 0.000000
# 6 0.000000 0.000000 0.000000 0.000000 0.000000 0.048613
#
#
# Mechanical properties :
#
#
# Convention : Reuss Voigt Hill
#
# Bulk Modulus (GPa) = 45.66458 99.45002 72.55730
# Shear Modulus (GPa) = 20.74077 -51.90134 -15.58028
#
# Velocity S-wave (km/s) = 3.33585 -5.27696 -2.89123
# Velocity P-wave (km/s) = 6.27195 4.02851 5.27097
#
# Compressibility (1/GPa) = 0.02189881
#
# Stress axis : x y z
#
# Youngs Moduli (GPa) = 32.54847 61.68159 83.88276
#
# Poissons Ratio (x) = 0.22272 0.45817
# Poissons Ratio (y) = 0.11752 0.78903
# Poissons Ratio (z) = 0.17778 0.58020
#
# Static dielectric constant tensor:
#      x y z
#    x 1.640090 0.000000 0.000000 
#    y 0.000000 1.616870 0.000000 
#    z 0.000000 0.000000 1.633330 
# 
# From -- ./inp_files/58893.got.cif
#   From: 2010.05.17/outbox.cif.g08.bks.cpg/sg65_30_cif.got.tgz:58893.got - 2010.06.03 17:01:31.
