data_PCOD9486627
_publ_section_title
;
Structure prediction by ZEFSAII (Michael W. Deem and Ramdas Pophale) SiO2 
 PCOD9486627
Probable space group: C M M M
;
_chemical_formula_sum "Si O2"
_cell_formula_units_Z 92
_cell_length_a 24.605960
_cell_length_b 29.985876
_cell_length_c 7.176018
_cell_angle_alpha 90.000000
_cell_angle_beta 90.000000
_cell_angle_gamma 90.000000
_cell_volume 5294.690442
_symmetry_space_group_name_H-M "C M M M"
_symmetry_group_IT_number 65
_symmetry_cell_setting 'orthorhombic'
loop_
_space_group_symop_operation_xyz
x,y,z
-x,-y,z
x,-y,-z
-x,y,-z
-x,-y,-z
x,y,-z
-x,y,z
x,-y,z
1/2+x,1/2+y,z
1/2-x,1/2-y,z
1/2+x,1/2-y,-z
1/2-x,1/2+y,-z
1/2-x,1/2-y,-z
1/2+x,1/2+y,-z
1/2-x,1/2+y,z
1/2+x,1/2-y,z
loop_
_atom_site_type_symbol
_atom_site_label
_atom_site_fract_x
_atom_site_fract_y
_atom_site_fract_z
Si Si1 0.247752 0.918270 0.274825
Si Si2 0.164160 0.764142 0.273721
Si Si3 0.937811 0.818726 0.273025
Si Si4 0.062437 0.000000 0.273191
Si Si5 0.620629 0.409691 0.725331
Si Si6 0.769614 0.320022 0.725645
Si Si7 0.270820 0.000000 0.000000
O O1 0.251537 0.924472 0.500000
O O2 0.183963 0.910850 0.227570
O O3 0.275905 0.871354 0.222319
O O4 0.268248 0.960570 0.162145
O O5 0.164104 0.764296 0.500000
O O6 0.105170 0.780966 0.214894
O O7 0.184738 0.715397 0.215193
O O8 0.211281 0.799222 0.217861
O O9 0.938491 0.818892 0.500000
O O10 0.912060 0.866033 0.214127
O O11 0.000000 0.813400 0.212851
O O12 0.092637 0.955333 0.212523
O O13 0.063359 0.000000 0.500000
O O14 0.000000 0.000000 0.216319
O O15 0.618473 0.408971 0.500000
O O16 0.768715 0.319593 0.500000
#
# Coordination Sequence:
#
# PCOD9486627 Si02
#       7
#    16  16  16   8  16  16   4
#     4  10  19  33  48  65  90 121 152 191 233 276
#     4   8  12  20  36  61  86 115 151 186 224 271
#     4   9  14  19  31  58  93 118 145 191 234 270
#     4   9  15  20  27  44  71 102 141 188 227 257
#     4   9  15  24  37  53  77 111 150 188 228 267
#     4   8  13  23  42  61  82 114 153 187 221 269
#     4  12  24  32  46  70  93 116 153 192 240 290
#
# _framework density 17.375899
#
# number of rings (size 3 to 8) (size 9 to 14) (size 15 to 20)
#    0.000    3.043    1.739    2.348    0.000    3.478 
#    0.000    0.000    0.000    2.087    0.000   10.957 
#    0.000    0.000    0.000    1.565    0.000   22.261 
#
# Total GULP energy -256152.022612 kJ/mol
# GULP energy per Si atom -5568.522231 kJ/mol
# Density = 1.733635 g / cm^3
# Si number density = 17.375899 Si / 1000 Ang^3
#
#
#
# Elastic Constant Matrix: (Units=GPa)
#
#
# Indices 1 2 3 4 5 6 
#
# 1 49.8940 51.0974 4.5719 0.0000 0.0000 0.0000
# 2 51.0974 177.1112 25.2408 0.0000 0.0000 0.0000
# 3 4.5719 25.2408 102.5180 0.0000 0.0000 0.0000
# 4 0.0000 0.0000 0.0000 5099.9520 0.0000 0.0000
# 5 0.0000 0.0000 0.0000 0.0000 -401.0489 0.0000
# 6 0.0000 0.0000 0.0000 0.0000 0.0000 15.8849
#
#
#
# Elastic Compliance Matrix: (Units=1/GPa)
#
#
# Indices 1 2 3 4 5 6 
#
# 1 0.028508 -0.008336 0.000781 0.000000 0.000000 0.000000
# 2 -0.008336 0.008289 -0.001669 0.000000 0.000000 0.000000
# 3 0.000781 -0.001669 0.010130 0.000000 0.000000 0.000000
# 4 0.000000 0.000000 0.000000 0.000196 0.000000 0.000000
# 5 0.000000 0.000000 0.000000 0.000000 -0.002493 0.000000
# 6 0.000000 0.000000 0.000000 0.000000 0.000000 0.062953
#
#
# Mechanical properties :
#
#
# Convention : Reuss Voigt Hill
#
# Bulk Modulus (GPa) = 35.11301 54.59370 44.85335
# Shear Modulus (GPa) = 36.89374 959.53179 498.21276
#
# Velocity S-wave (km/s) = 4.61290 23.52485 16.95137
# Velocity P-wave (km/s) = 6.97305 27.73768 20.22378
#
# Compressibility (1/GPa) = 0.02847947
#
# Stress axis : x y z
#
# Youngs Moduli (GPa) = 35.07786 120.64161 98.71185
#
# Poissons Ratio (x) = 1.00567 -0.07710
# Poissons Ratio (y) = 0.29241 0.16476
# Poissons Ratio (z) = -0.02740 0.20136
#
# Static dielectric constant tensor:
#      x y z
#    x 1.560090 0.000000 0.000000 
#    y 0.000000 1.586280 0.000000 
#    z 0.000000 0.000000 1.668690 
# 
# From -- ./inp_files/16942.got.cif
#   From: 2010.05.17/outbox.cif.g08.bks.cpg/sg65_9_cif.got.tgz:16942.got - 2010.06.03 17:01:31.
