data_PCOD9486402
_publ_section_title
;
Structure prediction by ZEFSAII (Michael W. Deem and Ramdas Pophale) SiO2 
 PCOD9486402
Probable space group: C M M M
;
_chemical_formula_sum "Si O2"
_cell_formula_units_Z 104
_cell_length_a 9.023647
_cell_length_b 28.349546
_cell_length_c 24.127077
_cell_angle_alpha 90.000000
_cell_angle_beta 90.000000
_cell_angle_gamma 90.000000
_cell_volume 6172.099465
_symmetry_space_group_name_H-M "C M M M"
_symmetry_group_IT_number 65
_symmetry_cell_setting 'orthorhombic'
loop_
_space_group_symop_operation_xyz
x,y,z
-x,-y,z
x,-y,-z
-x,y,-z
-x,-y,-z
x,y,-z
-x,y,z
x,-y,z
1/2+x,1/2+y,z
1/2-x,1/2-y,z
1/2+x,1/2-y,-z
1/2-x,1/2+y,-z
1/2-x,1/2-y,-z
1/2+x,1/2+y,-z
1/2-x,1/2+y,z
1/2+x,1/2-y,z
loop_
_atom_site_type_symbol
_atom_site_label
_atom_site_fract_x
_atom_site_fract_y
_atom_site_fract_z
Si Si1 0.166993 0.000000 0.566640
Si Si2 0.670102 0.702188 0.755777
Si Si3 0.830483 0.118255 0.669565
Si Si4 0.678589 0.944785 0.237051
Si Si5 0.176855 0.402248 0.563784
Si Si6 0.675218 0.699995 0.933794
Si Si7 0.322940 0.862101 0.153719
O O1 0.259159 0.953591 0.579708
O O2 0.154652 0.000000 0.500000
O O3 0.000000 0.000000 0.589400
O O4 0.500000 0.710051 0.773885
O O5 0.750000 0.750000 0.739913
O O6 0.668119 0.665447 0.705698
O O7 0.764877 0.677238 0.803512
O O8 0.752886 0.079180 0.709013
O O9 0.745842 0.128443 0.612443
O O10 0.000000 0.104057 0.657956
O O11 0.500000 0.941973 0.243432
O O12 0.717460 0.912024 0.183487
O O13 0.718849 0.000000 0.231244
O O14 0.221332 0.391685 0.500000
O O15 0.000000 0.402438 0.565792
O O16 0.500000 0.702156 0.922004
O O17 0.750000 0.750000 0.916572
O O18 0.746952 0.655185 0.902853
O O19 0.695726 0.695849 0.000000
O O20 0.500000 0.860935 0.147984
#
# Coordination Sequence:
#
# PCOD9486402 Si02
#       7
#     8  16  16  16  16  16  16
#     4   9  17  29  45  65  89 119 155 193 232 277
#     4  10  20  34  52  74 100 129 163 203 248 297
#     4  10  21  34  50  74 100 128 162 202 249 297
#     4   9  19  35  53  73  99 132 168 206 247 292
#     4  10  20  33  49  69  95 128 163 199 243 296
#     4  10  20  33  50  74 105 138 170 206 249 296
#     4  10  19  32  52  76 102 133 168 205 247 294
#
# _framework density 16.850020000000001
#
# number of rings (size 3 to 8) (size 9 to 14) (size 15 to 20)
#    0.000    2.231    0.000    3.000    1.077    5.538 
#    0.000    0.000    0.000    0.923    0.000    3.231 
#    0.000    0.000    0.000    0.000    0.000    0.000 
#
# Total GULP energy -289869.761825 kJ/mol
# GULP energy per Si atom -5574.418497 kJ/mol
# Density = 1.681167 g / cm^3
# Si number density = 16.850020 Si / 1000 Ang^3
#
#
#
# Elastic Constant Matrix: (Units=GPa)
#
#
# Indices 1 2 3 4 5 6 
#
# 1 77.0379 40.5275 44.3960 0.0000 0.0000 0.0000
# 2 40.5275 87.3570 38.0636 0.0000 0.0000 0.0000
# 3 44.3960 38.0636 84.6592 0.0000 0.0000 0.0000
# 4 0.0000 0.0000 0.0000 14.7176 0.0000 0.0000
# 5 0.0000 0.0000 0.0000 0.0000 29.5025 0.0000
# 6 0.0000 0.0000 0.0000 0.0000 0.0000 23.7124
#
#
#
# Elastic Compliance Matrix: (Units=1/GPa)
#
#
# Indices 1 2 3 4 5 6 
#
# 1 0.020949 -0.006134 -0.008228 0.000000 0.000000 0.000000
# 2 -0.006134 0.016032 -0.003992 0.000000 0.000000 0.000000
# 3 -0.008228 -0.003992 0.017922 0.000000 0.000000 0.000000
# 4 0.000000 0.000000 0.000000 0.067946 0.000000 0.000000
# 5 0.000000 0.000000 0.000000 0.000000 0.033895 0.000000
# 6 0.000000 0.000000 0.000000 0.000000 0.000000 0.042172
#
#
# Mechanical properties :
#
#
# Convention : Reuss Voigt Hill
#
# Bulk Modulus (GPa) = 54.95723 55.00315 54.98019
# Shear Modulus (GPa) = 20.68777 21.99096 21.33936
#
# Velocity S-wave (km/s) = 3.50774 3.61654 3.56255
# Velocity P-wave (km/s) = 7.00657 7.08186 7.04431
#
# Compressibility (1/GPa) = 0.01819597
#
# Stress axis : x y z
#
# Youngs Moduli (GPa) = 47.73451 62.37464 55.79847
#
# Poissons Ratio (x) = 0.38259 0.45912
# Poissons Ratio (y) = 0.29279 0.22273
# Poissons Ratio (z) = 0.39277 0.24898
#
# Static dielectric constant tensor:
#      x y z
#    x 1.570970 0.000000 0.000000 
#    y 0.000000 1.575570 0.000000 
#    z 0.000000 0.000000 1.593550 
# 
# From -- ./inp_files/68251.got.cif
#   From: 2010.05.17/outbox.cif.g08.bks.cpg/sg65_35_cif.got.tgz:68251.got - 2010.06.03 17:01:31.
