data_PCOD9486359
_publ_section_title
;
Structure prediction by ZEFSAII (Michael W. Deem and Ramdas Pophale) SiO2 
 PCOD9486359
Probable space group: C M M M
;
_chemical_formula_sum "Si O2"
_cell_formula_units_Z 88
_cell_length_a 21.117615
_cell_length_b 25.727441
_cell_length_c 8.445436
_cell_angle_alpha 90.000000
_cell_angle_beta 90.000000
_cell_angle_gamma 90.000000
_cell_volume 4588.423908
_symmetry_space_group_name_H-M "C M M M"
_symmetry_group_IT_number 65
_symmetry_cell_setting 'orthorhombic'
loop_
_space_group_symop_operation_xyz
x,y,z
-x,-y,z
x,-y,-z
-x,y,-z
-x,-y,-z
x,y,-z
-x,y,z
x,-y,z
1/2+x,1/2+y,z
1/2-x,1/2-y,z
1/2+x,1/2-y,-z
1/2-x,1/2+y,-z
1/2-x,1/2-y,-z
1/2+x,1/2+y,-z
1/2-x,1/2+y,z
1/2+x,1/2-y,z
loop_
_atom_site_type_symbol
_atom_site_label
_atom_site_fract_x
_atom_site_fract_y
_atom_site_fract_z
Si Si1 0.304045 0.363521 0.677464
Si Si2 0.750000 0.250000 0.260713
Si Si3 0.380731 0.778319 0.686621
Si Si4 0.430421 0.673650 0.813793
Si Si5 0.199097 0.558698 0.191000
Si Si6 0.929521 0.386488 0.808695
O O1 0.317891 0.380391 0.500000
O O2 0.277075 0.304374 0.670762
O O3 0.369673 0.361046 0.772516
O O4 0.250933 0.400505 0.749752
O O5 0.682027 0.228001 0.202363
O O6 0.361301 0.780577 0.500000
O O7 0.421556 0.727015 0.716878
O O8 0.416894 0.830214 0.733199
O O9 0.500000 0.651175 0.779427
O O10 0.427948 0.686269 0.000000
O O11 0.211803 0.500000 0.245727
O O12 0.128867 0.577133 0.240039
O O13 0.200463 0.558952 0.000000
O O14 0.000000 0.405147 0.766282
O O15 0.927307 0.381421 0.000000
#
# Coordination Sequence:
#
# PCOD9486359 Si02
#       6
#    16   8  16  16  16  16
#     4  11  21  36  59  86 116 148 188 235 285 340
#     4  10  19  32  51  80 113 144 181 230 281 332
#     4  11  20  32  51  78 115 153 190 232 281 336
#     4  10  21  36  54  81 118 154 187 225 275 339
#     4  10  22  40  60  83 112 149 195 241 286 337
#     4  10  21  36  54  79 111 148 192 239 286 334
#
# _framework density 19.178699000000002
#
# number of rings (size 3 to 8) (size 9 to 14) (size 15 to 20)
#    0.000    1.636    1.818    4.909    0.000    4.727 
#    0.000    4.545    0.000    0.545    0.000    6.364 
#    0.000    0.000    0.000    0.000    0.000    0.000 
#
# Total GULP energy -245097.482982 kJ/mol
# GULP energy per Si atom -5570.397340 kJ/mol
# Density = 1.913505 g / cm^3
# Si number density = 19.178699 Si / 1000 Ang^3
#
#
#
# Elastic Constant Matrix: (Units=GPa)
#
#
# Indices 1 2 3 4 5 6 
#
# 1 165.7728 50.4626 30.1466 0.0000 0.0000 0.0000
# 2 50.4626 92.9504 17.5148 0.0000 0.0000 0.0000
# 3 30.1466 17.5148 38.1470 0.0000 0.0000 0.0000
# 4 0.0000 0.0000 0.0000 -2.9445 0.0000 0.0000
# 5 0.0000 0.0000 0.0000 0.0000 5.0213 0.0000
# 6 0.0000 0.0000 0.0000 0.0000 0.0000 14.5501
#
#
#
# Elastic Compliance Matrix: (Units=1/GPa)
#
#
# Indices 1 2 3 4 5 6 
#
# 1 0.007927 -0.003419 -0.004695 0.000000 0.000000 0.000000
# 2 -0.003419 0.013252 -0.003383 0.000000 0.000000 0.000000
# 3 -0.004695 -0.003383 0.031478 0.000000 0.000000 0.000000
# 4 0.000000 0.000000 0.000000 -0.339617 0.000000 0.000000
# 5 0.000000 0.000000 0.000000 0.000000 0.199154 0.000000
# 6 0.000000 0.000000 0.000000 0.000000 0.000000 0.068728
#
#
# Mechanical properties :
#
#
# Convention : Reuss Voigt Hill
#
# Bulk Modulus (GPa) = 33.71087 54.79090 44.25089
# Shear Modulus (GPa) = 362.28734 16.57512 189.43123
#
# Velocity S-wave (km/s) = 13.75903 2.94300 9.94918
# Velocity P-wave (km/s) = 16.43259 6.33869 12.45410
#
# Compressibility (1/GPa) = 0.02966402
#
# Stress axis : x y z
#
# Youngs Moduli (GPa) = 126.15408 75.46087 31.76865
#
# Poissons Ratio (x) = 0.25799 0.14914
# Poissons Ratio (y) = 0.43130 0.10746
# Poissons Ratio (z) = 0.59225 0.25526
#
# Static dielectric constant tensor:
#      x y z
#    x 1.700990 0.000000 0.000000 
#    y 0.000000 1.626170 0.000000 
#    z 0.000000 0.000000 1.675770 
# 
# From -- ./inp_files/11776.got.cif
#   From: 2010.05.17/outbox.cif.g08.bks.cpg/sg65_6_cif.got.tgz:11776.got - 2010.06.03 17:01:31.
