data_PCOD9486214
_publ_section_title
;
Structure prediction by ZEFSAII (Michael W. Deem and Ramdas Pophale) SiO2 
 PCOD9486214
Probable space group: C M M M
;
_chemical_formula_sum "Si O2"
_cell_formula_units_Z 104
_cell_length_a 27.391530
_cell_length_b 13.110840
_cell_length_c 16.147172
_cell_angle_alpha 90.000000
_cell_angle_beta 90.000000
_cell_angle_gamma 90.000000
_cell_volume 5798.868762
_symmetry_space_group_name_H-M "C M M M"
_symmetry_group_IT_number 65
_symmetry_cell_setting 'orthorhombic'
loop_
_space_group_symop_operation_xyz
x,y,z
-x,-y,z
x,-y,-z
-x,y,-z
-x,-y,-z
x,y,-z
-x,y,z
x,-y,z
1/2+x,1/2+y,z
1/2-x,1/2-y,z
1/2+x,1/2-y,-z
1/2-x,1/2+y,-z
1/2-x,1/2-y,-z
1/2+x,1/2+y,-z
1/2-x,1/2+y,z
1/2+x,1/2-y,z
loop_
_atom_site_type_symbol
_atom_site_label
_atom_site_fract_x
_atom_site_fract_y
_atom_site_fract_z
Si Si1 0.607889 0.115907 0.271009
Si Si2 0.055647 0.718043 0.597680
Si Si3 0.647819 0.619716 0.902459
Si Si4 0.807402 0.234373 0.254048
Si Si5 0.137780 0.878574 0.596974
Si Si6 0.941210 0.612772 0.000000
Si Si7 0.942535 0.763279 0.147529
O O1 0.588545 0.128370 0.363884
O O2 0.662130 0.159732 0.259269
O O3 0.573790 0.202082 0.228395
O O4 0.601951 0.000000 0.241389
O O5 0.053175 0.703874 0.500000
O O6 0.085824 0.822849 0.611149
O O7 0.000000 0.720360 0.629069
O O8 0.658544 0.500000 0.896113
O O9 0.678669 0.681741 0.833908
O O10 0.591933 0.642187 0.874213
O O11 0.653991 0.649120 0.000000
O O12 0.750000 0.250000 0.259680
O O13 0.827082 0.167974 0.332213
O O14 0.151956 0.857622 0.500000
O O15 0.134432 0.000000 0.606538
O O16 0.928774 0.679098 0.078772
O O17 0.919991 0.500000 0.000000
O O18 0.000000 0.604233 0.000000
O O19 0.000000 0.785119 0.145137
#
# Coordination Sequence:
#
# PCOD9486214 Si02
#       7
#    16  16  16  16  16   8  16
#     4  10  21  35  51  74 104 139 180 225 269 313
#     4   9  18  32  50  76 111 148 182 214 251 303
#     4  10  21  37  57  81 109 140 175 220 270 321
#     4  10  22  39  59  79 104 137 177 227 277 330
#     4   9  18  34  57  85 114 141 173 216 266 320
#     4   9  16  26  43  67  96 133 171 204 240 287
#     4  10  19  32  50  76 108 141 176 214 256 311
#
# _framework density 17.934532000000001
#
# number of rings (size 3 to 8) (size 9 to 14) (size 15 to 20)
#    0.000    2.385    0.769    1.385    0.000    4.615 
#    0.000    3.077    0.000    5.538    0.000    0.000 
#    0.000    0.000    0.000    0.000    0.000    0.000 
#
# Total GULP energy -289502.915769 kJ/mol
# GULP energy per Si atom -5567.363765 kJ/mol
# Density = 1.789371 g / cm^3
# Si number density = 17.934532 Si / 1000 Ang^3
#
#
#
# Elastic Constant Matrix: (Units=GPa)
#
#
# Indices 1 2 3 4 5 6 
#
# 1 115.7201 18.9439 46.7078 0.0000 0.0000 0.0000
# 2 18.9439 59.3770 36.7447 0.0000 0.0000 0.0000
# 3 46.7078 36.7447 92.3804 0.0000 0.0000 0.0000
# 4 0.0000 0.0000 0.0000 17.0566 0.0000 0.0000
# 5 0.0000 0.0000 0.0000 0.0000 19.2405 0.0000
# 6 0.0000 0.0000 0.0000 0.0000 0.0000 8.8277
#
#
#
# Elastic Compliance Matrix: (Units=1/GPa)
#
#
# Indices 1 2 3 4 5 6 
#
# 1 0.010858 -0.000089 -0.005454 0.000000 0.000000 0.000000
# 2 -0.000089 0.022341 -0.008842 0.000000 0.000000 0.000000
# 3 -0.005454 -0.008842 0.017099 0.000000 0.000000 0.000000
# 4 0.000000 0.000000 0.000000 0.058628 0.000000 0.000000
# 5 0.000000 0.000000 0.000000 0.000000 0.051974 0.000000
# 6 0.000000 0.000000 0.000000 0.000000 0.000000 0.113280
#
#
# Mechanical properties :
#
#
# Convention : Reuss Voigt Hill
#
# Bulk Modulus (GPa) = 46.44881 52.47446 49.46164
# Shear Modulus (GPa) = 16.12249 20.03036 18.07643
#
# Velocity S-wave (km/s) = 3.00153 3.34557 3.17821
# Velocity P-wave (km/s) = 6.16178 6.65178 6.41146
#
# Compressibility (1/GPa) = 0.02152908
#
# Stress axis : x y z
#
# Youngs Moduli (GPa) = 92.10150 44.76014 58.48192
#
# Poissons Ratio (x) = 0.00397 0.31898
# Poissons Ratio (y) = 0.00817 0.51707
# Poissons Ratio (z) = 0.50235 0.39575
#
# Static dielectric constant tensor:
#      x y z
#    x 1.595220 0.000000 0.000000 
#    y 0.000000 1.612280 0.000000 
#    z 0.000000 0.000000 1.476600 
# 
# From -- ./inp_files/57540.got.cif
#   From: 2010.05.17/outbox.cif.g08.bks.cpg/sg65_29_cif.got.tgz:57540.got - 2010.06.03 17:01:31.
