data_PCOD9486688
_publ_section_title
;
Structure prediction by ZEFSAII (Michael W. Deem and Ramdas Pophale) SiO2 
 PCOD9486688
Probable space group: C M M M
;
_chemical_formula_sum "Si O2"
_cell_formula_units_Z 88
_cell_length_a 28.521269
_cell_length_b 15.221140
_cell_length_c 11.804485
_cell_angle_alpha 90.000000
_cell_angle_beta 90.000000
_cell_angle_gamma 90.000000
_cell_volume 5124.636552
_symmetry_space_group_name_H-M "C M M M"
_symmetry_group_IT_number 65
_symmetry_cell_setting 'orthorhombic'
loop_
_space_group_symop_operation_xyz
x,y,z
-x,-y,z
x,-y,-z
-x,y,-z
-x,-y,-z
x,y,-z
-x,y,z
x,-y,z
1/2+x,1/2+y,z
1/2-x,1/2-y,z
1/2+x,1/2-y,-z
1/2-x,1/2+y,-z
1/2-x,1/2-y,-z
1/2+x,1/2+y,-z
1/2-x,1/2+y,z
1/2+x,1/2-y,z
loop_
_atom_site_type_symbol
_atom_site_label
_atom_site_fract_x
_atom_site_fract_y
_atom_site_fract_z
Si Si1 0.220885 0.339820 0.742804
Si Si2 0.687096 0.897755 0.500000
Si Si3 0.305067 0.594267 0.129938
Si Si4 0.365409 0.232701 0.866072
Si Si5 0.445712 0.750812 0.315067
Si Si6 0.443147 0.396186 0.500000
Si Si7 0.574240 0.896136 0.500000
O O1 0.250000 0.250000 0.753572
O O2 0.206852 0.355399 0.613847
O O3 0.259410 0.405127 0.792029
O O4 0.173483 0.334355 0.816444
O O5 0.630801 0.891817 0.500000
O O6 0.700041 0.000000 0.500000
O O7 0.329156 0.500000 0.139260
O O8 0.340650 0.672741 0.152409
O O9 0.288646 0.606429 0.000000
O O10 0.411989 0.233680 0.791083
O O11 0.372960 0.219650 0.000000
O O12 0.500000 0.736739 0.283766
O O13 0.430128 0.665839 0.391717
O O14 0.442702 0.838130 0.393449
O O15 0.427592 0.500000 0.500000
O O16 0.500000 0.398559 0.500000
O O17 0.560986 0.000000 0.500000
#
# Coordination Sequence:
#
# PCOD9486688 Si02
#       7
#    16   8  16  16  16   8   8
#     4  10  19  33  52  73 103 138 169 210 260 314
#     4  11  20  31  51  77 104 131 164 215 269 316
#     4   9  18  33  53  75 101 136 176 214 252 305
#     4  10  20  34  52  75 105 139 178 219 261 309
#     4  10  20  35  56  80 107 139 176 218 267 320
#     4   8  16  32  54  79 104 132 170 215 260 310
#     4  10  20  36  58  79 101 134 175 220 271 321
#
# _framework density 17.171949999999999
#
# number of rings (size 3 to 8) (size 9 to 14) (size 15 to 20)
#    0.000    2.273    1.818    2.182    0.000    4.000 
#    0.000    0.000    0.000    6.000    0.000    6.364 
#    0.000    0.000    0.000    0.000    0.000    0.000 
#
# Total GULP energy -245020.161358 kJ/mol
# GULP energy per Si atom -5568.640031 kJ/mol
# Density = 1.713287 g / cm^3
# Si number density = 17.171950 Si / 1000 Ang^3
#
#
#
# Elastic Constant Matrix: (Units=GPa)
#
#
# Indices 1 2 3 4 5 6 
#
# 1 81.1438 10.7040 60.0654 0.0000 0.0000 0.0000
# 2 10.7040 80.2265 21.6103 0.0000 0.0000 0.0000
# 3 60.0654 21.6103 118.3357 0.0000 0.0000 0.0000
# 4 0.0000 0.0000 0.0000 7.1093 0.0000 0.0000
# 5 0.0000 0.0000 0.0000 0.0000 27.3783 0.0000
# 6 0.0000 0.0000 0.0000 0.0000 0.0000 -10.2541
#
#
#
# Elastic Compliance Matrix: (Units=1/GPa)
#
#
# Indices 1 2 3 4 5 6 
#
# 1 0.019742 0.000069 -0.010033 0.000000 0.000000 0.000000
# 2 0.000069 0.013110 -0.002429 0.000000 0.000000 0.000000
# 3 -0.010033 -0.002429 0.013987 0.000000 0.000000 0.000000
# 4 0.000000 0.000000 0.000000 0.140661 0.000000 0.000000
# 5 0.000000 0.000000 0.000000 0.000000 0.036525 0.000000
# 6 0.000000 0.000000 0.000000 0.000000 0.000000 -0.097522
#
#
# Mechanical properties :
#
#
# Convention : Reuss Voigt Hill
#
# Bulk Modulus (GPa) = 45.34863 51.60726 48.47794
# Shear Modulus (GPa) = 31.51796 17.33512 24.42654
#
# Velocity S-wave (km/s) = 4.28884 3.18071 3.77565
# Velocity P-wave (km/s) = 7.14083 6.60361 6.87747
#
# Compressibility (1/GPa) = 0.02205138
#
# Stress axis : x y z
#
# Youngs Moduli (GPa) = 50.65462 76.27866 71.49644
#
# Poissons Ratio (x) = -0.00523 0.71733
# Poissons Ratio (y) = -0.00347 0.17366
# Poissons Ratio (z) = 0.50822 0.18527
#
# Static dielectric constant tensor:
#      x y z
#    x 1.567120 0.000000 0.000000 
#    y 0.000000 1.618710 0.000000 
#    z 0.000000 0.000000 1.551430 
# 
# From -- ./inp_files/32256.got.cif
#   From: 2010.05.17/outbox.cif.g08.bks.cpg/sg65_17_cif.got.tgz:32256.got - 2010.06.03 17:01:31.
