data_PCOD9486628
_publ_section_title
;
Structure prediction by ZEFSAII (Michael W. Deem and Ramdas Pophale) SiO2 
 PCOD9486628
Probable space group: C M M M
;
_chemical_formula_sum "Si O2"
_cell_formula_units_Z 80
_cell_length_a 16.054308
_cell_length_b 28.477270
_cell_length_c 9.973606
_cell_angle_alpha 90.000000
_cell_angle_beta 90.000000
_cell_angle_gamma 90.000000
_cell_volume 4559.761751
_symmetry_space_group_name_H-M "C M M M"
_symmetry_group_IT_number 65
_symmetry_cell_setting 'orthorhombic'
loop_
_space_group_symop_operation_xyz
x,y,z
-x,-y,z
x,-y,-z
-x,y,-z
-x,-y,-z
x,y,-z
-x,y,z
x,-y,z
1/2+x,1/2+y,z
1/2-x,1/2-y,z
1/2+x,1/2-y,-z
1/2-x,1/2+y,-z
1/2-x,1/2-y,-z
1/2+x,1/2+y,-z
1/2-x,1/2+y,z
1/2+x,1/2-y,z
loop_
_atom_site_type_symbol
_atom_site_label
_atom_site_fract_x
_atom_site_fract_y
_atom_site_fract_z
Si Si1 0.905544 0.556561 0.843107
Si Si2 0.096850 0.862215 0.341554
Si Si3 0.676353 0.211605 0.354933
Si Si4 0.269832 0.896802 0.653174
Si Si5 0.401448 0.273706 0.851111
O O1 0.902427 0.500000 0.834076
O O2 0.832941 0.578145 0.753145
O O3 0.000000 0.571104 0.802443
O O4 0.894911 0.569080 0.000000
O O5 0.104352 0.849004 0.500000
O O6 0.170819 0.899368 0.315659
O O7 0.114956 0.818063 0.245475
O O8 0.000000 0.876717 0.320510
O O9 0.631960 0.216002 0.500000
O O10 0.750000 0.250000 0.357166
O O11 0.709307 0.158871 0.344723
O O12 0.624679 0.226949 0.226516
O O13 0.282739 0.913332 0.500000
O O14 0.500000 0.272895 0.864623
O O15 0.363653 0.278140 0.000000
#
# Coordination Sequence:
#
# PCOD9486628 Si02
#       5
#    16  16  16  16  16
#     4   9  20  40  62  82 107 140 175 214 271 339
#     4   9  17  32  52  72 101 142 180 213 255 308
#     4  10  19  33  48  67 101 140 177 216 261 313
#     4  10  20  33  54  83 107 134 179 226 268 316
#     4  10  20  31  44  66  96 133 179 223 260 303
#
# _framework density 17.544775999999999
#
# number of rings (size 3 to 8) (size 9 to 14) (size 15 to 20)
#    0.000    2.400    2.000    1.200    0.000    4.800 
#    0.000    5.000    0.000    0.600    0.000    4.200 
#    0.000    0.000    0.000    0.000    0.000    0.000 
#
# Total GULP energy -222719.725595 kJ/mol
# GULP energy per Si atom -5567.993140 kJ/mol
# Density = 1.750484 g / cm^3
# Si number density = 17.544776 Si / 1000 Ang^3
#
#
#
# Elastic Constant Matrix: (Units=GPa)
#
#
# Indices 1 2 3 4 5 6 
#
# 1 113.6565 30.3091 72.2366 0.0000 0.0000 0.0000
# 2 30.3091 26.2139 24.5369 0.0000 0.0000 0.0000
# 3 72.2366 24.5369 100.7752 0.0000 0.0000 0.0000
# 4 0.0000 0.0000 0.0000 19.6082 0.0000 0.0000
# 5 0.0000 0.0000 0.0000 0.0000 22.2532 0.0000
# 6 0.0000 0.0000 0.0000 0.0000 0.0000 30.2468
#
#
#
# Elastic Compliance Matrix: (Units=1/GPa)
#
#
# Indices 1 2 3 4 5 6 
#
# 1 0.018559 -0.011665 -0.010463 0.000000 0.000000 0.000000
# 2 -0.011665 0.056740 -0.005454 0.000000 0.000000 0.000000
# 3 -0.010463 -0.005454 0.018751 0.000000 0.000000 0.000000
# 4 0.000000 0.000000 0.000000 0.050999 0.000000 0.000000
# 5 0.000000 0.000000 0.000000 0.000000 0.044937 0.000000
# 6 0.000000 0.000000 0.000000 0.000000 0.000000 0.033061
#
#
# Mechanical properties :
#
#
# Convention : Reuss Voigt Hill
#
# Bulk Modulus (GPa) = 25.71580 54.97897 40.34739
# Shear Modulus (GPa) = 17.17189 21.99249 19.58219
#
# Velocity S-wave (km/s) = 3.13189 3.54433 3.34447
# Velocity P-wave (km/s) = 5.26947 6.93932 6.16123
#
# Compressibility (1/GPa) = 0.03888660
#
# Stress axis : x y z
#
# Youngs Moduli (GPa) = 53.88144 17.62436 53.33009
#
# Poissons Ratio (x) = 0.20558 0.55801
# Poissons Ratio (y) = 0.62851 0.29085
# Poissons Ratio (z) = 0.56378 0.09612
#
# Static dielectric constant tensor:
#      x y z
#    x 1.648970 0.000000 0.000000 
#    y 0.000000 1.574560 0.000000 
#    z 0.000000 0.000000 1.651750 
# 
# From -- ./inp_files/9593.got.cif
#   From: 2010.05.17/outbox.cif.g08.bks.cpg/sg65_5_cif.got.tgz:9593.got - 2010.06.03 17:01:31.
