data_PCOD9486923
_publ_section_title
;
Structure prediction by ZEFSAII (Michael W. Deem and Ramdas Pophale) SiO2 
 PCOD9486923
Probable space group: C M M M
;
_chemical_formula_sum "Si O2"
_cell_formula_units_Z 80
_cell_length_a 23.069835
_cell_length_b 15.667178
_cell_length_c 12.916022
_cell_angle_alpha 90.000000
_cell_angle_beta 90.000000
_cell_angle_gamma 90.000000
_cell_volume 4668.356806
_symmetry_space_group_name_H-M "C M M M"
_symmetry_group_IT_number 65
_symmetry_cell_setting 'orthorhombic'
loop_
_space_group_symop_operation_xyz
x,y,z
-x,-y,z
x,-y,-z
-x,y,-z
-x,-y,-z
x,y,-z
-x,y,z
x,-y,z
1/2+x,1/2+y,z
1/2-x,1/2-y,z
1/2+x,1/2-y,-z
1/2-x,1/2+y,-z
1/2-x,1/2-y,-z
1/2+x,1/2+y,-z
1/2-x,1/2+y,z
1/2+x,1/2-y,z
loop_
_atom_site_type_symbol
_atom_site_label
_atom_site_fract_x
_atom_site_fract_y
_atom_site_fract_z
Si Si1 0.618993 0.902715 0.622311
Si Si2 0.378391 0.594616 0.000000
Si Si3 0.247871 0.852748 0.380599
Si Si4 0.854721 0.096666 0.230277
Si Si5 0.069177 0.262857 0.773020
Si Si6 0.066470 0.729132 0.000000
O O1 0.607917 0.890382 0.500000
O O2 0.687859 0.888615 0.637818
O O3 0.585651 0.833242 0.689252
O O4 0.603605 0.000000 0.649526
O O5 0.342914 0.603263 0.106523
O O6 0.404506 0.500000 0.000000
O O7 0.426550 0.667954 0.000000
O O8 0.231653 0.872974 0.500000
O O9 0.250000 0.750000 0.371097
O O10 0.201407 0.888413 0.300356
O O11 0.899869 0.172945 0.251843
O O12 0.876713 0.000000 0.248446
O O13 0.000000 0.250936 0.778763
O O14 0.090817 0.294504 0.887226
O O15 0.000000 0.701612 0.000000
#
# Coordination Sequence:
#
# PCOD9486923 Si02
#       6
#    16   8  16  16  16   8
#     4  10  21  37  56  77 101 133 175 218 258 304
#     4   8  16  29  46  73 106 137 169 204 246 300
#     4  10  19  34  56  79 103 133 170 214 261 306
#     4  10  19  33  54  79 108 139 170 208 255 306
#     4  10  20  35  54  77 106 138 173 213 255 303
#     4   8  16  31  50  71  98 135 175 211 249 295
#
# _framework density 17.136651000000001
#
# number of rings (size 3 to 8) (size 9 to 14) (size 15 to 20)
#    0.000    2.400    2.000    0.600    0.000    2.600 
#    0.000    7.000    0.000    1.800    0.000    2.800 
#    0.000    0.000    0.000    0.000    0.000    0.000 
#
# Total GULP energy -222750.779508 kJ/mol
# GULP energy per Si atom -5568.769488 kJ/mol
# Density = 1.709765 g / cm^3
# Si number density = 17.136651 Si / 1000 Ang^3
#
#
#
# Elastic Constant Matrix: (Units=GPa)
#
#
# Indices 1 2 3 4 5 6 
#
# 1 32.7804 20.4025 31.2088 0.0000 0.0000 0.0000
# 2 20.4025 98.1280 55.7153 0.0000 0.0000 0.0000
# 3 31.2088 55.7153 68.2149 0.0000 0.0000 0.0000
# 4 0.0000 0.0000 0.0000 29.4559 0.0000 0.0000
# 5 0.0000 0.0000 0.0000 0.0000 25.0985 0.0000
# 6 0.0000 0.0000 0.0000 0.0000 0.0000 6.2719
#
#
#
# Elastic Compliance Matrix: (Units=1/GPa)
#
#
# Indices 1 2 3 4 5 6 
#
# 1 0.055524 0.005368 -0.029787 0.000000 0.000000 0.000000
# 2 0.005368 0.019522 -0.018401 0.000000 0.000000 0.000000
# 3 -0.029787 -0.018401 0.043317 0.000000 0.000000 0.000000
# 4 0.000000 0.000000 0.000000 0.033949 0.000000 0.000000
# 5 0.000000 0.000000 0.000000 0.000000 0.039843 0.000000
# 6 0.000000 0.000000 0.000000 0.000000 0.000000 0.159442
#
#
# Mechanical properties :
#
#
# Convention : Reuss Voigt Hill
#
# Bulk Modulus (GPa) = 30.55964 45.97518 38.26741
# Shear Modulus (GPa) = 11.15711 18.28504 14.72108
#
# Velocity S-wave (km/s) = 2.55437 3.27006 2.93412
# Velocity P-wave (km/s) = 5.15474 6.41440 5.81876
#
# Compressibility (1/GPa) = 0.03272290
#
# Stress axis : x y z
#
# Youngs Moduli (GPa) = 18.01025 51.22302 23.08577
#
# Poissons Ratio (x) = -0.27497 0.68766
# Poissons Ratio (y) = -0.09668 0.42481
# Poissons Ratio (z) = 0.53647 0.94256
#
# Static dielectric constant tensor:
#      x y z
#    x 1.553110 0.000000 0.000000 
#    y 0.000000 1.584310 0.000000 
#    z 0.000000 0.000000 1.607960 
# 
# From -- ./inp_files/30424.got.cif
#   From: 2010.05.17/outbox.cif.g08.bks.cpg/sg65_16_cif.got.tgz:30424.got - 2010.06.03 17:01:31.
