data_PCOD9486632
_publ_section_title
;
Structure prediction by ZEFSAII (Michael W. Deem and Ramdas Pophale) SiO2 
 PCOD9486632
Probable space group: C M M M
;
_chemical_formula_sum "Si O2"
_cell_formula_units_Z 96
_cell_length_a 9.330274
_cell_length_b 26.200658
_cell_length_c 27.933201
_cell_angle_alpha 90.000000
_cell_angle_beta 90.000000
_cell_angle_gamma 90.000000
_cell_volume 6828.531269
_symmetry_space_group_name_H-M "C M M M"
_symmetry_group_IT_number 65
_symmetry_cell_setting 'orthorhombic'
loop_
_space_group_symop_operation_xyz
x,y,z
-x,-y,z
x,-y,-z
-x,y,-z
-x,-y,-z
x,y,-z
-x,y,z
x,-y,z
1/2+x,1/2+y,z
1/2-x,1/2-y,z
1/2+x,1/2-y,-z
1/2-x,1/2+y,-z
1/2-x,1/2-y,-z
1/2+x,1/2+y,-z
1/2-x,1/2+y,z
1/2+x,1/2-y,z
loop_
_atom_site_type_symbol
_atom_site_label
_atom_site_fract_x
_atom_site_fract_y
_atom_site_fract_z
Si Si1 0.827733 0.906446 0.108379
Si Si2 0.834426 0.437805 0.500000
Si Si3 0.328833 0.698148 0.056044
Si Si4 0.834884 0.562158 0.690165
Si Si5 0.831066 0.060916 0.785399
Si Si6 0.834503 0.937782 0.404705
Si Si7 0.670270 0.000000 0.057156
O O1 0.790499 0.851290 0.087025
O O2 0.796211 0.911782 0.164757
O O3 0.000000 0.914214 0.102544
O O4 0.744423 0.950495 0.080228
O O5 0.834640 0.500000 0.500000
O O6 0.751361 0.421713 0.547918
O O7 0.000000 0.421541 0.500000
O O8 0.500000 0.705404 0.059379
O O9 0.250000 0.750000 0.070665
O O10 0.294093 0.688359 0.000000
O O11 0.832984 0.500000 0.689902
O O12 0.761216 0.577679 0.739891
O O13 0.745140 0.578668 0.643754
O O14 0.000000 0.578226 0.687158
O O15 0.000000 0.067858 0.774979
O O16 0.808670 0.000000 0.792813
O O17 0.000000 0.921620 0.405895
O O18 0.834279 0.000000 0.404638
O O19 0.500000 0.000000 0.066836
O O20 0.691473 0.000000 0.000000
#
# Coordination Sequence:
#
# PCOD9486632 Si02
#       7
#    16   8  16  16  16  16   8
#     4  10  19  33  50  66  84 112 144 171 202 250
#     4   9  15  21  29  41  59  81 109 151 200 243
#     4   9  18  32  50  69  87 109 138 171 207 247
#     4   9  16  24  34  48  67  92 121 153 193 238
#     4   9  16  27  41  57  76  99 129 163 197 235
#     4   9  15  22  31  43  59  83 116 154 194 235
#     4  11  23  33  43  65  93 115 135 166 209 250
#
# _framework density 14.05866
#
# number of rings (size 3 to 8) (size 9 to 14) (size 15 to 20)
#    0.000    2.667    0.833    2.000    0.000    7.667 
#    0.000    1.667    0.000    0.000    0.000    0.000 
#    0.000    0.000    0.000    0.000    0.000    0.000 
#
# Total GULP energy -267448.011929 kJ/mol
# GULP energy per Si atom -5571.833582 kJ/mol
# Density = 1.402666 g / cm^3
# Si number density = 14.058660 Si / 1000 Ang^3
#
#
#
# Elastic Constant Matrix: (Units=GPa)
#
#
# Indices 1 2 3 4 5 6 
#
# 1 97.2526 39.3675 85.4666 0.0000 0.0000 0.0000
# 2 39.3675 56.7031 50.9012 0.0000 0.0000 0.0000
# 3 85.4666 50.9012 138.5330 0.0000 0.0000 0.0000
# 4 0.0000 0.0000 0.0000 6.7904 0.0000 0.0000
# 5 0.0000 0.0000 0.0000 0.0000 23.1884 0.0000
# 6 0.0000 0.0000 0.0000 0.0000 0.0000 13.9842
#
#
#
# Elastic Compliance Matrix: (Units=1/GPa)
#
#
# Indices 1 2 3 4 5 6 
#
# 1 0.023334 -0.004891 -0.012599 0.000000 0.000000 0.000000
# 2 -0.004891 0.027340 -0.007029 0.000000 0.000000 0.000000
# 3 -0.012599 -0.007029 0.017574 0.000000 0.000000 0.000000
# 4 0.000000 0.000000 0.000000 0.147266 0.000000 0.000000
# 5 0.000000 0.000000 0.000000 0.000000 0.043125 0.000000
# 6 0.000000 0.000000 0.000000 0.000000 0.000000 0.071509
#
#
# Mechanical properties :
#
#
# Convention : Reuss Voigt Hill
#
# Bulk Modulus (GPa) = 52.04947 71.55103 61.80025
# Shear Modulus (GPa) = 12.96716 16.57616 14.77166
#
# Velocity S-wave (km/s) = 3.04033 3.43749 3.24499
# Velocity P-wave (km/s) = 7.03053 8.17069 7.62196
#
# Compressibility (1/GPa) = 0.01921249
#
# Stress axis : x y z
#
# Youngs Moduli (GPa) = 42.85546 36.57578 56.90300
#
# Poissons Ratio (x) = 0.17888 0.71692
# Poissons Ratio (y) = 0.20959 0.39994
# Poissons Ratio (z) = 0.53993 0.25707
#
# Static dielectric constant tensor:
#      x y z
#    x 1.471230 0.000000 0.000000 
#    y 0.000000 1.420440 0.000000 
#    z 0.000000 0.000000 1.463400 
# 
# From -- ./inp_files/73521.got.cif
#   From: 2010.05.17/outbox.cif.g08.bks.cpg/sg65_37_cif.got.tgz:73521.got - 2010.06.03 17:01:31.
