data_PCOD9486956
_publ_section_title
;
Structure prediction by ZEFSAII (Michael W. Deem and Ramdas Pophale) SiO2 
 PCOD9486956
Probable space group: C M M M
;
_chemical_formula_sum "Si O2"
_cell_formula_units_Z 116
_cell_length_a 18.713672
_cell_length_b 26.306627
_cell_length_c 12.975514
_cell_angle_alpha 90.000000
_cell_angle_beta 90.000000
_cell_angle_gamma 90.000000
_cell_volume 6387.762358
_symmetry_space_group_name_H-M "C M M M"
_symmetry_group_IT_number 65
_symmetry_cell_setting 'orthorhombic'
loop_
_space_group_symop_operation_xyz
x,y,z
-x,-y,z
x,-y,-z
-x,y,-z
-x,-y,-z
x,y,-z
-x,y,z
x,-y,z
1/2+x,1/2+y,z
1/2-x,1/2-y,z
1/2+x,1/2-y,-z
1/2-x,1/2+y,-z
1/2-x,1/2-y,-z
1/2+x,1/2+y,-z
1/2-x,1/2+y,z
1/2+x,1/2-y,z
loop_
_atom_site_type_symbol
_atom_site_label
_atom_site_fract_x
_atom_site_fract_y
_atom_site_fract_z
Si Si1 0.919701 0.788668 0.622602
Si Si2 0.667170 0.561015 0.114997
Si Si3 0.828890 0.559629 0.184415
Si Si4 0.614755 0.596610 0.329577
Si Si5 0.277452 0.890864 0.618376
Si Si6 0.813229 0.286533 0.269028
Si Si7 0.917941 0.346607 0.120600
Si Si8 0.500000 0.433788 0.500000
O O1 0.915475 0.796096 0.500000
O O2 0.906728 0.844138 0.669366
O O3 0.862186 0.748543 0.659136
O O4 0.000000 0.771475 0.648069
O O5 0.664046 0.500000 0.114235
O O6 0.750497 0.574087 0.138417
O O7 0.619494 0.578942 0.210996
O O8 0.647960 0.579588 0.000000
O O9 0.840571 0.500000 0.166780
O O10 0.822366 0.573086 0.305603
O O11 0.888308 0.596317 0.137331
O O12 0.695206 0.592413 0.372458
O O13 0.561757 0.568895 0.408398
O O14 0.300389 0.891357 0.500000
O O15 0.283027 0.834096 0.665795
O O16 0.750000 0.250000 0.229791
O O17 0.863926 0.310350 0.182102
O O18 0.000000 0.342170 0.156943
O O19 0.916027 0.334683 0.000000
#
# Coordination Sequence:
#
# PCOD9486956 Si02
#       8
#    16  16  16  16  16  16  16   4
#     4  11  20  34  54  78 111 149 185 227 281 339
#     4   9  19  37  58  80 109 142 183 236 288 339
#     4   9  19  35  59  89 115 147 189 232 287 347
#     4  11  19  33  55  79 106 146 185 233 285 337
#     4  10  19  33  54  85 120 144 184 237 285 333
#     4  11  22  34  55  84 112 149 192 238 281 340
#     4  10  22  40  58  81 117 152 188 242 297 344
#     4  12  20  36  55  76 116 144 186 236 287 352
#
# _framework density 18.159725000000002
#
# number of rings (size 3 to 8) (size 9 to 14) (size 15 to 20)
#    0.000    1.793    3.448    1.241    0.000    2.207 
#    0.000    2.759    0.000    5.379    0.000    3.862 
#    0.000    0.000    0.000    0.000    0.000    0.000 
#
# Total GULP energy -323072.658329 kJ/mol
# GULP energy per Si atom -5570.218247 kJ/mol
# Density = 1.811839 g / cm^3
# Si number density = 18.159725 Si / 1000 Ang^3
#
#
#
# Elastic Constant Matrix: (Units=GPa)
#
#
# Indices 1 2 3 4 5 6 
#
# 1 83.3599 17.0659 44.8509 0.0000 0.0000 0.0000
# 2 17.0659 45.1616 24.8033 0.0000 0.0000 0.0000
# 3 44.8509 24.8033 135.3637 0.0000 0.0000 0.0000
# 4 0.0000 0.0000 0.0000 24.8854 0.0000 0.0000
# 5 0.0000 0.0000 0.0000 0.0000 25.0887 0.0000
# 6 0.0000 0.0000 0.0000 0.0000 0.0000 32.2925
#
#
#
# Elastic Compliance Matrix: (Units=1/GPa)
#
#
# Indices 1 2 3 4 5 6 
#
# 1 0.015021 -0.003272 -0.004378 0.000000 0.000000 0.000000
# 2 -0.003272 0.025333 -0.003558 0.000000 0.000000 0.000000
# 3 -0.004378 -0.003558 0.009490 0.000000 0.000000 0.000000
# 4 0.000000 0.000000 0.000000 0.040184 0.000000 0.000000
# 5 0.000000 0.000000 0.000000 0.000000 0.039859 0.000000
# 6 0.000000 0.000000 0.000000 0.000000 0.000000 0.030967
#
#
# Mechanical properties :
#
#
# Convention : Reuss Voigt Hill
#
# Bulk Modulus (GPa) = 36.45707 48.59170 42.52438
# Shear Modulus (GPa) = 25.98590 28.26433 27.12512
#
# Velocity S-wave (km/s) = 3.78691 3.94944 3.86903
# Velocity P-wave (km/s) = 6.26421 6.90025 6.58991
#
# Compressibility (1/GPa) = 0.02742952
#
# Stress axis : x y z
#
# Youngs Moduli (GPa) = 66.57188 39.47394 105.37579
#
# Poissons Ratio (x) = 0.12916 0.46129
# Poissons Ratio (y) = 0.21783 0.37490
# Poissons Ratio (z) = 0.29142 0.14044
#
# Static dielectric constant tensor:
#      x y z
#    x 1.631080 0.000000 0.000000 
#    y 0.000000 1.629320 0.000000 
#    z 0.000000 0.000000 1.625120 
# 
# From -- ./inp_files/27585.got.cif
#   From: 2010.05.17/outbox.cif.g08.bks.cpg/sg65_14_cif.got.tgz:27585.got - 2010.06.03 17:01:31.
