data_PCOD9486371
_publ_section_title
;
Structure prediction by ZEFSAII (Michael W. Deem and Ramdas Pophale) SiO2 
 PCOD9486371
Probable space group: C M M M
;
_chemical_formula_sum "Si O2"
_cell_formula_units_Z 96
_cell_length_a 7.736998
_cell_length_b 18.783881
_cell_length_c 32.010424
_cell_angle_alpha 90.000000
_cell_angle_beta 90.000000
_cell_angle_gamma 90.000000
_cell_volume 4652.102120
_symmetry_space_group_name_H-M "C M M M"
_symmetry_group_IT_number 65
_symmetry_cell_setting 'orthorhombic'
loop_
_space_group_symop_operation_xyz
x,y,z
-x,-y,z
x,-y,-z
-x,y,-z
-x,-y,-z
x,y,-z
-x,y,z
x,-y,z
1/2+x,1/2+y,z
1/2-x,1/2-y,z
1/2+x,1/2-y,-z
1/2-x,1/2+y,-z
1/2-x,1/2-y,-z
1/2+x,1/2+y,-z
1/2-x,1/2+y,z
1/2+x,1/2-y,z
loop_
_atom_site_type_symbol
_atom_site_label
_atom_site_fract_x
_atom_site_fract_y
_atom_site_fract_z
Si Si1 0.292051 0.667504 0.453235
Si Si2 0.207537 0.419294 0.953343
Si Si3 0.787850 0.917684 0.791297
Si Si4 0.788149 0.917936 0.627380
Si Si5 0.796111 0.167443 0.128222
Si Si6 0.792323 0.166805 0.709139
O O1 0.226853 0.650462 0.500000
O O2 0.500000 0.661079 0.454295
O O3 0.250000 0.750000 0.444552
O O4 0.229052 0.617795 0.415855
O O5 0.269900 0.500000 0.944263
O O6 0.250871 0.366024 0.916402
O O7 0.000000 0.422373 0.955236
O O8 0.269455 0.399173 0.000000
O O9 0.724091 0.878823 0.833293
O O10 0.730465 0.874025 0.750548
O O11 0.000000 0.917340 0.791298
O O12 0.734777 0.000000 0.789833
O O13 0.729637 0.871723 0.667038
O O14 0.000000 0.916869 0.627247
O O15 0.735575 0.000000 0.630961
O O16 0.750000 0.250000 0.131229
O O17 0.000000 0.162601 0.132130
O O18 0.750000 0.250000 0.709955
O O19 0.000000 0.160611 0.709004
#
# Coordination Sequence:
#
# PCOD9486371 Si02
#       6
#    16  16  16  16  16  16
#     4   9  17  29  46  68  94 124 158 199 245 291
#     4   9  19  37  59  81 106 136 170 210 256 303
#     4   9  18  33  53  76 100 128 165 207 249 294
#     4   9  17  29  47  71  95 123 163 204 241 285
#     4  11  22  35  53  77 106 138 172 210 251 298
#     4  10  19  32  52  74  98 128 161 200 244 292
#
# _framework density 20.635833000000002
#
# number of rings (size 3 to 8) (size 9 to 14) (size 15 to 20)
#    0.000    2.500    0.000    3.000    0.000    4.000 
#    0.000    3.333    0.000    5.500    0.000    2.333 
#    0.000    0.000    0.000    0.000    0.000    0.000 
#
# Total GULP energy -268028.814715 kJ/mol
# GULP energy per Si atom -5583.933640 kJ/mol
# Density = 2.058887 g / cm^3
# Si number density = 20.635833 Si / 1000 Ang^3
#
#
#
# Elastic Constant Matrix: (Units=GPa)
#
#
# Indices 1 2 3 4 5 6 
#
# 1 29.8304 2.4333 9.3847 0.0000 0.0000 0.0000
# 2 2.4333 204.0844 149.8392 0.0000 0.0000 0.0000
# 3 9.3847 149.8392 203.4987 0.0000 0.0000 0.0000
# 4 0.0000 0.0000 0.0000 25.1028 0.0000 0.0000
# 5 0.0000 0.0000 0.0000 0.0000 173.7028 0.0000
# 6 0.0000 0.0000 0.0000 0.0000 0.0000 -9.8760
#
#
#
# Elastic Compliance Matrix: (Units=1/GPa)
#
#
# Indices 1 2 3 4 5 6 
#
# 1 0.034266 0.001636 -0.002785 0.000000 0.000000 0.000000
# 2 0.001636 0.010744 -0.007987 0.000000 0.000000 0.000000
# 3 -0.002785 -0.007987 0.010923 0.000000 0.000000 0.000000
# 4 0.000000 0.000000 0.000000 0.039836 0.000000 0.000000
# 5 0.000000 0.000000 0.000000 0.000000 0.005757 0.000000
# 6 0.000000 0.000000 0.000000 0.000000 0.000000 -0.101256
#
#
# Mechanical properties :
#
#
# Convention : Reuss Voigt Hill
#
# Bulk Modulus (GPa) = 26.55186 84.52530 55.53858
# Shear Modulus (GPa) = 160.79970 56.16969 108.48469
#
# Velocity S-wave (km/s) = 8.83695 5.22289 7.25845
# Velocity P-wave (km/s) = 10.81744 8.79891 9.85997
#
# Compressibility (1/GPa) = 0.03766215
#
# Stress axis : x y z
#
# Youngs Moduli (GPa) = 29.18383 93.07374 91.54920
#
# Poissons Ratio (x) = -0.15228 0.25496
# Poissons Ratio (y) = -0.04775 0.73116
# Poissons Ratio (z) = 0.08128 0.74334
#
# Static dielectric constant tensor:
#      x y z
#    x 1.773480 0.000000 0.000000 
#    y 0.000000 1.657490 0.000000 
#    z 0.000000 0.000000 1.746280 
# 
# From -- ./inp_files/73139.got.cif
#   From: 2010.05.17/outbox.cif.g08.bks.cpg/sg65_37_cif.got.tgz:73139.got - 2010.06.03 17:01:31.
