data_PCOD9486454
_publ_section_title
;
Structure prediction by ZEFSAII (Michael W. Deem and Ramdas Pophale) SiO2 
 PCOD9486454
Probable space group: C M M M
;
_chemical_formula_sum "Si O2"
_cell_formula_units_Z 88
_cell_length_a 15.898953
_cell_length_b 21.639477
_cell_length_c 13.653377
_cell_angle_alpha 90.000000
_cell_angle_beta 90.000000
_cell_angle_gamma 90.000000
_cell_volume 4697.376469
_symmetry_space_group_name_H-M "C M M M"
_symmetry_group_IT_number 65
_symmetry_cell_setting 'orthorhombic'
loop_
_space_group_symop_operation_xyz
x,y,z
-x,-y,z
x,-y,-z
-x,y,-z
-x,-y,-z
x,y,-z
-x,y,z
x,-y,z
1/2+x,1/2+y,z
1/2-x,1/2-y,z
1/2+x,1/2-y,-z
1/2-x,1/2+y,-z
1/2-x,1/2-y,-z
1/2+x,1/2+y,-z
1/2-x,1/2+y,z
1/2+x,1/2-y,z
loop_
_atom_site_type_symbol
_atom_site_label
_atom_site_fract_x
_atom_site_fract_y
_atom_site_fract_z
Si Si1 0.817592 0.069706 0.817954
Si Si2 0.404888 0.833771 0.292468
Si Si3 0.408283 0.297503 0.611568
Si Si4 0.256527 0.393422 0.612846
Si Si5 0.500000 0.574153 0.887833
Si Si6 0.293046 0.184098 0.886438
O O1 0.786469 0.066568 0.705514
O O2 0.915012 0.088739 0.829998
O O3 0.768158 0.125411 0.869945
O O4 0.806980 0.000000 0.860115
O O5 0.500000 0.857332 0.303289
O O6 0.403781 0.762087 0.321998
O O7 0.336040 0.868638 0.359185
O O8 0.371393 0.832888 0.181910
O O9 0.408738 0.274272 0.500000
O O10 0.500000 0.329140 0.626965
O O11 0.326098 0.339005 0.619813
O O12 0.258681 0.416582 0.500000
O O13 0.500000 0.500000 0.896131
O O14 0.500000 0.599015 0.000000
O O15 0.250000 0.250000 0.856516
O O16 0.314896 0.190124 0.000000
#
# Coordination Sequence:
#
# PCOD9486454 Si02
#       6
#    16  16  16  16   8  16
#     4  10  21  37  59  85 115 154 194 232 280 344
#     4  10  19  32  52  77 108 147 191 240 288 341
#     4   9  17  29  49  77 108 147 190 228 275 340
#     4  10  20  33  51  77 113 150 189 236 286 336
#     4   9  18  34  57  85 113 145 191 235 272 333
#     4  10  21  38  57  82 115 147 186 239 298 350
#
# _framework density 18.733861999999998
#
# number of rings (size 3 to 8) (size 9 to 14) (size 15 to 20)
#    0.000    2.273    0.000    3.818    1.273    4.364 
#    1.636    0.000    0.000   10.364    0.000   10.182 
#    0.000    0.000    0.000    0.000    0.000    0.000 
#
# Total GULP energy -245026.202384 kJ/mol
# GULP energy per Si atom -5568.777327 kJ/mol
# Density = 1.869122 g / cm^3
# Si number density = 18.733862 Si / 1000 Ang^3
#
#
#
# Elastic Constant Matrix: (Units=GPa)
#
#
# Indices 1 2 3 4 5 6 
#
# 1 146.5953 26.8183 35.0793 0.0000 0.0000 0.0000
# 2 26.8183 56.1870 9.0347 0.0000 0.0000 0.0000
# 3 35.0793 9.0347 73.8944 0.0000 0.0000 0.0000
# 4 0.0000 0.0000 0.0000 -13.4071 0.0000 0.0000
# 5 0.0000 0.0000 0.0000 0.0000 14.6331 0.0000
# 6 0.0000 0.0000 0.0000 0.0000 0.0000 18.4362
#
#
#
# Elastic Compliance Matrix: (Units=1/GPa)
#
#
# Indices 1 2 3 4 5 6 
#
# 1 0.008283 -0.003388 -0.003518 0.000000 0.000000 0.000000
# 2 -0.003388 0.019540 -0.000781 0.000000 0.000000 0.000000
# 3 -0.003518 -0.000781 0.015298 0.000000 0.000000 0.000000
# 4 0.000000 0.000000 0.000000 -0.074587 0.000000 0.000000
# 5 0.000000 0.000000 0.000000 0.000000 0.068338 0.000000
# 6 0.000000 0.000000 0.000000 0.000000 0.000000 0.054241
#
#
# Mechanical properties :
#
#
# Convention : Reuss Voigt Hill
#
# Bulk Modulus (GPa) = 36.03801 46.50458 41.27130
# Shear Modulus (GPa) = 43.20149 17.64872 30.42510
#
# Velocity S-wave (km/s) = 4.80736 3.07266 4.03435
# Velocity P-wave (km/s) = 7.07763 6.12095 6.61660
#
# Compressibility (1/GPa) = 0.02774848
#
# Stress axis : x y z
#
# Youngs Moduli (GPa) = 120.72766 51.17627 65.36655
#
# Poissons Ratio (x) = 0.17338 0.22996
# Poissons Ratio (y) = 0.40901 0.05104
# Poissons Ratio (z) = 0.42471 0.03996
#
# Static dielectric constant tensor:
#      x y z
#    x 1.665150 0.000000 0.000000 
#    y 0.000000 1.654770 0.000000 
#    z 0.000000 0.000000 1.694780 
# 
# From -- ./inp_files/40223.got.cif
#   From: 2010.05.17/outbox.cif.g08.bks.cpg/sg65_21_cif.got.tgz:40223.got - 2010.06.03 17:01:31.
