data_PCOD9486026
_publ_section_title
;
Structure prediction by ZEFSAII (Michael W. Deem and Ramdas Pophale) SiO2 
 PCOD9486026
Probable space group: C M M M
;
_chemical_formula_sum "Si O2"
_cell_formula_units_Z 88
_cell_length_a 22.243114
_cell_length_b 14.055943
_cell_length_c 15.124657
_cell_angle_alpha 90.000000
_cell_angle_beta 90.000000
_cell_angle_gamma 90.000000
_cell_volume 4728.692892
_symmetry_space_group_name_H-M "C M M M"
_symmetry_group_IT_number 65
_symmetry_cell_setting 'orthorhombic'
loop_
_space_group_symop_operation_xyz
x,y,z
-x,-y,z
x,-y,-z
-x,y,-z
-x,-y,-z
x,y,-z
-x,y,z
x,-y,z
1/2+x,1/2+y,z
1/2-x,1/2-y,z
1/2+x,1/2-y,-z
1/2-x,1/2+y,-z
1/2-x,1/2-y,-z
1/2+x,1/2+y,-z
1/2-x,1/2+y,z
1/2+x,1/2-y,z
loop_
_atom_site_type_symbol
_atom_site_label
_atom_site_fract_x
_atom_site_fract_y
_atom_site_fract_z
Si Si1 0.000000 0.385718 0.396086
Si Si2 0.666332 0.607600 0.672437
Si Si3 0.847868 0.299950 0.902604
Si Si4 0.719386 0.392921 0.868074
Si Si5 0.288326 0.114386 0.402555
Si Si6 0.390134 0.204556 0.710039
O O1 0.057471 0.346340 0.343414
O O2 0.000000 0.500000 0.393327
O O3 0.000000 0.357772 0.500000
O O4 0.646149 0.500000 0.653848
O O5 0.704032 0.606804 0.764058
O O6 0.717743 0.638131 0.603653
O O7 0.614210 0.683892 0.685674
O O8 0.788031 0.363678 0.887165
O O9 0.822494 0.191677 0.903575
O O10 0.889600 0.309213 0.816048
O O11 0.873238 0.321713 0.000000
O O12 0.707671 0.500000 0.899950
O O13 0.312088 0.138597 0.500000
O O14 0.327561 0.162646 0.327276
O O15 0.292211 0.000000 0.392068
#
# Coordination Sequence:
#
# PCOD9486026 Si02
#       6
#     8  16  16  16  16  16
#     4  11  26  46  66  84 100 131 184 234 274 325
#     4   9  18  32  52  82 116 145 176 214 268 333
#     4  10  20  31  48  79 112 146 187 221 261 319
#     4   9  16  29  48  75 116 155 181 214 260 316
#     4  10  19  31  52  81 110 140 175 219 275 335
#     4  11  21  37  57  77 108 147 181 228 276 314
#
# _framework density 18.609793
#
# number of rings (size 3 to 8) (size 9 to 14) (size 15 to 20)
#    0.000    2.091    1.818    2.727    0.000    5.818 
#    0.000    0.909    0.000    1.091    0.000    0.000 
#    0.000    5.818    0.000    0.000    0.000    0.000 
#
# Total GULP energy -245390.039090 kJ/mol
# GULP energy per Si atom -5577.046343 kJ/mol
# Density = 1.856744 g / cm^3
# Si number density = 18.609793 Si / 1000 Ang^3
#
#
#
# Elastic Constant Matrix: (Units=GPa)
#
#
# Indices 1 2 3 4 5 6 
#
# 1 44.0568 27.2815 32.6905 0.0000 0.0000 0.0000
# 2 27.2815 79.9378 34.0275 0.0000 0.0000 0.0000
# 3 32.6905 34.0275 134.6305 0.0000 0.0000 0.0000
# 4 0.0000 0.0000 0.0000 10.5020 0.0000 0.0000
# 5 0.0000 0.0000 0.0000 0.0000 8.3456 0.0000
# 6 0.0000 0.0000 0.0000 0.0000 0.0000 21.4921
#
#
#
# Elastic Compliance Matrix: (Units=1/GPa)
#
#
# Indices 1 2 3 4 5 6 
#
# 1 0.032208 -0.008587 -0.005650 0.000000 0.000000 0.000000
# 2 -0.008587 0.016307 -0.002037 0.000000 0.000000 0.000000
# 3 -0.005650 -0.002037 0.009314 0.000000 0.000000 0.000000
# 4 0.000000 0.000000 0.000000 0.095220 0.000000 0.000000
# 5 0.000000 0.000000 0.000000 0.000000 0.119823 0.000000
# 6 0.000000 0.000000 0.000000 0.000000 0.000000 0.046529
#
#
# Mechanical properties :
#
#
# Convention : Reuss Voigt Hill
#
# Bulk Modulus (GPa) = 39.55374 49.62489 44.58931
# Shear Modulus (GPa) = 13.87440 19.04299 16.45870
#
# Velocity S-wave (km/s) = 2.73343 3.20234 2.97713
# Velocity P-wave (km/s) = 5.59129 6.35588 5.98581
#
# Compressibility (1/GPa) = 0.02528206
#
# Stress axis : x y z
#
# Youngs Moduli (GPa) = 31.04843 61.32260 107.35997
#
# Poissons Ratio (x) = 0.52657 0.60661
# Poissons Ratio (y) = 0.26661 0.21865
# Poissons Ratio (z) = 0.17543 0.12489
#
# Static dielectric constant tensor:
#      x y z
#    x 1.612770 0.000000 0.000000 
#    y 0.000000 1.687760 0.000000 
#    z 0.000000 0.000000 1.692270 
# 
# From -- ./inp_files/45595.got.cif
#   From: 2010.05.17/outbox.cif.g08.bks.cpg/sg65_23_cif.got.tgz:45595.got - 2010.06.03 17:01:31.
