data_PCOD9486041
_publ_section_title
;
Structure prediction by ZEFSAII (Michael W. Deem and Ramdas Pophale) SiO2 
 PCOD9486041
Probable space group: C M M M
;
_chemical_formula_sum "Si O2"
_cell_formula_units_Z 96
_cell_length_a 21.872050
_cell_length_b 25.511680
_cell_length_c 7.467698
_cell_angle_alpha 90.000000
_cell_angle_beta 90.000000
_cell_angle_gamma 90.000000
_cell_volume 4166.921273
_symmetry_space_group_name_H-M "C M M M"
_symmetry_group_IT_number 65
_symmetry_cell_setting 'orthorhombic'
loop_
_space_group_symop_operation_xyz
x,y,z
-x,-y,z
x,-y,-z
-x,y,-z
-x,-y,-z
x,y,-z
-x,y,z
x,-y,z
1/2+x,1/2+y,z
1/2-x,1/2-y,z
1/2+x,1/2-y,-z
1/2-x,1/2+y,-z
1/2-x,1/2-y,-z
1/2+x,1/2+y,-z
1/2-x,1/2+y,z
1/2+x,1/2-y,z
loop_
_atom_site_type_symbol
_atom_site_label
_atom_site_fract_x
_atom_site_fract_y
_atom_site_fract_z
Si Si1 0.736522 0.557445 0.217443
Si Si2 0.169914 0.359008 0.204691
Si Si3 0.321207 0.744701 0.782545
Si Si4 0.929399 0.558039 0.283760
Si Si5 0.592987 0.557632 0.708538
Si Si6 0.566655 0.324669 0.208112
O O1 0.760578 0.500000 0.274228
O O2 0.775551 0.606367 0.286775
O O3 0.666416 0.560152 0.273764
O O4 0.738360 0.558457 0.000000
O O5 0.153860 0.301813 0.273396
O O6 0.112516 0.396985 0.208731
O O7 0.189354 0.349103 0.000000
O O8 0.250000 0.750000 0.724407
O O9 0.370324 0.701122 0.718581
O O10 0.318402 0.737668 0.000000
O O11 0.925770 0.559615 0.500000
O O12 0.909549 0.500000 0.225062
O O13 0.000000 0.564497 0.234181
O O14 0.576247 0.558020 0.500000
O O15 0.574747 0.500000 0.781989
O O16 0.570102 0.612164 0.786863
O O17 0.500000 0.309304 0.286398
O O18 0.565122 0.308680 0.000000
#
# Coordination Sequence:
#
# PCOD9486041 Si02
#       6
#    16  16  16  16  16  16
#     4   9  17  30  50  78 111 142 173 213 262 317
#     4  10  19  31  53  82 105 131 174 225 271 314
#     4   9  18  34  56  80 107 140 177 219 268 319
#     4   9  19  35  51  69 101 145 184 217 262 322
#     4  10  21  36  55  80 108 138 173 214 262 315
#     4  10  21  37  57  80 107 141 180 220 265 321
#
# _framework density 23.038592000000001
#
# number of rings (size 3 to 8) (size 9 to 14) (size 15 to 20)
#    0.000    2.500    0.000    2.500    0.000    7.000 
#    0.000    6.667    0.000    2.000    0.000    0.000 
#    0.000    0.000    0.000    0.000    0.000    0.000 
#
# Total GULP energy -267781.922278 kJ/mol
# GULP energy per Si atom -5578.790047 kJ/mol
# Density = 2.298616 g / cm^3
# Si number density = 23.038592 Si / 1000 Ang^3
#
#
#
# Elastic Constant Matrix: (Units=GPa)
#
#
# Indices 1 2 3 4 5 6 
#
# 1 144.2411 75.0650 -3.1079 0.0000 0.0000 0.0000
# 2 75.0650 143.8842 -2.0031 0.0000 0.0000 0.0000
# 3 -3.1079 -2.0031 63.7349 0.0000 0.0000 0.0000
# 4 0.0000 0.0000 0.0000 -7.1458 0.0000 0.0000
# 5 0.0000 0.0000 0.0000 0.0000 8.5067 0.0000
# 6 0.0000 0.0000 0.0000 0.0000 0.0000 32.8893
#
#
#
# Elastic Compliance Matrix: (Units=1/GPa)
#
#
# Indices 1 2 3 4 5 6 
#
# 1 0.009523 -0.004964 0.000308 0.000000 0.000000 0.000000
# 2 -0.004964 0.009540 0.000058 0.000000 0.000000 0.000000
# 3 0.000308 0.000058 0.015707 0.000000 0.000000 0.000000
# 4 0.000000 0.000000 0.000000 -0.139943 0.000000 0.000000
# 5 0.000000 0.000000 0.000000 0.000000 0.117554 0.000000
# 6 0.000000 0.000000 0.000000 0.000000 0.000000 0.030405
#
#
# Mechanical properties :
#
#
# Convention : Reuss Voigt Hill
#
# Bulk Modulus (GPa) = 39.10099 54.64091 46.87095
# Shear Modulus (GPa) = 82.63630 25.64380 54.14005
#
# Velocity S-wave (km/s) = 5.99554 3.33990 4.85291
# Velocity P-wave (km/s) = 8.05838 6.21626 7.19651
#
# Compressibility (1/GPa) = 0.02557480
#
# Stress axis : x y z
#
# Youngs Moduli (GPa) = 105.01250 104.81694 63.66650
#
# Poissons Ratio (x) = 0.52028 -0.01963
# Poissons Ratio (y) = 0.52125 -0.00368
# Poissons Ratio (z) = -0.03238 -0.00606
#
# Static dielectric constant tensor:
#      x y z
#    x 1.860930 0.000000 0.000000 
#    y 0.000000 1.867400 0.000000 
#    z 0.000000 0.000000 1.900010 
# 
# From -- ./inp_files/12218.got.cif
#   From: 2010.05.17/outbox.cif.g08.bks.cpg/sg65_7_cif.got.tgz:12218.got - 2010.06.03 17:01:31.
