data_PCOD9486846
_publ_section_title
;
Structure prediction by ZEFSAII (Michael W. Deem and Ramdas Pophale) SiO2 
 PCOD9486846
Probable space group: C M M M
;
_chemical_formula_sum "Si O2"
_cell_formula_units_Z 64
_cell_length_a 18.898427
_cell_length_b 8.042707
_cell_length_c 21.969603
_cell_angle_alpha 90.000000
_cell_angle_beta 90.000000
_cell_angle_gamma 90.000000
_cell_volume 3339.259068
_symmetry_space_group_name_H-M "C M M M"
_symmetry_group_IT_number 65
_symmetry_cell_setting 'orthorhombic'
loop_
_space_group_symop_operation_xyz
x,y,z
-x,-y,z
x,-y,-z
-x,y,-z
-x,-y,-z
x,y,-z
-x,y,z
x,-y,z
1/2+x,1/2+y,z
1/2-x,1/2-y,z
1/2+x,1/2-y,-z
1/2-x,1/2+y,-z
1/2-x,1/2-y,-z
1/2+x,1/2+y,-z
1/2-x,1/2+y,z
1/2+x,1/2-y,z
loop_
_atom_site_type_symbol
_atom_site_label
_atom_site_fract_x
_atom_site_fract_y
_atom_site_fract_z
Si Si1 0.832601 0.700477 0.249517
Si Si2 0.332021 0.801502 0.882748
Si Si3 0.332271 0.201007 0.382113
Si Si4 0.079446 0.197535 0.000000
Si Si5 0.081573 0.703768 0.500000
O O1 0.838496 0.500000 0.249619
O O2 0.750000 0.750000 0.249550
O O3 0.859284 0.760919 0.183610
O O4 0.859526 0.759469 0.315482
O O5 0.250000 0.750000 0.890208
O O6 0.378041 0.746412 0.939642
O O7 0.333295 0.000000 0.880977
O O8 0.250000 0.250000 0.388736
O O9 0.377631 0.260135 0.439356
O O10 0.335040 0.000000 0.381960
O O11 0.000000 0.268971 0.000000
O O12 0.074614 0.000000 0.000000
O O13 0.082856 0.500000 0.500000
O O14 0.000000 0.754886 0.500000
#
# Coordination Sequence:
#
# PCOD9486846 Si02
#       5
#    16  16  16   8   8
#     4   8  15  27  45  71  97 120 150 191 235 277
#     4  10  19  33  54  77 100 126 159 198 241 289
#     4   9  16  28  47  70  94 121 156 194 233 276
#     4  11  24  39  52  69  97 131 164 199 240 285
#     4   9  17  28  43  65  94 127 160 194 232 275
#
# _framework density 19.165928999999998
#
# number of rings (size 3 to 8) (size 9 to 14) (size 15 to 20)
#    0.000    2.750    0.000    1.875    0.000    2.000 
#    0.000    1.250    0.000    6.000    0.000    0.000 
#    0.000    0.000    0.000    0.000    0.000    0.000 
#
# Total GULP energy -178253.090625 kJ/mol
# GULP energy per Si atom -5570.409082 kJ/mol
# Density = 1.912231 g / cm^3
# Si number density = 19.165929 Si / 1000 Ang^3
#
#
#
# Elastic Constant Matrix: (Units=GPa)
#
#
# Indices 1 2 3 4 5 6 
#
# 1 87.0029 7.2097 101.9512 0.0000 0.0000 0.0000
# 2 7.2097 20.2370 19.8661 0.0000 0.0000 0.0000
# 3 101.9512 19.8661 269.0562 0.0000 0.0000 0.0000
# 4 0.0000 0.0000 0.0000 -18.9343 0.0000 0.0000
# 5 0.0000 0.0000 0.0000 0.0000 -6.0553 0.0000
# 6 0.0000 0.0000 0.0000 0.0000 0.0000 13.8943
#
#
#
# Elastic Compliance Matrix: (Units=1/GPa)
#
#
# Indices 1 2 3 4 5 6 
#
# 1 0.020676 0.000350 -0.007860 0.000000 0.000000 0.000000
# 2 0.000350 0.053282 -0.004067 0.000000 0.000000 0.000000
# 3 -0.007860 -0.004067 0.006995 0.000000 0.000000 0.000000
# 4 0.000000 0.000000 0.000000 -0.052814 0.000000 0.000000
# 5 0.000000 0.000000 0.000000 0.000000 -0.165144 0.000000
# 6 0.000000 0.000000 0.000000 0.000000 0.000000 0.071972
#
#
# Mechanical properties :
#
#
# Convention : Reuss Voigt Hill
#
# Bulk Modulus (GPa) = 17.30127 70.48334 43.89231
# Shear Modulus (GPa) = -221.10901 14.26554 -103.42173
#
# Velocity S-wave (km/s) = -10.75249 2.73118 -7.35380
# Velocity P-wave (km/s) = 12.04608 6.84112 7.01096
#
# Compressibility (1/GPa) = 0.05779922
#
# Stress axis : x y z
#
# Youngs Moduli (GPa) = 48.36600 18.76809 142.95057
#
# Poissons Ratio (x) = -0.00657 1.12364
# Poissons Ratio (y) = -0.01694 0.58136
# Poissons Ratio (z) = 0.38017 0.07633
#
# Static dielectric constant tensor:
#      x y z
#    x 1.622350 0.000000 0.000000 
#    y 0.000000 1.665490 0.000000 
#    z 0.000000 0.000000 1.745170 
# 
# From -- ./inp_files/59167.got.cif
#   From: 2010.05.17/outbox.cif.g08.bks.cpg/sg65_30_cif.got.tgz:59167.got - 2010.06.03 17:01:31.
