data_PCOD9486319
_publ_section_title
;
Structure prediction by ZEFSAII (Michael W. Deem and Ramdas Pophale) SiO2 
 PCOD9486319
Probable space group: C M M M
;
_chemical_formula_sum "Si O2"
_cell_formula_units_Z 116
_cell_length_a 7.611263
_cell_length_b 25.628674
_cell_length_c 27.464847
_cell_angle_alpha 90.000000
_cell_angle_beta 90.000000
_cell_angle_gamma 90.000000
_cell_volume 5357.473724
_symmetry_space_group_name_H-M "C M M M"
_symmetry_group_IT_number 65
_symmetry_cell_setting 'orthorhombic'
loop_
_space_group_symop_operation_xyz
x,y,z
-x,-y,z
x,-y,-z
-x,y,-z
-x,-y,-z
x,y,-z
-x,y,z
x,-y,z
1/2+x,1/2+y,z
1/2-x,1/2-y,z
1/2+x,1/2-y,-z
1/2-x,1/2+y,-z
1/2-x,1/2-y,-z
1/2+x,1/2+y,-z
1/2-x,1/2+y,z
1/2+x,1/2-y,z
loop_
_atom_site_type_symbol
_atom_site_label
_atom_site_fract_x
_atom_site_fract_y
_atom_site_fract_z
Si Si1 0.694215 0.584382 0.839390
Si Si2 0.500000 0.000000 0.816801
Si Si3 0.796020 0.920271 0.448051
Si Si4 0.211921 0.562029 0.053511
Si Si5 0.704709 0.829574 0.311744
Si Si6 0.790217 0.692835 0.580952
Si Si7 0.709660 0.193336 0.793323
Si Si8 0.213182 0.943323 0.339515
O O1 0.500000 0.565701 0.825261
O O2 0.845543 0.545792 0.820622
O O3 0.708857 0.585786 0.898123
O O4 0.718462 0.642900 0.820212
O O5 0.717750 0.936834 0.500000
O O6 0.786918 0.857431 0.445412
O O7 0.724571 0.938971 0.395982
O O8 0.000000 0.936262 0.448251
O O9 0.248580 0.500000 0.055600
O O10 0.000000 0.567218 0.056409
O O11 0.268328 0.581021 0.000000
O O12 0.500000 0.815130 0.313049
O O13 0.779977 0.810497 0.363267
O O14 0.782608 0.808156 0.262115
O O15 0.719330 0.892505 0.312067
O O16 0.750000 0.750000 0.561123
O O17 0.000000 0.685457 0.580956
O O18 0.500000 0.187157 0.791080
O O19 0.750000 0.250000 0.814901
O O20 0.000000 0.940514 0.339633
O O21 0.265908 0.000000 0.319782
#
# Coordination Sequence:
#
# PCOD9486319 Si02
#       8
#    16   4  16  16  16  16  16  16
#     4  12  23  39  64  94 130 175 216 264 328 386
#     4  12  22  44  61  92 140 170 214 274 323 390
#     4   9  18  32  49  69  96 132 170 209 259 319
#     4   9  16  31  56  87 126 168 210 263 322 379
#     4   9  20  37  57  79 106 140 178 227 285 341
#     4  10  19  32  51  75  99 128 165 209 266 323
#     4  11  23  42  63  88 122 161 211 263 311 374
#     4   9  18  33  52  76 106 134 171 224 273 334
#
# _framework density 21.651997000000001
#
# number of rings (size 3 to 8) (size 9 to 14) (size 15 to 20)
#    0.000    2.069    2.069    1.862    0.000    3.034 
#    1.241    2.069    0.000    0.414    0.000    3.862 
#    0.000    0.000    0.000    0.000    0.000    0.000 
#
# Total GULP energy -323481.156550 kJ/mol
# GULP energy per Si atom -5577.261320 kJ/mol
# Density = 2.160272 g / cm^3
# Si number density = 21.651997 Si / 1000 Ang^3
#
#
#
# Elastic Constant Matrix: (Units=GPa)
#
#
# Indices 1 2 3 4 5 6 
#
# 1 102.6188 15.9101 12.6675 0.0000 0.0000 0.0000
# 2 15.9101 139.9372 28.8284 0.0000 0.0000 0.0000
# 3 12.6675 28.8284 53.6874 0.0000 0.0000 0.0000
# 4 0.0000 0.0000 0.0000 76.5867 0.0000 0.0000
# 5 0.0000 0.0000 0.0000 0.0000 -4.4389 0.0000
# 6 0.0000 0.0000 0.0000 0.0000 0.0000 21.4068
#
#
#
# Elastic Compliance Matrix: (Units=1/GPa)
#
#
# Indices 1 2 3 4 5 6 
#
# 1 0.010105 -0.000739 -0.001987 0.000000 0.000000 0.000000
# 2 -0.000739 0.008089 -0.004169 0.000000 0.000000 0.000000
# 3 -0.001987 -0.004169 0.021334 0.000000 0.000000 0.000000
# 4 0.000000 0.000000 0.000000 0.013057 0.000000 0.000000
# 5 0.000000 0.000000 0.000000 0.000000 -0.225284 0.000000
# 6 0.000000 0.000000 0.000000 0.000000 0.000000 0.046714
#
#
# Mechanical properties :
#
#
# Convention : Reuss Voigt Hill
#
# Bulk Modulus (GPa) = 38.85566 45.67282 42.26424
# Shear Modulus (GPa) = -48.25578 34.63340 -6.81119
#
# Velocity S-wave (km/s) = -4.72603 4.00377 -1.77555
# Velocity P-wave (km/s) = 3.43453 6.52023 3.91902
#
# Compressibility (1/GPa) = 0.02573627
#
# Stress axis : x y z
#
# Youngs Moduli (GPa) = 98.96330 123.62462 46.87382
#
# Poissons Ratio (x) = 0.09142 0.09314
# Poissons Ratio (y) = 0.07318 0.19542
# Poissons Ratio (z) = 0.19665 0.51540
#
# Static dielectric constant tensor:
#      x y z
#    x 1.798560 0.000000 0.000000 
#    y 0.000000 1.772970 0.000000 
#    z 0.000000 0.000000 1.828530 
# 
# From -- ./inp_files/73684.got.cif
#   From: 2010.05.17/outbox.cif.g08.bks.cpg/sg65_37_cif.got.tgz:73684.got - 2010.06.03 17:01:31.
