data_PCOD9486048
_publ_section_title
;
Structure prediction by ZEFSAII (Michael W. Deem and Ramdas Pophale) SiO2 
 PCOD9486048
Probable space group: C M M M
;
_chemical_formula_sum "Si O2"
_cell_formula_units_Z 104
_cell_length_a 26.098650
_cell_length_b 23.244157
_cell_length_c 7.484571
_cell_angle_alpha 90.000000
_cell_angle_beta 90.000000
_cell_angle_gamma 90.000000
_cell_volume 4540.448520
_symmetry_space_group_name_H-M "C M M M"
_symmetry_group_IT_number 65
_symmetry_cell_setting 'orthorhombic'
loop_
_space_group_symop_operation_xyz
x,y,z
-x,-y,z
x,-y,-z
-x,y,-z
-x,-y,-z
x,y,-z
-x,y,z
x,-y,z
1/2+x,1/2+y,z
1/2-x,1/2-y,z
1/2+x,1/2-y,-z
1/2-x,1/2+y,-z
1/2-x,1/2-y,-z
1/2+x,1/2+y,-z
1/2-x,1/2+y,z
1/2+x,1/2-y,z
loop_
_atom_site_type_symbol
_atom_site_label
_atom_site_fract_x
_atom_site_fract_y
_atom_site_fract_z
Si Si1 0.759440 0.814019 0.704292
Si Si2 0.624533 0.333357 0.216705
Si Si3 0.285550 0.064759 0.705211
Si Si4 0.943371 0.065442 0.782228
Si Si5 0.000000 0.568038 0.703332
Si Si6 0.941213 0.724804 0.217954
Si Si7 0.609641 0.113059 0.204146
O O1 0.739149 0.811298 0.500000
O O2 0.750000 0.750000 0.784905
O O3 0.820317 0.820786 0.706334
O O4 0.737013 0.874593 0.781755
O O5 0.602074 0.394070 0.276111
O O6 0.582213 0.285926 0.264837
O O7 0.629292 0.332559 0.000000
O O8 0.267293 0.062985 0.500000
O O9 0.346902 0.075174 0.705533
O O10 0.275187 0.000000 0.781091
O O11 0.000000 0.086465 0.728830
O O12 0.937751 0.000000 0.724087
O O13 0.943118 0.065778 0.000000
O O14 0.947268 0.586997 0.792061
O O15 0.000000 0.500000 0.699135
O O16 0.000000 0.590103 0.500000
O O17 0.901268 0.676321 0.280984
O O18 0.000000 0.716381 0.277060
O O19 0.942336 0.720596 0.000000
O O20 0.626812 0.118473 0.000000
#
# Coordination Sequence:
#
# PCOD9486048 Si02
#       7
#    16  16  16  16   8  16  16
#     4  10  22  40  58  76 104 142 181 224 275 327
#     4  10  19  31  54  82 105 136 178 224 269 315
#     4  10  22  40  59  78 105 144 185 223 271 332
#     4   8  14  26  46  76 112 144 173 208 256 316
#     4  11  23  37  53  75 107 145 180 211 250 312
#     4   9  17  31  51  78 112 144 175 215 267 323
#     4  11  21  35  56  82 110 140 177 224 271 310
#
# _framework density 22.905227
#
# number of rings (size 3 to 8) (size 9 to 14) (size 15 to 20)
#    0.000    2.231    0.769    3.000    0.000    6.154 
#    0.000    0.769    0.000    1.385    0.000    1.077 
#    0.000    0.000    0.000    0.000    0.000    0.000 
#
# Total GULP energy -290183.780340 kJ/mol
# GULP energy per Si atom -5580.457314 kJ/mol
# Density = 2.285309 g / cm^3
# Si number density = 22.905227 Si / 1000 Ang^3
#
#
#
# Elastic Constant Matrix: (Units=GPa)
#
#
# Indices 1 2 3 4 5 6 
#
# 1 87.8690 63.8025 -0.0792 0.0000 0.0000 0.0000
# 2 63.8025 164.7097 8.8560 0.0000 0.0000 0.0000
# 3 -0.0792 8.8560 66.3166 0.0000 0.0000 0.0000
# 4 0.0000 0.0000 0.0000 -23.7452 0.0000 0.0000
# 5 0.0000 0.0000 0.0000 0.0000 36.5291 0.0000
# 6 0.0000 0.0000 0.0000 0.0000 0.0000 38.9690
#
#
#
# Elastic Compliance Matrix: (Units=1/GPa)
#
#
# Indices 1 2 3 4 5 6 
#
# 1 0.015881 -0.006197 0.000847 0.000000 0.000000 0.000000
# 2 -0.006197 0.008534 -0.001147 0.000000 0.000000 0.000000
# 3 0.000847 -0.001147 0.015233 0.000000 0.000000 0.000000
# 4 0.000000 0.000000 0.000000 -0.042114 0.000000 0.000000
# 5 0.000000 0.000000 0.000000 0.000000 0.027375 0.000000
# 6 0.000000 0.000000 0.000000 0.000000 0.000000 0.025661
#
#
# Mechanical properties :
#
#
# Convention : Reuss Voigt Hill
#
# Bulk Modulus (GPa) = 37.51963 51.56154 44.54059
# Shear Modulus (GPa) = 69.01210 26.77164 47.89187
#
# Velocity S-wave (km/s) = 5.49498 3.42248 4.57756
# Velocity P-wave (km/s) = 7.52833 6.17880 6.88670
#
# Compressibility (1/GPa) = 0.02665271
#
# Stress axis : x y z
#
# Youngs Moduli (GPa) = 62.96718 117.18409 65.64534
#
# Poissons Ratio (x) = 0.72623 -0.05557
# Poissons Ratio (y) = 0.39023 0.07529
# Poissons Ratio (z) = -0.05331 0.13441
#
# Static dielectric constant tensor:
#      x y z
#    x 2.009570 0.000000 0.000000 
#    y 0.000000 1.895100 0.000000 
#    z 0.000000 0.000000 1.907740 
# 
# From -- ./inp_files/16491.got.cif
#   From: 2010.05.17/outbox.cif.g08.bks.cpg/sg65_9_cif.got.tgz:16491.got - 2010.06.03 17:01:31.
