data_PCOD9486295
_publ_section_title
;
Structure prediction by ZEFSAII (Michael W. Deem and Ramdas Pophale) SiO2 
 PCOD9486295
Probable space group: C M M M
;
_chemical_formula_sum "Si O2"
_cell_formula_units_Z 88
_cell_length_a 7.633772
_cell_length_b 18.838508
_cell_length_c 30.130800
_cell_angle_alpha 90.000000
_cell_angle_beta 90.000000
_cell_angle_gamma 90.000000
_cell_volume 4333.076448
_symmetry_space_group_name_H-M "C M M M"
_symmetry_group_IT_number 65
_symmetry_cell_setting 'orthorhombic'
loop_
_space_group_symop_operation_xyz
x,y,z
-x,-y,z
x,-y,-z
-x,y,-z
-x,-y,-z
x,y,-z
-x,y,z
x,-y,z
1/2+x,1/2+y,z
1/2-x,1/2-y,z
1/2+x,1/2-y,-z
1/2-x,1/2+y,-z
1/2-x,1/2-y,-z
1/2+x,1/2+y,-z
1/2-x,1/2+y,z
1/2+x,1/2-y,z
loop_
_atom_site_type_symbol
_atom_site_label
_atom_site_fract_x
_atom_site_fract_y
_atom_site_fract_z
Si Si1 0.789169 0.666474 0.865397
Si Si2 0.708605 0.833641 0.327400
Si Si3 0.786314 0.582691 0.048938
Si Si4 0.207991 0.080156 0.584829
Si Si5 0.710983 0.333178 0.500000
Si Si6 0.710268 0.834144 0.769179
O O1 0.750000 0.750000 0.868731
O O2 0.721959 0.626298 0.908783
O O3 0.723959 0.639426 0.817098
O O4 0.000000 0.658522 0.864926
O O5 0.500000 0.839340 0.325984
O O6 0.750000 0.750000 0.333246
O O7 0.769387 0.879591 0.368763
O O8 0.777560 0.858708 0.278942
O O9 0.738364 0.500000 0.052981
O O10 0.000000 0.585551 0.049164
O O11 0.729715 0.608320 0.000000
O O12 0.278247 0.127256 0.544121
O O13 0.000000 0.074372 0.577490
O O14 0.279819 0.000000 0.585680
O O15 0.500000 0.338540 0.500000
O O16 0.750000 0.250000 0.500000
O O17 0.500000 0.843783 0.769137
O O18 0.750000 0.750000 0.769451
#
# Coordination Sequence:
#
# PCOD9486295 Si02
#       6
#    16  16  16  16   8  16
#     4   9  16  27  44  66  90 116 148 187 231 275
#     4  10  19  32  51  74  99 128 164 202 238 281
#     4   8  14  25  41  61  85 114 149 187 225 269
#     4  10  21  37  55  75 102 134 164 196 238 284
#     4  10  21  37  57  79 101 128 163 200 236 280
#     4   8  15  27  43  65  92 121 152 187 229 274
#
# _framework density 20.308897000000002
#
# number of rings (size 3 to 8) (size 9 to 14) (size 15 to 20)
#    0.000    2.909    0.000    1.909    0.000    4.727 
#    0.000    0.909    0.000    5.455    0.000    1.273 
#    0.000    0.000    0.000    0.000    0.000    0.000 
#
# Total GULP energy -245205.307118 kJ/mol
# GULP energy per Si atom -5572.847889 kJ/mol
# Density = 2.026267 g / cm^3
# Si number density = 20.308897 Si / 1000 Ang^3
#
#
#
# Elastic Constant Matrix: (Units=GPa)
#
#
# Indices 1 2 3 4 5 6 
#
# 1 42.4639 1.6214 6.4844 0.0000 0.0000 0.0000
# 2 1.6214 96.9840 107.6161 0.0000 0.0000 0.0000
# 3 6.4844 107.6161 264.5547 0.0000 0.0000 0.0000
# 4 0.0000 0.0000 0.0000 -19.0013 0.0000 0.0000
# 5 0.0000 0.0000 0.0000 0.0000 -17.3441 0.0000
# 6 0.0000 0.0000 0.0000 0.0000 0.0000 13.1152
#
#
#
# Elastic Compliance Matrix: (Units=1/GPa)
#
#
# Indices 1 2 3 4 5 6 
#
# 1 0.023649 0.000452 -0.000763 0.000000 0.000000 0.000000
# 2 0.000452 0.018803 -0.007660 0.000000 0.000000 0.000000
# 3 -0.000763 -0.007660 0.006915 0.000000 0.000000 0.000000
# 4 0.000000 0.000000 0.000000 -0.052628 0.000000 0.000000
# 5 0.000000 0.000000 0.000000 0.000000 -0.057657 0.000000
# 6 0.000000 0.000000 0.000000 0.000000 0.000000 0.076247
#
#
# Mechanical properties :
#
#
# Convention : Reuss Voigt Hill
#
# Bulk Modulus (GPa) = 29.91928 70.60517 50.26222
# Shear Modulus (GPa) = 117.88875 14.57268 66.23072
#
# Velocity S-wave (km/s) = 7.62718 2.68162 5.71686
# Velocity P-wave (km/s) = 9.60881 6.66553 8.26917
#
# Compressibility (1/GPa) = 0.03342326
#
# Stress axis : x y z
#
# Youngs Moduli (GPa) = 42.28558 53.18325 144.62359
#
# Poissons Ratio (x) = -0.02402 0.11041
# Poissons Ratio (y) = -0.01910 1.10778
# Poissons Ratio (z) = 0.03228 0.40737
#
# Static dielectric constant tensor:
#      x y z
#    x 1.746050 0.000000 0.000000 
#    y 0.000000 1.666940 0.000000 
#    z 0.000000 0.000000 1.779960 
# 
# From -- ./inp_files/76472.got.cif
#   From: 2010.05.17/outbox.cif.g08.bks.cpg/sg65_39_cif.got.tgz:76472.got - 2010.06.03 17:01:31.
