data_PCOD9486710
_publ_section_title
;
Structure prediction by ZEFSAII (Michael W. Deem and Ramdas Pophale) SiO2 
 PCOD9486710
Probable space group: C M M M
;
_chemical_formula_sum "Si O2"
_cell_formula_units_Z 104
_cell_length_a 29.426201
_cell_length_b 8.642264
_cell_length_c 23.656848
_cell_angle_alpha 90.000000
_cell_angle_beta 90.000000
_cell_angle_gamma 90.000000
_cell_volume 6016.149300
_symmetry_space_group_name_H-M "C M M M"
_symmetry_group_IT_number 65
_symmetry_cell_setting 'orthorhombic'
loop_
_space_group_symop_operation_xyz
x,y,z
-x,-y,z
x,-y,-z
-x,y,-z
-x,-y,-z
x,y,-z
-x,y,z
x,-y,z
1/2+x,1/2+y,z
1/2-x,1/2-y,z
1/2+x,1/2-y,-z
1/2-x,1/2+y,-z
1/2-x,1/2-y,-z
1/2+x,1/2+y,-z
1/2-x,1/2+y,z
1/2+x,1/2-y,z
loop_
_atom_site_type_symbol
_atom_site_label
_atom_site_fract_x
_atom_site_fract_y
_atom_site_fract_z
Si Si1 0.947400 0.188937 0.000000
Si Si2 0.109743 0.314844 0.332880
Si Si3 0.052220 0.186625 0.565081
Si Si4 0.701102 0.314799 0.285412
Si Si5 0.395672 0.312734 0.113245
Si Si6 0.447372 0.186933 0.222684
Si Si7 0.298705 0.686152 0.846424
O O1 0.920879 0.238930 0.943694
O O2 0.000000 0.239080 0.000000
O O3 0.947635 0.000000 0.000000
O O4 0.111495 0.500000 0.332885
O O5 0.086499 0.256950 0.390028
O O6 0.159756 0.248984 0.321947
O O7 0.078707 0.264203 0.279534
O O8 0.061732 0.230966 0.500000
O O9 0.000000 0.232979 0.578063
O O10 0.054157 0.000000 0.568070
O O11 0.701511 0.500000 0.287246
O O12 0.750000 0.250000 0.303188
O O13 0.694389 0.266914 0.219425
O O14 0.396172 0.500000 0.114051
O O15 0.422470 0.253969 0.167992
O O16 0.343030 0.263238 0.118841
O O17 0.500000 0.235103 0.224185
O O18 0.445911 0.000000 0.219981
O O19 0.296621 0.500000 0.847779
O O20 0.250000 0.750000 0.865345
#
# Coordination Sequence:
#
# PCOD9486710 Si02
#       7
#     8  16  16  16  16  16  16
#     4   9  18  32  52  75  99 131 173 219 262 309
#     4  11  21  33  52  79 110 141 175 217 266 317
#     4   9  19  36  56  78 107 145 186 224 262 308
#     4  10  19  33  52  77 107 138 175 215 264 320
#     4  10  19  34  53  75  99 131 174 217 260 310
#     4  10  21  34  48  72 106 138 168 210 262 310
#     4   9  18  31  50  74 101 131 166 209 259 313
#
# _framework density 17.286805000000001
#
# number of rings (size 3 to 8) (size 9 to 14) (size 15 to 20)
#    0.000    2.231    1.538    2.308    0.000    4.000 
#    0.000    1.538    0.000    1.846    0.000    0.000 
#    0.000    0.000    0.000    0.000    0.000    0.000 
#
# Total GULP energy -290204.767522 kJ/mol
# GULP energy per Si atom -5580.860914 kJ/mol
# Density = 1.724746 g / cm^3
# Si number density = 17.286805 Si / 1000 Ang^3
#
#
#
# Elastic Constant Matrix: (Units=GPa)
#
#
# Indices 1 2 3 4 5 6 
#
# 1 196.8891 36.5168 99.4349 0.0000 0.0000 0.0000
# 2 36.5168 17.3659 28.0953 0.0000 0.0000 0.0000
# 3 99.4349 28.0953 116.0659 0.0000 0.0000 0.0000
# 4 0.0000 0.0000 0.0000 15.0598 0.0000 0.0000
# 5 0.0000 0.0000 0.0000 0.0000 30.2820 0.0000
# 6 0.0000 0.0000 0.0000 0.0000 0.0000 25.7426
#
#
#
# Elastic Compliance Matrix: (Units=1/GPa)
#
#
# Indices 1 2 3 4 5 6 
#
# 1 0.010305 -0.012141 -0.005890 0.000000 0.000000 0.000000
# 2 -0.012141 0.108955 -0.015973 0.000000 0.000000 0.000000
# 3 -0.005890 -0.015973 0.017528 0.000000 0.000000 0.000000
# 4 0.000000 0.000000 0.000000 0.066402 0.000000 0.000000
# 5 0.000000 0.000000 0.000000 0.000000 0.033023 0.000000
# 6 0.000000 0.000000 0.000000 0.000000 0.000000 0.038846
#
#
# Mechanical properties :
#
#
# Convention : Reuss Voigt Hill
#
# Bulk Modulus (GPa) = 14.53879 73.15720 43.84800
# Shear Modulus (GPa) = 13.66144 25.30182 19.48163
#
# Velocity S-wave (km/s) = 2.81424 3.82992 3.36067
# Velocity P-wave (km/s) = 4.35759 7.87205 6.36230
#
# Compressibility (1/GPa) = 0.06878150
#
# Stress axis : x y z
#
# Youngs Moduli (GPa) = 97.03753 9.17809 57.05161
#
# Poissons Ratio (x) = 0.11143 0.33602
# Poissons Ratio (y) = 1.17814 0.91126
# Poissons Ratio (z) = 0.57153 0.14660
#
# Static dielectric constant tensor:
#      x y z
#    x 1.578490 0.000000 0.000000 
#    y 0.000000 1.581690 0.000000 
#    z 0.000000 0.000000 1.562990 
# 
# From -- ./inp_files/60916.got.cif
#   From: 2010.05.17/outbox.cif.g08.bks.cpg/sg65_31_cif.got.tgz:60916.got - 2010.06.03 17:01:31.
