data_PCOD9486292
_publ_section_title
;
Structure prediction by ZEFSAII (Michael W. Deem and Ramdas Pophale) SiO2 
 PCOD9486292
Probable space group: C M M M
;
_chemical_formula_sum "Si O2"
_cell_formula_units_Z 96
_cell_length_a 7.332655
_cell_length_b 15.762632
_cell_length_c 36.735963
_cell_angle_alpha 90.000000
_cell_angle_beta 90.000000
_cell_angle_gamma 90.000000
_cell_volume 4246.013958
_symmetry_space_group_name_H-M "C M M M"
_symmetry_group_IT_number 65
_symmetry_cell_setting 'orthorhombic'
loop_
_space_group_symop_operation_xyz
x,y,z
-x,-y,z
x,-y,-z
-x,y,-z
-x,-y,-z
x,y,-z
-x,y,z
x,-y,z
1/2+x,1/2+y,z
1/2-x,1/2-y,z
1/2+x,1/2-y,-z
1/2-x,1/2+y,-z
1/2-x,1/2-y,-z
1/2+x,1/2+y,-z
1/2-x,1/2+y,z
1/2+x,1/2-y,z
loop_
_atom_site_type_symbol
_atom_site_label
_atom_site_fract_x
_atom_site_fract_y
_atom_site_fract_z
Si Si1 0.718146 0.350950 0.803007
Si Si2 0.216626 0.849845 0.882509
Si Si3 0.222994 0.000000 0.249695
Si Si4 0.720986 0.600322 0.460356
Si Si5 0.216907 0.155519 0.617481
Si Si6 0.713350 0.398329 0.961045
Si Si7 0.276713 0.500000 0.333276
O O1 0.500000 0.359184 0.804532
O O2 0.750000 0.250000 0.797114
O O3 0.786321 0.379870 0.843142
O O4 0.781930 0.415443 0.772000
O O5 0.250000 0.750000 0.880625
O O6 0.292967 0.875843 0.921772
O O7 0.000000 0.870151 0.883517
O O8 0.281996 0.000000 0.291508
O O9 0.000000 0.000000 0.249894
O O10 0.785379 0.631296 0.500000
O O11 0.500000 0.606137 0.460855
O O12 0.764019 0.500000 0.457471
O O13 0.788233 0.645081 0.423821
O O14 0.250000 0.250000 0.631034
O O15 0.284000 0.082646 0.644347
O O16 0.000000 0.142957 0.615036
O O17 0.500000 0.371640 0.960549
O O18 0.717494 0.500000 0.962435
O O19 0.789588 0.366954 0.000000
O O20 0.500000 0.500000 0.332926
#
# Coordination Sequence:
#
# PCOD9486292 Si02
#       7
#    16  16   8  16  16  16   8
#     4   9  18  32  50  73  99 123 154 195 237 281
#     4   9  17  28  44  65  89 115 144 180 222 267
#     4   9  18  32  53  76  94 124 163 197 235 283
#     4   8  13  24  45  70  94 124 164 203 234 274
#     4  10  19  32  51  74  98 129 164 200 241 284
#     4   8  14  24  39  61  86 111 144 185 220 251
#     4   9  18  34  52  71  98 127 162 199 235 287
#
# _framework density 22.609439999999999
#
# number of rings (size 3 to 8) (size 9 to 14) (size 15 to 20)
#    0.000    3.167    0.833    1.000    1.167    1.333 
#    0.000    0.833    0.000    1.500    0.000    2.333 
#    0.000    0.000    0.000    0.000    0.000    0.000 
#
# Total GULP energy -267653.769043 kJ/mol
# GULP energy per Si atom -5576.120188 kJ/mol
# Density = 2.255798 g / cm^3
# Si number density = 22.609440 Si / 1000 Ang^3
#
#
#
# Elastic Constant Matrix: (Units=GPa)
#
#
# Indices 1 2 3 4 5 6 
#
# 1 90.0707 -3.2320 14.2818 0.0000 0.0000 0.0000
# 2 -3.2320 109.9345 106.7119 0.0000 0.0000 0.0000
# 3 14.2818 106.7119 252.8058 0.0000 0.0000 0.0000
# 4 0.0000 0.0000 0.0000 -4.0406 0.0000 0.0000
# 5 0.0000 0.0000 0.0000 0.0000 -20.1610 0.0000
# 6 0.0000 0.0000 0.0000 0.0000 0.0000 2.3444
#
#
#
# Elastic Compliance Matrix: (Units=1/GPa)
#
#
# Indices 1 2 3 4 5 6 
#
# 1 0.011371 0.001623 -0.001327 0.000000 0.000000 0.000000
# 2 0.001623 0.015642 -0.006694 0.000000 0.000000 0.000000
# 3 -0.001327 -0.006694 0.006856 0.000000 0.000000 0.000000
# 4 0.000000 0.000000 0.000000 -0.247487 0.000000 0.000000
# 5 0.000000 0.000000 0.000000 0.000000 -0.049601 0.000000
# 6 0.000000 0.000000 0.000000 0.000000 0.000000 0.426541
#
#
# Mechanical properties :
#
#
# Convention : Reuss Voigt Hill
#
# Bulk Modulus (GPa) = 47.45721 76.48162 61.96942
# Shear Modulus (GPa) = 27.30069 17.96520 22.63294
#
# Velocity S-wave (km/s) = 3.47867 2.82190 3.16735
# Velocity P-wave (km/s) = 6.09675 6.67220 6.39096
#
# Compressibility (1/GPa) = 0.02107161
#
# Stress axis : x y z
#
# Youngs Moduli (GPa) = 87.94236 63.92968 145.84986
#
# Poissons Ratio (x) = -0.10374 0.19360
# Poissons Ratio (y) = -0.14271 0.97638
# Poissons Ratio (z) = 0.11673 0.42797
#
# Static dielectric constant tensor:
#      x y z
#    x 2.261780 0.000000 0.000000 
#    y 0.000000 1.792620 0.000000 
#    z 0.000000 0.000000 1.876300 
# 
# From -- ./inp_files/77350.got.cif
#   From: 2010.05.17/outbox.cif.g08.bks.cpg/sg65_39_cif.got.tgz:77350.got - 2010.06.03 17:01:31.
