data_PCOD9486616
_publ_section_title
;
Structure prediction by ZEFSAII (Michael W. Deem and Ramdas Pophale) SiO2 
 PCOD9486616
Probable space group: C M M M
;
_chemical_formula_sum "Si O2"
_cell_formula_units_Z 88
_cell_length_a 28.770990
_cell_length_b 14.159091
_cell_length_c 11.748683
_cell_angle_alpha 90.000000
_cell_angle_beta 90.000000
_cell_angle_gamma 90.000000
_cell_volume 4786.073513
_symmetry_space_group_name_H-M "C M M M"
_symmetry_group_IT_number 65
_symmetry_cell_setting 'orthorhombic'
loop_
_space_group_symop_operation_xyz
x,y,z
-x,-y,z
x,-y,-z
-x,y,-z
-x,-y,-z
x,y,-z
-x,y,z
x,-y,z
1/2+x,1/2+y,z
1/2-x,1/2-y,z
1/2+x,1/2-y,-z
1/2-x,1/2+y,-z
1/2-x,1/2-y,-z
1/2+x,1/2+y,-z
1/2-x,1/2+y,z
1/2+x,1/2-y,z
loop_
_atom_site_type_symbol
_atom_site_label
_atom_site_fract_x
_atom_site_fract_y
_atom_site_fract_z
Si Si1 0.222257 0.390935 0.753320
Si Si2 0.688431 0.893631 0.500000
Si Si3 0.328220 0.388060 0.255229
Si Si4 0.364277 0.216909 0.864970
Si Si5 0.554198 0.888218 0.263738
Si Si6 0.355045 0.310738 0.500000
Si Si7 0.553167 0.777388 0.500000
O O1 0.215260 0.500000 0.786228
O O2 0.217436 0.386046 0.616145
O O3 0.275123 0.364910 0.781178
O O4 0.181241 0.331843 0.809482
O O5 0.656415 0.801486 0.500000
O O6 0.666890 0.000000 0.500000
O O7 0.334831 0.500000 0.243800
O O8 0.362452 0.323904 0.181122
O O9 0.335186 0.357692 0.386499
O O10 0.409411 0.162699 0.818464
O O11 0.361826 0.212876 0.000000
O O12 0.500000 0.876318 0.229972
O O13 0.559858 0.841247 0.387803
O O14 0.563956 0.000000 0.269388
O O15 0.410771 0.308560 0.500000
O O16 0.500000 0.744451 0.500000
#
# Coordination Sequence:
#
# PCOD9486616 Si02
#       7
#    16   8  16  16  16   8   8
#     4  10  21  37  58  87 121 154 194 246 302 363
#     4  10  19  32  57  90 119 149 187 233 302 377
#     4  11  24  40  59  85 116 157 205 251 299 350
#     4  12  25  40  59  84 117 163 210 251 295 347
#     4  10  21  39  65  96 127 156 188 234 299 373
#     4  12  20  36  63  90 121 158 187 243 308 369
#     4  10  19  35  63  96 124 150 184 231 298 371
#
# _framework density 18.386680999999999
#
# number of rings (size 3 to 8) (size 9 to 14) (size 15 to 20)
#    0.000    1.273    3.636    2.182    0.000    9.091 
#    0.000    2.727    0.000    2.727    0.000    1.273 
#    0.000    0.000    0.000    0.000    0.000    0.000 
#
# Total GULP energy -245795.290256 kJ/mol
# GULP energy per Si atom -5586.256597 kJ/mol
# Density = 1.834483 g / cm^3
# Si number density = 18.386681 Si / 1000 Ang^3
#
#
#
# Elastic Constant Matrix: (Units=GPa)
#
#
# Indices 1 2 3 4 5 6 
#
# 1 93.2004 61.0827 36.5047 0.0000 0.0000 0.0000
# 2 61.0827 80.7363 27.7631 0.0000 0.0000 0.0000
# 3 36.5047 27.7631 98.7547 0.0000 0.0000 0.0000
# 4 0.0000 0.0000 0.0000 30.1317 0.0000 0.0000
# 5 0.0000 0.0000 0.0000 0.0000 -10.1292 0.0000
# 6 0.0000 0.0000 0.0000 0.0000 0.0000 32.1281
#
#
#
# Elastic Compliance Matrix: (Units=1/GPa)
#
#
# Indices 1 2 3 4 5 6 
#
# 1 0.022576 -0.015732 -0.003923 0.000000 0.000000 0.000000
# 2 -0.015732 0.024674 -0.001121 0.000000 0.000000 0.000000
# 3 -0.003923 -0.001121 0.011891 0.000000 0.000000 0.000000
# 4 0.000000 0.000000 0.000000 0.033188 0.000000 0.000000
# 5 0.000000 0.000000 0.000000 0.000000 -0.098724 0.000000
# 6 0.000000 0.000000 0.000000 0.000000 0.000000 0.031125
#
#
# Mechanical properties :
#
#
# Convention : Reuss Voigt Hill
#
# Bulk Modulus (GPa) = 56.85043 58.15472 57.50257
# Shear Modulus (GPa) = 69.30437 20.24884 44.77660
#
# Velocity S-wave (km/s) = 6.14610 3.32215 4.94020
# Velocity P-wave (km/s) = 9.01956 6.81271 7.99267
#
# Compressibility (1/GPa) = 0.01759002
#
# Stress axis : x y z
#
# Youngs Moduli (GPa) = 44.29393 40.52888 84.09464
#
# Poissons Ratio (x) = 0.63759 0.32988
# Poissons Ratio (y) = 0.69682 0.09430
# Poissons Ratio (z) = 0.17375 0.04545
#
# Static dielectric constant tensor:
#      x y z
#    x 1.653170 0.000000 0.000000 
#    y 0.000000 1.637720 0.000000 
#    z 0.000000 0.000000 1.608940 
# 
# From -- ./inp_files/32254.got.cif
#   From: 2010.05.17/outbox.cif.g08.bks.cpg/sg65_17_cif.got.tgz:32254.got - 2010.06.03 17:01:31.
