data_PCOD9486999
_publ_section_title
;
Structure prediction by ZEFSAII (Michael W. Deem and Ramdas Pophale) SiO2 
 PCOD9486999
Probable space group: C M M M
;
_chemical_formula_sum "Si O2"
_cell_formula_units_Z 116
_cell_length_a 28.092390
_cell_length_b 18.210649
_cell_length_c 13.000486
_cell_angle_alpha 90.000000
_cell_angle_beta 90.000000
_cell_angle_gamma 90.000000
_cell_volume 6650.797128
_symmetry_space_group_name_H-M "C M M M"
_symmetry_group_IT_number 65
_symmetry_cell_setting 'orthorhombic'
loop_
_space_group_symop_operation_xyz
x,y,z
-x,-y,z
x,-y,-z
-x,y,-z
-x,-y,-z
x,y,-z
-x,y,z
x,-y,z
1/2+x,1/2+y,z
1/2-x,1/2-y,z
1/2+x,1/2-y,-z
1/2-x,1/2+y,-z
1/2-x,1/2-y,-z
1/2+x,1/2+y,-z
1/2-x,1/2+y,z
1/2+x,1/2-y,z
loop_
_atom_site_type_symbol
_atom_site_label
_atom_site_fract_x
_atom_site_fract_y
_atom_site_fract_z
Si Si1 0.780373 0.084947 0.882834
Si Si2 0.244694 0.162999 0.680781
Si Si3 0.362233 0.639525 0.384921
Si Si4 0.943242 0.770932 0.113145
Si Si5 0.108767 0.918235 0.829755
Si Si6 0.413258 0.791581 0.668945
Si Si7 0.500000 0.797895 0.500000
Si Si8 0.841177 0.583329 0.378663
O O1 0.758860 0.140153 0.800365
O O2 0.837680 0.089823 0.873296
O O3 0.768085 0.000000 0.856933
O O4 0.766285 0.099532 0.000000
O O5 0.250000 0.250000 0.667567
O O6 0.194665 0.138612 0.630880
O O7 0.289886 0.120642 0.636445
O O8 0.374434 0.615237 0.500000
O O9 0.385641 0.592959 0.293315
O O10 0.380893 0.722751 0.368741
O O11 0.922983 0.852982 0.127551
O O12 0.927167 0.726260 0.213483
O O13 0.000000 0.773166 0.114247
O O14 0.927566 0.743278 0.000000
O O15 0.091525 0.000000 0.853529
O O16 0.457866 0.796973 0.591195
O O17 0.381582 0.864600 0.667408
O O18 0.850841 0.580641 0.500000
O O19 0.841242 0.500000 0.338287
#
# Coordination Sequence:
#
# PCOD9486999 Si02
#       8
#    16  16  16  16  16  16   4  16
#     4   9  18  34  52  71 103 148 192 230 271 324
#     4  11  21  33  54  84 114 150 185 224 278 341
#     4  10  19  33  55  80 114 150 191 232 275 345
#     4  10  21  36  57  83 111 146 191 242 291 340
#     4   9  19  33  50  77 112 149 188 233 285 333
#     4  11  21  38  60  87 112 148 192 240 291 341
#     4  12  20  36  67  86 109 148 194 244 300 344
#     4  11  23  39  58  85 121 151 182 232 288 340
#
# _framework density 17.441519
#
# number of rings (size 3 to 8) (size 9 to 14) (size 15 to 20)
#    0.000    1.793    3.448    1.241    0.000    2.759 
#    0.000    2.069    0.000    1.241    0.000    4.828 
#    0.000    0.000    0.000    0.000    0.000    0.000 
#
# Total GULP energy -323053.757364 kJ/mol
# GULP energy per Si atom -5569.892368 kJ/mol
# Density = 1.740182 g / cm^3
# Si number density = 17.441519 Si / 1000 Ang^3
#
#
#
# Elastic Constant Matrix: (Units=GPa)
#
#
# Indices 1 2 3 4 5 6 
#
# 1 83.8629 36.8770 26.6615 0.0000 0.0000 0.0000
# 2 36.8770 84.0768 17.4861 0.0000 0.0000 0.0000
# 3 26.6615 17.4861 117.0264 0.0000 0.0000 0.0000
# 4 0.0000 0.0000 0.0000 13.0764 0.0000 0.0000
# 5 0.0000 0.0000 0.0000 0.0000 18.8910 0.0000
# 6 0.0000 0.0000 0.0000 0.0000 0.0000 -2.8934
#
#
#
# Elastic Compliance Matrix: (Units=1/GPa)
#
#
# Indices 1 2 3 4 5 6 
#
# 1 0.015502 -0.006259 -0.002596 0.000000 0.000000 0.000000
# 2 -0.006259 0.014803 -0.000786 0.000000 0.000000 0.000000
# 3 -0.002596 -0.000786 0.009254 0.000000 0.000000 0.000000
# 4 0.000000 0.000000 0.000000 0.076474 0.000000 0.000000
# 5 0.000000 0.000000 0.000000 0.000000 0.052935 0.000000
# 6 0.000000 0.000000 0.000000 0.000000 0.000000 -0.345610
#
#
# Mechanical properties :
#
#
# Convention : Reuss Voigt Hill
#
# Bulk Modulus (GPa) = 49.32041 49.66838 49.49439
# Shear Modulus (GPa) = -33.20039 19.41089 -6.89475
#
# Velocity S-wave (km/s) = -4.36768 3.33965 -1.99039
# Velocity P-wave (km/s) = 1.70397 6.58862 4.81215
#
# Compressibility (1/GPa) = 0.02027558
#
# Stress axis : x y z
#
# Youngs Moduli (GPa) = 64.50728 67.55502 108.06092
#
# Poissons Ratio (x) = 0.42285 0.28058
# Poissons Ratio (y) = 0.40378 0.08491
# Poissons Ratio (z) = 0.16749 0.05308
#
# Static dielectric constant tensor:
#      x y z
#    x 1.569200 0.000000 0.000000 
#    y 0.000000 1.585970 0.000000 
#    z 0.000000 0.000000 1.624350 
# 
# From -- ./inp_files/32626.got.cif
#   From: 2010.05.17/outbox.cif.g08.bks.cpg/sg65_17_cif.got.tgz:32626.got - 2010.06.03 17:01:31.
