data_PCOD9486408
_publ_section_title
;
Structure prediction by ZEFSAII (Michael W. Deem and Ramdas Pophale) SiO2 
 PCOD9486408
Probable space group: C M M M
;
_chemical_formula_sum "Si O2"
_cell_formula_units_Z 88
_cell_length_a 18.544802
_cell_length_b 7.702137
_cell_length_c 29.416355
_cell_angle_alpha 90.000000
_cell_angle_beta 90.000000
_cell_angle_gamma 90.000000
_cell_volume 4201.673466
_symmetry_space_group_name_H-M "C M M M"
_symmetry_group_IT_number 65
_symmetry_cell_setting 'orthorhombic'
loop_
_space_group_symop_operation_xyz
x,y,z
-x,-y,z
x,-y,-z
-x,y,-z
-x,-y,-z
x,y,-z
-x,y,z
x,-y,z
1/2+x,1/2+y,z
1/2-x,1/2-y,z
1/2+x,1/2-y,-z
1/2-x,1/2+y,-z
1/2-x,1/2-y,-z
1/2+x,1/2+y,-z
1/2-x,1/2+y,z
1/2+x,1/2-y,z
loop_
_atom_site_type_symbol
_atom_site_label
_atom_site_fract_x
_atom_site_fract_y
_atom_site_fract_z
Si Si1 0.665867 0.206118 0.229092
Si Si2 0.583617 0.212719 0.500000
Si Si3 0.416459 0.212816 0.681139
Si Si4 0.833990 0.209112 0.949329
Si Si5 0.581011 0.292509 0.861935
Si Si6 0.334457 0.791411 0.409418
O O1 0.750000 0.250000 0.230964
O O2 0.623204 0.274486 0.273153
O O3 0.629646 0.263164 0.182175
O O4 0.659470 0.000000 0.230541
O O5 0.500000 0.265406 0.500000
O O6 0.625233 0.271619 0.454773
O O7 0.584340 0.000000 0.500000
O O8 0.500000 0.265296 0.680043
O O9 0.373520 0.271438 0.636381
O O10 0.415479 0.000000 0.681183
O O11 0.750000 0.250000 0.941380
O O12 0.881642 0.276784 0.907749
O O13 0.840736 0.000000 0.950188
O O14 0.853343 0.273527 0.000000
O O15 0.500000 0.223943 0.855374
O O16 0.576005 0.500000 0.867485
O O17 0.250000 0.750000 0.409835
O O18 0.341216 0.000000 0.409424
#
# Coordination Sequence:
#
# PCOD9486408 Si02
#       6
#    16   8  16  16  16  16
#     4  11  22  36  55  77 103 136 174 214 257 307
#     4   9  17  30  51  77 100 129 172 214 250 293
#     4   9  18  33  53  76 101 132 171 212 253 300
#     4   9  18  33  53  76 102 134 171 209 251 301
#     4  10  21  36  54  78 107 137 171 213 259 305
#     4  10  19  32  52  76 103 133 167 209 253 301
#
# _framework density 20.944035
#
# number of rings (size 3 to 8) (size 9 to 14) (size 15 to 20)
#    0.000    2.273    0.000    3.000    0.000    5.818 
#    0.000    2.727    0.000    4.909    0.000    3.818 
#    0.000    0.000    0.000    0.000    0.000    0.000 
#
# Total GULP energy -245821.283077 kJ/mol
# GULP energy per Si atom -5586.847343 kJ/mol
# Density = 2.089637 g / cm^3
# Si number density = 20.944035 Si / 1000 Ang^3
#
#
#
# Elastic Constant Matrix: (Units=GPa)
#
#
# Indices 1 2 3 4 5 6 
#
# 1 210.7710 -1.2741 144.6678 0.0000 0.0000 0.0000
# 2 -1.2741 35.0584 7.7452 0.0000 0.0000 0.0000
# 3 144.6678 7.7452 225.9614 0.0000 0.0000 0.0000
# 4 0.0000 0.0000 0.0000 14.6397 0.0000 0.0000
# 5 0.0000 0.0000 0.0000 0.0000 2.2843 0.0000
# 6 0.0000 0.0000 0.0000 0.0000 0.0000 15.2073
#
#
#
# Elastic Compliance Matrix: (Units=1/GPa)
#
#
# Indices 1 2 3 4 5 6 
#
# 1 0.008545 0.001531 -0.005523 0.000000 0.000000 0.000000
# 2 0.001531 0.029016 -0.001975 0.000000 0.000000 0.000000
# 3 -0.005523 -0.001975 0.008029 0.000000 0.000000 0.000000
# 4 0.000000 0.000000 0.000000 0.068308 0.000000 0.000000
# 5 0.000000 0.000000 0.000000 0.000000 0.437779 0.000000
# 6 0.000000 0.000000 0.000000 0.000000 0.000000 0.065758
#
#
# Mechanical properties :
#
#
# Convention : Reuss Voigt Hill
#
# Bulk Modulus (GPa) = 29.71259 86.00763 57.86011
# Shear Modulus (GPa) = 7.80535 27.80304 17.80420
#
# Velocity S-wave (km/s) = 1.93258 3.64743 2.91878
# Velocity P-wave (km/s) = 4.38147 7.67417 6.24861
#
# Compressibility (1/GPa) = 0.03365577
#
# Stress axis : x y z
#
# Youngs Moduli (GPa) = 117.03337 34.46411 124.54531
#
# Poissons Ratio (x) = -0.05275 0.68786
# Poissons Ratio (y) = -0.17914 0.24592
# Poissons Ratio (z) = 0.64637 0.06805
#
# Static dielectric constant tensor:
#      x y z
#    x 1.695020 0.000000 0.000000 
#    y 0.000000 1.793270 0.000000 
#    z 0.000000 0.000000 1.741810 
# 
# From -- ./inp_files/70989.got.cif
#   From: 2010.05.17/outbox.cif.g08.bks.cpg/sg65_36_cif.got.tgz:70989.got - 2010.06.03 17:01:31.
