data_PCOD9486822
_publ_section_title
;
Structure prediction by ZEFSAII (Michael W. Deem and Ramdas Pophale) SiO2 
 PCOD9486822
Probable space group: C M M M
;
_chemical_formula_sum "Si O2"
_cell_formula_units_Z 96
_cell_length_a 12.125730
_cell_length_b 23.261600
_cell_length_c 18.062026
_cell_angle_alpha 90.000000
_cell_angle_beta 90.000000
_cell_angle_gamma 90.000000
_cell_volume 5094.645152
_symmetry_space_group_name_H-M "C M M M"
_symmetry_group_IT_number 65
_symmetry_cell_setting 'orthorhombic'
loop_
_space_group_symop_operation_xyz
x,y,z
-x,-y,z
x,-y,-z
-x,y,-z
-x,-y,-z
x,y,-z
-x,y,z
x,-y,z
1/2+x,1/2+y,z
1/2-x,1/2-y,z
1/2+x,1/2-y,-z
1/2-x,1/2+y,-z
1/2-x,1/2-y,-z
1/2+x,1/2+y,-z
1/2-x,1/2+y,z
1/2+x,1/2-y,z
loop_
_atom_site_type_symbol
_atom_site_label
_atom_site_fract_x
_atom_site_fract_y
_atom_site_fract_z
Si Si1 0.125820 0.069908 0.500000
Si Si2 0.000000 0.570052 0.586090
Si Si3 0.235053 0.430476 0.643988
Si Si4 0.381735 0.608456 0.224583
Si Si5 0.872007 0.326906 0.082712
Si Si6 0.785662 0.935810 0.083110
Si Si7 0.627707 0.743539 0.776934
O O1 0.190611 0.087374 0.573828
O O2 0.000000 0.089834 0.500000
O O3 0.125478 0.000000 0.500000
O O4 0.889317 0.588383 0.627217
O O5 0.000000 0.500000 0.584850
O O6 0.000000 0.588027 0.500000
O O7 0.236883 0.500000 0.647597
O O8 0.285104 0.406679 0.719102
O O9 0.500000 0.595147 0.260834
O O10 0.369926 0.573210 0.149402
O O11 0.378229 0.675828 0.206448
O O12 0.801056 0.384318 0.093147
O O13 0.859043 0.281606 0.148873
O O14 0.000000 0.343493 0.082876
O O15 0.846526 0.303436 0.000000
O O16 0.736901 0.000000 0.088914
O O17 0.832352 0.930422 0.000000
O O18 0.500000 0.757349 0.747534
O O19 0.750000 0.750000 0.737103
#
# Coordination Sequence:
#
# PCOD9486822 Si02
#       7
#     8   8  16  16  16  16  16
#     4   9  16  27  49  79 110 148 189 224 273 344
#     4   9  16  32  56  82 117 155 193 239 285 340
#     4  10  19  33  53  80 117 157 191 232 289 343
#     4  11  23  37  54  80 116 155 197 244 289 340
#     4   9  18  34  57  81 105 137 185 246 306 361
#     4  10  21  36  54  78 112 155 199 241 292 351
#     4  10  20  37  58  80 107 142 189 243 299 346
#
# _framework density 18.843315
#
# number of rings (size 3 to 8) (size 9 to 14) (size 15 to 20)
#    0.000    2.167    2.500    1.000    0.000    3.667 
#    3.000    4.167    0.000    0.000    0.000    0.583 
#    0.000    0.000    0.000    0.000    0.000    0.000 
#
# Total GULP energy -267288.375402 kJ/mol
# GULP energy per Si atom -5568.507821 kJ/mol
# Density = 1.880043 g / cm^3
# Si number density = 18.843315 Si / 1000 Ang^3
#
#
#
# Elastic Constant Matrix: (Units=GPa)
#
#
# Indices 1 2 3 4 5 6 
#
# 1 156.9227 24.1644 49.5797 0.0000 0.0000 0.0000
# 2 24.1644 50.0122 29.3490 0.0000 0.0000 0.0000
# 3 49.5797 29.3490 86.3240 0.0000 0.0000 0.0000
# 4 0.0000 0.0000 0.0000 7.1476 0.0000 0.0000
# 5 0.0000 0.0000 0.0000 0.0000 17.8705 0.0000
# 6 0.0000 0.0000 0.0000 0.0000 0.0000 13.2335
#
#
#
# Elastic Compliance Matrix: (Units=1/GPa)
#
#
# Indices 1 2 3 4 5 6 
#
# 1 0.007867 -0.001436 -0.004030 0.000000 0.000000 0.000000
# 2 -0.001436 0.025241 -0.007757 0.000000 0.000000 0.000000
# 3 -0.004030 -0.007757 0.016536 0.000000 0.000000 0.000000
# 4 0.000000 0.000000 0.000000 0.139907 0.000000 0.000000
# 5 0.000000 0.000000 0.000000 0.000000 0.055958 0.000000
# 6 0.000000 0.000000 0.000000 0.000000 0.000000 0.075566
#
#
# Mechanical properties :
#
#
# Convention : Reuss Voigt Hill
#
# Bulk Modulus (GPa) = 43.10692 55.49391 49.30042
# Shear Modulus (GPa) = 14.07444 20.32805 17.20124
#
# Velocity S-wave (km/s) = 2.73595 3.28806 3.02463
# Velocity P-wave (km/s) = 5.73644 6.62792 6.19822
#
# Compressibility (1/GPa) = 0.02319813
#
# Stress axis : x y z
#
# Youngs Moduli (GPa) = 127.11284 39.61817 60.47354
#
# Poissons Ratio (x) = 0.05689 0.24372
# Poissons Ratio (y) = 0.18254 0.46908
# Poissons Ratio (z) = 0.51228 0.30731
#
# Static dielectric constant tensor:
#      x y z
#    x 1.717150 0.000000 0.000000 
#    y 0.000000 1.629540 0.000000 
#    z 0.000000 0.000000 1.641240 
# 
# From -- ./inp_files/51710.got.cif
#   From: 2010.05.17/outbox.cif.g08.bks.cpg/sg65_26_cif.got.tgz:51710.got - 2010.06.03 17:01:31.
