data_PCOD9486595
_publ_section_title
;
Structure prediction by ZEFSAII (Michael W. Deem and Ramdas Pophale) SiO2 
 PCOD9486595
Probable space group: C M M M
;
_chemical_formula_sum "Si O2"
_cell_formula_units_Z 112
_cell_length_a 13.344958
_cell_length_b 27.530103
_cell_length_c 15.814466
_cell_angle_alpha 90.000000
_cell_angle_beta 90.000000
_cell_angle_gamma 90.000000
_cell_volume 5810.046114
_symmetry_space_group_name_H-M "C M M M"
_symmetry_group_IT_number 65
_symmetry_cell_setting 'orthorhombic'
loop_
_space_group_symop_operation_xyz
x,y,z
-x,-y,z
x,-y,-z
-x,y,-z
-x,-y,-z
x,y,-z
-x,y,z
x,-y,z
1/2+x,1/2+y,z
1/2-x,1/2-y,z
1/2+x,1/2-y,-z
1/2-x,1/2+y,-z
1/2-x,1/2-y,-z
1/2+x,1/2+y,-z
1/2-x,1/2+y,z
1/2+x,1/2-y,z
loop_
_atom_site_type_symbol
_atom_site_label
_atom_site_fract_x
_atom_site_fract_y
_atom_site_fract_z
Si Si1 0.883137 0.575640 0.597918
Si Si2 0.382872 0.646021 0.805862
Si Si3 0.763119 0.052734 0.750728
Si Si4 0.801067 0.680282 0.904925
Si Si5 0.384991 0.924796 0.902597
Si Si6 0.117696 0.745760 0.243610
Si Si7 0.380967 0.807879 0.591443
O O1 0.863347 0.561327 0.500000
O O2 0.806624 0.556388 0.667564
O O3 0.873728 0.634196 0.601932
O O4 0.000000 0.563428 0.616393
O O5 0.500000 0.639069 0.827076
O O6 0.336644 0.598899 0.759896
O O7 0.308996 0.658571 0.883914
O O8 0.374375 0.696096 0.752973
O O9 0.689460 0.055217 0.832028
O O10 0.814449 0.000000 0.750618
O O11 0.873651 0.633658 0.896733
O O12 0.833244 0.720236 0.837340
O O13 0.806483 0.698792 0.000000
O O14 0.500000 0.938671 0.886688
O O15 0.359571 0.937994 0.000000
O O16 0.157873 0.719673 0.327139
O O17 0.000000 0.734809 0.236266
O O18 0.337151 0.794784 0.500000
O O19 0.500000 0.797050 0.588016
#
# Coordination Sequence:
#
# PCOD9486595 Si02
#       7
#    16  16  16  16  16  16  16
#     4   9  18  33  55  87 124 152 175 212 267 337
#     4  10  23  40  55  75 105 143 191 243 284 317
#     4  11  23  38  57  77 101 141 191 239 286 330
#     4  10  20  34  55  84 117 150 179 209 260 334
#     4   9  18  33  54  83 117 144 167 205 263 335
#     4  10  19  32  54  84 118 149 177 217 269 331
#     4   8  14  27  50  80 114 150 177 197 240 314
#
# _framework density 19.276955999999998
#
# number of rings (size 3 to 8) (size 9 to 14) (size 15 to 20)
#    0.000    2.429    0.000    3.857    0.000    5.429 
#    0.000    3.571    0.000    4.714    0.000    5.000 
#    0.000    0.000    0.000    0.000    0.000    0.000 
#
# Total GULP energy -312389.797549 kJ/mol
# GULP energy per Si atom -5578.389242 kJ/mol
# Density = 1.923308 g / cm^3
# Si number density = 19.276956 Si / 1000 Ang^3
#
#
#
# Elastic Constant Matrix: (Units=GPa)
#
#
# Indices 1 2 3 4 5 6 
#
# 1 98.4688 33.1760 33.7073 0.0000 0.0000 0.0000
# 2 33.1760 118.8555 61.6977 0.0000 0.0000 0.0000
# 3 33.7073 61.6977 120.3269 0.0000 0.0000 0.0000
# 4 0.0000 0.0000 0.0000 -5.3678 0.0000 0.0000
# 5 0.0000 0.0000 0.0000 0.0000 4.1190 0.0000
# 6 0.0000 0.0000 0.0000 0.0000 0.0000 10.4773
#
#
#
# Elastic Compliance Matrix: (Units=1/GPa)
#
#
# Indices 1 2 3 4 5 6 
#
# 1 0.011610 -0.002116 -0.002168 0.000000 0.000000 0.000000
# 2 -0.002116 0.011851 -0.005484 0.000000 0.000000 0.000000
# 3 -0.002168 -0.005484 0.011730 0.000000 0.000000 0.000000
# 4 0.000000 0.000000 0.000000 -0.186296 0.000000 0.000000
# 5 0.000000 0.000000 0.000000 0.000000 0.242776 0.000000
# 6 0.000000 0.000000 0.000000 0.000000 0.000000 0.095444
#
#
# Mechanical properties :
#
#
# Convention : Reuss Voigt Hill
#
# Bulk Modulus (GPa) = 63.87037 66.09035 64.98036
# Shear Modulus (GPa) = 23.59964 15.78373 19.69168
#
# Velocity S-wave (km/s) = 3.50271 2.86455 3.19958
# Velocity P-wave (km/s) = 7.04014 6.73052 6.88707
#
# Compressibility (1/GPa) = 0.01565671
#
# Stress axis : x y z
#
# Youngs Moduli (GPa) = 86.13055 84.38288 85.25316
#
# Poissons Ratio (x) = 0.17852 0.18480
# Poissons Ratio (y) = 0.18221 0.46752
# Poissons Ratio (z) = 0.18670 0.46274
#
# Static dielectric constant tensor:
#      x y z
#    x 1.676330 0.000000 0.000000 
#    y 0.000000 1.695570 0.000000 
#    z 0.000000 0.000000 1.669720 
# 
# From -- ./inp_files/41035.got.cif
#   From: 2010.05.17/outbox.cif.g08.bks.cpg/sg65_21_cif.got.tgz:41035.got - 2010.06.03 17:01:31.
