data_PCOD9486973
_publ_section_title
;
Structure prediction by ZEFSAII (Michael W. Deem and Ramdas Pophale) SiO2 
 PCOD9486973
Probable space group: C M M M
;
_chemical_formula_sum "Si O2"
_cell_formula_units_Z 88
_cell_length_a 18.386236
_cell_length_b 7.595459
_cell_length_c 30.423737
_cell_angle_alpha 90.000000
_cell_angle_beta 90.000000
_cell_angle_gamma 90.000000
_cell_volume 4248.732729
_symmetry_space_group_name_H-M "C M M M"
_symmetry_group_IT_number 65
_symmetry_cell_setting 'orthorhombic'
loop_
_space_group_symop_operation_xyz
x,y,z
-x,-y,z
x,-y,-z
-x,y,-z
-x,-y,-z
x,y,-z
-x,y,z
x,-y,z
1/2+x,1/2+y,z
1/2-x,1/2-y,z
1/2+x,1/2-y,-z
1/2-x,1/2+y,-z
1/2-x,1/2-y,-z
1/2+x,1/2+y,-z
1/2-x,1/2+y,z
1/2+x,1/2-y,z
loop_
_atom_site_type_symbol
_atom_site_label
_atom_site_fract_x
_atom_site_fract_y
_atom_site_fract_z
Si Si1 0.586598 0.714055 0.047274
Si Si2 0.335156 0.211010 0.500000
Si Si3 0.165275 0.292010 0.325281
Si Si4 0.415947 0.784145 0.587882
Si Si5 0.911504 0.791778 0.141749
Si Si6 0.917522 0.789764 0.763497
O O1 0.500000 0.752823 0.046834
O O2 0.592247 0.500000 0.047687
O O3 0.614619 0.780483 0.094572
O O4 0.616718 0.775320 0.000000
O O5 0.250000 0.250000 0.500000
O O6 0.373375 0.276083 0.455531
O O7 0.343881 0.000000 0.500000
O O8 0.157113 0.500000 0.327491
O O9 0.250000 0.250000 0.328088
O O10 0.122184 0.219812 0.367480
O O11 0.131626 0.238883 0.278726
O O12 0.500000 0.732069 0.586420
O O13 0.414222 0.000000 0.587919
O O14 0.888676 0.719710 0.189408
O O15 0.000000 0.778237 0.142078
O O16 0.893959 0.000000 0.140882
O O17 0.000000 0.722722 0.755762
O O18 0.923132 0.000000 0.769128
#
# Coordination Sequence:
#
# PCOD9486973 Si02
#       6
#    16   8  16  16  16  16
#     4   7   8  10  19  39  70 107 142 174 212 260
#     4  10  19  33  55  79 105 134 162 194 232 276
#     4  11  22  35  51  71  97 126 159 200 243 288
#     4   9  18  33  54  78 100 126 162 199 234 277
#     4   7  10  17  30  50  78 112 147 182 221 267
#     4   9  17  30  48  69  94 125 160 196 236 283
#
# _framework density 20.712057999999999
#
# number of rings (size 3 to 8) (size 9 to 14) (size 15 to 20)
#    0.000    3.273    0.000    4.636    0.000    2.182 
#    0.000    0.909    0.000    3.273    0.000    0.000 
#    0.000    1.455    0.000    8.364    0.000    9.455 
#
# Total GULP energy -245101.311018 kJ/mol
# GULP energy per Si atom -5570.484341 kJ/mol
# Density = 2.066492 g / cm^3
# Si number density = 20.712058 Si / 1000 Ang^3
#
#
#
# Elastic Constant Matrix: (Units=GPa)
#
#
# Indices 1 2 3 4 5 6 
#
# 1 95.5827 -2.0323 99.4998 0.0000 0.0000 0.0000
# 2 -2.0323 43.6323 10.5144 0.0000 0.0000 0.0000
# 3 99.4998 10.5144 278.2615 0.0000 0.0000 0.0000
# 4 0.0000 0.0000 0.0000 8.4004 0.0000 0.0000
# 5 0.0000 0.0000 0.0000 0.0000 -9.5833 0.0000
# 6 0.0000 0.0000 0.0000 0.0000 0.0000 37.8460
#
#
#
# Elastic Compliance Matrix: (Units=1/GPa)
#
#
# Indices 1 2 3 4 5 6 
#
# 1 0.016884 0.002262 -0.006123 0.000000 0.000000 0.000000
# 2 0.002262 0.023432 -0.001694 0.000000 0.000000 0.000000
# 3 -0.006123 -0.001694 0.005847 0.000000 0.000000 0.000000
# 4 0.000000 0.000000 0.000000 0.119042 0.000000 0.000000
# 5 0.000000 0.000000 0.000000 0.000000 -0.104348 0.000000
# 6 0.000000 0.000000 0.000000 0.000000 0.000000 0.026423
#
#
# Mechanical properties :
#
#
# Convention : Reuss Voigt Hill
#
# Bulk Modulus (GPa) = 28.52800 70.38224 49.45512
# Shear Modulus (GPa) = 45.42337 27.96559 36.69448
#
# Velocity S-wave (km/s) = 4.68812 3.67850 4.21366
# Velocity P-wave (km/s) = 6.56568 7.21782 6.89946
#
# Compressibility (1/GPa) = 0.03505328
#
# Stress axis : x y z
#
# Youngs Moduli (GPa) = 59.22797 42.67587 171.02451
#
# Poissons Ratio (x) = -0.09653 1.04714
# Poissons Ratio (y) = -0.13397 0.28975
# Poissons Ratio (z) = 0.36264 0.07230
#
# Static dielectric constant tensor:
#      x y z
#    x 1.667330 0.000000 0.000000 
#    y 0.000000 1.698130 0.000000 
#    z 0.000000 0.000000 1.822010 
# 
# From -- ./inp_files/77834.got.cif
#   From: 2010.05.17/outbox.cif.g08.bks.cpg/sg65_39_cif.got.tgz:77834.got - 2010.06.03 17:01:31.
