data_PCOD9486216
_publ_section_title
;
Structure prediction by ZEFSAII (Michael W. Deem and Ramdas Pophale) SiO2 
 PCOD9486216
Probable space group: C M M M
;
_chemical_formula_sum "Si O2"
_cell_formula_units_Z 104
_cell_length_a 32.700091
_cell_length_b 11.715255
_cell_length_c 13.291816
_cell_angle_alpha 90.000000
_cell_angle_beta 90.000000
_cell_angle_gamma 90.000000
_cell_volume 5091.960523
_symmetry_space_group_name_H-M "C M M M"
_symmetry_group_IT_number 65
_symmetry_cell_setting 'orthorhombic'
loop_
_space_group_symop_operation_xyz
x,y,z
-x,-y,z
x,-y,-z
-x,y,-z
-x,-y,-z
x,y,-z
-x,y,z
x,-y,z
1/2+x,1/2+y,z
1/2-x,1/2-y,z
1/2+x,1/2-y,-z
1/2-x,1/2+y,-z
1/2-x,1/2-y,-z
1/2+x,1/2+y,-z
1/2-x,1/2+y,z
1/2+x,1/2-y,z
loop_
_atom_site_type_symbol
_atom_site_label
_atom_site_fract_x
_atom_site_fract_y
_atom_site_fract_z
Si Si1 0.120065 0.711935 0.110909
Si Si2 0.256814 0.871727 0.689922
Si Si3 0.421182 0.251817 0.615512
Si Si4 0.200229 0.129948 0.112383
Si Si5 0.045228 0.500000 0.378763
Si Si6 0.146309 0.622236 0.688684
Si Si7 0.452176 0.634029 0.810414
O O1 0.160908 0.789619 0.120538
O O2 0.125084 0.626090 0.202543
O O3 0.079972 0.789560 0.127984
O O4 0.119347 0.661113 0.000000
O O5 0.250000 0.750000 0.634392
O O6 0.231965 0.860863 0.795554
O O7 0.305472 0.872716 0.704830
O O8 0.246230 0.000000 0.648947
O O9 0.431034 0.276636 0.500000
O O10 0.436922 0.124659 0.644497
O O11 0.372588 0.230454 0.630679
O O12 0.440051 0.339349 0.694280
O O13 0.184849 0.000000 0.115855
O O14 0.218627 0.146841 0.000000
O O15 0.043880 0.500000 0.500000
O O16 0.000000 0.500000 0.334921
O O17 0.138034 0.500000 0.636438
O O18 0.500000 0.662794 0.826676
O O19 0.446773 0.500000 0.832063
#
# Coordination Sequence:
#
# PCOD9486216 Si02
#       7
#    16  16  16  16   8  16  16
#     4  10  20  34  54  78 110 151 194 231 273 326
#     4  10  19  32  50  76 108 145 186 231 285 340
#     4  10  20  36  58  84 111 140 178 226 283 342
#     4   9  17  29  47  72 102 138 185 233 275 320
#     4   9  16  28  52  82 105 129 167 217 272 326
#     4  10  20  34  53  81 113 146 186 232 286 341
#     4  10  22  38  56  83 116 148 184 227 278 336
#
# _framework density 20.424354000000001
#
# number of rings (size 3 to 8) (size 9 to 14) (size 15 to 20)
#    0.000    2.231    2.308    0.923    0.000    3.692 
#    0.000    3.077    0.000    0.462    0.000    2.154 
#    0.000    0.000    0.000    0.000    0.000    0.000 
#
# Total GULP energy -289557.791302 kJ/mol
# GULP energy per Si atom -5568.419064 kJ/mol
# Density = 2.037787 g / cm^3
# Si number density = 20.424354 Si / 1000 Ang^3
#
#
#
# Elastic Constant Matrix: (Units=GPa)
#
#
# Indices 1 2 3 4 5 6 
#
# 1 77.0152 7.0767 -12.0145 0.0000 0.0000 0.0000
# 2 7.0767 85.6936 -8.4193 0.0000 0.0000 0.0000
# 3 -12.0145 -8.4193 32.1783 0.0000 0.0000 0.0000
# 4 0.0000 0.0000 0.0000 13.3032 0.0000 0.0000
# 5 0.0000 0.0000 0.0000 0.0000 12.3136 0.0000
# 6 0.0000 0.0000 0.0000 0.0000 0.0000 18.5747
#
#
#
# Elastic Compliance Matrix: (Units=1/GPa)
#
#
# Indices 1 2 3 4 5 6 
#
# 1 0.013823 -0.000651 0.004991 0.000000 0.000000 0.000000
# 2 -0.000651 0.012008 0.002899 0.000000 0.000000 0.000000
# 3 0.004991 0.002899 0.033699 0.000000 0.000000 0.000000
# 4 0.000000 0.000000 0.000000 0.075170 0.000000 0.000000
# 5 0.000000 0.000000 0.000000 0.000000 0.081211 0.000000
# 6 0.000000 0.000000 0.000000 0.000000 0.000000 0.053837
#
#
# Mechanical properties :
#
#
# Convention : Reuss Voigt Hill
#
# Bulk Modulus (GPa) = 13.51241 18.68587 16.09914
# Shear Modulus (GPa) = 17.86105 22.72126 20.29115
#
# Velocity S-wave (km/s) = 2.96040 3.33897 3.15537
# Velocity P-wave (km/s) = 4.27966 4.90241 4.60158
#
# Compressibility (1/GPa) = 0.07400604
#
# Stress axis : x y z
#
# Youngs Moduli (GPa) = 72.34404 83.27738 29.67475
#
# Poissons Ratio (x) = 0.05423 -0.14810
# Poissons Ratio (y) = 0.04711 -0.08602
# Poissons Ratio (z) = -0.36105 -0.24140
#
# Static dielectric constant tensor:
#      x y z
#    x 1.778700 0.000000 0.000000 
#    y 0.000000 1.780620 0.000000 
#    z 0.000000 0.000000 1.729600 
# 
# From -- ./inp_files/47778.got.cif
#   From: 2010.05.17/outbox.cif.g08.bks.cpg/sg65_24_cif.got.tgz:47778.got - 2010.06.03 17:01:31.
