data_PCOD9486459
_publ_section_title
;
Structure prediction by ZEFSAII (Michael W. Deem and Ramdas Pophale) SiO2 
 PCOD9486459
Probable space group: C M M M
;
_chemical_formula_sum "Si O2"
_cell_formula_units_Z 80
_cell_length_a 13.086117
_cell_length_b 18.327694
_cell_length_c 16.656126
_cell_angle_alpha 90.000000
_cell_angle_beta 90.000000
_cell_angle_gamma 90.000000
_cell_volume 3994.777744
_symmetry_space_group_name_H-M "C M M M"
_symmetry_group_IT_number 65
_symmetry_cell_setting 'orthorhombic'
loop_
_space_group_symop_operation_xyz
x,y,z
-x,-y,z
x,-y,-z
-x,y,-z
-x,-y,-z
x,y,-z
-x,y,z
x,-y,z
1/2+x,1/2+y,z
1/2-x,1/2-y,z
1/2+x,1/2-y,-z
1/2-x,1/2+y,-z
1/2-x,1/2-y,-z
1/2+x,1/2+y,-z
1/2-x,1/2+y,z
1/2+x,1/2-y,z
loop_
_atom_site_type_symbol
_atom_site_label
_atom_site_fract_x
_atom_site_fract_y
_atom_site_fract_z
Si Si1 0.319161 0.922658 0.325892
Si Si2 0.122923 0.385034 0.500000
Si Si3 0.623969 0.083292 0.093927
Si Si4 0.122971 0.217400 0.500000
Si Si5 0.116311 0.702701 0.781846
Si Si6 0.878430 0.156313 0.678733
O O1 0.335650 0.921319 0.420366
O O2 0.380322 0.854200 0.291686
O O3 0.200318 0.908856 0.306270
O O4 0.356116 0.000000 0.293532
O O5 0.158628 0.300863 0.500000
O O6 0.000000 0.388229 0.500000
O O7 0.500000 0.082037 0.103177
O O8 0.663285 0.151352 0.147737
O O9 0.659375 0.000000 0.113117
O O10 0.645873 0.095821 0.000000
O O11 0.144777 0.181780 0.413035
O O12 0.000000 0.221063 0.500000
O O13 0.149404 0.779629 0.742615
O O14 0.000000 0.717270 0.807441
O O15 0.000000 0.141660 0.684327
#
# Coordination Sequence:
#
# PCOD9486459 Si02
#       6
#    16   8  16   8  16  16
#     4  12  24  34  50  75 103 137 170 210 264 307
#     4  11  22  36  53  78 107 133 165 209 265 319
#     4   8  14  26  46  74 109 142 164 191 244 312
#     4   9  17  33  54  71  89 125 169 206 249 291
#     4  10  19  32  52  78 104 132 167 205 248 304
#     4  10  21  37  55  72  95 133 181 222 252 291
#
# _framework density 20.026145
#
# number of rings (size 3 to 8) (size 9 to 14) (size 15 to 20)
#    0.000    2.000    2.000    3.300    0.000    4.000 
#    0.000    0.000    0.000    5.400    0.000    0.000 
#    0.000    0.000    0.000   12.000    0.000    0.200 
#
# Total GULP energy -222894.931726 kJ/mol
# GULP energy per Si atom -5572.373293 kJ/mol
# Density = 1.998056 g / cm^3
# Si number density = 20.026145 Si / 1000 Ang^3
#
#
#
# Elastic Constant Matrix: (Units=GPa)
#
#
# Indices 1 2 3 4 5 6 
#
# 1 72.1109 -2.1974 -8.8822 0.0000 0.0000 0.0000
# 2 -2.1974 71.9813 15.1186 0.0000 0.0000 0.0000
# 3 -8.8822 15.1186 109.1166 0.0000 0.0000 0.0000
# 4 0.0000 0.0000 0.0000 -193.4524 0.0000 0.0000
# 5 0.0000 0.0000 0.0000 0.0000 13.2099 0.0000
# 6 0.0000 0.0000 0.0000 0.0000 0.0000 -5.2781
#
#
#
# Elastic Compliance Matrix: (Units=1/GPa)
#
#
# Indices 1 2 3 4 5 6 
#
# 1 0.014011 0.000194 0.001114 0.000000 0.000000 0.000000
# 2 0.000194 0.014312 -0.001967 0.000000 0.000000 0.000000
# 3 0.001114 -0.001967 0.009528 0.000000 0.000000 0.000000
# 4 0.000000 0.000000 0.000000 -0.005169 0.000000 0.000000
# 5 0.000000 0.000000 0.000000 0.000000 0.075701 0.000000
# 6 0.000000 0.000000 0.000000 0.000000 0.000000 -0.189462
#
#
# Mechanical properties :
#
#
# Convention : Reuss Voigt Hill
#
# Bulk Modulus (GPa) = 27.37442 29.03186 28.20314
# Shear Modulus (GPa) = -73.98169 -20.49280 -47.23724
#
# Velocity S-wave (km/s) = -6.08463 -3.20238 -4.86199
# Velocity P-wave (km/s) = 5.97199 0.92455 4.17192
#
# Compressibility (1/GPa) = 0.03653046
#
# Stress axis : x y z
#
# Youngs Moduli (GPa) = 71.37448 69.87343 104.95691
#
# Poissons Ratio (x) = -0.01354 -0.11688
# Poissons Ratio (y) = -0.01383 0.20647
# Poissons Ratio (z) = -0.07948 0.13745
#
# Static dielectric constant tensor:
#      x y z
#    x 1.745540 0.000000 0.000000 
#    y 0.000000 1.718800 0.000000 
#    z 0.000000 0.000000 1.716600 
# 
# From -- ./inp_files/52935.got.cif
#   From: 2010.05.17/outbox.cif.g08.bks.cpg/sg65_27_cif.got.tgz:52935.got - 2010.06.03 17:01:31.
