data_PCOD9486024
_publ_section_title
;
Structure prediction by ZEFSAII (Michael W. Deem and Ramdas Pophale) SiO2 
 PCOD9486024
Probable space group: C M M M
;
_chemical_formula_sum "Si O2"
_cell_formula_units_Z 72
_cell_length_a 25.501552
_cell_length_b 15.163579
_cell_length_c 9.703463
_cell_angle_alpha 90.000000
_cell_angle_beta 90.000000
_cell_angle_gamma 90.000000
_cell_volume 3752.278668
_symmetry_space_group_name_H-M "C M M M"
_symmetry_group_IT_number 65
_symmetry_cell_setting 'orthorhombic'
loop_
_space_group_symop_operation_xyz
x,y,z
-x,-y,z
x,-y,-z
-x,y,-z
-x,-y,-z
x,y,-z
-x,y,z
x,-y,z
1/2+x,1/2+y,z
1/2-x,1/2-y,z
1/2+x,1/2-y,-z
1/2-x,1/2+y,-z
1/2-x,1/2-y,-z
1/2+x,1/2+y,-z
1/2-x,1/2+y,z
1/2+x,1/2-y,z
loop_
_atom_site_type_symbol
_atom_site_label
_atom_site_fract_x
_atom_site_fract_y
_atom_site_fract_z
Si Si1 0.751563 0.857767 0.658496
Si Si2 0.847218 0.629673 0.159559
Si Si3 0.150571 0.842082 0.157461
Si Si4 0.939550 0.500000 0.833721
Si Si5 0.440476 0.605731 0.650756
O O1 0.754411 0.886847 0.500000
O O2 0.750000 0.750000 0.657418
O O3 0.700170 0.892347 0.737456
O O4 0.802912 0.879046 0.747481
O O5 0.849200 0.735603 0.160054
O O6 0.902129 0.583694 0.201137
O O7 0.835995 0.603796 0.000000
O O8 0.096159 0.868428 0.225181
O O9 0.156732 0.870880 0.000000
O O10 0.000000 0.500000 0.781043
O O11 0.943808 0.500000 0.000000
O O12 0.420331 0.636542 0.500000
O O13 0.500000 0.637854 0.666595
O O14 0.442169 0.500000 0.646144
#
# Coordination Sequence:
#
# PCOD9486024 Si02
#       5
#    16  16  16   8  16
#     4   9  17  31  52  75 101 134 170 210 260 315
#     4   9  18  33  53  77 105 137 175 220 263 306
#     4  10  19  31  52  81 108 134 171 218 265 314
#     4   9  18  34  55  77 105 143 182 219 262 311
#     4   9  19  36  54  72 100 137 173 210 254 308
#
# _framework density 19.188341000000001
#
# number of rings (size 3 to 8) (size 9 to 14) (size 15 to 20)
#    0.000    2.778    0.000    2.000    0.000    5.333 
#    2.000    3.889    0.000    1.333    0.000    0.000 
#    0.000    0.000    0.000    0.000    0.000    0.000 
#
# Total GULP energy -200680.429019 kJ/mol
# GULP energy per Si atom -5574.456362 kJ/mol
# Density = 1.914467 g / cm^3
# Si number density = 19.188341 Si / 1000 Ang^3
#
#
#
# Elastic Constant Matrix: (Units=GPa)
#
#
# Indices 1 2 3 4 5 6 
#
# 1 139.0658 23.5393 91.4605 0.0000 0.0000 0.0000
# 2 23.5393 32.5327 21.2624 0.0000 0.0000 0.0000
# 3 91.4605 21.2624 155.3811 0.0000 0.0000 0.0000
# 4 0.0000 0.0000 0.0000 2.0705 0.0000 0.0000
# 5 0.0000 0.0000 0.0000 0.0000 32.1139 0.0000
# 6 0.0000 0.0000 0.0000 0.0000 0.0000 35.0050
#
#
#
# Elastic Compliance Matrix: (Units=1/GPa)
#
#
# Indices 1 2 3 4 5 6 
#
# 1 0.012326 -0.004587 -0.006628 0.000000 0.000000 0.000000
# 2 -0.004587 0.035464 -0.002153 0.000000 0.000000 0.000000
# 3 -0.006628 -0.002153 0.010632 0.000000 0.000000 0.000000
# 4 0.000000 0.000000 0.000000 0.482971 0.000000 0.000000
# 5 0.000000 0.000000 0.000000 0.000000 0.031139 0.000000
# 6 0.000000 0.000000 0.000000 0.000000 0.000000 0.028567
#
#
# Mechanical properties :
#
#
# Convention : Reuss Voigt Hill
#
# Bulk Modulus (GPa) = 31.55894 66.61156 49.08525
# Shear Modulus (GPa) = 7.83212 26.55236 17.19224
#
# Velocity S-wave (km/s) = 2.02251 3.72395 2.99653
# Velocity P-wave (km/s) = 4.68367 7.29934 6.13258
#
# Compressibility (1/GPa) = 0.03168674
#
# Stress axis : x y z
#
# Youngs Moduli (GPa) = 81.12793 28.19731 94.05887
#
# Poissons Ratio (x) = 0.12934 0.62340
# Poissons Ratio (y) = 0.37214 0.20250
# Poissons Ratio (z) = 0.53770 0.06071
#
# Static dielectric constant tensor:
#      x y z
#    x 1.659290 0.000000 0.000000 
#    y 0.000000 1.720290 0.000000 
#    z 0.000000 0.000000 1.658470 
# 
# From -- ./inp_files/7205.got.cif
#   From: 2010.05.17/outbox.cif.g08.bks.cpg/sg65_4_cif.got.tgz:7205.got - 2010.06.03 17:01:31.
