data_PCOD9486446
_publ_section_title
;
Structure prediction by ZEFSAII (Michael W. Deem and Ramdas Pophale) SiO2 
 PCOD9486446
Probable space group: C M M M
;
_chemical_formula_sum "Si O2"
_cell_formula_units_Z 104
_cell_length_a 33.391566
_cell_length_b 8.800840
_cell_length_c 21.202304
_cell_angle_alpha 90.000000
_cell_angle_beta 90.000000
_cell_angle_gamma 90.000000
_cell_volume 6230.802275
_symmetry_space_group_name_H-M "C M M M"
_symmetry_group_IT_number 65
_symmetry_cell_setting 'orthorhombic'
loop_
_space_group_symop_operation_xyz
x,y,z
-x,-y,z
x,-y,-z
-x,y,-z
-x,-y,-z
x,y,-z
-x,y,z
x,-y,z
1/2+x,1/2+y,z
1/2-x,1/2-y,z
1/2+x,1/2-y,-z
1/2-x,1/2+y,-z
1/2-x,1/2-y,-z
1/2+x,1/2+y,-z
1/2-x,1/2+y,z
1/2+x,1/2-y,z
loop_
_atom_site_type_symbol
_atom_site_label
_atom_site_fract_x
_atom_site_fract_y
_atom_site_fract_z
Si Si1 0.368531 0.681602 0.178073
Si Si2 0.341062 0.182057 0.373287
Si Si3 0.583867 0.681311 0.692947
Si Si4 0.577769 0.818811 0.926104
Si Si5 0.000000 0.181135 0.860463
Si Si6 0.206169 0.681451 0.754990
Si Si7 0.705250 0.816146 0.500000
Si Si8 0.000000 0.681186 0.280273
O O1 0.368215 0.500000 0.171061
O O2 0.397707 0.718410 0.237626
O O3 0.385672 0.760709 0.116181
O O4 0.325205 0.743399 0.197203
O O5 0.383141 0.260556 0.356737
O O6 0.311378 0.214739 0.314815
O O7 0.319579 0.229617 0.437783
O O8 0.347375 0.000000 0.375214
O O9 0.579868 0.500000 0.689152
O O10 0.540658 0.758357 0.687799
O O11 0.538787 0.736098 0.898417
O O12 0.572877 0.000000 0.918757
O O13 0.582632 0.785286 0.000000
O O14 0.000000 0.254438 0.791122
O O15 0.000000 0.000000 0.853511
O O16 0.206765 0.500000 0.762998
O O17 0.250000 0.750000 0.761582
O O18 0.750000 0.750000 0.500000
O O19 0.708288 0.000000 0.500000
O O20 0.000000 0.500000 0.278695
#
# Coordination Sequence:
#
# PCOD9486446 Si02
#       8
#    16  16  16  16   8  16   8   8
#     4  10  20  34  53  75 102 135 173 217 266 317
#     4   9  19  34  52  77 110 146 180 216 262 316
#     4  10  20  34  53  78 106 137 177 223 265 313
#     4  11  23  37  53  75 105 141 178 216 263 318
#     4  12  23  35  52  77 107 141 179 218 261 311
#     4  10  19  32  52  77 106 136 173 217 264 316
#     4  10  20  34  54  81 114 149 184 220 261 316
#     4  12  22  33  55  79 107 141 175 220 270 316
#
# _framework density 16.691269999999999
#
# number of rings (size 3 to 8) (size 9 to 14) (size 15 to 20)
#    0.000    1.692    1.538    3.923    0.000    4.615 
#    0.000    0.000    0.000    0.923    0.000    3.231 
#    0.000    0.000    0.000    0.000    0.000    0.000 
#
# Total GULP energy -290456.806491 kJ/mol
# GULP energy per Si atom -5585.707817 kJ/mol
# Density = 1.665328 g / cm^3
# Si number density = 16.691270 Si / 1000 Ang^3
#
#
#
# Elastic Constant Matrix: (Units=GPa)
#
#
# Indices 1 2 3 4 5 6 
#
# 1 164.4733 63.4769 67.3642 0.0000 0.0000 0.0000
# 2 63.4769 64.9599 41.6961 0.0000 0.0000 0.0000
# 3 67.3642 41.6961 97.6122 0.0000 0.0000 0.0000
# 4 0.0000 0.0000 0.0000 17.1656 0.0000 0.0000
# 5 0.0000 0.0000 0.0000 0.0000 18.9404 0.0000
# 6 0.0000 0.0000 0.0000 0.0000 0.0000 35.0627
#
#
#
# Elastic Compliance Matrix: (Units=1/GPa)
#
#
# Indices 1 2 3 4 5 6 
#
# 1 0.010817 -0.007962 -0.004064 0.000000 0.000000 0.000000
# 2 -0.007962 0.027069 -0.006068 0.000000 0.000000 0.000000
# 3 -0.004064 -0.006068 0.015642 0.000000 0.000000 0.000000
# 4 0.000000 0.000000 0.000000 0.058256 0.000000 0.000000
# 5 0.000000 0.000000 0.000000 0.000000 0.052797 0.000000
# 6 0.000000 0.000000 0.000000 0.000000 0.000000 0.028520
#
#
# Mechanical properties :
#
#
# Convention : Reuss Voigt Hill
#
# Bulk Modulus (GPa) = 57.67213 74.68000 66.17606
# Shear Modulus (GPa) = 21.27019 24.53426 22.90223
#
# Velocity S-wave (km/s) = 3.57365 3.83807 3.70822
# Velocity P-wave (km/s) = 7.18716 8.02995 7.62021
#
# Compressibility (1/GPa) = 0.01733940
#
# Stress axis : x y z
#
# Youngs Moduli (GPa) = 92.44356 36.94251 63.93140
#
# Poissons Ratio (x) = 0.29412 0.25985
# Poissons Ratio (y) = 0.73600 0.38796
# Poissons Ratio (z) = 0.37573 0.22418
#
# Static dielectric constant tensor:
#      x y z
#    x 1.550840 0.000000 0.000000 
#    y 0.000000 1.554810 0.000000 
#    z 0.000000 0.000000 1.546380 
# 
# From -- ./inp_files/66451.got.cif
#   From: 2010.05.17/outbox.cif.g08.bks.cpg/sg65_34_cif.got.tgz:66451.got - 2010.06.03 17:01:31.
