data_PCOD9486658
_publ_section_title
;
Structure prediction by ZEFSAII (Michael W. Deem and Ramdas Pophale) SiO2 
 PCOD9486658
Probable space group: C M M M
;
_chemical_formula_sum "Si O2"
_cell_formula_units_Z 104
_cell_length_a 19.823805
_cell_length_b 32.887143
_cell_length_c 9.444818
_cell_angle_alpha 90.000000
_cell_angle_beta 90.000000
_cell_angle_gamma 90.000000
_cell_volume 6157.533132
_symmetry_space_group_name_H-M "C M M M"
_symmetry_group_IT_number 65
_symmetry_cell_setting 'orthorhombic'
loop_
_space_group_symop_operation_xyz
x,y,z
-x,-y,z
x,-y,-z
-x,y,-z
-x,-y,-z
x,y,-z
-x,y,z
x,-y,z
1/2+x,1/2+y,z
1/2-x,1/2-y,z
1/2+x,1/2-y,-z
1/2-x,1/2+y,-z
1/2-x,1/2-y,-z
1/2+x,1/2+y,-z
1/2-x,1/2+y,z
1/2+x,1/2-y,z
loop_
_atom_site_type_symbol
_atom_site_label
_atom_site_fract_x
_atom_site_fract_y
_atom_site_fract_z
Si Si1 0.419821 0.809645 0.334007
Si Si2 0.326828 0.127791 0.167679
Si Si3 0.829732 0.851488 0.166030
Si Si4 0.698874 0.046876 0.664158
Si Si5 0.356798 0.569747 0.662304
Si Si6 0.078604 0.773454 0.166918
Si Si7 0.579463 0.500000 0.156886
O O1 0.401615 0.809371 0.500000
O O2 0.500000 0.817436 0.322858
O O3 0.378417 0.843400 0.249559
O O4 0.407601 0.765779 0.262502
O O5 0.251269 0.146677 0.185841
O O6 0.328370 0.082655 0.235805
O O7 0.340381 0.126113 0.000000
O O8 0.858184 0.886076 0.268079
O O9 0.867989 0.809296 0.194453
O O10 0.842080 0.861581 0.000000
O O11 0.677090 0.052675 0.500000
O O12 0.779737 0.053434 0.665714
O O13 0.684072 0.000000 0.704917
O O14 0.379137 0.570164 0.500000
O O15 0.398660 0.539221 0.756853
O O16 0.000000 0.786224 0.190340
O O17 0.084135 0.762546 0.000000
O O18 0.500000 0.500000 0.144222
O O19 0.610806 0.500000 0.000000
#
# Coordination Sequence:
#
# PCOD9486658 Si02
#       7
#    16  16  16  16  16  16   8
#     4  10  21  37  56  77 103 135 172 215 263 317
#     4  10  20  33  52  80 109 138 174 214 258 309
#     4   9  19  34  51  77 109 139 173 215 262 310
#     4   9  17  32  53  76 104 136 168 206 255 308
#     4  10  19  33  51  72  98 131 171 216 264 308
#     4   9  18  34  55  75 100 139 181 217 257 309
#     4  11  23  35  47  65  93 133 178 221 266 315
#
# _framework density 16.889880000000002
#
# number of rings (size 3 to 8) (size 9 to 14) (size 15 to 20)
#    0.000    2.385    0.769    1.615    0.000    4.923 
#    0.000    4.615    0.000    0.462    0.000    3.231 
#    0.000    0.000    0.000    0.000    0.000    0.000 
#
# Total GULP energy -289953.406940 kJ/mol
# GULP energy per Si atom -5576.027057 kJ/mol
# Density = 1.685144 g / cm^3
# Si number density = 16.889880 Si / 1000 Ang^3
#
#
#
# Elastic Constant Matrix: (Units=GPa)
#
#
# Indices 1 2 3 4 5 6 
#
# 1 41.4458 61.6633 63.6471 0.0000 0.0000 0.0000
# 2 61.6633 143.6644 106.2215 0.0000 0.0000 0.0000
# 3 63.6471 106.2215 145.7757 0.0000 0.0000 0.0000
# 4 0.0000 0.0000 0.0000 30.3413 0.0000 0.0000
# 5 0.0000 0.0000 0.0000 0.0000 23.5600 0.0000
# 6 0.0000 0.0000 0.0000 0.0000 0.0000 38.2263
#
#
#
# Elastic Compliance Matrix: (Units=1/GPa)
#
#
# Indices 1 2 3 4 5 6 
#
# 1 0.098709 -0.022770 -0.026506 0.000000 0.000000 0.000000
# 2 -0.022770 0.020344 -0.004882 0.000000 0.000000 0.000000
# 3 -0.026506 -0.004882 0.021990 0.000000 0.000000 0.000000
# 4 0.000000 0.000000 0.000000 0.032958 0.000000 0.000000
# 5 0.000000 0.000000 0.000000 0.000000 0.042445 0.000000
# 6 0.000000 0.000000 0.000000 0.000000 0.000000 0.026160
#
#
# Mechanical properties :
#
#
# Convention : Reuss Voigt Hill
#
# Bulk Modulus (GPa) = 30.55570 88.21663 59.38617
# Shear Modulus (GPa) = 13.81862 25.04913 19.43388
#
# Velocity S-wave (km/s) = 2.86345 3.85526 3.39576
# Velocity P-wave (km/s) = 5.39100 8.49478 7.11422
#
# Compressibility (1/GPa) = 0.03272712
#
# Stress axis : x y z
#
# Youngs Moduli (GPa) = 10.13075 49.15539 45.47568
#
# Poissons Ratio (x) = 1.11928 1.20536
# Poissons Ratio (y) = 0.23068 0.22201
# Poissons Ratio (z) = 0.26852 0.23998
#
# Static dielectric constant tensor:
#      x y z
#    x 1.559210 0.000000 0.000000 
#    y 0.000000 1.547290 0.000000 
#    z 0.000000 0.000000 1.571180 
# 
# From -- ./inp_files/12731.got.cif
#   From: 2010.05.17/outbox.cif.g08.bks.cpg/sg65_7_cif.got.tgz:12731.got - 2010.06.03 17:01:31.
