data_PCOD9486356
_publ_section_title
;
Structure prediction by ZEFSAII (Michael W. Deem and Ramdas Pophale) SiO2 
 PCOD9486356
Probable space group: C M M M
;
_chemical_formula_sum "Si O2"
_cell_formula_units_Z 58
_cell_length_a 10.693859
_cell_length_b 14.730045
_cell_length_c 17.214209
_cell_angle_alpha 90.000000
_cell_angle_beta 90.000000
_cell_angle_gamma 90.000000
_cell_volume 2711.599834
_symmetry_space_group_name_H-M "C M M M"
_symmetry_group_IT_number 65
_symmetry_cell_setting 'orthorhombic'
loop_
_space_group_symop_operation_xyz
x,y,z
-x,-y,z
x,-y,-z
-x,y,-z
-x,-y,-z
x,y,-z
-x,y,z
x,-y,z
1/2+x,1/2+y,z
1/2-x,1/2-y,z
1/2+x,1/2-y,-z
1/2-x,1/2+y,-z
1/2-x,1/2-y,-z
1/2+x,1/2+y,-z
1/2-x,1/2+y,z
1/2+x,1/2-y,z
loop_
_atom_site_type_symbol
_atom_site_label
_atom_site_fract_x
_atom_site_fract_y
_atom_site_fract_z
Si Si1 0.739895 0.398584 0.500000
Si Si2 0.357284 0.609674 0.336540
Si Si3 0.000000 0.138791 0.910339
Si Si4 0.000000 0.500000 0.500000
Si Si5 0.000000 0.638996 0.909440
Si Si6 0.249401 0.143024 0.826934
O O1 0.678398 0.500000 0.500000
O O2 0.693723 0.356303 0.419434
O O3 0.887193 0.421959 0.500000
O O4 0.500000 0.641748 0.322372
O O5 0.359636 0.500000 0.338351
O O6 0.267260 0.632923 0.265063
O O7 0.875672 0.106257 0.867138
O O8 0.000000 0.249842 0.907874
O O9 0.000000 0.112529 0.000000
O O10 0.876303 0.607288 0.864478
O O11 0.000000 0.612947 0.000000
O O12 0.250000 0.250000 0.843922
#
# Coordination Sequence:
#
# PCOD9486356 Si02
#       6
#     8  16   8   2   8  16
#     4   8  17  32  53  76 102 137 171 215 247 305
#     4  10  19  34  56  78 103 135 179 217 259 311
#     4   9  16  30  52  73 101 137 179 223 255 308
#     4   8  16  32  50  76 108 124 178 218 254 300
#     4   9  18  31  50  76 101 138 181 218 266 309
#     4  10  19  32  51  79 109 136 174 222 266 313
#
# _framework density 21.389586999999999
#
# number of rings (size 3 to 8) (size 9 to 14) (size 15 to 20)
#    0.414    2.207    1.379    1.241    0.000    6.069 
#    0.000    0.690    0.000    4.966    0.000    0.000 
#    0.000    0.000    0.000    0.000    0.000    0.000 
#
# Total GULP energy -161492.565205 kJ/mol
# GULP energy per Si atom -5568.709145 kJ/mol
# Density = 2.134090 g / cm^3
# Si number density = 21.389587 Si / 1000 Ang^3
#
#
#
# Elastic Constant Matrix: (Units=GPa)
#
#
# Indices 1 2 3 4 5 6 
#
# 1 195.7628 8.8839 115.6866 0.0000 0.0000 0.0000
# 2 8.8839 53.0532 -9.6760 0.0000 0.0000 0.0000
# 3 115.6866 -9.6760 198.1493 0.0000 0.0000 0.0000
# 4 0.0000 0.0000 0.0000 19.1151 0.0000 0.0000
# 5 0.0000 0.0000 0.0000 0.0000 23.9033 0.0000
# 6 0.0000 0.0000 0.0000 0.0000 0.0000 -6.1311
#
#
#
# Elastic Compliance Matrix: (Units=1/GPa)
#
#
# Indices 1 2 3 4 5 6 
#
# 1 0.008051 -0.002225 -0.004809 0.000000 0.000000 0.000000
# 2 -0.002225 0.019633 0.002258 0.000000 0.000000 0.000000
# 3 -0.004809 0.002258 0.007965 0.000000 0.000000 0.000000
# 4 0.000000 0.000000 0.000000 0.052315 0.000000 0.000000
# 5 0.000000 0.000000 0.000000 0.000000 0.041835 0.000000
# 6 0.000000 0.000000 0.000000 0.000000 0.000000 -0.163104
#
#
# Mechanical properties :
#
#
# Convention : Reuss Voigt Hill
#
# Bulk Modulus (GPa) = 38.31973 75.19490 56.75732
# Shear Modulus (GPa) = -332.16900 29.51552 -151.32674
#
# Velocity S-wave (km/s) = -12.47525 3.71873 -8.42030
# Velocity P-wave (km/s) = 13.76790 7.32597 8.24273
#
# Compressibility (1/GPa) = 0.02609622
#
# Stress axis : x y z
#
# Youngs Moduli (GPa) = 124.20406 50.93349 125.55257
#
# Poissons Ratio (x) = 0.11334 0.60382
# Poissons Ratio (y) = 0.27640 -0.28349
# Poissons Ratio (z) = 0.59733 -0.11501
#
# Static dielectric constant tensor:
#      x y z
#    x 1.758440 0.000000 0.000000 
#    y 0.000000 1.830220 0.000000 
#    z 0.000000 0.000000 1.768680 
# 
# From -- ./inp_files/41865.got.cif
#   From: 2010.05.17/outbox.cif.g08.bks.cpg/sg65_21_cif.got.tgz:41865.got - 2010.06.03 17:01:31.
