data_PCOD9486730
_publ_section_title
;
Structure prediction by ZEFSAII (Michael W. Deem and Ramdas Pophale) SiO2 
 PCOD9486730
Probable space group: C M M M
;
_chemical_formula_sum "Si O2"
_cell_formula_units_Z 80
_cell_length_a 7.385680
_cell_length_b 16.165139
_cell_length_c 30.168200
_cell_angle_alpha 90.000000
_cell_angle_beta 90.000000
_cell_angle_gamma 90.000000
_cell_volume 3601.797804
_symmetry_space_group_name_H-M "C M M M"
_symmetry_group_IT_number 65
_symmetry_cell_setting 'orthorhombic'
loop_
_space_group_symop_operation_xyz
x,y,z
-x,-y,z
x,-y,-z
-x,y,-z
-x,-y,-z
x,y,-z
-x,y,z
x,-y,z
1/2+x,1/2+y,z
1/2-x,1/2-y,z
1/2+x,1/2-y,-z
1/2-x,1/2+y,-z
1/2-x,1/2-y,-z
1/2+x,1/2+y,-z
1/2-x,1/2+y,z
1/2+x,1/2-y,z
loop_
_atom_site_type_symbol
_atom_site_label
_atom_site_fract_x
_atom_site_fract_y
_atom_site_fract_z
Si Si1 0.221772 0.500000 0.709617
Si Si2 0.783797 0.343562 0.449429
Si Si3 0.721676 0.000000 0.607559
Si Si4 0.215861 0.658313 0.234749
Si Si5 0.716327 0.151780 0.047982
Si Si6 0.719557 0.905250 0.856915
O O1 0.278432 0.500000 0.658585
O O2 0.282066 0.417370 0.735275
O O3 0.000000 0.500000 0.710008
O O4 0.713399 0.349979 0.500000
O O5 0.750000 0.250000 0.433358
O O6 0.718143 0.417525 0.418345
O O7 0.000000 0.353074 0.451876
O O8 0.500000 0.000000 0.607515
O O9 0.250000 0.750000 0.252311
O O10 0.285017 0.649586 0.184150
O O11 0.000000 0.647967 0.232285
O O12 0.500000 0.137482 0.047598
O O13 0.750000 0.250000 0.049451
O O14 0.787690 0.115485 0.093954
O O15 0.785509 0.121362 0.000000
O O16 0.500000 0.897456 0.859043
O O17 0.760529 0.000000 0.845845
#
# Coordination Sequence:
#
# PCOD9486730 Si02
#       6
#     8  16   8  16  16  16
#     4   9  18  33  51  72  97 128 165 199 238 292
#     4   9  17  30  49  73 100 130 165 203 241 283
#     4   9  17  30  50  72  96 129 168 203 236 284
#     4  10  19  33  53  73  94 124 160 198 241 287
#     4   9  17  28  43  64  89 116 147 184 226 273
#     4   9  16  28  47  68  90 117 152 192 230 275
#
# _framework density 22.211130000000001
#
# number of rings (size 3 to 8) (size 9 to 14) (size 15 to 20)
#    0.000    2.800    1.000    0.900    0.000    2.400 
#    0.000    3.000    0.000    5.400    0.000    2.800 
#    0.000    0.000    0.000    0.000    0.000    0.000 
#
# Total GULP energy -223291.589364 kJ/mol
# GULP energy per Si atom -5582.289734 kJ/mol
# Density = 2.216058 g / cm^3
# Si number density = 22.211130 Si / 1000 Ang^3
#
#
#
# Elastic Constant Matrix: (Units=GPa)
#
#
# Indices 1 2 3 4 5 6 
#
# 1 79.1697 -3.3502 9.5997 0.0000 0.0000 0.0000
# 2 -3.3502 170.7120 111.2282 0.0000 0.0000 0.0000
# 3 9.5997 111.2282 163.4295 0.0000 0.0000 0.0000
# 4 0.0000 0.0000 0.0000 -10.9837 0.0000 0.0000
# 5 0.0000 0.0000 0.0000 0.0000 -9.8582 0.0000
# 6 0.0000 0.0000 0.0000 0.0000 0.0000 15.4751
#
#
#
# Elastic Compliance Matrix: (Units=1/GPa)
#
#
# Indices 1 2 3 4 5 6 
#
# 1 0.012890 0.001341 -0.001670 0.000000 0.000000 0.000000
# 2 0.001341 0.010665 -0.007337 0.000000 0.000000 0.000000
# 3 -0.001670 -0.007337 0.011210 0.000000 0.000000 0.000000
# 4 0.000000 0.000000 0.000000 -0.091044 0.000000 0.000000
# 5 0.000000 0.000000 0.000000 0.000000 -0.101438 0.000000
# 6 0.000000 0.000000 0.000000 0.000000 0.000000 0.064620
#
#
# Mechanical properties :
#
#
# Convention : Reuss Voigt Hill
#
# Bulk Modulus (GPa) = 51.45722 72.02966 61.74344
# Shear Modulus (GPa) = -70.13836 18.64887 -25.74475
#
# Velocity S-wave (km/s) = -5.62553 2.90076 -3.40824
# Velocity P-wave (km/s) = 4.35636 6.61205 3.51719
#
# Compressibility (1/GPa) = 0.01943362
#
# Stress axis : x y z
#
# Youngs Moduli (GPa) = 77.57772 93.76860 89.20322
#
# Poissons Ratio (x) = -0.12574 0.14895
# Poissons Ratio (y) = -0.10403 0.65448
# Poissons Ratio (z) = 0.12954 0.68797
#
# Static dielectric constant tensor:
#      x y z
#    x 1.848380 0.000000 0.000000 
#    y 0.000000 1.782000 0.000000 
#    z 0.000000 0.000000 1.808560 
# 
# From -- ./inp_files/77212.got.cif
#   From: 2010.05.17/outbox.cif.g08.bks.cpg/sg65_39_cif.got.tgz:77212.got - 2010.06.03 17:01:31.
