data_PCOD9486162
_publ_section_title
;
Structure prediction by ZEFSAII (Michael W. Deem and Ramdas Pophale) SiO2 
 PCOD9486162
Probable space group: C M M M
;
_chemical_formula_sum "Si O2"
_cell_formula_units_Z 64
_cell_length_a 34.902347
_cell_length_b 9.377992
_cell_length_c 12.549853
_cell_angle_alpha 90.000000
_cell_angle_beta 90.000000
_cell_angle_gamma 90.000000
_cell_volume 4107.741718
_symmetry_space_group_name_H-M "C M M M"
_symmetry_group_IT_number 65
_symmetry_cell_setting 'orthorhombic'
loop_
_space_group_symop_operation_xyz
x,y,z
-x,-y,z
x,-y,-z
-x,y,-z
-x,-y,-z
x,y,-z
-x,y,z
x,-y,z
1/2+x,1/2+y,z
1/2-x,1/2-y,z
1/2+x,1/2-y,-z
1/2-x,1/2+y,-z
1/2-x,1/2-y,-z
1/2+x,1/2+y,-z
1/2-x,1/2+y,z
1/2+x,1/2-y,z
loop_
_atom_site_type_symbol
_atom_site_label
_atom_site_fract_x
_atom_site_fract_y
_atom_site_fract_z
Si Si1 0.000000 0.835717 0.870306
Si Si2 0.290296 0.169926 0.000000
Si Si3 0.924168 0.669043 0.126767
Si Si4 0.159547 0.329223 0.789880
Si Si5 0.710704 0.667548 0.627090
O O1 0.038743 0.755968 0.836614
O O2 0.000000 0.000000 0.837506
O O3 0.000000 0.830855 0.000000
O O4 0.250000 0.250000 0.000000
O O5 0.315258 0.203290 0.895131
O O6 0.283491 0.000000 0.000000
O O7 0.931314 0.500000 0.139003
O O8 0.884661 0.704901 0.185412
O O9 0.918453 0.694560 0.000000
O O10 0.162372 0.500000 0.771094
O O11 0.177045 0.241251 0.692980
O O12 0.704862 0.680980 0.500000
O O13 0.714264 0.500000 0.652771
O O14 0.750000 0.750000 0.654284
#
# Coordination Sequence:
#
# PCOD9486162 Si02
#       5
#     8   8  16  16  16
#     4   9  17  27  41  65  96 127 160 197 231 271
#     4  10  20  32  44  65  96 127 157 190 231 282
#     4   9  16  29  47  67  94 129 161 191 230 281
#     4  10  19  32  50  71  97 126 160 198 237 284
#     4  10  21  36  52  70  93 123 162 206 247 285
#
# _framework density 15.580337
#
# number of rings (size 3 to 8) (size 9 to 14) (size 15 to 20)
#    0.000    2.375    1.250    1.875    0.000    7.000 
#    0.000    0.000    0.000    0.000    0.000    0.875 
#    0.000    7.000    0.000    0.000    0.000    0.000 
#
# Total GULP energy -178490.074364 kJ/mol
# GULP energy per Si atom -5577.814824 kJ/mol
# Density = 1.554488 g / cm^3
# Si number density = 15.580337 Si / 1000 Ang^3
#
#
#
# Elastic Constant Matrix: (Units=GPa)
#
#
# Indices 1 2 3 4 5 6 
#
# 1 169.0860 91.2446 47.8406 0.0000 0.0000 0.0000
# 2 91.2446 80.0371 43.7332 0.0000 0.0000 0.0000
# 3 47.8406 43.7332 35.5079 0.0000 0.0000 0.0000
# 4 0.0000 0.0000 0.0000 23.4507 0.0000 0.0000
# 5 0.0000 0.0000 0.0000 0.0000 18.0431 0.0000
# 6 0.0000 0.0000 0.0000 0.0000 0.0000 30.0795
#
#
#
# Elastic Compliance Matrix: (Units=1/GPa)
#
#
# Indices 1 2 3 4 5 6 
#
# 1 0.015453 -0.019083 0.002684 0.000000 0.000000 0.000000
# 2 -0.019083 0.061773 -0.050372 0.000000 0.000000 0.000000
# 3 0.002684 -0.050372 0.086587 0.000000 0.000000 0.000000
# 4 0.000000 0.000000 0.000000 0.042643 0.000000 0.000000
# 5 0.000000 0.000000 0.000000 0.000000 0.055423 0.000000
# 6 0.000000 0.000000 0.000000 0.000000 0.000000 0.033245
#
#
# Mechanical properties :
#
#
# Convention : Reuss Voigt Hill
#
# Bulk Modulus (GPa) = 33.03504 72.25200 52.64352
# Shear Modulus (GPa) = 11.39589 21.10216 16.24903
#
# Velocity S-wave (km/s) = 2.70743 3.68422 3.23293
# Velocity P-wave (km/s) = 5.56979 8.03570 6.91358
#
# Compressibility (1/GPa) = 0.03027089
#
# Stress axis : x y z
#
# Youngs Moduli (GPa) = 64.71434 16.18839 11.54907
#
# Poissons Ratio (x) = 0.30892 -0.03099
# Poissons Ratio (y) = 1.23492 0.58175
# Poissons Ratio (z) = -0.17367 0.81544
#
# Static dielectric constant tensor:
#      x y z
#    x 1.503340 0.000000 0.000000 
#    y 0.000000 1.517050 0.000000 
#    z 0.000000 0.000000 1.503940 
# 
# From -- ./inp_files/21020.got.cif
#   From: 2010.05.17/outbox.cif.g08.bks.cpg/sg65_11_cif.got.tgz:21020.got - 2010.06.03 17:01:31.
