data_PCOD9486675
_publ_section_title
;
Structure prediction by ZEFSAII (Michael W. Deem and Ramdas Pophale) SiO2 
 PCOD9486675
Probable space group: C M M M
;
_chemical_formula_sum "Si O2"
_cell_formula_units_Z 120
_cell_length_a 23.597222
_cell_length_b 14.073778
_cell_length_c 20.675703
_cell_angle_alpha 90.000000
_cell_angle_beta 90.000000
_cell_angle_gamma 90.000000
_cell_volume 6866.443638
_symmetry_space_group_name_H-M "C M M M"
_symmetry_group_IT_number 65
_symmetry_cell_setting 'orthorhombic'
loop_
_space_group_symop_operation_xyz
x,y,z
-x,-y,z
x,-y,-z
-x,y,-z
-x,-y,-z
x,y,-z
-x,y,z
x,-y,z
1/2+x,1/2+y,z
1/2-x,1/2-y,z
1/2+x,1/2-y,-z
1/2-x,1/2+y,-z
1/2-x,1/2-y,-z
1/2+x,1/2+y,-z
1/2-x,1/2+y,z
1/2+x,1/2-y,z
loop_
_atom_site_type_symbol
_atom_site_label
_atom_site_fract_x
_atom_site_fract_y
_atom_site_fract_z
Si Si1 0.563040 0.297176 0.306365
Si Si2 0.820472 0.885463 0.661732
Si Si3 0.218993 0.384089 0.573320
Si Si4 0.379983 0.108678 0.326676
Si Si5 0.158812 0.609095 0.821996
Si Si6 0.285793 0.614498 0.194293
Si Si7 0.900584 0.205213 0.843281
Si Si8 0.000000 0.888355 0.077199
O O1 0.500000 0.330803 0.321970
O O2 0.615239 0.349897 0.340652
O O3 0.570946 0.186298 0.323780
O O4 0.574037 0.307334 0.229236
O O5 0.778178 0.853097 0.605497
O O6 0.794889 0.853803 0.731158
O O7 0.820767 0.000000 0.661949
O O8 0.211583 0.351069 0.500000
O O9 0.220639 0.500000 0.572176
O O10 0.167005 0.361764 0.620872
O O11 0.351197 0.110457 0.255643
O O12 0.397833 0.000000 0.339169
O O13 0.151774 0.500000 0.843449
O O14 0.223800 0.641502 0.831268
O O15 0.115017 0.683902 0.851533
O O16 0.286472 0.500000 0.194728
O O17 0.340155 0.651959 0.156237
O O18 0.944965 0.162338 0.892878
O O19 0.000000 0.000000 0.095600
O O20 0.000000 0.881907 0.000000
#
# Coordination Sequence:
#
# PCOD9486675 Si02
#       8
#    16  16  16  16  16  16  16   8
#     4  10  20  32  47  72  98 128 166 209 254 300
#     4   9  17  29  45  69 100 131 163 208 263 311
#     4   9  16  29  50  73  98 130 170 213 261 320
#     4   9  17  30  47  69 100 131 165 212 264 311
#     4   9  16  28  50  78 110 139 165 210 269 319
#     4   9  15  26  48  77 108 136 163 210 270 319
#     4  10  19  33  51  79 106 134 175 211 250 300
#     4  11  24  42  61  79 107 143 175 210 244 284
#
# _framework density 17.476296000000001
#
# number of rings (size 3 to 8) (size 9 to 14) (size 15 to 20)
#    0.000    2.600    2.000    0.800    0.000    1.600 
#    0.000    1.667    0.000    4.000    0.000    5.600 
#    0.000    0.000    0.000    0.000    0.000    0.000 
#
# Total GULP energy -334608.292315 kJ/mol
# GULP energy per Si atom -5576.804872 kJ/mol
# Density = 1.743652 g / cm^3
# Si number density = 17.476296 Si / 1000 Ang^3
#
#
#
# Elastic Constant Matrix: (Units=GPa)
#
#
# Indices 1 2 3 4 5 6 
#
# 1 101.2099 38.0736 37.5474 0.0000 0.0000 0.0000
# 2 38.0736 65.1824 30.9804 0.0000 0.0000 0.0000
# 3 37.5474 30.9804 52.5604 0.0000 0.0000 0.0000
# 4 0.0000 0.0000 0.0000 15.1201 0.0000 0.0000
# 5 0.0000 0.0000 0.0000 0.0000 17.4506 0.0000
# 6 0.0000 0.0000 0.0000 0.0000 0.0000 22.3084
#
#
#
# Elastic Compliance Matrix: (Units=1/GPa)
#
#
# Indices 1 2 3 4 5 6 
#
# 1 0.014499 -0.004926 -0.007454 0.000000 0.000000 0.000000
# 2 -0.004926 0.022986 -0.010029 0.000000 0.000000 0.000000
# 3 -0.007454 -0.010029 0.030262 0.000000 0.000000 0.000000
# 4 0.000000 0.000000 0.000000 0.066137 0.000000 0.000000
# 5 0.000000 0.000000 0.000000 0.000000 0.057305 0.000000
# 6 0.000000 0.000000 0.000000 0.000000 0.000000 0.044826
#
#
# Mechanical properties :
#
#
# Convention : Reuss Voigt Hill
#
# Bulk Modulus (GPa) = 43.61484 48.01728 45.81606
# Shear Modulus (GPa) = 17.33246 18.46591 17.89919
#
# Velocity S-wave (km/s) = 3.15265 3.25411 3.20378
# Velocity P-wave (km/s) = 6.18571 6.45401 6.32129
#
# Compressibility (1/GPa) = 0.02292798
#
# Stress axis : x y z
#
# Youngs Moduli (GPa) = 68.97064 43.50520 33.04466
#
# Poissons Ratio (x) = 0.21431 0.24631
# Poissons Ratio (y) = 0.33976 0.33141
# Poissons Ratio (z) = 0.51410 0.43633
#
# Static dielectric constant tensor:
#      x y z
#    x 1.581450 0.000000 0.000000 
#    y 0.000000 1.655670 0.000000 
#    z 0.000000 0.000000 1.564950 
# 
# From -- ./inp_files/64751.got.cif
#   From: 2010.05.17/outbox.cif.g08.bks.cpg/sg65_33_cif.got.tgz:64751.got - 2010.06.03 17:01:31.
