data_PCOD9486689
_publ_section_title
;
Structure prediction by ZEFSAII (Michael W. Deem and Ramdas Pophale) SiO2 
 PCOD9486689
Probable space group: C M M M
;
_chemical_formula_sum "Si O2"
_cell_formula_units_Z 104
_cell_length_a 23.571707
_cell_length_b 19.020954
_cell_length_c 13.727876
_cell_angle_alpha 90.000000
_cell_angle_beta 90.000000
_cell_angle_gamma 90.000000
_cell_volume 6154.980439
_symmetry_space_group_name_H-M "C M M M"
_symmetry_group_IT_number 65
_symmetry_cell_setting 'orthorhombic'
loop_
_space_group_symop_operation_xyz
x,y,z
-x,-y,z
x,-y,-z
-x,y,-z
-x,-y,-z
x,y,-z
-x,y,z
x,-y,z
1/2+x,1/2+y,z
1/2-x,1/2-y,z
1/2+x,1/2-y,-z
1/2-x,1/2+y,-z
1/2-x,1/2-y,-z
1/2+x,1/2+y,-z
1/2-x,1/2+y,z
1/2+x,1/2-y,z
loop_
_atom_site_type_symbol
_atom_site_label
_atom_site_fract_x
_atom_site_fract_y
_atom_site_fract_z
Si Si1 0.560448 0.417086 0.117912
Si Si2 0.186518 0.915774 0.883987
Si Si3 0.064256 0.672769 0.618369
Si Si4 0.767406 0.168587 0.285715
Si Si5 0.000000 0.081126 0.381469
Si Si6 0.831353 0.580114 0.382543
Si Si7 0.390797 0.672280 0.382062
O O1 0.500000 0.386678 0.152374
O O2 0.560387 0.500000 0.141703
O O3 0.622601 0.390682 0.144472
O O4 0.559677 0.413234 0.000000
O O5 0.227980 0.870362 0.818073
O O6 0.190754 0.000000 0.864677
O O7 0.193924 0.906587 0.000000
O O8 0.062629 0.671179 0.500000
O O9 0.109305 0.614497 0.650289
O O10 0.087314 0.749834 0.644587
O O11 0.000000 0.662421 0.653088
O O12 0.750000 0.250000 0.277562
O O13 0.719859 0.128318 0.347220
O O14 0.828633 0.160983 0.337961
O O15 0.941172 0.118812 0.351992
O O16 0.000000 0.084249 0.500000
O O17 0.000000 0.000000 0.352246
O O18 0.831520 0.579948 0.500000
O O19 0.825001 0.500000 0.348782
O O20 0.386215 0.668727 0.500000
#
# Coordination Sequence:
#
# PCOD9486689 Si02
#       7
#    16  16  16  16   8  16  16
#     4   7  10  21  44  69  90 115 149 193 247 299
#     4   9  19  36  54  72  99 133 171 219 268 312
#     4   9  16  30  53  75  98 134 175 214 260 311
#     4  12  23  34  52  76 105 142 181 214 259 317
#     4   9  18  32  50  74 106 144 184 221 252 292
#     4  10  21  35  52  78 108 135 172 222 265 307
#     4  10  19  33  52  73 103 144 182 214 251 303
#
# _framework density 16.896885999999999
#
# number of rings (size 3 to 8) (size 9 to 14) (size 15 to 20)
#    0.000    2.538    2.308    2.308    0.000    2.462 
#    1.385    3.077    0.000    0.000    0.000    0.000 
#    0.000    0.615    0.000    3.231    0.000    0.154 
#
# Total GULP energy -289840.546664 kJ/mol
# GULP energy per Si atom -5573.856667 kJ/mol
# Density = 1.685843 g / cm^3
# Si number density = 16.896886 Si / 1000 Ang^3
#
#
#
# Elastic Constant Matrix: (Units=GPa)
#
#
# Indices 1 2 3 4 5 6 
#
# 1 127.5711 61.4357 28.4409 0.0000 0.0000 0.0000
# 2 61.4357 116.2762 27.1202 0.0000 0.0000 0.0000
# 3 28.4409 27.1202 42.8074 0.0000 0.0000 0.0000
# 4 0.0000 0.0000 0.0000 15.9676 0.0000 0.0000
# 5 0.0000 0.0000 0.0000 0.0000 10.8135 0.0000
# 6 0.0000 0.0000 0.0000 0.0000 0.0000 20.7170
#
#
#
# Elastic Compliance Matrix: (Units=1/GPa)
#
#
# Indices 1 2 3 4 5 6 
#
# 1 0.011154 -0.004887 -0.004315 0.000000 0.000000 0.000000
# 2 -0.004887 0.012233 -0.004503 0.000000 0.000000 0.000000
# 3 -0.004315 -0.004503 0.029080 0.000000 0.000000 0.000000
# 4 0.000000 0.000000 0.000000 0.062627 0.000000 0.000000
# 5 0.000000 0.000000 0.000000 0.000000 0.092477 0.000000
# 6 0.000000 0.000000 0.000000 0.000000 0.000000 0.048270
#
#
# Mechanical properties :
#
#
# Convention : Reuss Voigt Hill
#
# Bulk Modulus (GPa) = 39.90833 57.84980 48.87906
# Shear Modulus (GPa) = 17.14669 20.81014 18.97842
#
# Velocity S-wave (km/s) = 3.18902 3.51322 3.35504
# Velocity P-wave (km/s) = 6.10163 7.12518 6.63318
#
# Compressibility (1/GPa) = 0.02505743
#
# Stress axis : x y z
#
# Youngs Moduli (GPa) = 89.65227 81.74862 34.38817
#
# Poissons Ratio (x) = 0.39951 0.14837
# Poissons Ratio (y) = 0.43814 0.15485
# Poissons Ratio (z) = 0.38681 0.36810
#
# Static dielectric constant tensor:
#      x y z
#    x 1.588730 0.000000 0.000000 
#    y 0.000000 1.554690 0.000000 
#    z 0.000000 0.000000 1.584550 
# 
# From -- ./inp_files/44434.got.cif
#   From: 2010.05.17/outbox.cif.g08.bks.cpg/sg65_23_cif.got.tgz:44434.got - 2010.06.03 17:01:31.
