data_PCOD9486335
_publ_section_title
;
Structure prediction by ZEFSAII (Michael W. Deem and Ramdas Pophale) SiO2 
 PCOD9486335
Probable space group: C M M M
;
_chemical_formula_sum "Si O2"
_cell_formula_units_Z 96
_cell_length_a 25.609982
_cell_length_b 8.280028
_cell_length_c 22.703232
_cell_angle_alpha 90.000000
_cell_angle_beta 90.000000
_cell_angle_gamma 90.000000
_cell_volume 4814.251405
_symmetry_space_group_name_H-M "C M M M"
_symmetry_group_IT_number 65
_symmetry_cell_setting 'orthorhombic'
loop_
_space_group_symop_operation_xyz
x,y,z
-x,-y,z
x,-y,-z
-x,y,-z
-x,-y,-z
x,y,-z
-x,y,z
x,-y,z
1/2+x,1/2+y,z
1/2-x,1/2-y,z
1/2+x,1/2-y,-z
1/2-x,1/2+y,-z
1/2-x,1/2-y,-z
1/2+x,1/2+y,-z
1/2-x,1/2+y,z
1/2+x,1/2-y,z
loop_
_atom_site_type_symbol
_atom_site_label
_atom_site_fract_x
_atom_site_fract_y
_atom_site_fract_z
Si Si1 0.192162 0.695128 0.932281
Si Si2 0.000000 0.807580 0.204567
Si Si3 0.582575 0.697281 0.435852
Si Si4 0.611892 0.807697 0.166207
Si Si5 0.500000 0.302453 0.660294
Si Si6 0.806544 0.806539 0.260925
Si Si7 0.805461 0.805921 0.602594
O O1 0.191825 0.500000 0.931533
O O2 0.250000 0.750000 0.913193
O O3 0.146335 0.753325 0.889156
O O4 0.184731 0.748835 0.000000
O O5 0.946730 0.755625 0.172796
O O6 0.000000 0.744775 0.272482
O O7 0.000000 0.000000 0.207956
O O8 0.562082 0.747382 0.500000
O O9 0.581244 0.500000 0.435120
O O10 0.549418 0.748508 0.379259
O O11 0.642458 0.749146 0.429626
O O12 0.645985 0.761091 0.223219
O O13 0.609152 0.000000 0.161813
O O14 0.500000 0.500000 0.662356
O O15 0.750000 0.750000 0.237809
O O16 0.809428 0.752775 0.329038
O O17 0.808750 0.000000 0.259370
O O18 0.750000 0.750000 0.578412
O O19 0.805553 0.000000 0.602125
#
# Coordination Sequence:
#
# PCOD9486335 Si02
#       7
#    16   8  16  16   8  16  16
#     4   9  19  36  58  84 113 144 176 213 258 305
#     4  11  23  38  56  77 106 143 180 219 266 318
#     4   9  16  27  46  71  96 123 160 207 256 307
#     4  11  22  36  55  80 109 140 179 222 264 314
#     4   9  17  31  50  72  97 126 162 209 264 314
#     4  10  19  32  51  76 107 140 175 217 266 318
#     4   9  18  31  46  68  99 133 167 204 251 308
#
# _framework density 19.940795000000001
#
# number of rings (size 3 to 8) (size 9 to 14) (size 15 to 20)
#    0.000    2.333    0.000    3.000    0.000    7.333 
#    0.000    0.417    0.000    2.500    0.000    0.000 
#    0.000    5.333    0.000    0.000    0.000    0.000 
#
# Total GULP energy -267943.906585 kJ/mol
# GULP energy per Si atom -5582.164721 kJ/mol
# Density = 1.989541 g / cm^3
# Si number density = 19.940795 Si / 1000 Ang^3
#
#
#
# Elastic Constant Matrix: (Units=GPa)
#
#
# Indices 1 2 3 4 5 6 
#
# 1 186.2517 19.4253 75.9456 0.0000 0.0000 0.0000
# 2 19.4253 14.5230 15.0419 0.0000 0.0000 0.0000
# 3 75.9456 15.0419 106.9315 0.0000 0.0000 0.0000
# 4 0.0000 0.0000 0.0000 9.8440 0.0000 0.0000
# 5 0.0000 0.0000 0.0000 0.0000 31.8595 0.0000
# 6 0.0000 0.0000 0.0000 0.0000 0.0000 32.4864
#
#
#
# Elastic Compliance Matrix: (Units=1/GPa)
#
#
# Indices 1 2 3 4 5 6 
#
# 1 0.007927 -0.005585 -0.004844 0.000000 0.000000 0.000000
# 2 -0.005585 0.084535 -0.007925 0.000000 0.000000 0.000000
# 3 -0.004844 -0.007925 0.013907 0.000000 0.000000 0.000000
# 4 0.000000 0.000000 0.000000 0.101584 0.000000 0.000000
# 5 0.000000 0.000000 0.000000 0.000000 0.031388 0.000000
# 6 0.000000 0.000000 0.000000 0.000000 0.000000 0.030782
#
#
# Mechanical properties :
#
#
# Convention : Reuss Voigt Hill
#
# Bulk Modulus (GPa) = 14.35536 58.72574 36.54055
# Shear Modulus (GPa) = 15.14917 27.99087 21.57002
#
# Velocity S-wave (km/s) = 2.75927 3.75066 3.29249
# Velocity P-wave (km/s) = 4.16726 6.94770 5.72873
#
# Compressibility (1/GPa) = 0.06966039
#
# Stress axis : x y z
#
# Youngs Moduli (GPa) = 126.15330 11.82948 71.90629
#
# Poissons Ratio (x) = 0.06607 0.34833
# Poissons Ratio (y) = 0.70461 0.56982
# Poissons Ratio (z) = 0.61111 0.09374
#
# Static dielectric constant tensor:
#      x y z
#    x 1.696370 0.000000 0.000000 
#    y 0.000000 1.697630 0.000000 
#    z 0.000000 0.000000 1.718330 
# 
# From -- ./inp_files/71453.got.cif
#   From: 2010.05.17/outbox.cif.g08.bks.cpg/sg65_36_cif.got.tgz:71453.got - 2010.06.03 17:01:31.
