data_PCOD9486977
_publ_section_title
;
Structure prediction by ZEFSAII (Michael W. Deem and Ramdas Pophale) SiO2 
 PCOD9486977
Probable space group: C M M M
;
_chemical_formula_sum "Si O2"
_cell_formula_units_Z 80
_cell_length_a 18.491470
_cell_length_b 7.716448
_cell_length_c 27.040203
_cell_angle_alpha 90.000000
_cell_angle_beta 90.000000
_cell_angle_gamma 90.000000
_cell_volume 3858.325105
_symmetry_space_group_name_H-M "C M M M"
_symmetry_group_IT_number 65
_symmetry_cell_setting 'orthorhombic'
loop_
_space_group_symop_operation_xyz
x,y,z
-x,-y,z
x,-y,-z
-x,y,-z
-x,-y,-z
x,y,-z
-x,y,z
x,-y,z
1/2+x,1/2+y,z
1/2-x,1/2-y,z
1/2+x,1/2-y,-z
1/2-x,1/2+y,-z
1/2-x,1/2-y,-z
1/2+x,1/2+y,-z
1/2-x,1/2+y,z
1/2+x,1/2-y,z
loop_
_atom_site_type_symbol
_atom_site_label
_atom_site_fract_x
_atom_site_fract_y
_atom_site_fract_z
Si Si1 0.664917 0.290875 0.392416
Si Si2 0.335492 0.708113 0.500000
Si Si3 0.581500 0.292880 0.296207
Si Si4 0.083764 0.287593 0.901301
Si Si5 0.834372 0.705851 0.196682
Si Si6 0.334585 0.791781 0.000000
O O1 0.659142 0.500000 0.393008
O O2 0.750000 0.250000 0.387127
O O3 0.638185 0.227251 0.446468
O O4 0.620838 0.223837 0.345390
O O5 0.344574 0.500000 0.500000
O O6 0.250000 0.750000 0.500000
O O7 0.500000 0.224442 0.290372
O O8 0.576608 0.500000 0.302383
O O9 0.628446 0.263408 0.247373
O O10 0.084879 0.500000 0.901268
O O11 0.123935 0.226151 0.851727
O O12 0.125940 0.228863 0.950317
O O13 0.000000 0.235326 0.902017
O O14 0.840737 0.500000 0.195202
O O15 0.750000 0.750000 0.195360
O O16 0.250000 0.750000 0.000000
O O17 0.341447 0.000000 0.000000
#
# Coordination Sequence:
#
# PCOD9486977 Si02
#       6
#    16   8  16  16  16   8
#     4   9  17  30  49  72  97 127 164 206 250 297
#     4   8  14  26  45  69  95 123 159 202 247 294
#     4  10  21  36  52  73 103 136 170 210 256 304
#     4   9  18  33  54  79 104 133 171 211 251 299
#     4  11  22  36  55  78 104 134 171 213 255 304
#     4  10  19  33  55  79 105 136 170 210 252 296
#
# _framework density 20.734383999999999
#
# number of rings (size 3 to 8) (size 9 to 14) (size 15 to 20)
#    0.000    2.400    0.000    2.700    0.000    4.800 
#    0.000    1.500    0.000    6.600    0.000    0.000 
#    0.000    9.600    0.000    0.000    0.000    0.000 
#
# Total GULP energy -223289.251502 kJ/mol
# GULP energy per Si atom -5582.231288 kJ/mol
# Density = 2.068719 g / cm^3
# Si number density = 20.734384 Si / 1000 Ang^3
#
#
#
# Elastic Constant Matrix: (Units=GPa)
#
#
# Indices 1 2 3 4 5 6 
#
# 1 174.4301 -0.8526 130.8714 0.0000 0.0000 0.0000
# 2 -0.8526 34.7537 7.2690 0.0000 0.0000 0.0000
# 3 130.8714 7.2690 255.9804 0.0000 0.0000 0.0000
# 4 0.0000 0.0000 0.0000 15.7132 0.0000 0.0000
# 5 0.0000 0.0000 0.0000 0.0000 -11.0818 0.0000
# 6 0.0000 0.0000 0.0000 0.0000 0.0000 13.0083
#
#
#
# Elastic Compliance Matrix: (Units=1/GPa)
#
#
# Indices 1 2 3 4 5 6 
#
# 1 0.009353 0.001237 -0.004817 0.000000 0.000000 0.000000
# 2 0.001237 0.029109 -0.001459 0.000000 0.000000 0.000000
# 3 -0.004817 -0.001459 0.006411 0.000000 0.000000 0.000000
# 4 0.000000 0.000000 0.000000 0.063641 0.000000 0.000000
# 5 0.000000 0.000000 0.000000 0.000000 -0.090238 0.000000
# 6 0.000000 0.000000 0.000000 0.000000 0.000000 0.076874
#
#
# Mechanical properties :
#
#
# Convention : Reuss Voigt Hill
#
# Bulk Modulus (GPa) = 28.73960 82.19332 55.46646
# Shear Modulus (GPa) = 42.79871 25.38637 34.09254
#
# Velocity S-wave (km/s) = 4.54821 3.50288 4.05934
# Velocity P-wave (km/s) = 6.43992 7.48915 6.98427
#
# Compressibility (1/GPa) = 0.03479519
#
# Stress axis : x y z
#
# Youngs Moduli (GPa) = 106.91712 34.35309 155.99022
#
# Poissons Ratio (x) = -0.04249 0.75139
# Poissons Ratio (y) = -0.13225 0.22759
# Poissons Ratio (z) = 0.51501 0.05012
#
# Static dielectric constant tensor:
#      x y z
#    x 1.683400 0.000000 0.000000 
#    y 0.000000 1.780360 0.000000 
#    z 0.000000 0.000000 1.758470 
# 
# From -- ./inp_files/75107.got.cif
#   From: 2010.05.17/outbox.cif.g08.bks.cpg/sg65_38_cif.got.tgz:75107.got - 2010.06.03 17:01:31.
