data_PCOD9486405
_publ_section_title
;
Structure prediction by ZEFSAII (Michael W. Deem and Ramdas Pophale) SiO2 
 PCOD9486405
Probable space group: C M M M
;
_chemical_formula_sum "Si O2"
_cell_formula_units_Z 96
_cell_length_a 26.129312
_cell_length_b 24.448716
_cell_length_c 8.054048
_cell_angle_alpha 90.000000
_cell_angle_beta 90.000000
_cell_angle_gamma 90.000000
_cell_volume 5145.152410
_symmetry_space_group_name_H-M "C M M M"
_symmetry_group_IT_number 65
_symmetry_cell_setting 'orthorhombic'
loop_
_space_group_symop_operation_xyz
x,y,z
-x,-y,z
x,-y,-z
-x,y,-z
-x,-y,-z
x,y,-z
-x,y,z
x,-y,z
1/2+x,1/2+y,z
1/2-x,1/2-y,z
1/2+x,1/2-y,-z
1/2-x,1/2+y,-z
1/2-x,1/2-y,-z
1/2+x,1/2+y,-z
1/2-x,1/2+y,z
1/2+x,1/2-y,z
loop_
_atom_site_type_symbol
_atom_site_label
_atom_site_fract_x
_atom_site_fract_y
_atom_site_fract_z
Si Si1 0.152367 0.135497 0.296347
Si Si2 0.309241 0.752385 0.700519
Si Si3 0.253053 0.438468 0.697666
Si Si4 0.344334 0.128899 0.805318
Si Si5 0.441618 0.937568 0.299403
Si Si6 0.558326 0.437567 0.702526
O O1 0.152315 0.135670 0.500000
O O2 0.161402 0.197830 0.243015
O O3 0.200663 0.099176 0.239526
O O4 0.100329 0.105992 0.241774
O O5 0.307838 0.751506 0.500000
O O6 0.250000 0.750000 0.757884
O O7 0.335484 0.808682 0.752184
O O8 0.261020 0.442577 0.500000
O O9 0.253218 0.500000 0.766607
O O10 0.199322 0.408559 0.723383
O O11 0.399667 0.104853 0.761393
O O12 0.336512 0.125034 0.000000
O O13 0.440956 0.937213 0.500000
O O14 0.500000 0.925729 0.246439
O O15 0.429026 0.000000 0.246458
O O16 0.558494 0.437083 0.500000
O O17 0.500000 0.426174 0.755368
O O18 0.571610 0.500000 0.751662
#
# Coordination Sequence:
#
# PCOD9486405 Si02
#       6
#    16  16  16  16  16  16
#     4   9  16  28  47  70  95 130 174 217 258 305
#     4  10  19  35  55  72  98 138 185 228 263 304
#     4  10  19  32  52  76 102 133 173 219 264 314
#     4  12  24  35  51  77 111 143 175 214 265 328
#     4   9  19  38  63  86 107 136 177 222 266 316
#     4   8  13  22  39  67 102 131 154 192 252 312
#
# _framework density 18.658339000000002
#
# number of rings (size 3 to 8) (size 9 to 14) (size 15 to 20)
#    0.000    2.333    1.667    3.500    0.000    5.333 
#    0.000    1.667    0.000    3.000    0.000    0.000 
#    0.000    0.667    0.000    9.167    0.000    8.333 
#
# Total GULP energy -267853.710099 kJ/mol
# GULP energy per Si atom -5580.285627 kJ/mol
# Density = 1.861587 g / cm^3
# Si number density = 18.658339 Si / 1000 Ang^3
#
#
#
# Elastic Constant Matrix: (Units=GPa)
#
#
# Indices 1 2 3 4 5 6 
#
# 1 105.5098 76.9447 -7.2253 0.0000 0.0000 0.0000
# 2 76.9447 160.3225 -0.2021 0.0000 0.0000 0.0000
# 3 -7.2253 -0.2021 7.1309 0.0000 0.0000 0.0000
# 4 0.0000 0.0000 0.0000 -25.0986 0.0000 0.0000
# 5 0.0000 0.0000 0.0000 0.0000 -18.3552 0.0000
# 6 0.0000 0.0000 0.0000 0.0000 0.0000 26.5844
#
#
#
# Elastic Compliance Matrix: (Units=1/GPa)
#
#
# Indices 1 2 3 4 5 6 
#
# 1 0.016272 -0.007789 0.016267 0.000000 0.000000 0.000000
# 2 -0.007789 0.009966 -0.007610 0.000000 0.000000 0.000000
# 3 0.016267 -0.007610 0.156501 0.000000 0.000000 0.000000
# 4 0.000000 0.000000 0.000000 -0.039843 0.000000 0.000000
# 5 0.000000 0.000000 0.000000 0.000000 -0.054480 0.000000
# 6 0.000000 0.000000 0.000000 0.000000 0.000000 0.037616
#
#
# Mechanical properties :
#
#
# Convention : Reuss Voigt Hill
#
# Bulk Modulus (GPa) = 5.42078 45.77753 25.59915
# Shear Modulus (GPa) = 26.91236 10.18916 18.55076
#
# Velocity S-wave (km/s) = 3.80198 2.33940 3.15657
# Velocity P-wave (km/s) = 4.71010 5.64667 5.19952
#
# Compressibility (1/GPa) = 0.18447528
#
# Stress axis : x y z
#
# Youngs Moduli (GPa) = 61.45528 100.34036 6.38972
#
# Poissons Ratio (x) = 0.78155 -0.10394
# Poissons Ratio (y) = 0.47868 0.04862
# Poissons Ratio (z) = -0.99967 0.76356
#
# Static dielectric constant tensor:
#      x y z
#    x 1.630520 0.000000 0.000000 
#    y 0.000000 1.637110 0.000000 
#    z 0.000000 0.000000 1.658120 
# 
# From -- ./inp_files/16651.got.cif
#   From: 2010.05.17/outbox.cif.g08.bks.cpg/sg65_9_cif.got.tgz:16651.got - 2010.06.03 17:01:31.
