data_PCOD9486460
_publ_section_title
;
Structure prediction by ZEFSAII (Michael W. Deem and Ramdas Pophale) SiO2 
 PCOD9486460
Probable space group: C M M M
;
_chemical_formula_sum "Si O2"
_cell_formula_units_Z 56
_cell_length_a 32.776313
_cell_length_b 10.296615
_cell_length_c 7.381177
_cell_angle_alpha 90.000000
_cell_angle_beta 90.000000
_cell_angle_gamma 90.000000
_cell_volume 2491.037081
_symmetry_space_group_name_H-M "C M M M"
_symmetry_group_IT_number 65
_symmetry_cell_setting 'orthorhombic'
loop_
_space_group_symop_operation_xyz
x,y,z
-x,-y,z
x,-y,-z
-x,y,-z
-x,-y,-z
x,y,-z
-x,y,z
x,-y,z
1/2+x,1/2+y,z
1/2-x,1/2-y,z
1/2+x,1/2-y,-z
1/2-x,1/2+y,-z
1/2-x,1/2-y,-z
1/2+x,1/2+y,-z
1/2-x,1/2+y,z
1/2+x,1/2-y,z
loop_
_atom_site_type_symbol
_atom_site_label
_atom_site_fract_x
_atom_site_fract_y
_atom_site_fract_z
Si Si1 0.157282 0.277675 0.281671
Si Si2 0.281258 0.000000 0.721124
Si Si3 0.434998 0.856742 0.213045
Si Si4 0.312853 0.500000 0.721451
Si Si5 0.500000 0.350841 0.778415
O O1 0.158836 0.277003 0.500000
O O2 0.193120 0.374168 0.220747
O O3 0.112982 0.330355 0.231441
O O4 0.165276 0.131550 0.218595
O O5 0.234432 0.000000 0.778310
O O6 0.280763 0.000000 0.500000
O O7 0.461189 0.735230 0.281765
O O8 0.444653 0.000000 0.289398
O O9 0.444504 0.863347 0.000000
O O10 0.313065 0.500000 0.500000
O O11 0.500000 0.500000 0.716251
O O12 0.500000 0.357129 0.000000
#
# Coordination Sequence:
#
# PCOD9486460 Si02
#       5
#    16   8  16   8   8
#     4  10  19  32  52  78 105 134 171 212 254 299
#     4   9  16  30  51  74 101 136 176 211 247 297
#     4  10  20  35  55  77 103 134 169 208 252 301
#     4   9  18  30  49  76 105 136 172 215 253 291
#     4   9  19  35  56  79 100 130 171 208 244 302
#
# _framework density 22.480596999999999
#
# number of rings (size 3 to 8) (size 9 to 14) (size 15 to 20)
#    0.000    2.429    1.429    1.286    2.000    5.143 
#    0.000    0.714    0.000    7.714    0.000    0.000 
#    0.000    0.000    0.000    0.000    0.000    0.000 
#
# Total GULP energy -156475.740185 kJ/mol
# GULP energy per Si atom -5588.419292 kJ/mol
# Density = 2.242943 g / cm^3
# Si number density = 22.480597 Si / 1000 Ang^3
#
#
#
# Elastic Constant Matrix: (Units=GPa)
#
#
# Indices 1 2 3 4 5 6 
#
# 1 98.6077 67.8268 -5.8759 0.0000 0.0000 0.0000
# 2 67.8268 238.1556 10.5290 0.0000 0.0000 0.0000
# 3 -5.8759 10.5290 79.1492 0.0000 0.0000 0.0000
# 4 0.0000 0.0000 0.0000 -3.0420 0.0000 0.0000
# 5 0.0000 0.0000 0.0000 0.0000 17.0085 0.0000
# 6 0.0000 0.0000 0.0000 0.0000 0.0000 38.7329
#
#
#
# Elastic Compliance Matrix: (Units=1/GPa)
#
#
# Indices 1 2 3 4 5 6 
#
# 1 0.012773 -0.003701 0.001441 0.000000 0.000000 0.000000
# 2 -0.003701 0.005296 -0.000979 0.000000 0.000000 0.000000
# 3 0.001441 -0.000979 0.012872 0.000000 0.000000 0.000000
# 4 0.000000 0.000000 0.000000 -0.328729 0.000000 0.000000
# 5 0.000000 0.000000 0.000000 0.000000 0.058794 0.000000
# 6 0.000000 0.000000 0.000000 0.000000 0.000000 0.025818
#
#
# Mechanical properties :
#
#
# Convention : Reuss Voigt Hill
#
# Bulk Modulus (GPa) = 40.88185 62.31914 51.60050
# Shear Modulus (GPa) = -25.18360 33.43538 4.12589
#
# Velocity S-wave (km/s) = -3.35063 3.86074 1.35621
# Velocity P-wave (km/s) = 1.80443 6.90327 5.04535
#
# Compressibility (1/GPa) = 0.02446073
#
# Stress axis : x y z
#
# Youngs Moduli (GPa) = 78.28972 188.80712 77.69039
#
# Poissons Ratio (x) = 0.69886 -0.11192
# Poissons Ratio (y) = 0.28979 0.07609
# Poissons Ratio (z) = -0.11279 0.18491
#
# Static dielectric constant tensor:
#      x y z
#    x 1.762790 0.000000 0.000000 
#    y 0.000000 1.811840 0.000000 
#    z 0.000000 0.000000 1.880350 
# 
# From -- ./inp_files/20848.got.cif
#   From: 2010.05.17/outbox.cif.g08.bks.cpg/sg65_11_cif.got.tgz:20848.got - 2010.06.03 17:01:31.
