data_PCOD9486545
_publ_section_title
;
Structure prediction by ZEFSAII (Michael W. Deem and Ramdas Pophale) SiO2 
 PCOD9486545
Probable space group: C M M M
;
_chemical_formula_sum "Si O2"
_cell_formula_units_Z 88
_cell_length_a 8.610676
_cell_length_b 18.351732
_cell_length_c 29.591889
_cell_angle_alpha 90.000000
_cell_angle_beta 90.000000
_cell_angle_gamma 90.000000
_cell_volume 4676.134515
_symmetry_space_group_name_H-M "C M M M"
_symmetry_group_IT_number 65
_symmetry_cell_setting 'orthorhombic'
loop_
_space_group_symop_operation_xyz
x,y,z
-x,-y,z
x,-y,-z
-x,y,-z
-x,-y,-z
x,y,-z
-x,y,z
x,-y,z
1/2+x,1/2+y,z
1/2-x,1/2-y,z
1/2+x,1/2-y,-z
1/2-x,1/2+y,-z
1/2-x,1/2-y,-z
1/2+x,1/2+y,-z
1/2-x,1/2+y,z
1/2+x,1/2-y,z
loop_
_atom_site_type_symbol
_atom_site_label
_atom_site_fract_x
_atom_site_fract_y
_atom_site_fract_z
Si Si1 0.187433 0.832746 0.451494
Si Si2 0.313785 0.915142 0.265470
Si Si3 0.812081 0.584890 0.091103
Si Si4 0.812920 0.832781 0.647656
Si Si5 0.812412 0.331760 0.000000
Si Si6 0.684956 0.668319 0.178302
O O1 0.236784 0.866170 0.500000
O O2 0.250000 0.750000 0.451694
O O3 0.233520 0.862625 0.402312
O O4 0.000000 0.830891 0.451527
O O5 0.500000 0.910079 0.263908
O O6 0.253786 0.880308 0.311891
O O7 0.245123 0.871289 0.223304
O O8 0.269301 0.000000 0.262502
O O9 0.768046 0.500000 0.089779
O O10 0.742885 0.624295 0.134631
O O11 0.000000 0.588459 0.093871
O O12 0.763479 0.625596 0.045184
O O13 0.750000 0.750000 0.651493
O O14 0.000000 0.830990 0.650409
O O15 0.750000 0.250000 0.000000
O O16 0.000000 0.329797 0.000000
O O17 0.500000 0.670752 0.178825
O O18 0.750000 0.750000 0.176550
#
# Coordination Sequence:
#
# PCOD9486545 Si02
#       6
#    16  16  16  16   8  16
#     4   8  14  25  43  70 103 137 173 215 264 316
#     4  11  24  41  59  79 107 143 182 226 277 331
#     4  10  21  39  62  88 120 156 193 233 280 332
#     4  10  19  32  53  80 110 142 179 224 271 323
#     4  10  21  37  59  87 119 158 199 238 280 326
#     4  12  25  41  62  87 115 146 184 229 277 331
#
# _framework density 18.818961999999999
#
# number of rings (size 3 to 8) (size 9 to 14) (size 15 to 20)
#    0.000    1.818    0.000    4.636    0.000    8.000 
#    0.000    0.000    0.000    2.182    0.000    3.818 
#    0.000    0.000    0.000    0.000    0.000    0.000 
#
# Total GULP energy -245670.720734 kJ/mol
# GULP energy per Si atom -5583.425471 kJ/mol
# Density = 1.877613 g / cm^3
# Si number density = 18.818962 Si / 1000 Ang^3
#
#
#
# Elastic Constant Matrix: (Units=GPa)
#
#
# Indices 1 2 3 4 5 6 
#
# 1 46.6400 48.1404 52.6651 0.0000 0.0000 0.0000
# 2 48.1404 148.1968 110.1339 0.0000 0.0000 0.0000
# 3 52.6651 110.1339 234.9366 0.0000 0.0000 0.0000
# 4 0.0000 0.0000 0.0000 -80.6690 0.0000 0.0000
# 5 0.0000 0.0000 0.0000 0.0000 31.0209 0.0000
# 6 0.0000 0.0000 0.0000 0.0000 0.0000 27.8678
#
#
#
# Elastic Compliance Matrix: (Units=1/GPa)
#
#
# Indices 1 2 3 4 5 6 
#
# 1 0.034318 -0.008334 -0.003786 0.000000 0.000000 0.000000
# 2 -0.008334 0.012379 -0.003935 0.000000 0.000000 0.000000
# 3 -0.003786 -0.003935 0.006950 0.000000 0.000000 0.000000
# 4 0.000000 0.000000 0.000000 -0.012396 0.000000 0.000000
# 5 0.000000 0.000000 0.000000 0.000000 0.032236 0.000000
# 6 0.000000 0.000000 0.000000 0.000000 0.000000 0.035884
#
#
# Mechanical properties :
#
#
# Convention : Reuss Voigt Hill
#
# Bulk Modulus (GPa) = 46.43194 94.62802 70.52998
# Shear Modulus (GPa) = 33.63353 10.23289 21.93321
#
# Velocity S-wave (km/s) = 4.23213 2.33438 3.41762
# Velocity P-wave (km/s) = 6.97193 7.59331 7.28924
#
# Compressibility (1/GPa) = 0.02153690
#
# Stress axis : x y z
#
# Youngs Moduli (GPa) = 29.13883 80.77926 143.88882
#
# Poissons Ratio (x) = 0.67324 0.54478
# Poissons Ratio (y) = 0.24285 0.56619
# Poissons Ratio (z) = 0.11032 0.31786
#
# Static dielectric constant tensor:
#      x y z
#    x 1.638500 0.000000 0.000000 
#    y 0.000000 1.614000 0.000000 
#    z 0.000000 0.000000 1.667570 
# 
# From -- ./inp_files/73055.got.cif
#   From: 2010.05.17/outbox.cif.g08.bks.cpg/sg65_37_cif.got.tgz:73055.got - 2010.06.03 17:01:31.
