data_PCOD9486160
_publ_section_title
;
Structure prediction by ZEFSAII (Michael W. Deem and Ramdas Pophale) SiO2 
 PCOD9486160
Probable space group: C M M M
;
_chemical_formula_sum "Si O2"
_cell_formula_units_Z 88
_cell_length_a 9.083103
_cell_length_b 15.167998
_cell_length_c 32.173937
_cell_angle_alpha 90.000000
_cell_angle_beta 90.000000
_cell_angle_gamma 90.000000
_cell_volume 4432.683354
_symmetry_space_group_name_H-M "C M M M"
_symmetry_group_IT_number 65
_symmetry_cell_setting 'orthorhombic'
loop_
_space_group_symop_operation_xyz
x,y,z
-x,-y,z
x,-y,-z
-x,y,-z
-x,-y,-z
x,y,-z
-x,y,z
x,-y,z
1/2+x,1/2+y,z
1/2-x,1/2-y,z
1/2+x,1/2-y,-z
1/2-x,1/2+y,-z
1/2-x,1/2-y,-z
1/2+x,1/2+y,-z
1/2-x,1/2+y,z
1/2+x,1/2-y,z
loop_
_atom_site_type_symbol
_atom_site_label
_atom_site_fract_x
_atom_site_fract_y
_atom_site_fract_z
Si Si1 0.177788 0.846233 0.890897
Si Si2 0.676396 0.653900 0.290222
Si Si3 0.820423 0.000000 0.047636
Si Si4 0.676754 0.653560 0.799461
Si Si5 0.828975 0.892229 0.454172
Si Si6 0.337052 0.104147 0.626874
O O1 0.250000 0.750000 0.895044
O O2 0.225218 0.913621 0.926601
O O3 0.214299 0.884548 0.844756
O O4 0.000000 0.837097 0.892844
O O5 0.500000 0.658415 0.293164
O O6 0.750000 0.750000 0.288921
O O7 0.715104 0.611155 0.245179
O O8 0.740663 0.612742 0.331843
O O9 0.000000 0.000000 0.047510
O O10 0.770662 0.000000 0.000000
O O11 0.500000 0.663154 0.798907
O O12 0.750000 0.750000 0.799668
O O13 0.773839 0.865461 0.500000
O O14 0.738274 0.859374 0.414692
O O15 0.000000 0.866730 0.450312
O O16 0.826699 0.000000 0.453618
O O17 0.500000 0.142510 0.633618
O O18 0.351671 0.000000 0.619601
#
# Coordination Sequence:
#
# PCOD9486160 Si02
#       6
#    16  16   8  16  16  16
#     4   9  17  32  53  76 103 137 177 221 267 317
#     4  10  19  32  50  71  95 126 162 200 246 300
#     4   9  18  32  51  77 109 143 179 219 266 321
#     4   8  15  28  47  71  93 122 161 203 245 292
#     4   8  14  26  45  67  90 119 157 200 244 289
#     4  10  20  32  46  68  99 129 159 198 243 291
#
# _framework density 19.852535
#
# number of rings (size 3 to 8) (size 9 to 14) (size 15 to 20)
#    0.000    3.000    0.000    1.636    0.000    2.545 
#    1.636    2.273    0.000    1.091    0.000    0.000 
#    0.000    0.000    0.000    0.000    0.000    0.000 
#
# Total GULP energy -245031.583697 kJ/mol
# GULP energy per Si atom -5568.899629 kJ/mol
# Density = 1.980735 g / cm^3
# Si number density = 19.852535 Si / 1000 Ang^3
#
#
#
# Elastic Constant Matrix: (Units=GPa)
#
#
# Indices 1 2 3 4 5 6 
#
# 1 51.5317 15.5911 66.6505 0.0000 0.0000 0.0000
# 2 15.5911 51.3086 45.7986 0.0000 0.0000 0.0000
# 3 66.6505 45.7986 232.8674 0.0000 0.0000 0.0000
# 4 0.0000 0.0000 0.0000 17.5243 0.0000 0.0000
# 5 0.0000 0.0000 0.0000 0.0000 -84.3673 0.0000
# 6 0.0000 0.0000 0.0000 0.0000 0.0000 13.8805
#
#
#
# Elastic Compliance Matrix: (Units=1/GPa)
#
#
# Indices 1 2 3 4 5 6 
#
# 1 0.030951 -0.001817 -0.008501 0.000000 0.000000 0.000000
# 2 -0.001817 0.023747 -0.004150 0.000000 0.000000 0.000000
# 3 -0.008501 -0.004150 0.007544 0.000000 0.000000 0.000000
# 4 0.000000 0.000000 0.000000 0.057064 0.000000 0.000000
# 5 0.000000 0.000000 0.000000 0.000000 -0.011853 0.000000
# 6 0.000000 0.000000 0.000000 0.000000 0.000000 0.072044
#
#
# Mechanical properties :
#
#
# Convention : Reuss Voigt Hill
#
# Bulk Modulus (GPa) = 30.02598 65.75423 47.89010
# Shear Modulus (GPa) = 22.77559 3.25200 13.01380
#
# Velocity S-wave (km/s) = 3.39077 1.28126 2.56310
# Velocity P-wave (km/s) = 5.52151 5.94828 5.73886
#
# Compressibility (1/GPa) = 0.03330450
#
# Stress axis : x y z
#
# Youngs Moduli (GPa) = 32.30951 42.11131 132.55968
#
# Poissons Ratio (x) = 0.07650 1.12693
# Poissons Ratio (y) = 0.05869 0.55017
# Poissons Ratio (z) = 0.27467 0.17478
#
# Static dielectric constant tensor:
#      x y z
#    x 1.676430 0.000000 0.000000 
#    y 0.000000 1.788030 0.000000 
#    z 0.000000 0.000000 1.750060 
# 
# From -- ./inp_files/76622.got.cif
#   From: 2010.05.17/outbox.cif.g08.bks.cpg/sg65_39_cif.got.tgz:76622.got - 2010.06.03 17:01:31.
