data_PCOD9486994
_publ_section_title
;
Structure prediction by ZEFSAII (Michael W. Deem and Ramdas Pophale) SiO2 
 PCOD9486994
Probable space group: C M M M
;
_chemical_formula_sum "Si O2"
_cell_formula_units_Z 64
_cell_length_a 28.177995
_cell_length_b 11.853062
_cell_length_c 9.493337
_cell_angle_alpha 90.000000
_cell_angle_beta 90.000000
_cell_angle_gamma 90.000000
_cell_volume 3170.732045
_symmetry_space_group_name_H-M "C M M M"
_symmetry_group_IT_number 65
_symmetry_cell_setting 'orthorhombic'
loop_
_space_group_symop_operation_xyz
x,y,z
-x,-y,z
x,-y,-z
-x,y,-z
-x,-y,-z
x,y,-z
-x,y,z
x,-y,z
1/2+x,1/2+y,z
1/2-x,1/2-y,z
1/2+x,1/2-y,-z
1/2-x,1/2+y,-z
1/2-x,1/2-y,-z
1/2+x,1/2+y,-z
1/2-x,1/2+y,z
1/2+x,1/2-y,z
loop_
_atom_site_type_symbol
_atom_site_label
_atom_site_fract_x
_atom_site_fract_y
_atom_site_fract_z
Si Si1 0.238119 0.623984 0.164896
Si Si2 0.945243 0.500000 0.170763
Si Si3 0.593436 0.633373 0.336018
Si Si4 0.000000 0.135829 0.158131
Si Si5 0.130930 0.686171 0.162500
O O1 0.254213 0.500000 0.222318
O O2 0.250000 0.750000 0.223532
O O3 0.180843 0.623025 0.166182
O O4 0.253944 0.626522 0.000000
O O5 0.912664 0.393089 0.209852
O O6 0.000000 0.500000 0.220757
O O7 0.946837 0.500000 0.000000
O O8 0.587413 0.659957 0.500000
O O9 0.601385 0.500000 0.323148
O O10 0.546346 0.663094 0.247452
O O11 0.633696 0.705958 0.262323
O O12 0.000000 0.000000 0.145055
O O13 0.000000 0.185075 0.000000
O O14 0.122422 0.720412 0.000000
#
# Coordination Sequence:
#
# PCOD9486994 Si02
#       5
#    16   8  16   8  16
#     4   9  17  31  52  80 114 147 182 234 298 352
#     4   9  18  32  51  77 109 145 184 228 279 329
#     4  10  21  35  50  73 110 149 182 225 282 336
#     4   9  17  31  51  74 101 140 191 237 275 327
#     4  10  19  33  55  80 108 142 186 234 279 338
#
# _framework density 20.184615000000001
#
# number of rings (size 3 to 8) (size 9 to 14) (size 15 to 20)
#    0.000    2.500    1.250    1.125    1.750    4.000 
#    0.000    3.125    0.000    1.500    0.000    0.000 
#    0.000    0.000    0.000    0.000    0.000    0.000 
#
# Total GULP energy -178237.097588 kJ/mol
# GULP energy per Si atom -5569.909300 kJ/mol
# Density = 2.013867 g / cm^3
# Si number density = 20.184615 Si / 1000 Ang^3
#
#
#
# Elastic Constant Matrix: (Units=GPa)
#
#
# Indices 1 2 3 4 5 6 
#
# 1 48.4158 29.8316 5.2218 0.0000 0.0000 0.0000
# 2 29.8316 136.2544 49.3727 0.0000 0.0000 0.0000
# 3 5.2218 49.3727 78.0165 0.0000 0.0000 0.0000
# 4 0.0000 0.0000 0.0000 12.7820 0.0000 0.0000
# 5 0.0000 0.0000 0.0000 0.0000 4.0052 0.0000
# 6 0.0000 0.0000 0.0000 0.0000 0.0000 29.5993
#
#
#
# Elastic Compliance Matrix: (Units=1/GPa)
#
#
# Indices 1 2 3 4 5 6 
#
# 1 0.024175 -0.006107 0.002247 0.000000 0.000000 0.000000
# 2 -0.006107 0.011066 -0.006594 0.000000 0.000000 0.000000
# 3 0.002247 -0.006594 0.016841 0.000000 0.000000 0.000000
# 4 0.000000 0.000000 0.000000 0.078235 0.000000 0.000000
# 5 0.000000 0.000000 0.000000 0.000000 0.249678 0.000000
# 6 0.000000 0.000000 0.000000 0.000000 0.000000 0.033785
#
#
# Mechanical properties :
#
#
# Convention : Reuss Voigt Hill
#
# Bulk Modulus (GPa) = 32.07971 47.94875 40.01423
# Shear Modulus (GPa) = 11.23397 21.16134 16.19766
#
# Velocity S-wave (km/s) = 2.36171 3.24140 2.83587
# Velocity P-wave (km/s) = 4.83369 6.14943 5.53083
#
# Compressibility (1/GPa) = 0.03117235
#
# Stress axis : x y z
#
# Youngs Moduli (GPa) = 41.36512 90.36905 59.38047
#
# Poissons Ratio (x) = 0.55188 -0.13341
# Poissons Ratio (y) = 0.25262 0.39157
# Poissons Ratio (z) = -0.09294 0.59591
#
# Static dielectric constant tensor:
#      x y z
#    x 1.761440 0.000000 0.000000 
#    y 0.000000 1.792910 0.000000 
#    z 0.000000 0.000000 1.658580 
# 
# From -- ./inp_files/4937.got.cif
#   From: 2010.05.17/outbox.cif.g08.bks.cpg/sg65_3_cif.got.tgz:4937.got - 2010.06.03 17:01:31.
