data_PCOD9486781
_publ_section_title
;
Structure prediction by ZEFSAII (Michael W. Deem and Ramdas Pophale) SiO2 
 PCOD9486781
Probable space group: C M M M
;
_chemical_formula_sum "Si O2"
_cell_formula_units_Z 120
_cell_length_a 27.632629
_cell_length_b 8.600969
_cell_length_c 28.757518
_cell_angle_alpha 90.000000
_cell_angle_beta 90.000000
_cell_angle_gamma 90.000000
_cell_volume 6834.724114
_symmetry_space_group_name_H-M "C M M M"
_symmetry_group_IT_number 65
_symmetry_cell_setting 'orthorhombic'
loop_
_space_group_symop_operation_xyz
x,y,z
-x,-y,z
x,-y,-z
-x,y,-z
-x,-y,-z
x,y,-z
-x,y,z
x,-y,z
1/2+x,1/2+y,z
1/2-x,1/2-y,z
1/2+x,1/2-y,-z
1/2-x,1/2+y,-z
1/2-x,1/2-y,-z
1/2+x,1/2+y,-z
1/2-x,1/2+y,z
1/2+x,1/2-y,z
loop_
_atom_site_type_symbol
_atom_site_label
_atom_site_fract_x
_atom_site_fract_y
_atom_site_fract_z
Si Si1 0.351790 0.187046 0.697550
Si Si2 0.803265 0.314248 0.889827
Si Si3 0.802353 0.185411 0.786110
Si Si4 0.000000 0.316409 0.055977
Si Si5 0.895864 0.185914 0.945006
Si Si6 0.947008 0.688961 0.355916
Si Si7 0.107042 0.311873 0.552655
Si Si8 0.301845 0.314732 0.606760
O O1 0.339395 0.259239 0.747020
O O2 0.404475 0.236126 0.678743
O O3 0.315522 0.245111 0.657315
O O4 0.349319 0.000000 0.699997
O O5 0.800904 0.500000 0.890595
O O6 0.750000 0.250000 0.904472
O O7 0.811455 0.255420 0.837084
O O8 0.848907 0.256775 0.919897
O O9 0.750000 0.250000 0.771108
O O10 0.800799 0.000000 0.789338
O O11 0.051376 0.245519 0.072412
O O12 0.000000 0.500000 0.065125
O O13 0.000000 0.291662 0.000000
O O14 0.894654 0.000000 0.940068
O O15 0.892906 0.224467 0.000000
O O16 0.947674 0.500000 0.355023
O O17 0.932077 0.733504 0.408344
O O18 0.000000 0.746774 0.343656
O O19 0.095920 0.264963 0.500000
O O20 0.110882 0.500000 0.553844
O O21 0.157232 0.242108 0.571030
O O22 0.301410 0.500000 0.609558
O O23 0.250000 0.250000 0.592521
#
# Coordination Sequence:
#
# PCOD9486781 Si02
#       8
#    16  16  16   8  16  16  16  16
#     4  10  19  33  53  77 103 129 164 207 252 301
#     4  11  22  37  56  80 112 148 187 229 278 333
#     4  11  21  35  55  79 107 138 174 212 259 313
#     4   9  17  31  53  81 109 141 185 233 279 327
#     4  10  20  35  56  82 113 150 191 236 284 332
#     4   8  15  29  51  77 101 127 161 204 250 294
#     4   9  18  32  49  71  99 129 163 202 244 294
#     4  11  21  33  49  70  97 128 163 202 247 297
#
# _framework density 17.557403000000001
#
# number of rings (size 3 to 8) (size 9 to 14) (size 15 to 20)
#    0.000    2.067    0.000    6.600    0.000    2.667 
#    0.000    1.333    1.467   10.000    0.000    3.733 
#    0.000    0.000    0.000    0.000    0.000    0.000 
#
# Total GULP energy -334767.804360 kJ/mol
# GULP energy per Si atom -5579.463406 kJ/mol
# Density = 1.751744 g / cm^3
# Si number density = 17.557403 Si / 1000 Ang^3
#
#
#
# Elastic Constant Matrix: (Units=GPa)
#
#
# Indices 1 2 3 4 5 6 
#
# 1 131.6340 45.7316 64.5341 0.0000 0.0000 0.0000
# 2 45.7316 66.8849 37.0575 0.0000 0.0000 0.0000
# 3 64.5341 37.0575 73.7800 0.0000 0.0000 0.0000
# 4 0.0000 0.0000 0.0000 24.5507 0.0000 0.0000
# 5 0.0000 0.0000 0.0000 0.0000 8.6419 0.0000
# 6 0.0000 0.0000 0.0000 0.0000 0.0000 24.0294
#
#
#
# Elastic Compliance Matrix: (Units=1/GPa)
#
#
# Indices 1 2 3 4 5 6 
#
# 1 0.013984 -0.003858 -0.010293 0.000000 0.000000 0.000000
# 2 -0.003858 0.021780 -0.007565 0.000000 0.000000 0.000000
# 3 -0.010293 -0.007565 0.026357 0.000000 0.000000 0.000000
# 4 0.000000 0.000000 0.000000 0.040732 0.000000 0.000000
# 5 0.000000 0.000000 0.000000 0.000000 0.115715 0.000000
# 6 0.000000 0.000000 0.000000 0.000000 0.000000 0.041616
#
#
# Mechanical properties :
#
#
# Convention : Reuss Voigt Hill
#
# Bulk Modulus (GPa) = 53.51059 62.99392 58.25226
# Shear Modulus (GPa) = 16.13705 19.77611 17.95658
#
# Velocity S-wave (km/s) = 3.03496 3.35978 3.20149
# Velocity P-wave (km/s) = 6.54408 7.14196 6.84955
#
# Compressibility (1/GPa) = 0.01868789
#
# Stress axis : x y z
#
# Youngs Moduli (GPa) = 71.51272 45.91296 37.94067
#
# Poissons Ratio (x) = 0.17713 0.39054
# Poissons Ratio (y) = 0.27590 0.28702
# Poissons Ratio (z) = 0.73611 0.34733
#
# Static dielectric constant tensor:
#      x y z
#    x 1.605180 0.000000 0.000000 
#    y 0.000000 1.588590 0.000000 
#    z 0.000000 0.000000 1.582840 
# 
# From -- ./inp_files/76113.got.cif
#   From: 2010.05.17/outbox.cif.g08.bks.cpg/sg65_39_cif.got.tgz:76113.got - 2010.06.03 17:01:31.
