data_PCOD9486105
_publ_section_title
;
Structure prediction by ZEFSAII (Michael W. Deem and Ramdas Pophale) SiO2 
 PCOD9486105
Probable space group: C M M M
;
_chemical_formula_sum "Si O2"
_cell_formula_units_Z 88
_cell_length_a 8.671160
_cell_length_b 19.440315
_cell_length_c 29.704187
_cell_angle_alpha 90.000000
_cell_angle_beta 90.000000
_cell_angle_gamma 90.000000
_cell_volume 5007.237233
_symmetry_space_group_name_H-M "C M M M"
_symmetry_group_IT_number 65
_symmetry_cell_setting 'orthorhombic'
loop_
_space_group_symop_operation_xyz
x,y,z
-x,-y,z
x,-y,-z
-x,y,-z
-x,-y,-z
x,y,-z
-x,y,z
x,-y,z
1/2+x,1/2+y,z
1/2-x,1/2-y,z
1/2+x,1/2-y,-z
1/2-x,1/2+y,-z
1/2-x,1/2-y,-z
1/2+x,1/2+y,-z
1/2-x,1/2+y,z
1/2+x,1/2-y,z
loop_
_atom_site_type_symbol
_atom_site_label
_atom_site_fract_x
_atom_site_fract_y
_atom_site_fract_z
Si Si1 0.183236 0.173399 0.222770
Si Si2 0.820918 0.416224 0.500000
Si Si3 0.688605 0.920465 0.597979
Si Si4 0.317056 0.081269 0.855977
Si Si5 0.181378 0.083329 0.049400
Si Si6 0.185523 0.326785 0.318454
O O1 0.250000 0.250000 0.215330
O O2 0.231641 0.124450 0.182058
O O3 0.252728 0.147863 0.270251
O O4 0.000000 0.177844 0.226608
O O5 0.820940 0.500000 0.500000
O O6 0.754645 0.395915 0.451389
O O7 0.000000 0.394139 0.500000
O O8 0.500000 0.919763 0.596268
O O9 0.735474 0.873943 0.639807
O O10 0.734260 0.000000 0.604339
O O11 0.500000 0.088073 0.850067
O O12 0.270379 0.105815 0.906086
O O13 0.277334 0.000000 0.852513
O O14 0.000000 0.100014 0.053743
O O15 0.192671 0.000000 0.048555
O O16 0.235718 0.107744 0.000000
O O17 0.250000 0.250000 0.324434
O O18 0.000000 0.324875 0.316997
#
# Coordination Sequence:
#
# PCOD9486105 Si02
#       6
#    16   8  16  16  16  16
#     4  11  22  37  55  72  95 129 168 206 250 303
#     4   7  10  20  39  64  93 121 152 191 234 278
#     4   8  14  25  44  69  94 122 157 197 237 277
#     4  10  20  33  51  77 106 133 165 206 247 289
#     4   8  14  26  45  70 101 135 168 202 242 287
#     4  10  19  32  49  69  95 125 158 196 241 292
#
# _framework density 17.574562
#
# number of rings (size 3 to 8) (size 9 to 14) (size 15 to 20)
#    0.000    2.818    0.000    5.455    0.000    2.182 
#    0.000    4.091    0.000    2.182    0.000    1.909 
#    0.000    8.727    0.000    0.000    0.000    0.000 
#
# Total GULP energy -245126.797565 kJ/mol
# GULP energy per Si atom -5571.063581 kJ/mol
# Density = 1.753456 g / cm^3
# Si number density = 17.574562 Si / 1000 Ang^3
#
#
#
# Elastic Constant Matrix: (Units=GPa)
#
#
# Indices 1 2 3 4 5 6 
#
# 1 57.1467 23.2665 52.0620 0.0000 0.0000 0.0000
# 2 23.2665 32.3196 58.0912 0.0000 0.0000 0.0000
# 3 52.0620 58.0912 179.4590 0.0000 0.0000 0.0000
# 4 0.0000 0.0000 0.0000 -43.8455 0.0000 0.0000
# 5 0.0000 0.0000 0.0000 0.0000 17.8522 0.0000
# 6 0.0000 0.0000 0.0000 0.0000 0.0000 17.3801
#
#
#
# Elastic Compliance Matrix: (Units=1/GPa)
#
#
# Indices 1 2 3 4 5 6 
#
# 1 0.025641 -0.012168 -0.003500 0.000000 0.000000 0.000000
# 2 -0.012168 0.079765 -0.022290 0.000000 0.000000 0.000000
# 3 -0.003500 -0.022290 0.013803 0.000000 0.000000 0.000000
# 4 0.000000 0.000000 0.000000 -0.022807 0.000000 0.000000
# 5 0.000000 0.000000 0.000000 0.000000 0.056016 0.000000
# 6 0.000000 0.000000 0.000000 0.000000 0.000000 0.057537
#
#
# Mechanical properties :
#
#
# Convention : Reuss Voigt Hill
#
# Bulk Modulus (GPa) = 23.09851 59.52940 41.31395
# Shear Modulus (GPa) = 16.64993 7.31106 11.98050
#
# Velocity S-wave (km/s) = 3.08131 2.04183 2.61376
# Velocity P-wave (km/s) = 5.08242 6.28528 5.71558
#
# Compressibility (1/GPa) = 0.04329284
#
# Stress axis : x y z
#
# Youngs Moduli (GPa) = 38.99948 12.53687 72.44872
#
# Poissons Ratio (x) = 0.15255 0.25355
# Poissons Ratio (y) = 0.47456 1.61487
# Poissons Ratio (z) = 0.13649 0.27945
#
# Static dielectric constant tensor:
#      x y z
#    x 1.597290 0.000000 0.000000 
#    y 0.000000 1.574550 0.000000 
#    z 0.000000 0.000000 1.629820 
# 
# From -- ./inp_files/76795.got.cif
#   From: 2010.05.17/outbox.cif.g08.bks.cpg/sg65_39_cif.got.tgz:76795.got - 2010.06.03 17:01:31.
