data_PCOD9486918
_publ_section_title
;
Structure prediction by ZEFSAII (Michael W. Deem and Ramdas Pophale) SiO2 
 PCOD9486918
Probable space group: C M M M
;
_chemical_formula_sum "Si O2"
_cell_formula_units_Z 80
_cell_length_a 8.405347
_cell_length_b 18.655780
_cell_length_c 27.173020
_cell_angle_alpha 90.000000
_cell_angle_beta 90.000000
_cell_angle_gamma 90.000000
_cell_volume 4260.955193
_symmetry_space_group_name_H-M "C M M M"
_symmetry_group_IT_number 65
_symmetry_cell_setting 'orthorhombic'
loop_
_space_group_symop_operation_xyz
x,y,z
-x,-y,z
x,-y,-z
-x,y,-z
-x,-y,-z
x,y,-z
-x,y,z
x,-y,z
1/2+x,1/2+y,z
1/2-x,1/2-y,z
1/2+x,1/2-y,-z
1/2-x,1/2+y,-z
1/2-x,1/2-y,-z
1/2+x,1/2+y,-z
1/2-x,1/2+y,z
1/2+x,1/2-y,z
loop_
_atom_site_type_symbol
_atom_site_label
_atom_site_fract_x
_atom_site_fract_y
_atom_site_fract_z
Si Si1 0.691356 0.167758 0.689029
Si Si2 0.190550 0.917654 0.405353
Si Si3 0.805327 0.582327 0.000000
Si Si4 0.811129 0.331301 0.500000
Si Si5 0.808171 0.332122 0.796785
Si Si6 0.307377 0.831929 0.096135
O O1 0.500000 0.168281 0.687142
O O2 0.750000 0.250000 0.684023
O O3 0.755763 0.120174 0.644851
O O4 0.743085 0.139381 0.743321
O O5 0.252467 0.872845 0.451683
O O6 0.000000 0.917800 0.407291
O O7 0.247097 0.000000 0.407605
O O8 0.752126 0.622801 0.049372
O O9 0.755335 0.500000 0.000000
O O10 0.000000 0.583476 0.000000
O O11 0.750000 0.250000 0.500000
O O12 0.000000 0.329898 0.500000
O O13 0.750000 0.250000 0.797132
O O14 0.756275 0.361736 0.850029
O O15 0.000000 0.333387 0.796622
O O16 0.500000 0.831532 0.095510
O O17 0.250000 0.750000 0.091801
#
# Coordination Sequence:
#
# PCOD9486918 Si02
#       6
#    16  16   8   8  16  16
#     4  10  19  33  54  79 107 138 175 216 259 309
#     4  11  24  41  59  81 112 146 178 215 260 307
#     4   9  17  28  43  65  94 127 162 202 250 305
#     4  12  25  42  65  89 113 141 177 218 259 306
#     4   8  15  27  45  71  99 127 162 207 254 298
#     4   9  16  28  47  70  94 123 163 207 252 300
#
# _framework density 18.775134000000001
#
# number of rings (size 3 to 8) (size 9 to 14) (size 15 to 20)
#    0.000    2.300    0.000    3.300    0.000    3.600 
#    0.000    1.000    0.000    4.800    0.000    0.000 
#    0.000    0.000    0.000    0.000    0.000    0.000 
#
# Total GULP energy -223049.357732 kJ/mol
# GULP energy per Si atom -5576.233943 kJ/mol
# Density = 1.873240 g / cm^3
# Si number density = 18.775134 Si / 1000 Ang^3
#
#
#
# Elastic Constant Matrix: (Units=GPa)
#
#
# Indices 1 2 3 4 5 6 
#
# 1 36.3889 23.6870 35.6419 0.0000 0.0000 0.0000
# 2 23.6870 114.7938 105.5117 0.0000 0.0000 0.0000
# 3 35.6419 105.5117 247.9702 0.0000 0.0000 0.0000
# 4 0.0000 0.0000 0.0000 -10.6663 0.0000 0.0000
# 5 0.0000 0.0000 0.0000 0.0000 15.2909 0.0000
# 6 0.0000 0.0000 0.0000 0.0000 0.0000 20.0983
#
#
#
# Elastic Compliance Matrix: (Units=1/GPa)
#
#
# Indices 1 2 3 4 5 6 
#
# 1 0.033083 -0.004033 -0.003039 0.000000 0.000000 0.000000
# 2 -0.004033 0.014798 -0.005717 0.000000 0.000000 0.000000
# 3 -0.003039 -0.005717 0.006902 0.000000 0.000000 0.000000
# 4 0.000000 0.000000 0.000000 -0.093753 0.000000 0.000000
# 5 0.000000 0.000000 0.000000 0.000000 0.065398 0.000000
# 6 0.000000 0.000000 0.000000 0.000000 0.000000 0.049755
#
#
# Mechanical properties :
#
#
# Convention : Reuss Voigt Hill
#
# Bulk Modulus (GPa) = 34.24082 80.98158 57.61120
# Shear Modulus (GPa) = 44.84413 20.56540 32.70476
#
# Velocity S-wave (km/s) = 4.89251 3.31320 4.17816
# Velocity P-wave (km/s) = 7.08467 7.60673 7.35034
#
# Compressibility (1/GPa) = 0.02920490
#
# Stress axis : x y z
#
# Youngs Moduli (GPa) = 30.22714 67.57602 144.88289
#
# Poissons Ratio (x) = 0.27254 0.44031
# Poissons Ratio (y) = 0.12191 0.82829
# Poissons Ratio (z) = 0.09186 0.38633
#
# Static dielectric constant tensor:
#      x y z
#    x 1.637900 0.000000 0.000000 
#    y 0.000000 1.592660 0.000000 
#    z 0.000000 0.000000 1.695200 
# 
# From -- ./inp_files/72886.got.cif
#   From: 2010.05.17/outbox.cif.g08.bks.cpg/sg65_37_cif.got.tgz:72886.got - 2010.06.03 17:01:31.
