data_PCOD9486275
_publ_section_title
;
Structure prediction by ZEFSAII (Michael W. Deem and Ramdas Pophale) SiO2 
 PCOD9486275
Probable space group: C M M M
;
_chemical_formula_sum "Si O2"
_cell_formula_units_Z 72
_cell_length_a 8.440103
_cell_length_b 18.373925
_cell_length_c 24.864538
_cell_angle_alpha 90.000000
_cell_angle_beta 90.000000
_cell_angle_gamma 90.000000
_cell_volume 3855.938336
_symmetry_space_group_name_H-M "C M M M"
_symmetry_group_IT_number 65
_symmetry_cell_setting 'orthorhombic'
loop_
_space_group_symop_operation_xyz
x,y,z
-x,-y,z
x,-y,-z
-x,y,-z
-x,-y,-z
x,y,-z
-x,y,z
x,-y,z
1/2+x,1/2+y,z
1/2-x,1/2-y,z
1/2+x,1/2-y,-z
1/2-x,1/2+y,-z
1/2-x,1/2-y,-z
1/2+x,1/2+y,-z
1/2-x,1/2+y,z
1/2+x,1/2-y,z
loop_
_atom_site_type_symbol
_atom_site_label
_atom_site_fract_x
_atom_site_fract_y
_atom_site_fract_z
Si Si1 0.191386 0.666470 0.826415
Si Si2 0.189771 0.916519 0.395547
Si Si3 0.311922 0.832090 0.500000
Si Si4 0.809501 0.666756 0.708826
Si Si5 0.691872 0.833908 0.942081
O O1 0.250000 0.750000 0.826577
O O2 0.241269 0.637081 0.767993
O O3 0.243792 0.634061 0.884180
O O4 0.000000 0.666154 0.826480
O O5 0.252723 0.872898 0.446785
O O6 0.244574 0.879334 0.340449
O O7 0.000000 0.915599 0.397524
O O8 0.244929 0.000000 0.397853
O O9 0.500000 0.831167 0.500000
O O10 0.250000 0.750000 0.500000
O O11 0.750000 0.750000 0.704301
O O12 0.000000 0.667188 0.706648
O O13 0.500000 0.834069 0.942101
O O14 0.750000 0.750000 0.942071
O O15 0.743851 0.865793 0.000000
#
# Coordination Sequence:
#
# PCOD9486275 Si02
#       5
#    16  16   8  16  16
#     4   8  14  23  36  57  85 119 158 200 244 290
#     4  11  24  41  59  80 108 138 169 208 253 297
#     4  12  25  42  65  89 113 139 169 202 239 288
#     4  10  19  32  51  74 102 135 173 213 253 301
#     4   8  12  18  29  47  75 112 152 192 237 289
#
# _framework density 18.672497
#
# number of rings (size 3 to 8) (size 9 to 14) (size 15 to 20)
#    0.000    2.444    0.000    3.333    0.000    4.000 
#    0.000    0.000    0.000    0.000    0.000    0.000 
#    0.000    0.889    0.000   11.111    0.000    5.778 
#
# Total GULP energy -200504.751094 kJ/mol
# GULP energy per Si atom -5569.576419 kJ/mol
# Density = 1.863000 g / cm^3
# Si number density = 18.672497 Si / 1000 Ang^3
#
#
#
# Elastic Constant Matrix: (Units=GPa)
#
#
# Indices 1 2 3 4 5 6 
#
# 1 38.3003 20.5829 37.3114 0.0000 0.0000 0.0000
# 2 20.5829 72.8530 77.6844 0.0000 0.0000 0.0000
# 3 37.3114 77.6844 260.5235 0.0000 0.0000 0.0000
# 4 0.0000 0.0000 0.0000 -10.4425 0.0000 0.0000
# 5 0.0000 0.0000 0.0000 0.0000 9.8396 0.0000
# 6 0.0000 0.0000 0.0000 0.0000 0.0000 16.5374
#
#
#
# Elastic Compliance Matrix: (Units=1/GPa)
#
#
# Indices 1 2 3 4 5 6 
#
# 1 0.032096 -0.006109 -0.002775 0.000000 0.000000 0.000000
# 2 -0.006109 0.021288 -0.005473 0.000000 0.000000 0.000000
# 3 -0.002775 -0.005473 0.005868 0.000000 0.000000 0.000000
# 4 0.000000 0.000000 0.000000 -0.095763 0.000000 0.000000
# 5 0.000000 0.000000 0.000000 0.000000 0.101630 0.000000
# 6 0.000000 0.000000 0.000000 0.000000 0.000000 0.060469
#
#
# Mechanical properties :
#
#
# Convention : Reuss Voigt Hill
#
# Bulk Modulus (GPa) = 32.74603 71.42602 52.08603
# Shear Modulus (GPa) = 30.39868 18.92678 24.66273
#
# Velocity S-wave (km/s) = 4.03922 3.18719 3.63823
# Velocity P-wave (km/s) = 6.27127 7.20273 6.75308
#
# Compressibility (1/GPa) = 0.03053805
#
# Stress axis : x y z
#
# Youngs Moduli (GPa) = 31.15673 46.97479 170.42133
#
# Poissons Ratio (x) = 0.28696 0.47294
# Poissons Ratio (y) = 0.19033 0.93270
# Poissons Ratio (z) = 0.08646 0.25709
#
# Static dielectric constant tensor:
#      x y z
#    x 1.630930 0.000000 0.000000 
#    y 0.000000 1.588130 0.000000 
#    z 0.000000 0.000000 1.728060 
# 
# From -- ./inp_files/67109.got.cif
#   From: 2010.05.17/outbox.cif.g08.bks.cpg/sg65_34_cif.got.tgz:67109.got - 2010.06.03 17:01:31.
