data_PCOD9486106
_publ_section_title
;
Structure prediction by ZEFSAII (Michael W. Deem and Ramdas Pophale) SiO2 
 PCOD9486106
Probable space group: C M M M
;
_chemical_formula_sum "Si O2"
_cell_formula_units_Z 88
_cell_length_a 29.101363
_cell_length_b 19.620262
_cell_length_c 7.566069
_cell_angle_alpha 90.000000
_cell_angle_beta 90.000000
_cell_angle_gamma 90.000000
_cell_volume 4320.046587
_symmetry_space_group_name_H-M "C M M M"
_symmetry_group_IT_number 65
_symmetry_cell_setting 'orthorhombic'
loop_
_space_group_symop_operation_xyz
x,y,z
-x,-y,z
x,-y,-z
-x,y,-z
-x,-y,-z
x,y,-z
-x,y,z
x,-y,z
1/2+x,1/2+y,z
1/2-x,1/2-y,z
1/2+x,1/2-y,-z
1/2-x,1/2+y,-z
1/2-x,1/2-y,-z
1/2+x,1/2+y,-z
1/2-x,1/2+y,z
1/2+x,1/2-y,z
loop_
_atom_site_type_symbol
_atom_site_label
_atom_site_fract_x
_atom_site_fract_y
_atom_site_fract_z
Si Si1 0.947875 0.307694 0.210854
Si Si2 0.177331 0.078205 0.710111
Si Si3 0.500000 0.578215 0.716010
Si Si4 0.222151 0.421189 0.212187
Si Si5 0.878506 0.579158 0.783822
Si Si6 0.589681 0.660514 0.286913
O O1 0.918890 0.371860 0.279488
O O2 0.919662 0.238573 0.240607
O O3 0.000000 0.301699 0.281251
O O4 0.951569 0.316510 0.000000
O O5 0.170700 0.072676 0.500000
O O6 0.228464 0.108009 0.736769
O O7 0.136616 0.125997 0.779246
O O8 0.175269 0.000000 0.781202
O O9 0.500000 0.500000 0.772022
O O10 0.500000 0.578793 0.500000
O O11 0.454341 0.617203 0.774797
O O12 0.223486 0.500000 0.273671
O O13 0.172363 0.394674 0.271170
O O14 0.221237 0.421475 0.000000
O O15 0.883569 0.500000 0.731198
O O16 0.879046 0.579517 0.000000
O O17 0.590252 0.656902 0.500000
#
# Coordination Sequence:
#
# PCOD9486106 Si02
#       6
#    16  16   8  16  16  16
#     4  10  20  33  50  72  98 126 156 197 246 287
#     4   9  17  29  47  72  98 123 158 202 239 273
#     4   9  16  28  49  71  88 117 166 206 227 265
#     4   8  14  27  48  71  94 122 155 192 237 285
#     4   8  15  30  52  75  96 121 158 198 234 283
#     4  10  19  32  49  69  95 129 162 194 236 285
#
# _framework density 20.370149999999999
#
# number of rings (size 3 to 8) (size 9 to 14) (size 15 to 20)
#    0.000    3.000    0.909    1.636    0.000    3.273 
#    0.000    3.636    0.000    9.273    0.000    1.273 
#    0.000    0.000    0.000    0.000    0.000    0.000 
#
# Total GULP energy -245253.024399 kJ/mol
# GULP energy per Si atom -5573.932373 kJ/mol
# Density = 2.032379 g / cm^3
# Si number density = 20.370150 Si / 1000 Ang^3
#
#
#
# Elastic Constant Matrix: (Units=GPa)
#
#
# Indices 1 2 3 4 5 6 
#
# 1 158.9856 82.6259 8.8774 0.0000 0.0000 0.0000
# 2 82.6259 110.0367 0.3944 0.0000 0.0000 0.0000
# 3 8.8774 0.3944 44.9776 0.0000 0.0000 0.0000
# 4 0.0000 0.0000 0.0000 15.7518 0.0000 0.0000
# 5 0.0000 0.0000 0.0000 0.0000 22.6749 0.0000
# 6 0.0000 0.0000 0.0000 0.0000 0.0000 -690.8804
#
#
#
# Elastic Compliance Matrix: (Units=1/GPa)
#
#
# Indices 1 2 3 4 5 6 
#
# 1 0.010493 -0.007872 -0.002002 0.000000 0.000000 0.000000
# 2 -0.007872 0.014994 0.001422 0.000000 0.000000 0.000000
# 3 -0.002002 0.001422 0.022616 0.000000 0.000000 0.000000
# 4 0.000000 0.000000 0.000000 0.063485 0.000000 0.000000
# 5 0.000000 0.000000 0.000000 0.000000 0.044102 0.000000
# 6 0.000000 0.000000 0.000000 0.000000 0.000000 -0.001447
#
#
# Mechanical properties :
#
#
# Convention : Reuss Voigt Hill
#
# Bulk Modulus (GPa) = 32.05201 55.31057 43.68129
# Shear Modulus (GPa) = 27.54158 -115.68392 -44.07117
#
# Velocity S-wave (km/s) = 3.68102 -7.54415 -4.65641
# Velocity P-wave (km/s) = 5.81683 6.97667 2.72382
#
# Compressibility (1/GPa) = 0.03119929
#
# Stress axis : x y z
#
# Youngs Moduli (GPa) = 95.30507 66.69526 44.21654
#
# Poissons Ratio (x) = 0.52500 0.08852
# Poissons Ratio (y) = 0.75021 -0.06288
# Poissons Ratio (z) = 0.19079 -0.09485
#
# Static dielectric constant tensor:
#      x y z
#    x 1.754910 0.000000 0.000000 
#    y 0.000000 1.692470 0.000000 
#    z 0.000000 0.000000 1.782700 
# 
# From -- ./inp_files/18317.got.cif
#   From: 2010.05.17/outbox.cif.g08.bks.cpg/sg65_10_cif.got.tgz:18317.got - 2010.06.03 17:01:31.
