data_PCOD9486228
_publ_section_title
;
Structure prediction by ZEFSAII (Michael W. Deem and Ramdas Pophale) SiO2 
 PCOD9486228
Probable space group: C M M M
;
_chemical_formula_sum "Si O2"
_cell_formula_units_Z 88
_cell_length_a 19.117575
_cell_length_b 7.933192
_cell_length_c 29.914456
_cell_angle_alpha 90.000000
_cell_angle_beta 90.000000
_cell_angle_gamma 90.000000
_cell_volume 4536.927898
_symmetry_space_group_name_H-M "C M M M"
_symmetry_group_IT_number 65
_symmetry_cell_setting 'orthorhombic'
loop_
_space_group_symop_operation_xyz
x,y,z
-x,-y,z
x,-y,-z
-x,y,-z
-x,-y,-z
x,y,-z
-x,y,z
x,-y,z
1/2+x,1/2+y,z
1/2-x,1/2-y,z
1/2+x,1/2-y,-z
1/2-x,1/2+y,-z
1/2-x,1/2-y,-z
1/2+x,1/2+y,-z
1/2-x,1/2+y,z
1/2+x,1/2-y,z
loop_
_atom_site_type_symbol
_atom_site_label
_atom_site_fract_x
_atom_site_fract_y
_atom_site_fract_z
Si Si1 0.332213 0.703315 0.048002
Si Si2 0.330869 0.200194 0.584353
Si Si3 0.831643 0.203528 0.854417
Si Si4 0.580568 0.792888 0.500000
Si Si5 0.169085 0.799833 0.315557
Si Si6 0.419333 0.706895 0.768781
O O1 0.338229 0.500000 0.047879
O O2 0.250000 0.750000 0.047858
O O3 0.357677 0.763929 0.096570
O O4 0.361354 0.764661 0.000000
O O5 0.250000 0.250000 0.577991
O O6 0.378903 0.266377 0.544336
O O7 0.352683 0.250348 0.634369
O O8 0.333748 0.000000 0.582408
O O9 0.750000 0.250000 0.849000
O O10 0.877452 0.263422 0.812814
O O11 0.835135 0.000000 0.854791
O O12 0.500000 0.741245 0.500000
O O13 0.581714 0.000000 0.500000
O O14 0.250000 0.750000 0.309149
O O15 0.120617 0.733391 0.275758
O O16 0.166355 0.000000 0.313420
O O17 0.500000 0.758740 0.769421
O O18 0.418319 0.500000 0.768718
#
# Coordination Sequence:
#
# PCOD9486228 Si02
#       6
#    16  16  16   8  16  16
#     4   8  13  21  35  58  85 109 137 177 222 263
#     4  10  19  33  54  75  97 124 154 189 226 268
#     4   9  16  27  45  65  86 115 149 185 223 266
#     4   9  19  34  51  73 100 129 158 188 224 265
#     4  10  19  32  51  72  94 119 151 191 229 268
#     4   9  18  31  46  65  90 121 153 184 223 271
#
# _framework density 19.396386
#
# number of rings (size 3 to 8) (size 9 to 14) (size 15 to 20)
#    0.000    2.818    0.000    3.000    0.000    0.727 
#    0.000    2.273    0.000    8.727    0.000    3.818 
#    0.000    0.000    0.000   29.455    0.000   13.818 
#
# Total GULP energy -245223.578116 kJ/mol
# GULP energy per Si atom -5573.263139 kJ/mol
# Density = 1.935224 g / cm^3
# Si number density = 19.396386 Si / 1000 Ang^3
#
#
#
# Elastic Constant Matrix: (Units=GPa)
#
#
# Indices 1 2 3 4 5 6 
#
# 1 93.5848 3.9852 123.0426 0.0000 0.0000 0.0000
# 2 3.9852 22.6726 13.4401 0.0000 0.0000 0.0000
# 3 123.0426 13.4401 255.0783 0.0000 0.0000 0.0000
# 4 0.0000 0.0000 0.0000 6.6580 0.0000 0.0000
# 5 0.0000 0.0000 0.0000 0.0000 -0.2696 0.0000
# 6 0.0000 0.0000 0.0000 0.0000 0.0000 12.5649
#
#
#
# Elastic Compliance Matrix: (Units=1/GPa)
#
#
# Indices 1 2 3 4 5 6 
#
# 1 0.029456 0.003350 -0.014385 0.000000 0.000000 0.000000
# 2 0.003350 0.045909 -0.004035 0.000000 0.000000 0.000000
# 3 -0.014385 -0.004035 0.011072 0.000000 0.000000 0.000000
# 4 0.000000 0.000000 0.000000 0.150196 0.000000 0.000000
# 5 0.000000 0.000000 0.000000 0.000000 -3.709248 0.000000
# 6 0.000000 0.000000 0.000000 0.000000 0.000000 0.079587
#
#
# Mechanical properties :
#
#
# Convention : Reuss Voigt Hill
#
# Bulk Modulus (GPa) = 17.76294 72.47461 45.11877
# Shear Modulus (GPa) = -1.49516 19.18185 8.84334
#
# Velocity S-wave (km/s) = -0.87893 3.14815 2.13756
# Velocity P-wave (km/s) = 2.85442 7.11763 5.42256
#
# Compressibility (1/GPa) = 0.05629700
#
# Stress axis : x y z
#
# Youngs Moduli (GPa) = 33.94846 21.78214 90.31708
#
# Poissons Ratio (x) = -0.07297 1.29925
# Poissons Ratio (y) = -0.11373 0.36442
# Poissons Ratio (z) = 0.48836 0.08789
#
# Static dielectric constant tensor:
#      x y z
#    x 1.646910 0.000000 0.000000 
#    y 0.000000 1.692940 0.000000 
#    z 0.000000 0.000000 1.737700 
# 
# From -- ./inp_files/77955.got.cif
#   From: 2010.05.17/outbox.cif.g08.bks.cpg/sg65_39_cif.got.tgz:77955.got - 2010.06.03 17:01:31.
