data_PCOD9486810
_publ_section_title
;
Structure prediction by ZEFSAII (Michael W. Deem and Ramdas Pophale) SiO2 
 PCOD9486810
Probable space group: C M M M
;
_chemical_formula_sum "Si O2"
_cell_formula_units_Z 80
_cell_length_a 28.939387
_cell_length_b 10.509228
_cell_length_c 14.166487
_cell_angle_alpha 90.000000
_cell_angle_beta 90.000000
_cell_angle_gamma 90.000000
_cell_volume 4308.462420
_symmetry_space_group_name_H-M "C M M M"
_symmetry_group_IT_number 65
_symmetry_cell_setting 'orthorhombic'
loop_
_space_group_symop_operation_xyz
x,y,z
-x,-y,z
x,-y,-z
-x,y,-z
-x,-y,-z
x,y,-z
-x,y,z
x,-y,z
1/2+x,1/2+y,z
1/2-x,1/2-y,z
1/2+x,1/2-y,-z
1/2-x,1/2+y,-z
1/2-x,1/2-y,-z
1/2+x,1/2+y,-z
1/2-x,1/2+y,z
1/2+x,1/2-y,z
loop_
_atom_site_type_symbol
_atom_site_label
_atom_site_fract_x
_atom_site_fract_y
_atom_site_fract_z
Si Si1 0.703994 0.000000 0.115203
Si Si2 0.712378 0.852601 0.384683
Si Si3 0.607843 0.845828 0.606213
Si Si4 0.856798 0.739492 0.886447
Si Si5 0.947332 0.654056 0.212532
Si Si6 0.689346 0.500000 0.884589
O O1 0.676094 0.124301 0.146482
O O2 0.757173 0.000000 0.143869
O O3 0.703780 0.000000 0.000000
O O4 0.714359 0.855060 0.500000
O O5 0.750000 0.750000 0.351286
O O6 0.659821 0.810817 0.362676
O O7 0.719633 0.000000 0.354283
O O8 0.599239 0.799263 0.500000
O O9 0.569579 0.810240 0.682285
O O10 0.608428 0.000000 0.602525
O O11 0.908821 0.712876 0.854944
O O12 0.836610 0.873239 0.852831
O O13 0.854994 0.739426 0.000000
O O14 0.944776 0.500000 0.204343
O O15 0.000000 0.692069 0.194239
O O16 0.689057 0.500000 0.000000
#
# Coordination Sequence:
#
# PCOD9486810 Si02
#       6
#     8  16  16  16  16   8
#     4   9  16  30  53  79 108 141 171 207 253 301
#     4   8  13  23  42  67  94 124 154 189 238 294
#     4   8  15  29  49  71  98 130 165 211 262 306
#     4  10  19  33  53  79 109 139 172 210 253 308
#     4  10  20  33  51  74 101 134 175 223 267 307
#     4   9  18  32  53  79 108 141 175 207 249 307
#
# _framework density 18.568110000000001
#
# number of rings (size 3 to 8) (size 9 to 14) (size 15 to 20)
#    0.000    3.000    1.000    1.800    0.000    3.200 
#    0.000    5.500    2.200    1.800    0.000    0.000 
#    0.000    1.600    0.000    0.000    0.000    0.000 
#
# Total GULP energy -223147.471886 kJ/mol
# GULP energy per Si atom -5578.686797 kJ/mol
# Density = 1.852585 g / cm^3
# Si number density = 18.568110 Si / 1000 Ang^3
#
#
#
# Elastic Constant Matrix: (Units=GPa)
#
#
# Indices 1 2 3 4 5 6 
#
# 1 171.5074 82.7315 18.5019 0.0000 0.0000 0.0000
# 2 82.7315 109.1310 21.3334 0.0000 0.0000 0.0000
# 3 18.5019 21.3334 38.0962 0.0000 0.0000 0.0000
# 4 0.0000 0.0000 0.0000 10.2359 0.0000 0.0000
# 5 0.0000 0.0000 0.0000 0.0000 30.3289 0.0000
# 6 0.0000 0.0000 0.0000 0.0000 0.0000 10.9386
#
#
#
# Elastic Compliance Matrix: (Units=1/GPa)
#
#
# Indices 1 2 3 4 5 6 
#
# 1 0.009206 -0.006855 -0.000632 0.000000 0.000000 0.000000
# 2 -0.006855 0.015395 -0.005291 0.000000 0.000000 0.000000
# 3 -0.000632 -0.005291 0.029519 0.000000 0.000000 0.000000
# 4 0.000000 0.000000 0.000000 0.097696 0.000000 0.000000
# 5 0.000000 0.000000 0.000000 0.000000 0.032972 0.000000
# 6 0.000000 0.000000 0.000000 0.000000 0.000000 0.091419
#
#
# Mechanical properties :
#
#
# Convention : Reuss Voigt Hill
#
# Bulk Modulus (GPa) = 35.01114 62.65202 48.83158
# Shear Modulus (GPa) = 16.06246 23.37852 19.72049
#
# Velocity S-wave (km/s) = 2.94438 3.55219 3.26247
# Velocity P-wave (km/s) = 5.51866 7.11611 6.36768
#
# Compressibility (1/GPa) = 0.02856234
#
# Stress axis : x y z
#
# Youngs Moduli (GPa) = 108.62931 64.95798 33.87592
#
# Poissons Ratio (x) = 0.44530 0.02141
# Poissons Ratio (y) = 0.74467 0.17925
# Poissons Ratio (z) = 0.06866 0.34372
#
# Static dielectric constant tensor:
#      x y z
#    x 1.612490 0.000000 0.000000 
#    y 0.000000 1.620080 0.000000 
#    z 0.000000 0.000000 1.706620 
# 
# From -- ./inp_files/46702.got.cif
#   From: 2010.05.17/outbox.cif.g08.bks.cpg/sg65_24_cif.got.tgz:46702.got - 2010.06.03 17:01:31.
