data_PCOD9486574
_publ_section_title
;
Structure prediction by ZEFSAII (Michael W. Deem and Ramdas Pophale) SiO2 
 PCOD9486574
Probable space group: C M M M
;
_chemical_formula_sum "Si O2"
_cell_formula_units_Z 84
_cell_length_a 26.087253
_cell_length_b 15.042625
_cell_length_c 12.305847
_cell_angle_alpha 90.000000
_cell_angle_beta 90.000000
_cell_angle_gamma 90.000000
_cell_volume 4829.069883
_symmetry_space_group_name_H-M "C M M M"
_symmetry_group_IT_number 65
_symmetry_cell_setting 'orthorhombic'
loop_
_space_group_symop_operation_xyz
x,y,z
-x,-y,z
x,-y,-z
-x,y,-z
-x,-y,-z
x,y,-z
-x,y,z
x,-y,z
1/2+x,1/2+y,z
1/2-x,1/2-y,z
1/2+x,1/2-y,-z
1/2-x,1/2+y,-z
1/2-x,1/2-y,-z
1/2+x,1/2+y,-z
1/2-x,1/2+y,z
1/2+x,1/2-y,z
loop_
_atom_site_type_symbol
_atom_site_label
_atom_site_fract_x
_atom_site_fract_y
_atom_site_fract_z
Si Si1 0.500000 0.000000 0.295686
Si Si2 0.731523 0.500000 0.216621
Si Si3 0.097405 0.176771 0.258781
Si Si4 0.000000 0.893875 0.870055
Si Si5 0.174689 0.500000 0.376906
Si Si6 0.703328 0.312815 0.127287
Si Si7 0.633819 0.500000 0.628165
Si Si8 0.083621 0.363335 0.626890
O O1 0.544439 0.077408 0.305088
O O2 0.784350 0.500000 0.281721
O O3 0.722992 0.412844 0.145144
O O4 0.687626 0.500000 0.308710
O O5 0.150165 0.195118 0.192845
O O6 0.105731 0.089453 0.332515
O O7 0.085929 0.263622 0.329917
O O8 0.050488 0.152164 0.179513
O O9 0.000000 0.000000 0.844115
O O10 0.000000 0.885823 0.000000
O O11 0.196886 0.500000 0.500000
O O12 0.138249 0.586458 0.367821
O O13 0.750000 0.250000 0.165770
O O14 0.694151 0.294733 0.000000
O O15 0.640350 0.500000 0.500000
O O16 0.067386 0.367526 0.500000
#
# Coordination Sequence:
#
# PCOD9486574 Si02
#       8
#     4   8  16   8   8  16   8  16
#     4  10  19  34  52  78 105 138 175 212 256 308
#     4  10  19  33  54  76 104 145 180 221 271 325
#     4  11  21  37  56  80 108 146 180 223 275 325
#     4  11  23  39  57  78 104 139 186 231 270 321
#     4   9  18  32  51  81 111 143 182 223 267 320
#     4  10  21  36  55  80 107 138 182 232 279 327
#     4  10  21  35  51  76 111 143 178 216 264 325
#     4  10  19  32  54  79 110 141 177 219 263 322
#
# _framework density 17.394655
#
# number of rings (size 3 to 8) (size 9 to 14) (size 15 to 20)
#    0.000    1.810    0.952    4.857    0.000    0.000 
#    0.000    1.905    0.000    9.143    0.000   25.333 
#    0.000    0.000    0.000    0.000    0.000    0.000 
#
# Total GULP energy -233820.339846 kJ/mol
# GULP energy per Si atom -5567.150949 kJ/mol
# Density = 1.735506 g / cm^3
# Si number density = 17.394655 Si / 1000 Ang^3
#
#
#
# Elastic Constant Matrix: (Units=GPa)
#
#
# Indices 1 2 3 4 5 6 
#
# 1 66.6394 27.8848 1.2324 0.0000 0.0000 0.0000
# 2 27.8848 127.6763 11.6907 0.0000 0.0000 0.0000
# 3 1.2324 11.6907 33.3265 0.0000 0.0000 0.0000
# 4 0.0000 0.0000 0.0000 8.2528 0.0000 0.0000
# 5 0.0000 0.0000 0.0000 0.0000 7.4878 0.0000
# 6 0.0000 0.0000 0.0000 0.0000 0.0000 17.2171
#
#
#
# Elastic Compliance Matrix: (Units=1/GPa)
#
#
# Indices 1 2 3 4 5 6 
#
# 1 0.016530 -0.003672 0.000677 0.000000 0.000000 0.000000
# 2 -0.003672 0.008908 -0.002989 0.000000 0.000000 0.000000
# 3 0.000677 -0.002989 0.031030 0.000000 0.000000 0.000000
# 4 0.000000 0.000000 0.000000 0.121171 0.000000 0.000000
# 5 0.000000 0.000000 0.000000 0.000000 0.133550 0.000000
# 6 0.000000 0.000000 0.000000 0.000000 0.000000 0.058082
#
#
# Mechanical properties :
#
#
# Convention : Reuss Voigt Hill
#
# Bulk Modulus (GPa) = 22.47235 34.36201 28.41718
# Shear Modulus (GPa) = 12.62396 19.04717 15.83557
#
# Velocity S-wave (km/s) = 2.69687 3.31267 3.02051
# Velocity P-wave (km/s) = 4.75864 5.86762 5.34199
#
# Compressibility (1/GPa) = 0.04449913
#
# Stress axis : x y z
#
# Youngs Moduli (GPa) = 60.49522 112.25831 32.22722
#
# Poissons Ratio (x) = 0.41224 -0.02181
# Poissons Ratio (y) = 0.22215 0.09633
# Poissons Ratio (z) = -0.04095 0.33555
#
# Static dielectric constant tensor:
#      x y z
#    x 1.586790 0.000000 0.000000 
#    y 0.000000 1.577590 0.000000 
#    z 0.000000 0.000000 1.569120 
# 
# From -- ./inp_files/30605.got.cif
#   From: 2010.05.17/outbox.cif.g08.bks.cpg/sg65_16_cif.got.tgz:30605.got - 2010.06.03 17:01:31.
