data_PCOD9486993
_publ_section_title
;
Structure prediction by ZEFSAII (Michael W. Deem and Ramdas Pophale) SiO2 
 PCOD9486993
Probable space group: C M M M
;
_chemical_formula_sum "Si O2"
_cell_formula_units_Z 112
_cell_length_a 19.150271
_cell_length_b 20.713760
_cell_length_c 13.865124
_cell_angle_alpha 90.000000
_cell_angle_beta 90.000000
_cell_angle_gamma 90.000000
_cell_volume 5499.935826
_symmetry_space_group_name_H-M "C M M M"
_symmetry_group_IT_number 65
_symmetry_cell_setting 'orthorhombic'
loop_
_space_group_symop_operation_xyz
x,y,z
-x,-y,z
x,-y,-z
-x,y,-z
-x,-y,-z
x,y,-z
-x,y,z
x,-y,z
1/2+x,1/2+y,z
1/2-x,1/2-y,z
1/2+x,1/2-y,-z
1/2-x,1/2+y,-z
1/2-x,1/2-y,-z
1/2+x,1/2+y,-z
1/2-x,1/2+y,z
1/2+x,1/2-y,z
loop_
_atom_site_type_symbol
_atom_site_label
_atom_site_fract_x
_atom_site_fract_y
_atom_site_fract_z
Si Si1 0.419063 0.798294 0.609686
Si Si2 0.077366 0.925059 0.712272
Si Si3 0.214850 0.921486 0.609947
Si Si4 0.829558 0.253155 0.211713
Si Si5 0.677259 0.110271 0.888657
Si Si6 0.135366 0.426808 0.689660
Si Si7 0.658488 0.384012 0.111888
O O1 0.392752 0.788206 0.500000
O O2 0.500000 0.779755 0.612058
O O3 0.378229 0.763237 0.695912
O O4 0.411918 0.874253 0.637498
O O5 0.142292 0.896012 0.652857
O O6 0.105217 0.922606 0.821343
O O7 0.000000 0.896241 0.701186
O O8 0.072284 0.000000 0.682624
O O9 0.222457 0.901522 0.500000
O O10 0.285024 0.904294 0.666219
O O11 0.211953 0.000000 0.613829
O O12 0.750000 0.250000 0.246992
O O13 0.832397 0.314464 0.139692
O O14 0.845182 0.188945 0.151718
O O15 0.632943 0.075204 0.805792
O O16 0.760249 0.094273 0.877831
O O17 0.658664 0.098233 0.000000
O O18 0.125392 0.500000 0.655268
O O19 0.641070 0.387351 0.000000
#
# Coordination Sequence:
#
# PCOD9486993 Si02
#       7
#    16  16  16  16  16  16  16
#     4  10  22  39  58  82 114 149 182 223 278 333
#     4  10  21  35  49  72 109 145 179 223 272 325
#     4   9  17  31  51  73  99 135 180 225 265 311
#     4   9  19  36  58  84 109 139 182 233 273 320
#     4   9  17  31  54  83 112 140 177 228 277 320
#     4  10  19  33  55  84 114 144 182 225 269 320
#     4  10  19  33  55  80 107 142 182 225 275 332
#
# _framework density 20.363873999999999
#
# number of rings (size 3 to 8) (size 9 to 14) (size 15 to 20)
#    0.000    2.429    1.429    0.857    0.000    4.857 
#    0.000    5.000    0.000   10.286    0.000    4.000 
#    0.000    0.000    0.000    0.000    0.000    0.000 
#
# Total GULP energy -312421.919090 kJ/mol
# GULP energy per Si atom -5578.962841 kJ/mol
# Density = 2.031753 g / cm^3
# Si number density = 20.363874 Si / 1000 Ang^3
#
#
#
# Elastic Constant Matrix: (Units=GPa)
#
#
# Indices 1 2 3 4 5 6 
#
# 1 47.1215 -11.1893 22.9511 0.0000 0.0000 0.0000
# 2 -11.1893 22.2648 -27.3511 0.0000 0.0000 0.0000
# 3 22.9511 -27.3511 116.0093 0.0000 0.0000 0.0000
# 4 0.0000 0.0000 0.0000 16.5426 0.0000 0.0000
# 5 0.0000 0.0000 0.0000 0.0000 20.2521 0.0000
# 6 0.0000 0.0000 0.0000 0.0000 0.0000 14.8377
#
#
#
# Elastic Compliance Matrix: (Units=1/GPa)
#
#
# Indices 1 2 3 4 5 6 
#
# 1 0.024710 0.009027 -0.002760 0.000000 0.000000 0.000000
# 2 0.009027 0.066524 0.013898 0.000000 0.000000 0.000000
# 3 -0.002760 0.013898 0.012443 0.000000 0.000000 0.000000
# 4 0.000000 0.000000 0.000000 0.060450 0.000000 0.000000
# 5 0.000000 0.000000 0.000000 0.000000 0.049378 0.000000
# 6 0.000000 0.000000 0.000000 0.000000 0.000000 0.067396
#
#
# Mechanical properties :
#
#
# Convention : Reuss Voigt Hill
#
# Bulk Modulus (GPa) = 6.94413 17.13523 12.03968
# Shear Modulus (GPa) = 17.32673 23.72548 20.52610
#
# Velocity S-wave (km/s) = 2.92011 3.41703 3.17829
# Velocity P-wave (km/s) = 3.84536 4.89907 4.40384
#
# Compressibility (1/GPa) = 0.14400646
#
# Stress axis : x y z
#
# Youngs Moduli (GPa) = 40.46997 15.03222 80.36783
#
# Poissons Ratio (x) = -0.13570 0.22183
# Poissons Ratio (y) = -0.36533 -1.11696
# Poissons Ratio (z) = 0.11171 -0.20892
#
# Static dielectric constant tensor:
#      x y z
#    x 1.726800 0.000000 0.000000 
#    y 0.000000 1.765500 0.000000 
#    z 0.000000 0.000000 1.716920 
# 
# From -- ./inp_files/29358.got.cif
#   From: 2010.05.17/outbox.cif.g08.bks.cpg/sg65_15_cif.got.tgz:29358.got - 2010.06.03 17:01:31.
