data_PCOD9486302
_publ_section_title
;
Structure prediction by ZEFSAII (Michael W. Deem and Ramdas Pophale) SiO2 
 PCOD9486302
Probable space group: C M M M
;
_chemical_formula_sum "Si O2"
_cell_formula_units_Z 120
_cell_length_a 8.710854
_cell_length_b 28.460456
_cell_length_c 26.940871
_cell_angle_alpha 90.000000
_cell_angle_beta 90.000000
_cell_angle_gamma 90.000000
_cell_volume 6679.042720
_symmetry_space_group_name_H-M "C M M M"
_symmetry_group_IT_number 65
_symmetry_cell_setting 'orthorhombic'
loop_
_space_group_symop_operation_xyz
x,y,z
-x,-y,z
x,-y,-z
-x,y,-z
-x,-y,-z
x,y,-z
-x,y,z
x,-y,z
1/2+x,1/2+y,z
1/2-x,1/2-y,z
1/2+x,1/2-y,-z
1/2-x,1/2+y,-z
1/2-x,1/2-y,-z
1/2+x,1/2+y,-z
1/2-x,1/2+y,z
1/2+x,1/2-y,z
loop_
_atom_site_type_symbol
_atom_site_label
_atom_site_fract_x
_atom_site_fract_y
_atom_site_fract_z
Si Si1 0.815010 0.356661 0.900114
Si Si2 0.816543 0.301660 0.199696
Si Si3 0.685954 0.802891 0.000000
Si Si4 0.185155 0.054053 0.150647
Si Si5 0.684392 0.602445 0.443918
Si Si6 0.674517 0.798083 0.560264
Si Si7 0.814691 0.890098 0.250451
Si Si8 0.312457 0.447150 0.654179
O O1 0.769782 0.323219 0.853937
O O2 0.748704 0.408280 0.888786
O O3 0.000000 0.360129 0.900287
O O4 0.766256 0.331888 0.951066
O O5 0.750000 0.250000 0.206414
O O6 0.755112 0.339442 0.239024
O O7 0.000000 0.299859 0.201338
O O8 0.750000 0.750000 0.000000
O O9 0.500000 0.800016 0.000000
O O10 0.227836 0.075050 0.204876
O O11 0.000000 0.054272 0.148048
O O12 0.236803 0.000000 0.144709
O O13 0.742638 0.593211 0.500000
O O14 0.500000 0.599485 0.445935
O O15 0.730395 0.655227 0.428866
O O16 0.739157 0.568279 0.400528
O O17 0.671117 0.795059 0.500000
O O18 0.500000 0.802576 0.577624
O O19 0.750000 0.750000 0.578687
O O20 0.763749 0.911963 0.302525
O O21 0.000000 0.886615 0.250432
O O22 0.500000 0.446540 0.653920
O O23 0.264183 0.500000 0.665736
#
# Coordination Sequence:
#
# PCOD9486302 Si02
#       8
#    16  16   8  16  16  16  16  16
#     4   9  19  33  49  72 101 132 166 203 241 286
#     4  10  19  32  51  75 102 130 161 197 240 288
#     4  10  20  34  51  72  99 131 168 205 243 288
#     4   9  17  30  50  74  97 124 162 206 248 289
#     4   9  17  29  46  70  99 127 156 191 230 276
#     4   9  16  27  45  67  90 117 150 187 226 268
#     4   9  17  31  51  73  97 125 159 199 241 286
#     4   9  17  30  50  74  97 123 157 196 237 281
#
# _framework density 17.966646000000001
#
# number of rings (size 3 to 8) (size 9 to 14) (size 15 to 20)
#    0.000    2.800    0.000    1.600    0.000    4.800 
#    0.000    3.000    0.000    4.400    0.000    1.867 
#    0.000    0.000    0.000    0.000    0.000    0.000 
#
# Total GULP energy -334441.992947 kJ/mol
# GULP energy per Si atom -5574.033216 kJ/mol
# Density = 1.792575 g / cm^3
# Si number density = 17.966646 Si / 1000 Ang^3
#
#
#
# Elastic Constant Matrix: (Units=GPa)
#
#
# Indices 1 2 3 4 5 6 
#
# 1 8.2887 23.8648 20.2489 0.0000 0.0000 0.0000
# 2 23.8648 166.9861 78.8220 0.0000 0.0000 0.0000
# 3 20.2489 78.8220 108.8150 0.0000 0.0000 0.0000
# 4 0.0000 0.0000 0.0000 21.7501 0.0000 0.0000
# 5 0.0000 0.0000 0.0000 0.0000 12.3397 0.0000
# 6 0.0000 0.0000 0.0000 0.0000 0.0000 25.8764
#
#
#
# Elastic Compliance Matrix: (Units=1/GPa)
#
#
# Indices 1 2 3 4 5 6 
#
# 1 0.266601 -0.022313 -0.033448 0.000000 0.000000 0.000000
# 2 -0.022313 0.010967 -0.003792 0.000000 0.000000 0.000000
# 3 -0.033448 -0.003792 0.018161 0.000000 0.000000 0.000000
# 4 0.000000 0.000000 0.000000 0.045977 0.000000 0.000000
# 5 0.000000 0.000000 0.000000 0.000000 0.081039 0.000000
# 6 0.000000 0.000000 0.000000 0.000000 0.000000 0.038645
#
#
# Mechanical properties :
#
#
# Convention : Reuss Voigt Hill
#
# Bulk Modulus (GPa) = 5.66177 58.88459 32.27318
# Shear Modulus (GPa) = 7.82018 22.73683 15.27851
#
# Velocity S-wave (km/s) = 2.08855 3.56125 2.91929
# Velocity P-wave (km/s) = 2.99570 7.05376 5.41894
#
# Compressibility (1/GPa) = 0.17662311
#
# Stress axis : x y z
#
# Youngs Moduli (GPa) = 3.75093 91.17855 55.06268
#
# Poissons Ratio (x) = 2.03447 1.84172
# Poissons Ratio (y) = 0.08369 0.20882
# Poissons Ratio (z) = 0.12546 0.34578
#
# Static dielectric constant tensor:
#      x y z
#    x 1.610290 0.000000 0.000000 
#    y 0.000000 1.593990 0.000000 
#    z 0.000000 0.000000 1.623050 
# 
# From -- ./inp_files/73946.got.cif
#   From: 2010.05.17/outbox.cif.g08.bks.cpg/sg65_37_cif.got.tgz:73946.got - 2010.06.03 17:01:31.
