data_PCOD9486306
_publ_section_title
;
Structure prediction by ZEFSAII (Michael W. Deem and Ramdas Pophale) SiO2 
 PCOD9486306
Probable space group: C M M M
;
_chemical_formula_sum "Si O2"
_cell_formula_units_Z 88
_cell_length_a 19.669317
_cell_length_b 8.586800
_cell_length_c 29.009705
_cell_angle_alpha 90.000000
_cell_angle_beta 90.000000
_cell_angle_gamma 90.000000
_cell_volume 4899.637386
_symmetry_space_group_name_H-M "C M M M"
_symmetry_group_IT_number 65
_symmetry_cell_setting 'orthorhombic'
loop_
_space_group_symop_operation_xyz
x,y,z
-x,-y,z
x,-y,-z
-x,y,-z
-x,-y,-z
x,y,-z
-x,y,z
x,-y,z
1/2+x,1/2+y,z
1/2-x,1/2-y,z
1/2+x,1/2-y,-z
1/2-x,1/2+y,-z
1/2-x,1/2-y,-z
1/2+x,1/2+y,-z
1/2-x,1/2+y,z
1/2+x,1/2-y,z
loop_
_atom_site_type_symbol
_atom_site_label
_atom_site_fract_x
_atom_site_fract_y
_atom_site_fract_z
Si Si1 0.826286 0.812671 0.864957
Si Si2 0.921559 0.810310 0.948393
Si Si3 0.920646 0.186026 0.686105
Si Si4 0.826100 0.314823 0.233795
Si Si5 0.578657 0.811911 0.584898
Si Si6 0.673367 0.188443 0.500000
O O1 0.750000 0.750000 0.871109
O O2 0.873425 0.758454 0.907065
O O3 0.850860 0.753286 0.815171
O O4 0.824916 0.000000 0.864219
O O5 0.000000 0.763275 0.941432
O O6 0.920642 0.000000 0.948170
O O7 0.900257 0.760947 0.000000
O O8 0.873909 0.263164 0.724564
O O9 0.903238 0.242754 0.634631
O O10 0.000000 0.226700 0.693727
O O11 0.913780 0.000000 0.688624
O O12 0.822840 0.500000 0.230534
O O13 0.750000 0.250000 0.241106
O O14 0.500000 0.768406 0.574199
O O15 0.630399 0.762230 0.545008
O O16 0.580645 0.000000 0.587740
O O17 0.750000 0.250000 0.500000
O O18 0.675245 0.000000 0.500000
#
# Coordination Sequence:
#
# PCOD9486306 Si02
#       6
#    16  16  16  16  16   8
#     4  10  19  32  51  75 103 135 171 212 258 309
#     4   8  15  29  49  73 100 131 169 211 254 302
#     4  10  21  37  57  82 110 139 175 218 263 314
#     4  11  22  37  56  77 105 140 177 218 265 316
#     4   9  18  35  57  78 103 139 181 219 257 304
#     4  10  21  35  53  79 109 140 174 216 262 310
#
# _framework density 17.960514
#
# number of rings (size 3 to 8) (size 9 to 14) (size 15 to 20)
#    0.000    2.364    0.000    4.636    0.000    4.727 
#    0.000    3.636    0.000    6.000    0.000    5.091 
#    0.000    0.000    0.000    0.000    0.000    0.000 
#
# Total GULP energy -245549.055417 kJ/mol
# GULP energy per Si atom -5580.660350 kJ/mol
# Density = 1.791964 g / cm^3
# Si number density = 17.960514 Si / 1000 Ang^3
#
#
#
# Elastic Constant Matrix: (Units=GPa)
#
#
# Indices 1 2 3 4 5 6 
#
# 1 92.4174 35.0295 111.9381 0.0000 0.0000 0.0000
# 2 35.0295 53.4814 51.0213 0.0000 0.0000 0.0000
# 3 111.9381 51.0213 188.1594 0.0000 0.0000 0.0000
# 4 0.0000 0.0000 0.0000 22.0962 0.0000 0.0000
# 5 0.0000 0.0000 0.0000 0.0000 45.6259 0.0000
# 6 0.0000 0.0000 0.0000 0.0000 0.0000 24.6256
#
#
#
# Elastic Compliance Matrix: (Units=1/GPa)
#
#
# Indices 1 2 3 4 5 6 
#
# 1 0.039569 -0.004667 -0.022274 0.000000 0.000000 0.000000
# 2 -0.004667 0.025773 -0.004212 0.000000 0.000000 0.000000
# 3 -0.022274 -0.004212 0.019708 0.000000 0.000000 0.000000
# 4 0.000000 0.000000 0.000000 0.045257 0.000000 0.000000
# 5 0.000000 0.000000 0.000000 0.000000 0.021917 0.000000
# 6 0.000000 0.000000 0.000000 0.000000 0.000000 0.040608
#
#
# Mechanical properties :
#
#
# Convention : Reuss Voigt Hill
#
# Bulk Modulus (GPa) = 43.96987 81.11509 62.54248
# Shear Modulus (GPa) = 19.03167 27.54084 23.28625
#
# Velocity S-wave (km/s) = 3.25874 3.92013 3.60464
# Velocity P-wave (km/s) = 6.22043 8.10869 7.22650
#
# Compressibility (1/GPa) = 0.02274285
#
# Stress axis : x y z
#
# Youngs Moduli (GPa) = 25.27262 38.79966 50.74092
#
# Poissons Ratio (x) = 0.18109 1.13021
# Poissons Ratio (y) = 0.11795 0.21373
# Poissons Ratio (z) = 0.56293 0.16343
#
# Static dielectric constant tensor:
#      x y z
#    x 1.594000 0.000000 0.000000 
#    y 0.000000 1.612910 0.000000 
#    z 0.000000 0.000000 1.603210 
# 
# From -- ./inp_files/75347.got.cif
#   From: 2010.05.17/outbox.cif.g08.bks.cpg/sg65_38_cif.got.tgz:75347.got - 2010.06.03 17:01:31.
