data_PCOD9486201
_publ_section_title
;
Structure prediction by ZEFSAII (Michael W. Deem and Ramdas Pophale) SiO2 
 PCOD9486201
Probable space group: C M M M
;
_chemical_formula_sum "Si O2"
_cell_formula_units_Z 56
_cell_length_a 8.108274
_cell_length_b 24.224552
_cell_length_c 16.139508
_cell_angle_alpha 90.000000
_cell_angle_beta 90.000000
_cell_angle_gamma 90.000000
_cell_volume 3170.110947
_symmetry_space_group_name_H-M "C M M M"
_symmetry_group_IT_number 65
_symmetry_cell_setting 'orthorhombic'
loop_
_space_group_symop_operation_xyz
x,y,z
-x,-y,z
x,-y,-z
-x,y,-z
-x,-y,-z
x,y,-z
-x,y,z
x,-y,z
1/2+x,1/2+y,z
1/2-x,1/2-y,z
1/2+x,1/2-y,-z
1/2-x,1/2+y,-z
1/2-x,1/2-y,-z
1/2+x,1/2+y,-z
1/2-x,1/2+y,z
1/2+x,1/2-y,z
loop_
_atom_site_type_symbol
_atom_site_label
_atom_site_fract_x
_atom_site_fract_y
_atom_site_fract_z
Si Si1 0.698776 0.314040 0.000000
Si Si2 0.697242 0.314009 0.181079
Si Si3 0.698798 0.881632 0.340785
Si Si4 0.798360 0.500000 0.402952
Si Si5 0.800922 0.313194 0.500000
O O1 0.750000 0.250000 0.000000
O O2 0.757881 0.334356 0.090063
O O3 0.500000 0.318519 0.000000
O O4 0.500000 0.313922 0.179721
O O5 0.750000 0.250000 0.193608
O O6 0.753605 0.353061 0.255135
O O7 0.500000 0.882647 0.344366
O O8 0.758304 0.844281 0.417627
O O9 0.756322 0.944131 0.357395
O O10 0.749019 0.500000 0.500000
O O11 0.000000 0.500000 0.403358
O O12 0.750000 0.250000 0.500000
O O13 0.000000 0.315999 0.500000
#
# Coordination Sequence:
#
# PCOD9486201 Si02
#       5
#     8  16  16   8   8
#     4   8  16  30  48  69  96 129 161 194 238 292
#     4  10  19  32  50  74 102 130 161 199 244 294
#     4  10  19  32  51  73  96 127 165 204 242 287
#     4   9  16  32  55  72  91 126 172 209 241 284
#     4  10  20  31  45  67  97 128 157 190 235 288
#
# _framework density 17.664997
#
# number of rings (size 3 to 8) (size 9 to 14) (size 15 to 20)
#    0.000    2.429    1.429    1.714    0.000    4.571 
#    0.000    0.714    0.000    1.714    0.000    6.000 
#    0.000    0.000    0.000    0.000    0.000    0.000 
#
# Total GULP energy -156059.768860 kJ/mol
# GULP energy per Si atom -5573.563174 kJ/mol
# Density = 1.762479 g / cm^3
# Si number density = 17.664997 Si / 1000 Ang^3
#
#
#
# Elastic Constant Matrix: (Units=GPa)
#
#
# Indices 1 2 3 4 5 6 
#
# 1 11.6401 13.1224 13.0983 0.0000 0.0000 0.0000
# 2 13.1224 148.9406 106.4675 0.0000 0.0000 0.0000
# 3 13.0983 106.4675 210.7844 0.0000 0.0000 0.0000
# 4 0.0000 0.0000 0.0000 5.5189 0.0000 0.0000
# 5 0.0000 0.0000 0.0000 0.0000 11.4238 0.0000
# 6 0.0000 0.0000 0.0000 0.0000 0.0000 18.1483
#
#
#
# Elastic Compliance Matrix: (Units=1/GPa)
#
#
# Indices 1 2 3 4 5 6 
#
# 1 0.096327 -0.006586 -0.002659 0.000000 0.000000 0.000000
# 2 -0.006586 0.010958 -0.005126 0.000000 0.000000 0.000000
# 3 -0.002659 -0.005126 0.007499 0.000000 0.000000 0.000000
# 4 0.000000 0.000000 0.000000 0.181197 0.000000 0.000000
# 5 0.000000 0.000000 0.000000 0.000000 0.087537 0.000000
# 6 0.000000 0.000000 0.000000 0.000000 0.000000 0.055102
#
#
# Mechanical properties :
#
#
# Convention : Reuss Voigt Hill
#
# Bulk Modulus (GPa) = 11.62227 70.74904 41.18565
# Shear Modulus (GPa) = 10.07979 22.92998 16.50489
#
# Velocity S-wave (km/s) = 2.39133 3.60675 3.05999
# Velocity P-wave (km/s) = 3.77070 7.58170 5.98750
#
# Compressibility (1/GPa) = 0.08604173
#
# Stress axis : x y z
#
# Youngs Moduli (GPa) = 10.38132 91.25351 133.35957
#
# Poissons Ratio (x) = 0.60099 0.35464
# Poissons Ratio (y) = 0.06837 0.68359
# Poissons Ratio (z) = 0.02761 0.46776
#
# Static dielectric constant tensor:
#      x y z
#    x 1.638510 0.000000 0.000000 
#    y 0.000000 1.570070 0.000000 
#    z 0.000000 0.000000 1.638970 
# 
# From -- ./inp_files/35583.got.cif
#   From: 2010.05.17/outbox.cif.g08.bks.cpg/sg65_18_cif.got.tgz:35583.got - 2010.06.03 17:01:31.
