data_PCOD9486582
_publ_section_title
;
Structure prediction by ZEFSAII (Michael W. Deem and Ramdas Pophale) SiO2 
 PCOD9486582
Probable space group: C M M M
;
_chemical_formula_sum "Si O2"
_cell_formula_units_Z 120
_cell_length_a 18.890030
_cell_length_b 19.926682
_cell_length_c 19.030934
_cell_angle_alpha 90.000000
_cell_angle_beta 90.000000
_cell_angle_gamma 90.000000
_cell_volume 7163.540836
_symmetry_space_group_name_H-M "C M M M"
_symmetry_group_IT_number 65
_symmetry_cell_setting 'orthorhombic'
loop_
_space_group_symop_operation_xyz
x,y,z
-x,-y,z
x,-y,-z
-x,y,-z
-x,-y,-z
x,y,-z
-x,y,z
x,-y,z
1/2+x,1/2+y,z
1/2-x,1/2-y,z
1/2+x,1/2-y,-z
1/2-x,1/2+y,-z
1/2-x,1/2-y,-z
1/2+x,1/2+y,-z
1/2-x,1/2+y,z
1/2+x,1/2-y,z
loop_
_atom_site_type_symbol
_atom_site_label
_atom_site_fract_x
_atom_site_fract_y
_atom_site_fract_z
Si Si1 0.211168 0.822152 0.663471
Si Si2 0.415764 0.000000 0.580338
Si Si3 0.641551 0.133241 0.649082
Si Si4 0.917930 0.769788 0.583779
Si Si5 0.683344 0.298729 0.824128
Si Si6 0.881623 0.577517 0.918967
Si Si7 0.210490 0.075620 0.917489
Si Si8 0.081395 0.678832 0.797290
O O1 0.250000 0.750000 0.654132
O O2 0.273629 0.871107 0.639968
O O3 0.138155 0.819004 0.621268
O O4 0.196293 0.827305 0.746033
O O5 0.392119 0.065471 0.622093
O O6 0.500000 0.000000 0.576679
O O7 0.388243 0.000000 0.500000
O O8 0.607279 0.195346 0.606522
O O9 0.624563 0.150003 0.730545
O O10 0.912788 0.776069 0.500000
O O11 0.000000 0.779717 0.604493
O O12 0.750000 0.250000 0.842337
O O13 0.678906 0.361617 0.875886
O O14 0.616703 0.249014 0.819675
O O15 0.902692 0.500000 0.906777
O O16 0.796108 0.580646 0.912187
O O17 0.913089 0.627422 0.861965
O O18 0.899475 0.594468 0.000000
O O19 0.190932 0.000000 0.893032
O O20 0.192990 0.080180 0.000000
O O21 0.000000 0.687314 0.776169
#
# Coordination Sequence:
#
# PCOD9486582 Si02
#       8
#    16   8  16  16  16  16  16  16
#     4   9  18  33  51  75 104 137 177 221 269 317
#     4  11  24  38  52  74 110 154 192 222 260 323
#     4  11  21  36  52  76 108 147 188 226 263 319
#     4  10  19  32  54  81 108 138 172 218 275 325
#     4  11  18  35  54  79 109 140 180 232 277 321
#     4   9  19  35  52  74 108 148 187 223 264 323
#     4   9  18  33  56  83 108 142 186 228 275 330
#     4  12  23  34  53  80 110 145 183 229 282 332
#
# _framework density 16.751493
#
# number of rings (size 3 to 8) (size 9 to 14) (size 15 to 20)
#    0.000    1.800    5.333    2.400    0.933    5.333 
#    1.200    0.667    0.000    0.400    0.000    1.400 
#    0.000    1.600    0.000    0.000    0.000    0.000 
#
# Total GULP energy -334624.622694 kJ/mol
# GULP energy per Si atom -5577.077045 kJ/mol
# Density = 1.671337 g / cm^3
# Si number density = 16.751493 Si / 1000 Ang^3
#
#
#
# Elastic Constant Matrix: (Units=GPa)
#
#
# Indices 1 2 3 4 5 6 
#
# 1 100.9850 40.9573 38.4138 0.0000 0.0000 0.0000
# 2 40.9573 87.7287 51.6194 0.0000 0.0000 0.0000
# 3 38.4138 51.6194 76.9527 0.0000 0.0000 0.0000
# 4 0.0000 0.0000 0.0000 4.3421 0.0000 0.0000
# 5 0.0000 0.0000 0.0000 0.0000 15.2207 0.0000
# 6 0.0000 0.0000 0.0000 0.0000 0.0000 10.9713
#
#
#
# Elastic Compliance Matrix: (Units=1/GPa)
#
#
# Indices 1 2 3 4 5 6 
#
# 1 0.012909 -0.003693 -0.003967 0.000000 0.000000 0.000000
# 2 -0.003693 0.019888 -0.011497 0.000000 0.000000 0.000000
# 3 -0.003967 -0.011497 0.022688 0.000000 0.000000 0.000000
# 4 0.000000 0.000000 0.000000 0.230303 0.000000 0.000000
# 5 0.000000 0.000000 0.000000 0.000000 0.065700 0.000000
# 6 0.000000 0.000000 0.000000 0.000000 0.000000 0.091147
#
#
# Mechanical properties :
#
#
# Convention : Reuss Voigt Hill
#
# Bulk Modulus (GPa) = 58.23924 58.62749 58.43336
# Shear Modulus (GPa) = 10.27387 15.08521 12.67954
#
# Velocity S-wave (km/s) = 2.47920 3.00414 2.75420
# Velocity P-wave (km/s) = 6.56028 6.86349 6.71360
#
# Compressibility (1/GPa) = 0.01717055
#
# Stress axis : x y z
#
# Youngs Moduli (GPa) = 77.46445 50.28246 44.07694
#
# Poissons Ratio (x) = 0.18567 0.17486
# Poissons Ratio (y) = 0.28604 0.50676
# Poissons Ratio (z) = 0.30731 0.57811
#
# Static dielectric constant tensor:
#      x y z
#    x 1.587060 0.000000 0.000000 
#    y 0.000000 1.558740 0.000000 
#    z 0.000000 0.000000 1.564120 
# 
# From -- ./inp_files/54987.got.cif
#   From: 2010.05.17/outbox.cif.g08.bks.cpg/sg65_28_cif.got.tgz:54987.got - 2010.06.03 17:01:31.
