data_PCOD9486592
_publ_section_title
;
Structure prediction by ZEFSAII (Michael W. Deem and Ramdas Pophale) SiO2 
 PCOD9486592
Probable space group: C M M M
;
_chemical_formula_sum "Si O2"
_cell_formula_units_Z 104
_cell_length_a 14.566487
_cell_length_b 18.233455
_cell_length_c 22.540586
_cell_angle_alpha 90.000000
_cell_angle_beta 90.000000
_cell_angle_gamma 90.000000
_cell_volume 5986.720703
_symmetry_space_group_name_H-M "C M M M"
_symmetry_group_IT_number 65
_symmetry_cell_setting 'orthorhombic'
loop_
_space_group_symop_operation_xyz
x,y,z
-x,-y,z
x,-y,-z
-x,y,-z
-x,-y,-z
x,y,-z
-x,y,z
x,-y,z
1/2+x,1/2+y,z
1/2-x,1/2-y,z
1/2+x,1/2-y,-z
1/2-x,1/2+y,-z
1/2-x,1/2-y,-z
1/2+x,1/2+y,-z
1/2-x,1/2+y,z
1/2+x,1/2-y,z
loop_
_atom_site_type_symbol
_atom_site_label
_atom_site_fract_x
_atom_site_fract_y
_atom_site_fract_z
Si Si1 0.394747 0.157079 0.068657
Si Si2 0.747411 0.418289 0.859228
Si Si3 0.608354 0.224519 0.292013
Si Si4 0.213730 0.581019 0.725673
Si Si5 0.891584 0.880753 0.663644
Si Si6 0.389382 0.500000 0.566778
Si Si7 0.107385 0.788695 0.837864
O O1 0.500000 0.130956 0.076098
O O2 0.319762 0.098964 0.089433
O O3 0.382454 0.226025 0.112540
O O4 0.382478 0.177726 0.000000
O O5 0.709041 0.500000 0.864790
O O6 0.800490 0.414656 0.796154
O O7 0.670111 0.356565 0.855453
O O8 0.500000 0.207603 0.290627
O O9 0.664328 0.150618 0.303458
O O10 0.622544 0.292952 0.336472
O O11 0.633677 0.255861 0.226592
O O12 0.184169 0.500000 0.704982
O O13 0.322464 0.588761 0.713157
O O14 0.000000 0.892899 0.676662
O O15 0.866885 0.927396 0.605100
O O16 0.500000 0.500000 0.562804
O O17 0.352073 0.500000 0.500000
O O18 0.000000 0.809037 0.833865
#
# Coordination Sequence:
#
# PCOD9486592 Si02
#       7
#    16  16  16  16  16   8  16
#     4  10  22  40  60  78  99 138 190 234 279 339
#     4  11  23  34  51  80 109 140 178 224 284 340
#     4  10  20  34  53  77 110 149 186 230 280 333
#     4  11  21  32  51  80 113 148 181 228 283 336
#     4  10  19  32  54  84 113 149 187 220 270 330
#     4   9  18  34  56  86 125 159 190 231 271 313
#     4  10  20  36  56  77 105 140 179 230 281 333
#
# _framework density 17.371780999999999
#
# number of rings (size 3 to 8) (size 9 to 14) (size 15 to 20)
#    0.000    1.769    3.846    0.923    0.000    2.462 
#    0.000    3.846    0.000    1.846    0.000    3.231 
#    0.000    0.615    0.000    0.000    0.000    0.000 
#
# Total GULP energy -289972.028979 kJ/mol
# GULP energy per Si atom -5576.385173 kJ/mol
# Density = 1.733224 g / cm^3
# Si number density = 17.371781 Si / 1000 Ang^3
#
#
#
# Elastic Constant Matrix: (Units=GPa)
#
#
# Indices 1 2 3 4 5 6 
#
# 1 56.6230 52.1869 17.0993 0.0000 0.0000 0.0000
# 2 52.1869 122.5099 31.9412 0.0000 0.0000 0.0000
# 3 17.0993 31.9412 75.2712 0.0000 0.0000 0.0000
# 4 0.0000 0.0000 0.0000 16.5194 0.0000 0.0000
# 5 0.0000 0.0000 0.0000 0.0000 12.6927 0.0000
# 6 0.0000 0.0000 0.0000 0.0000 0.0000 15.5398
#
#
#
# Elastic Compliance Matrix: (Units=1/GPa)
#
#
# Indices 1 2 3 4 5 6 
#
# 1 0.029231 -0.012054 -0.001525 0.000000 0.000000 0.000000
# 2 -0.012054 0.014149 -0.003266 0.000000 0.000000 0.000000
# 3 -0.001525 -0.003266 0.015018 0.000000 0.000000 0.000000
# 4 0.000000 0.000000 0.000000 0.060535 0.000000 0.000000
# 5 0.000000 0.000000 0.000000 0.000000 0.078785 0.000000
# 6 0.000000 0.000000 0.000000 0.000000 0.000000 0.064351
#
#
# Mechanical properties :
#
#
# Convention : Reuss Voigt Hill
#
# Bulk Modulus (GPa) = 40.47390 50.76210 45.61800
# Shear Modulus (GPa) = 16.44764 19.16215 17.80490
#
# Velocity S-wave (km/s) = 3.08035 3.32484 3.20493
# Velocity P-wave (km/s) = 6.00006 6.63505 6.32553
#
# Compressibility (1/GPa) = 0.02470728
#
# Stress axis : x y z
#
# Youngs Moduli (GPa) = 34.21012 70.67661 66.58856
#
# Poissons Ratio (x) = 0.85195 0.10156
# Poissons Ratio (y) = 0.41238 0.21746
# Poissons Ratio (z) = 0.05218 0.23081
#
# Static dielectric constant tensor:
#      x y z
#    x 1.608200 0.000000 0.000000 
#    y 0.000000 1.614410 0.000000 
#    z 0.000000 0.000000 1.576620 
# 
# From -- ./inp_files/62872.got.cif
#   From: 2010.05.17/outbox.cif.g08.bks.cpg/sg65_32_cif.got.tgz:62872.got - 2010.06.03 17:01:31.
