data_PCOD9486804
_publ_section_title
;
Structure prediction by ZEFSAII (Michael W. Deem and Ramdas Pophale) SiO2 
 PCOD9486804
Probable space group: C M M M
;
_chemical_formula_sum "Si O2"
_cell_formula_units_Z 120
_cell_length_a 13.542831
_cell_length_b 23.644657
_cell_length_c 21.574466
_cell_angle_alpha 90.000000
_cell_angle_beta 90.000000
_cell_angle_gamma 90.000000
_cell_volume 6908.480441
_symmetry_space_group_name_H-M "C M M M"
_symmetry_group_IT_number 65
_symmetry_cell_setting 'orthorhombic'
loop_
_space_group_symop_operation_xyz
x,y,z
-x,-y,z
x,-y,-z
-x,y,-z
-x,-y,-z
x,y,-z
-x,y,z
x,-y,z
1/2+x,1/2+y,z
1/2-x,1/2-y,z
1/2+x,1/2-y,-z
1/2-x,1/2+y,-z
1/2-x,1/2-y,-z
1/2+x,1/2+y,-z
1/2-x,1/2+y,z
1/2+x,1/2-y,z
loop_
_atom_site_type_symbol
_atom_site_label
_atom_site_fract_x
_atom_site_fract_y
_atom_site_fract_z
Si Si1 0.816285 0.145760 0.072425
Si Si2 0.115721 0.637683 0.865571
Si Si3 0.380658 0.063635 0.745982
Si Si4 0.616581 0.848857 0.358563
Si Si5 0.717469 0.684497 0.433196
Si Si6 0.116696 0.220072 0.688469
Si Si7 0.883596 0.768095 0.826172
Si Si8 0.500000 0.435315 0.074898
O O1 0.701805 0.129791 0.083996
O O2 0.835916 0.198858 0.117013
O O3 0.899500 0.099036 0.090840
O O4 0.831699 0.159023 0.000000
O O5 0.139187 0.593479 0.811131
O O6 0.123836 0.700756 0.836353
O O7 0.000000 0.631011 0.885046
O O8 0.500000 0.061424 0.741670
O O9 0.349496 0.104178 0.690158
O O10 0.341925 0.000000 0.742285
O O11 0.500000 0.854526 0.370645
O O12 0.683291 0.850195 0.419452
O O13 0.631795 0.786410 0.328633
O O14 0.671595 0.669565 0.500000
O O15 0.750000 0.750000 0.437724
O O16 0.656589 0.683453 0.369044
O O17 0.155095 0.212366 0.758590
O O18 0.000000 0.211333 0.690957
O O19 0.000000 0.781086 0.827618
O O20 0.500000 0.500000 0.098431
O O21 0.500000 0.438108 0.000000
#
# Coordination Sequence:
#
# PCOD9486804 Si02
#       8
#    16  16  16  16  16  16  16   8
#     4  11  23  37  56  81 109 144 183 226 274 327
#     4  10  21  34  52  79 112 146 179 219 278 340
#     4   9  17  31  50  73 100 132 174 218 260 311
#     4   9  16  28  46  68  96 132 171 206 248 300
#     4   9  18  28  42  68 100 133 165 199 245 304
#     4   9  17  29  48  71 100 136 169 205 254 312
#     4  10  19  33  53  78 108 141 179 223 273 329
#     4   9  20  42  64  78 100 140 188 230 272 324
#
# _framework density 17.369955999999998
#
# number of rings (size 3 to 8) (size 9 to 14) (size 15 to 20)
#    0.000    2.467    2.000    0.400    1.867    3.467 
#    0.000    4.000    0.000    0.400    0.000    5.600 
#    0.000    0.000    0.000    1.200    0.000    1.333 
#
# Total GULP energy -334040.375318 kJ/mol
# GULP energy per Si atom -5567.339589 kJ/mol
# Density = 1.733042 g / cm^3
# Si number density = 17.369956 Si / 1000 Ang^3
#
#
#
# Elastic Constant Matrix: (Units=GPa)
#
#
# Indices 1 2 3 4 5 6 
#
# 1 82.4935 22.0106 43.2477 0.0000 0.0000 0.0000
# 2 22.0106 69.3247 33.9608 0.0000 0.0000 0.0000
# 3 43.2477 33.9608 108.9226 0.0000 0.0000 0.0000
# 4 0.0000 0.0000 0.0000 -8.4457 0.0000 0.0000
# 5 0.0000 0.0000 0.0000 0.0000 22.1634 0.0000
# 6 0.0000 0.0000 0.0000 0.0000 0.0000 10.1735
#
#
#
# Elastic Compliance Matrix: (Units=1/GPa)
#
#
# Indices 1 2 3 4 5 6 
#
# 1 0.015604 -0.002265 -0.005489 0.000000 0.000000 0.000000
# 2 -0.002265 0.017354 -0.004511 0.000000 0.000000 0.000000
# 3 -0.005489 -0.004511 0.012767 0.000000 0.000000 0.000000
# 4 0.000000 0.000000 0.000000 -0.118404 0.000000 0.000000
# 5 0.000000 0.000000 0.000000 0.000000 0.045119 0.000000
# 6 0.000000 0.000000 0.000000 0.000000 0.000000 0.098295
#
#
# Mechanical properties :
#
#
# Convention : Reuss Voigt Hill
#
# Bulk Modulus (GPa) = 47.18453 51.01990 49.10221
# Shear Modulus (GPa) = 48.86024 15.54635 32.20329
#
# Velocity S-wave (km/s) = 5.30945 2.99492 4.31044
# Velocity P-wave (km/s) = 8.05049 6.43395 7.28718
#
# Compressibility (1/GPa) = 0.02119339
#
# Stress axis : x y z
#
# Youngs Moduli (GPa) = 64.08425 57.62321 78.32675
#
# Poissons Ratio (x) = 0.13053 0.42997
# Poissons Ratio (y) = 0.14517 0.35336
# Poissons Ratio (z) = 0.35179 0.25996
#
# Static dielectric constant tensor:
#      x y z
#    x 1.653290 0.000000 0.000000 
#    y 0.000000 1.586150 0.000000 
#    z 0.000000 0.000000 1.610990 
# 
# From -- ./inp_files/63013.got.cif
#   From: 2010.05.17/outbox.cif.g08.bks.cpg/sg65_32_cif.got.tgz:63013.got - 2010.06.03 17:01:31.
