data_PCOD9486820
_publ_section_title
;
Structure prediction by ZEFSAII (Michael W. Deem and Ramdas Pophale) SiO2 
 PCOD9486820
Probable space group: C M M M
;
_chemical_formula_sum "Si O2"
_cell_formula_units_Z 104
_cell_length_a 29.624469
_cell_length_b 19.462435
_cell_length_c 7.677400
_cell_angle_alpha 90.000000
_cell_angle_beta 90.000000
_cell_angle_gamma 90.000000
_cell_volume 4426.514775
_symmetry_space_group_name_H-M "C M M M"
_symmetry_group_IT_number 65
_symmetry_cell_setting 'orthorhombic'
loop_
_space_group_symop_operation_xyz
x,y,z
-x,-y,z
x,-y,-z
-x,y,-z
-x,-y,-z
x,y,-z
-x,y,z
x,-y,z
1/2+x,1/2+y,z
1/2-x,1/2-y,z
1/2+x,1/2-y,-z
1/2-x,1/2+y,-z
1/2-x,1/2-y,-z
1/2+x,1/2+y,-z
1/2-x,1/2+y,z
1/2+x,1/2-y,z
loop_
_atom_site_type_symbol
_atom_site_label
_atom_site_fract_x
_atom_site_fract_y
_atom_site_fract_z
Si Si1 0.781617 0.812673 0.802500
Si Si2 0.791004 0.580336 0.288757
Si Si3 0.051217 0.500000 0.713699
Si Si4 0.451214 0.752902 0.205131
Si Si5 0.049664 0.902063 0.699335
Si Si6 0.651526 0.575716 0.204760
Si Si7 0.111384 0.373715 0.291443
O O1 0.750000 0.750000 0.726159
O O2 0.748090 0.877153 0.799197
O O3 0.825951 0.852708 0.724471
O O4 0.793136 0.789745 0.000000
O O5 0.786885 0.587208 0.500000
O O6 0.790378 0.500000 0.248372
O O7 0.838347 0.612584 0.230266
O O8 0.051091 0.500000 0.500000
O O9 0.078081 0.566939 0.773085
O O10 0.000000 0.500000 0.772407
O O11 0.500000 0.786407 0.249776
O O12 0.449265 0.680431 0.297714
O O13 0.409911 0.801382 0.246991
O O14 0.450954 0.738530 0.000000
O O15 0.050420 0.925080 0.500000
O O16 0.097144 0.923082 0.781552
O O17 0.000000 0.921131 0.774621
O O18 0.666511 0.500000 0.276681
O O19 0.662910 0.576063 0.000000
O O20 0.112975 0.380093 0.500000
#
# Coordination Sequence:
#
# PCOD9486820 Si02
#       7
#    16  16   8  16  16  16  16
#     4  10  23  42  64  92 123 158 202 251 302 360
#     4  10  21  38  59  86 121 156 196 249 304 360
#     4   9  16  28  49  75 107 151 199 243 290 347
#     4  10  21  36  54  79 114 155 198 247 302 358
#     4  10  22  40  63  92 124 158 199 248 303 364
#     4  10  22  41  64  91 127 168 206 248 303 367
#     4  10  19  33  53  80 112 150 198 247 297 353
#
# _framework density 23.494782000000001
#
# number of rings (size 3 to 8) (size 9 to 14) (size 15 to 20)
#    0.000    2.077    0.769    1.846    2.154    5.538 
#    0.000    1.923    0.000    1.385    0.000    0.000 
#    0.000    0.000    0.000    0.000    0.000    0.000 
#
# Total GULP energy -290252.364572 kJ/mol
# GULP energy per Si atom -5581.776242 kJ/mol
# Density = 2.344131 g / cm^3
# Si number density = 23.494782 Si / 1000 Ang^3
#
#
#
# Elastic Constant Matrix: (Units=GPa)
#
#
# Indices 1 2 3 4 5 6 
#
# 1 137.3549 50.1924 17.1958 0.0000 0.0000 0.0000
# 2 50.1924 113.4226 -4.5024 0.0000 0.0000 0.0000
# 3 17.1958 -4.5024 28.5540 0.0000 0.0000 0.0000
# 4 0.0000 0.0000 0.0000 14.0457 0.0000 0.0000
# 5 0.0000 0.0000 0.0000 0.0000 27.5451 0.0000
# 6 0.0000 0.0000 0.0000 0.0000 0.0000 34.5704
#
#
#
# Elastic Compliance Matrix: (Units=1/GPa)
#
#
# Indices 1 2 3 4 5 6 
#
# 1 0.009788 -0.004594 -0.006619 0.000000 0.000000 0.000000
# 2 -0.004594 0.011028 0.004506 0.000000 0.000000 0.000000
# 3 -0.006619 0.004506 0.039718 0.000000 0.000000 0.000000
# 4 0.000000 0.000000 0.000000 0.071196 0.000000 0.000000
# 5 0.000000 0.000000 0.000000 0.000000 0.036304 0.000000
# 6 0.000000 0.000000 0.000000 0.000000 0.000000 0.028927
#
#
# Mechanical properties :
#
#
# Convention : Reuss Voigt Hill
#
# Bulk Modulus (GPa) = 21.22265 45.01146 33.11706
# Shear Modulus (GPa) = 22.11590 29.66196 25.88893
#
# Velocity S-wave (km/s) = 3.07141 3.55701 3.32309
# Velocity P-wave (km/s) = 4.65087 6.00578 5.37122
#
# Compressibility (1/GPa) = 0.04711947
#
# Stress axis : x y z
#
# Youngs Moduli (GPa) = 102.16786 90.67465 25.17763
#
# Poissons Ratio (x) = 0.41657 0.16665
# Poissons Ratio (y) = 0.46937 -0.11344
# Poissons Ratio (z) = 0.67623 -0.40855
#
# Static dielectric constant tensor:
#      x y z
#    x 1.986620 0.000000 0.000000 
#    y 0.000000 0.988360 0.000000 
#    z 0.000000 0.000000 1.886280 
# 
# From -- ./inp_files/16459.got.cif
#   From: 2010.05.17/outbox.cif.g08.bks.cpg/sg65_9_cif.got.tgz:16459.got - 2010.06.03 17:01:31.
