data_PCOD9486995
_publ_section_title
;
Structure prediction by ZEFSAII (Michael W. Deem and Ramdas Pophale) SiO2 
 PCOD9486995
Probable space group: C M M M
;
_chemical_formula_sum "Si O2"
_cell_formula_units_Z 104
_cell_length_a 21.570843
_cell_length_b 29.103742
_cell_length_c 8.062282
_cell_angle_alpha 90.000000
_cell_angle_beta 90.000000
_cell_angle_gamma 90.000000
_cell_volume 5061.438152
_symmetry_space_group_name_H-M "C M M M"
_symmetry_group_IT_number 65
_symmetry_cell_setting 'orthorhombic'
loop_
_space_group_symop_operation_xyz
x,y,z
-x,-y,z
x,-y,-z
-x,y,-z
-x,-y,-z
x,y,-z
-x,y,z
x,-y,z
1/2+x,1/2+y,z
1/2-x,1/2-y,z
1/2+x,1/2-y,-z
1/2-x,1/2+y,-z
1/2-x,1/2-y,-z
1/2+x,1/2+y,-z
1/2-x,1/2+y,z
1/2+x,1/2-y,z
loop_
_atom_site_type_symbol
_atom_site_label
_atom_site_fract_x
_atom_site_fract_y
_atom_site_fract_z
Si Si1 0.500000 0.551672 0.804459
Si Si2 0.672615 0.948637 0.798568
Si Si3 0.405170 0.627008 0.306562
Si Si4 0.567766 0.728377 0.296552
Si Si5 0.428578 0.879422 0.799386
Si Si6 0.734521 0.631637 0.803622
Si Si7 0.835851 0.699274 0.307103
O O1 0.500000 0.500000 0.730346
O O2 0.559858 0.582570 0.761486
O O3 0.500000 0.546710 0.000000
O O4 0.605578 0.927253 0.759473
O O5 0.722814 0.910924 0.744058
O O6 0.682027 0.000000 0.735371
O O7 0.676697 0.950080 0.000000
O O8 0.419935 0.627482 0.500000
O O9 0.429050 0.675818 0.238413
O O10 0.331716 0.628346 0.280982
O O11 0.569951 0.729312 0.500000
O O12 0.500000 0.748034 0.248777
O O13 0.628223 0.756204 0.238203
O O14 0.500000 0.878409 0.752093
O O15 0.388355 0.839928 0.714072
O O16 0.423806 0.872849 0.000000
O O17 0.774072 0.677999 0.772277
O O18 0.725295 0.627108 0.000000
O O19 0.821808 0.707003 0.500000
#
# Coordination Sequence:
#
# PCOD9486995 Si02
#       7
#     8  16  16  16  16  16  16
#     4  11  25  45  67  93 125 157 191 233 290 359
#     4   8  15  29  49  71  97 136 182 225 272 328
#     4  11  22  40  65  89 115 147 190 239 287 340
#     4   9  18  34  57  84 113 147 189 239 287 338
#     4   9  17  29  46  72 107 140 177 231 286 333
#     4  10  21  37  55  80 117 150 185 237 294 349
#     4  10  19  33  55  80 108 149 197 233 275 338
#
# _framework density 20.547519000000001
#
# number of rings (size 3 to 8) (size 9 to 14) (size 15 to 20)
#    0.000    2.385    0.769    3.000    0.000    3.077 
#    0.000    9.231    0.000   11.077    0.000    4.308 
#    0.000    0.000    0.000    0.000    0.000    0.000 
#
# Total GULP energy -290092.574756 kJ/mol
# GULP energy per Si atom -5578.703361 kJ/mol
# Density = 2.050075 g / cm^3
# Si number density = 20.547519 Si / 1000 Ang^3
#
#
#
# Elastic Constant Matrix: (Units=GPa)
#
#
# Indices 1 2 3 4 5 6 
#
# 1 120.2688 41.3060 -2.2312 0.0000 0.0000 0.0000
# 2 41.3060 122.1838 6.4150 0.0000 0.0000 0.0000
# 3 -2.2312 6.4150 17.7450 0.0000 0.0000 0.0000
# 4 0.0000 0.0000 0.0000 17.2723 0.0000 0.0000
# 5 0.0000 0.0000 0.0000 0.0000 849.4304 0.0000
# 6 0.0000 0.0000 0.0000 0.0000 0.0000 -8.3932
#
#
#
# Elastic Compliance Matrix: (Units=1/GPa)
#
#
# Indices 1 2 3 4 5 6 
#
# 1 0.009506 -0.003340 0.002403 0.000000 0.000000 0.000000
# 2 -0.003340 0.009516 -0.003860 0.000000 0.000000 0.000000
# 3 0.002403 -0.003860 0.058052 0.000000 0.000000 0.000000
# 4 0.000000 0.000000 0.000000 0.057896 0.000000 0.000000
# 5 0.000000 0.000000 0.000000 0.000000 0.001177 0.000000
# 6 0.000000 0.000000 0.000000 0.000000 0.000000 -0.119144
#
#
# Mechanical properties :
#
#
# Convention : Reuss Voigt Hill
#
# Bulk Modulus (GPa) = 14.81932 39.01967 26.91950
# Shear Modulus (GPa) = 101.84991 185.97576 143.91284
#
# Velocity S-wave (km/s) = 7.04809 9.52400 8.37801
# Velocity P-wave (km/s) = 8.57100 11.83103 10.33042
#
# Compressibility (1/GPa) = 0.06747946
#
# Stress axis : x y z
#
# Youngs Moduli (GPa) = 105.19272 105.08443 17.22606
#
# Poissons Ratio (x) = 0.35097 -0.04139
# Poissons Ratio (y) = 0.35133 0.06649
# Poissons Ratio (z) = -0.25275 0.40564
#
# Static dielectric constant tensor:
#      x y z
#    x 1.727580 0.000000 0.000000 
#    y 0.000000 1.762480 0.000000 
#    z 0.000000 0.000000 1.734650 
# 
# From -- ./inp_files/12456.got.cif
#   From: 2010.05.17/outbox.cif.g08.bks.cpg/sg65_7_cif.got.tgz:12456.got - 2010.06.03 17:01:31.
