data_PCOD9486207
_publ_section_title
;
Structure prediction by ZEFSAII (Michael W. Deem and Ramdas Pophale) SiO2 
 PCOD9486207
Probable space group: C M M M
;
_chemical_formula_sum "Si O2"
_cell_formula_units_Z 72
_cell_length_a 13.775378
_cell_length_b 27.629290
_cell_length_c 10.716571
_cell_angle_alpha 90.000000
_cell_angle_beta 90.000000
_cell_angle_gamma 90.000000
_cell_volume 4078.768863
_symmetry_space_group_name_H-M "C M M M"
_symmetry_group_IT_number 65
_symmetry_cell_setting 'orthorhombic'
loop_
_space_group_symop_operation_xyz
x,y,z
-x,-y,z
x,-y,-z
-x,y,-z
-x,-y,-z
x,y,-z
-x,y,z
x,-y,z
1/2+x,1/2+y,z
1/2-x,1/2-y,z
1/2+x,1/2-y,-z
1/2-x,1/2+y,-z
1/2-x,1/2-y,-z
1/2+x,1/2+y,-z
1/2-x,1/2+y,z
1/2+x,1/2-y,z
loop_
_atom_site_type_symbol
_atom_site_label
_atom_site_fract_x
_atom_site_fract_y
_atom_site_fract_z
Si Si1 0.784132 0.943088 0.139014
Si Si2 0.772990 0.304603 0.646158
Si Si3 0.114258 0.887325 0.358720
Si Si4 0.885782 0.612573 0.247149
Si Si5 0.382934 0.054664 0.500000
O O1 0.851330 0.922973 0.249580
O O2 0.683504 0.913420 0.148727
O O3 0.765372 0.000000 0.156540
O O4 0.825987 0.936148 0.000000
O O5 0.803472 0.303511 0.500000
O O6 0.750000 0.250000 0.684682
O O7 0.677622 0.338490 0.654135
O O8 0.853314 0.332443 0.727382
O O9 0.132883 0.906327 0.500000
O O10 0.000000 0.877680 0.348537
O O11 0.859081 0.584479 0.376302
O O12 0.000000 0.607951 0.223648
O O13 0.500000 0.051139 0.500000
O O14 0.343515 0.000000 0.500000
#
# Coordination Sequence:
#
# PCOD9486207 Si02
#       5
#    16  16  16  16   8
#     4  10  22  37  53  77 108 142 178 217 264 316
#     4   9  17  30  50  78 111 141 171 216 271 321
#     4   9  19  36  56  79 106 137 177 222 267 314
#     4  10  19  32  50  75 107 140 175 214 260 315
#     4   9  16  26  43  70 101 133 168 205 248 298
#
# _framework density 17.652384999999999
#
# number of rings (size 3 to 8) (size 9 to 14) (size 15 to 20)
#    0.000    2.556    1.111    0.667    1.556    4.000 
#    0.000    5.556    0.000   10.667    0.000   12.444 
#    0.000    0.000    0.000    0.000    0.000    0.000 
#
# Total GULP energy -200701.654138 kJ/mol
# GULP energy per Si atom -5575.045948 kJ/mol
# Density = 1.761221 g / cm^3
# Si number density = 17.652385 Si / 1000 Ang^3
#
#
#
# Elastic Constant Matrix: (Units=GPa)
#
#
# Indices 1 2 3 4 5 6 
#
# 1 75.6215 6.1276 24.6127 0.0000 0.0000 0.0000
# 2 6.1276 104.5978 37.9990 0.0000 0.0000 0.0000
# 3 24.6127 37.9990 85.0568 0.0000 0.0000 0.0000
# 4 0.0000 0.0000 0.0000 30.3574 0.0000 0.0000
# 5 0.0000 0.0000 0.0000 0.0000 15.2676 0.0000
# 6 0.0000 0.0000 0.0000 0.0000 0.0000 13.0537
#
#
#
# Elastic Compliance Matrix: (Units=1/GPa)
#
#
# Indices 1 2 3 4 5 6 
#
# 1 0.014657 0.000814 -0.004605 0.000000 0.000000 0.000000
# 2 0.000814 0.011458 -0.005354 0.000000 0.000000 0.000000
# 3 -0.004605 -0.005354 0.015481 0.000000 0.000000 0.000000
# 4 0.000000 0.000000 0.000000 0.032941 0.000000 0.000000
# 5 0.000000 0.000000 0.000000 0.000000 0.065498 0.000000
# 6 0.000000 0.000000 0.000000 0.000000 0.000000 0.076607
#
#
# Mechanical properties :
#
#
# Convention : Reuss Voigt Hill
#
# Bulk Modulus (GPa) = 42.90780 44.75053 43.82917
# Shear Modulus (GPa) = 20.60153 24.83819 22.71986
#
# Velocity S-wave (km/s) = 3.41994 3.75517 3.59147
# Velocity P-wave (km/s) = 6.32096 6.64889 6.48700
#
# Compressibility (1/GPa) = 0.02330578
#
# Stress axis : x y z
#
# Youngs Moduli (GPa) = 68.22895 87.27586 64.59344
#
# Poissons Ratio (x) = -0.07107 0.29745
# Poissons Ratio (y) = -0.05556 0.34586
# Poissons Ratio (z) = 0.31419 0.46731
#
# Static dielectric constant tensor:
#      x y z
#    x 1.605570 0.000000 0.000000 
#    y 0.000000 1.590350 0.000000 
#    z 0.000000 0.000000 1.616960 
# 
# From -- ./inp_files/7260.got.cif
#   From: 2010.05.17/outbox.cif.g08.bks.cpg/sg65_4_cif.got.tgz:7260.got - 2010.06.03 17:01:31.
