data_PCOD9486546
_publ_section_title
;
Structure prediction by ZEFSAII (Michael W. Deem and Ramdas Pophale) SiO2 
 PCOD9486546
Probable space group: C M M M
;
_chemical_formula_sum "Si O2"
_cell_formula_units_Z 56
_cell_length_a 8.590306
_cell_length_b 18.406949
_cell_length_c 19.022307
_cell_angle_alpha 90.000000
_cell_angle_beta 90.000000
_cell_angle_gamma 90.000000
_cell_volume 3007.832377
_symmetry_space_group_name_H-M "C M M M"
_symmetry_group_IT_number 65
_symmetry_cell_setting 'orthorhombic'
loop_
_space_group_symop_operation_xyz
x,y,z
-x,-y,z
x,-y,-z
-x,y,-z
-x,-y,-z
x,y,-z
-x,y,z
x,-y,z
1/2+x,1/2+y,z
1/2-x,1/2-y,z
1/2+x,1/2-y,-z
1/2-x,1/2+y,-z
1/2-x,1/2-y,-z
1/2+x,1/2+y,-z
1/2-x,1/2+y,z
1/2+x,1/2-y,z
loop_
_atom_site_type_symbol
_atom_site_label
_atom_site_fract_x
_atom_site_fract_y
_atom_site_fract_z
Si Si1 0.186623 0.415469 0.864645
Si Si2 0.812509 0.167413 0.270378
Si Si3 0.187901 0.832611 0.424535
Si Si4 0.685346 0.331475 0.000000
O O1 0.231693 0.500000 0.867943
O O2 0.245808 0.379653 0.792783
O O3 0.255621 0.372888 0.930868
O O4 0.000000 0.410563 0.867480
O O5 0.750000 0.250000 0.264532
O O6 0.765598 0.137609 0.348052
O O7 0.000000 0.168986 0.266222
O O8 0.237616 0.865823 0.500000
O O9 0.250000 0.750000 0.424828
O O10 0.000000 0.831001 0.424586
O O11 0.750000 0.250000 0.000000
O O12 0.500000 0.329334 0.000000
#
# Coordination Sequence:
#
# PCOD9486546 Si02
#       4
#    16  16  16   8
#     4  11  24  41  59  80 110 145 180 220 267 317
#     4  10  19  32  53  80 110 143 182 226 270 320
#     4   8  14  25  43  70 103 137 174 219 269 316
#     4  12  25  42  65  89 113 139 173 216 261 314
#
# _framework density 18.618057
#
# number of rings (size 3 to 8) (size 9 to 14) (size 15 to 20)
#    0.000    2.000    0.000    4.286    0.000    5.143 
#    0.000    0.000    0.000    0.857    0.000    6.000 
#    0.000    0.000    0.000    0.000    0.000    0.000 
#
# Total GULP energy -156182.515088 kJ/mol
# GULP energy per Si atom -5577.946967 kJ/mol
# Density = 1.857568 g / cm^3
# Si number density = 18.618057 Si / 1000 Ang^3
#
#
#
# Elastic Constant Matrix: (Units=GPa)
#
#
# Indices 1 2 3 4 5 6 
#
# 1 56.7512 44.4820 55.2638 0.0000 0.0000 0.0000
# 2 44.4820 106.8330 97.5137 0.0000 0.0000 0.0000
# 3 55.2638 97.5137 246.5377 0.0000 0.0000 0.0000
# 4 0.0000 0.0000 0.0000 -19.3289 0.0000 0.0000
# 5 0.0000 0.0000 0.0000 0.0000 10.9742 0.0000
# 6 0.0000 0.0000 0.0000 0.0000 0.0000 23.4801
#
#
#
# Elastic Compliance Matrix: (Units=1/GPa)
#
#
# Indices 1 2 3 4 5 6 
#
# 1 0.027126 -0.008990 -0.002525 0.000000 0.000000 0.000000
# 2 -0.008990 0.017629 -0.004958 0.000000 0.000000 0.000000
# 3 -0.002525 -0.004958 0.006583 0.000000 0.000000 0.000000
# 4 0.000000 0.000000 0.000000 -0.051736 0.000000 0.000000
# 5 0.000000 0.000000 0.000000 0.000000 0.091123 0.000000
# 6 0.000000 0.000000 0.000000 0.000000 0.000000 0.042589
#
#
# Mechanical properties :
#
#
# Convention : Reuss Voigt Hill
#
# Bulk Modulus (GPa) = 54.36834 89.40455 71.88645
# Shear Modulus (GPa) = 29.00430 17.21590 23.11010
#
# Velocity S-wave (km/s) = 3.95125 3.04417 3.52699
# Velocity P-wave (km/s) = 7.07685 7.77692 7.43513
#
# Compressibility (1/GPa) = 0.01839306
#
# Stress axis : x y z
#
# Youngs Moduli (GPa) = 36.86562 56.72627 151.90713
#
# Poissons Ratio (x) = 0.50996 0.38352
# Poissons Ratio (y) = 0.33141 0.75308
# Poissons Ratio (z) = 0.09307 0.28122
#
# Static dielectric constant tensor:
#      x y z
#    x 1.623190 0.000000 0.000000 
#    y 0.000000 1.599360 0.000000 
#    z 0.000000 0.000000 1.686680 
# 
# From -- ./inp_files/48746.got.cif
#   From: 2010.05.17/outbox.cif.g08.bks.cpg/sg65_25_cif.got.tgz:48746.got - 2010.06.03 17:01:31.
