data_PCOD9486970
_publ_section_title
;
Structure prediction by ZEFSAII (Michael W. Deem and Ramdas Pophale) SiO2 
 PCOD9486970
Probable space group: C M M M
;
_chemical_formula_sum "Si O2"
_cell_formula_units_Z 88
_cell_length_a 36.837646
_cell_length_b 7.455016
_cell_length_c 14.845187
_cell_angle_alpha 90.000000
_cell_angle_beta 90.000000
_cell_angle_gamma 90.000000
_cell_volume 4076.863048
_symmetry_space_group_name_H-M "C M M M"
_symmetry_group_IT_number 65
_symmetry_cell_setting 'orthorhombic'
loop_
_space_group_symop_operation_xyz
x,y,z
-x,-y,z
x,-y,-z
-x,y,-z
-x,-y,-z
x,y,-z
-x,y,z
x,-y,z
1/2+x,1/2+y,z
1/2-x,1/2-y,z
1/2+x,1/2-y,-z
1/2-x,1/2+y,-z
1/2-x,1/2-y,-z
1/2+x,1/2+y,-z
1/2-x,1/2+y,z
1/2+x,1/2-y,z
loop_
_atom_site_type_symbol
_atom_site_label
_atom_site_fract_x
_atom_site_fract_y
_atom_site_fract_z
Si Si1 0.188368 0.289006 0.598868
Si Si2 0.000000 0.220230 0.104368
Si Si3 0.068584 0.790931 0.781527
Si Si4 0.602834 0.282602 0.399482
Si Si5 0.710113 0.785575 0.209742
Si Si6 0.860385 0.282463 0.103057
O O1 0.197150 0.211755 0.500000
O O2 0.197124 0.500000 0.594971
O O3 0.144861 0.273002 0.612437
O O4 0.206809 0.212510 0.688186
O O5 0.035454 0.281711 0.159413
O O6 0.000000 0.000000 0.101761
O O7 0.000000 0.277863 0.000000
O O8 0.078368 0.715484 0.682970
O O9 0.105229 0.777655 0.839404
O O10 0.059789 0.000000 0.766964
O O11 0.591470 0.226222 0.500000
O O12 0.602758 0.500000 0.397201
O O13 0.750000 0.750000 0.172612
O O14 0.676824 0.719772 0.149541
O O15 0.705671 0.000000 0.215408
O O16 0.860460 0.500000 0.103395
O O17 0.863046 0.222832 0.000000
#
# Coordination Sequence:
#
# PCOD9486970 Si02
#       6
#    16   8  16  16  16  16
#     4   9  17  31  51  73  98 131 169 206 250 305
#     4   9  18  32  50  76 108 137 169 213 258 297
#     4  10  19  33  55  79 104 136 173 209 250 304
#     4   9  17  29  48  76 105 131 165 209 252 296
#     4  10  21  35  50  72 102 133 168 210 256 304
#     4  10  21  37  55  75 101 133 170 215 263 305
#
# _framework density 21.585222999999999
#
# number of rings (size 3 to 8) (size 9 to 14) (size 15 to 20)
#    0.000    2.455    1.818    0.545    0.000    3.273 
#    0.000    0.909    0.000    4.364    0.000    0.000 
#    0.000    4.364    0.000    0.000    0.000    0.000 
#
# Total GULP energy -245683.149075 kJ/mol
# GULP energy per Si atom -5583.707934 kJ/mol
# Density = 2.153609 g / cm^3
# Si number density = 21.585223 Si / 1000 Ang^3
#
#
#
# Elastic Constant Matrix: (Units=GPa)
#
#
# Indices 1 2 3 4 5 6 
#
# 1 127.9515 -16.5973 62.6465 0.0000 0.0000 0.0000
# 2 -16.5973 64.0564 -6.7461 0.0000 0.0000 0.0000
# 3 62.6465 -6.7461 138.5872 0.0000 0.0000 0.0000
# 4 0.0000 0.0000 0.0000 5.9459 0.0000 0.0000
# 5 0.0000 0.0000 0.0000 0.0000 2.0434 0.0000
# 6 0.0000 0.0000 0.0000 0.0000 0.0000 18.0265
#
#
#
# Elastic Compliance Matrix: (Units=1/GPa)
#
#
# Indices 1 2 3 4 5 6 
#
# 1 0.010336 0.002197 -0.004565 0.000000 0.000000 0.000000
# 2 0.002197 0.016159 -0.000207 0.000000 0.000000 0.000000
# 3 -0.004565 -0.000207 0.009269 0.000000 0.000000 0.000000
# 4 0.000000 0.000000 0.000000 0.168183 0.000000 0.000000
# 5 0.000000 0.000000 0.000000 0.000000 0.489376 0.000000
# 6 0.000000 0.000000 0.000000 0.000000 0.000000 0.055474
#
#
# Mechanical properties :
#
#
# Convention : Reuss Voigt Hill
#
# Bulk Modulus (GPa) = 32.66423 45.46679 39.06551
# Shear Modulus (GPa) = 6.54322 24.62264 15.58293
#
# Velocity S-wave (km/s) = 1.74296 3.38111 2.68978
# Velocity P-wave (km/s) = 4.38362 6.02928 5.27106
#
# Compressibility (1/GPa) = 0.03061453
#
# Stress axis : x y z
#
# Youngs Moduli (GPa) = 96.75294 61.88584 107.88404
#
# Poissons Ratio (x) = -0.13598 0.49250
# Poissons Ratio (y) = -0.21259 0.02229
# Poissons Ratio (z) = 0.44169 0.01279
#
# Static dielectric constant tensor:
#      x y z
#    x 1.737240 0.000000 0.000000 
#    y 0.000000 2.017270 0.000000 
#    z 0.000000 0.000000 1.796000 
# 
# From -- ./inp_files/46758.got.cif
#   From: 2010.05.17/outbox.cif.g08.bks.cpg/sg65_24_cif.got.tgz:46758.got - 2010.06.03 17:01:31.
