data_PCOD9486366
_publ_section_title
;
Structure prediction by ZEFSAII (Michael W. Deem and Ramdas Pophale) SiO2 
 PCOD9486366
Probable space group: C M M M
;
_chemical_formula_sum "Si O2"
_cell_formula_units_Z 88
_cell_length_a 19.921069
_cell_length_b 24.553875
_cell_length_c 10.328350
_cell_angle_alpha 90.000000
_cell_angle_beta 90.000000
_cell_angle_gamma 90.000000
_cell_volume 5052.003315
_symmetry_space_group_name_H-M "C M M M"
_symmetry_group_IT_number 65
_symmetry_cell_setting 'orthorhombic'
loop_
_space_group_symop_operation_xyz
x,y,z
-x,-y,z
x,-y,-z
-x,y,-z
-x,-y,-z
x,y,-z
-x,y,z
x,-y,z
1/2+x,1/2+y,z
1/2-x,1/2-y,z
1/2+x,1/2-y,-z
1/2-x,1/2+y,-z
1/2-x,1/2-y,-z
1/2+x,1/2+y,-z
1/2-x,1/2+y,z
1/2+x,1/2-y,z
loop_
_atom_site_type_symbol
_atom_site_label
_atom_site_fract_x
_atom_site_fract_y
_atom_site_fract_z
Si Si1 0.188617 0.062734 0.353532
Si Si2 0.830484 0.603760 0.343225
Si Si3 0.423332 0.417092 0.854756
Si Si4 0.578875 0.000000 0.342137
Si Si5 0.076939 0.786054 0.145026
Si Si6 0.327040 0.769538 0.346544
O O1 0.172466 0.082457 0.500000
O O2 0.254049 0.092878 0.300388
O O3 0.126537 0.065764 0.257516
O O4 0.209452 0.000000 0.364384
O O5 0.829229 0.599778 0.500000
O O6 0.881218 0.555361 0.300599
O O7 0.842734 0.667108 0.313287
O O8 0.500000 0.434872 0.832340
O O9 0.423301 0.351495 0.855213
O O10 0.403280 0.434808 0.000000
O O11 0.500000 0.000000 0.303101
O O12 0.579452 0.000000 0.500000
O O13 0.125226 0.765652 0.256326
O O14 0.000000 0.768056 0.166246
O O15 0.097658 0.768179 0.000000
O O16 0.340187 0.762337 0.500000
O O17 0.250000 0.750000 0.325622
#
# Coordination Sequence:
#
# PCOD9486366 Si02
#       6
#    16  16  16   8  16  16
#     4  10  19  32  52  74 100 134 169 209 256 302
#     4   9  17  31  48  71 105 136 166 209 259 308
#     4   9  19  35  52  71  99 135 172 210 250 296
#     4   9  16  28  48  72  98 133 174 212 253 305
#     4   9  19  36  54  72  99 136 175 212 254 307
#     4  10  20  32  50  79 110 136 167 213 266 316
#
# _framework density 17.418832999999999
#
# number of rings (size 3 to 8) (size 9 to 14) (size 15 to 20)
#    0.000    2.636    0.909    2.182    0.000    4.727 
#    0.000    6.364    0.000    0.000    0.000    0.000 
#    0.000    2.909    0.000    0.000    0.000    0.000 
#
# Total GULP energy -245045.812601 kJ/mol
# GULP energy per Si atom -5569.223014 kJ/mol
# Density = 1.737919 g / cm^3
# Si number density = 17.418833 Si / 1000 Ang^3
#
#
#
# Elastic Constant Matrix: (Units=GPa)
#
#
# Indices 1 2 3 4 5 6 
#
# 1 78.4571 32.7983 51.8116 0.0000 0.0000 0.0000
# 2 32.7983 81.1073 26.8142 0.0000 0.0000 0.0000
# 3 51.8116 26.8142 62.0577 0.0000 0.0000 0.0000
# 4 0.0000 0.0000 0.0000 4.1927 0.0000 0.0000
# 5 0.0000 0.0000 0.0000 0.0000 10.6819 0.0000
# 6 0.0000 0.0000 0.0000 0.0000 0.0000 30.2370
#
#
#
# Elastic Compliance Matrix: (Units=1/GPa)
#
#
# Indices 1 2 3 4 5 6 
#
# 1 0.029726 -0.004452 -0.022894 0.000000 0.000000 0.000000
# 2 -0.004452 0.015051 -0.002787 0.000000 0.000000 0.000000
# 3 -0.022894 -0.002787 0.036433 0.000000 0.000000 0.000000
# 4 0.000000 0.000000 0.000000 0.238509 0.000000 0.000000
# 5 0.000000 0.000000 0.000000 0.000000 0.093617 0.000000
# 6 0.000000 0.000000 0.000000 0.000000 0.000000 0.033072
#
#
# Mechanical properties :
#
#
# Convention : Reuss Voigt Hill
#
# Bulk Modulus (GPa) = 47.74679 49.38558 48.56618
# Shear Modulus (GPa) = 9.73418 16.36885 13.05152
#
# Velocity S-wave (km/s) = 2.36653 3.06881 2.74026
# Velocity P-wave (km/s) = 5.91082 6.40080 6.16068
#
# Compressibility (1/GPa) = 0.02094382
#
# Stress axis : x y z
#
# Youngs Moduli (GPa) = 33.64074 66.44190 27.44801
#
# Poissons Ratio (x) = 0.29578 0.62841
# Poissons Ratio (y) = 0.14976 0.07649
# Poissons Ratio (z) = 0.77019 0.18514
#
# Static dielectric constant tensor:
#      x y z
#    x 1.592630 0.000000 0.000000 
#    y 0.000000 1.635720 0.000000 
#    z 0.000000 0.000000 1.569150 
# 
# From -- ./inp_files/11753.got.cif
#   From: 2010.05.17/outbox.cif.g08.bks.cpg/sg65_6_cif.got.tgz:11753.got - 2010.06.03 17:01:31.
