data_PCOD9486257
_publ_section_title
;
Structure prediction by ZEFSAII (Michael W. Deem and Ramdas Pophale) SiO2 
 PCOD9486257
Probable space group: C M M M
;
_chemical_formula_sum "Si O2"
_cell_formula_units_Z 88
_cell_length_a 23.644260
_cell_length_b 23.288594
_cell_length_c 7.539548
_cell_angle_alpha 90.000000
_cell_angle_beta 90.000000
_cell_angle_gamma 90.000000
_cell_volume 4151.588560
_symmetry_space_group_name_H-M "C M M M"
_symmetry_group_IT_number 65
_symmetry_cell_setting 'orthorhombic'
loop_
_space_group_symop_operation_xyz
x,y,z
-x,-y,z
x,-y,-z
-x,y,-z
-x,-y,-z
x,y,-z
-x,y,z
x,-y,z
1/2+x,1/2+y,z
1/2-x,1/2-y,z
1/2+x,1/2-y,-z
1/2-x,1/2+y,-z
1/2-x,1/2-y,-z
1/2+x,1/2+y,-z
1/2-x,1/2+y,z
1/2+x,1/2-y,z
loop_
_atom_site_type_symbol
_atom_site_label
_atom_site_fract_x
_atom_site_fract_y
_atom_site_fract_z
Si Si1 0.355109 0.839241 0.711335
Si Si2 0.562010 0.737412 0.213781
Si Si3 0.433016 0.500000 0.783047
Si Si4 0.765631 0.815585 0.714097
Si Si5 0.435638 0.936581 0.716618
Si Si6 0.115315 0.877563 0.210259
O O1 0.351631 0.846632 0.500000
O O2 0.385759 0.778268 0.737872
O O3 0.291576 0.846466 0.776236
O O4 0.396437 0.886878 0.785886
O O5 0.500000 0.758060 0.275801
O O6 0.574483 0.673100 0.279236
O O7 0.560714 0.736410 0.000000
O O8 0.500000 0.500000 0.733234
O O9 0.401033 0.441255 0.722860
O O10 0.431949 0.500000 0.000000
O O11 0.768670 0.812990 0.500000
O O12 0.750000 0.750000 0.771493
O O13 0.821766 0.850252 0.767773
O O14 0.436044 0.934665 0.500000
O O15 0.500000 0.928601 0.773823
O O16 0.416429 0.000000 0.767538
O O17 0.105716 0.880892 0.000000
#
# Coordination Sequence:
#
# PCOD9486257 Si02
#       6
#    16  16   8  16  16  16
#     4  10  19  32  51  73  99 134 174 209 252 310
#     4  10  20  32  49  77 107 131 163 213 269 318
#     4   9  18  36  61  85 109 141 186 237 282 329
#     4  10  20  35  52  74 107 140 171 214 264 314
#     4   8  14  26  45  69  94 119 156 205 246 286
#     4  10  20  35  57  80 104 139 181 222 269 325
#
# _framework density 21.196705000000001
#
# number of rings (size 3 to 8) (size 9 to 14) (size 15 to 20)
#    0.000    2.455    1.818    1.636    0.000    4.364 
#    1.636    0.455    0.000    2.727    0.000    2.545 
#    0.000    0.000    0.000    0.000    0.000    0.000 
#
# Total GULP energy -245261.416212 kJ/mol
# GULP energy per Si atom -5574.123096 kJ/mol
# Density = 2.114846 g / cm^3
# Si number density = 21.196705 Si / 1000 Ang^3
#
#
#
# Elastic Constant Matrix: (Units=GPa)
#
#
# Indices 1 2 3 4 5 6 
#
# 1 114.4034 62.3777 -6.3351 0.0000 0.0000 0.0000
# 2 62.3777 127.9875 -4.4607 0.0000 0.0000 0.0000
# 3 -6.3351 -4.4607 48.2875 0.0000 0.0000 0.0000
# 4 0.0000 0.0000 0.0000 10.6893 0.0000 0.0000
# 5 0.0000 0.0000 0.0000 0.0000 51.2435 0.0000
# 6 0.0000 0.0000 0.0000 0.0000 0.0000 11.6429
#
#
#
# Elastic Compliance Matrix: (Units=1/GPa)
#
#
# Indices 1 2 3 4 5 6 
#
# 1 0.011956 -0.005791 0.001034 0.000000 0.000000 0.000000
# 2 -0.005791 0.010643 0.000223 0.000000 0.000000 0.000000
# 3 0.001034 0.000223 0.020866 0.000000 0.000000 0.000000
# 4 0.000000 0.000000 0.000000 0.093552 0.000000 0.000000
# 5 0.000000 0.000000 0.000000 0.000000 0.019515 0.000000
# 6 0.000000 0.000000 0.000000 0.000000 0.000000 0.085889
#
#
# Mechanical properties :
#
#
# Convention : Reuss Voigt Hill
#
# Bulk Modulus (GPa) = 29.07230 43.76023 36.41626
# Shear Modulus (GPa) = 19.01480 30.65492 24.83486
#
# Velocity S-wave (km/s) = 2.99835 3.80703 3.42663
# Velocity P-wave (km/s) = 5.07268 6.32569 5.73352
#
# Compressibility (1/GPa) = 0.03439701
#
# Stress axis : x y z
#
# Youngs Moduli (GPa) = 83.64247 93.95540 47.92587
#
# Poissons Ratio (x) = 0.54408 -0.04954
# Poissons Ratio (y) = 0.48436 -0.01071
# Poissons Ratio (z) = -0.08645 -0.02100
#
# Static dielectric constant tensor:
#      x y z
#    x 1.772600 0.000000 0.000000 
#    y 0.000000 1.784450 0.000000 
#    z 0.000000 0.000000 1.735980 
# 
# From -- ./inp_files/11806.got.cif
#   From: 2010.05.17/outbox.cif.g08.bks.cpg/sg65_6_cif.got.tgz:11806.got - 2010.06.03 17:01:31.
