data_PCOD9486840
_publ_section_title
;
Structure prediction by ZEFSAII (Michael W. Deem and Ramdas Pophale) SiO2 
 PCOD9486840
Probable space group: C M M M
;
_chemical_formula_sum "Si O2"
_cell_formula_units_Z 88
_cell_length_a 26.258364
_cell_length_b 20.593377
_cell_length_c 7.504548
_cell_angle_alpha 90.000000
_cell_angle_beta 90.000000
_cell_angle_gamma 90.000000
_cell_volume 4058.072243
_symmetry_space_group_name_H-M "C M M M"
_symmetry_group_IT_number 65
_symmetry_cell_setting 'orthorhombic'
loop_
_space_group_symop_operation_xyz
x,y,z
-x,-y,z
x,-y,-z
-x,y,-z
-x,-y,-z
x,y,-z
-x,y,z
x,-y,z
1/2+x,1/2+y,z
1/2-x,1/2-y,z
1/2+x,1/2-y,-z
1/2-x,1/2+y,-z
1/2-x,1/2-y,-z
1/2+x,1/2+y,-z
1/2-x,1/2+y,z
1/2+x,1/2-y,z
loop_
_atom_site_type_symbol
_atom_site_label
_atom_site_fract_x
_atom_site_fract_y
_atom_site_fract_z
Si Si1 0.758161 0.930334 0.716578
Si Si2 0.590882 0.827342 0.298979
Si Si3 0.445224 0.690968 0.792812
Si Si4 0.624947 0.570756 0.714557
Si Si5 0.704899 0.799842 0.282608
Si Si6 0.000000 0.422574 0.282055
O O1 0.758873 0.929601 0.500000
O O2 0.816595 0.924569 0.774213
O O3 0.726082 0.869578 0.770935
O O4 0.737760 0.000000 0.774038
O O5 0.602737 0.850808 0.500000
O O6 0.562467 0.758466 0.305816
O O7 0.645901 0.803970 0.220591
O O8 0.550968 0.881427 0.224718
O O9 0.500000 0.662486 0.743163
O O10 0.404427 0.634926 0.766906
O O11 0.445238 0.708806 0.000000
O O12 0.625177 0.569618 0.500000
O O13 0.604687 0.500000 0.774824
O O14 0.702707 0.791492 0.500000
O O15 0.750000 0.750000 0.224634
O O16 0.000000 0.500000 0.232766
O O17 0.000000 0.420260 0.500000
#
# Coordination Sequence:
#
# PCOD9486840 Si02
#       6
#    16  16  16  16  16   8
#     4   8  14  26  45  72 104 131 159 199 247 300
#     4  10  19  33  54  76 103 138 172 214 263 311
#     4  11  23  36  51  71  99 135 174 217 261 306
#     4   9  18  33  54  78 103 134 171 209 249 300
#     4   9  16  25  43  73 102 129 165 206 249 300
#     4   9  18  32  51  79 108 131 166 217 269 316
#
# _framework density 21.685172000000001
#
# number of rings (size 3 to 8) (size 9 to 14) (size 15 to 20)
#    0.000    2.636    0.909    2.727    0.000    5.455 
#    0.000    5.455    0.000    6.000    0.000    0.000 
#    0.000    0.000    0.000    0.000    0.000    0.000 
#
# Total GULP energy -245018.876332 kJ/mol
# GULP energy per Si atom -5568.610826 kJ/mol
# Density = 2.163582 g / cm^3
# Si number density = 21.685172 Si / 1000 Ang^3
#
#
#
# Elastic Constant Matrix: (Units=GPa)
#
#
# Indices 1 2 3 4 5 6 
#
# 1 127.2627 62.9615 5.7087 0.0000 0.0000 0.0000
# 2 62.9615 121.8410 3.9847 0.0000 0.0000 0.0000
# 3 5.7087 3.9847 55.5641 0.0000 0.0000 0.0000
# 4 0.0000 0.0000 0.0000 -58.0535 0.0000 0.0000
# 5 0.0000 0.0000 0.0000 0.0000 4.1207 0.0000
# 6 0.0000 0.0000 0.0000 0.0000 0.0000 40.1436
#
#
#
# Elastic Compliance Matrix: (Units=1/GPa)
#
#
# Indices 1 2 3 4 5 6 
#
# 1 0.010583 -0.005446 -0.000697 0.000000 0.000000 0.000000
# 2 -0.005446 0.011029 -0.000231 0.000000 0.000000 0.000000
# 3 -0.000697 -0.000231 0.018085 0.000000 0.000000 0.000000
# 4 0.000000 0.000000 0.000000 -0.017225 0.000000 0.000000
# 5 0.000000 0.000000 0.000000 0.000000 0.242677 0.000000
# 6 0.000000 0.000000 0.000000 0.000000 0.000000 0.024911
#
#
# Mechanical properties :
#
#
# Convention : Reuss Voigt Hill
#
# Bulk Modulus (GPa) = 37.10659 49.99749 43.55204
# Shear Modulus (GPa) = 16.03633 12.70968 14.37301
#
# Velocity S-wave (km/s) = 2.72234 2.42358 2.57729
# Velocity P-wave (km/s) = 5.19905 5.56217 5.38367
#
# Compressibility (1/GPa) = 0.02694939
#
# Stress axis : x y z
#
# Youngs Moduli (GPa) = 94.48697 90.66731 55.29317
#
# Poissons Ratio (x) = 0.49380 0.03853
# Poissons Ratio (y) = 0.51460 0.01280
# Poissons Ratio (z) = 0.06584 0.02098
#
# Static dielectric constant tensor:
#      x y z
#    x 1.828630 0.000000 0.000000 
#    y 0.000000 1.761510 0.000000 
#    z 0.000000 0.000000 1.849670 
# 
# From -- ./inp_files/14000.got.cif
#   From: 2010.05.17/outbox.cif.g08.bks.cpg/sg65_7_cif.got.tgz:14000.got - 2010.06.03 17:01:31.
