data_PCOD9486121
_publ_section_title
;
Structure prediction by ZEFSAII (Michael W. Deem and Ramdas Pophale) SiO2 
 PCOD9486121
Probable space group: C M M M
;
_chemical_formula_sum "Si O2"
_cell_formula_units_Z 104
_cell_length_a 27.621224
_cell_length_b 8.472176
_cell_length_c 22.145910
_cell_angle_alpha 90.000000
_cell_angle_beta 90.000000
_cell_angle_gamma 90.000000
_cell_volume 5182.405836
_symmetry_space_group_name_H-M "C M M M"
_symmetry_group_IT_number 65
_symmetry_cell_setting 'orthorhombic'
loop_
_space_group_symop_operation_xyz
x,y,z
-x,-y,z
x,-y,-z
-x,y,-z
-x,-y,-z
x,y,-z
-x,y,z
x,-y,z
1/2+x,1/2+y,z
1/2-x,1/2-y,z
1/2+x,1/2-y,-z
1/2-x,1/2+y,-z
1/2-x,1/2-y,-z
1/2+x,1/2+y,-z
1/2-x,1/2+y,z
1/2+x,1/2-y,z
loop_
_atom_site_type_symbol
_atom_site_label
_atom_site_fract_x
_atom_site_fract_y
_atom_site_fract_z
Si Si1 0.346720 0.810278 0.625060
Si Si2 0.299407 0.823350 0.927894
Si Si3 0.553041 0.809708 0.319122
Si Si4 0.596449 0.313850 0.066576
Si Si5 0.304616 0.687853 0.500000
Si Si6 0.697303 0.688604 0.748325
Si Si7 0.904555 0.808561 0.803943
O O1 0.401692 0.758832 0.640192
O O2 0.329879 0.749350 0.560642
O O3 0.314481 0.745407 0.680261
O O4 0.344064 0.000000 0.626175
O O5 0.250000 0.750000 0.903128
O O6 0.345961 0.711709 0.924053
O O7 0.308804 0.000000 0.904048
O O8 0.292130 0.839949 0.000000
O O9 0.500000 0.755904 0.339243
O O10 0.563796 0.750745 0.251598
O O11 0.553484 0.000000 0.318453
O O12 0.585768 0.500000 0.063830
O O13 0.576936 0.251569 0.130473
O O14 0.583907 0.245941 0.000000
O O15 0.304522 0.500000 0.500000
O O16 0.250000 0.750000 0.500000
O O17 0.697993 0.500000 0.749844
O O18 0.750000 0.750000 0.766081
O O19 0.651055 0.741800 0.788589
O O20 0.904926 0.000000 0.804628
#
# Coordination Sequence:
#
# PCOD9486121 Si02
#       7
#    16  16  16  16   8  16  16
#     4  10  20  36  57  82 112 145 183 223 264 310
#     4   9  16  25  37  54  78 112 155 198 241 293
#     4   9  19  37  61  85 107 135 174 222 273 321
#     4   9  17  30  46  64  91 126 163 207 261 320
#     4  12  24  38  57  84 121 161 196 223 253 296
#     4  10  19  32  49  71 102 138 178 222 267 314
#     4   9  19  33  50  75 102 131 171 218 268 324
#
# _framework density 20.067900000000002
#
# number of rings (size 3 to 8) (size 9 to 14) (size 15 to 20)
#    0.000    2.462    0.000    2.538    0.000    4.615 
#    0.000    1.923    0.000    2.769    0.000    3.231 
#    0.000    0.000    0.000    0.000    0.000    0.000 
#
# Total GULP energy -290047.706060 kJ/mol
# GULP energy per Si atom -5577.840501 kJ/mol
# Density = 2.002222 g / cm^3
# Si number density = 20.067900 Si / 1000 Ang^3
#
#
#
# Elastic Constant Matrix: (Units=GPa)
#
#
# Indices 1 2 3 4 5 6 
#
# 1 78.9863 9.6146 36.9606 0.0000 0.0000 0.0000
# 2 9.6146 29.1515 15.9282 0.0000 0.0000 0.0000
# 3 36.9606 15.9282 157.0358 0.0000 0.0000 0.0000
# 4 0.0000 0.0000 0.0000 15.3315 0.0000 0.0000
# 5 0.0000 0.0000 0.0000 0.0000 -5.4494 0.0000
# 6 0.0000 0.0000 0.0000 0.0000 0.0000 16.9058
#
#
#
# Elastic Compliance Matrix: (Units=1/GPa)
#
#
# Indices 1 2 3 4 5 6 
#
# 1 0.014485 -0.003086 -0.003096 0.000000 0.000000 0.000000
# 2 -0.003086 0.036973 -0.003024 0.000000 0.000000 0.000000
# 3 -0.003096 -0.003024 0.007403 0.000000 0.000000 0.000000
# 4 0.000000 0.000000 0.000000 0.065225 0.000000 0.000000
# 5 0.000000 0.000000 0.000000 0.000000 -0.183507 0.000000
# 6 0.000000 0.000000 0.000000 0.000000 0.000000 0.059151
#
#
# Mechanical properties :
#
#
# Convention : Reuss Voigt Hill
#
# Bulk Modulus (GPa) = 24.72176 43.35337 34.03757
# Shear Modulus (GPa) = 158.09831 18.86893 88.48362
#
# Velocity S-wave (km/s) = 8.88553 3.06968 6.64739
# Velocity P-wave (km/s) = 10.84510 5.84929 8.71293
#
# Compressibility (1/GPa) = 0.04045019
#
# Stress axis : x y z
#
# Youngs Moduli (GPa) = 69.03760 27.04643 135.07222
#
# Poissons Ratio (x) = 0.08345 0.41822
# Poissons Ratio (y) = 0.21302 0.40846
# Poissons Ratio (z) = 0.21376 0.08179
#
# Static dielectric constant tensor:
#      x y z
#    x 1.724000 0.000000 0.000000 
#    y 0.000000 1.670820 0.000000 
#    z 0.000000 0.000000 1.729590 
# 
# From -- ./inp_files/65854.got.cif
#   From: 2010.05.17/outbox.cif.g08.bks.cpg/sg65_33_cif.got.tgz:65854.got - 2010.06.03 17:01:31.
