data_PCOD9486233
_publ_section_title
;
Structure prediction by ZEFSAII (Michael W. Deem and Ramdas Pophale) SiO2 
 PCOD9486233
Probable space group: C M M M
;
_chemical_formula_sum "Si O2"
_cell_formula_units_Z 120
_cell_length_a 20.305328
_cell_length_b 26.169013
_cell_length_c 14.381298
_cell_angle_alpha 90.000000
_cell_angle_beta 90.000000
_cell_angle_gamma 90.000000
_cell_volume 7641.795961
_symmetry_space_group_name_H-M "C M M M"
_symmetry_group_IT_number 65
_symmetry_cell_setting 'orthorhombic'
loop_
_space_group_symop_operation_xyz
x,y,z
-x,-y,z
x,-y,-z
-x,y,-z
-x,-y,-z
x,y,-z
-x,y,z
x,-y,z
1/2+x,1/2+y,z
1/2-x,1/2-y,z
1/2+x,1/2-y,-z
1/2-x,1/2+y,-z
1/2-x,1/2-y,-z
1/2+x,1/2+y,-z
1/2-x,1/2+y,z
1/2+x,1/2-y,z
loop_
_atom_site_type_symbol
_atom_site_label
_atom_site_fract_x
_atom_site_fract_y
_atom_site_fract_z
Si Si1 0.077517 0.556592 0.887508
Si Si2 0.670726 0.742374 0.770870
Si Si3 0.500000 0.562045 0.893692
Si Si4 0.354676 0.838156 0.893598
Si Si5 0.698518 0.646484 0.894640
Si Si6 0.866023 0.058288 0.205881
Si Si7 0.923752 0.915823 0.394204
Si Si8 0.075938 0.207673 0.391805
O O1 0.100876 0.500000 0.855081
O O2 0.114522 0.608336 0.858753
O O3 0.000000 0.560608 0.864885
O O4 0.082943 0.555827 0.000000
O O5 0.750000 0.750000 0.753959
O O6 0.638701 0.790750 0.823768
O O7 0.666876 0.693961 0.840345
O O8 0.629546 0.730456 0.678140
O O9 0.500000 0.500000 0.894072
O O10 0.565417 0.577414 0.839645
O O11 0.500000 0.579554 0.000000
O O12 0.276164 0.844243 0.900551
O O13 0.379058 0.828020 0.000000
O O14 0.687496 0.595803 0.835129
O O15 0.672848 0.641158 0.000000
O O16 0.877072 0.061687 0.315779
O O17 0.854647 0.000000 0.177631
O O18 0.907492 0.930238 0.500000
O O19 0.920770 0.854222 0.387145
O O20 0.000000 0.931300 0.376872
O O21 0.087385 0.221707 0.500000
O O22 0.000000 0.221700 0.368046
#
# Coordination Sequence:
#
# PCOD9486233 Si02
#       8
#    16  16   8  16  16  16  16  16
#     4   8  14  26  45  68  94 122 150 185 230 275
#     4  10  19  32  51  72  95 124 160 196 239 284
#     4   9  18  30  41  57  85 119 154 194 232 266
#     4   9  18  31  48  70  96 126 159 190 224 276
#     4  10  20  33  46  62  92 131 164 195 232 278
#     4  11  20  30  45  65  88 119 160 202 240 278
#     4   9  17  31  50  68  87 115 152 197 250 295
#     4   9  18  33  52  72  95 123 154 194 244 293
#
# _framework density 15.703115
#
# number of rings (size 3 to 8) (size 9 to 14) (size 15 to 20)
#    0.000    2.600    2.000    2.000    0.000    4.000 
#    0.000    2.000    0.000    0.800    0.000    0.000 
#    0.000    0.533    0.000    2.933    0.000    0.133 
#
# Total GULP energy -334116.316285 kJ/mol
# GULP energy per Si atom -5568.605271 kJ/mol
# Density = 1.566737 g / cm^3
# Si number density = 15.703115 Si / 1000 Ang^3
#
#
#
# Elastic Constant Matrix: (Units=GPa)
#
#
# Indices 1 2 3 4 5 6 
#
# 1 22.5703 23.8565 25.1466 0.0000 0.0000 0.0000
# 2 23.8565 96.0456 33.0752 0.0000 0.0000 0.0000
# 3 25.1466 33.0752 80.5789 0.0000 0.0000 0.0000
# 4 0.0000 0.0000 0.0000 20.9727 0.0000 0.0000
# 5 0.0000 0.0000 0.0000 0.0000 11.3072 0.0000
# 6 0.0000 0.0000 0.0000 0.0000 0.0000 11.7340
#
#
#
# Elastic Compliance Matrix: (Units=1/GPa)
#
#
# Indices 1 2 3 4 5 6 
#
# 1 0.079991 -0.013128 -0.019575 0.000000 0.000000 0.000000
# 2 -0.013128 0.014280 -0.001765 0.000000 0.000000 0.000000
# 3 -0.019575 -0.001765 0.019243 0.000000 0.000000 0.000000
# 4 0.000000 0.000000 0.000000 0.047681 0.000000 0.000000
# 5 0.000000 0.000000 0.000000 0.000000 0.088439 0.000000
# 6 0.000000 0.000000 0.000000 0.000000 0.000000 0.085222
#
#
# Mechanical properties :
#
#
# Convention : Reuss Voigt Hill
#
# Bulk Modulus (GPa) = 22.43147 40.37237 31.40192
# Shear Modulus (GPa) = 11.94312 16.61056 14.27684
#
# Velocity S-wave (km/s) = 2.76081 3.25589 3.01852
# Velocity P-wave (km/s) = 4.94758 6.31665 5.67356
#
# Compressibility (1/GPa) = 0.04458023
#
# Stress axis : x y z
#
# Youngs Moduli (GPa) = 12.50141 70.02687 51.96620
#
# Poissons Ratio (x) = 0.91930 1.01721
# Poissons Ratio (y) = 0.16412 0.09171
# Poissons Ratio (z) = 0.24471 0.12358
#
# Static dielectric constant tensor:
#      x y z
#    x 1.526750 0.000000 0.000000 
#    y 0.000000 1.537680 0.000000 
#    z 0.000000 0.000000 1.524440 
# 
# From -- ./inp_files/44718.got.cif
#   From: 2010.05.17/outbox.cif.g08.bks.cpg/sg65_23_cif.got.tgz:44718.got - 2010.06.03 17:01:31.
