data_PCOD9486177
_publ_section_title
;
Structure prediction by ZEFSAII (Michael W. Deem and Ramdas Pophale) SiO2 
 PCOD9486177
Probable space group: C M M M
;
_chemical_formula_sum "Si O2"
_cell_formula_units_Z 96
_cell_length_a 7.566241
_cell_length_b 24.258311
_cell_length_c 26.676958
_cell_angle_alpha 90.000000
_cell_angle_beta 90.000000
_cell_angle_gamma 90.000000
_cell_volume 4896.401642
_symmetry_space_group_name_H-M "C M M M"
_symmetry_group_IT_number 65
_symmetry_cell_setting 'orthorhombic'
loop_
_space_group_symop_operation_xyz
x,y,z
-x,-y,z
x,-y,-z
-x,y,-z
-x,-y,-z
x,y,-z
-x,y,z
x,-y,z
1/2+x,1/2+y,z
1/2-x,1/2-y,z
1/2+x,1/2-y,-z
1/2-x,1/2+y,-z
1/2-x,1/2-y,-z
1/2+x,1/2+y,-z
1/2-x,1/2+y,z
1/2+x,1/2-y,z
loop_
_atom_site_type_symbol
_atom_site_label
_atom_site_fract_x
_atom_site_fract_y
_atom_site_fract_z
Si Si1 0.789924 0.685275 0.752130
Si Si2 0.784313 0.000000 0.320225
Si Si3 0.295473 0.883650 0.844976
Si Si4 0.287593 0.685504 0.555589
Si Si5 0.216090 0.436432 0.942987
Si Si6 0.210116 0.880992 0.349258
Si Si7 0.286816 0.500000 0.203256
O O1 0.750000 0.750000 0.749042
O O2 0.716695 0.657371 0.803244
O O3 0.731534 0.652917 0.702308
O O4 0.000000 0.678458 0.753743
O O5 0.719518 0.057119 0.343483
O O6 0.740415 0.000000 0.261634
O O7 0.000000 0.000000 0.322889
O O8 0.500000 0.867120 0.851916
O O9 0.219407 0.894337 0.900458
O O10 0.286721 0.944590 0.821023
O O11 0.221189 0.669857 0.500000
O O12 0.500000 0.679495 0.554663
O O13 0.250000 0.750000 0.563126
O O14 0.217339 0.651255 0.602638
O O15 0.270215 0.500000 0.932241
O O16 0.000000 0.436484 0.941419
O O17 0.268209 0.423470 0.000000
O O18 0.000000 0.885972 0.356762
O O19 0.500000 0.500000 0.198290
#
# Coordination Sequence:
#
# PCOD9486177 Si02
#       7
#    16   8  16  16  16  16   8
#     4  11  23  35  50  72  98 128 163 203 247 288
#     4   9  18  31  48  72 101 133 160 189 236 291
#     4  10  19  32  50  72  99 128 163 204 240 284
#     4   9  18  32  51  73  96 126 165 207 246 282
#     4   8  13  23  44  72  97 122 155 197 240 280
#     4  10  19  34  53  73 102 132 162 198 240 293
#     4  11  19  29  48  73 101 134 163 190 241 295
#
# _framework density 19.606235999999999
#
# number of rings (size 3 to 8) (size 9 to 14) (size 15 to 20)
#    0.000    2.333    2.500    1.750    0.000    2.667 
#    0.000    0.833    0.000    4.000    0.000    0.000 
#    0.000    4.000    0.000    0.000    0.000    0.167 
#
# Total GULP energy -267756.777005 kJ/mol
# GULP energy per Si atom -5578.266188 kJ/mol
# Density = 1.956161 g / cm^3
# Si number density = 19.606236 Si / 1000 Ang^3
#
#
#
# Elastic Constant Matrix: (Units=GPa)
#
#
# Indices 1 2 3 4 5 6 
#
# 1 46.8748 -9.0592 2.0403 0.0000 0.0000 0.0000
# 2 -9.0592 124.0665 90.8647 0.0000 0.0000 0.0000
# 3 2.0403 90.8647 191.7255 0.0000 0.0000 0.0000
# 4 0.0000 0.0000 0.0000 30.3561 0.0000 0.0000
# 5 0.0000 0.0000 0.0000 0.0000 12.3617 0.0000
# 6 0.0000 0.0000 0.0000 0.0000 0.0000 -6.3983
#
#
#
# Elastic Compliance Matrix: (Units=1/GPa)
#
#
# Indices 1 2 3 4 5 6 
#
# 1 0.021924 0.002714 -0.001519 0.000000 0.000000 0.000000
# 2 0.002714 0.012681 -0.006039 0.000000 0.000000 0.000000
# 3 -0.001519 -0.006039 0.008094 0.000000 0.000000 0.000000
# 4 0.000000 0.000000 0.000000 0.032942 0.000000 0.000000
# 5 0.000000 0.000000 0.000000 0.000000 0.080895 0.000000
# 6 0.000000 0.000000 0.000000 0.000000 0.000000 -0.156291
#
#
# Mechanical properties :
#
#
# Convention : Reuss Voigt Hill
#
# Bulk Modulus (GPa) = 30.29396 58.92870 44.61133
# Shear Modulus (GPa) = 238.80930 25.85198 132.33064
#
# Velocity S-wave (km/s) = 11.04840 3.63514 8.22440
# Velocity P-wave (km/s) = 13.35069 6.90944 10.62970
#
# Compressibility (1/GPa) = 0.03300988
#
# Stress axis : x y z
#
# Youngs Moduli (GPa) = 45.61212 78.85740 123.54891
#
# Poissons Ratio (x) = -0.21399 0.18772
# Poissons Ratio (y) = -0.12377 0.74609
# Poissons Ratio (z) = 0.06930 0.47621
#
# Static dielectric constant tensor:
#      x y z
#    x 1.761010 0.000000 0.000000 
#    y 0.000000 1.659300 0.000000 
#    z 0.000000 0.000000 1.720570 
# 
# From -- ./inp_files/73488.got.cif
#   From: 2010.05.17/outbox.cif.g08.bks.cpg/sg65_37_cif.got.tgz:73488.got - 2010.06.03 17:01:31.
