data_PCOD9486662
_publ_section_title
;
Structure prediction by ZEFSAII (Michael W. Deem and Ramdas Pophale) SiO2 
 PCOD9486662
Probable space group: C M M M
;
_chemical_formula_sum "Si O2"
_cell_formula_units_Z 72
_cell_length_a 29.013349
_cell_length_b 8.789327
_cell_length_c 16.884561
_cell_angle_alpha 90.000000
_cell_angle_beta 90.000000
_cell_angle_gamma 90.000000
_cell_volume 4305.694953
_symmetry_space_group_name_H-M "C M M M"
_symmetry_group_IT_number 65
_symmetry_cell_setting 'orthorhombic'
loop_
_space_group_symop_operation_xyz
x,y,z
-x,-y,z
x,-y,-z
-x,y,-z
-x,-y,-z
x,y,-z
-x,y,z
x,-y,z
1/2+x,1/2+y,z
1/2-x,1/2-y,z
1/2+x,1/2-y,-z
1/2-x,1/2+y,-z
1/2-x,1/2-y,-z
1/2+x,1/2+y,-z
1/2-x,1/2+y,z
1/2+x,1/2-y,z
loop_
_atom_site_type_symbol
_atom_site_label
_atom_site_fract_x
_atom_site_fract_y
_atom_site_fract_z
Si Si1 0.697738 0.816785 0.175284
Si Si2 0.801024 0.317471 0.000000
Si Si3 0.945049 0.319072 0.409948
Si Si4 0.130940 0.822032 0.691713
Si Si5 0.203866 0.327568 0.405950
O O1 0.750000 0.750000 0.185589
O O2 0.680196 0.773367 0.086429
O O3 0.660297 0.756810 0.238093
O O4 0.701200 0.000000 0.180296
O O5 0.750000 0.250000 0.000000
O O6 0.798953 0.500000 0.000000
O O7 0.932256 0.266882 0.500000
O O8 0.935171 0.500000 0.407604
O O9 0.917945 0.242710 0.337546
O O10 0.000000 0.298333 0.402619
O O11 0.162470 0.781116 0.616271
O O12 0.128188 0.000000 0.707105
O O13 0.207895 0.337870 0.500000
O O14 0.197617 0.500000 0.375628
O O15 0.250000 0.250000 0.373741
#
# Coordination Sequence:
#
# PCOD9486662 Si02
#       5
#    16   8  16  16  16
#     4  10  19  33  51  73 102 133 167 204 243 288
#     4   8  16  30  50  72  95 128 165 202 242 285
#     4   9  19  37  58  76  95 123 161 205 252 297
#     4  12  23  32  46  71 100 129 161 197 240 288
#     4  10  20  33  47  63  88 124 163 200 238 280
#
# _framework density 16.722038999999999
#
# number of rings (size 3 to 8) (size 9 to 14) (size 15 to 20)
#    0.000    2.000    0.000    5.333    0.000    5.778 
#    0.000    1.111    0.000    0.000    0.000    0.778 
#    0.000    6.222    0.000    0.000    0.000    0.000 
#
# Total GULP energy -200536.611494 kJ/mol
# GULP energy per Si atom -5570.461430 kJ/mol
# Density = 1.668398 g / cm^3
# Si number density = 16.722039 Si / 1000 Ang^3
#
#
#
# Elastic Constant Matrix: (Units=GPa)
#
#
# Indices 1 2 3 4 5 6 
#
# 1 54.9434 35.9836 42.1808 0.0000 0.0000 0.0000
# 2 35.9836 72.6337 46.5402 0.0000 0.0000 0.0000
# 3 42.1808 46.5402 114.9758 0.0000 0.0000 0.0000
# 4 0.0000 0.0000 0.0000 14.9697 0.0000 0.0000
# 5 0.0000 0.0000 0.0000 0.0000 -38.4569 0.0000
# 6 0.0000 0.0000 0.0000 0.0000 0.0000 23.2824
#
#
#
# Elastic Compliance Matrix: (Units=1/GPa)
#
#
# Indices 1 2 3 4 5 6 
#
# 1 0.030468 -0.010710 -0.006842 0.000000 0.000000 0.000000
# 2 -0.010710 0.022354 -0.005119 0.000000 0.000000 0.000000
# 3 -0.006842 -0.005119 0.013280 0.000000 0.000000 0.000000
# 4 0.000000 0.000000 0.000000 0.066802 0.000000 0.000000
# 5 0.000000 0.000000 0.000000 0.000000 -0.026003 0.000000
# 6 0.000000 0.000000 0.000000 0.000000 0.000000 0.042951
#
#
# Mechanical properties :
#
#
# Convention : Reuss Voigt Hill
#
# Bulk Modulus (GPa) = 48.17361 54.66246 51.41804
# Shear Modulus (GPa) = 24.73860 7.81558 16.27709
#
# Velocity S-wave (km/s) = 3.85047 2.16425 3.12331
# Velocity P-wave (km/s) = 6.97418 6.24541 6.61983
#
# Compressibility (1/GPa) = 0.02075825
#
# Stress axis : x y z
#
# Youngs Moduli (GPa) = 32.82167 44.73536 75.30140
#
# Poissons Ratio (x) = 0.47910 0.51525
# Poissons Ratio (y) = 0.35151 0.38549
# Poissons Ratio (z) = 0.22458 0.22901
#
# Static dielectric constant tensor:
#      x y z
#    x 1.498440 0.000000 0.000000 
#    y 0.000000 1.589470 0.000000 
#    z 0.000000 0.000000 1.629260 
# 
# From -- ./inp_files/57168.got.cif
#   From: 2010.05.17/outbox.cif.g08.bks.cpg/sg65_29_cif.got.tgz:57168.got - 2010.06.03 17:01:31.
