data_PCOD9486139
_publ_section_title
;
Structure prediction by ZEFSAII (Michael W. Deem and Ramdas Pophale) SiO2 
 PCOD9486139
Probable space group: C M M M
;
_chemical_formula_sum "Si O2"
_cell_formula_units_Z 120
_cell_length_a 27.876387
_cell_length_b 18.431156
_cell_length_c 13.197101
_cell_angle_alpha 90.000000
_cell_angle_beta 90.000000
_cell_angle_gamma 90.000000
_cell_volume 6780.591806
_symmetry_space_group_name_H-M "C M M M"
_symmetry_group_IT_number 65
_symmetry_cell_setting 'orthorhombic'
loop_
_space_group_symop_operation_xyz
x,y,z
-x,-y,z
x,-y,-z
-x,y,-z
-x,-y,-z
x,y,-z
-x,y,z
x,-y,z
1/2+x,1/2+y,z
1/2-x,1/2-y,z
1/2+x,1/2-y,-z
1/2-x,1/2+y,-z
1/2-x,1/2-y,-z
1/2+x,1/2+y,-z
1/2-x,1/2+y,z
1/2+x,1/2-y,z
loop_
_atom_site_type_symbol
_atom_site_label
_atom_site_fract_x
_atom_site_fract_y
_atom_site_fract_z
Si Si1 0.154736 0.085248 0.390902
Si Si2 0.297657 0.914259 0.118955
Si Si3 0.443383 0.086346 0.000000
Si Si4 0.610923 0.164031 0.816358
Si Si5 0.946746 0.136491 0.676418
Si Si6 0.689349 0.412314 0.176005
Si Si7 0.555769 0.194284 0.384191
Si Si8 0.096614 0.829346 0.886327
O O1 0.166652 0.118467 0.500000
O O2 0.098094 0.094420 0.370126
O O3 0.182156 0.113316 0.292275
O O4 0.165424 0.000000 0.395114
O O5 0.335471 0.867161 0.180851
O O6 0.242276 0.894451 0.137536
O O7 0.302975 0.000000 0.142530
O O8 0.308626 0.904567 0.000000
O O9 0.419264 0.119287 0.899581
O O10 0.500000 0.102815 0.000000
O O11 0.436534 0.000000 0.000000
O O12 0.587434 0.160619 0.705222
O O13 0.608989 0.247149 0.854057
O O14 0.943388 0.218685 0.634071
O O15 0.937671 0.140764 0.797517
O O16 0.000000 0.108444 0.654155
O O17 0.684010 0.500000 0.170673
O O18 0.645688 0.375354 0.117368
O O19 0.570770 0.179080 0.500000
O O20 0.500000 0.172045 0.372593
O O21 0.076554 0.830560 0.000000
#
# Coordination Sequence:
#
# PCOD9486139 Si02
#       8
#    16  16   8  16  16  16  16  16
#     4   9  17  30  48  68  93 126 168 220 262 297
#     4  10  19  33  54  76 101 134 167 208 259 309
#     4  11  22  36  56  79 107 141 169 204 257 314
#     4  11  20  34  52  81 109 130 169 219 261 307
#     4   9  18  30  46  70  98 131 170 210 257 311
#     4   9  19  34  51  72  99 138 180 209 250 316
#     4   9  18  33  52  72  99 137 173 205 248 305
#     4  10  19  32  49  74 105 136 171 212 263 301
#
# _framework density 17.697569999999999
#
# number of rings (size 3 to 8) (size 9 to 14) (size 15 to 20)
#    0.000    2.333    1.333    1.600    0.000    3.200 
#    0.000    2.667    0.000    2.400    0.000   14.000 
#    0.000    0.000    0.000    0.000    0.000    0.000 
#
# Total GULP energy -334558.119476 kJ/mol
# GULP energy per Si atom -5575.968658 kJ/mol
# Density = 1.765729 g / cm^3
# Si number density = 17.697570 Si / 1000 Ang^3
#
#
#
# Elastic Constant Matrix: (Units=GPa)
#
#
# Indices 1 2 3 4 5 6 
#
# 1 60.6144 15.1638 18.6548 0.0000 0.0000 0.0000
# 2 15.1638 16.8213 8.8439 0.0000 0.0000 0.0000
# 3 18.6548 8.8439 119.5019 0.0000 0.0000 0.0000
# 4 0.0000 0.0000 0.0000 17.9201 0.0000 0.0000
# 5 0.0000 0.0000 0.0000 0.0000 15.5056 0.0000
# 6 0.0000 0.0000 0.0000 0.0000 0.0000 26.3998
#
#
#
# Elastic Compliance Matrix: (Units=1/GPa)
#
#
# Indices 1 2 3 4 5 6 
#
# 1 0.021762 -0.018553 -0.002024 0.000000 0.000000 0.000000
# 2 -0.018553 0.077673 -0.002852 0.000000 0.000000 0.000000
# 3 -0.002024 -0.002852 0.008895 0.000000 0.000000 0.000000
# 4 0.000000 0.000000 0.000000 0.055803 0.000000 0.000000
# 5 0.000000 0.000000 0.000000 0.000000 0.064493 0.000000
# 6 0.000000 0.000000 0.000000 0.000000 0.000000 0.037879
#
#
# Mechanical properties :
#
#
# Convention : Reuss Voigt Hill
#
# Bulk Modulus (GPa) = 16.26784 31.36251 23.81518
# Shear Modulus (GPa) = 14.97657 22.25012 18.61334
#
# Velocity S-wave (km/s) = 2.91219 3.54961 3.24658
# Velocity P-wave (km/s) = 4.52989 5.87873 5.24783
#
# Compressibility (1/GPa) = 0.06147097
#
# Stress axis : x y z
#
# Youngs Moduli (GPa) = 45.95140 12.87449 112.42133
#
# Poissons Ratio (x) = 0.23887 0.22755
# Poissons Ratio (y) = 0.85256 0.32063
# Poissons Ratio (z) = 0.09301 0.03672
#
# Static dielectric constant tensor:
#      x y z
#    x 1.586650 0.000000 0.000000 
#    y 0.000000 1.593670 0.000000 
#    z 0.000000 0.000000 1.646290 
# 
# From -- ./inp_files/32818.got.cif
#   From: 2010.05.17/outbox.cif.g08.bks.cpg/sg65_17_cif.got.tgz:32818.got - 2010.06.03 17:01:31.
