data_PCOD9486004
_publ_section_title
;
Structure prediction by ZEFSAII (Michael W. Deem and Ramdas Pophale) SiO2 
 PCOD9486004
Probable space group: C M M M
;
_chemical_formula_sum "Si O2"
_cell_formula_units_Z 88
_cell_length_a 23.734395
_cell_length_b 23.595483
_cell_length_c 9.556125
_cell_angle_alpha 90.000000
_cell_angle_beta 90.000000
_cell_angle_gamma 90.000000
_cell_volume 5351.664256
_symmetry_space_group_name_H-M "C M M M"
_symmetry_group_IT_number 65
_symmetry_cell_setting 'orthorhombic'
loop_
_space_group_symop_operation_xyz
x,y,z
-x,-y,z
x,-y,-z
-x,y,-z
-x,-y,-z
x,y,-z
-x,y,z
x,-y,z
1/2+x,1/2+y,z
1/2-x,1/2-y,z
1/2+x,1/2-y,-z
1/2-x,1/2+y,-z
1/2-x,1/2-y,-z
1/2+x,1/2+y,-z
1/2-x,1/2+y,z
1/2+x,1/2-y,z
loop_
_atom_site_type_symbol
_atom_site_label
_atom_site_fract_x
_atom_site_fract_y
_atom_site_fract_z
Si Si1 0.691942 0.563960 0.334628
Si Si2 0.149916 0.168207 0.838756
Si Si3 0.155446 0.337375 0.345117
Si Si4 0.808509 0.436685 0.164062
Si Si5 0.433619 0.740686 0.659989
Si Si6 0.750000 0.250000 0.750352
O O1 0.697974 0.575740 0.500000
O O2 0.668492 0.500000 0.319749
O O3 0.658486 0.613097 0.256742
O O4 0.752055 0.563944 0.256857
O O5 0.097932 0.202132 0.772448
O O6 0.205643 0.208705 0.828486
O O7 0.141398 0.153363 0.000000
O O8 0.159134 0.363379 0.500000
O O9 0.156729 0.384784 0.226359
O O10 0.099168 0.300230 0.334894
O O11 0.208189 0.293519 0.329612
O O12 0.833655 0.500000 0.177741
O O13 0.795412 0.427889 0.000000
O O14 0.424759 0.718881 0.500000
O O15 0.500000 0.745558 0.683763
#
# Coordination Sequence:
#
# PCOD9486004 Si02
#       6
#    16  16  16  16  16   8
#     4  10  20  33  50  73 103 138 174 208 247 300
#     4  11  21  32  51  77 107 137 168 208 252 305
#     4  10  19  31  52  76 101 133 170 211 253 303
#     4  10  20  32  47  71 105 139 169 205 252 303
#     4   9  20  38  56  75 101 134 172 214 259 302
#     4  10  20  30  46  74 108 136 164 202 252 308
#
# _framework density 16.443483000000001
#
# number of rings (size 3 to 8) (size 9 to 14) (size 15 to 20)
#    0.000    2.000    1.818    2.182    0.000    6.909 
#    0.000    0.000    0.000    1.091    0.000    7.636 
#    0.000    0.000    0.000    0.000    0.000    0.000 
#
# Total GULP energy -245179.836819 kJ/mol
# GULP energy per Si atom -5572.269019 kJ/mol
# Density = 1.640606 g / cm^3
# Si number density = 16.443483 Si / 1000 Ang^3
#
#
#
# Elastic Constant Matrix: (Units=GPa)
#
#
# Indices 1 2 3 4 5 6 
#
# 1 82.6323 29.9139 40.2294 0.0000 0.0000 0.0000
# 2 29.9139 92.9010 70.3729 0.0000 0.0000 0.0000
# 3 40.2294 70.3729 144.4784 0.0000 0.0000 0.0000
# 4 0.0000 0.0000 0.0000 1.4516 0.0000 0.0000
# 5 0.0000 0.0000 0.0000 0.0000 13.3588 0.0000
# 6 0.0000 0.0000 0.0000 0.0000 0.0000 10.2900
#
#
#
# Elastic Compliance Matrix: (Units=1/GPa)
#
#
# Indices 1 2 3 4 5 6 
#
# 1 0.014365 -0.002528 -0.002768 0.000000 0.000000 0.000000
# 2 -0.002528 0.017503 -0.007821 0.000000 0.000000 0.000000
# 3 -0.002768 -0.007821 0.011502 0.000000 0.000000 0.000000
# 4 0.000000 0.000000 0.000000 0.688907 0.000000 0.000000
# 5 0.000000 0.000000 0.000000 0.000000 0.074857 0.000000
# 6 0.000000 0.000000 0.000000 0.000000 0.000000 0.097181
#
#
# Mechanical properties :
#
#
# Convention : Reuss Voigt Hill
#
# Bulk Modulus (GPa) = 58.36492 66.78270 62.57381
# Shear Modulus (GPa) = 5.34038 16.98644 11.16341
#
# Velocity S-wave (km/s) = 1.80410 3.21755 2.60839
# Velocity P-wave (km/s) = 6.31752 7.38276 6.87081
#
# Compressibility (1/GPa) = 0.01713358
#
# Stress axis : x y z
#
# Youngs Moduli (GPa) = 69.61426 57.13294 86.94202
#
# Poissons Ratio (x) = 0.14446 0.24068
# Poissons Ratio (y) = 0.17602 0.68001
# Poissons Ratio (z) = 0.19271 0.44686
#
# Static dielectric constant tensor:
#      x y z
#    x 1.522850 0.000000 0.000000 
#    y 0.000000 1.578120 0.000000 
#    z 0.000000 0.000000 1.561000 
# 
# From -- ./inp_files/11840.got.cif
#   From: 2010.05.17/outbox.cif.g08.bks.cpg/sg65_6_cif.got.tgz:11840.got - 2010.06.03 17:01:31.
