data_PCOD9486114
_publ_section_title
;
Structure prediction by ZEFSAII (Michael W. Deem and Ramdas Pophale) SiO2 
 PCOD9486114
Probable space group: C M M M
;
_chemical_formula_sum "Si O2"
_cell_formula_units_Z 80
_cell_length_a 8.319988
_cell_length_b 28.046770
_cell_length_c 19.198146
_cell_angle_alpha 90.000000
_cell_angle_beta 90.000000
_cell_angle_gamma 90.000000
_cell_volume 4479.864136
_symmetry_space_group_name_H-M "C M M M"
_symmetry_group_IT_number 65
_symmetry_cell_setting 'orthorhombic'
loop_
_space_group_symop_operation_xyz
x,y,z
-x,-y,z
x,-y,-z
-x,y,-z
-x,-y,-z
x,y,-z
-x,y,z
x,-y,z
1/2+x,1/2+y,z
1/2-x,1/2-y,z
1/2+x,1/2-y,-z
1/2-x,1/2+y,-z
1/2-x,1/2-y,-z
1/2+x,1/2+y,-z
1/2-x,1/2+y,z
1/2+x,1/2-y,z
loop_
_atom_site_type_symbol
_atom_site_label
_atom_site_fract_x
_atom_site_fract_y
_atom_site_fract_z
Si Si1 0.191872 0.697284 0.784930
Si Si2 0.695946 0.101671 0.144176
Si Si3 0.305355 0.304537 0.500000
Si Si4 0.692221 0.648931 0.355871
Si Si5 0.696795 0.944702 0.000000
Si Si6 0.694284 0.946398 0.288547
O O1 0.250000 0.750000 0.801976
O O2 0.248491 0.655335 0.836908
O O3 0.246348 0.681407 0.707839
O O4 0.000000 0.696943 0.785672
O O5 0.500000 0.101485 0.142738
O O6 0.751079 0.081386 0.070468
O O7 0.743147 0.068976 0.210084
O O8 0.500000 0.305224 0.500000
O O9 0.250000 0.250000 0.500000
O O10 0.249652 0.331007 0.429808
O O11 0.500000 0.650642 0.355297
O O12 0.745972 0.595065 0.339403
O O13 0.500000 0.943955 0.000000
O O14 0.744840 0.000000 0.000000
O O15 0.500000 0.945830 0.289964
O O16 0.748998 0.000000 0.304482
#
# Coordination Sequence:
#
# PCOD9486114 Si02
#       6
#    16  16   8  16   8  16
#     4  10  19  32  49  70  96 126 160 198 239 281
#     4   8  15  26  42  67  97 125 156 196 237 278
#     4  10  22  36  51  72  97 123 152 193 241 288
#     4  10  20  34  51  73  98 124 158 196 238 287
#     4   9  14  22  41  68  95 123 155 193 238 283
#     4   9  17  31  50  72  99 130 163 199 237 277
#
# _framework density 17.857685
#
# number of rings (size 3 to 8) (size 9 to 14) (size 15 to 20)
#    0.000    2.700    0.000    3.600    0.000    6.000 
#    0.000    1.000    0.000    3.000    0.000   16.800 
#    0.000   26.400    0.000    0.000    0.000    0.000 
#
# Total GULP energy -223070.807970 kJ/mol
# GULP energy per Si atom -5576.770199 kJ/mol
# Density = 1.781704 g / cm^3
# Si number density = 17.857685 Si / 1000 Ang^3
#
#
#
# Elastic Constant Matrix: (Units=GPa)
#
#
# Indices 1 2 3 4 5 6 
#
# 1 17.6980 19.8466 14.8870 0.0000 0.0000 0.0000
# 2 19.8466 178.2494 99.4534 0.0000 0.0000 0.0000
# 3 14.8870 99.4534 155.2947 0.0000 0.0000 0.0000
# 4 0.0000 0.0000 0.0000 20.4322 0.0000 0.0000
# 5 0.0000 0.0000 0.0000 0.0000 7.8050 0.0000
# 6 0.0000 0.0000 0.0000 0.0000 0.0000 27.8729
#
#
#
# Elastic Compliance Matrix: (Units=1/GPa)
#
#
# Indices 1 2 3 4 5 6 
#
# 1 0.065178 -0.005867 -0.002491 0.000000 0.000000 0.000000
# 2 -0.005867 0.009257 -0.005366 0.000000 0.000000 0.000000
# 3 -0.002491 -0.005366 0.010115 0.000000 0.000000 0.000000
# 4 0.000000 0.000000 0.000000 0.048942 0.000000 0.000000
# 5 0.000000 0.000000 0.000000 0.000000 0.128123 0.000000
# 6 0.000000 0.000000 0.000000 0.000000 0.000000 0.035877
#
#
# Mechanical properties :
#
#
# Convention : Reuss Voigt Hill
#
# Bulk Modulus (GPa) = 17.51245 68.84622 43.17933
# Shear Modulus (GPa) = 14.53592 25.69235 20.11414
#
# Velocity S-wave (km/s) = 2.85614 3.79717 3.35977
# Velocity P-wave (km/s) = 4.55024 7.60665 6.26761
#
# Compressibility (1/GPa) = 0.05710225
#
# Stress axis : x y z
#
# Youngs Moduli (GPa) = 15.34248 108.02130 98.86604
#
# Poissons Ratio (x) = 0.63381 0.24623
# Poissons Ratio (y) = 0.09002 0.53053
# Poissons Ratio (z) = 0.03821 0.57966
#
# Static dielectric constant tensor:
#      x y z
#    x 1.628430 0.000000 0.000000 
#    y 0.000000 1.693500 0.000000 
#    z 0.000000 0.000000 1.596080 
# 
# From -- ./inp_files/49905.got.cif
#   From: 2010.05.17/outbox.cif.g08.bks.cpg/sg65_25_cif.got.tgz:49905.got - 2010.06.03 17:01:31.
