data_PCOD9486303
_publ_section_title
;
Structure prediction by ZEFSAII (Michael W. Deem and Ramdas Pophale) SiO2 
 PCOD9486303
Probable space group: C M M M
;
_chemical_formula_sum "Si O2"
_cell_formula_units_Z 80
_cell_length_a 7.701848
_cell_length_b 18.717646
_cell_length_c 27.319317
_cell_angle_alpha 90.000000
_cell_angle_beta 90.000000
_cell_angle_gamma 90.000000
_cell_volume 3938.365426
_symmetry_space_group_name_H-M "C M M M"
_symmetry_group_IT_number 65
_symmetry_cell_setting 'orthorhombic'
loop_
_space_group_symop_operation_xyz
x,y,z
-x,-y,z
x,-y,-z
-x,y,-z
-x,-y,-z
x,y,-z
-x,y,z
x,-y,z
1/2+x,1/2+y,z
1/2-x,1/2-y,z
1/2+x,1/2-y,-z
1/2-x,1/2+y,-z
1/2-x,1/2-y,-z
1/2+x,1/2+y,-z
1/2-x,1/2+y,z
1/2+x,1/2-y,z
loop_
_atom_site_type_symbol
_atom_site_label
_atom_site_fract_x
_atom_site_fract_y
_atom_site_fract_z
Si Si1 0.209283 0.333435 0.000000
Si Si2 0.790896 0.165948 0.595884
Si Si3 0.793349 0.419395 0.094176
Si Si4 0.708610 0.665520 0.297727
Si Si5 0.212862 0.082451 0.500000
Si Si6 0.206977 0.834008 0.191315
O O1 0.250000 0.250000 0.000000
O O2 0.275711 0.372833 0.048824
O O3 0.000000 0.338736 0.000000
O O4 0.750000 0.250000 0.590818
O O5 0.726374 0.139449 0.649312
O O6 0.727078 0.122697 0.548991
O O7 0.000000 0.159575 0.596585
O O8 0.722399 0.500000 0.094935
O O9 0.768113 0.379344 0.145379
O O10 0.000000 0.424772 0.086688
O O11 0.500000 0.656323 0.297702
O O12 0.750000 0.750000 0.297873
O O13 0.774620 0.640125 0.244714
O O14 0.000000 0.084654 0.500000
O O15 0.264300 0.000000 0.500000
O O16 0.250000 0.750000 0.185342
O O17 0.000000 0.839401 0.192621
#
# Coordination Sequence:
#
# PCOD9486303 Si02
#       6
#     8  16  16  16   8  16
#     4  10  21  37  57  79 101 128 163 202 244 290
#     4   9  16  28  47  69  91 118 155 196 237 280
#     4  10  21  37  55  75 102 135 167 200 241 288
#     4   8  15  27  44  68  95 122 154 194 238 280
#     4   9  17  28  43  65  92 121 154 192 234 283
#     4  10  19  32  51  75 102 131 165 203 243 289
#
# _framework density 20.312995999999998
#
# number of rings (size 3 to 8) (size 9 to 14) (size 15 to 20)
#    0.000    2.700    0.000    1.800    0.000    4.800 
#    0.000    1.000    0.000    6.600    0.000    0.000 
#    0.000    0.000    0.000    0.000    0.000    0.000 
#
# Total GULP energy -222997.822529 kJ/mol
# GULP energy per Si atom -5574.945563 kJ/mol
# Density = 2.026676 g / cm^3
# Si number density = 20.312996 Si / 1000 Ang^3
#
#
#
# Elastic Constant Matrix: (Units=GPa)
#
#
# Indices 1 2 3 4 5 6 
#
# 1 36.0908 1.3957 6.7866 0.0000 0.0000 0.0000
# 2 1.3957 117.5718 114.6663 0.0000 0.0000 0.0000
# 3 6.7866 114.6663 262.8649 0.0000 0.0000 0.0000
# 4 0.0000 0.0000 0.0000 -6.8556 0.0000 0.0000
# 5 0.0000 0.0000 0.0000 0.0000 -5.9797 0.0000
# 6 0.0000 0.0000 0.0000 0.0000 0.0000 15.7097
#
#
#
# Elastic Compliance Matrix: (Units=1/GPa)
#
#
# Indices 1 2 3 4 5 6 
#
# 1 0.027871 0.000646 -0.001001 0.000000 0.000000 0.000000
# 2 0.000646 0.014818 -0.006481 0.000000 0.000000 0.000000
# 3 -0.001001 -0.006481 0.006657 0.000000 0.000000 0.000000
# 4 0.000000 0.000000 0.000000 -0.145867 0.000000 0.000000
# 5 0.000000 0.000000 0.000000 0.000000 -0.167231 0.000000
# 6 0.000000 0.000000 0.000000 0.000000 0.000000 0.063655
#
#
# Mechanical properties :
#
#
# Convention : Reuss Voigt Hill
#
# Bulk Modulus (GPa) = 28.03163 73.58053 50.80608
# Shear Modulus (GPa) = -28.64797 20.15346 -4.24726
#
# Velocity S-wave (km/s) = -3.75951 3.15325 -1.44757
# Velocity P-wave (km/s) = 2.23950 7.03984 4.71932
#
# Compressibility (1/GPa) = 0.03567399
#
# Stress axis : x y z
#
# Youngs Moduli (GPa) = 35.87938 67.48411 150.21625
#
# Poissons Ratio (x) = -0.04357 0.15040
# Poissons Ratio (y) = -0.02316 0.97350
# Poissons Ratio (z) = 0.03592 0.43734
#
# Static dielectric constant tensor:
#      x y z
#    x 1.740740 0.000000 0.000000 
#    y 0.000000 1.663290 0.000000 
#    z 0.000000 0.000000 1.774060 
# 
# From -- ./inp_files/72956.got.cif
#   From: 2010.05.17/outbox.cif.g08.bks.cpg/sg65_37_cif.got.tgz:72956.got - 2010.06.03 17:01:31.
