data_PCOD9486243
_publ_section_title
;
Structure prediction by ZEFSAII (Michael W. Deem and Ramdas Pophale) SiO2 
 PCOD9486243
Probable space group: C M M M
;
_chemical_formula_sum "Si O2"
_cell_formula_units_Z 72
_cell_length_a 20.307986
_cell_length_b 7.889679
_cell_length_c 24.091080
_cell_angle_alpha 90.000000
_cell_angle_beta 90.000000
_cell_angle_gamma 90.000000
_cell_volume 3859.956932
_symmetry_space_group_name_H-M "C M M M"
_symmetry_group_IT_number 65
_symmetry_cell_setting 'orthorhombic'
loop_
_space_group_symop_operation_xyz
x,y,z
-x,-y,z
x,-y,-z
-x,y,-z
-x,-y,-z
x,y,-z
-x,y,z
x,-y,z
1/2+x,1/2+y,z
1/2-x,1/2-y,z
1/2+x,1/2-y,-z
1/2-x,1/2+y,-z
1/2-x,1/2-y,-z
1/2+x,1/2+y,-z
1/2-x,1/2+y,z
1/2+x,1/2-y,z
loop_
_atom_site_type_symbol
_atom_site_label
_atom_site_fract_x
_atom_site_fract_y
_atom_site_fract_z
Si Si1 0.574483 0.796495 0.282166
Si Si2 0.673425 0.298319 0.620695
Si Si3 0.674549 0.795584 0.937388
Si Si4 0.075786 0.292958 0.842789
Si Si5 0.827258 0.204150 0.500000
O O1 0.500000 0.734844 0.294646
O O2 0.626879 0.753568 0.329043
O O3 0.592858 0.737347 0.219940
O O4 0.571238 0.000000 0.279362
O O5 0.671835 0.500000 0.617573
O O6 0.750000 0.250000 0.628886
O O7 0.649080 0.231453 0.560157
O O8 0.750000 0.750000 0.924914
O O9 0.625187 0.731924 0.890167
O O10 0.669719 0.000000 0.938356
O O11 0.659470 0.734147 0.000000
O O12 0.077849 0.500000 0.843170
O O13 0.000000 0.244864 0.853679
O O14 0.750000 0.250000 0.500000
O O15 0.834959 0.000000 0.500000
#
# Coordination Sequence:
#
# PCOD9486243 Si02
#       5
#    16  16  16  16   8
#     4   9  18  33  50  68  95 128 158 192 236 281
#     4  10  19  32  51  73  96 122 156 195 234 279
#     4   9  17  29  46  68  93 120 150 186 228 272
#     4   8  15  29  48  68  90 118 153 192 230 267
#     4   8  16  30  47  68  93 121 151 189 235 276
#
# _framework density 18.653058000000001
#
# number of rings (size 3 to 8) (size 9 to 14) (size 15 to 20)
#    0.000    3.111    0.000    2.000    0.000    2.667 
#    0.000    6.111    0.000    5.333    0.000    3.111 
#    0.000    0.000    0.000    0.000    0.000    0.000 
#
# Total GULP energy -200506.519744 kJ/mol
# GULP energy per Si atom -5569.625548 kJ/mol
# Density = 1.861060 g / cm^3
# Si number density = 18.653058 Si / 1000 Ang^3
#
#
#
# Elastic Constant Matrix: (Units=GPa)
#
#
# Indices 1 2 3 4 5 6 
#
# 1 110.6744 6.2999 138.2449 0.0000 0.0000 0.0000
# 2 6.2999 18.4950 12.8068 0.0000 0.0000 0.0000
# 3 138.2449 12.8068 221.6443 0.0000 0.0000 0.0000
# 4 0.0000 0.0000 0.0000 11.8826 0.0000 0.0000
# 5 0.0000 0.0000 0.0000 0.0000 -210.4392 0.0000
# 6 0.0000 0.0000 0.0000 0.0000 0.0000 21.5643
#
#
#
# Elastic Compliance Matrix: (Units=1/GPa)
#
#
# Indices 1 2 3 4 5 6 
#
# 1 0.041174 0.003915 -0.025907 0.000000 0.000000 0.000000
# 2 0.003915 0.056694 -0.005717 0.000000 0.000000 0.000000
# 3 -0.025907 -0.005717 0.021001 0.000000 0.000000 0.000000
# 4 0.000000 0.000000 0.000000 0.084157 0.000000 0.000000
# 5 0.000000 0.000000 0.000000 0.000000 -0.004752 0.000000
# 6 0.000000 0.000000 0.000000 0.000000 0.000000 0.046373
#
#
# Mechanical properties :
#
#
# Convention : Reuss Voigt Hill
#
# Bulk Modulus (GPa) = 15.76069 73.94633 44.85351
# Shear Modulus (GPa) = 15.56578 -22.50100 -3.46761
#
# Velocity S-wave (km/s) = 2.89189 -3.47694 -1.36493
# Velocity P-wave (km/s) = 4.42927 4.85904 4.64912
#
# Compressibility (1/GPa) = 0.06344899
#
# Stress axis : x y z
#
# Youngs Moduli (GPa) = 24.28721 17.63841 47.61646
#
# Poissons Ratio (x) = -0.06905 1.23362
# Poissons Ratio (y) = -0.09507 0.27225
# Poissons Ratio (z) = 0.62922 0.10085
#
# Static dielectric constant tensor:
#      x y z
#    x 1.609750 0.000000 0.000000 
#    y 0.000000 1.708200 0.000000 
#    z 0.000000 0.000000 1.690700 
# 
# From -- ./inp_files/59245.got.cif
#   From: 2010.05.17/outbox.cif.g08.bks.cpg/sg65_30_cif.got.tgz:59245.got - 2010.06.03 17:01:31.
