data_PCOD9486738
_publ_section_title
;
Structure prediction by ZEFSAII (Michael W. Deem and Ramdas Pophale) SiO2 
 PCOD9486738
Probable space group: C M M M
;
_chemical_formula_sum "Si O2"
_cell_formula_units_Z 80
_cell_length_a 18.463674
_cell_length_b 7.745643
_cell_length_c 28.357129
_cell_angle_alpha 90.000000
_cell_angle_beta 90.000000
_cell_angle_gamma 90.000000
_cell_volume 4055.438863
_symmetry_space_group_name_H-M "C M M M"
_symmetry_group_IT_number 65
_symmetry_cell_setting 'orthorhombic'
loop_
_space_group_symop_operation_xyz
x,y,z
-x,-y,z
x,-y,-z
-x,y,-z
-x,-y,-z
x,y,-z
-x,y,z
x,-y,z
1/2+x,1/2+y,z
1/2-x,1/2-y,z
1/2+x,1/2-y,-z
1/2-x,1/2+y,-z
1/2-x,1/2-y,-z
1/2+x,1/2+y,-z
1/2-x,1/2+y,z
1/2+x,1/2-y,z
loop_
_atom_site_type_symbol
_atom_site_label
_atom_site_fract_x
_atom_site_fract_y
_atom_site_fract_z
Si Si1 0.417291 0.710287 0.288991
Si Si2 0.834773 0.796126 0.802569
Si Si3 0.665435 0.795762 0.092433
Si Si4 0.583465 0.212152 0.000000
Si Si5 0.585412 0.000000 0.443634
Si Si6 0.335106 0.706398 0.614489
O O1 0.500000 0.770042 0.294442
O O2 0.419522 0.500000 0.286887
O O3 0.381043 0.776870 0.240734
O O4 0.368470 0.751176 0.334238
O O5 0.750000 0.750000 0.798661
O O6 0.860649 0.752868 0.855291
O O7 0.838698 0.000000 0.798511
O O8 0.750000 0.750000 0.089035
O O9 0.622727 0.724793 0.047480
O O10 0.659925 0.000000 0.089853
O O11 0.500000 0.261803 0.000000
O O12 0.586237 0.000000 0.000000
O O13 0.623526 0.170032 0.422107
O O14 0.500000 0.000000 0.431612
O O15 0.592650 0.000000 0.500000
O O16 0.345244 0.500000 0.606247
O O17 0.250000 0.750000 0.613634
#
# Coordination Sequence:
#
# PCOD9486738 Si02
#       6
#    16  16  16   8   8  16
#     4   9  19  35  57  84 118 158 197 240 300 363
#     4  10  19  33  53  77 108 143 180 231 282 341
#     4  10  19  33  53  74  99 132 177 223 274 334
#     4   9  19  34  51  71  98 133 168 218 276 331
#     4  11  26  46  68 100 137 171 217 272 325 383
#     4  11  22  42  68  97 130 173 219 268 320 377
#
# _framework density 19.726595
#
# number of rings (size 3 to 8) (size 9 to 14) (size 15 to 20)
#    0.000    2.000    1.000    3.900    0.000    2.800 
#    3.600    2.500    0.000    4.200    0.000    0.000 
#    0.000    0.000    0.000    0.000    0.000    0.000 
#
# Total GULP energy -223307.979193 kJ/mol
# GULP energy per Si atom -5582.699480 kJ/mol
# Density = 1.968170 g / cm^3
# Si number density = 19.726595 Si / 1000 Ang^3
#
#
#
# Elastic Constant Matrix: (Units=GPa)
#
#
# Indices 1 2 3 4 5 6 
#
# 1 142.5506 35.1074 104.0169 0.0000 0.0000 0.0000
# 2 35.1074 80.3249 46.8855 0.0000 0.0000 0.0000
# 3 104.0169 46.8855 168.1943 0.0000 0.0000 0.0000
# 4 0.0000 0.0000 0.0000 20.5928 0.0000 0.0000
# 5 0.0000 0.0000 0.0000 0.0000 -109.2140 0.0000
# 6 0.0000 0.0000 0.0000 0.0000 0.0000 9.7568
#
#
#
# Elastic Compliance Matrix: (Units=1/GPa)
#
#
# Indices 1 2 3 4 5 6 
#
# 1 0.012875 -0.001170 -0.007636 0.000000 0.000000 0.000000
# 2 -0.001170 0.014975 -0.003451 0.000000 0.000000 0.000000
# 3 -0.007636 -0.003451 0.011630 0.000000 0.000000 0.000000
# 4 0.000000 0.000000 0.000000 0.048561 0.000000 0.000000
# 5 0.000000 0.000000 0.000000 0.000000 -0.009156 0.000000
# 6 0.000000 0.000000 0.000000 0.000000 0.000000 0.102492
#
#
# Mechanical properties :
#
#
# Convention : Reuss Voigt Hill
#
# Bulk Modulus (GPa) = 66.81836 84.78773 75.80304
# Shear Modulus (GPa) = 23.71011 -2.10222 10.80394
#
# Velocity S-wave (km/s) = 3.47066 -1.03344 2.34280
# Velocity P-wave (km/s) = 7.07152 6.45374 6.76968
#
# Compressibility (1/GPa) = 0.01496595
#
# Stress axis : x y z
#
# Youngs Moduli (GPa) = 77.66769 66.77768 85.98419
#
# Poissons Ratio (x) = 0.07813 0.65661
# Poissons Ratio (y) = 0.09088 0.29672
# Poissons Ratio (z) = 0.59310 0.23044
#
# Static dielectric constant tensor:
#      x y z
#    x 1.703740 0.000000 0.000000 
#    y 0.000000 1.712860 0.000000 
#    z 0.000000 0.000000 1.712750 
# 
# From -- ./inp_files/75091.got.cif
#   From: 2010.05.17/outbox.cif.g08.bks.cpg/sg65_38_cif.got.tgz:75091.got - 2010.06.03 17:01:31.
