data_PCOD9486181
_publ_section_title
;
Structure prediction by ZEFSAII (Michael W. Deem and Ramdas Pophale) SiO2 
 PCOD9486181
Probable space group: C M M M
;
_chemical_formula_sum "Si O2"
_cell_formula_units_Z 80
_cell_length_a 15.250433
_cell_length_b 8.991578
_cell_length_c 29.370120
_cell_angle_alpha 90.000000
_cell_angle_beta 90.000000
_cell_angle_gamma 90.000000
_cell_volume 4027.391152
_symmetry_space_group_name_H-M "C M M M"
_symmetry_group_IT_number 65
_symmetry_cell_setting 'orthorhombic'
loop_
_space_group_symop_operation_xyz
x,y,z
-x,-y,z
x,-y,-z
-x,y,-z
-x,-y,-z
x,y,-z
-x,y,z
x,-y,z
1/2+x,1/2+y,z
1/2-x,1/2-y,z
1/2+x,1/2-y,-z
1/2-x,1/2+y,-z
1/2-x,1/2-y,-z
1/2+x,1/2+y,-z
1/2-x,1/2+y,z
1/2+x,1/2-y,z
loop_
_atom_site_type_symbol
_atom_site_label
_atom_site_fract_x
_atom_site_fract_y
_atom_site_fract_z
Si Si1 0.500000 0.681478 0.447787
Si Si2 0.107869 0.170284 0.000000
Si Si3 0.153587 0.178433 0.182325
Si Si4 0.653330 0.678764 0.280627
Si Si5 0.396510 0.165335 0.090409
Si Si6 0.153557 0.820281 0.380815
O O1 0.500000 0.500000 0.447832
O O2 0.500000 0.731419 0.500000
O O3 0.413864 0.727838 0.419737
O O4 0.138424 0.251729 0.954154
O O5 0.000000 0.169864 0.000000
O O6 0.136158 0.000000 0.000000
O O7 0.250000 0.250000 0.183460
O O8 0.111651 0.218603 0.231709
O O9 0.112292 0.244081 0.136928
O O10 0.156988 0.000000 0.179086
O O11 0.661268 0.500000 0.280062
O O12 0.750000 0.750000 0.280766
O O13 0.616032 0.718114 0.330259
O O14 0.500000 0.150322 0.082167
O O15 0.357867 0.000000 0.095593
O O16 0.250000 0.750000 0.385639
O O17 0.161695 0.000000 0.382731
#
# Coordination Sequence:
#
# PCOD9486181 Si02
#       6
#     8   8  16  16  16  16
#     4   9  18  32  51  77 109 143 181 224 271 324
#     4   9  17  31  52  73  94 125 166 209 251 297
#     4  10  19  32  50  73 100 130 163 203 254 307
#     4   8  15  28  47  71  95 127 165 204 248 302
#     4  10  20  34  51  72  99 130 165 204 250 302
#     4   9  17  32  53  76 103 139 181 223 270 323
#
# _framework density 19.863975
#
# number of rings (size 3 to 8) (size 9 to 14) (size 15 to 20)
#    0.000    2.800    0.000    1.500    0.000    3.600 
#    1.800    1.000    0.000    0.600    0.000    0.000 
#    0.000    0.000    0.000    0.000    0.000    0.000 
#
# Total GULP energy -222828.770876 kJ/mol
# GULP energy per Si atom -5570.719272 kJ/mol
# Density = 1.981876 g / cm^3
# Si number density = 19.863975 Si / 1000 Ang^3
#
#
#
# Elastic Constant Matrix: (Units=GPa)
#
#
# Indices 1 2 3 4 5 6 
#
# 1 52.9501 17.1970 49.5341 0.0000 0.0000 0.0000
# 2 17.1970 66.6776 66.4215 0.0000 0.0000 0.0000
# 3 49.5341 66.4215 235.1395 0.0000 0.0000 0.0000
# 4 0.0000 0.0000 0.0000 53.7180 0.0000 0.0000
# 5 0.0000 0.0000 0.0000 0.0000 4.9737 0.0000
# 6 0.0000 0.0000 0.0000 0.0000 0.0000 15.3607
#
#
#
# Elastic Compliance Matrix: (Units=1/GPa)
#
#
# Indices 1 2 3 4 5 6 
#
# 1 0.023640 -0.001581 -0.004533 0.000000 0.000000 0.000000
# 2 -0.001581 0.020976 -0.005592 0.000000 0.000000 0.000000
# 3 -0.004533 -0.005592 0.006787 0.000000 0.000000 0.000000
# 4 0.000000 0.000000 0.000000 0.018616 0.000000 0.000000
# 5 0.000000 0.000000 0.000000 0.000000 0.201057 0.000000
# 6 0.000000 0.000000 0.000000 0.000000 0.000000 0.065101
#
#
# Mechanical properties :
#
#
# Convention : Reuss Voigt Hill
#
# Bulk Modulus (GPa) = 35.72674 69.00805 52.36740
# Shear Modulus (GPa) = 13.55305 29.58480 21.56892
#
# Velocity S-wave (km/s) = 2.61491 3.86342 3.29877
# Velocity P-wave (km/s) = 5.20977 7.39710 6.39761
#
# Compressibility (1/GPa) = 0.02799024
#
# Stress axis : x y z
#
# Youngs Moduli (GPa) = 42.30102 47.67353 147.33103
#
# Poissons Ratio (x) = 0.07538 0.66790
# Poissons Ratio (y) = 0.06688 0.82390
# Poissons Ratio (z) = 0.19177 0.26660
#
# Static dielectric constant tensor:
#      x y z
#    x 1.750340 0.000000 0.000000 
#    y 0.000000 1.678160 0.000000 
#    z 0.000000 0.000000 1.745300 
# 
# From -- ./inp_files/75067.got.cif
#   From: 2010.05.17/outbox.cif.g08.bks.cpg/sg65_38_cif.got.tgz:75067.got - 2010.06.03 17:01:31.
