data_PCOD9486362
_publ_section_title
;
Structure prediction by ZEFSAII (Michael W. Deem and Ramdas Pophale) SiO2 
 PCOD9486362
Probable space group: C M M M
;
_chemical_formula_sum "Si O2"
_cell_formula_units_Z 96
_cell_length_a 31.650333
_cell_length_b 21.401600
_cell_length_c 8.706952
_cell_angle_alpha 90.000000
_cell_angle_beta 90.000000
_cell_angle_gamma 90.000000
_cell_volume 5897.808631
_symmetry_space_group_name_H-M "C M M M"
_symmetry_group_IT_number 65
_symmetry_cell_setting 'orthorhombic'
loop_
_space_group_symop_operation_xyz
x,y,z
-x,-y,z
x,-y,-z
-x,y,-z
-x,-y,-z
x,y,-z
-x,y,z
x,-y,z
1/2+x,1/2+y,z
1/2-x,1/2-y,z
1/2+x,1/2-y,-z
1/2-x,1/2+y,-z
1/2-x,1/2-y,-z
1/2+x,1/2+y,-z
1/2-x,1/2+y,z
1/2+x,1/2-y,z
loop_
_atom_site_type_symbol
_atom_site_label
_atom_site_fract_x
_atom_site_fract_y
_atom_site_fract_z
Si Si1 0.565638 0.066880 0.817427
Si Si2 0.153141 0.595930 0.320531
Si Si3 0.634294 0.242511 0.678921
Si Si4 0.750736 0.431008 0.314801
Si Si5 0.283981 0.302726 0.183480
Si Si6 0.453465 0.206404 0.814281
O O1 0.615452 0.069768 0.781582
O O2 0.548800 0.133624 0.759922
O O3 0.549695 0.000000 0.756241
O O4 0.557994 0.066791 0.000000
O O5 0.145837 0.579357 0.500000
O O6 0.150463 0.670884 0.308383
O O7 0.199532 0.573992 0.275529
O O8 0.632787 0.259128 0.500000
O O9 0.669275 0.283647 0.763123
O O10 0.587081 0.241681 0.747515
O O11 0.748050 0.427003 0.500000
O O12 0.735168 0.500000 0.267620
O O13 0.728223 0.370875 0.245100
O O14 0.250000 0.250000 0.239002
O O15 0.282049 0.303084 0.000000
O O16 0.500000 0.231109 0.773491
O O17 0.449932 0.206010 0.000000
#
# Coordination Sequence:
#
# PCOD9486362 Si02
#       6
#    16  16  16  16  16  16
#     4   9  17  27  40  60  86 119 160 202 244 291
#     4   9  17  29  45  64  89 123 162 204 246 287
#     4  10  19  32  52  72  93 124 164 209 249 294
#     4  10  20  33  49  70  99 134 170 207 248 295
#     4  11  22  34  51  74 101 133 169 209 250 299
#     4   9  18  32  48  66  92 123 156 201 254 302
#
# _framework density 16.277232000000001
#
# number of rings (size 3 to 8) (size 9 to 14) (size 15 to 20)
#    0.000    2.333    1.667    1.500    0.000    4.000 
#    0.000    1.667    0.000    0.000    0.000    4.667 
#    0.000    0.667    0.000    7.000    0.000    3.000 
#
# Total GULP energy -267626.620089 kJ/mol
# GULP energy per Si atom -5575.554585 kJ/mol
# Density = 1.624018 g / cm^3
# Si number density = 16.277232 Si / 1000 Ang^3
#
#
#
# Elastic Constant Matrix: (Units=GPa)
#
#
# Indices 1 2 3 4 5 6 
#
# 1 116.3518 57.3933 27.7010 0.0000 0.0000 0.0000
# 2 57.3933 85.8534 28.9546 0.0000 0.0000 0.0000
# 3 27.7010 28.9546 24.6304 0.0000 0.0000 0.0000
# 4 0.0000 0.0000 0.0000 14.9299 0.0000 0.0000
# 5 0.0000 0.0000 0.0000 0.0000 15.2084 0.0000
# 6 0.0000 0.0000 0.0000 0.0000 0.0000 -1.5022
#
#
#
# Elastic Compliance Matrix: (Units=1/GPa)
#
#
# Indices 1 2 3 4 5 6 
#
# 1 0.013643 -0.006537 -0.007658 0.000000 0.000000 0.000000
# 2 -0.006537 0.022432 -0.019018 0.000000 0.000000 0.000000
# 3 -0.007658 -0.019018 0.071570 0.000000 0.000000 0.000000
# 4 0.000000 0.000000 0.000000 0.066980 0.000000 0.000000
# 5 0.000000 0.000000 0.000000 0.000000 0.065753 0.000000
# 6 0.000000 0.000000 0.000000 0.000000 0.000000 -0.665685
#
#
# Mechanical properties :
#
#
# Convention : Reuss Voigt Hill
#
# Bulk Modulus (GPa) = 24.26154 50.54815 37.40485
# Shear Modulus (GPa) = -14.48682 13.24632 -0.62025
#
# Velocity S-wave (km/s) = -2.98653 2.85580 -0.61796
# Velocity P-wave (km/s) = 1.74501 6.48044 4.74558
#
# Compressibility (1/GPa) = 0.04121750
#
# Stress axis : x y z
#
# Youngs Moduli (GPa) = 73.29981 44.57948 13.97234
#
# Poissons Ratio (x) = 0.29143 0.10701
# Poissons Ratio (y) = 0.47918 0.26572
# Poissons Ratio (z) = 0.56136 0.84780
#
# Static dielectric constant tensor:
#      x y z
#    x 1.544510 0.000000 0.000000 
#    y 0.000000 1.554280 0.000000 
#    z 0.000000 0.000000 1.554580 
# 
# From -- ./inp_files/16315.got.cif
#   From: 2010.05.17/outbox.cif.g08.bks.cpg/sg65_9_cif.got.tgz:16315.got - 2010.06.03 17:01:31.
