data_PCOD9486397
_publ_section_title
;
Structure prediction by ZEFSAII (Michael W. Deem and Ramdas Pophale) SiO2 
 PCOD9486397
Probable space group: C M M M
;
_chemical_formula_sum "Si O2"
_cell_formula_units_Z 80
_cell_length_a 26.600015
_cell_length_b 14.942256
_cell_length_c 9.440187
_cell_angle_alpha 90.000000
_cell_angle_beta 90.000000
_cell_angle_gamma 90.000000
_cell_volume 3752.136692
_symmetry_space_group_name_H-M "C M M M"
_symmetry_group_IT_number 65
_symmetry_cell_setting 'orthorhombic'
loop_
_space_group_symop_operation_xyz
x,y,z
-x,-y,z
x,-y,-z
-x,y,-z
-x,-y,-z
x,y,-z
-x,y,z
x,-y,z
1/2+x,1/2+y,z
1/2-x,1/2-y,z
1/2+x,1/2-y,-z
1/2-x,1/2+y,-z
1/2-x,1/2-y,-z
1/2+x,1/2+y,-z
1/2-x,1/2+y,z
1/2+x,1/2-y,z
loop_
_atom_site_type_symbol
_atom_site_label
_atom_site_fract_x
_atom_site_fract_y
_atom_site_fract_z
Si Si1 0.500000 0.859196 0.837801
Si Si2 0.708512 0.892911 0.661241
Si Si3 0.597194 0.357303 0.661641
Si Si4 0.302784 0.392547 0.840055
Si Si5 0.500000 0.639943 0.163783
Si Si6 0.403969 0.857114 0.338807
O O1 0.500000 0.749492 0.836996
O O2 0.550170 0.889130 0.756686
O O3 0.500000 0.887693 0.000000
O O4 0.711898 0.856459 0.500000
O O5 0.752786 0.858575 0.761206
O O6 0.652099 0.876601 0.715381
O O7 0.714713 0.000000 0.651696
O O8 0.598106 0.391204 0.500000
O O9 0.648649 0.375349 0.744012
O O10 0.549628 0.390019 0.752195
O O11 0.591627 0.250075 0.653644
O O12 0.298005 0.500000 0.850626
O O13 0.308498 0.356889 0.000000
O O14 0.500000 0.611580 0.000000
O O15 0.407427 0.892086 0.500000
#
# Coordination Sequence:
#
# PCOD9486397 Si02
#       6
#     8  16  16  16   8  16
#     4   9  17  29  48  73 100 132 165 198 242 293
#     4   9  18  34  54  73  96 130 169 205 243 289
#     4  10  19  32  52  76 101 129 163 202 243 290
#     4  10  21  36  52  71  98 131 164 201 247 294
#     4   9  17  31  50  73 102 131 161 199 244 291
#     4   9  18  32  51  75 101 129 163 204 246 287
#
# _framework density 21.321183999999999
#
# number of rings (size 3 to 8) (size 9 to 14) (size 15 to 20)
#    0.000    2.600    0.000    1.800    0.000    6.000 
#    0.000    5.000    0.000    6.000    0.000    0.000 
#    0.000    0.000    0.000    0.000    0.000    0.000 
#
# Total GULP energy -223395.775880 kJ/mol
# GULP energy per Si atom -5584.894397 kJ/mol
# Density = 2.127266 g / cm^3
# Si number density = 21.321184 Si / 1000 Ang^3
#
#
#
# Elastic Constant Matrix: (Units=GPa)
#
#
# Indices 1 2 3 4 5 6 
#
# 1 244.7122 -2.4014 151.1677 0.0000 0.0000 0.0000
# 2 -2.4014 47.9476 5.2377 0.0000 0.0000 0.0000
# 3 151.1677 5.2377 191.7378 0.0000 0.0000 0.0000
# 4 0.0000 0.0000 0.0000 7.0850 0.0000 0.0000
# 5 0.0000 0.0000 0.0000 0.0000 59.1832 0.0000
# 6 0.0000 0.0000 0.0000 0.0000 0.0000 31.2570
#
#
#
# Elastic Compliance Matrix: (Units=1/GPa)
#
#
# Indices 1 2 3 4 5 6 
#
# 1 0.008023 0.001096 -0.006356 0.000000 0.000000 0.000000
# 2 0.001096 0.021068 -0.001440 0.000000 0.000000 0.000000
# 3 -0.006356 -0.001440 0.010266 0.000000 0.000000 0.000000
# 4 0.000000 0.000000 0.000000 0.141144 0.000000 0.000000
# 5 0.000000 0.000000 0.000000 0.000000 0.016897 0.000000
# 6 0.000000 0.000000 0.000000 0.000000 0.000000 0.031993
#
#
# Mechanical properties :
#
#
# Convention : Reuss Voigt Hill
#
# Bulk Modulus (GPa) = 38.52258 88.04507 63.28383
# Shear Modulus (GPa) = 19.88533 41.53126 30.70829
#
# Velocity S-wave (km/s) = 3.05725 4.41828 3.79921
# Velocity P-wave (km/s) = 5.52896 8.21051 6.99935
#
# Compressibility (1/GPa) = 0.02595880
#
# Stress axis : x y z
#
# Youngs Moduli (GPa) = 124.63814 47.46470 97.41340
#
# Poissons Ratio (x) = -0.05203 0.61911
# Poissons Ratio (y) = -0.13662 0.14025
# Poissons Ratio (z) = 0.79214 0.06834
#
# Static dielectric constant tensor:
#      x y z
#    x 1.730450 0.000000 0.000000 
#    y 0.000000 1.809260 0.000000 
#    z 0.000000 0.000000 1.755630 
# 
# From -- ./inp_files/11606.got.cif
#   From: 2010.05.17/outbox.cif.g08.bks.cpg/sg65_6_cif.got.tgz:11606.got - 2010.06.03 17:01:31.
