data_PCOD9486008
_publ_section_title
;
Structure prediction by ZEFSAII (Michael W. Deem and Ramdas Pophale) SiO2 
 PCOD9486008
Probable space group: C M M M
;
_chemical_formula_sum "Si O2"
_cell_formula_units_Z 72
_cell_length_a 32.935975
_cell_length_b 13.521530
_cell_length_c 7.364179
_cell_angle_alpha 90.000000
_cell_angle_beta 90.000000
_cell_angle_gamma 90.000000
_cell_volume 3279.598633
_symmetry_space_group_name_H-M "C M M M"
_symmetry_group_IT_number 65
_symmetry_cell_setting 'orthorhombic'
loop_
_space_group_symop_operation_xyz
x,y,z
-x,-y,z
x,-y,-z
-x,y,-z
-x,-y,-z
x,y,-z
-x,y,z
x,-y,z
1/2+x,1/2+y,z
1/2-x,1/2-y,z
1/2+x,1/2-y,-z
1/2-x,1/2+y,-z
1/2-x,1/2-y,-z
1/2+x,1/2+y,-z
1/2-x,1/2+y,z
1/2+x,1/2-y,z
loop_
_atom_site_type_symbol
_atom_site_label
_atom_site_fract_x
_atom_site_fract_y
_atom_site_fract_z
Si Si1 0.547189 0.111845 0.221380
Si Si2 0.728820 0.893681 0.220983
Si Si3 0.096433 0.802850 0.786104
Si Si4 0.954170 0.000000 0.283528
Si Si5 0.812961 0.192163 0.778767
O O1 0.500000 0.126619 0.274329
O O2 0.574651 0.203497 0.285642
O O3 0.559487 0.000000 0.276117
O O4 0.547779 0.112816 0.000000
O O5 0.775495 0.876673 0.278558
O O6 0.701366 0.801868 0.275355
O O7 0.713823 0.000000 0.280969
O O8 0.728834 0.892085 0.000000
O O9 0.141522 0.825513 0.713697
O O10 0.068944 0.899915 0.769053
O O11 0.101849 0.783625 0.000000
O O12 0.955973 0.000000 0.500000
O O13 0.000000 0.000000 0.211521
O O14 0.813132 0.186172 0.000000
#
# Coordination Sequence:
#
# PCOD9486008 Si02
#       5
#    16  16  16   8  16
#     4   8  14  25  42  67  98 126 151 191 251 304
#     4   8  13  22  36  56  96 140 159 182 235 295
#     4  10  19  31  52  78 101 127 169 217 250 292
#     4  11  25  41  53  69  99 137 171 209 263 317
#     4   8  15  24  36  64  96 124 160 197 238 284
#
# _framework density 21.953904999999999
#
# number of rings (size 3 to 8) (size 9 to 14) (size 15 to 20)
#    0.000    3.222    0.000    3.000    1.556    2.667 
#    0.000    4.444    0.000    0.667    0.000    6.222 
#    0.000    0.000    0.000    0.000    0.000    0.000 
#
# Total GULP energy -200836.480543 kJ/mol
# GULP energy per Si atom -5578.791126 kJ/mol
# Density = 2.190394 g / cm^3
# Si number density = 21.953905 Si / 1000 Ang^3
#
#
#
# Elastic Constant Matrix: (Units=GPa)
#
#
# Indices 1 2 3 4 5 6 
#
# 1 124.4633 31.0925 -7.7181 0.0000 0.0000 0.0000
# 2 31.0925 95.2679 -16.1629 0.0000 0.0000 0.0000
# 3 -7.7181 -16.1629 75.4781 0.0000 0.0000 0.0000
# 4 0.0000 0.0000 0.0000 -81.8521 0.0000 0.0000
# 5 0.0000 0.0000 0.0000 0.0000 58.4213 0.0000
# 6 0.0000 0.0000 0.0000 0.0000 0.0000 7.4539
#
#
#
# Elastic Compliance Matrix: (Units=1/GPa)
#
#
# Indices 1 2 3 4 5 6 
#
# 1 0.008754 -0.002807 0.000294 0.000000 0.000000 0.000000
# 2 -0.002807 0.011793 0.002238 0.000000 0.000000 0.000000
# 3 0.000294 0.002238 0.013758 0.000000 0.000000 0.000000
# 4 0.000000 0.000000 0.000000 -0.012217 0.000000 0.000000
# 5 0.000000 0.000000 0.000000 0.000000 0.017117 0.000000
# 6 0.000000 0.000000 0.000000 0.000000 0.000000 0.134157
#
#
# Mechanical properties :
#
#
# Convention : Reuss Voigt Hill
#
# Bulk Modulus (GPa) = 29.62519 34.40359 32.01439
# Shear Modulus (GPa) = 27.00316 16.00448 21.50382
#
# Velocity S-wave (km/s) = 3.51093 2.70294 3.13309
# Velocity P-wave (km/s) = 5.47349 5.04440 5.26332
#
# Compressibility (1/GPa) = 0.03375506
#
# Stress axis : x y z
#
# Youngs Moduli (GPa) = 114.23365 84.79880 72.68371
#
# Poissons Ratio (x) = 0.23804 -0.02137
# Poissons Ratio (y) = 0.32067 -0.16268
# Poissons Ratio (z) = -0.03359 -0.18980
#
# Static dielectric constant tensor:
#      x y z
#    x 1.780490 0.000000 0.000000 
#    y 0.000000 1.773490 0.000000 
#    z 0.000000 0.000000 1.871670 
# 
# From -- ./inp_files/18013.got.cif
#   From: 2010.05.17/outbox.cif.g08.bks.cpg/sg65_10_cif.got.tgz:18013.got - 2010.06.03 17:01:31.
