data_PCOD9486284
_publ_section_title
;
Structure prediction by ZEFSAII (Michael W. Deem and Ramdas Pophale) SiO2 
 PCOD9486284
Probable space group: C M M M
;
_chemical_formula_sum "Si O2"
_cell_formula_units_Z 104
_cell_length_a 8.848630
_cell_length_b 22.457604
_cell_length_c 29.750561
_cell_angle_alpha 90.000000
_cell_angle_beta 90.000000
_cell_angle_gamma 90.000000
_cell_volume 5912.002579
_symmetry_space_group_name_H-M "C M M M"
_symmetry_group_IT_number 65
_symmetry_cell_setting 'orthorhombic'
loop_
_space_group_symop_operation_xyz
x,y,z
-x,-y,z
x,-y,-z
-x,y,-z
-x,-y,-z
x,y,-z
-x,y,z
x,-y,z
1/2+x,1/2+y,z
1/2-x,1/2-y,z
1/2+x,1/2-y,-z
1/2-x,1/2+y,-z
1/2-x,1/2-y,-z
1/2+x,1/2+y,-z
1/2-x,1/2+y,z
1/2+x,1/2-y,z
loop_
_atom_site_type_symbol
_atom_site_label
_atom_site_fract_x
_atom_site_fract_y
_atom_site_fract_z
Si Si1 0.828332 0.428240 0.801898
Si Si2 0.321510 0.185916 0.054016
Si Si3 0.321138 0.899666 0.385129
Si Si4 0.680761 0.685358 0.450945
Si Si5 0.181390 0.000000 0.551804
Si Si6 0.818997 0.930156 0.102063
Si Si7 0.824925 0.072214 0.290401
O O1 0.836017 0.500000 0.797904
O O2 0.731933 0.417686 0.846645
O O3 0.752212 0.406818 0.755821
O O4 0.000000 0.406009 0.806970
O O5 0.500000 0.186597 0.064574
O O6 0.250000 0.250000 0.068766
O O7 0.249976 0.124815 0.073693
O O8 0.303338 0.183529 0.000000
O O9 0.500000 0.908044 0.385685
O O10 0.268000 0.839540 0.408202
O O11 0.260363 0.907015 0.334919
O O12 0.241861 0.945464 0.419129
O O13 0.707310 0.654204 0.500000
O O14 0.500000 0.684986 0.444233
O O15 0.750000 0.750000 0.456012
O O16 0.232652 0.000000 0.500000
O O17 0.000000 0.000000 0.551889
O O18 0.000000 0.928773 0.098089
O O19 0.771826 0.000000 0.091443
O O20 0.000000 0.090089 0.291833
O O21 0.820451 0.000000 0.290855
#
# Coordination Sequence:
#
# PCOD9486284 Si02
#       7
#    16  16  16  16   8  16  16
#     4   9  17  30  50  76 107 140 178 224 272 319
#     4  10  21  37  57  81 112 152 196 240 288 343
#     4  12  23  34  52  77 105 135 170 210 256 310
#     4  10  21  38  58  77  98 127 166 210 255 305
#     4  11  23  37  51  71 103 139 171 207 256 311
#     4  10  20  34  54  82 115 150 191 237 287 338
#     4  10  19  32  51  74 105 141 177 215 262 318
#
# _framework density 17.591332000000001
#
# number of rings (size 3 to 8) (size 9 to 14) (size 15 to 20)
#    0.000    1.769    0.769    4.385    0.000    8.000 
#    0.000    1.538    0.000    0.923    0.000    6.462 
#    0.000    0.000    0.000    0.000    0.000    0.000 
#
# Total GULP energy -289796.607689 kJ/mol
# GULP energy per Si atom -5573.011686 kJ/mol
# Density = 1.755129 g / cm^3
# Si number density = 17.591332 Si / 1000 Ang^3
#
#
#
# Elastic Constant Matrix: (Units=GPa)
#
#
# Indices 1 2 3 4 5 6 
#
# 1 110.6444 41.5334 53.9332 0.0000 0.0000 0.0000
# 2 41.5334 85.0681 48.8209 0.0000 0.0000 0.0000
# 3 53.9332 48.8209 89.6682 0.0000 0.0000 0.0000
# 4 0.0000 0.0000 0.0000-1970.2160 0.0000 0.0000
# 5 0.0000 0.0000 0.0000 0.0000 29.1681 0.0000
# 6 0.0000 0.0000 0.0000 0.0000 0.0000 25.2673
#
#
#
# Elastic Compliance Matrix: (Units=1/GPa)
#
#
# Indices 1 2 3 4 5 6 
#
# 1 0.013215 -0.002749 -0.006451 0.000000 0.000000 0.000000
# 2 -0.002749 0.017670 -0.007967 0.000000 0.000000 0.000000
# 3 -0.006451 -0.007967 0.019370 0.000000 0.000000 0.000000
# 4 0.000000 0.000000 0.000000 -0.000508 0.000000 0.000000
# 5 0.000000 0.000000 0.000000 0.000000 0.034284 0.000000
# 6 0.000000 0.000000 0.000000 0.000000 0.000000 0.039577
#
#
# Mechanical properties :
#
#
# Convention : Reuss Voigt Hill
#
# Bulk Modulus (GPa) = 62.81607 63.77284 63.29445
# Shear Modulus (GPa) = 30.62787 -373.74991 -171.56102
#
# Velocity S-wave (km/s) = 4.17715 -14.59191 -9.88623
# Velocity P-wave (km/s) = 7.68445 15.73427 9.70867
#
# Compressibility (1/GPa) = 0.01591949
#
# Stress axis : x y z
#
# Youngs Moduli (GPa) = 75.67304 56.59347 51.62579
#
# Poissons Ratio (x) = 0.15560 0.33306
# Poissons Ratio (y) = 0.20806 0.41129
# Poissons Ratio (z) = 0.48819 0.45087
#
# Static dielectric constant tensor:
#      x y z
#    x 1.594460 0.000000 0.000000 
#    y 0.000000 1.803090 0.000000 
#    z 0.000000 0.000000 1.589060 
# 
# From -- ./inp_files/73317.got.cif
#   From: 2010.05.17/outbox.cif.g08.bks.cpg/sg65_37_cif.got.tgz:73317.got - 2010.06.03 17:01:31.
