data_PCOD9486872
_publ_section_title
;
Structure prediction by ZEFSAII (Michael W. Deem and Ramdas Pophale) SiO2 
 PCOD9486872
Probable space group: C M M M
;
_chemical_formula_sum "Si O2"
_cell_formula_units_Z 72
_cell_length_a 18.890641
_cell_length_b 7.731818
_cell_length_c 24.291634
_cell_angle_alpha 90.000000
_cell_angle_beta 90.000000
_cell_angle_gamma 90.000000
_cell_volume 3548.011725
_symmetry_space_group_name_H-M "C M M M"
_symmetry_group_IT_number 65
_symmetry_cell_setting 'orthorhombic'
loop_
_space_group_symop_operation_xyz
x,y,z
-x,-y,z
x,-y,-z
-x,y,-z
-x,-y,-z
x,y,-z
-x,y,z
x,-y,z
1/2+x,1/2+y,z
1/2-x,1/2-y,z
1/2+x,1/2-y,-z
1/2-x,1/2+y,-z
1/2-x,1/2-y,-z
1/2+x,1/2+y,-z
1/2-x,1/2+y,z
1/2+x,1/2-y,z
loop_
_atom_site_type_symbol
_atom_site_label
_atom_site_fract_x
_atom_site_fract_y
_atom_site_fract_z
Si Si1 0.666827 0.706306 0.619731
Si Si2 0.918084 0.710994 0.938248
Si Si3 0.333562 0.292114 0.500000
Si Si4 0.920096 0.293893 0.727842
Si Si5 0.332392 0.791629 0.167361
O O1 0.661903 0.500000 0.618371
O O2 0.750000 0.750000 0.626630
O O3 0.641135 0.773315 0.559623
O O4 0.621185 0.767532 0.670980
O O5 0.916625 0.500000 0.938338
O O6 0.868079 0.772109 0.889173
O O7 0.000000 0.760285 0.928429
O O8 0.897815 0.767201 0.000000
O O9 0.342593 0.500000 0.500000
O O10 0.250000 0.250000 0.500000
O O11 0.925358 0.500000 0.735939
O O12 0.874931 0.225122 0.779384
O O13 0.000000 0.223708 0.726074
O O14 0.250000 0.750000 0.170817
O O15 0.338557 0.000000 0.167018
#
# Coordination Sequence:
#
# PCOD9486872 Si02
#       5
#    16  16   8  16  16
#     4  10  19  33  54  78 103 131 165 204 246 294
#     4   8  14  27  49  74  97 125 164 204 239 282
#     4   8  16  30  49  74 101 129 161 199 243 290
#     4  10  21  36  52  71  98 132 169 209 253 299
#     4  10  20  33  50  73 100 129 162 203 249 294
#
# _framework density 20.293056
#
# number of rings (size 3 to 8) (size 9 to 14) (size 15 to 20)
#    0.000    2.667    0.000    2.667    0.000    7.111 
#    0.000    0.556    0.000    5.333    0.000    1.556 
#    0.000    0.000    0.000    0.000    0.000    0.000 
#
# Total GULP energy -200809.203984 kJ/mol
# GULP energy per Si atom -5578.033444 kJ/mol
# Density = 2.024687 g / cm^3
# Si number density = 20.293056 Si / 1000 Ang^3
#
#
#
# Elastic Constant Matrix: (Units=GPa)
#
#
# Indices 1 2 3 4 5 6 
#
# 1 143.7744 2.6875 132.3707 0.0000 0.0000 0.0000
# 2 2.6875 32.4185 5.9436 0.0000 0.0000 0.0000
# 3 132.3707 5.9436 236.4316 0.0000 0.0000 0.0000
# 4 0.0000 0.0000 0.0000 17.9107 0.0000 0.0000
# 5 0.0000 0.0000 0.0000 0.0000 -40.3821 0.0000
# 6 0.0000 0.0000 0.0000 0.0000 0.0000 20.6467
#
#
#
# Elastic Compliance Matrix: (Units=1/GPa)
#
#
# Indices 1 2 3 4 5 6 
#
# 1 0.014357 0.000285 -0.008045 0.000000 0.000000 0.000000
# 2 0.000285 0.030995 -0.000939 0.000000 0.000000 0.000000
# 3 -0.008045 -0.000939 0.008757 0.000000 0.000000 0.000000
# 4 0.000000 0.000000 0.000000 0.055833 0.000000 0.000000
# 5 0.000000 0.000000 0.000000 0.000000 -0.024763 0.000000
# 6 0.000000 0.000000 0.000000 0.000000 0.000000 0.048434
#
#
# Mechanical properties :
#
#
# Convention : Reuss Voigt Hill
#
# Bulk Modulus (GPa) = 27.23942 77.18089 52.21016
# Shear Modulus (GPa) = 30.62820 17.74323 24.18571
#
# Velocity S-wave (km/s) = 3.88918 2.96015 3.45602
# Velocity P-wave (km/s) = 5.79826 7.05684 6.45828
#
# Compressibility (1/GPa) = 0.03671150
#
# Stress axis : x y z
#
# Youngs Moduli (GPa) = 69.65142 32.26316 114.18817
#
# Poissons Ratio (x) = -0.00919 0.91868
# Poissons Ratio (y) = -0.01984 0.10718
# Poissons Ratio (z) = 0.56037 0.03028
#
# Static dielectric constant tensor:
#      x y z
#    x 1.672990 0.000000 0.000000 
#    y 0.000000 1.752910 0.000000 
#    z 0.000000 0.000000 1.749700 
# 
# From -- ./inp_files/64293.got.cif
#   From: 2010.05.17/outbox.cif.g08.bks.cpg/sg65_33_cif.got.tgz:64293.got - 2010.06.03 17:01:31.
