data_PCOD9486938
_publ_section_title
;
Structure prediction by ZEFSAII (Michael W. Deem and Ramdas Pophale) SiO2 
 PCOD9486938
Probable space group: C M M M
;
_chemical_formula_sum "Si O2"
_cell_formula_units_Z 80
_cell_length_a 17.825221
_cell_length_b 25.357725
_cell_length_c 10.012227
_cell_angle_alpha 90.000000
_cell_angle_beta 90.000000
_cell_angle_gamma 90.000000
_cell_volume 4525.597212
_symmetry_space_group_name_H-M "C M M M"
_symmetry_group_IT_number 65
_symmetry_cell_setting 'orthorhombic'
loop_
_space_group_symop_operation_xyz
x,y,z
-x,-y,z
x,-y,-z
-x,y,-z
-x,-y,-z
x,y,-z
-x,y,z
x,-y,z
1/2+x,1/2+y,z
1/2-x,1/2-y,z
1/2+x,1/2-y,-z
1/2-x,1/2+y,-z
1/2-x,1/2-y,-z
1/2+x,1/2+y,-z
1/2-x,1/2+y,z
1/2+x,1/2-y,z
loop_
_atom_site_type_symbol
_atom_site_label
_atom_site_fract_x
_atom_site_fract_y
_atom_site_fract_z
Si Si1 0.341952 0.101303 0.158516
Si Si2 0.826219 0.216554 0.344549
Si Si3 0.701449 0.592047 0.341265
Si Si4 0.500000 0.062171 0.150803
Si Si5 0.414023 0.212906 0.153853
Si Si6 0.085927 0.000000 0.338539
O O1 0.273213 0.082471 0.247667
O O2 0.420620 0.077889 0.210410
O O3 0.357248 0.163899 0.169298
O O4 0.332326 0.088408 0.000000
O O5 0.844682 0.225024 0.500000
O O6 0.750000 0.250000 0.318489
O O7 0.817270 0.154033 0.323747
O O8 0.889343 0.241002 0.251102
O O9 0.717790 0.584152 0.500000
O O10 0.634262 0.552146 0.303667
O O11 0.500000 0.000000 0.138821
O O12 0.500000 0.086530 0.000000
O O13 0.500000 0.195641 0.179568
O O14 0.409939 0.230046 0.000000
O O15 0.081452 0.000000 0.500000
O O16 0.000000 0.000000 0.287971
#
# Coordination Sequence:
#
# PCOD9486938 Si02
#       6
#    16  16  16   8  16   8
#     4  10  19  33  54  80 111 147 184 219 263 318
#     4  10  20  34  52  79 112 142 176 221 273 326
#     4  10  21  37  58  82 109 139 180 231 277 328
#     4   9  18  32  51  77 111 149 187 220 251 308
#     4  10  20  34  52  77 110 146 182 220 265 321
#     4   9  20  40  63  82 103 140 186 231 279 329
#
# _framework density 17.677223999999999
#
# number of rings (size 3 to 8) (size 9 to 14) (size 15 to 20)
#    0.000    2.200    3.000    0.000    1.400    2.400 
#    0.000    2.500    0.000    1.800    0.000    0.000 
#    0.000    0.000    0.000    0.000    0.000    0.000 
#
# Total GULP energy -222887.052093 kJ/mol
# GULP energy per Si atom -5572.176302 kJ/mol
# Density = 1.763699 g / cm^3
# Si number density = 17.677224 Si / 1000 Ang^3
#
#
#
# Elastic Constant Matrix: (Units=GPa)
#
#
# Indices 1 2 3 4 5 6 
#
# 1 144.9866 58.4523 64.1440 0.0000 0.0000 0.0000
# 2 58.4523 91.9988 36.1321 0.0000 0.0000 0.0000
# 3 64.1440 36.1321 39.5733 0.0000 0.0000 0.0000
# 4 0.0000 0.0000 0.0000 14.2378 0.0000 0.0000
# 5 0.0000 0.0000 0.0000 0.0000 30.6224 0.0000
# 6 0.0000 0.0000 0.0000 0.0000 0.0000 28.8490
#
#
#
# Elastic Compliance Matrix: (Units=1/GPa)
#
#
# Indices 1 2 3 4 5 6 
#
# 1 0.024381 0.000047 -0.039561 0.000000 0.000000 0.000000
# 2 0.000047 0.016947 -0.015549 0.000000 0.000000 0.000000
# 3 -0.039561 -0.015549 0.103592 0.000000 0.000000 0.000000
# 4 0.000000 0.000000 0.000000 0.070235 0.000000 0.000000
# 5 0.000000 0.000000 0.000000 0.000000 0.032656 0.000000
# 6 0.000000 0.000000 0.000000 0.000000 0.000000 0.034663
#
#
# Mechanical properties :
#
#
# Convention : Reuss Voigt Hill
#
# Bulk Modulus (GPa) = 28.74265 66.00173 47.37219
# Shear Modulus (GPa) = 12.37017 22.59722 17.48369
#
# Velocity S-wave (km/s) = 2.64821 3.57924 3.14833
# Velocity P-wave (km/s) = 5.06415 7.38238 6.33029
#
# Compressibility (1/GPa) = 0.03479150
#
# Stress axis : x y z
#
# Youngs Moduli (GPa) = 41.01604 59.00831 9.65329
#
# Poissons Ratio (x) = -0.00278 0.38190
# Poissons Ratio (y) = -0.00193 0.15010
# Poissons Ratio (z) = 1.62265 0.91755
#
# Static dielectric constant tensor:
#      x y z
#    x 1.616380 0.000000 0.000000 
#    y 0.000000 1.624430 0.000000 
#    z 0.000000 0.000000 1.588470 
# 
# From -- ./inp_files/9752.got.cif
#   From: 2010.05.17/outbox.cif.g08.bks.cpg/sg65_5_cif.got.tgz:9752.got - 2010.06.03 17:01:31.
