data_PCOD9486481
_publ_section_title
;
Structure prediction by ZEFSAII (Michael W. Deem and Ramdas Pophale) SiO2 
 PCOD9486481
Probable space group: C M M M
;
_chemical_formula_sum "Si O2"
_cell_formula_units_Z 76
_cell_length_a 29.292093
_cell_length_b 7.895960
_cell_length_c 19.394764
_cell_angle_alpha 90.000000
_cell_angle_beta 90.000000
_cell_angle_gamma 90.000000
_cell_volume 4485.799346
_symmetry_space_group_name_H-M "C M M M"
_symmetry_group_IT_number 65
_symmetry_cell_setting 'orthorhombic'
loop_
_space_group_symop_operation_xyz
x,y,z
-x,-y,z
x,-y,-z
-x,y,-z
-x,-y,-z
x,y,-z
-x,y,z
x,-y,z
1/2+x,1/2+y,z
1/2-x,1/2-y,z
1/2+x,1/2-y,-z
1/2-x,1/2+y,-z
1/2-x,1/2-y,-z
1/2+x,1/2+y,-z
1/2-x,1/2+y,z
1/2+x,1/2-y,z
loop_
_atom_site_type_symbol
_atom_site_label
_atom_site_fract_x
_atom_site_fract_y
_atom_site_fract_z
Si Si1 0.551344 0.000000 0.150488
Si Si2 0.393726 0.696185 0.217754
Si Si3 0.841313 0.207305 0.000000
Si Si4 0.053239 0.699180 0.652110
Si Si5 0.698814 0.299038 0.851546
Si Si6 0.083514 0.500000 0.000000
Si Si7 0.444847 0.305370 0.500000
O O1 0.576032 0.169417 0.176426
O O2 0.500000 0.000000 0.176657
O O3 0.554225 0.000000 0.068627
O O4 0.399072 0.500000 0.195188
O O5 0.412371 0.710729 0.295543
O O6 0.341559 0.750278 0.201208
O O7 0.814371 0.253965 0.070284
O O8 0.885226 0.329738 0.000000
O O9 0.849663 0.000000 0.000000
O O10 0.053718 0.500000 0.668221
O O11 0.067940 0.723050 0.572690
O O12 0.000000 0.758529 0.659363
O O13 0.698197 0.500000 0.853267
O O14 0.750000 0.250000 0.832931
O O15 0.430070 0.500000 0.500000
O O16 0.500000 0.300338 0.500000
#
# Coordination Sequence:
#
# PCOD9486481 Si02
#       7
#     8  16   8  16  16   4   8
#     4  12  25  40  58  81 108 149 197 232 277 332
#     4  11  23  39  56  81 114 146 185 235 280 337
#     4  10  21  38  55  82 107 137 177 227 284 347
#     4  10  19  32  52  79 110 147 188 226 269 322
#     4  10  22  36  57  82 108 139 178 228 290 343
#     4  12  23  38  64  72 110 152 182 236 285 320
#     4   9  17  29  47  75 110 147 184 224 269 321
#
# _framework density 16.942354000000002
#
# number of rings (size 3 to 8) (size 9 to 14) (size 15 to 20)
#    0.000    1.579    3.158    2.053    2.947    3.789 
#    0.000    0.000    0.000    1.895    0.000    0.737 
#    0.000    0.000    0.000    0.000    0.000    0.000 
#
# Total GULP energy -211856.644097 kJ/mol
# GULP energy per Si atom -5575.174845 kJ/mol
# Density = 1.690379 g / cm^3
# Si number density = 16.942354 Si / 1000 Ang^3
#
#
#
# Elastic Constant Matrix: (Units=GPa)
#
#
# Indices 1 2 3 4 5 6 
#
# 1 124.0161 35.9218 54.1633 0.0000 0.0000 0.0000
# 2 35.9218 71.6505 23.3761 0.0000 0.0000 0.0000
# 3 54.1633 23.3761 113.2482 0.0000 0.0000 0.0000
# 4 0.0000 0.0000 0.0000 -6.8129 0.0000 0.0000
# 5 0.0000 0.0000 0.0000 0.0000 2.6075 0.0000
# 6 0.0000 0.0000 0.0000 0.0000 0.0000 22.9061
#
#
#
# Elastic Compliance Matrix: (Units=1/GPa)
#
#
# Indices 1 2 3 4 5 6 
#
# 1 0.011242 -0.004162 -0.004518 0.000000 0.000000 0.000000
# 2 -0.004162 0.016505 -0.001416 0.000000 0.000000 0.000000
# 3 -0.004518 -0.001416 0.011283 0.000000 0.000000 0.000000
# 4 0.000000 0.000000 0.000000 -0.146781 0.000000 0.000000
# 5 0.000000 0.000000 0.000000 0.000000 0.383516 0.000000
# 6 0.000000 0.000000 0.000000 0.000000 0.000000 0.043657
#
#
# Mechanical properties :
#
#
# Convention : Reuss Voigt Hill
#
# Bulk Modulus (GPa) = 53.08321 59.53745 56.31033
# Shear Modulus (GPa) = 14.45532 16.77039 15.61285
#
# Velocity S-wave (km/s) = 2.92414 3.14960 3.03896
# Velocity P-wave (km/s) = 6.54221 6.96018 6.75443
#
# Compressibility (1/GPa) = 0.01883835
#
# Stress axis : x y z
#
# Youngs Moduli (GPa) = 88.95102 60.58595 88.62786
#
# Poissons Ratio (x) = 0.25218 0.40039
# Poissons Ratio (y) = 0.37024 0.12552
# Poissons Ratio (z) = 0.40185 0.08580
#
# Static dielectric constant tensor:
#      x y z
#    x 1.576050 0.000000 0.000000 
#    y 0.000000 1.621560 0.000000 
#    z 0.000000 0.000000 1.605940 
# 
# From -- ./inp_files/57369.got.cif
#   From: 2010.05.17/outbox.cif.g08.bks.cpg/sg65_29_cif.got.tgz:57369.got - 2010.06.03 17:01:31.
