data_PCOD9486077
_publ_section_title
;
Structure prediction by ZEFSAII (Michael W. Deem and Ramdas Pophale) SiO2 
 PCOD9486077
Probable space group: C M M M
;
_chemical_formula_sum "Si O2"
_cell_formula_units_Z 72
_cell_length_a 14.683002
_cell_length_b 18.176626
_cell_length_c 15.468734
_cell_angle_alpha 90.000000
_cell_angle_beta 90.000000
_cell_angle_gamma 90.000000
_cell_volume 4128.410754
_symmetry_space_group_name_H-M "C M M M"
_symmetry_group_IT_number 65
_symmetry_cell_setting 'orthorhombic'
loop_
_space_group_symop_operation_xyz
x,y,z
-x,-y,z
x,-y,-z
-x,y,-z
-x,-y,-z
x,y,-z
-x,y,z
x,-y,z
1/2+x,1/2+y,z
1/2-x,1/2-y,z
1/2+x,1/2-y,-z
1/2-x,1/2+y,-z
1/2-x,1/2-y,-z
1/2+x,1/2+y,-z
1/2-x,1/2+y,z
1/2+x,1/2-y,z
loop_
_atom_site_type_symbol
_atom_site_label
_atom_site_fract_x
_atom_site_fract_y
_atom_site_fract_z
Si Si1 0.246883 0.080655 0.000000
Si Si2 0.291334 0.920047 0.813705
Si Si3 0.893844 0.277771 0.808582
Si Si4 0.608933 0.284602 0.000000
Si Si5 0.609236 0.500000 0.596789
Si Si6 0.393702 0.383667 0.741689
O O1 0.309159 0.083973 0.084514
O O2 0.172418 0.144148 0.000000
O O3 0.202203 0.000000 0.000000
O O4 0.335247 0.846554 0.776081
O O5 0.182009 0.915020 0.805887
O O6 0.320730 0.000000 0.779520
O O7 0.883401 0.204297 0.750561
O O8 0.000000 0.298187 0.807953
O O9 0.870993 0.256046 0.908611
O O10 0.500000 0.300559 0.000000
O O11 0.500000 0.500000 0.589562
O O12 0.648006 0.500000 0.500000
O O13 0.629662 0.573343 0.652851
O O14 0.500000 0.399869 0.762250
#
# Coordination Sequence:
#
# PCOD9486077 Si02
#       6
#     8  16  16   8   8  16
#     4  10  21  30  42  70 102 137 179 213 257 302
#     4  11  21  33  50  72 102 142 175 217 258 295
#     4  10  21  34  50  72 101 140 184 220 251 290
#     4  10  19  32  48  68  98 142 182 219 258 294
#     4   9  18  34  56  81 110 136 155 191 256 326
#     4  10  19  32  52  79 104 127 162 205 252 309
#
# _framework density 17.440124999999998
#
# number of rings (size 3 to 8) (size 9 to 14) (size 15 to 20)
#    0.000    1.889    3.333    1.333    0.000    1.556 
#    0.000    2.222    0.000    6.667    0.000    0.000 
#    0.000    0.889    0.000    0.000    0.000    0.000 
#
# Total GULP energy -200408.186128 kJ/mol
# GULP energy per Si atom -5566.894059 kJ/mol
# Density = 1.740043 g / cm^3
# Si number density = 17.440125 Si / 1000 Ang^3
#
#
#
# Elastic Constant Matrix: (Units=GPa)
#
#
# Indices 1 2 3 4 5 6 
#
# 1 39.3894 44.3002 4.9123 0.0000 0.0000 0.0000
# 2 44.3002 153.2543 26.3844 0.0000 0.0000 0.0000
# 3 4.9123 26.3844 66.0767 0.0000 0.0000 0.0000
# 4 0.0000 0.0000 0.0000 7.9239 0.0000 0.0000
# 5 0.0000 0.0000 0.0000 0.0000 6.6109 0.0000
# 6 0.0000 0.0000 0.0000 0.0000 0.0000 19.0136
#
#
#
# Elastic Compliance Matrix: (Units=1/GPa)
#
#
# Indices 1 2 3 4 5 6 
#
# 1 0.037787 -0.011210 0.001667 0.000000 0.000000 0.000000
# 2 -0.011210 0.010332 -0.003292 0.000000 0.000000 0.000000
# 3 0.001667 -0.003292 0.016325 0.000000 0.000000 0.000000
# 4 0.000000 0.000000 0.000000 0.126201 0.000000 0.000000
# 5 0.000000 0.000000 0.000000 0.000000 0.151265 0.000000
# 6 0.000000 0.000000 0.000000 0.000000 0.000000 0.052594
#
#
# Mechanical properties :
#
#
# Convention : Reuss Voigt Hill
#
# Bulk Modulus (GPa) = 25.79083 45.54600 35.66842
# Shear Modulus (GPa) = 11.54473 18.91792 15.23133
#
# Velocity S-wave (km/s) = 2.57566 3.29711 2.95845
# Velocity P-wave (km/s) = 4.86474 6.37706 5.67153
#
# Compressibility (1/GPa) = 0.03877347
#
# Stress axis : x y z
#
# Youngs Moduli (GPa) = 26.46414 96.78444 61.25718
#
# Poissons Ratio (x) = 1.08493 -0.10211
# Poissons Ratio (y) = 0.29666 0.20168
# Poissons Ratio (z) = -0.04411 0.31864
#
# Static dielectric constant tensor:
#      x y z
#    x 1.605290 0.000000 0.000000 
#    y 0.000000 1.671620 0.000000 
#    z 0.000000 0.000000 1.613880 
# 
# From -- ./inp_files/39829.got.cif
#   From: 2010.05.17/outbox.cif.g08.bks.cpg/sg65_20_cif.got.tgz:39829.got - 2010.06.03 17:01:31.
