data_PCOD9486067
_publ_section_title
;
Structure prediction by ZEFSAII (Michael W. Deem and Ramdas Pophale) SiO2 
 PCOD9486067
Probable space group: C M M M
;
_chemical_formula_sum "Si O2"
_cell_formula_units_Z 104
_cell_length_a 7.688537
_cell_length_b 28.037827
_cell_length_c 27.840279
_cell_angle_alpha 90.000000
_cell_angle_beta 90.000000
_cell_angle_gamma 90.000000
_cell_volume 6001.525333
_symmetry_space_group_name_H-M "C M M M"
_symmetry_group_IT_number 65
_symmetry_cell_setting 'orthorhombic'
loop_
_space_group_symop_operation_xyz
x,y,z
-x,-y,z
x,-y,-z
-x,y,-z
-x,-y,-z
x,y,-z
-x,y,z
x,-y,z
1/2+x,1/2+y,z
1/2-x,1/2-y,z
1/2+x,1/2-y,-z
1/2-x,1/2+y,-z
1/2-x,1/2-y,-z
1/2+x,1/2+y,-z
1/2-x,1/2+y,z
1/2+x,1/2-y,z
loop_
_atom_site_type_symbol
_atom_site_label
_atom_site_fract_x
_atom_site_fract_y
_atom_site_fract_z
Si Si1 0.296500 0.098419 0.100113
Si Si2 0.703666 0.447325 0.199792
Si Si3 0.790779 0.806534 0.551668
Si Si4 0.287326 0.055551 0.000000
Si Si5 0.286498 0.649291 0.244926
Si Si6 0.706798 0.304242 0.145995
Si Si7 0.790660 0.193878 0.655970
O O1 0.500000 0.086573 0.101691
O O2 0.214432 0.070262 0.144754
O O3 0.276589 0.154592 0.110976
O O4 0.228087 0.081617 0.048611
O O5 0.500000 0.450433 0.211957
O O6 0.780962 0.500000 0.205273
O O7 0.775080 0.403831 0.231455
O O8 0.725374 0.825497 0.500000
O O9 0.750000 0.750000 0.551702
O O10 0.725842 0.823953 0.603681
O O11 0.000000 0.811923 0.551530
O O12 0.500000 0.057175 0.000000
O O13 0.237003 0.000000 0.000000
O O14 0.500000 0.649489 0.245274
O O15 0.232283 0.682864 0.200243
O O16 0.225652 0.667560 0.296469
O O17 0.500000 0.309642 0.145752
O O18 0.750000 0.250000 0.133626
O O19 0.750000 0.250000 0.660038
O O20 0.000000 0.189183 0.655522
#
# Coordination Sequence:
#
# PCOD9486067 Si02
#       7
#    16  16  16   8  16  16  16
#     4  10  19  32  50  70  90 112 139 168 202 245
#     4   9  17  30  46  63  85 110 135 167 207 247
#     4   8  13  20  30  45  66  94 127 160 193 230
#     4   9  18  32  50  71  92 111 134 169 208 245
#     4   8  15  26  40  59  81 105 134 168 202 240
#     4  10  19  32  48  66  89 115 144 174 205 241
#     4   9  15  23  35  51  74 102 131 162 196 234
#
# _framework density 17.328928000000001
#
# number of rings (size 3 to 8) (size 9 to 14) (size 15 to 20)
#    0.000    3.000    0.000    2.769    0.000    0.923 
#    0.000    5.000    0.000    2.769    0.000    0.000 
#    0.000    0.615    0.000    8.615    0.000    0.000 
#
# Total GULP energy -289613.170884 kJ/mol
# GULP energy per Si atom -5569.484055 kJ/mol
# Density = 1.728949 g / cm^3
# Si number density = 17.328928 Si / 1000 Ang^3
#
#
#
# Elastic Constant Matrix: (Units=GPa)
#
#
# Indices 1 2 3 4 5 6 
#
# 1 30.1728 -7.5548 -1.6168 0.0000 0.0000 0.0000
# 2 -7.5548 96.7068 65.2427 0.0000 0.0000 0.0000
# 3 -1.6168 65.2427 170.1459 0.0000 0.0000 0.0000
# 4 0.0000 0.0000 0.0000 12.2833 0.0000 0.0000
# 5 0.0000 0.0000 0.0000 0.0000 6.4541 0.0000
# 6 0.0000 0.0000 0.0000 0.0000 0.0000 10.6433
#
#
#
# Elastic Compliance Matrix: (Units=1/GPa)
#
#
# Indices 1 2 3 4 5 6 
#
# 1 0.033914 0.003281 -0.000936 0.000000 0.000000 0.000000
# 2 0.003281 0.014266 -0.005439 0.000000 0.000000 0.000000
# 3 -0.000936 -0.005439 0.007954 0.000000 0.000000 0.000000
# 4 0.000000 0.000000 0.000000 0.081411 0.000000 0.000000
# 5 0.000000 0.000000 0.000000 0.000000 0.154940 0.000000
# 6 0.000000 0.000000 0.000000 0.000000 0.000000 0.093956
#
#
# Mechanical properties :
#
#
# Convention : Reuss Voigt Hill
#
# Bulk Modulus (GPa) = 20.02184 45.46308 32.74246
# Shear Modulus (GPa) = 12.21663 21.93977 17.07820
#
# Velocity S-wave (km/s) = 2.65803 3.56206 3.14272
# Velocity P-wave (km/s) = 4.58250 6.57343 5.66610
#
# Compressibility (1/GPa) = 0.04994547
#
# Stress axis : x y z
#
# Youngs Moduli (GPa) = 29.48664 70.09461 125.72078
#
# Poissons Ratio (x) = -0.22996 0.11764
# Poissons Ratio (y) = -0.09674 0.68384
# Poissons Ratio (z) = 0.02759 0.38127
#
# Static dielectric constant tensor:
#      x y z
#    x 1.611890 0.000000 0.000000 
#    y 0.000000 1.713870 0.000000 
#    z 0.000000 0.000000 1.626820 
# 
# From -- ./inp_files/74036.got.cif
#   From: 2010.05.17/outbox.cif.g08.bks.cpg/sg65_38_cif.got.tgz:74036.got - 2010.06.03 17:01:31.
