data_PCOD9486013
_publ_section_title
;
Structure prediction by ZEFSAII (Michael W. Deem and Ramdas Pophale) SiO2 
 PCOD9486013
Probable space group: C M M M
;
_chemical_formula_sum "Si O2"
_cell_formula_units_Z 104
_cell_length_a 19.069737
_cell_length_b 35.018293
_cell_length_c 8.248898
_cell_angle_alpha 90.000000
_cell_angle_beta 90.000000
_cell_angle_gamma 90.000000
_cell_volume 5508.528607
_symmetry_space_group_name_H-M "C M M M"
_symmetry_group_IT_number 65
_symmetry_cell_setting 'orthorhombic'
loop_
_space_group_symop_operation_xyz
x,y,z
-x,-y,z
x,-y,-z
-x,y,-z
-x,-y,-z
x,y,-z
-x,y,z
x,-y,z
1/2+x,1/2+y,z
1/2-x,1/2-y,z
1/2+x,1/2-y,-z
1/2-x,1/2+y,-z
1/2-x,1/2-y,-z
1/2+x,1/2+y,-z
1/2-x,1/2+y,z
1/2+x,1/2-y,z
loop_
_atom_site_type_symbol
_atom_site_label
_atom_site_fract_x
_atom_site_fract_y
_atom_site_fract_z
Si Si1 0.807534 0.347313 0.687908
Si Si2 0.418220 0.543471 0.197624
Si Si3 0.914569 0.457087 0.000000
Si Si4 0.083729 0.587179 0.320850
Si Si5 0.579394 0.306537 0.194678
Si Si6 0.829962 0.736064 0.686691
Si Si7 0.163310 0.118798 0.194980
O O1 0.787014 0.340191 0.500000
O O2 0.876503 0.372973 0.689687
O O3 0.825762 0.306192 0.762642
O O4 0.743299 0.370831 0.762985
O O5 0.500000 0.550589 0.242192
O O6 0.399685 0.500000 0.249748
O O7 0.368352 0.578244 0.253642
O O8 0.416159 0.543321 0.000000
O O9 0.892875 0.437007 0.833859
O O10 0.888859 0.500000 0.000000
O O11 0.000000 0.457407 0.000000
O O12 0.099495 0.570384 0.500000
O O13 0.000000 0.591872 0.311434
O O14 0.500000 0.304240 0.256573
O O15 0.622645 0.268497 0.234293
O O16 0.617914 0.344894 0.255263
O O17 0.576750 0.309769 0.000000
O O18 0.854220 0.732445 0.500000
O O19 0.750000 0.750000 0.687192
O O20 0.157757 0.117858 0.000000
#
# Coordination Sequence:
#
# PCOD9486013 Si02
#       7
#    16  16   8  16  16  16  16
#     4  10  21  36  55  76 104 141 181 222 270 328
#     4   8  14  27  49  76 104 136 177 220 259 304
#     4   9  18  34  58  86 111 138 179 231 282 339
#     4   9  19  36  56  80 112 148 186 231 283 336
#     4  10  21  35  51  78 112 141 177 225 275 328
#     4  10  20  36  55  75 101 138 183 226 267 318
#     4  10  19  31  52  78 107 143 178 218 270 323
#
# _framework density 18.879816000000002
#
# number of rings (size 3 to 8) (size 9 to 14) (size 15 to 20)
#    0.000    2.538    1.538    0.923    1.077    4.000 
#    0.000    3.846    0.000    2.769    0.000    1.077 
#    0.000    0.000    0.000    0.000    0.000    0.000 
#
# Total GULP energy -289724.023844 kJ/mol
# GULP energy per Si atom -5571.615843 kJ/mol
# Density = 1.883684 g / cm^3
# Si number density = 18.879816 Si / 1000 Ang^3
#
#
#
# Elastic Constant Matrix: (Units=GPa)
#
#
# Indices 1 2 3 4 5 6 
#
# 1 41.1279 41.8578 21.4883 0.0000 0.0000 0.0000
# 2 41.8578 154.2858 42.1339 0.0000 0.0000 0.0000
# 3 21.4883 42.1339 45.0725 0.0000 0.0000 0.0000
# 4 0.0000 0.0000 0.0000 16.2157 0.0000 0.0000
# 5 0.0000 0.0000 0.0000 0.0000 -28.9311 0.0000
# 6 0.0000 0.0000 0.0000 0.0000 0.0000 25.7551
#
#
#
# Elastic Compliance Matrix: (Units=1/GPa)
#
#
# Indices 1 2 3 4 5 6 
#
# 1 0.037372 -0.007081 -0.011198 0.000000 0.000000 0.000000
# 2 -0.007081 0.010045 -0.006014 0.000000 0.000000 0.000000
# 3 -0.011198 -0.006014 0.033147 0.000000 0.000000 0.000000
# 4 0.000000 0.000000 0.000000 0.061669 0.000000 0.000000
# 5 0.000000 0.000000 0.000000 0.000000 -0.034565 0.000000
# 6 0.000000 0.000000 0.000000 0.000000 0.000000 0.038827
#
#
# Mechanical properties :
#
#
# Convention : Reuss Voigt Hill
#
# Bulk Modulus (GPa) = 31.27150 50.16068 40.71609
# Shear Modulus (GPa) = 24.30259 11.60835 17.95547
#
# Velocity S-wave (km/s) = 3.59169 2.48232 3.08724
# Velocity P-wave (km/s) = 5.81375 5.90271 5.85840
#
# Compressibility (1/GPa) = 0.03197800
#
# Stress axis : x y z
#
# Youngs Moduli (GPa) = 26.75834 99.55241 30.16863
#
# Poissons Ratio (x) = 0.70493 0.33782
# Poissons Ratio (y) = 0.18947 0.18144
# Poissons Ratio (z) = 0.29963 0.59873
#
# Static dielectric constant tensor:
#      x y z
#    x 1.633130 0.000000 0.000000 
#    y 0.000000 1.673060 0.000000 
#    z 0.000000 0.000000 1.710730 
# 
# From -- ./inp_files/12850.got.cif
#   From: 2010.05.17/outbox.cif.g08.bks.cpg/sg65_7_cif.got.tgz:12850.got - 2010.06.03 17:01:31.
