data_PCOD9486603
_publ_section_title
;
Structure prediction by ZEFSAII (Michael W. Deem and Ramdas Pophale) SiO2 
 PCOD9486603
Probable space group: C M M M
;
_chemical_formula_sum "Si O2"
_cell_formula_units_Z 128
_cell_length_a 18.450974
_cell_length_b 18.684387
_cell_length_c 21.694907
_cell_angle_alpha 90.000000
_cell_angle_beta 90.000000
_cell_angle_gamma 90.000000
_cell_volume 7479.213724
_symmetry_space_group_name_H-M "C M M M"
_symmetry_group_IT_number 65
_symmetry_cell_setting 'orthorhombic'
loop_
_space_group_symop_operation_xyz
x,y,z
-x,-y,z
x,-y,-z
-x,y,-z
-x,-y,-z
x,y,-z
-x,y,z
x,-y,z
1/2+x,1/2+y,z
1/2-x,1/2-y,z
1/2+x,1/2-y,-z
1/2-x,1/2+y,-z
1/2-x,1/2-y,-z
1/2+x,1/2+y,-z
1/2-x,1/2+y,z
1/2+x,1/2-y,z
loop_
_atom_site_type_symbol
_atom_site_label
_atom_site_fract_x
_atom_site_fract_y
_atom_site_fract_z
Si Si1 0.811404 0.806926 0.863500
Si Si2 0.081666 0.154360 0.757142
Si Si3 0.831772 0.220073 0.571803
Si Si4 0.697056 0.916555 0.121832
Si Si5 0.417004 0.201516 0.676842
Si Si6 0.313989 0.918824 0.730305
Si Si7 0.834964 0.918530 0.654263
Si Si8 0.083692 0.693214 0.073805
O O1 0.750000 0.750000 0.840271
O O2 0.858120 0.843628 0.809972
O O3 0.765274 0.867697 0.898709
O O4 0.868135 0.759656 0.902274
O O5 0.085358 0.231711 0.724044
O O6 0.102325 0.098599 0.703711
O O7 0.000000 0.142914 0.780208
O O8 0.851470 0.219969 0.500000
O O9 0.750000 0.250000 0.577778
O O10 0.882418 0.270185 0.613517
O O11 0.836096 0.140921 0.601179
O O12 0.697381 0.911334 0.196436
O O13 0.624696 0.877734 0.097794
O O14 0.701538 0.000000 0.104714
O O15 0.500000 0.180435 0.668116
O O16 0.370273 0.138458 0.705629
O O17 0.239140 0.909126 0.693285
O O18 0.339241 0.000000 0.719129
O O19 0.838958 0.000000 0.632049
O O20 0.000000 0.697261 0.095360
O O21 0.083920 0.692762 0.000000
#
# Coordination Sequence:
#
# PCOD9486603 Si02
#       8
#    16  16  16  16  16  16  16  16
#     4  10  19  32  55  80 109 143 180 225 270 319
#     4  10  20  31  51  81 108 139 176 215 265 319
#     4  10  20  35  56  78 101 137 183 224 265 314
#     4  10  21  35  55  83 113 143 179 224 279 331
#     4  10  20  33  51  77 106 138 177 221 269 317
#     4  10  19  33  53  79 110 144 175 213 269 327
#     4  10  20  34  54  78 109 142 173 214 264 316
#     4  10  22  39  57  78 107 146 189 230 272 318
#
# _framework density 17.114097999999998
#
# number of rings (size 3 to 8) (size 9 to 14) (size 15 to 20)
#    0.000    2.000    2.500    1.875    0.000    5.250 
#    0.000    1.875    0.000    1.500    0.000    5.250 
#    0.000    0.000    0.000    0.000    0.000    0.000 
#
# Total GULP energy -357017.658407 kJ/mol
# GULP energy per Si atom -5578.400913 kJ/mol
# Density = 1.707515 g / cm^3
# Si number density = 17.114098 Si / 1000 Ang^3
#
#
#
# Elastic Constant Matrix: (Units=GPa)
#
#
# Indices 1 2 3 4 5 6 
#
# 1 113.1864 41.9109 13.3878 0.0000 0.0000 0.0000
# 2 41.9109 96.6759 7.0772 0.0000 0.0000 0.0000
# 3 13.3878 7.0772 28.1599 0.0000 0.0000 0.0000
# 4 0.0000 0.0000 0.0000 12.7250 0.0000 0.0000
# 5 0.0000 0.0000 0.0000 0.0000 22.5367 0.0000
# 6 0.0000 0.0000 0.0000 0.0000 0.0000 11.7148
#
#
#
# Elastic Compliance Matrix: (Units=1/GPa)
#
#
# Indices 1 2 3 4 5 6 
#
# 1 0.010969 -0.004456 -0.004095 0.000000 0.000000 0.000000
# 2 -0.004456 0.012348 -0.000985 0.000000 0.000000 0.000000
# 3 -0.004095 -0.000985 0.037706 0.000000 0.000000 0.000000
# 4 0.000000 0.000000 0.000000 0.078586 0.000000 0.000000
# 5 0.000000 0.000000 0.000000 0.000000 0.044372 0.000000
# 6 0.000000 0.000000 0.000000 0.000000 0.000000 0.085362
#
#
# Mechanical properties :
#
#
# Convention : Reuss Voigt Hill
#
# Bulk Modulus (GPa) = 23.83719 40.30821 32.07270
# Shear Modulus (GPa) = 16.53453 21.10506 18.81980
#
# Velocity S-wave (km/s) = 3.11164 3.51550 3.31972
# Velocity P-wave (km/s) = 5.18347 6.33104 5.78578
#
# Compressibility (1/GPa) = 0.04195125
#
# Stress axis : x y z
#
# Youngs Moduli (GPa) = 91.16452 80.98790 26.52104
#
# Poissons Ratio (x) = 0.36085 0.10861
# Poissons Ratio (y) = 0.40619 0.02612
# Poissons Ratio (z) = 0.37333 0.07977
#
# Static dielectric constant tensor:
#      x y z
#    x 1.582600 0.000000 0.000000 
#    y 0.000000 1.581660 0.000000 
#    z 0.000000 0.000000 1.560950 
# 
# From -- ./inp_files/70673.got.cif
#   From: 2010.05.17/outbox.cif.g08.bks.cpg/sg65_36_cif.got.tgz:70673.got - 2010.06.03 17:01:31.
