data_PCOD9486152
_publ_section_title
;
Structure prediction by ZEFSAII (Michael W. Deem and Ramdas Pophale) SiO2 
 PCOD9486152
Probable space group: C M M M
;
_chemical_formula_sum "Si O2"
_cell_formula_units_Z 88
_cell_length_a 15.117090
_cell_length_b 16.314009
_cell_length_c 20.483188
_cell_angle_alpha 90.000000
_cell_angle_beta 90.000000
_cell_angle_gamma 90.000000
_cell_volume 5051.570836
_symmetry_space_group_name_H-M "C M M M"
_symmetry_group_IT_number 65
_symmetry_cell_setting 'orthorhombic'
loop_
_space_group_symop_operation_xyz
x,y,z
-x,-y,z
x,-y,-z
-x,y,-z
-x,-y,-z
x,y,-z
-x,y,z
x,-y,z
1/2+x,1/2+y,z
1/2-x,1/2-y,z
1/2+x,1/2-y,-z
1/2-x,1/2+y,-z
1/2-x,1/2-y,-z
1/2+x,1/2+y,-z
1/2-x,1/2+y,z
1/2+x,1/2-y,z
loop_
_atom_site_type_symbol
_atom_site_label
_atom_site_fract_x
_atom_site_fract_y
_atom_site_fract_z
Si Si1 0.105669 0.321095 0.833350
Si Si2 0.202789 0.665240 0.693827
Si Si3 0.732011 0.500000 0.735938
Si Si4 0.607850 0.327315 0.074276
Si Si5 0.393348 0.500000 0.140277
Si Si6 0.894060 0.404754 0.427863
Si Si7 0.896686 0.500000 0.169915
O O1 0.153192 0.323023 0.763339
O O2 0.136970 0.246474 0.878511
O O3 0.118906 0.412266 0.864188
O O4 0.000000 0.311146 0.823641
O O5 0.250000 0.750000 0.680178
O O6 0.268407 0.586804 0.699390
O O7 0.139165 0.644470 0.634017
O O8 0.658413 0.500000 0.791840
O O9 0.829682 0.500000 0.769535
O O10 0.500000 0.324701 0.073197
O O11 0.631468 0.416833 0.102058
O O12 0.638669 0.317035 0.000000
O O13 0.500000 0.500000 0.148801
O O14 0.863555 0.376643 0.500000
O O15 0.866891 0.500000 0.420247
O O16 0.000000 0.403397 0.428275
O O17 0.000000 0.500000 0.190739
#
# Coordination Sequence:
#
# PCOD9486152 Si02
#       7
#    16  16   8  16   8  16   8
#     4   9  17  30  48  72  98 128 165 208 260 319
#     4  11  20  31  50  77 109 140 170 208 263 313
#     4  10  20  33  49  75 106 135 173 218 257 314
#     4   9  17  30  49  71  94 125 171 223 269 311
#     4  10  19  32  50  69  94 133 176 220 265 304
#     4   9  18  34  56  81 108 137 172 217 266 313
#     4   8  16  30  50  71  94 125 159 200 259 318
#
# _framework density 17.420324000000001
#
# number of rings (size 3 to 8) (size 9 to 14) (size 15 to 20)
#    0.000    2.545    0.909    2.455    0.000    2.182 
#    0.000    1.364    0.000   20.727    0.000    0.000 
#    0.000    2.182    0.000    0.000    0.000    0.000 
#
# Total GULP energy -245111.325670 kJ/mol
# GULP energy per Si atom -5570.711947 kJ/mol
# Density = 1.738067 g / cm^3
# Si number density = 17.420324 Si / 1000 Ang^3
#
#
#
# Elastic Constant Matrix: (Units=GPa)
#
#
# Indices 1 2 3 4 5 6 
#
# 1 25.5095 27.2340 26.6916 0.0000 0.0000 0.0000
# 2 27.2340 159.4616 75.1402 0.0000 0.0000 0.0000
# 3 26.6916 75.1402 117.8279 0.0000 0.0000 0.0000
# 4 0.0000 0.0000 0.0000 20.9966 0.0000 0.0000
# 5 0.0000 0.0000 0.0000 0.0000 -56.5874 0.0000
# 6 0.0000 0.0000 0.0000 0.0000 0.0000 17.4046
#
#
#
# Elastic Compliance Matrix: (Units=1/GPa)
#
#
# Indices 1 2 3 4 5 6 
#
# 1 0.053972 -0.004941 -0.009075 0.000000 0.000000 0.000000
# 2 -0.004941 0.009418 -0.004886 0.000000 0.000000 0.000000
# 3 -0.009075 -0.004886 0.013659 0.000000 0.000000 0.000000
# 4 0.000000 0.000000 0.000000 0.047627 0.000000 0.000000
# 5 0.000000 0.000000 0.000000 0.000000 -0.017672 0.000000
# 6 0.000000 0.000000 0.000000 0.000000 0.000000 0.057456
#
#
# Mechanical properties :
#
#
# Convention : Reuss Voigt Hill
#
# Bulk Modulus (GPa) = 25.48233 62.32562 43.90398
# Shear Modulus (GPa) = 23.21840 7.94497 15.58168
#
# Velocity S-wave (km/s) = 3.65476 2.13791 2.99399
# Velocity P-wave (km/s) = 5.69819 6.47684 6.09995
#
# Compressibility (1/GPa) = 0.03924288
#
# Stress axis : x y z
#
# Youngs Moduli (GPa) = 18.52802 106.18529 73.21306
#
# Poissons Ratio (x) = 0.52471 0.66442
# Poissons Ratio (y) = 0.09156 0.35774
# Poissons Ratio (z) = 0.16814 0.51885
#
# Static dielectric constant tensor:
#      x y z
#    x 1.589730 0.000000 0.000000 
#    y 0.000000 1.630410 0.000000 
#    z 0.000000 0.000000 1.576180 
# 
# From -- ./inp_files/54350.got.cif
#   From: 2010.05.17/outbox.cif.g08.bks.cpg/sg65_28_cif.got.tgz:54350.got - 2010.06.03 17:01:31.
