data_PCOD9486078
_publ_section_title
;
Structure prediction by ZEFSAII (Michael W. Deem and Ramdas Pophale) SiO2 
 PCOD9486078
Probable space group: C M M M
;
_chemical_formula_sum "Si O2"
_cell_formula_units_Z 120
_cell_length_a 8.599346
_cell_length_b 29.495363
_cell_length_c 29.426520
_cell_angle_alpha 90.000000
_cell_angle_beta 90.000000
_cell_angle_gamma 90.000000
_cell_volume 7463.767011
_symmetry_space_group_name_H-M "C M M M"
_symmetry_group_IT_number 65
_symmetry_cell_setting 'orthorhombic'
loop_
_space_group_symop_operation_xyz
x,y,z
-x,-y,z
x,-y,-z
-x,y,-z
-x,-y,-z
x,y,-z
-x,y,z
x,-y,z
1/2+x,1/2+y,z
1/2-x,1/2-y,z
1/2+x,1/2-y,-z
1/2-x,1/2+y,-z
1/2-x,1/2-y,-z
1/2+x,1/2+y,-z
1/2-x,1/2+y,z
1/2+x,1/2-y,z
loop_
_atom_site_type_symbol
_atom_site_label
_atom_site_fract_x
_atom_site_fract_y
_atom_site_fract_z
Si Si1 0.687587 0.948672 0.280557
Si Si2 0.687928 0.699648 0.051520
Si Si3 0.686069 0.356608 0.684595
Si Si4 0.312648 0.050943 0.174701
Si Si5 0.187945 0.199004 0.225754
Si Si6 0.313127 0.198571 0.599658
Si Si7 0.187591 0.142024 0.862727
Si Si8 0.187162 0.301166 0.500000
O O1 0.500000 0.946348 0.282449
O O2 0.757826 0.908097 0.309481
O O3 0.733758 0.942152 0.227580
O O4 0.733353 0.000000 0.293735
O O5 0.500000 0.701130 0.052450
O O6 0.750000 0.750000 0.061292
O O7 0.740488 0.665185 0.090490
O O8 0.736091 0.687498 0.000000
O O9 0.500000 0.355427 0.683468
O O10 0.738316 0.328507 0.729383
O O11 0.751121 0.332351 0.640030
O O12 0.500000 0.052425 0.173408
O O13 0.245847 0.091270 0.144925
O O14 0.263834 0.000000 0.161422
O O15 0.250000 0.250000 0.226399
O O16 0.239053 0.172394 0.180409
O O17 0.000000 0.200351 0.225627
O O18 0.500000 0.200363 0.601631
O O19 0.250000 0.250000 0.604512
O O20 0.265073 0.180279 0.549408
O O21 0.000000 0.141707 0.862505
O O22 0.250000 0.250000 0.500000
O O23 0.000000 0.300377 0.500000
#
# Coordination Sequence:
#
# PCOD9486078 Si02
#       8
#    16  16  16  16  16  16  16   8
#     4   9  18  33  51  70  93 123 159 199 241 284
#     4   9  18  32  50  71  95 123 158 199 238 279
#     4  11  21  32  46  69  99 130 162 194 234 285
#     4   9  18  32  50  72  95 120 155 196 237 282
#     4  10  21  32  42  62  93 127 158 188 223 273
#     4  10  19  32  49  70  97 130 166 203 242 282
#     4  10  19  32  48  69  95 123 157 195 237 281
#     4   8  16  30  48  68  91 122 163 206 242 279
#
# _framework density 16.077672
#
# number of rings (size 3 to 8) (size 9 to 14) (size 15 to 20)
#    0.000    2.400    1.333    2.400    0.000    4.267 
#    0.000    1.333    0.000    0.400    0.000    3.267 
#    0.000    3.733    0.000    0.000    0.000    0.000 
#
# Total GULP energy -334533.210265 kJ/mol
# GULP energy per Si atom -5575.553504 kJ/mol
# Density = 1.604108 g / cm^3
# Si number density = 16.077672 Si / 1000 Ang^3
#
#
#
# Elastic Constant Matrix: (Units=GPa)
#
#
# Indices 1 2 3 4 5 6 
#
# 1 14.4120 25.8939 29.5532 0.0000 0.0000 0.0000
# 2 25.8939 137.5808 92.9116 0.0000 0.0000 0.0000
# 3 29.5532 92.9116 142.0162 0.0000 0.0000 0.0000
# 4 0.0000 0.0000 0.0000 13.5520 0.0000 0.0000
# 5 0.0000 0.0000 0.0000 0.0000 15.1428 0.0000
# 6 0.0000 0.0000 0.0000 0.0000 0.0000 29.0817
#
#
#
# Elastic Compliance Matrix: (Units=1/GPa)
#
#
# Indices 1 2 3 4 5 6 
#
# 1 0.129840 -0.011090 -0.019764 0.000000 0.000000 0.000000
# 2 -0.011090 0.013969 -0.006831 0.000000 0.000000 0.000000
# 3 -0.019764 -0.006831 0.015623 0.000000 0.000000 0.000000
# 4 0.000000 0.000000 0.000000 0.073790 0.000000 0.000000
# 5 0.000000 0.000000 0.000000 0.000000 0.066038 0.000000
# 6 0.000000 0.000000 0.000000 0.000000 0.000000 0.034386
#
#
# Mechanical properties :
#
#
# Convention : Reuss Voigt Hill
#
# Bulk Modulus (GPa) = 11.89594 65.63627 38.76610
# Shear Modulus (GPa) = 11.44068 21.26531 16.35299
#
# Velocity S-wave (km/s) = 2.67045 3.64079 3.19270
# Velocity P-wave (km/s) = 4.11382 7.65421 6.14453
#
# Compressibility (1/GPa) = 0.08406229
#
# Stress axis : x y z
#
# Youngs Moduli (GPa) = 7.70178 71.58770 64.00629
#
# Poissons Ratio (x) = 0.79389 1.26503
# Poissons Ratio (y) = 0.08541 0.43724
# Poissons Ratio (z) = 0.15222 0.48903
#
# Static dielectric constant tensor:
#      x y z
#    x 1.547910 0.000000 0.000000 
#    y 0.000000 1.511070 0.000000 
#    z 0.000000 0.000000 1.552630 
# 
# From -- ./inp_files/73893.got.cif
#   From: 2010.05.17/outbox.cif.g08.bks.cpg/sg65_37_cif.got.tgz:73893.got - 2010.06.03 17:01:31.
