data_PCOD9486778
_publ_section_title
;
Structure prediction by ZEFSAII (Michael W. Deem and Ramdas Pophale) SiO2 
 PCOD9486778
Probable space group: C M M M
;
_chemical_formula_sum "Si O2"
_cell_formula_units_Z 64
_cell_length_a 35.276105
_cell_length_b 7.674499
_cell_length_c 10.421736
_cell_angle_alpha 90.000000
_cell_angle_beta 90.000000
_cell_angle_gamma 90.000000
_cell_volume 2821.439408
_symmetry_space_group_name_H-M "C M M M"
_symmetry_group_IT_number 65
_symmetry_cell_setting 'orthorhombic'
loop_
_space_group_symop_operation_xyz
x,y,z
-x,-y,z
x,-y,-z
-x,y,-z
-x,-y,-z
x,y,-z
-x,y,z
x,-y,z
1/2+x,1/2+y,z
1/2-x,1/2-y,z
1/2+x,1/2-y,-z
1/2-x,1/2+y,-z
1/2-x,1/2-y,-z
1/2+x,1/2+y,-z
1/2-x,1/2+y,z
1/2+x,1/2-y,z
loop_
_atom_site_type_symbol
_atom_site_label
_atom_site_fract_x
_atom_site_fract_y
_atom_site_fract_z
Si Si1 0.185292 0.212843 0.500000
Si Si2 0.934448 0.801382 0.000000
Si Si3 0.042502 0.213368 0.276387
Si Si4 0.597792 0.712794 0.500000
Si Si5 0.350713 0.804312 0.000000
Si Si6 0.707802 0.292515 0.780433
O O1 0.141328 0.265949 0.500000
O O2 0.203395 0.273210 0.366028
O O3 0.187250 0.000000 0.500000
O O4 0.948764 0.723293 0.133082
O O5 0.888811 0.807066 0.000000
O O6 0.949117 0.000000 0.000000
O O7 0.074548 0.270631 0.375439
O O8 0.000000 0.262143 0.316206
O O9 0.043933 0.000000 0.275894
O O10 0.598081 0.500000 0.500000
O O11 0.324257 0.775826 0.123872
O O12 0.365066 0.000000 0.000000
O O13 0.703293 0.500000 0.778661
O O14 0.750000 0.250000 0.827288
#
# Coordination Sequence:
#
# PCOD9486778 Si02
#       6
#     8   8  16   8   8  16
#     4   9  19  34  56  85 116 149 184 225 275 331
#     4  10  19  33  53  76 105 140 180 228 279 327
#     4   9  16  26  45  75 108 140 176 220 270 323
#     4   9  15  25  42  70 108 143 174 213 265 321
#     4  12  25  40  57  81 112 148 191 234 279 331
#     4  11  22  39  61  86 115 147 184 227 278 332
#
# _framework density 22.683456
#
# number of rings (size 3 to 8) (size 9 to 14) (size 15 to 20)
#    0.000    2.000    0.000    4.875    0.000    7.000 
#    0.000    1.875    0.000    1.500    0.000    0.000 
#    0.000    4.000    0.000    0.000    0.000    0.000 
#
# Total GULP energy -178931.924702 kJ/mol
# GULP energy per Si atom -5591.622647 kJ/mol
# Density = 2.263183 g / cm^3
# Si number density = 22.683456 Si / 1000 Ang^3
#
#
#
# Elastic Constant Matrix: (Units=GPa)
#
#
# Indices 1 2 3 4 5 6 
#
# 1 95.4248 -13.5521 1.5341 0.0000 0.0000 0.0000
# 2 -13.5521 53.9777 1.6756 0.0000 0.0000 0.0000
# 3 1.5341 1.6756 90.6436 0.0000 0.0000 0.0000
# 4 0.0000 0.0000 0.0000 23.2455 0.0000 0.0000
# 5 0.0000 0.0000 0.0000 0.0000 34.0822 0.0000
# 6 0.0000 0.0000 0.0000 0.0000 0.0000 5.6740
#
#
#
# Elastic Compliance Matrix: (Units=1/GPa)
#
#
# Indices 1 2 3 4 5 6 
#
# 1 0.010872 0.002737 -0.000235 0.000000 0.000000 0.000000
# 2 0.002737 0.019226 -0.000402 0.000000 0.000000 0.000000
# 3 -0.000235 -0.000402 0.011044 0.000000 0.000000 0.000000
# 4 0.000000 0.000000 0.000000 0.043019 0.000000 0.000000
# 5 0.000000 0.000000 0.000000 0.000000 0.029341 0.000000
# 6 0.000000 0.000000 0.000000 0.000000 0.000000 0.176242
#
#
# Mechanical properties :
#
#
# Convention : Reuss Voigt Hill
#
# Bulk Modulus (GPa) = 22.05438 24.37346 23.21392
# Shear Modulus (GPa) = 16.63027 29.29291 22.96159
#
# Velocity S-wave (km/s) = 2.71060 3.59747 3.18506
# Velocity P-wave (km/s) = 4.42044 5.29378 4.87670
#
# Compressibility (1/GPa) = 0.04534247
#
# Stress axis : x y z
#
# Youngs Moduli (GPa) = 91.98010 52.01349 90.55009
#
# Poissons Ratio (x) = -0.14235 0.02124
# Poissons Ratio (y) = -0.25174 0.03637
# Poissons Ratio (z) = 0.02158 0.02089
#
# Static dielectric constant tensor:
#      x y z
#    x 1.940930 0.000000 0.000000 
#    y 0.000000 1.866240 0.000000 
#    z 0.000000 0.000000 1.832630 
# 
# From -- ./inp_files/21044.got.cif
#   From: 2010.05.17/outbox.cif.g08.bks.cpg/sg65_11_cif.got.tgz:21044.got - 2010.06.03 17:01:31.
