data_PCOD9486788
_publ_section_title
;
Structure prediction by ZEFSAII (Michael W. Deem and Ramdas Pophale) SiO2 
 PCOD9486788
Probable space group: C M M M
;
_chemical_formula_sum "Si O2"
_cell_formula_units_Z 80
_cell_length_a 8.960468
_cell_length_b 18.096247
_cell_length_c 27.204307
_cell_angle_alpha 90.000000
_cell_angle_beta 90.000000
_cell_angle_gamma 90.000000
_cell_volume 4411.201291
_symmetry_space_group_name_H-M "C M M M"
_symmetry_group_IT_number 65
_symmetry_cell_setting 'orthorhombic'
loop_
_space_group_symop_operation_xyz
x,y,z
-x,-y,z
x,-y,-z
-x,y,-z
-x,-y,-z
x,y,-z
-x,y,z
x,-y,z
1/2+x,1/2+y,z
1/2-x,1/2-y,z
1/2+x,1/2-y,-z
1/2-x,1/2+y,-z
1/2-x,1/2-y,-z
1/2+x,1/2+y,-z
1/2-x,1/2+y,z
1/2+x,1/2-y,z
loop_
_atom_site_type_symbol
_atom_site_label
_atom_site_fract_x
_atom_site_fract_y
_atom_site_fract_z
Si Si1 0.674348 0.411791 0.000000
Si Si2 0.826834 0.089103 0.601234
Si Si3 0.820868 0.331772 0.692834
Si Si4 0.178882 0.331329 0.800143
Si Si5 0.672089 0.090086 0.500000
Si Si6 0.179671 0.332102 0.092169
O O1 0.753380 0.379354 0.951823
O O2 0.684192 0.500000 0.000000
O O3 0.500000 0.390032 0.000000
O O4 0.741842 0.121417 0.647934
O O5 0.753683 0.114005 0.549848
O O6 0.000000 0.110953 0.602773
O O7 0.819039 0.000000 0.602496
O O8 0.750000 0.250000 0.690296
O O9 0.780803 0.364723 0.747004
O O10 0.000000 0.326651 0.689592
O O11 0.250000 0.250000 0.800135
O O12 0.218192 0.364335 0.853416
O O13 0.000000 0.323870 0.800111
O O14 0.500000 0.113270 0.500000
O O15 0.675002 0.000000 0.500000
O O16 0.250000 0.250000 0.089301
O O17 0.000000 0.327392 0.087925
#
# Coordination Sequence:
#
# PCOD9486788 Si02
#       6
#     8  16  16  16   8  16
#     4  11  24  39  52  71 103 139 172 209 256 305
#     4  10  20  34  52  75 103 135 172 212 253 300
#     4  10  19  33  53  77 106 137 169 206 252 303
#     4   8  16  30  50  76 102 130 165 206 249 295
#     4   9  17  31  52  75  98 129 170 213 257 303
#     4  10  19  34  57  81 103 130 169 212 252 298
#
# _framework density 18.135649999999998
#
# number of rings (size 3 to 8) (size 9 to 14) (size 15 to 20)
#    0.000    2.400    0.000    2.700    0.000    4.800 
#    0.000    1.500    0.000    6.000    0.000    0.000 
#    0.000    0.000    0.000    0.000    0.000    0.000 
#
# Total GULP energy -222943.501737 kJ/mol
# GULP energy per Si atom -5573.587543 kJ/mol
# Density = 1.809437 g / cm^3
# Si number density = 18.135650 Si / 1000 Ang^3
#
#
#
# Elastic Constant Matrix: (Units=GPa)
#
#
# Indices 1 2 3 4 5 6 
#
# 1 104.6446 26.6682 87.1952 0.0000 0.0000 0.0000
# 2 26.6682 16.5400 38.5187 0.0000 0.0000 0.0000
# 3 87.1952 38.5187 226.2336 0.0000 0.0000 0.0000
# 4 0.0000 0.0000 0.0000 35.6941 0.0000 0.0000
# 5 0.0000 0.0000 0.0000 0.0000 32.5235 0.0000
# 6 0.0000 0.0000 0.0000 0.0000 0.0000 23.8593
#
#
#
# Elastic Compliance Matrix: (Units=1/GPa)
#
#
# Indices 1 2 3 4 5 6 
#
# 1 0.017533 -0.020766 -0.003222 0.000000 0.000000 0.000000
# 2 -0.020766 0.124777 -0.013241 0.000000 0.000000 0.000000
# 3 -0.003222 -0.013241 0.007916 0.000000 0.000000 0.000000
# 4 0.000000 0.000000 0.000000 0.028016 0.000000 0.000000
# 5 0.000000 0.000000 0.000000 0.000000 0.030747 0.000000
# 6 0.000000 0.000000 0.000000 0.000000 0.000000 0.041912
#
#
# Mechanical properties :
#
#
# Convention : Reuss Voigt Hill
#
# Bulk Modulus (GPa) = 13.19802 72.46471 42.83137
# Shear Modulus (GPa) = 14.26064 31.41779 22.83921
#
# Velocity S-wave (km/s) = 2.80720 4.16670 3.55259
# Velocity P-wave (km/s) = 4.21905 7.94936 6.36367
#
# Compressibility (1/GPa) = 0.07576893
#
# Stress axis : x y z
#
# Youngs Moduli (GPa) = 57.03568 8.01429 126.31898
#
# Poissons Ratio (x) = 0.16642 0.40699
# Poissons Ratio (y) = 1.18439 1.67261
# Poissons Ratio (z) = 0.18377 0.10612
#
# Static dielectric constant tensor:
#      x y z
#    x 1.605330 0.000000 0.000000 
#    y 0.000000 1.585520 0.000000 
#    z 0.000000 0.000000 1.659240 
# 
# From -- ./inp_files/72881.got.cif
#   From: 2010.05.17/outbox.cif.g08.bks.cpg/sg65_37_cif.got.tgz:72881.got - 2010.06.03 17:01:31.
