data_PCOD9486568
_publ_section_title
;
Structure prediction by ZEFSAII (Michael W. Deem and Ramdas Pophale) SiO2 
 PCOD9486568
Probable space group: C M M M
;
_chemical_formula_sum "Si O2"
_cell_formula_units_Z 72
_cell_length_a 24.758246
_cell_length_b 18.188501
_cell_length_c 7.362325
_cell_angle_alpha 90.000000
_cell_angle_beta 90.000000
_cell_angle_gamma 90.000000
_cell_volume 3315.368196
_symmetry_space_group_name_H-M "C M M M"
_symmetry_group_IT_number 65
_symmetry_cell_setting 'orthorhombic'
loop_
_space_group_symop_operation_xyz
x,y,z
-x,-y,z
x,-y,-z
-x,y,-z
-x,-y,-z
x,y,-z
-x,y,z
x,-y,z
1/2+x,1/2+y,z
1/2-x,1/2-y,z
1/2+x,1/2-y,-z
1/2-x,1/2+y,-z
1/2-x,1/2-y,-z
1/2+x,1/2+y,-z
1/2-x,1/2+y,z
1/2+x,1/2-y,z
loop_
_atom_site_type_symbol
_atom_site_label
_atom_site_fract_x
_atom_site_fract_y
_atom_site_fract_z
Si Si1 0.938916 0.500000 0.216669
Si Si2 0.562205 0.290111 0.277933
Si Si3 0.126676 0.353056 0.287154
Si Si4 0.355265 0.415907 0.278306
Si Si5 0.753873 0.335732 0.279025
O O1 0.907428 0.573135 0.271317
O O2 0.000000 0.500000 0.287904
O O3 0.941382 0.500000 0.000000
O O4 0.561445 0.288857 0.500000
O O5 0.500000 0.290849 0.219045
O O6 0.593721 0.216936 0.214707
O O7 0.596633 0.361336 0.223316
O O8 0.133916 0.336488 0.500000
O O9 0.187423 0.362695 0.215559
O O10 0.354926 0.415983 0.500000
O O11 0.361743 0.500000 0.219837
O O12 0.298010 0.381644 0.218014
O O13 0.752064 0.339268 0.500000
O O14 0.750000 0.250000 0.229423
#
# Coordination Sequence:
#
# PCOD9486568 Si02
#       5
#     8  16  16  16  16
#     4  11  25  41  53  71 105 141 170 211 268 320
#     4   9  16  26  41  64  95 130 167 207 248 292
#     4  10  19  32  54  79 100 130 174 217 253 301
#     4   9  16  24  36  61  99 136 165 197 246 304
#     4   9  15  26  44  70 101 129 162 207 256 297
#
# _framework density 21.717046
#
# number of rings (size 3 to 8) (size 9 to 14) (size 15 to 20)
#    0.000    2.556    2.222    1.000    1.556    2.222 
#    0.000    2.222    0.000    0.667    0.000    0.000 
#    0.000    0.000    0.000    4.667    0.000    4.444 
#
# Total GULP energy -201123.234966 kJ/mol
# GULP energy per Si atom -5586.756527 kJ/mol
# Density = 2.166762 g / cm^3
# Si number density = 21.717046 Si / 1000 Ang^3
#
#
#
# Elastic Constant Matrix: (Units=GPa)
#
#
# Indices 1 2 3 4 5 6 
#
# 1 202.0929 94.5436 2.8837 0.0000 0.0000 0.0000
# 2 94.5436 176.7443 -8.3507 0.0000 0.0000 0.0000
# 3 2.8837 -8.3507 75.9001 0.0000 0.0000 0.0000
# 4 0.0000 0.0000 0.0000 -114.6579 0.0000 0.0000
# 5 0.0000 0.0000 0.0000 0.0000 -5.9355 0.0000
# 6 0.0000 0.0000 0.0000 0.0000 0.0000 35.9796
#
#
#
# Elastic Compliance Matrix: (Units=1/GPa)
#
#
# Indices 1 2 3 4 5 6 
#
# 1 0.006631 -0.003578 -0.000646 0.000000 0.000000 0.000000
# 2 -0.003578 0.007618 0.000974 0.000000 0.000000 0.000000
# 3 -0.000646 0.000974 0.013307 0.000000 0.000000 0.000000
# 4 0.000000 0.000000 0.000000 -0.008722 0.000000 0.000000
# 5 0.000000 0.000000 0.000000 0.000000 -0.168479 0.000000
# 6 0.000000 0.000000 0.000000 0.000000 0.000000 0.027794
#
#
# Mechanical properties :
#
#
# Convention : Reuss Voigt Hill
#
# Bulk Modulus (GPa) = 47.48923 70.32117 58.90520
# Shear Modulus (GPa) = -46.15363 7.45463 -19.34950
#
# Velocity S-wave (km/s) = -4.61502 1.85474 -2.98817
# Velocity P-wave (km/s) = 2.54620 6.08586 3.90862
#
# Compressibility (1/GPa) = 0.02105741
#
# Stress axis : x y z
#
# Youngs Moduli (GPa) = 150.80432 131.27443 75.14899
#
# Poissons Ratio (x) = 0.46965 0.04851
# Poissons Ratio (y) = 0.53952 -0.07320
# Poissons Ratio (z) = 0.09735 -0.12787
#
# Static dielectric constant tensor:
#      x y z
#    x 1.766580 0.000000 0.000000 
#    y 0.000000 1.702410 0.000000 
#    z 0.000000 0.000000 1.828400 
# 
# From -- ./inp_files/9243.got.cif
#   From: 2010.05.17/outbox.cif.g08.bks.cpg/sg65_5_cif.got.tgz:9243.got - 2010.06.03 17:01:31.
