data_PCOD9486685
_publ_section_title
;
Structure prediction by ZEFSAII (Michael W. Deem and Ramdas Pophale) SiO2 
 PCOD9486685
Probable space group: C M M M
;
_chemical_formula_sum "Si O2"
_cell_formula_units_Z 96
_cell_length_a 7.407623
_cell_length_b 30.207968
_cell_length_c 19.840643
_cell_angle_alpha 90.000000
_cell_angle_beta 90.000000
_cell_angle_gamma 90.000000
_cell_volume 4439.725576
_symmetry_space_group_name_H-M "C M M M"
_symmetry_group_IT_number 65
_symmetry_cell_setting 'orthorhombic'
loop_
_space_group_symop_operation_xyz
x,y,z
-x,-y,z
x,-y,-z
-x,y,-z
-x,-y,-z
x,y,-z
-x,y,z
x,-y,z
1/2+x,1/2+y,z
1/2-x,1/2-y,z
1/2+x,1/2-y,-z
1/2-x,1/2+y,-z
1/2-x,1/2-y,-z
1/2+x,1/2+y,-z
1/2-x,1/2+y,z
1/2+x,1/2-y,z
loop_
_atom_site_type_symbol
_atom_site_label
_atom_site_fract_x
_atom_site_fract_y
_atom_site_fract_z
Si Si1 0.279755 0.449826 0.224142
Si Si2 0.296939 0.628307 0.316841
Si Si3 0.216490 0.199067 0.577098
Si Si4 0.714065 0.797801 0.784406
Si Si5 0.286618 0.425013 0.925794
Si Si6 0.216949 0.680073 0.071471
O O1 0.500000 0.445227 0.222099
O O2 0.236061 0.500000 0.242672
O O3 0.214642 0.414672 0.280121
O O4 0.216712 0.441540 0.146733
O O5 0.500000 0.615746 0.338876
O O6 0.213518 0.659052 0.375837
O O7 0.305327 0.663420 0.256186
O O8 0.281614 0.195327 0.500000
O O9 0.250000 0.250000 0.598987
O O10 0.000000 0.194570 0.577313
O O11 0.500000 0.806347 0.784033
O O12 0.750000 0.750000 0.754074
O O13 0.784641 0.797962 0.860761
O O14 0.500000 0.435424 0.926481
O O15 0.261350 0.372020 0.924495
O O16 0.215552 0.439946 0.000000
O O17 0.000000 0.684144 0.071006
O O18 0.287333 0.697063 0.000000
#
# Coordination Sequence:
#
# PCOD9486685 Si02
#       6
#    16  16  16  16  16  16
#     4   9  17  29  47  72  99 127 162 203 247 292
#     4  10  19  33  52  72  99 131 161 197 242 289
#     4   9  18  32  51  76 103 130 160 194 233 282
#     4  11  22  33  48  70  96 126 162 201 241 290
#     4   9  16  27  46  69  91 119 159 206 249 290
#     4   9  18  32  47  63  88 123 159 198 244 289
#
# _framework density 21.622959999999999
#
# number of rings (size 3 to 8) (size 9 to 14) (size 15 to 20)
#    0.000    2.500    1.667    1.000    0.000    3.333 
#    0.000    1.667    0.000    2.500    0.000    5.833 
#    0.000    0.000    0.000    5.667    0.000    6.000 
#
# Total GULP energy -267716.956393 kJ/mol
# GULP energy per Si atom -5577.436592 kJ/mol
# Density = 2.157374 g / cm^3
# Si number density = 21.622960 Si / 1000 Ang^3
#
#
#
# Elastic Constant Matrix: (Units=GPa)
#
#
# Indices 1 2 3 4 5 6 
#
# 1 83.1124 -6.3092 5.2417 0.0000 0.0000 0.0000
# 2 -6.3092 150.1299 76.3527 0.0000 0.0000 0.0000
# 3 5.2417 76.3527 161.9497 0.0000 0.0000 0.0000
# 4 0.0000 0.0000 0.0000 32.2698 0.0000 0.0000
# 5 0.0000 0.0000 0.0000 0.0000 2.7340 0.0000
# 6 0.0000 0.0000 0.0000 0.0000 0.0000 8.8030
#
#
#
# Elastic Compliance Matrix: (Units=1/GPa)
#
#
# Indices 1 2 3 4 5 6 
#
# 1 0.012156 0.000935 -0.000834 0.000000 0.000000 0.000000
# 2 0.000935 0.008834 -0.004195 0.000000 0.000000 0.000000
# 3 -0.000834 -0.004195 0.008180 0.000000 0.000000 0.000000
# 4 0.000000 0.000000 0.000000 0.030989 0.000000 0.000000
# 5 0.000000 0.000000 0.000000 0.000000 0.365770 0.000000
# 6 0.000000 0.000000 0.000000 0.000000 0.000000 0.113597
#
#
# Mechanical properties :
#
#
# Convention : Reuss Voigt Hill
#
# Bulk Modulus (GPa) = 47.66352 60.64027 54.15190
# Shear Modulus (GPa) = 9.01377 30.08848 19.55112
#
# Velocity S-wave (km/s) = 2.04393 3.73434 3.01023
# Velocity P-wave (km/s) = 5.25938 6.83366 6.09754
#
# Compressibility (1/GPa) = 0.02098040
#
# Stress axis : x y z
#
# Youngs Moduli (GPa) = 82.26728 113.20315 122.25649
#
# Poissons Ratio (x) = -0.10586 0.10200
# Poissons Ratio (y) = -0.07693 0.51286
# Poissons Ratio (z) = 0.06864 0.47489
#
# Static dielectric constant tensor:
#      x y z
#    x 1.594630 0.000000 0.000000 
#    y 0.000000 1.749540 0.000000 
#    z 0.000000 0.000000 1.832150 
# 
# From -- ./inp_files/60200.got.cif
#   From: 2010.05.17/outbox.cif.g08.bks.cpg/sg65_31_cif.got.tgz:60200.got - 2010.06.03 17:01:31.
