data_PCOD9486635
_publ_section_title
;
Structure prediction by ZEFSAII (Michael W. Deem and Ramdas Pophale) SiO2 
 PCOD9486635
Probable space group: C M M M
;
_chemical_formula_sum "Si O2"
_cell_formula_units_Z 112
_cell_length_a 14.359396
_cell_length_b 33.079839
_cell_length_c 14.884876
_cell_angle_alpha 90.000000
_cell_angle_beta 90.000000
_cell_angle_gamma 90.000000
_cell_volume 7070.412968
_symmetry_space_group_name_H-M "C M M M"
_symmetry_group_IT_number 65
_symmetry_cell_setting 'orthorhombic'
loop_
_space_group_symop_operation_xyz
x,y,z
-x,-y,z
x,-y,-z
-x,y,-z
-x,-y,-z
x,y,-z
-x,y,z
x,-y,z
1/2+x,1/2+y,z
1/2-x,1/2-y,z
1/2+x,1/2-y,-z
1/2-x,1/2+y,-z
1/2-x,1/2-y,-z
1/2+x,1/2+y,-z
1/2-x,1/2+y,z
1/2+x,1/2-y,z
loop_
_atom_site_type_symbol
_atom_site_label
_atom_site_fract_x
_atom_site_fract_y
_atom_site_fract_z
Si Si1 0.188041 0.691247 0.101332
Si Si2 0.894055 0.953904 0.390922
Si Si3 0.391964 0.845318 0.275947
Si Si4 0.098922 0.186945 0.344743
Si Si5 0.757248 0.882473 0.606604
Si Si6 0.347259 0.230882 0.398587
Si Si7 0.891718 0.219342 0.859193
O O1 0.157643 0.661232 0.180251
O O2 0.137198 0.733723 0.127686
O O3 0.300308 0.697302 0.100658
O O4 0.159024 0.680534 0.000000
O O5 0.895212 0.953121 0.500000
O O6 0.819612 0.920477 0.363301
O O7 0.000000 0.944874 0.361355
O O8 0.871444 0.000000 0.364062
O O9 0.500000 0.854721 0.264427
O O10 0.335926 0.877179 0.336248
O O11 0.383534 0.803098 0.332020
O O12 0.181585 0.157780 0.374036
O O13 0.095541 0.228020 0.400824
O O14 0.108412 0.203531 0.243308
O O15 0.000000 0.164882 0.354258
O O16 0.739721 0.885251 0.500000
O O17 0.336708 0.214604 0.500000
O O18 0.250000 0.250000 0.365503
O O19 0.000000 0.213875 0.890732
#
# Coordination Sequence:
#
# PCOD9486635 Si02
#       7
#    16  16  16  16  16  16  16
#     4  11  22  36  52  66  86 123 170 215 261 305
#     4   8  15  30  53  80 107 133 161 194 236 290
#     4  12  24  37  48  64  94 129 172 217 253 295
#     4  11  20  30  46  66  94 129 163 204 250 291
#     4  11  21  33  50  72 102 134 165 201 241 288
#     4  11  20  32  46  59  85 126 168 209 247 282
#     4  10  19  33  50  67  89 120 161 211 262 302
#
# _framework density 15.840657999999999
#
# number of rings (size 3 to 8) (size 9 to 14) (size 15 to 20)
#    0.000    1.429    4.286    3.429    0.000    5.429 
#    0.000    0.000    0.000    0.429    0.000    2.000 
#    0.000    0.571    0.000    2.857    0.000    0.143 
#
# Total GULP energy -312153.546229 kJ/mol
# GULP energy per Si atom -5574.170468 kJ/mol
# Density = 1.580460 g / cm^3
# Si number density = 15.840658 Si / 1000 Ang^3
#
#
#
# Elastic Constant Matrix: (Units=GPa)
#
#
# Indices 1 2 3 4 5 6 
#
# 1 129.6114 32.4105 32.8367 0.0000 0.0000 0.0000
# 2 32.4105 63.3949 19.8859 0.0000 0.0000 0.0000
# 3 32.8367 19.8859 81.7840 0.0000 0.0000 0.0000
# 4 0.0000 0.0000 0.0000 -1.6912 0.0000 0.0000
# 5 0.0000 0.0000 0.0000 0.0000 4.0278 0.0000
# 6 0.0000 0.0000 0.0000 0.0000 0.0000 21.6686
#
#
#
# Elastic Compliance Matrix: (Units=1/GPa)
#
#
# Indices 1 2 3 4 5 6 
#
# 1 0.009413 -0.003926 -0.002825 0.000000 0.000000 0.000000
# 2 -0.003926 0.018714 -0.002974 0.000000 0.000000 0.000000
# 3 -0.002825 -0.002974 0.014085 0.000000 0.000000 0.000000
# 4 0.000000 0.000000 0.000000 -0.591307 0.000000 0.000000
# 5 0.000000 0.000000 0.000000 0.000000 0.248276 0.000000
# 6 0.000000 0.000000 0.000000 0.000000 0.000000 0.046150
#
#
# Mechanical properties :
#
#
# Convention : Reuss Voigt Hill
#
# Bulk Modulus (GPa) = 43.93296 49.45072 46.69184
# Shear Modulus (GPa) = -21.96514 17.44486 -2.26014
#
# Velocity S-wave (km/s) = -3.72779 3.32214 -1.19578
# Velocity P-wave (km/s) = 3.04401 6.78239 5.25675
#
# Compressibility (1/GPa) = 0.02276195
#
# Stress axis : x y z
#
# Youngs Moduli (GPa) = 106.23876 53.43504 70.99969
#
# Poissons Ratio (x) = 0.20980 0.20055
# Poissons Ratio (y) = 0.41712 0.21115
# Poissons Ratio (z) = 0.30008 0.15892
#
# Static dielectric constant tensor:
#      x y z
#    x 1.640420 0.000000 0.000000 
#    y 0.000000 1.509950 0.000000 
#    z 0.000000 0.000000 1.548060 
# 
# From -- ./inp_files/41340.got.cif
#   From: 2010.05.17/outbox.cif.g08.bks.cpg/sg65_21_cif.got.tgz:41340.got - 2010.06.03 17:01:31.
