data_PCOD9486070
_publ_section_title
;
Structure prediction by ZEFSAII (Michael W. Deem and Ramdas Pophale) SiO2 
 PCOD9486070
Probable space group: C M M M
;
_chemical_formula_sum "Si O2"
_cell_formula_units_Z 104
_cell_length_a 30.141828
_cell_length_b 7.407246
_cell_length_c 22.862649
_cell_angle_alpha 90.000000
_cell_angle_beta 90.000000
_cell_angle_gamma 90.000000
_cell_volume 5104.496428
_symmetry_space_group_name_H-M "C M M M"
_symmetry_group_IT_number 65
_symmetry_cell_setting 'orthorhombic'
loop_
_space_group_symop_operation_xyz
x,y,z
-x,-y,z
x,-y,-z
-x,y,-z
-x,-y,-z
x,y,-z
-x,y,z
x,-y,z
1/2+x,1/2+y,z
1/2-x,1/2-y,z
1/2+x,1/2-y,-z
1/2-x,1/2+y,-z
1/2-x,1/2-y,-z
1/2+x,1/2+y,-z
1/2-x,1/2+y,z
1/2+x,1/2-y,z
loop_
_atom_site_type_symbol
_atom_site_label
_atom_site_fract_x
_atom_site_fract_y
_atom_site_fract_z
Si Si1 0.449650 0.779659 0.694373
Si Si2 0.371144 0.797174 0.225984
Si Si3 0.202602 0.214103 0.686953
Si Si4 0.076269 0.713996 0.435546
Si Si5 0.818355 0.783398 0.561997
Si Si6 0.302448 0.785382 0.000000
Si Si7 0.196986 0.717252 0.870909
O O1 0.500000 0.735346 0.709861
O O2 0.414664 0.714652 0.743317
O O3 0.440807 0.717028 0.627266
O O4 0.445181 0.000000 0.692829
O O5 0.337036 0.805848 0.279729
O O6 0.339253 0.714039 0.175913
O O7 0.383396 0.000000 0.206246
O O8 0.250000 0.250000 0.715454
O O9 0.203423 0.285525 0.620835
O O10 0.194342 0.000000 0.686979
O O11 0.061081 0.784030 0.500000
O O12 0.066569 0.500000 0.436146
O O13 0.129284 0.742132 0.434343
O O14 0.801777 0.711356 0.500000
O O15 0.813504 0.000000 0.561495
O O16 0.250000 0.750000 0.000000
O O17 0.316320 0.717114 0.936086
O O18 0.310727 0.000000 0.000000
O O19 0.193815 0.500000 0.869647
O O20 0.250000 0.750000 0.860654
#
# Coordination Sequence:
#
# PCOD9486070 Si02
#       7
#    16  16  16  16  16   8  16
#     4   9  17  29  46  68  92 116 146 188 233 275
#     4  10  19  32  48  67  92 121 153 186 223 269
#     4  11  22  33  47  66  89 118 151 186 225 267
#     4   9  16  27  46  68  86 108 141 184 232 277
#     4   9  18  32  47  62  83 112 145 182 225 270
#     4   8  14  26  42  64  93 121 151 183 216 252
#     4   9  17  28  45  68  94 124 153 183 217 258
#
# _framework density 20.374193999999999
#
# number of rings (size 3 to 8) (size 9 to 14) (size 15 to 20)
#    0.000    2.615    1.538    0.923    0.000    3.077 
#    0.000    1.538    0.000    1.846    0.000    2.692 
#    0.000    4.308    0.000    0.000    0.000   29.231 
#
# Total GULP energy -289785.352385 kJ/mol
# GULP energy per Si atom -5572.795238 kJ/mol
# Density = 2.032782 g / cm^3
# Si number density = 20.374194 Si / 1000 Ang^3
#
#
#
# Elastic Constant Matrix: (Units=GPa)
#
#
# Indices 1 2 3 4 5 6 
#
# 1 127.1494 -4.0995 71.2489 0.0000 0.0000 0.0000
# 2 -4.0995 78.9870 6.5096 0.0000 0.0000 0.0000
# 3 71.2489 6.5096 171.2308 0.0000 0.0000 0.0000
# 4 0.0000 0.0000 0.0000 2.2767 0.0000 0.0000
# 5 0.0000 0.0000 0.0000 0.0000 22.2921 0.0000
# 6 0.0000 0.0000 0.0000 0.0000 0.0000 7.2994
#
#
#
# Elastic Compliance Matrix: (Units=1/GPa)
#
#
# Indices 1 2 3 4 5 6 
#
# 1 0.010318 0.000892 -0.004327 0.000000 0.000000 0.000000
# 2 0.000892 0.012777 -0.000857 0.000000 0.000000 0.000000
# 3 -0.004327 -0.000857 0.007673 0.000000 0.000000 0.000000
# 4 0.000000 0.000000 0.000000 0.439234 0.000000 0.000000
# 5 0.000000 0.000000 0.000000 0.000000 0.044859 0.000000
# 6 0.000000 0.000000 0.000000 0.000000 0.000000 0.136997
#
#
# Mechanical properties :
#
#
# Convention : Reuss Voigt Hill
#
# Bulk Modulus (GPa) = 45.07646 58.29835 51.68740
# Shear Modulus (GPa) = 7.48684 26.62086 17.05385
#
# Velocity S-wave (km/s) = 1.91902 3.61861 2.89629
# Velocity P-wave (km/s) = 5.20409 6.79228 6.05052
#
# Compressibility (1/GPa) = 0.02218453
#
# Stress axis : x y z
#
# Youngs Moduli (GPa) = 96.91422 78.26413 130.32252
#
# Poissons Ratio (x) = -0.06983 0.56396
# Poissons Ratio (y) = -0.08646 0.11168
# Poissons Ratio (z) = 0.41939 0.06707
#
# Static dielectric constant tensor:
#      x y z
#    x 1.690100 0.000000 0.000000 
#    y 0.000000 1.709570 0.000000 
#    z 0.000000 0.000000 1.795320 
# 
# From -- ./inp_files/72165.got.cif
#   From: 2010.05.17/outbox.cif.g08.bks.cpg/sg65_37_cif.got.tgz:72165.got - 2010.06.03 17:01:31.
