data_PCOD9486998
_publ_section_title
;
Structure prediction by ZEFSAII (Michael W. Deem and Ramdas Pophale) SiO2 
 PCOD9486998
Probable space group: C M M M
;
_chemical_formula_sum "Si O2"
_cell_formula_units_Z 88
_cell_length_a 29.956179
_cell_length_b 8.659649
_cell_length_c 18.084472
_cell_angle_alpha 90.000000
_cell_angle_beta 90.000000
_cell_angle_gamma 90.000000
_cell_volume 4691.292801
_symmetry_space_group_name_H-M "C M M M"
_symmetry_group_IT_number 65
_symmetry_cell_setting 'orthorhombic'
loop_
_space_group_symop_operation_xyz
x,y,z
-x,-y,z
x,-y,-z
-x,y,-z
-x,-y,-z
x,y,-z
-x,y,z
x,-y,z
1/2+x,1/2+y,z
1/2-x,1/2-y,z
1/2+x,1/2-y,-z
1/2-x,1/2+y,-z
1/2-x,1/2-y,-z
1/2+x,1/2+y,-z
1/2-x,1/2+y,z
1/2+x,1/2-y,z
loop_
_atom_site_type_symbol
_atom_site_label
_atom_site_fract_x
_atom_site_fract_y
_atom_site_fract_z
Si Si1 0.895611 0.687229 0.352485
Si Si2 0.662555 0.683629 0.842814
Si Si3 0.929184 0.320851 0.802476
Si Si4 0.051840 0.688277 0.500000
Si Si5 0.201354 0.815870 0.000000
Si Si6 0.000000 0.183887 0.914348
Si Si7 0.797941 0.181685 0.313327
O O1 0.893212 0.500000 0.349693
O O2 0.926741 0.736473 0.282622
O O3 0.920431 0.735057 0.427360
O O4 0.844591 0.748136 0.344793
O O5 0.649646 0.500000 0.842757
O O6 0.621565 0.793401 0.825197
O O7 0.678729 0.728468 0.923532
O O8 0.697270 0.701703 0.775742
O O9 0.942175 0.500000 0.802032
O O10 0.958560 0.236886 0.863979
O O11 0.050820 0.500000 0.500000
O O12 0.000000 0.739414 0.500000
O O13 0.250000 0.750000 0.000000
O O14 0.203052 0.000000 0.000000
O O15 0.000000 0.000000 0.918949
O O16 0.000000 0.242703 0.000000
O O17 0.750000 0.250000 0.337355
O O18 0.798166 0.000000 0.329536
#
# Coordination Sequence:
#
# PCOD9486998 Si02
#       7
#    16  16  16   8   8   8  16
#     4   9  19  36  59  88 118 148 185 228 277 337
#     4   9  19  34  51  73 105 144 182 222 274 334
#     4  10  21  36  57  83 110 140 180 233 280 325
#     4   9  18  34  62  91 116 149 186 225 276 339
#     4  10  20  32  48  71 100 135 176 222 269 320
#     4  11  25  41  57  76 105 148 192 233 279 333
#     4  10  19  33  55  80 111 149 190 233 279 332
#
# _framework density 18.758156
#
# number of rings (size 3 to 8) (size 9 to 14) (size 15 to 20)
#    0.000    2.364    0.000    1.909    2.545    2.909 
#    0.000    0.909    0.000    0.545    0.000    0.000 
#    0.000    0.000    0.000    0.000    0.000    0.000 
#
# Total GULP energy -245113.674092 kJ/mol
# GULP energy per Si atom -5570.765320 kJ/mol
# Density = 1.871546 g / cm^3
# Si number density = 18.758156 Si / 1000 Ang^3
#
#
#
# Elastic Constant Matrix: (Units=GPa)
#
#
# Indices 1 2 3 4 5 6 
#
# 1 98.4445 33.4960 67.8452 0.0000 0.0000 0.0000
# 2 33.4960 25.3743 31.0873 0.0000 0.0000 0.0000
# 3 67.8452 31.0873 168.0038 0.0000 0.0000 0.0000
# 4 0.0000 0.0000 0.0000 16.5224 0.0000 0.0000
# 5 0.0000 0.0000 0.0000 0.0000 13.6792 0.0000
# 6 0.0000 0.0000 0.0000 0.0000 0.0000 15.6703
#
#
#
# Elastic Compliance Matrix: (Units=1/GPa)
#
#
# Indices 1 2 3 4 5 6 
#
# 1 0.020536 -0.021917 -0.004237 0.000000 0.000000 0.000000
# 2 -0.021917 0.074355 -0.004908 0.000000 0.000000 0.000000
# 3 -0.004237 -0.004908 0.008572 0.000000 0.000000 0.000000
# 4 0.000000 0.000000 0.000000 0.060524 0.000000 0.000000
# 5 0.000000 0.000000 0.000000 0.000000 0.073104 0.000000
# 6 0.000000 0.000000 0.000000 0.000000 0.000000 0.063815
#
#
# Mechanical properties :
#
#
# Convention : Reuss Voigt Hill
#
# Bulk Modulus (GPa) = 24.19104 61.85328 43.02216
# Shear Modulus (GPa) = 13.26932 19.80066 16.53499
#
# Velocity S-wave (km/s) = 2.66256 3.25249 2.97220
# Velocity P-wave (km/s) = 4.73039 6.86663 5.89606
#
# Compressibility (1/GPa) = 0.04133761
#
# Stress axis : x y z
#
# Youngs Moduli (GPa) = 48.69565 13.44897 116.66478
#
# Poissons Ratio (x) = 0.29476 0.49436
# Poissons Ratio (y) = 1.06728 0.57256
# Poissons Ratio (z) = 0.20634 0.06600
#
# Static dielectric constant tensor:
#      x y z
#    x 1.648360 0.000000 0.000000 
#    y 0.000000 1.643810 0.000000 
#    z 0.000000 0.000000 1.677150 
# 
# From -- ./inp_files/50550.got.cif
#   From: 2010.05.17/outbox.cif.g08.bks.cpg/sg65_26_cif.got.tgz:50550.got - 2010.06.03 17:01:31.
