data_PCOD9486509
_publ_section_title
;
Structure prediction by ZEFSAII (Michael W. Deem and Ramdas Pophale) SiO2 
 PCOD9486509
Probable space group: C M M M
;
_chemical_formula_sum "Si O2"
_cell_formula_units_Z 72
_cell_length_a 17.413170
_cell_length_b 26.743338
_cell_length_c 7.648070
_cell_angle_alpha 90.000000
_cell_angle_beta 90.000000
_cell_angle_gamma 90.000000
_cell_volume 3561.601351
_symmetry_space_group_name_H-M "C M M M"
_symmetry_group_IT_number 65
_symmetry_cell_setting 'orthorhombic'
loop_
_space_group_symop_operation_xyz
x,y,z
-x,-y,z
x,-y,-z
-x,y,-z
-x,-y,-z
x,y,-z
-x,y,z
x,-y,z
1/2+x,1/2+y,z
1/2-x,1/2-y,z
1/2+x,1/2-y,-z
1/2-x,1/2+y,-z
1/2-x,1/2-y,-z
1/2+x,1/2+y,-z
1/2-x,1/2+y,z
1/2+x,1/2-y,z
loop_
_atom_site_type_symbol
_atom_site_label
_atom_site_fract_x
_atom_site_fract_y
_atom_site_fract_z
Si Si1 0.082337 0.660611 0.787014
Si Si2 0.248321 0.695137 0.299098
Si Si3 0.377312 0.053173 0.795550
Si Si4 0.291597 0.586723 0.291612
Si Si5 0.088337 0.000000 0.208671
O O1 0.158064 0.683287 0.706001
O O2 0.084515 0.603043 0.726736
O O3 0.000000 0.683462 0.742530
O O4 0.090283 0.661739 0.000000
O O5 0.275818 0.700398 0.500000
O O6 0.250000 0.750000 0.213432
O O7 0.290646 0.644922 0.227363
O O8 0.285464 0.061569 0.783552
O O9 0.397112 0.000000 0.714713
O O10 0.397844 0.051261 0.000000
O O11 0.280667 0.589512 0.500000
O O12 0.363306 0.549899 0.259006
O O13 0.000000 0.000000 0.275532
O O14 0.084893 0.000000 0.000000
#
# Coordination Sequence:
#
# PCOD9486509 Si02
#       5
#    16  16  16  16   8
#     4   9  18  31  47  72 104 134 167 206 247 292
#     4   9  19  36  56  77 101 134 176 216 259 313
#     4   9  16  27  46  70  99 136 167 194 235 290
#     4  10  19  32  53  77 101 131 170 215 257 304
#     4  11  23  37  53  75 106 141 174 215 271 326
#
# _framework density 20.215626
#
# number of rings (size 3 to 8) (size 9 to 14) (size 15 to 20)
#    0.000    2.556    1.111    1.000    0.000    3.111 
#    0.000    3.333    0.000    6.667    0.000    6.222 
#    0.000    0.000    0.000    0.000    0.000    0.000 
#
# Total GULP energy -200474.023215 kJ/mol
# GULP energy per Si atom -5568.722867 kJ/mol
# Density = 2.016961 g / cm^3
# Si number density = 20.215626 Si / 1000 Ang^3
#
#
#
# Elastic Constant Matrix: (Units=GPa)
#
#
# Indices 1 2 3 4 5 6 
#
# 1 104.7272 42.6964 -8.5409 0.0000 0.0000 0.0000
# 2 42.6964 162.3663 3.3761 0.0000 0.0000 0.0000
# 3 -8.5409 3.3761 49.3642 0.0000 0.0000 0.0000
# 4 0.0000 0.0000 0.0000 5.2089 0.0000 0.0000
# 5 0.0000 0.0000 0.0000 0.0000 -0.8098 0.0000
# 6 0.0000 0.0000 0.0000 0.0000 0.0000 -3.1889
#
#
#
# Elastic Compliance Matrix: (Units=1/GPa)
#
#
# Indices 1 2 3 4 5 6 
#
# 1 0.010906 -0.002911 0.002086 0.000000 0.000000 0.000000
# 2 -0.002911 0.006945 -0.000979 0.000000 0.000000 0.000000
# 3 0.002086 -0.000979 0.020685 0.000000 0.000000 0.000000
# 4 0.000000 0.000000 0.000000 0.191977 0.000000 0.000000
# 5 0.000000 0.000000 0.000000 0.000000 -1.234904 0.000000
# 6 0.000000 0.000000 0.000000 0.000000 0.000000 -0.313584
#
#
# Mechanical properties :
#
#
# Convention : Reuss Voigt Hill
#
# Bulk Modulus (GPa) = 28.63022 43.50234 36.06628
# Shear Modulus (GPa) = -3.83811 18.83712 7.49950
#
# Velocity S-wave (km/s) = -1.37939 3.05587 1.92816
# Velocity P-wave (km/s) = 3.41412 5.83241 4.77877
#
# Compressibility (1/GPa) = 0.03492813
#
# Stress axis : x y z
#
# Youngs Moduli (GPa) = 91.69616 143.99290 48.34321
#
# Poissons Ratio (x) = 0.41918 -0.10084
# Poissons Ratio (y) = 0.26694 0.04731
# Poissons Ratio (z) = -0.19127 0.14092
#
# Static dielectric constant tensor:
#      x y z
#    x 1.710330 0.000000 0.000000 
#    y 0.000000 1.791150 0.000000 
#    z 0.000000 0.000000 1.751990 
# 
# From -- ./inp_files/7306.got.cif
#   From: 2010.05.17/outbox.cif.g08.bks.cpg/sg65_4_cif.got.tgz:7306.got - 2010.06.03 17:01:31.
