data_PCOD9486301
_publ_section_title
;
Structure prediction by ZEFSAII (Michael W. Deem and Ramdas Pophale) SiO2 
 PCOD9486301
Probable space group: C M M M
;
_chemical_formula_sum "Si O2"
_cell_formula_units_Z 64
_cell_length_a 16.460403
_cell_length_b 8.006848
_cell_length_c 23.148670
_cell_angle_alpha 90.000000
_cell_angle_beta 90.000000
_cell_angle_gamma 90.000000
_cell_volume 3050.900834
_symmetry_space_group_name_H-M "C M M M"
_symmetry_group_IT_number 65
_symmetry_cell_setting 'orthorhombic'
loop_
_space_group_symop_operation_xyz
x,y,z
-x,-y,z
x,-y,-z
-x,y,-z
-x,-y,-z
x,y,-z
-x,y,z
x,-y,z
1/2+x,1/2+y,z
1/2-x,1/2-y,z
1/2+x,1/2-y,-z
1/2-x,1/2+y,-z
1/2-x,1/2-y,-z
1/2+x,1/2+y,-z
1/2-x,1/2+y,z
1/2+x,1/2-y,z
loop_
_atom_site_type_symbol
_atom_site_label
_atom_site_fract_x
_atom_site_fract_y
_atom_site_fract_z
Si Si1 0.000000 0.795707 0.566724
Si Si2 0.345521 0.798198 0.000000
Si Si3 0.838589 0.201066 0.634571
Si Si4 0.090778 0.799658 0.751768
Si Si5 0.155562 0.699437 0.124606
O O1 0.917263 0.741075 0.598603
O O2 0.000000 0.745052 0.500000
O O3 0.000000 0.000000 0.568643
O O4 0.250000 0.750000 0.000000
O O5 0.377967 0.738612 0.937728
O O6 0.351669 0.000000 0.000000
O O7 0.750000 0.250000 0.612300
O O8 0.850490 0.262092 0.700866
O O9 0.841254 0.000000 0.634460
O O10 0.114362 0.759361 0.817021
O O11 0.000000 0.737139 0.739747
O O12 0.089570 0.000000 0.747279
O O13 0.150304 0.500000 0.124121
O O14 0.250000 0.750000 0.127384
#
# Coordination Sequence:
#
# PCOD9486301 Si02
#       5
#     8   8  16  16  16
#     4   9  18  36  61  85 113 152 191 222 264 329
#     4   8  16  30  47  68  97 131 169 217 271 325
#     4  10  20  36  58  84 113 148 187 229 275 326
#     4  10  20  35  53  74 105 142 180 225 277 329
#     4  10  19  32  51  75 101 133 175 222 273 330
#
# _framework density 20.977411
#
# number of rings (size 3 to 8) (size 9 to 14) (size 15 to 20)
#    0.000    2.375    1.250    1.500    0.000    5.000 
#    0.000    1.250    0.000    4.500    0.000    0.000 
#    0.000    0.000    0.000    0.000    0.000    0.000 
#
# Total GULP energy -178454.496024 kJ/mol
# GULP energy per Si atom -5576.703001 kJ/mol
# Density = 2.092967 g / cm^3
# Si number density = 20.977411 Si / 1000 Ang^3
#
#
#
# Elastic Constant Matrix: (Units=GPa)
#
#
# Indices 1 2 3 4 5 6 
#
# 1 127.2697 8.8210 72.3431 0.0000 0.0000 0.0000
# 2 8.8210 13.8427 12.3658 0.0000 0.0000 0.0000
# 3 72.3431 12.3658 157.2663 0.0000 0.0000 0.0000
# 4 0.0000 0.0000 0.0000 79.6804 0.0000 0.0000
# 5 0.0000 0.0000 0.0000 0.0000 27.4465 0.0000
# 6 0.0000 0.0000 0.0000 0.0000 0.0000 19.8762
#
#
#
# Elastic Compliance Matrix: (Units=1/GPa)
#
#
# Indices 1 2 3 4 5 6 
#
# 1 0.010726 -0.002611 -0.004729 0.000000 0.000000 0.000000
# 2 -0.002611 0.078334 -0.004958 0.000000 0.000000 0.000000
# 3 -0.004729 -0.004958 0.008924 0.000000 0.000000 0.000000
# 4 0.000000 0.000000 0.000000 0.012550 0.000000 0.000000
# 5 0.000000 0.000000 0.000000 0.000000 0.036435 0.000000
# 6 0.000000 0.000000 0.000000 0.000000 0.000000 0.050311
#
#
# Mechanical properties :
#
#
# Convention : Reuss Voigt Hill
#
# Bulk Modulus (GPa) = 13.62628 53.93761 33.78194
# Shear Modulus (GPa) = 20.29729 39.05721 29.67725
#
# Velocity S-wave (km/s) = 3.11397 4.31962 3.76536
# Velocity P-wave (km/s) = 4.40895 7.11666 5.91970
#
# Compressibility (1/GPa) = 0.07338761
#
# Stress axis : x y z
#
# Youngs Moduli (GPa) = 93.22913 12.76592 112.05982
#
# Poissons Ratio (x) = 0.03333 0.52991
# Poissons Ratio (y) = 0.24340 0.55564
# Poissons Ratio (z) = 0.44087 0.06330
#
# Static dielectric constant tensor:
#      x y z
#    x 1.748230 0.000000 0.000000 
#    y 0.000000 1.754170 0.000000 
#    z 0.000000 0.000000 1.790800 
# 
# From -- ./inp_files/66768.got.cif
#   From: 2010.05.17/outbox.cif.g08.bks.cpg/sg65_34_cif.got.tgz:66768.got - 2010.06.03 17:01:31.
