data_PCOD9486711
_publ_section_title
;
Structure prediction by ZEFSAII (Michael W. Deem and Ramdas Pophale) SiO2 
 PCOD9486711
Probable space group: C M M M
;
_chemical_formula_sum "Si O2"
_cell_formula_units_Z 82
_cell_length_a 30.088080
_cell_length_b 21.250748
_cell_length_c 7.917490
_cell_angle_alpha 90.000000
_cell_angle_beta 90.000000
_cell_angle_gamma 90.000000
_cell_volume 5062.397231
_symmetry_space_group_name_H-M "C M M M"
_symmetry_group_IT_number 65
_symmetry_cell_setting 'orthorhombic'
loop_
_space_group_symop_operation_xyz
x,y,z
-x,-y,z
x,-y,-z
-x,y,-z
-x,-y,-z
x,y,-z
-x,y,z
x,-y,z
1/2+x,1/2+y,z
1/2-x,1/2-y,z
1/2+x,1/2-y,-z
1/2-x,1/2+y,-z
1/2-x,1/2-y,-z
1/2+x,1/2+y,-z
1/2-x,1/2+y,z
1/2+x,1/2-y,z
loop_
_atom_site_type_symbol
_atom_site_label
_atom_site_fract_x
_atom_site_fract_y
_atom_site_fract_z
Si Si1 0.553574 0.242265 0.500000
Si Si2 0.764938 0.428753 0.299396
Si Si3 0.215177 0.804097 0.796224
Si Si4 0.000000 0.500000 0.500000
Si Si5 0.381176 0.743139 0.803206
Si Si6 0.080462 0.404994 0.500000
Si Si7 0.861819 0.392665 0.184004
O O1 0.500000 0.252039 0.500000
O O2 0.579029 0.266786 0.669296
O O3 0.564995 0.167774 0.500000
O O4 0.773519 0.427710 0.500000
O O5 0.751063 0.500000 0.253312
O O6 0.731043 0.372889 0.258452
O O7 0.810804 0.411319 0.207464
O O8 0.250000 0.750000 0.735431
O O9 0.164435 0.790397 0.745784
O O10 0.215985 0.801015 0.000000
O O11 0.037908 0.446355 0.500000
O O12 0.367838 0.817160 0.805662
O O13 0.391720 0.726537 0.000000
O O14 0.109780 0.418875 0.663746
O O15 0.877644 0.413440 0.000000
#
# Coordination Sequence:
#
# PCOD9486711 Si02
#       7
#     8  16  16   2  16   8  16
#     4  10  20  36  54  73  98 131 169 217 281 322
#     4  11  23  34  48  76 111 146 180 217 257 308
#     4  10  19  33  52  77 108 140 179 219 259 316
#     4  12  24  40  58  60 104 134 172 248 284 304
#     4   9  19  33  53  80 103 131 175 222 262 316
#     4  10  22  38  49  71  94 130 171 227 277 318
#     4  10  19  35  55  73  99 135 177 221 266 312
#
# _framework density 16.197859000000001
#
# number of rings (size 3 to 8) (size 9 to 14) (size 15 to 20)
#    0.000    1.951    3.415    0.585    2.732    2.341 
#    0.000    0.976    0.000    0.000    0.000    0.000 
#    0.000    1.561    0.000    4.293    0.000    0.000 
#
# Total GULP energy -228394.848753 kJ/mol
# GULP energy per Si atom -5570.606067 kJ/mol
# Density = 1.616099 g / cm^3
# Si number density = 16.197859 Si / 1000 Ang^3
#
#
#
# Elastic Constant Matrix: (Units=GPa)
#
#
# Indices 1 2 3 4 5 6 
#
# 1 126.2178 45.3017 71.8589 0.0000 0.0000 0.0000
# 2 45.3017 59.1285 29.0471 0.0000 0.0000 0.0000
# 3 71.8589 29.0471 97.5013 0.0000 0.0000 0.0000
# 4 0.0000 0.0000 0.0000 8.6653 0.0000 0.0000
# 5 0.0000 0.0000 0.0000 0.0000 11.7370 0.0000
# 6 0.0000 0.0000 0.0000 0.0000 0.0000 34.7960
#
#
#
# Elastic Compliance Matrix: (Units=1/GPa)
#
#
# Indices 1 2 3 4 5 6 
#
# 1 0.016143 -0.007642 -0.009621 0.000000 0.000000 0.000000
# 2 -0.007642 0.023429 -0.001348 0.000000 0.000000 0.000000
# 3 -0.009621 -0.001348 0.017748 0.000000 0.000000 0.000000
# 4 0.000000 0.000000 0.000000 0.115402 0.000000 0.000000
# 5 0.000000 0.000000 0.000000 0.000000 0.085200 0.000000
# 6 0.000000 0.000000 0.000000 0.000000 0.000000 0.028739
#
#
# Mechanical properties :
#
#
# Convention : Reuss Voigt Hill
#
# Bulk Modulus (GPa) = 49.75216 63.91810 56.83513
# Shear Modulus (GPa) = 15.12479 20.14900 17.63690
#
# Velocity S-wave (km/s) = 3.05905 3.53077 3.30334
# Velocity P-wave (km/s) = 6.57716 7.49455 7.05079
#
# Compressibility (1/GPa) = 0.02009963
#
# Stress axis : x y z
#
# Youngs Moduli (GPa) = 61.94658 42.68170 56.34298
#
# Poissons Ratio (x) = 0.32616 0.54207
# Poissons Ratio (y) = 0.47338 0.07595
# Poissons Ratio (z) = 0.59598 0.05753
#
# Static dielectric constant tensor:
#      x y z
#    x 1.514370 0.000000 0.000000 
#    y 0.000000 1.542710 0.000000 
#    z 0.000000 0.000000 1.582000 
# 
# From -- ./inp_files/16291.got.cif
#   From: 2010.05.17/outbox.cif.g08.bks.cpg/sg65_9_cif.got.tgz:16291.got - 2010.06.03 17:01:31.
