data_PCOD9486611
_publ_section_title
;
Structure prediction by ZEFSAII (Michael W. Deem and Ramdas Pophale) SiO2 
 PCOD9486611
Probable space group: C M M M
;
_chemical_formula_sum "Si O2"
_cell_formula_units_Z 82
_cell_length_a 20.697703
_cell_length_b 25.554073
_cell_length_c 7.460960
_cell_angle_alpha 90.000000
_cell_angle_beta 90.000000
_cell_angle_gamma 90.000000
_cell_volume 3946.180930
_symmetry_space_group_name_H-M "C M M M"
_symmetry_group_IT_number 65
_symmetry_cell_setting 'orthorhombic'
loop_
_space_group_symop_operation_xyz
x,y,z
-x,-y,z
x,-y,-z
-x,y,-z
-x,-y,-z
x,y,-z
-x,y,z
x,-y,z
1/2+x,1/2+y,z
1/2-x,1/2-y,z
1/2+x,1/2-y,-z
1/2-x,1/2+y,-z
1/2-x,1/2-y,-z
1/2+x,1/2+y,-z
1/2-x,1/2+y,z
1/2+x,1/2-y,z
loop_
_atom_site_type_symbol
_atom_site_label
_atom_site_fract_x
_atom_site_fract_y
_atom_site_fract_z
Si Si1 0.651201 0.103435 0.708040
Si Si2 0.073636 0.500000 0.215313
Si Si3 0.112714 0.000000 0.801569
Si Si4 0.500000 0.500000 0.500000
Si Si5 0.685764 0.282066 0.718009
Si Si6 0.425867 0.795528 0.280658
Si Si7 0.703336 0.598230 0.717750
O O1 0.662331 0.117602 0.500000
O O2 0.609692 0.051435 0.720042
O O3 0.609996 0.151676 0.782459
O O4 0.722493 0.092692 0.781077
O O5 0.000000 0.500000 0.276867
O O6 0.074544 0.500000 0.000000
O O7 0.057063 0.000000 0.654814
O O8 0.157862 0.948488 0.781553
O O9 0.084705 0.000000 0.000000
O O10 0.688100 0.281657 0.500000
O O11 0.750000 0.250000 0.776450
O O12 0.621085 0.251734 0.772347
O O13 0.684584 0.342667 0.771885
O O14 0.427844 0.796399 0.500000
O O15 0.500000 0.792202 0.220563
O O16 0.701435 0.595490 0.500000
#
# Coordination Sequence:
#
# PCOD9486611 Si02
#       7
#    16   8   8   2  16  16  16
#     4  10  19  32  56  81 114 154 200 256 310 363
#     4  11  24  37  47  69 106 149 195 245 309 384
#     4  12  26  46  73 102 135 173 217 273 336 399
#     4  12  26  56  76  98 136 172 220 272 340 420
#     4   9  15  28  51  82 122 168 210 260 323 386
#     4   9  16  27  45  79 116 154 208 263 313 380
#     4  10  19  36  61  93 128 166 213 266 319 387
#
# _framework density 20.779585000000001
#
# number of rings (size 3 to 8) (size 9 to 14) (size 15 to 20)
#    0.000    2.049    2.927    1.610    0.000    4.683 
#    1.756    0.000    0.000    1.756    0.000    0.000 
#    0.000    0.000    0.000    0.000    0.000    0.000 
#
# Total GULP energy -228767.645197 kJ/mol
# GULP energy per Si atom -5579.698663 kJ/mol
# Density = 2.073229 g / cm^3
# Si number density = 20.779585 Si / 1000 Ang^3
#
#
#
# Elastic Constant Matrix: (Units=GPa)
#
#
# Indices 1 2 3 4 5 6 
#
# 1 217.4886 105.9124 31.7324 0.0000 0.0000 0.0000
# 2 105.9124 174.6563 12.0932 0.0000 0.0000 0.0000
# 3 31.7324 12.0932 90.5362 0.0000 0.0000 0.0000
# 4 0.0000 0.0000 0.0000 209.3694 0.0000 0.0000
# 5 0.0000 0.0000 0.0000 0.0000 23.2520 0.0000
# 6 0.0000 0.0000 0.0000 0.0000 0.0000 5.7416
#
#
#
# Elastic Compliance Matrix: (Units=1/GPa)
#
#
# Indices 1 2 3 4 5 6 
#
# 1 0.006820 -0.004007 -0.001855 0.000000 0.000000 0.000000
# 2 -0.004007 0.008134 0.000318 0.000000 0.000000 0.000000
# 3 -0.001855 0.000318 0.011653 0.000000 0.000000 0.000000
# 4 0.000000 0.000000 0.000000 0.004776 0.000000 0.000000
# 5 0.000000 0.000000 0.000000 0.000000 0.043007 0.000000
# 6 0.000000 0.000000 0.000000 0.000000 0.000000 0.174167
#
#
# Mechanical properties :
#
#
# Convention : Reuss Voigt Hill
#
# Bulk Modulus (GPa) = 64.44113 86.90633 75.67373
# Shear Modulus (GPa) = 18.88088 69.86881 44.37485
#
# Velocity S-wave (km/s) = 3.01761 5.80489 4.62616
# Velocity P-wave (km/s) = 6.57422 9.31895 8.06422
#
# Compressibility (1/GPa) = 0.01551804
#
# Stress axis : x y z
#
# Youngs Moduli (GPa) = 146.62603 122.94776 85.81459
#
# Poissons Ratio (x) = 0.49269 0.15920
# Poissons Ratio (y) = 0.58757 -0.02730
# Poissons Ratio (z) = 0.27201 -0.03911
#
# Static dielectric constant tensor:
#      x y z
#    x 1.703420 0.000000 0.000000 
#    y 0.000000 1.698620 0.000000 
#    z 0.000000 0.000000 1.794540 
# 
# From -- ./inp_files/11650.got.cif
#   From: 2010.05.17/outbox.cif.g08.bks.cpg/sg65_6_cif.got.tgz:11650.got - 2010.06.03 17:01:31.
