data_PCOD9486974
_publ_section_title
;
Structure prediction by ZEFSAII (Michael W. Deem and Ramdas Pophale) SiO2 
 PCOD9486974
Probable space group: C M M M
;
_chemical_formula_sum "Si O2"
_cell_formula_units_Z 88
_cell_length_a 7.701088
_cell_length_b 18.832585
_cell_length_c 29.673798
_cell_angle_alpha 90.000000
_cell_angle_beta 90.000000
_cell_angle_gamma 90.000000
_cell_volume 4303.632300
_symmetry_space_group_name_H-M "C M M M"
_symmetry_group_IT_number 65
_symmetry_cell_setting 'orthorhombic'
loop_
_space_group_symop_operation_xyz
x,y,z
-x,-y,z
x,-y,-z
-x,y,-z
-x,-y,-z
x,y,-z
-x,y,z
x,-y,z
1/2+x,1/2+y,z
1/2-x,1/2-y,z
1/2+x,1/2-y,-z
1/2-x,1/2+y,-z
1/2-x,1/2-y,-z
1/2+x,1/2+y,-z
1/2-x,1/2+y,z
1/2+x,1/2-y,z
loop_
_atom_site_type_symbol
_atom_site_label
_atom_site_fract_x
_atom_site_fract_y
_atom_site_fract_z
Si Si1 0.786911 0.582302 0.411349
Si Si2 0.205071 0.667296 0.324315
Si Si3 0.208993 0.833100 0.049453
Si Si4 0.208528 0.333323 0.500000
Si Si5 0.711351 0.582907 0.136090
Si Si6 0.708228 0.419113 0.235715
O O1 0.733687 0.500000 0.412942
O O2 0.723433 0.621542 0.366145
O O3 0.729308 0.626457 0.455117
O O4 0.000000 0.582473 0.411355
O O5 0.250000 0.750000 0.327053
O O6 0.252163 0.632564 0.276659
O O7 0.000000 0.662344 0.328174
O O8 0.250000 0.750000 0.053291
O O9 0.277058 0.873698 0.093262
O O10 0.000000 0.841219 0.049099
O O11 0.272727 0.857552 0.000000
O O12 0.250000 0.250000 0.500000
O O13 0.000000 0.339255 0.500000
O O14 0.500000 0.588211 0.135773
O O15 0.754193 0.500000 0.131258
O O16 0.770720 0.605293 0.186181
O O17 0.500000 0.423492 0.232700
O O18 0.772276 0.500000 0.244117
#
# Coordination Sequence:
#
# PCOD9486974 Si02
#       6
#    16  16  16   8  16  16
#     4   9  18  33  54  78 101 130 169 208 246 292
#     4  11  22  35  52  75 104 134 168 210 251 295
#     4   9  17  29  46  68  94 124 157 194 237 285
#     4  10  19  33  55  79 105 134 164 202 246 294
#     4   8  15  29  49  72  96 122 156 199 242 285
#     4   9  18  34  54  74  99 131 165 203 250 301
#
# _framework density 20.447842999999999
#
# number of rings (size 3 to 8) (size 9 to 14) (size 15 to 20)
#    0.000    2.727    0.000    3.000    0.000    3.273 
#    0.000    5.455    0.000    4.909    0.000    2.545 
#    0.000    0.000    0.000    0.000    0.000    0.000 
#
# Total GULP energy -245500.854110 kJ/mol
# GULP energy per Si atom -5579.564866 kJ/mol
# Density = 2.040130 g / cm^3
# Si number density = 20.447843 Si / 1000 Ang^3
#
#
#
# Elastic Constant Matrix: (Units=GPa)
#
#
# Indices 1 2 3 4 5 6 
#
# 1 32.8593 1.3907 10.6134 0.0000 0.0000 0.0000
# 2 1.3907 147.9844 138.3084 0.0000 0.0000 0.0000
# 3 10.6134 138.3084 248.6124 0.0000 0.0000 0.0000
# 4 0.0000 0.0000 0.0000 39.2173 0.0000 0.0000
# 5 0.0000 0.0000 0.0000 0.0000 9.9584 0.0000
# 6 0.0000 0.0000 0.0000 0.0000 0.0000 7.0492
#
#
#
# Elastic Compliance Matrix: (Units=1/GPa)
#
#
# Indices 1 2 3 4 5 6 
#
# 1 0.031134 0.001978 -0.002430 0.000000 0.000000 0.000000
# 2 0.001978 0.014202 -0.007985 0.000000 0.000000 0.000000
# 3 -0.002430 -0.007985 0.008569 0.000000 0.000000 0.000000
# 4 0.000000 0.000000 0.000000 0.025499 0.000000 0.000000
# 5 0.000000 0.000000 0.000000 0.000000 0.100418 0.000000
# 6 0.000000 0.000000 0.000000 0.000000 0.000000 0.141861
#
#
# Mechanical properties :
#
#
# Convention : Reuss Voigt Hill
#
# Bulk Modulus (GPa) = 27.00456 81.12013 54.06234
# Shear Modulus (GPa) = 14.24909 29.85454 22.05182
#
# Velocity S-wave (km/s) = 2.64266 3.82518 3.28753
# Velocity P-wave (km/s) = 4.74834 7.69852 6.39586
#
# Compressibility (1/GPa) = 0.03703078
#
# Stress axis : x y z
#
# Youngs Moduli (GPa) = 32.11938 70.41173 116.70638
#
# Poissons Ratio (x) = -0.13929 0.28355
# Poissons Ratio (y) = -0.06354 0.93195
# Poissons Ratio (z) = 0.07804 0.56227
#
# Static dielectric constant tensor:
#      x y z
#    x 1.791530 0.000000 0.000000 
#    y 0.000000 1.656780 0.000000 
#    z 0.000000 0.000000 1.757970 
# 
# From -- ./inp_files/76565.got.cif
#   From: 2010.05.17/outbox.cif.g08.bks.cpg/sg65_39_cif.got.tgz:76565.got - 2010.06.03 17:01:31.
