data_PCOD9486659
_publ_section_title
;
Structure prediction by ZEFSAII (Michael W. Deem and Ramdas Pophale) SiO2 
 PCOD9486659
Probable space group: C M M M
;
_chemical_formula_sum "Si O2"
_cell_formula_units_Z 88
_cell_length_a 30.715488
_cell_length_b 17.925901
_cell_length_c 7.571008
_cell_angle_alpha 90.000000
_cell_angle_beta 90.000000
_cell_angle_gamma 90.000000
_cell_volume 4168.618181
_symmetry_space_group_name_H-M "C M M M"
_symmetry_group_IT_number 65
_symmetry_cell_setting 'orthorhombic'
loop_
_space_group_symop_operation_xyz
x,y,z
-x,-y,z
x,-y,-z
-x,y,-z
-x,-y,-z
x,y,-z
-x,y,z
x,-y,z
1/2+x,1/2+y,z
1/2-x,1/2-y,z
1/2+x,1/2-y,-z
1/2-x,1/2+y,-z
1/2-x,1/2-y,-z
1/2+x,1/2+y,-z
1/2-x,1/2+y,z
1/2+x,1/2-y,z
loop_
_atom_site_type_symbol
_atom_site_label
_atom_site_fract_x
_atom_site_fract_y
_atom_site_fract_z
Si Si1 0.549152 0.703544 0.209113
Si Si2 0.691449 0.914009 0.289841
Si Si3 0.213530 0.913633 0.788115
Si Si4 0.049800 0.500000 0.284520
Si Si5 0.101515 0.352802 0.286445
Si Si6 0.118651 0.913189 0.784031
O O1 0.500000 0.708933 0.281492
O O2 0.576255 0.779367 0.229518
O O3 0.579151 0.637039 0.281742
O O4 0.545088 0.689896 0.000000
O O5 0.685799 0.920190 0.500000
O O6 0.739595 0.881247 0.260371
O O7 0.651166 0.864747 0.223843
O O8 0.689445 0.000000 0.219760
O O9 0.166608 0.883664 0.728039
O O10 0.214927 0.000000 0.725835
O O11 0.212271 0.914683 0.000000
O O12 0.049874 0.500000 0.500000
O O13 0.074956 0.425951 0.228792
O O14 0.000000 0.500000 0.225829
O O15 0.101666 0.351478 0.500000
O O16 0.114867 0.000000 0.733563
O O17 0.118241 0.911589 0.000000
#
# Coordination Sequence:
#
# PCOD9486659 Si02
#       6
#    16  16  16   8  16  16
#     4  10  21  35  51  74 102 128 159 206 258 296
#     4   9  16  28  47  72 100 128 163 205 242 279
#     4   8  14  26  47  73  97 124 160 198 240 290
#     4   9  16  28  49  71  89 121 173 213 232 273
#     4  10  19  33  51  72  98 132 170 204 242 290
#     4   8  15  31  54  76  98 127 164 202 240 295
#
# _framework density 21.110113999999999
#
# number of rings (size 3 to 8) (size 9 to 14) (size 15 to 20)
#    0.000    3.000    0.909    1.636    0.000    2.182 
#    0.000    4.091    0.000    8.727    0.000    1.273 
#    0.000    0.000    0.000    0.000    0.000    0.000 
#
# Total GULP energy -245300.474320 kJ/mol
# GULP energy per Si atom -5575.010780 kJ/mol
# Density = 2.106207 g / cm^3
# Si number density = 21.110114 Si / 1000 Ang^3
#
#
#
# Elastic Constant Matrix: (Units=GPa)
#
#
# Indices 1 2 3 4 5 6 
#
# 1 243.4418 99.9538 11.2841 0.0000 0.0000 0.0000
# 2 99.9538 84.3083 -4.0685 0.0000 0.0000 0.0000
# 3 11.2841 -4.0685 44.7086 0.0000 0.0000 0.0000
# 4 0.0000 0.0000 0.0000 28.3129 0.0000 0.0000
# 5 0.0000 0.0000 0.0000 0.0000 28.6381 0.0000
# 6 0.0000 0.0000 0.0000 0.0000 0.0000 31.7182
#
#
#
# Elastic Compliance Matrix: (Units=1/GPa)
#
#
# Indices 1 2 3 4 5 6 
#
# 1 0.008396 -0.010100 -0.003038 0.000000 0.000000 0.000000
# 2 -0.010100 0.024064 0.004739 0.000000 0.000000 0.000000
# 3 -0.003038 0.004739 0.023565 0.000000 0.000000 0.000000
# 4 0.000000 0.000000 0.000000 0.035320 0.000000 0.000000
# 5 0.000000 0.000000 0.000000 0.000000 0.034919 0.000000
# 6 0.000000 0.000000 0.000000 0.000000 0.000000 0.031528
#
#
# Mechanical properties :
#
#
# Convention : Reuss Voigt Hill
#
# Bulk Modulus (GPa) = 25.49281 65.19971 45.34626
# Shear Modulus (GPa) = 26.64323 35.41980 31.03152
#
# Velocity S-wave (km/s) = 3.55647 4.10061 3.83820
# Velocity P-wave (km/s) = 5.38210 7.30566 6.41637
#
# Compressibility (1/GPa) = 0.03922674
#
# Stress axis : x y z
#
# Youngs Moduli (GPa) = 119.11027 41.55506 42.43562
#
# Poissons Ratio (x) = 0.41971 0.12892
# Poissons Ratio (y) = 1.20304 -0.20111
# Poissons Ratio (z) = 0.36187 -0.19693
#
# Static dielectric constant tensor:
#      x y z
#    x 1.800930 0.000000 0.000000 
#    y 0.000000 1.728090 0.000000 
#    z 0.000000 0.000000 1.808000 
# 
# From -- ./inp_files/18276.got.cif
#   From: 2010.05.17/outbox.cif.g08.bks.cpg/sg65_10_cif.got.tgz:18276.got - 2010.06.03 17:01:31.
