data_PCOD9486375
_publ_section_title
;
Structure prediction by ZEFSAII (Michael W. Deem and Ramdas Pophale) SiO2 
 PCOD9486375
Probable space group: C M M M
;
_chemical_formula_sum "Si O2"
_cell_formula_units_Z 104
_cell_length_a 8.506612
_cell_length_b 26.961027
_cell_length_c 20.419068
_cell_angle_alpha 90.000000
_cell_angle_beta 90.000000
_cell_angle_gamma 90.000000
_cell_volume 4683.051903
_symmetry_space_group_name_H-M "C M M M"
_symmetry_group_IT_number 65
_symmetry_cell_setting 'orthorhombic'
loop_
_space_group_symop_operation_xyz
x,y,z
-x,-y,z
x,-y,-z
-x,y,-z
-x,-y,-z
x,y,-z
-x,y,z
x,-y,z
1/2+x,1/2+y,z
1/2-x,1/2-y,z
1/2+x,1/2-y,-z
1/2-x,1/2+y,-z
1/2-x,1/2-y,-z
1/2+x,1/2+y,-z
1/2-x,1/2+y,z
1/2+x,1/2-y,z
loop_
_atom_site_type_symbol
_atom_site_label
_atom_site_fract_x
_atom_site_fract_y
_atom_site_fract_z
Si Si1 0.308700 0.661577 0.247273
Si Si2 0.828351 0.090229 0.074713
Si Si3 0.812174 0.590200 0.572040
Si Si4 0.311649 0.696670 0.391601
Si Si5 0.811004 0.054342 0.290518
Si Si6 0.500000 0.058345 0.924992
Si Si7 0.819234 0.201144 0.111429
O O1 0.500000 0.659969 0.242500
O O2 0.271259 0.689633 0.314422
O O3 0.254967 0.604369 0.254186
O O4 0.246153 0.688373 0.182588
O O5 0.666673 0.072443 0.106139
O O6 0.815085 0.149622 0.073330
O O7 0.000000 0.078188 0.105179
O O8 0.831915 0.070748 0.000000
O O9 0.767167 0.571084 0.500000
O O10 0.763829 0.648220 0.575788
O O11 0.732265 0.563247 0.633318
O O12 0.000000 0.586114 0.579032
O O13 0.500000 0.694219 0.398936
O O14 0.250000 0.750000 0.414297
O O15 0.000000 0.054075 0.284975
O O16 0.752174 0.000000 0.269121
O O17 0.500000 0.000000 0.930899
O O18 0.500000 0.080291 0.000000
O O19 0.750000 0.250000 0.080070
O O20 0.000000 0.213207 0.122673
#
# Coordination Sequence:
#
# PCOD9486375 Si02
#       7
#    16  16  16  16  16   8  16
#     4   8  16  32  51  75 103 131 170 216 261 316
#     4   9  19  35  54  81 117 152 191 238 285 339
#     4  10  21  35  50  71 100 132 167 208 253 305
#     4  10  19  32  52  74  99 131 168 210 257 311
#     4   9  18  34  56  77  99 131 168 210 262 319
#     4   9  18  34  58  82 108 148 190 234 284 330
#     4  10  20  33  52  78 108 145 184 224 273 326
#
# _framework density 22.207740000000001
#
# number of rings (size 3 to 8) (size 9 to 14) (size 15 to 20)
#    0.000    2.692    0.000    2.308    1.077    2.769 
#    0.000    6.923    0.000    2.769    0.000    0.000 
#    0.000    0.000    0.000    0.000    0.000    0.000 
#
# Total GULP energy -290052.486090 kJ/mol
# GULP energy per Si atom -5577.932425 kJ/mol
# Density = 2.215719 g / cm^3
# Si number density = 22.207740 Si / 1000 Ang^3
#
#
#
# Elastic Constant Matrix: (Units=GPa)
#
#
# Indices 1 2 3 4 5 6 
#
# 1 80.5901 26.6095 4.1670 0.0000 0.0000 0.0000
# 2 26.6095 97.7120 -13.2336 0.0000 0.0000 0.0000
# 3 4.1670 -13.2336 60.9067 0.0000 0.0000 0.0000
# 4 0.0000 0.0000 0.0000 -921.3085 0.0000 0.0000
# 5 0.0000 0.0000 0.0000 0.0000 8.0526 0.0000
# 6 0.0000 0.0000 0.0000 0.0000 0.0000 8.2972
#
#
#
# Elastic Compliance Matrix: (Units=1/GPa)
#
#
# Indices 1 2 3 4 5 6 
#
# 1 0.013827 -0.004012 -0.001818 0.000000 0.000000 0.000000
# 2 -0.004012 0.011708 0.002818 0.000000 0.000000 0.000000
# 3 -0.001818 0.002818 0.017155 0.000000 0.000000 0.000000
# 4 0.000000 0.000000 0.000000 -0.001085 0.000000 0.000000
# 5 0.000000 0.000000 0.000000 0.000000 0.124183 0.000000
# 6 0.000000 0.000000 0.000000 0.000000 0.000000 0.120523
#
#
# Mechanical properties :
#
#
# Convention : Reuss Voigt Hill
#
# Bulk Modulus (GPa) = 27.27102 30.47719 28.87411
# Shear Modulus (GPa) = 16.41737 -166.21401 -74.89832
#
# Velocity S-wave (km/s) = 2.72189 -8.66069 -5.81373
# Velocity P-wave (km/s) = 4.71008 9.28744 5.66002
#
# Compressibility (1/GPa) = 0.03666896
#
# Stress axis : x y z
#
# Youngs Moduli (GPa) = 72.32207 85.40920 58.29104
#
# Poissons Ratio (x) = 0.34263 0.10595
# Poissons Ratio (y) = 0.29013 -0.16429
# Poissons Ratio (z) = 0.13146 -0.24072
#
# Static dielectric constant tensor:
#      x y z
#    x 1.733680 0.000000 0.000000 
#    y 0.000000 1.811720 0.000000 
#    z 0.000000 0.000000 1.847960 
# 
# From -- ./inp_files/68171.got.cif
#   From: 2010.05.17/outbox.cif.g08.bks.cpg/sg65_35_cif.got.tgz:68171.got - 2010.06.03 17:01:31.
