data_PCOD9486159
_publ_section_title
;
Structure prediction by ZEFSAII (Michael W. Deem and Ramdas Pophale) SiO2 
 PCOD9486159
Probable space group: C M M M
;
_chemical_formula_sum "Si O2"
_cell_formula_units_Z 80
_cell_length_a 27.873004
_cell_length_b 7.805852
_cell_length_c 19.305999
_cell_angle_alpha 90.000000
_cell_angle_beta 90.000000
_cell_angle_gamma 90.000000
_cell_volume 4200.455317
_symmetry_space_group_name_H-M "C M M M"
_symmetry_group_IT_number 65
_symmetry_cell_setting 'orthorhombic'
loop_
_space_group_symop_operation_xyz
x,y,z
-x,-y,z
x,-y,-z
-x,y,-z
-x,-y,-z
x,y,-z
-x,y,z
x,-y,z
1/2+x,1/2+y,z
1/2-x,1/2-y,z
1/2+x,1/2-y,-z
1/2-x,1/2+y,-z
1/2-x,1/2-y,-z
1/2+x,1/2+y,-z
1/2-x,1/2+y,z
1/2+x,1/2-y,z
loop_
_atom_site_type_symbol
_atom_site_label
_atom_site_fract_x
_atom_site_fract_y
_atom_site_fract_z
Si Si1 0.400216 0.703315 0.643566
Si Si2 0.804588 0.704163 0.286993
Si Si3 0.054003 0.792681 0.212926
Si Si4 0.444096 0.709950 0.500000
Si Si5 0.650578 0.795270 0.143611
Si Si6 0.194015 0.293152 0.000000
O O1 0.409273 0.500000 0.642475
O O2 0.344188 0.730887 0.659009
O O3 0.428520 0.770557 0.711226
O O4 0.418650 0.771285 0.570329
O O5 0.808851 0.500000 0.285470
O O6 0.750000 0.750000 0.302421
O O7 0.820240 0.771960 0.210722
O O8 0.094854 0.739497 0.158959
O O9 0.000000 0.734422 0.198066
O O10 0.053778 0.000000 0.214748
O O11 0.441969 0.500000 0.500000
O O12 0.500000 0.756795 0.500000
O O13 0.657495 0.000000 0.142659
O O14 0.669591 0.727372 0.070589
O O15 0.250000 0.250000 0.000000
O O16 0.189242 0.500000 0.000000
#
# Coordination Sequence:
#
# PCOD9486159 Si02
#       6
#    16  16  16   8  16   8
#     4   9  17  30  49  73  99 125 156 194 235 279
#     4  10  19  32  50  71  95 124 159 196 235 279
#     4   9  17  30  49  72  97 126 160 196 232 273
#     4   9  16  28  50  77 100 123 154 193 236 281
#     4   9  19  33  49  71  97 124 156 194 235 283
#     4  10  20  34  51  72  97 123 154 193 239 286
#
# _framework density 19.045555
#
# number of rings (size 3 to 8) (size 9 to 14) (size 15 to 20)
#    0.000    2.700    0.000    1.800    0.000    4.400 
#    0.000    1.500    0.000    5.400    0.000    0.000 
#    0.000    0.000    0.000    0.000    0.000    0.000 
#
# Total GULP energy -223126.746895 kJ/mol
# GULP energy per Si atom -5578.168672 kJ/mol
# Density = 1.900221 g / cm^3
# Si number density = 19.045555 Si / 1000 Ang^3
#
#
#
# Elastic Constant Matrix: (Units=GPa)
#
#
# Indices 1 2 3 4 5 6 
#
# 1 154.9288 -18.3747 99.1104 0.0000 0.0000 0.0000
# 2 -18.3747 17.3321 5.5048 0.0000 0.0000 0.0000
# 3 99.1104 5.5048 162.3896 0.0000 0.0000 0.0000
# 4 0.0000 0.0000 0.0000 11.0938 0.0000 0.0000
# 5 0.0000 0.0000 0.0000 0.0000 76.6570 0.0000
# 6 0.0000 0.0000 0.0000 0.0000 0.0000 23.1748
#
#
#
# Elastic Compliance Matrix: (Units=1/GPa)
#
#
# Indices 1 2 3 4 5 6 
#
# 1 0.014950 0.018952 -0.009767 0.000000 0.000000 0.000000
# 2 0.018952 0.082349 -0.014358 0.000000 0.000000 0.000000
# 3 -0.009767 -0.014358 0.012606 0.000000 0.000000 0.000000
# 4 0.000000 0.000000 0.000000 0.090140 0.000000 0.000000
# 5 0.000000 0.000000 0.000000 0.000000 0.013045 0.000000
# 6 0.000000 0.000000 0.000000 0.000000 0.000000 0.043150
#
#
# Mechanical properties :
#
#
# Convention : Reuss Voigt Hill
#
# Bulk Modulus (GPa) = 10.04441 56.34793 33.19617
# Shear Modulus (GPa) = 16.67926 38.74580 27.71253
#
# Velocity S-wave (km/s) = 2.96253 4.51530 3.81867
# Velocity P-wave (km/s) = 4.12158 7.53883 6.07542
#
# Compressibility (1/GPa) = 0.09955787
#
# Stress axis : x y z
#
# Youngs Moduli (GPa) = 66.88773 12.14350 79.32836
#
# Poissons Ratio (x) = -0.23014 0.77480
# Poissons Ratio (y) = -1.26765 1.13902
# Poissons Ratio (z) = 0.65330 0.17436
#
# Static dielectric constant tensor:
#      x y z
#    x 1.780620 0.000000 0.000000 
#    y 0.000000 1.708390 0.000000 
#    z 0.000000 0.000000 1.668600 
# 
# From -- ./inp_files/49903.got.cif
#   From: 2010.05.17/outbox.cif.g08.bks.cpg/sg65_25_cif.got.tgz:49903.got - 2010.06.03 17:01:31.
