data_PCOD9486694
_publ_section_title
;
Structure prediction by ZEFSAII (Michael W. Deem and Ramdas Pophale) SiO2 
 PCOD9486694
Probable space group: C M M M
;
_chemical_formula_sum "Si O2"
_cell_formula_units_Z 96
_cell_length_a 24.473099
_cell_length_b 26.168682
_cell_length_c 7.890947
_cell_angle_alpha 90.000000
_cell_angle_beta 90.000000
_cell_angle_gamma 90.000000
_cell_volume 5053.589286
_symmetry_space_group_name_H-M "C M M M"
_symmetry_group_IT_number 65
_symmetry_cell_setting 'orthorhombic'
loop_
_space_group_symop_operation_xyz
x,y,z
-x,-y,z
x,-y,-z
-x,y,-z
-x,-y,-z
x,y,-z
-x,y,z
x,-y,z
1/2+x,1/2+y,z
1/2-x,1/2-y,z
1/2+x,1/2-y,-z
1/2-x,1/2+y,-z
1/2-x,1/2-y,-z
1/2+x,1/2+y,-z
1/2-x,1/2+y,z
1/2+x,1/2-y,z
loop_
_atom_site_type_symbol
_atom_site_label
_atom_site_fract_x
_atom_site_fract_y
_atom_site_fract_z
Si Si1 0.000000 0.692210 0.202161
Si Si2 0.883090 0.152578 0.796649
Si Si3 0.000000 0.189334 0.207804
Si Si4 0.811358 0.753370 0.797646
Si Si5 0.881329 0.345144 0.298112
Si Si6 0.689335 0.442163 0.704112
Si Si7 0.186327 0.558316 0.293021
O O1 0.944541 0.664328 0.256318
O O2 0.000000 0.751277 0.263303
O O3 0.000000 0.694678 0.000000
O O4 0.844789 0.198238 0.728942
O O5 0.854878 0.099005 0.758347
O O6 0.944697 0.161633 0.734827
O O7 0.885349 0.157813 0.000000
O O8 0.000000 0.189698 0.000000
O O9 0.750000 0.750000 0.727746
O O10 0.845688 0.702120 0.769088
O O11 0.806806 0.760825 0.000000
O O12 0.875685 0.344949 0.500000
O O13 0.855747 0.398494 0.234420
O O14 0.690231 0.442917 0.500000
O O15 0.677769 0.500000 0.762806
O O16 0.751336 0.428657 0.759293
O O17 0.185656 0.557958 0.500000
O O18 0.174483 0.500000 0.239087
#
# Coordination Sequence:
#
# PCOD9486694 Si02
#       7
#     8  16   8  16  16  16  16
#     4  11  21  39  58  71 104 150 181 213 267 324
#     4  10  19  33  52  74 100 135 179 216 252 309
#     4   9  18  35  54  69  94 140 183 207 246 311
#     4  10  20  33  51  77 109 143 174 210 267 330
#     4  11  21  33  54  83 107 132 180 229 265 310
#     4   9  18  34  55  78 105 138 172 210 266 321
#     4   8  16  33  55  77 106 142 173 208 261 321
#
# _framework density 18.996400000000001
#
# number of rings (size 3 to 8) (size 9 to 14) (size 15 to 20)
#    0.000    2.333    1.667    2.750    0.000    1.333 
#    0.000    2.083    0.000    9.000    0.000    0.000 
#    0.000    0.000    0.000    0.000    0.000    0.000 
#
# Total GULP energy -267873.335939 kJ/mol
# GULP energy per Si atom -5580.694499 kJ/mol
# Density = 1.895316 g / cm^3
# Si number density = 18.996400 Si / 1000 Ang^3
#
#
#
# Elastic Constant Matrix: (Units=GPa)
#
#
# Indices 1 2 3 4 5 6 
#
# 1 197.0989 112.0851 -1.9789 0.0000 0.0000 0.0000
# 2 112.0851 143.0989 -8.7887 0.0000 0.0000 0.0000
# 3 -1.9789 -8.7887 7.2165 0.0000 0.0000 0.0000
# 4 0.0000 0.0000 0.0000 26.4239 0.0000 0.0000
# 5 0.0000 0.0000 0.0000 0.0000 10.5053 0.0000
# 6 0.0000 0.0000 0.0000 0.0000 0.0000 23.3102
#
#
#
# Elastic Compliance Matrix: (Units=1/GPa)
#
#
# Indices 1 2 3 4 5 6 
#
# 1 0.009460 -0.007837 -0.006950 0.000000 0.000000 0.000000
# 2 -0.007837 0.014045 0.014956 0.000000 0.000000 0.000000
# 3 -0.006950 0.014956 0.154880 0.000000 0.000000 0.000000
# 4 0.000000 0.000000 0.000000 0.037845 0.000000 0.000000
# 5 0.000000 0.000000 0.000000 0.000000 0.095190 0.000000
# 6 0.000000 0.000000 0.000000 0.000000 0.000000 0.042900
#
#
# Mechanical properties :
#
#
# Convention : Reuss Voigt Hill
#
# Bulk Modulus (GPa) = 5.59524 61.11659 33.35591
# Shear Modulus (GPa) = 12.09026 28.45434 20.27230
#
# Velocity S-wave (km/s) = 2.52553 3.87444 3.27029
# Velocity P-wave (km/s) = 3.38471 7.22895 5.64420
#
# Compressibility (1/GPa) = 0.17872332
#
# Stress axis : x y z
#
# Youngs Moduli (GPa) = 105.70272 71.19881 6.45662
#
# Poissons Ratio (x) = 0.55798 0.04487
# Poissons Ratio (y) = 0.82839 -0.09656
# Poissons Ratio (z) = 0.73464 -1.06485
#
# Static dielectric constant tensor:
#      x y z
#    x 1.636310 0.000000 0.000000 
#    y 0.000000 1.646290 0.000000 
#    z 0.000000 0.000000 1.693140 
# 
# From -- ./inp_files/14364.got.cif
#   From: 2010.05.17/outbox.cif.g08.bks.cpg/sg65_8_cif.got.tgz:14364.got - 2010.06.03 17:01:31.
