data_PCOD9486466
_publ_section_title
;
Structure prediction by ZEFSAII (Michael W. Deem and Ramdas Pophale) SiO2 
 PCOD9486466
Probable space group: C M M M
;
_chemical_formula_sum "Si O2"
_cell_formula_units_Z 104
_cell_length_a 18.721296
_cell_length_b 14.762130
_cell_length_c 20.973480
_cell_angle_alpha 90.000000
_cell_angle_beta 90.000000
_cell_angle_gamma 90.000000
_cell_volume 5796.361080
_symmetry_space_group_name_H-M "C M M M"
_symmetry_group_IT_number 65
_symmetry_cell_setting 'orthorhombic'
loop_
_space_group_symop_operation_xyz
x,y,z
-x,-y,z
x,-y,-z
-x,y,-z
-x,-y,-z
x,y,-z
-x,y,z
x,-y,z
1/2+x,1/2+y,z
1/2-x,1/2-y,z
1/2+x,1/2-y,-z
1/2-x,1/2+y,-z
1/2-x,1/2-y,-z
1/2+x,1/2+y,-z
1/2-x,1/2+y,z
1/2+x,1/2-y,z
loop_
_atom_site_type_symbol
_atom_site_label
_atom_site_fract_x
_atom_site_fract_y
_atom_site_fract_z
Si Si1 0.917219 0.900318 0.593928
Si Si2 0.685256 0.105744 0.305627
Si Si3 0.648544 0.399971 0.727712
Si Si4 0.665937 0.231163 0.187814
Si Si5 0.332111 0.780820 0.430841
Si Si6 0.913785 0.798116 0.074699
Si Si7 0.918712 0.000000 0.077328
O O1 0.906903 0.898269 0.670166
O O2 0.877217 0.811580 0.570618
O O3 0.000000 0.896506 0.576871
O O4 0.888554 0.000000 0.573923
O O5 0.772178 0.113775 0.302927
O O6 0.660204 0.150367 0.239093
O O7 0.656715 0.159296 0.367503
O O8 0.667785 0.000000 0.309365
O O9 0.647984 0.500000 0.757765
O O10 0.636113 0.318999 0.775403
O O11 0.750000 0.250000 0.176253
O O12 0.623882 0.227592 0.121716
O O13 0.344793 0.826530 0.500000
O O14 0.250000 0.750000 0.428726
O O15 0.000000 0.796706 0.081658
O O16 0.887669 0.900889 0.092138
O O17 0.898149 0.782579 0.000000
O O18 0.000000 0.000000 0.102735
O O19 0.923480 0.000000 0.000000
#
# Coordination Sequence:
#
# PCOD9486466 Si02
#       7
#    16  16  16  16  16  16   8
#     4  10  20  35  55  81 115 147 173 214 277 341
#     4  10  19  36  56  75 105 140 181 235 281 312
#     4   9  17  31  52  78 110 141 174 217 268 325
#     4  10  19  32  52  78 106 141 181 221 268 318
#     4  11  21  35  56  82 110 144 189 229 266 324
#     4   9  18  32  51  77 110 142 171 210 262 321
#     4   7  12  26  46  72 108 142 164 188 240 318
#
# _framework density 17.942291000000001
#
# number of rings (size 3 to 8) (size 9 to 14) (size 15 to 20)
#    0.000    2.385    3.077    1.385    1.077    1.846 
#    0.000    2.308    0.000    2.308    0.000    2.154 
#    0.000    0.000    0.000    0.000    0.000    0.000 
#
# Total GULP energy -289679.462434 kJ/mol
# GULP energy per Si atom -5570.758893 kJ/mol
# Density = 1.790145 g / cm^3
# Si number density = 17.942291 Si / 1000 Ang^3
#
#
#
# Elastic Constant Matrix: (Units=GPa)
#
#
# Indices 1 2 3 4 5 6 
#
# 1 34.2093 30.1367 33.3653 0.0000 0.0000 0.0000
# 2 30.1367 95.2746 59.6628 0.0000 0.0000 0.0000
# 3 33.3653 59.6628 126.8440 0.0000 0.0000 0.0000
# 4 0.0000 0.0000 0.0000 6.0975 0.0000 0.0000
# 5 0.0000 0.0000 0.0000 0.0000 54.4741 0.0000
# 6 0.0000 0.0000 0.0000 0.0000 0.0000 21.7601
#
#
#
# Elastic Compliance Matrix: (Units=1/GPa)
#
#
# Indices 1 2 3 4 5 6 
#
# 1 0.044785 -0.009624 -0.007254 0.000000 0.000000 0.000000
# 2 -0.009624 0.016946 -0.005440 0.000000 0.000000 0.000000
# 3 -0.007254 -0.005440 0.012350 0.000000 0.000000 0.000000
# 4 0.000000 0.000000 0.000000 0.164002 0.000000 0.000000
# 5 0.000000 0.000000 0.000000 0.000000 0.018357 0.000000
# 6 0.000000 0.000000 0.000000 0.000000 0.000000 0.045956
#
#
# Mechanical properties :
#
#
# Convention : Reuss Voigt Hill
#
# Bulk Modulus (GPa) = 33.95864 55.85084 44.90474
# Shear Modulus (GPa) = 14.01166 25.34387 19.67777
#
# Velocity S-wave (km/s) = 2.79754 3.76243 3.31528
# Velocity P-wave (km/s) = 5.42242 7.07602 6.30368
#
# Compressibility (1/GPa) = 0.02944759
#
# Stress axis : x y z
#
# Youngs Moduli (GPa) = 22.32915 59.00946 80.96984
#
# Poissons Ratio (x) = 0.56789 0.58732
# Poissons Ratio (y) = 0.21489 0.44044
# Poissons Ratio (z) = 0.16197 0.32099
#
# Static dielectric constant tensor:
#      x y z
#    x 1.607570 0.000000 0.000000 
#    y 0.000000 1.630950 0.000000 
#    z 0.000000 0.000000 1.662230 
# 
# From -- ./inp_files/63790.got.cif
#   From: 2010.05.17/outbox.cif.g08.bks.cpg/sg65_32_cif.got.tgz:63790.got - 2010.06.03 17:01:31.
