data_PCOD9486854
_publ_section_title
;
Structure prediction by ZEFSAII (Michael W. Deem and Ramdas Pophale) SiO2 
 PCOD9486854
Probable space group: C M M M
;
_chemical_formula_sum "Si O2"
_cell_formula_units_Z 80
_cell_length_a 7.342298
_cell_length_b 16.474842
_cell_length_c 28.948248
_cell_angle_alpha 90.000000
_cell_angle_beta 90.000000
_cell_angle_gamma 90.000000
_cell_volume 3501.672697
_symmetry_space_group_name_H-M "C M M M"
_symmetry_group_IT_number 65
_symmetry_cell_setting 'orthorhombic'
loop_
_space_group_symop_operation_xyz
x,y,z
-x,-y,z
x,-y,-z
-x,y,-z
-x,-y,-z
x,y,-z
-x,y,z
x,-y,z
1/2+x,1/2+y,z
1/2-x,1/2-y,z
1/2+x,1/2-y,-z
1/2-x,1/2+y,-z
1/2-x,1/2-y,-z
1/2+x,1/2+y,-z
1/2-x,1/2+y,z
1/2+x,1/2-y,z
loop_
_atom_site_type_symbol
_atom_site_label
_atom_site_fract_x
_atom_site_fract_y
_atom_site_fract_z
Si Si1 0.790665 0.096247 0.500000
Si Si2 0.721425 0.407173 0.795939
Si Si3 0.777234 0.000000 0.946667
Si Si4 0.217249 0.153851 0.402367
Si Si5 0.782931 0.158947 0.890987
Si Si6 0.217489 0.846553 0.697550
O O1 0.708399 0.122661 0.548900
O O2 0.000000 0.128753 0.500000
O O3 0.797240 0.000000 0.500000
O O4 0.500000 0.401953 0.794210
O O5 0.767315 0.500000 0.807074
O O6 0.784764 0.351431 0.838222
O O7 0.788172 0.384460 0.744935
O O8 0.716779 0.082663 0.921144
O O9 0.000000 0.000000 0.945612
O O10 0.722348 0.000000 0.000000
O O11 0.250000 0.250000 0.401990
O O12 0.286669 0.123325 0.352486
O O13 0.000000 0.137012 0.402683
O O14 0.750000 0.250000 0.908490
O O15 0.000000 0.149506 0.889171
O O16 0.250000 0.750000 0.699893
O O17 0.000000 0.859941 0.696893
#
# Coordination Sequence:
#
# PCOD9486854 Si02
#       6
#     8  16   8  16  16  16
#     4   9  17  28  43  63  86 109 140 184 228 267
#     4   9  16  28  47  70  95 125 161 198 235 282
#     4   9  18  34  55  77 103 137 175 208 244 300
#     4   9  17  29  45  64  85 113 146 182 225 272
#     4  10  19  33  54  77 102 134 171 209 250 296
#     4   9  17  28  44  66  90 115 148 188 229 275
#
# _framework density 22.846226000000001
#
# number of rings (size 3 to 8) (size 9 to 14) (size 15 to 20)
#    0.000    2.800    1.000    0.900    0.000    1.200 
#    0.000    4.500    0.000    3.600    0.000    5.600 
#    0.000    0.000    0.000    0.000    0.000    0.000 
#
# Total GULP energy -223180.930234 kJ/mol
# GULP energy per Si atom -5579.523256 kJ/mol
# Density = 2.279423 g / cm^3
# Si number density = 22.846226 Si / 1000 Ang^3
#
#
#
# Elastic Constant Matrix: (Units=GPa)
#
#
# Indices 1 2 3 4 5 6 
#
# 1 91.0923 -5.9093 12.8776 0.0000 0.0000 0.0000
# 2 -5.9093 107.8396 81.2404 0.0000 0.0000 0.0000
# 3 12.8776 81.2404 203.2746 0.0000 0.0000 0.0000
# 4 0.0000 0.0000 0.0000 35.2574 0.0000 0.0000
# 5 0.0000 0.0000 0.0000 0.0000 -31.6223 0.0000
# 6 0.0000 0.0000 0.0000 0.0000 0.0000 12.5154
#
#
#
# Elastic Compliance Matrix: (Units=1/GPa)
#
#
# Indices 1 2 3 4 5 6 
#
# 1 0.011280 0.001655 -0.001376 0.000000 0.000000 0.000000
# 2 0.001655 0.013510 -0.005504 0.000000 0.000000 0.000000
# 3 -0.001376 -0.005504 0.007206 0.000000 0.000000 0.000000
# 4 0.000000 0.000000 0.000000 0.028363 0.000000 0.000000
# 5 0.000000 0.000000 0.000000 0.000000 -0.031623 0.000000
# 6 0.000000 0.000000 0.000000 0.000000 0.000000 0.079901
#
#
# Mechanical properties :
#
#
# Convention : Reuss Voigt Hill
#
# Bulk Modulus (GPa) = 46.41377 64.29155 55.35266
# Shear Modulus (GPa) = 39.59748 24.16329 31.88038
#
# Velocity S-wave (km/s) = 4.16771 3.25568 3.73960
# Velocity P-wave (km/s) = 6.59694 6.50651 6.55188
#
# Compressibility (1/GPa) = 0.02154533
#
# Stress axis : x y z
#
# Youngs Moduli (GPa) = 88.65473 74.01717 138.76410
#
# Poissons Ratio (x) = -0.12247 0.19092
# Poissons Ratio (y) = -0.14669 0.76381
# Poissons Ratio (z) = 0.12198 0.40742
#
# Static dielectric constant tensor:
#      x y z
#    x 2.297800 0.000000 0.000000 
#    y 0.000000 1.796590 0.000000 
#    z 0.000000 0.000000 1.877000 
# 
# From -- ./inp_files/74190.got.cif
#   From: 2010.05.17/outbox.cif.g08.bks.cpg/sg65_38_cif.got.tgz:74190.got - 2010.06.03 17:01:31.
