data_PCOD9486962
_publ_section_title
;
Structure prediction by ZEFSAII (Michael W. Deem and Ramdas Pophale) SiO2 
 PCOD9486962
Probable space group: C M M M
;
_chemical_formula_sum "Si O2"
_cell_formula_units_Z 80
_cell_length_a 8.470960
_cell_length_b 18.703106
_cell_length_c 26.590001
_cell_angle_alpha 90.000000
_cell_angle_beta 90.000000
_cell_angle_gamma 90.000000
_cell_volume 4212.740616
_symmetry_space_group_name_H-M "C M M M"
_symmetry_group_IT_number 65
_symmetry_cell_setting 'orthorhombic'
loop_
_space_group_symop_operation_xyz
x,y,z
-x,-y,z
x,-y,-z
-x,y,-z
-x,-y,-z
x,y,-z
-x,y,z
x,-y,z
1/2+x,1/2+y,z
1/2-x,1/2-y,z
1/2+x,1/2-y,-z
1/2-x,1/2+y,-z
1/2-x,1/2-y,-z
1/2+x,1/2+y,-z
1/2-x,1/2+y,z
1/2+x,1/2-y,z
loop_
_atom_site_type_symbol
_atom_site_label
_atom_site_fract_x
_atom_site_fract_y
_atom_site_fract_z
Si Si1 0.189407 0.830783 0.097735
Si Si2 0.689320 0.169002 0.206248
Si Si3 0.692803 0.581760 0.000000
Si Si4 0.692574 0.582536 0.500000
Si Si5 0.810627 0.168967 0.400920
Si Si6 0.808978 0.582415 0.304681
O O1 0.250000 0.750000 0.091280
O O2 0.249735 0.856501 0.151990
O O3 0.000000 0.829892 0.098722
O O4 0.243475 0.877734 0.050535
O O5 0.500000 0.170950 0.204959
O O6 0.750000 0.250000 0.213821
O O7 0.740752 0.119255 0.252373
O O8 0.744879 0.500000 0.000000
O O9 0.500000 0.582410 0.000000
O O10 0.745175 0.500000 0.500000
O O11 0.500000 0.581693 0.500000
O O12 0.743220 0.624916 0.549851
O O13 0.750000 0.250000 0.402260
O O14 0.752684 0.128353 0.351277
O O15 0.000000 0.170251 0.400938
O O16 0.756674 0.500000 0.307946
O O17 0.000000 0.583265 0.305883
#
# Coordination Sequence:
#
# PCOD9486962 Si02
#       6
#    16  16   8   8  16  16
#     4  10  19  33  55  78 103 136 174 217 261 311
#     4  10  20  35  55  78 106 139 176 219 266 316
#     4   9  19  34  51  75 106 137 170 212 262 311
#     4   9  19  36  57  83 114 145 180 225 274 322
#     4  11  22  37  59  84 112 147 186 227 270 320
#     4  10  22  39  57  80 112 146 180 224 276 325
#
# _framework density 18.990013000000001
#
# number of rings (size 3 to 8) (size 9 to 14) (size 15 to 20)
#    0.000    2.000    0.000    4.800    0.000    5.200 
#    0.000    3.000    0.000    7.800    0.000    0.000 
#    0.000    0.000    0.000    0.000    0.000    0.000 
#
# Total GULP energy -223451.745463 kJ/mol
# GULP energy per Si atom -5586.293637 kJ/mol
# Density = 1.894679 g / cm^3
# Si number density = 18.990013 Si / 1000 Ang^3
#
#
#
# Elastic Constant Matrix: (Units=GPa)
#
#
# Indices 1 2 3 4 5 6 
#
# 1 31.3472 26.5868 34.9824 0.0000 0.0000 0.0000
# 2 26.5868 164.7656 135.6241 0.0000 0.0000 0.0000
# 3 34.9824 135.6241 226.3457 0.0000 0.0000 0.0000
# 4 0.0000 0.0000 0.0000 30.4504 0.0000 0.0000
# 5 0.0000 0.0000 0.0000 0.0000 20.5030 0.0000
# 6 0.0000 0.0000 0.0000 0.0000 0.0000 12.7357
#
#
#
# Elastic Compliance Matrix: (Units=1/GPa)
#
#
# Indices 1 2 3 4 5 6 
#
# 1 0.039121 -0.002636 -0.004467 0.000000 0.000000 0.000000
# 2 -0.002636 0.012153 -0.006875 0.000000 0.000000 0.000000
# 3 -0.004467 -0.006875 0.009228 0.000000 0.000000 0.000000
# 4 0.000000 0.000000 0.000000 0.032840 0.000000 0.000000
# 5 0.000000 0.000000 0.000000 0.000000 0.048773 0.000000
# 6 0.000000 0.000000 0.000000 0.000000 0.000000 0.078520
#
#
# Mechanical properties :
#
#
# Convention : Reuss Voigt Hill
#
# Bulk Modulus (GPa) = 30.72455 90.76057 60.74256
# Shear Modulus (GPa) = 19.27228 27.75550 23.51389
#
# Velocity S-wave (km/s) = 3.18915 3.82721 3.52266
# Velocity P-wave (km/s) = 5.45668 8.21144 6.97148
#
# Compressibility (1/GPa) = 0.03254726
#
# Stress axis : x y z
#
# Youngs Moduli (GPa) = 25.56159 82.28087 108.36843
#
# Poissons Ratio (x) = 0.21687 0.48408
# Poissons Ratio (y) = 0.06737 0.74502
# Poissons Ratio (z) = 0.11418 0.56567
#
# Static dielectric constant tensor:
#      x y z
#    x 1.650170 0.000000 0.000000 
#    y 0.000000 1.627070 0.000000 
#    z 0.000000 0.000000 1.647210 
# 
# From -- ./inp_files/72920.got.cif
#   From: 2010.05.17/outbox.cif.g08.bks.cpg/sg65_37_cif.got.tgz:72920.got - 2010.06.03 17:01:31.
