data_PCOD9486219
_publ_section_title
;
Structure prediction by ZEFSAII (Michael W. Deem and Ramdas Pophale) SiO2 
 PCOD9486219
Probable space group: C M M M
;
_chemical_formula_sum "Si O2"
_cell_formula_units_Z 72
_cell_length_a 11.604005
_cell_length_b 26.430817
_cell_length_c 13.252576
_cell_angle_alpha 90.000000
_cell_angle_beta 90.000000
_cell_angle_gamma 90.000000
_cell_volume 4064.609225
_symmetry_space_group_name_H-M "C M M M"
_symmetry_group_IT_number 65
_symmetry_cell_setting 'orthorhombic'
loop_
_space_group_symop_operation_xyz
x,y,z
-x,-y,z
x,-y,-z
-x,y,-z
-x,-y,-z
x,y,-z
-x,y,z
x,-y,z
1/2+x,1/2+y,z
1/2-x,1/2-y,z
1/2+x,1/2-y,-z
1/2-x,1/2+y,-z
1/2-x,1/2-y,-z
1/2+x,1/2+y,-z
1/2-x,1/2+y,z
1/2+x,1/2-y,z
loop_
_atom_site_type_symbol
_atom_site_label
_atom_site_fract_x
_atom_site_fract_y
_atom_site_fract_z
Si Si1 0.872847 0.938800 0.000000
Si Si2 0.740207 0.939592 0.206607
Si Si3 0.000000 0.561348 0.115208
Si Si4 0.369645 0.357762 0.694074
Si Si5 0.137053 0.786537 0.500000
Si Si6 0.633246 0.715967 0.884762
O O1 0.810191 0.927151 0.895859
O O2 0.000000 0.916895 0.000000
O O3 0.879002 0.000000 0.000000
O O4 0.611727 0.924649 0.176976
O O5 0.786883 0.905564 0.296266
O O6 0.747757 0.000000 0.224167
O O7 0.000000 0.500000 0.107135
O O8 0.000000 0.580614 0.000000
O O9 0.500000 0.377391 0.689641
O O10 0.351972 0.321327 0.599238
O O11 0.358277 0.324647 0.795781
O O12 0.250000 0.750000 0.500000
O O13 0.000000 0.767181 0.500000
O O14 0.500000 0.738206 0.875026
O O15 0.750000 0.750000 0.874688
O O16 0.638203 0.695814 0.000000
#
# Coordination Sequence:
#
# PCOD9486219 Si02
#       6
#     8  16   8  16   8  16
#     4   9  16  25  43  71 104 146 187 220 254 307
#     4  10  19  32  50  76 114 152 189 227 268 327
#     4   9  16  30  48  69 109 161 197 226 267 315
#     4  10  21  36  57  83 110 143 185 230 279 330
#     4  10  22  44  67  87 112 142 185 241 291 340
#     4   9  18  33  52  76 108 140 172 219 278 335
#
# _framework density 17.71388
#
# number of rings (size 3 to 8) (size 9 to 14) (size 15 to 20)
#    0.000    2.444    1.111    1.333    1.556    1.333 
#    4.000    0.556    0.000    2.000    0.000    2.333 
#    0.000    0.000    0.000    0.000    0.000    0.000 
#
# Total GULP energy -200413.376750 kJ/mol
# GULP energy per Si atom -5567.038243 kJ/mol
# Density = 1.767356 g / cm^3
# Si number density = 17.713880 Si / 1000 Ang^3
#
#
#
# Elastic Constant Matrix: (Units=GPa)
#
#
# Indices 1 2 3 4 5 6 
#
# 1 159.4407 61.0546 45.5085 0.0000 0.0000 0.0000
# 2 61.0546 52.5338 39.3790 0.0000 0.0000 0.0000
# 3 45.5085 39.3790 76.0821 0.0000 0.0000 0.0000
# 4 0.0000 0.0000 0.0000 20.4100 0.0000 0.0000
# 5 0.0000 0.0000 0.0000 0.0000 57.3618 0.0000
# 6 0.0000 0.0000 0.0000 0.0000 0.0000 -101.5877
#
#
#
# Elastic Compliance Matrix: (Units=1/GPa)
#
#
# Indices 1 2 3 4 5 6 
#
# 1 0.011302 -0.013182 0.000063 0.000000 0.000000 0.000000
# 2 -0.013182 0.046477 -0.016171 0.000000 0.000000 0.000000
# 3 0.000063 -0.016171 0.021476 0.000000 0.000000 0.000000
# 4 0.000000 0.000000 0.000000 0.048996 0.000000 0.000000
# 5 0.000000 0.000000 0.000000 0.000000 0.017433 0.000000
# 6 0.000000 0.000000 0.000000 0.000000 0.000000 -0.009844
#
#
# Mechanical properties :
#
#
# Convention : Reuss Voigt Hill
#
# Bulk Modulus (GPa) = 48.36940 64.43787 56.40364
# Shear Modulus (GPa) = 24.83705 4.71113 14.77409
#
# Velocity S-wave (km/s) = 3.74856 1.63259 2.89111
# Velocity P-wave (km/s) = 6.78976 6.32533 6.56165
#
# Compressibility (1/GPa) = 0.02067423
#
# Stress axis : x y z
#
# Youngs Moduli (GPa) = 88.48180 21.51606 46.56308
#
# Poissons Ratio (x) = 0.28362 -0.00291
# Poissons Ratio (y) = 1.16634 0.75298
# Poissons Ratio (z) = -0.00553 0.34794
#
# Static dielectric constant tensor:
#      x y z
#    x 1.668090 0.000000 0.000000 
#    y 0.000000 1.625390 0.000000 
#    z 0.000000 0.000000 1.582500 
# 
# From -- ./inp_files/22545.got.cif
#   From: 2010.05.17/outbox.cif.g08.bks.cpg/sg65_12_cif.got.tgz:22545.got - 2010.06.03 17:01:31.
