data_PCOD9486062
_publ_section_title
;
Structure prediction by ZEFSAII (Michael W. Deem and Ramdas Pophale) SiO2 
 PCOD9486062
Probable space group: C M M M
;
_chemical_formula_sum "Si O2"
_cell_formula_units_Z 88
_cell_length_a 20.528097
_cell_length_b 18.715568
_cell_length_c 13.978596
_cell_angle_alpha 90.000000
_cell_angle_beta 90.000000
_cell_angle_gamma 90.000000
_cell_volume 5370.506625
_symmetry_space_group_name_H-M "C M M M"
_symmetry_group_IT_number 65
_symmetry_cell_setting 'orthorhombic'
loop_
_space_group_symop_operation_xyz
x,y,z
-x,-y,z
x,-y,-z
-x,y,-z
-x,-y,-z
x,y,-z
-x,y,z
x,-y,z
1/2+x,1/2+y,z
1/2-x,1/2-y,z
1/2+x,1/2-y,-z
1/2-x,1/2+y,-z
1/2-x,1/2-y,-z
1/2+x,1/2+y,-z
1/2-x,1/2+y,z
1/2+x,1/2-y,z
loop_
_atom_site_type_symbol
_atom_site_label
_atom_site_fract_x
_atom_site_fract_y
_atom_site_fract_z
Si Si1 0.343977 0.863581 0.888538
Si Si2 0.925169 0.707456 0.613271
Si Si3 0.674238 0.270254 0.248321
Si Si4 0.724821 0.417806 0.784321
Si Si5 0.074230 0.500000 0.116708
Si Si6 0.173985 0.417850 0.609063
O O1 0.345282 0.789485 0.830474
O O2 0.273592 0.899325 0.870925
O O3 0.391693 0.926433 0.852364
O O4 0.355962 0.850317 0.000000
O O5 0.926156 0.721331 0.500000
O O6 0.877020 0.761373 0.666739
O O7 0.887414 0.632608 0.627718
O O8 0.000000 0.707163 0.647557
O O9 0.750000 0.250000 0.273390
O O10 0.674634 0.352529 0.216319
O O11 0.702506 0.500000 0.788208
O O12 0.769733 0.409271 0.688295
O O13 0.000000 0.500000 0.146467
O O14 0.077952 0.500000 0.000000
O O15 0.197321 0.402619 0.500000
O O16 0.153494 0.500000 0.612874
#
# Coordination Sequence:
#
# PCOD9486062 Si02
#       6
#    16  16  16  16   8  16
#     4  10  19  32  47  71 106 137 168 209 248 293
#     4  10  20  33  50  74 102 133 168 206 253 309
#     4  10  20  34  50  74  99 134 174 213 255 303
#     4  10  19  33  51  73  97 128 174 213 258 301
#     4   9  18  32  50  72 101 139 170 191 235 305
#     4   9  17  30  47  70 101 132 163 201 243 297
#
# _framework density 16.385791000000001
#
# number of rings (size 3 to 8) (size 9 to 14) (size 15 to 20)
#    0.000    2.273    4.545    0.000    0.000    5.455 
#    0.000    1.818    0.000    0.545    0.000    1.273 
#    0.000    0.000    0.000   12.909    0.000    0.000 
#
# Total GULP energy -244991.483103 kJ/mol
# GULP energy per Si atom -5567.988252 kJ/mol
# Density = 1.634850 g / cm^3
# Si number density = 16.385791 Si / 1000 Ang^3
#
#
#
# Elastic Constant Matrix: (Units=GPa)
#
#
# Indices 1 2 3 4 5 6 
#
# 1 56.9174 46.9719 23.3908 0.0000 0.0000 0.0000
# 2 46.9719 150.1300 26.4340 0.0000 0.0000 0.0000
# 3 23.3908 26.4340 48.7305 0.0000 0.0000 0.0000
# 4 0.0000 0.0000 0.0000 7.4167 0.0000 0.0000
# 5 0.0000 0.0000 0.0000 0.0000 20.8129 0.0000
# 6 0.0000 0.0000 0.0000 0.0000 0.0000 16.1056
#
#
#
# Elastic Compliance Matrix: (Units=1/GPa)
#
#
# Indices 1 2 3 4 5 6 
#
# 1 0.027002 -0.006817 -0.009263 0.000000 0.000000 0.000000
# 2 -0.006817 0.009085 -0.001656 0.000000 0.000000 0.000000
# 3 -0.009263 -0.001656 0.025866 0.000000 0.000000 0.000000
# 4 0.000000 0.000000 0.000000 0.134831 0.000000 0.000000
# 5 0.000000 0.000000 0.000000 0.000000 0.048047 0.000000
# 6 0.000000 0.000000 0.000000 0.000000 0.000000 0.062090
#
#
# Mechanical properties :
#
#
# Convention : Reuss Voigt Hill
#
# Bulk Modulus (GPa) = 37.76381 49.93013 43.84697
# Shear Modulus (GPa) = 14.23605 19.46579 16.85092
#
# Velocity S-wave (km/s) = 2.95075 3.45043 3.21033
# Velocity P-wave (km/s) = 5.89117 6.81261 6.36858
#
# Compressibility (1/GPa) = 0.02648038
#
# Stress axis : x y z
#
# Youngs Moduli (GPa) = 37.03413 110.06610 38.66127
#
# Poissons Ratio (x) = 0.75035 0.35812
# Poissons Ratio (y) = 0.25247 0.06403
# Poissons Ratio (z) = 0.34305 0.18228
#
# Static dielectric constant tensor:
#      x y z
#    x 1.528380 0.000000 0.000000 
#    y 0.000000 1.580580 0.000000 
#    z 0.000000 0.000000 1.601750 
# 
# From -- ./inp_files/42473.got.cif
#   From: 2010.05.17/outbox.cif.g08.bks.cpg/sg65_22_cif.got.tgz:42473.got - 2010.06.03 17:01:31.
