data_PCOD9486005
_publ_section_title
;
Structure prediction by ZEFSAII (Michael W. Deem and Ramdas Pophale) SiO2 
 PCOD9486005
Probable space group: C M M M
;
_chemical_formula_sum "Si O2"
_cell_formula_units_Z 82
_cell_length_a 25.926471
_cell_length_b 20.653910
_cell_length_c 7.582472
_cell_angle_alpha 90.000000
_cell_angle_beta 90.000000
_cell_angle_gamma 90.000000
_cell_volume 4060.284844
_symmetry_space_group_name_H-M "C M M M"
_symmetry_group_IT_number 65
_symmetry_cell_setting 'orthorhombic'
loop_
_space_group_symop_operation_xyz
x,y,z
-x,-y,z
x,-y,-z
-x,y,-z
-x,-y,-z
x,y,-z
-x,y,z
x,-y,z
1/2+x,1/2+y,z
1/2-x,1/2-y,z
1/2+x,1/2-y,-z
1/2-x,1/2+y,-z
1/2-x,1/2-y,-z
1/2+x,1/2+y,-z
1/2-x,1/2+y,z
1/2+x,1/2-y,z
loop_
_atom_site_type_symbol
_atom_site_label
_atom_site_fract_x
_atom_site_fract_y
_atom_site_fract_z
Si Si1 0.294939 0.427051 0.290214
Si Si2 0.399243 0.350479 0.212780
Si Si3 0.896153 0.702019 0.786794
Si Si4 0.000000 0.926068 0.215872
Si Si5 0.000000 0.635300 0.196762
Si Si6 0.722580 0.815967 0.709966
Si Si7 0.500000 0.000000 0.000000
O O1 0.286744 0.432877 0.500000
O O2 0.296383 0.500000 0.217399
O O3 0.348301 0.389120 0.264533
O O4 0.250884 0.379574 0.217471
O O5 0.400571 0.276420 0.274002
O O6 0.449180 0.388976 0.274638
O O7 0.400396 0.348438 0.000000
O O8 0.838594 0.680659 0.736012
O O9 0.945739 0.660313 0.724069
O O10 0.896179 0.700288 0.000000
O O11 0.000000 0.000000 0.273358
O O12 0.000000 0.925943 0.000000
O O13 0.000000 0.558795 0.151977
O O14 0.000000 0.667228 0.000000
O O15 0.731819 0.815008 0.500000
O O16 0.750000 0.750000 0.779627
#
# Coordination Sequence:
#
# PCOD9486005 Si02
#       7
#    16  16  16   8   8  16   2
#     4  10  21  37  53  72 102 141 178 215 263 322
#     4  10  19  31  52  76 104 135 170 217 263 303
#     4  10  19  33  55  82 107 133 176 226 263 314
#     4   9  17  29  45  70  99 132 165 199 247 304
#     4   8  17  34  54  80 111 141 175 213 274 327
#     4  10  20  36  55  75 104 142 180 217 270 324
#     4   8  16  36  60  76 118 156 170 208 290 354
#
# _framework density 20.195629
#
# number of rings (size 3 to 8) (size 9 to 14) (size 15 to 20)
#    0.293    2.049    1.951    1.171    0.000    4.683 
#    1.756    0.976    0.000    4.098    0.000    0.683 
#    0.000    0.000    0.000    0.000    0.000    0.000 
#
# Total GULP energy -228364.995470 kJ/mol
# GULP energy per Si atom -5569.877938 kJ/mol
# Density = 2.014966 g / cm^3
# Si number density = 20.195629 Si / 1000 Ang^3
#
#
#
# Elastic Constant Matrix: (Units=GPa)
#
#
# Indices 1 2 3 4 5 6 
#
# 1 194.4846 125.1124 -6.7908 0.0000 0.0000 0.0000
# 2 125.1124 212.6249 8.6952 0.0000 0.0000 0.0000
# 3 -6.7908 8.6952 41.3377 0.0000 0.0000 0.0000
# 4 0.0000 0.0000 0.0000 8.5291 0.0000 0.0000
# 5 0.0000 0.0000 0.0000 0.0000 24.5903 0.0000
# 6 0.0000 0.0000 0.0000 0.0000 0.0000 108.4319
#
#
#
# Elastic Compliance Matrix: (Units=1/GPa)
#
#
# Indices 1 2 3 4 5 6 
#
# 1 0.008517 -0.005113 0.002475 0.000000 0.000000 0.000000
# 2 -0.005113 0.007813 -0.002483 0.000000 0.000000 0.000000
# 3 0.002475 -0.002483 0.025120 0.000000 0.000000 0.000000
# 4 0.000000 0.000000 0.000000 0.117245 0.000000 0.000000
# 5 0.000000 0.000000 0.000000 0.000000 0.040666 0.000000
# 6 0.000000 0.000000 0.000000 0.000000 0.000000 0.009222
#
#
# Mechanical properties :
#
#
# Convention : Reuss Voigt Hill
#
# Bulk Modulus (GPa) = 32.04395 78.05343 55.04869
# Shear Modulus (GPa) = 21.81211 49.73895 35.77553
#
# Velocity S-wave (km/s) = 3.28996 4.96810 4.21343
# Velocity P-wave (km/s) = 5.50754 8.46416 7.14055
#
# Compressibility (1/GPa) = 0.03120713
#
# Stress axis : x y z
#
# Youngs Moduli (GPa) = 117.40656 127.98751 39.80906
#
# Poissons Ratio (x) = 0.65440 -0.09852
# Poissons Ratio (y) = 0.60030 0.09886
# Poissons Ratio (z) = -0.29055 0.31785
#
# Static dielectric constant tensor:
#      x y z
#    x 1.708440 0.000000 0.000000 
#    y 0.000000 1.713030 0.000000 
#    z 0.000000 0.000000 1.768690 
# 
# From -- ./inp_files/13879.got.cif
#   From: 2010.05.17/outbox.cif.g08.bks.cpg/sg65_7_cif.got.tgz:13879.got - 2010.06.03 17:01:31.
