data_PCOD9486519
_publ_section_title
;
Structure prediction by ZEFSAII (Michael W. Deem and Ramdas Pophale) SiO2 
 PCOD9486519
Probable space group: C M M M
;
_chemical_formula_sum "Si O2"
_cell_formula_units_Z 56
_cell_length_a 11.119351
_cell_length_b 18.833750
_cell_length_c 14.274587
_cell_angle_alpha 90.000000
_cell_angle_beta 90.000000
_cell_angle_gamma 90.000000
_cell_volume 2989.370833
_symmetry_space_group_name_H-M "C M M M"
_symmetry_group_IT_number 65
_symmetry_cell_setting 'orthorhombic'
loop_
_space_group_symop_operation_xyz
x,y,z
-x,-y,z
x,-y,-z
-x,y,-z
-x,-y,-z
x,y,-z
-x,y,z
x,-y,z
1/2+x,1/2+y,z
1/2-x,1/2-y,z
1/2+x,1/2-y,-z
1/2-x,1/2+y,-z
1/2-x,1/2-y,-z
1/2+x,1/2+y,-z
1/2-x,1/2+y,z
1/2+x,1/2-y,z
loop_
_atom_site_type_symbol
_atom_site_label
_atom_site_fract_x
_atom_site_fract_y
_atom_site_fract_z
Si Si1 0.368833 0.290198 0.612147
Si Si2 0.752515 0.914891 0.298634
Si Si3 0.639013 0.586153 0.895349
Si Si4 0.500000 0.085929 0.393062
O O1 0.368308 0.283651 0.500000
O O2 0.500000 0.265400 0.646000
O O3 0.250000 0.250000 0.648534
O O4 0.348277 0.371742 0.640485
O O5 0.776338 0.893606 0.190844
O O6 0.621389 0.895631 0.338593
O O7 0.766756 0.000000 0.306477
O O8 0.500000 0.607511 0.877540
O O9 0.639222 0.500000 0.897468
O O10 0.673520 0.610419 0.000000
O O11 0.500000 0.114076 0.500000
O O12 0.500000 0.000000 0.399414
#
# Coordination Sequence:
#
# PCOD9486519 Si02
#       4
#    16  16  16   8
#     4  10  22  37  53  75 104 140 177 216 266 321
#     4  10  19  32  53  79 104 134 176 222 265 310
#     4   8  14  26  46  73 103 131 162 209 269 323
#     4   9  18  30  45  71 105 139 171 209 262 313
#
# _framework density 18.733039999999999
#
# number of rings (size 3 to 8) (size 9 to 14) (size 15 to 20)
#    0.000    2.714    0.000    2.571    2.000    3.429 
#    0.000    2.143    0.000    5.143    0.000    0.000 
#    0.000    0.000    0.000    0.000    0.000    0.000 
#
# Total GULP energy -156016.003606 kJ/mol
# GULP energy per Si atom -5572.000129 kJ/mol
# Density = 1.869040 g / cm^3
# Si number density = 18.733040 Si / 1000 Ang^3
#
#
#
# Elastic Constant Matrix: (Units=GPa)
#
#
# Indices 1 2 3 4 5 6 
#
# 1 149.7655 34.4104 78.8499 0.0000 0.0000 0.0000
# 2 34.4104 45.7686 10.2490 0.0000 0.0000 0.0000
# 3 78.8499 10.2490 94.1255 0.0000 0.0000 0.0000
# 4 0.0000 0.0000 0.0000 9.2503 0.0000 0.0000
# 5 0.0000 0.0000 0.0000 0.0000 32.5188 0.0000
# 6 0.0000 0.0000 0.0000 0.0000 0.0000 14.5074
#
#
#
# Elastic Compliance Matrix: (Units=1/GPa)
#
#
# Indices 1 2 3 4 5 6 
#
# 1 0.014540 -0.008409 -0.011265 0.000000 0.000000 0.000000
# 2 -0.008409 0.027258 0.004076 0.000000 0.000000 0.000000
# 3 -0.011265 0.004076 0.019617 0.000000 0.000000 0.000000
# 4 0.000000 0.000000 0.000000 0.108104 0.000000 0.000000
# 5 0.000000 0.000000 0.000000 0.000000 0.030751 0.000000
# 6 0.000000 0.000000 0.000000 0.000000 0.000000 0.068930
#
#
# Mechanical properties :
#
#
# Convention : Reuss Voigt Hill
#
# Bulk Modulus (GPa) = 33.09029 59.63092 46.36061
# Shear Modulus (GPa) = 16.10467 22.33199 19.21833
#
# Velocity S-wave (km/s) = 2.93523 3.45645 3.20645
# Velocity P-wave (km/s) = 5.40277 6.91596 6.20566
#
# Compressibility (1/GPa) = 0.03022034
#
# Stress axis : x y z
#
# Youngs Moduli (GPa) = 68.77644 36.68583 50.97694
#
# Poissons Ratio (x) = 0.30849 0.57423
# Poissons Ratio (y) = 0.57835 -0.20780
# Poissons Ratio (z) = 0.77474 -0.14954
#
# Static dielectric constant tensor:
#      x y z
#    x 1.663040 0.000000 0.000000 
#    y 0.000000 1.674840 0.000000 
#    z 0.000000 0.000000 1.644710 
# 
# From -- ./inp_files/21830.got.cif
#   From: 2010.05.17/outbox.cif.g08.bks.cpg/sg65_11_cif.got.tgz:21830.got - 2010.06.03 17:01:31.
