data_PCOD9486437
_publ_section_title
;
Structure prediction by ZEFSAII (Michael W. Deem and Ramdas Pophale) SiO2 
 PCOD9486437
Probable space group: C M M M
;
_chemical_formula_sum "Si O2"
_cell_formula_units_Z 104
_cell_length_a 28.740168
_cell_length_b 8.490189
_cell_length_c 24.147655
_cell_angle_alpha 90.000000
_cell_angle_beta 90.000000
_cell_angle_gamma 90.000000
_cell_volume 5892.256214
_symmetry_space_group_name_H-M "C M M M"
_symmetry_group_IT_number 65
_symmetry_cell_setting 'orthorhombic'
loop_
_space_group_symop_operation_xyz
x,y,z
-x,-y,z
x,-y,-z
-x,y,-z
-x,-y,-z
x,y,-z
-x,y,z
x,-y,z
1/2+x,1/2+y,z
1/2-x,1/2-y,z
1/2+x,1/2-y,-z
1/2-x,1/2+y,-z
1/2-x,1/2-y,-z
1/2+x,1/2+y,-z
1/2-x,1/2+y,z
1/2+x,1/2-y,z
loop_
_atom_site_type_symbol
_atom_site_label
_atom_site_fract_x
_atom_site_fract_y
_atom_site_fract_z
Si Si1 0.368010 0.813909 0.175261
Si Si2 0.698643 0.683722 0.259113
Si Si3 0.000000 0.677542 0.066471
Si Si4 0.053496 0.691463 0.264178
Si Si5 0.299989 0.312178 0.563839
Si Si6 0.099658 0.813382 0.064206
Si Si7 0.870183 0.684816 0.349114
O O1 0.326502 0.713055 0.200946
O O2 0.414609 0.768591 0.210629
O O3 0.372232 0.778778 0.110602
O O4 0.360532 0.000000 0.184692
O O5 0.697554 0.500000 0.274604
O O6 0.750000 0.750000 0.258400
O O7 0.668051 0.784031 0.301789
O O8 0.046376 0.771738 0.079230
O O9 0.000000 0.500000 0.090766
O O10 0.000000 0.661461 0.000000
O O11 0.052382 0.500000 0.265893
O O12 0.082132 0.743383 0.319409
O O13 0.000000 0.746676 0.261317
O O14 0.303326 0.256784 0.500000
O O15 0.297272 0.500000 0.564595
O O16 0.250000 0.250000 0.586439
O O17 0.345622 0.261463 0.597772
O O18 0.107137 0.000000 0.068368
O O19 0.107565 0.766312 0.000000
O O20 0.875710 0.500000 0.359834
#
# Coordination Sequence:
#
# PCOD9486437 Si02
#       7
#    16  16   8  16  16  16  16
#     4  10  20  33  52  77 102 130 169 209 254 307
#     4  11  21  35  54  75 103 133 167 208 254 303
#     4   9  17  29  45  65  89 123 165 203 242 291
#     4   8  16  31  50  73 100 130 166 210 252 292
#     4  10  20  33  50  74 105 138 171 209 255 306
#     4  10  20  33  48  69 100 134 167 207 255 307
#     4  10  19  32  52  77 104 135 172 210 252 301
#
# _framework density 17.650283999999999
#
# number of rings (size 3 to 8) (size 9 to 14) (size 15 to 20)
#    0.000    2.231    0.000    4.846    1.077    2.769 
#    0.000    0.000    0.000   10.154    0.000    3.231 
#    0.000    0.000    0.000    0.000    0.000    0.000 
#
# Total GULP energy -289833.221152 kJ/mol
# GULP energy per Si atom -5573.715791 kJ/mol
# Density = 1.761011 g / cm^3
# Si number density = 17.650284 Si / 1000 Ang^3
#
#
#
# Elastic Constant Matrix: (Units=GPa)
#
#
# Indices 1 2 3 4 5 6 
#
# 1 72.1750 -0.6455 12.8269 0.0000 0.0000 0.0000
# 2 -0.6455 31.3714 2.2018 0.0000 0.0000 0.0000
# 3 12.8269 2.2018 63.7710 0.0000 0.0000 0.0000
# 4 0.0000 0.0000 0.0000 26.8168 0.0000 0.0000
# 5 0.0000 0.0000 0.0000 0.0000 -6.3291 0.0000
# 6 0.0000 0.0000 0.0000 0.0000 0.0000 20.1866
#
#
#
# Elastic Compliance Matrix: (Units=1/GPa)
#
#
# Indices 1 2 3 4 5 6 
#
# 1 0.014377 0.000500 -0.002909 0.000000 0.000000 0.000000
# 2 0.000500 0.031971 -0.001204 0.000000 0.000000 0.000000
# 3 -0.002909 -0.001204 0.016308 0.000000 0.000000 0.000000
# 4 0.000000 0.000000 0.000000 0.037290 0.000000 0.000000
# 5 0.000000 0.000000 0.000000 0.000000 -0.158000 0.000000
# 6 0.000000 0.000000 0.000000 0.000000 0.000000 0.049538
#
#
# Mechanical properties :
#
#
# Convention : Reuss Voigt Hill
#
# Bulk Modulus (GPa) = 18.04121 21.78708 19.91414
# Shear Modulus (GPa) = 290.92597 18.33046 154.62822
#
# Velocity S-wave (km/s) = 12.85246 3.22613 9.37000
# Velocity P-wave (km/s) = 15.18194 5.12326 11.33003
#
# Compressibility (1/GPa) = 0.05542866
#
# Stress axis : x y z
#
# Youngs Moduli (GPa) = 69.55717 31.27833 61.32036
#
# Poissons Ratio (x) = -0.01564 0.17838
# Poissons Ratio (y) = -0.03478 0.07386
# Poissons Ratio (z) = 0.20234 0.03767
#
# Static dielectric constant tensor:
#      x y z
#    x 1.651520 0.000000 0.000000 
#    y 0.000000 1.610010 0.000000 
#    z 0.000000 0.000000 1.649120 
# 
# From -- ./inp_files/68184.got.cif
#   From: 2010.05.17/outbox.cif.g08.bks.cpg/sg65_35_cif.got.tgz:68184.got - 2010.06.03 17:01:31.
