data_PCOD9486015
_publ_section_title
;
Structure prediction by ZEFSAII (Michael W. Deem and Ramdas Pophale) SiO2 
 PCOD9486015
Probable space group: C M M M
;
_chemical_formula_sum "Si O2"
_cell_formula_units_Z 96
_cell_length_a 26.166322
_cell_length_b 24.404478
_cell_length_c 7.981475
_cell_angle_alpha 90.000000
_cell_angle_beta 90.000000
_cell_angle_gamma 90.000000
_cell_volume 5096.773827
_symmetry_space_group_name_H-M "C M M M"
_symmetry_group_IT_number 65
_symmetry_cell_setting 'orthorhombic'
loop_
_space_group_symop_operation_xyz
x,y,z
-x,-y,z
x,-y,-z
-x,y,-z
-x,-y,-z
x,y,-z
-x,y,z
x,-y,z
1/2+x,1/2+y,z
1/2-x,1/2-y,z
1/2+x,1/2-y,-z
1/2-x,1/2+y,-z
1/2-x,1/2-y,-z
1/2+x,1/2+y,-z
1/2-x,1/2+y,z
1/2+x,1/2-y,z
loop_
_atom_site_type_symbol
_atom_site_label
_atom_site_fract_x
_atom_site_fract_y
_atom_site_fract_z
Si Si1 0.754105 0.938207 0.299569
Si Si2 0.155577 0.371257 0.199135
Si Si3 0.847838 0.863967 0.297694
Si Si4 0.691117 0.753259 0.201953
Si Si5 0.058313 0.062715 0.704450
Si Si6 0.057942 0.562339 0.702229
O O1 0.760787 0.941376 0.500000
O O2 0.699408 0.911281 0.267115
O O3 0.799035 0.898828 0.234852
O O4 0.757248 0.000000 0.232347
O O5 0.165984 0.309772 0.263288
O O6 0.100345 0.395290 0.240434
O O7 0.161481 0.370115 0.000000
O O8 0.848075 0.866551 0.500000
O O9 0.839498 0.801094 0.250161
O O10 0.899534 0.893794 0.238382
O O11 0.750000 0.750000 0.262510
O O12 0.692834 0.755000 0.000000
O O13 0.058379 0.063321 0.500000
O O14 0.000000 0.074211 0.757837
O O15 0.071386 0.000000 0.753404
O O16 0.057968 0.561900 0.500000
O O17 0.070408 0.500000 0.757554
O O18 0.000000 0.574865 0.757559
#
# Coordination Sequence:
#
# PCOD9486015 Si02
#       6
#    16  16  16  16  16  16
#     4  10  20  32  48  74 107 135 162 208 267 318
#     4  11  22  35  53  76 102 136 178 217 253 303
#     4  10  19  31  52  79 102 130 175 219 253 302
#     4  10  21  38  53  68 100 143 177 211 259 307
#     4   8  14  27  49  77 108 137 164 203 257 308
#     4   9  19  37  59  81 107 138 168 205 260 316
#
# _framework density 18.835445
#
# number of rings (size 3 to 8) (size 9 to 14) (size 15 to 20)
#    0.000    2.333    1.667    2.500    0.000    6.667 
#    0.000    1.667    0.000    5.000    0.000    1.167 
#    0.000    0.000    0.000    0.000    0.000    0.000 
#
# Total GULP energy -267875.244593 kJ/mol
# GULP energy per Si atom -5580.734262 kJ/mol
# Density = 1.879257 g / cm^3
# Si number density = 18.835445 Si / 1000 Ang^3
#
#
#
# Elastic Constant Matrix: (Units=GPa)
#
#
# Indices 1 2 3 4 5 6 
#
# 1 105.1723 72.9336 -0.5614 0.0000 0.0000 0.0000
# 2 72.9336 149.6164 4.2165 0.0000 0.0000 0.0000
# 3 -0.5614 4.2165 12.9689 0.0000 0.0000 0.0000
# 4 0.0000 0.0000 0.0000 53.6712 0.0000 0.0000
# 5 0.0000 0.0000 0.0000 0.0000 3.1257 0.0000
# 6 0.0000 0.0000 0.0000 0.0000 0.0000 17.3908
#
#
#
# Elastic Compliance Matrix: (Units=1/GPa)
#
#
# Indices 1 2 3 4 5 6 
#
# 1 0.014475 -0.007139 0.002948 0.000000 0.000000 0.000000
# 2 -0.007139 0.010267 -0.003647 0.000000 0.000000 0.000000
# 3 0.002948 -0.003647 0.078421 0.000000 0.000000 0.000000
# 4 0.000000 0.000000 0.000000 0.018632 0.000000 0.000000
# 5 0.000000 0.000000 0.000000 0.000000 0.319927 0.000000
# 6 0.000000 0.000000 0.000000 0.000000 0.000000 0.057502
#
#
# Mechanical properties :
#
#
# Convention : Reuss Voigt Hill
#
# Bulk Modulus (GPa) = 11.43051 46.77057 29.10054
# Shear Modulus (GPa) = 9.19015 27.58213 18.38614
#
# Velocity S-wave (km/s) = 2.21128 3.83087 3.12772
# Velocity P-wave (km/s) = 3.54986 6.66726 5.34106
#
# Compressibility (1/GPa) = 0.08748513
#
# Stress axis : x y z
#
# Youngs Moduli (GPa) = 69.08647 97.40327 12.75175
#
# Poissons Ratio (x) = 0.69536 -0.03759
# Poissons Ratio (y) = 0.49321 0.04650
# Poissons Ratio (z) = -0.20364 0.35522
#
# Static dielectric constant tensor:
#      x y z
#    x 1.638410 0.000000 0.000000 
#    y 0.000000 1.641810 0.000000 
#    z 0.000000 0.000000 1.685650 
# 
# From -- ./inp_files/12237.got.cif
#   From: 2010.05.17/outbox.cif.g08.bks.cpg/sg65_7_cif.got.tgz:12237.got - 2010.06.03 17:01:31.
