data_PCOD9486529
_publ_section_title
;
Structure prediction by ZEFSAII (Michael W. Deem and Ramdas Pophale) SiO2 
 PCOD9486529
Probable space group: C M M M
;
_chemical_formula_sum "Si O2"
_cell_formula_units_Z 88
_cell_length_a 23.243763
_cell_length_b 23.581728
_cell_length_c 8.206817
_cell_angle_alpha 90.000000
_cell_angle_beta 90.000000
_cell_angle_gamma 90.000000
_cell_volume 4498.386983
_symmetry_space_group_name_H-M "C M M M"
_symmetry_group_IT_number 65
_symmetry_cell_setting 'orthorhombic'
loop_
_space_group_symop_operation_xyz
x,y,z
-x,-y,z
x,-y,-z
-x,y,-z
-x,-y,-z
x,y,-z
-x,y,z
x,-y,z
1/2+x,1/2+y,z
1/2-x,1/2-y,z
1/2+x,1/2-y,-z
1/2-x,1/2+y,-z
1/2-x,1/2-y,-z
1/2+x,1/2+y,-z
1/2-x,1/2+y,z
1/2+x,1/2-y,z
loop_
_atom_site_type_symbol
_atom_site_label
_atom_site_fract_x
_atom_site_fract_y
_atom_site_fract_z
Si Si1 0.500000 0.565959 0.193953
Si Si2 0.063222 0.565002 0.198923
Si Si3 0.734878 0.437653 0.303549
Si Si4 0.316026 0.265640 0.803573
Si Si5 0.120480 0.880838 0.305613
Si Si6 0.664898 0.857721 0.803556
O O1 0.500000 0.500000 0.258005
O O2 0.442097 0.600314 0.242776
O O3 0.500000 0.562214 0.000000
O O4 0.070135 0.500000 0.249114
O O5 0.114530 0.602754 0.261078
O O6 0.000000 0.585026 0.247926
O O7 0.064780 0.565639 0.000000
O O8 0.735928 0.437960 0.500000
O O9 0.754500 0.500000 0.245433
O O10 0.669678 0.425305 0.250139
O O11 0.775362 0.386476 0.247417
O O12 0.250000 0.250000 0.752608
O O13 0.351093 0.319821 0.739722
O O14 0.346117 0.206803 0.755410
O O15 0.314021 0.271949 0.000000
O O16 0.117166 0.882858 0.500000
O O17 0.664897 0.858236 0.000000
#
# Coordination Sequence:
#
# PCOD9486529 Si02
#       6
#     8  16  16  16  16  16
#     4  11  25  45  69  95 123 157 200 255 318 375
#     4   8  14  26  45  71 102 133 172 222 273 328
#     4  10  21  35  53  81 114 146 184 235 295 356
#     4  10  20  36  56  82 118 152 190 242 294 348
#     4  11  23  40  63  87 118 159 202 245 298 366
#     4  10  19  32  53  79 108 145 190 236 286 345
#
# _framework density 19.562569
#
# number of rings (size 3 to 8) (size 9 to 14) (size 15 to 20)
#    0.000    2.091    1.818    2.455    0.000    4.364 
#    1.636    0.000    0.000    0.545    0.000    2.545 
#    0.000    0.000    0.000    0.000    0.000    0.000 
#
# Total GULP energy -245247.203113 kJ/mol
# GULP energy per Si atom -5573.800071 kJ/mol
# Density = 1.951804 g / cm^3
# Si number density = 19.562569 Si / 1000 Ang^3
#
#
#
# Elastic Constant Matrix: (Units=GPa)
#
#
# Indices 1 2 3 4 5 6 
#
# 1 133.2578 62.0817 16.5591 0.0000 0.0000 0.0000
# 2 62.0817 119.4641 19.3460 0.0000 0.0000 0.0000
# 3 16.5591 19.3460 17.6969 0.0000 0.0000 0.0000
# 4 0.0000 0.0000 0.0000 16.4526 0.0000 0.0000
# 5 0.0000 0.0000 0.0000 0.0000 -24.9631 0.0000
# 6 0.0000 0.0000 0.0000 0.0000 0.0000 19.4367
#
#
#
# Elastic Compliance Matrix: (Units=1/GPa)
#
#
# Indices 1 2 3 4 5 6 
#
# 1 0.010195 -0.004560 -0.004554 0.000000 0.000000 0.000000
# 2 -0.004560 0.012211 -0.009082 0.000000 0.000000 0.000000
# 3 -0.004554 -0.009082 0.070696 0.000000 0.000000 0.000000
# 4 0.000000 0.000000 0.000000 0.060781 0.000000 0.000000
# 5 0.000000 0.000000 0.000000 0.000000 -0.040059 0.000000
# 6 0.000000 0.000000 0.000000 0.000000 0.000000 0.051449
#
#
# Mechanical properties :
#
#
# Convention : Reuss Voigt Hill
#
# Bulk Modulus (GPa) = 17.63364 51.82137 34.72751
# Shear Modulus (GPa) = 22.66863 13.68070 18.17467
#
# Velocity S-wave (km/s) = 3.40777 2.64735 3.05134
# Velocity P-wave (km/s) = 4.95151 5.99101 5.49589
#
# Compressibility (1/GPa) = 0.05670979
#
# Stress axis : x y z
#
# Youngs Moduli (GPa) = 98.08995 81.89080 14.14499
#
# Poissons Ratio (x) = 0.37346 0.06441
# Poissons Ratio (y) = 0.44733 0.12847
# Poissons Ratio (z) = 0.44669 0.74374
#
# Static dielectric constant tensor:
#      x y z
#    x 1.700690 0.000000 0.000000 
#    y 0.000000 1.703530 0.000000 
#    z 0.000000 0.000000 1.691430 
# 
# From -- ./inp_files/11728.got.cif
#   From: 2010.05.17/outbox.cif.g08.bks.cpg/sg65_6_cif.got.tgz:11728.got - 2010.06.03 17:01:31.
