data_PCOD9486180
_publ_section_title
;
Structure prediction by ZEFSAII (Michael W. Deem and Ramdas Pophale) SiO2 
 PCOD9486180
Probable space group: C M M M
;
_chemical_formula_sum "Si O2"
_cell_formula_units_Z 104
_cell_length_a 26.951749
_cell_length_b 8.341676
_cell_length_c 20.435693
_cell_angle_alpha 90.000000
_cell_angle_beta 90.000000
_cell_angle_gamma 90.000000
_cell_volume 4594.408858
_symmetry_space_group_name_H-M "C M M M"
_symmetry_group_IT_number 65
_symmetry_cell_setting 'orthorhombic'
loop_
_space_group_symop_operation_xyz
x,y,z
-x,-y,z
x,-y,-z
-x,y,-z
-x,-y,-z
x,y,-z
-x,y,z
x,-y,z
1/2+x,1/2+y,z
1/2-x,1/2-y,z
1/2+x,1/2-y,-z
1/2-x,1/2+y,-z
1/2-x,1/2-y,-z
1/2+x,1/2+y,-z
1/2-x,1/2+y,z
1/2+x,1/2-y,z
loop_
_atom_site_type_symbol
_atom_site_label
_atom_site_fract_x
_atom_site_fract_y
_atom_site_fract_z
Si Si1 0.094286 0.672786 0.074605
Si Si2 0.303771 0.307923 0.896225
Si Si3 0.410067 0.192877 0.570496
Si Si4 0.803654 0.807720 0.611488
Si Si5 0.840191 0.808744 0.752430
Si Si6 0.945592 0.693220 0.712224
Si Si7 0.441754 0.500000 0.074996
O O1 0.083247 0.500000 0.105029
O O2 0.152715 0.705580 0.071392
O O3 0.074329 0.834328 0.107196
O O4 0.074096 0.668892 0.000000
O O5 0.310242 0.500000 0.906989
O O6 0.250000 0.250000 0.917048
O O7 0.311701 0.271929 0.819064
O O8 0.429432 0.250310 0.500000
O O9 0.352108 0.239290 0.575936
O O10 0.436467 0.250113 0.636941
O O11 0.414011 0.000000 0.571207
O O12 0.750000 0.750000 0.588030
O O13 0.811661 0.753385 0.687231
O O14 0.805204 0.000000 0.608100
O O15 0.896057 0.742488 0.750348
O O16 0.843999 0.000000 0.748411
O O17 0.946506 0.500000 0.711744
O O18 0.000000 0.749478 0.735208
O O19 0.500000 0.500000 0.070033
O O20 0.420485 0.500000 0.000000
#
# Coordination Sequence:
#
# PCOD9486180 Si02
#       7
#    16  16  16  16  16  16   8
#     4  10  21  38  60  89 125 161 201 249 297 352
#     4  11  22  37  58  84 115 153 195 239 292 349
#     4   9  18  32  49  71 100 133 170 213 262 318
#     4  10  19  32  50  72  99 132 172 215 265 321
#     4   9  20  36  54  77 105 138 177 225 274 328
#     4   9  18  33  54  78 103 134 172 218 272 326
#     4   9  18  36  62  88 118 158 200 246 296 344
#
# _framework density 22.636209999999998
#
# number of rings (size 3 to 8) (size 9 to 14) (size 15 to 20)
#    0.000    2.385    0.769    1.385    0.000    3.692 
#    0.000    3.846    0.000    0.000    0.000    4.308 
#    0.000    0.000    0.000    0.000    0.000    0.000 
#
# Total GULP energy -290357.657254 kJ/mol
# GULP energy per Si atom -5583.801101 kJ/mol
# Density = 2.258469 g / cm^3
# Si number density = 22.636210 Si / 1000 Ang^3
#
#
#
# Elastic Constant Matrix: (Units=GPa)
#
#
# Indices 1 2 3 4 5 6 
#
# 1 95.9652 9.1840 -12.3314 0.0000 0.0000 0.0000
# 2 9.1840 79.9139 12.9724 0.0000 0.0000 0.0000
# 3 -12.3314 12.9724 58.4877 0.0000 0.0000 0.0000
# 4 0.0000 0.0000 0.0000 20.8644 0.0000 0.0000
# 5 0.0000 0.0000 0.0000 0.0000 7.9632 0.0000
# 6 0.0000 0.0000 0.0000 0.0000 0.0000 19.3170
#
#
#
# Elastic Compliance Matrix: (Units=1/GPa)
#
#
# Indices 1 2 3 4 5 6 
#
# 1 0.010926 -0.001691 0.002679 0.000000 0.000000 0.000000
# 2 -0.001691 0.013242 -0.003294 0.000000 0.000000 0.000000
# 3 0.002679 -0.003294 0.018393 0.000000 0.000000 0.000000
# 4 0.000000 0.000000 0.000000 0.047929 0.000000 0.000000
# 5 0.000000 0.000000 0.000000 0.000000 0.125578 0.000000
# 6 0.000000 0.000000 0.000000 0.000000 0.000000 0.051768
#
#
# Mechanical properties :
#
#
# Convention : Reuss Voigt Hill
#
# Bulk Modulus (GPa) = 26.34987 28.22409 27.28698
# Shear Modulus (GPa) = 17.53788 24.59837 21.06812
#
# Velocity S-wave (km/s) = 2.78649 3.30006 3.05409
# Velocity P-wave (km/s) = 4.69239 5.19771 4.95150
#
# Compressibility (1/GPa) = 0.03795085
#
# Stress axis : x y z
#
# Youngs Moduli (GPa) = 91.52111 75.51507 54.36889
#
# Poissons Ratio (x) = 0.12766 -0.14564
# Poissons Ratio (y) = 0.15472 0.17907
# Poissons Ratio (z) = -0.24515 0.24871
#
# Static dielectric constant tensor:
#      x y z
#    x 1.802600 0.000000 0.000000 
#    y 0.000000 1.839660 0.000000 
#    z 0.000000 0.000000 1.922190 
# 
# From -- ./inp_files/71824.got.cif
#   From: 2010.05.17/outbox.cif.g08.bks.cpg/sg65_36_cif.got.tgz:71824.got - 2010.06.03 17:01:31.
