data_PCOD9486550
_publ_section_title
;
Structure prediction by ZEFSAII (Michael W. Deem and Ramdas Pophale) SiO2 
 PCOD9486550
Probable space group: C M M M
;
_chemical_formula_sum "Si O2"
_cell_formula_units_Z 88
_cell_length_a 17.927234
_cell_length_b 29.656401
_cell_length_c 8.945781
_cell_angle_alpha 90.000000
_cell_angle_beta 90.000000
_cell_angle_gamma 90.000000
_cell_volume 4756.089239
_symmetry_space_group_name_H-M "C M M M"
_symmetry_group_IT_number 65
_symmetry_cell_setting 'orthorhombic'
loop_
_space_group_symop_operation_xyz
x,y,z
-x,-y,z
x,-y,-z
-x,y,-z
-x,-y,-z
x,y,-z
-x,y,z
x,-y,z
1/2+x,1/2+y,z
1/2-x,1/2-y,z
1/2+x,1/2-y,-z
1/2-x,1/2+y,-z
1/2-x,1/2-y,-z
1/2+x,1/2+y,-z
1/2-x,1/2+y,z
1/2+x,1/2-y,z
loop_
_atom_site_type_symbol
_atom_site_label
_atom_site_fract_x
_atom_site_fract_y
_atom_site_fract_z
Si Si1 0.779886 0.552171 0.319923
Si Si2 0.586036 0.884829 0.679224
Si Si3 0.500000 0.551481 0.181487
Si Si4 0.411298 0.302009 0.321717
Si Si5 0.854135 0.108026 0.179612
Si Si6 0.409249 0.791576 0.828121
O O1 0.770567 0.554190 0.500000
O O2 0.774084 0.500000 0.274014
O O3 0.860120 0.573831 0.284040
O O4 0.717651 0.582742 0.242870
O O5 0.587060 0.878514 0.500000
O O6 0.500000 0.892655 0.724032
O O7 0.614132 0.838595 0.754070
O O8 0.500000 0.500000 0.235729
O O9 0.426328 0.578498 0.226388
O O10 0.500000 0.550147 0.000000
O O11 0.403862 0.303729 0.500000
O O12 0.500000 0.307589 0.285274
O O13 0.366327 0.342325 0.245571
O O14 0.386973 0.253191 0.260875
O O15 0.851722 0.110061 0.000000
O O16 0.500000 0.792158 0.824756
O O17 0.385352 0.788929 0.000000
#
# Coordination Sequence:
#
# PCOD9486550 Si02
#       6
#    16  16   8  16  16  16
#     4  10  22  39  57  80 112 146 182 229 282 332
#     4   9  18  35  59  84 110 143 183 225 274 333
#     4   9  18  32  51  75 103 139 185 231 270 315
#     4  10  19  32  53  81 114 149 186 226 272 325
#     4  11  21  35  55  79 111 148 189 232 275 325
#     4   9  17  30  52  82 114 145 180 223 273 327
#
# _framework density 18.502596
#
# number of rings (size 3 to 8) (size 9 to 14) (size 15 to 20)
#    0.000    2.273    0.909    2.182    0.000    5.091 
#    0.000    2.727    0.000    7.636    0.000    3.818 
#    0.000    0.000    0.000    0.000    0.000    0.000 
#
# Total GULP energy -245591.144780 kJ/mol
# GULP energy per Si atom -5581.616927 kJ/mol
# Density = 1.846048 g / cm^3
# Si number density = 18.502596 Si / 1000 Ang^3
#
#
#
# Elastic Constant Matrix: (Units=GPa)
#
#
# Indices 1 2 3 4 5 6 
#
# 1 71.1179 39.5868 32.0840 0.0000 0.0000 0.0000
# 2 39.5868 92.1681 38.9699 0.0000 0.0000 0.0000
# 3 32.0840 38.9699 42.8777 0.0000 0.0000 0.0000
# 4 0.0000 0.0000 0.0000 19.7458 0.0000 0.0000
# 5 0.0000 0.0000 0.0000 0.0000 19.6610 0.0000
# 6 0.0000 0.0000 0.0000 0.0000 0.0000 70.8844
#
#
#
# Elastic Compliance Matrix: (Units=1/GPa)
#
#
# Indices 1 2 3 4 5 6 
#
# 1 0.022126 -0.004065 -0.012862 0.000000 0.000000 0.000000
# 2 -0.004065 0.018368 -0.013652 0.000000 0.000000 0.000000
# 3 -0.012862 -0.013652 0.045354 0.000000 0.000000 0.000000
# 4 0.000000 0.000000 0.000000 0.050644 0.000000 0.000000
# 5 0.000000 0.000000 0.000000 0.000000 0.050862 0.000000
# 6 0.000000 0.000000 0.000000 0.000000 0.000000 0.014107
#
#
# Mechanical properties :
#
#
# Convention : Reuss Voigt Hill
#
# Bulk Modulus (GPa) = 40.50172 47.49390 43.99781
# Shear Modulus (GPa) = 18.46040 28.42645 23.44343
#
# Velocity S-wave (km/s) = 3.16210 3.92388 3.56340
# Velocity P-wave (km/s) = 5.93878 6.80100 6.38446
#
# Compressibility (1/GPa) = 0.02469031
#
# Stress axis : x y z
#
# Youngs Moduli (GPa) = 45.19475 54.44212 22.04884
#
# Poissons Ratio (x) = 0.22133 0.28358
# Poissons Ratio (y) = 0.18374 0.30101
# Poissons Ratio (z) = 0.58128 0.74325
#
# Static dielectric constant tensor:
#      x y z
#    x 1.639350 0.000000 0.000000 
#    y 0.000000 1.613890 0.000000 
#    z 0.000000 0.000000 1.616630 
# 
# From -- ./inp_files/10015.got.cif
#   From: 2010.05.17/outbox.cif.g08.bks.cpg/sg65_6_cif.got.tgz:10015.got - 2010.06.03 17:01:31.
