data_PCOD9486461
_publ_section_title
;
Structure prediction by ZEFSAII (Michael W. Deem and Ramdas Pophale) SiO2 
 PCOD9486461
Probable space group: C M M M
;
_chemical_formula_sum "Si O2"
_cell_formula_units_Z 72
_cell_length_a 19.029371
_cell_length_b 8.672597
_cell_length_c 24.486558
_cell_angle_alpha 90.000000
_cell_angle_beta 90.000000
_cell_angle_gamma 90.000000
_cell_volume 4041.116225
_symmetry_space_group_name_H-M "C M M M"
_symmetry_group_IT_number 65
_symmetry_cell_setting 'orthorhombic'
loop_
_space_group_symop_operation_xyz
x,y,z
-x,-y,z
x,-y,-z
-x,y,-z
-x,-y,-z
x,y,-z
-x,y,z
x,-y,z
1/2+x,1/2+y,z
1/2-x,1/2-y,z
1/2+x,1/2-y,-z
1/2-x,1/2+y,-z
1/2-x,1/2-y,-z
1/2+x,1/2+y,-z
1/2-x,1/2+y,z
1/2+x,1/2-y,z
loop_
_atom_site_type_symbol
_atom_site_label
_atom_site_fract_x
_atom_site_fract_y
_atom_site_fract_z
Si Si1 0.582333 0.185633 0.439030
Si Si2 0.170943 0.814440 0.779386
Si Si3 0.418071 0.814977 0.000000
Si Si4 0.829613 0.814235 0.899455
Si Si5 0.671022 0.315205 0.660501
O O1 0.605870 0.234552 0.500000
O O2 0.500000 0.225564 0.433797
O O3 0.626100 0.255742 0.389941
O O4 0.587647 0.000000 0.436855
O O5 0.250000 0.750000 0.779073
O O6 0.142025 0.768930 0.838827
O O7 0.140466 0.767578 0.720383
O O8 0.173330 0.000000 0.779458
O O9 0.378138 0.751018 0.053042
O O10 0.500000 0.769425 0.000000
O O11 0.413908 0.000000 0.000000
O O12 0.750000 0.750000 0.904947
O O13 0.826824 0.000000 0.902957
O O14 0.674121 0.500000 0.658914
O O15 0.750000 0.250000 0.656696
#
# Coordination Sequence:
#
# PCOD9486461 Si02
#       5
#    16  16   8  16  16
#     4   9  19  36  54  71  96 132 172 212 253 298
#     4   8  16  30  49  75 103 130 161 201 246 292
#     4  11  24  39  52  71 103 137 170 211 254 293
#     4  10  19  34  57  80 102 131 169 207 246 297
#     4  10  19  32  52  78 106 133 164 204 250 298
#
# _framework density 17.816859999999998
#
# number of rings (size 3 to 8) (size 9 to 14) (size 15 to 20)
#    0.000    2.556    0.000    2.667    0.000    4.000 
#    0.000    2.222    0.000    6.667    0.000    0.000 
#    0.000    0.000    0.000    0.000    0.000    0.000 
#
# Total GULP energy -200566.304086 kJ/mol
# GULP energy per Si atom -5571.286225 kJ/mol
# Density = 1.777631 g / cm^3
# Si number density = 17.816860 Si / 1000 Ang^3
#
#
#
# Elastic Constant Matrix: (Units=GPa)
#
#
# Indices 1 2 3 4 5 6 
#
# 1 66.4568 29.9001 88.9890 0.0000 0.0000 0.0000
# 2 29.9001 34.8094 52.7969 0.0000 0.0000 0.0000
# 3 88.9890 52.7969 245.3018 0.0000 0.0000 0.0000
# 4 0.0000 0.0000 0.0000 -8.6579 0.0000 0.0000
# 5 0.0000 0.0000 0.0000 0.0000 -21.3947 0.0000
# 6 0.0000 0.0000 0.0000 0.0000 0.0000 24.8819
#
#
#
# Elastic Compliance Matrix: (Units=1/GPa)
#
#
# Indices 1 2 3 4 5 6 
#
# 1 0.034190 -0.015672 -0.009030 0.000000 0.000000 0.000000
# 2 -0.015672 0.049835 -0.005041 0.000000 0.000000 0.000000
# 3 -0.009030 -0.005041 0.008438 0.000000 0.000000 0.000000
# 4 0.000000 0.000000 0.000000 -0.115502 0.000000 0.000000
# 5 0.000000 0.000000 0.000000 0.000000 -0.046740 0.000000
# 6 0.000000 0.000000 0.000000 0.000000 0.000000 0.040190
#
#
# Mechanical properties :
#
#
# Convention : Reuss Voigt Hill
#
# Bulk Modulus (GPa) = 30.32396 76.65997 53.49197
# Shear Modulus (GPa) = 122.28438 10.62466 66.45452
#
# Velocity S-wave (km/s) = 8.29356 2.44463 6.11389
# Velocity P-wave (km/s) = 10.42917 7.14761 8.94024
#
# Compressibility (1/GPa) = 0.03297722
#
# Stress axis : x y z
#
# Youngs Moduli (GPa) = 29.24804 20.06621 118.51838
#
# Poissons Ratio (x) = 0.31447 1.07026
# Poissons Ratio (y) = 0.45837 0.59743
# Poissons Ratio (z) = 0.26412 0.10115
#
# Static dielectric constant tensor:
#      x y z
#    x 1.560640 0.000000 0.000000 
#    y 0.000000 1.601350 0.000000 
#    z 0.000000 0.000000 1.660530 
# 
# From -- ./inp_files/59231.got.cif
#   From: 2010.05.17/outbox.cif.g08.bks.cpg/sg65_30_cif.got.tgz:59231.got - 2010.06.03 17:01:31.
