data_PCOD9486291
_publ_section_title
;
Structure prediction by ZEFSAII (Michael W. Deem and Ramdas Pophale) SiO2 
 PCOD9486291
Probable space group: C M M M
;
_chemical_formula_sum "Si O2"
_cell_formula_units_Z 88
_cell_length_a 7.343218
_cell_length_b 15.834306
_cell_length_c 33.759984
_cell_angle_alpha 90.000000
_cell_angle_beta 90.000000
_cell_angle_gamma 90.000000
_cell_volume 3925.434065
_symmetry_space_group_name_H-M "C M M M"
_symmetry_group_IT_number 65
_symmetry_cell_setting 'orthorhombic'
loop_
_space_group_symop_operation_xyz
x,y,z
-x,-y,z
x,-y,-z
-x,y,-z
-x,-y,-z
x,y,-z
-x,y,z
x,-y,z
1/2+x,1/2+y,z
1/2-x,1/2-y,z
1/2+x,1/2-y,-z
1/2-x,1/2+y,-z
1/2-x,1/2-y,-z
1/2+x,1/2+y,-z
1/2-x,1/2+y,z
1/2+x,1/2-y,z
loop_
_atom_site_type_symbol
_atom_site_label
_atom_site_fract_x
_atom_site_fract_y
_atom_site_fract_z
Si Si1 0.216720 0.155850 0.627723
Si Si2 0.283535 0.650500 0.084636
Si Si3 0.220770 0.900197 0.456807
Si Si4 0.222695 0.000000 0.771788
Si Si5 0.277027 0.500000 0.319199
Si Si6 0.705609 0.400390 0.000000
Si Si7 0.282110 0.350439 0.171401
O O1 0.250000 0.250000 0.642444
O O2 0.287679 0.145143 0.582773
O O3 0.000000 0.143766 0.625187
O O4 0.283564 0.082621 0.656662
O O5 0.500000 0.630268 0.083730
O O6 0.250000 0.750000 0.085839
O O7 0.208408 0.622161 0.042208
O O8 0.213937 0.621701 0.127632
O O9 0.284810 0.869625 0.500000
O O10 0.000000 0.894757 0.457334
O O11 0.264315 0.000000 0.453474
O O12 0.281586 0.084412 0.795231
O O13 0.281386 0.000000 0.726269
O O14 0.000000 0.000000 0.771642
O O15 0.500000 0.500000 0.318927
O O16 0.688583 0.500000 0.000000
O O17 0.500000 0.361173 0.000000
O O18 0.500000 0.358442 0.169795
O O19 0.250000 0.250000 0.178029
#
# Coordination Sequence:
#
# PCOD9486291 Si02
#       7
#    16  16  16   8   8   8  16
#     4  10  19  32  51  74  98 128 163 200 239 283
#     4   9  17  29  46  66  90 120 150 185 227 272
#     4   8  13  24  45  70  94 124 163 200 231 273
#     4   9  18  32  53  75  95 125 161 199 239 286
#     4   9  18  34  52  71  97 128 163 197 237 290
#     4   9  17  26  41  67  92 115 150 192 224 257
#     4   9  18  32  51  74  98 124 158 197 238 284
#
# _framework density 22.417902999999999
#
# number of rings (size 3 to 8) (size 9 to 14) (size 15 to 20)
#    0.000    3.000    0.909    0.818    1.273    1.091 
#    0.000    0.909    0.000    2.182    0.000    1.273 
#    0.000    0.000    0.000    0.000    0.000    0.000 
#
# Total GULP energy -245430.526415 kJ/mol
# GULP energy per Si atom -5577.966509 kJ/mol
# Density = 2.236688 g / cm^3
# Si number density = 22.417903 Si / 1000 Ang^3
#
#
#
# Elastic Constant Matrix: (Units=GPa)
#
#
# Indices 1 2 3 4 5 6 
#
# 1 87.5452 -3.8980 12.7555 0.0000 0.0000 0.0000
# 2 -3.8980 125.3698 113.0585 0.0000 0.0000 0.0000
# 3 12.7555 113.0585 240.6264 0.0000 0.0000 0.0000
# 4 0.0000 0.0000 0.0000 9.8255 0.0000 0.0000
# 5 0.0000 0.0000 0.0000 0.0000 -2.0965 0.0000
# 6 0.0000 0.0000 0.0000 0.0000 0.0000 7.5647
#
#
#
# Elastic Compliance Matrix: (Units=1/GPa)
#
#
# Indices 1 2 3 4 5 6 
#
# 1 0.011694 0.001601 -0.001372 0.000000 0.000000 0.000000
# 2 0.001601 0.014060 -0.006691 0.000000 0.000000 0.000000
# 3 -0.001372 -0.006691 0.007372 0.000000 0.000000 0.000000
# 4 0.000000 0.000000 0.000000 0.101777 0.000000 0.000000
# 5 0.000000 0.000000 0.000000 0.000000 -0.476992 0.000000
# 6 0.000000 0.000000 0.000000 0.000000 0.000000 0.132193
#
#
# Mechanical properties :
#
#
# Convention : Reuss Voigt Hill
#
# Bulk Modulus (GPa) = 49.50006 77.48593 63.49299
# Shear Modulus (GPa) = -26.28304 25.16708 -0.55798
#
# Velocity S-wave (km/s) = -3.42777 3.35421 -0.49944
# Velocity P-wave (km/s) = 2.54213 7.04559 5.29635
#
# Compressibility (1/GPa) = 0.02020199
#
# Stress axis : x y z
#
# Youngs Moduli (GPa) = 85.51486 71.12286 135.64191
#
# Poissons Ratio (x) = -0.11386 0.18611
# Poissons Ratio (y) = -0.13690 0.90759
# Poissons Ratio (z) = 0.11733 0.47589
#
# Static dielectric constant tensor:
#      x y z
#    x 1.966820 0.000000 0.000000 
#    y 0.000000 1.778970 0.000000 
#    z 0.000000 0.000000 1.849690 
# 
# From -- ./inp_files/76720.got.cif
#   From: 2010.05.17/outbox.cif.g08.bks.cpg/sg65_39_cif.got.tgz:76720.got - 2010.06.03 17:01:31.
