data_PCOD9486500
_publ_section_title
;
Structure prediction by ZEFSAII (Michael W. Deem and Ramdas Pophale) SiO2 
 PCOD9486500
Probable space group: C M M M
;
_chemical_formula_sum "Si O2"
_cell_formula_units_Z 96
_cell_length_a 22.037515
_cell_length_b 26.919621
_cell_length_c 7.396760
_cell_angle_alpha 90.000000
_cell_angle_beta 90.000000
_cell_angle_gamma 90.000000
_cell_volume 4388.065379
_symmetry_space_group_name_H-M "C M M M"
_symmetry_group_IT_number 65
_symmetry_cell_setting 'orthorhombic'
loop_
_space_group_symop_operation_xyz
x,y,z
-x,-y,z
x,-y,-z
-x,y,-z
-x,-y,-z
x,y,-z
-x,y,z
x,-y,z
1/2+x,1/2+y,z
1/2-x,1/2-y,z
1/2+x,1/2-y,-z
1/2-x,1/2+y,-z
1/2-x,1/2-y,-z
1/2+x,1/2+y,-z
1/2-x,1/2+y,z
1/2+x,1/2-y,z
loop_
_atom_site_type_symbol
_atom_site_label
_atom_site_fract_x
_atom_site_fract_y
_atom_site_fract_z
Si Si1 0.500000 0.301792 0.783391
Si Si2 0.343040 0.145226 0.279319
Si Si3 0.702847 0.349509 0.278836
Si Si4 0.870568 0.245140 0.710579
Si Si5 0.865858 0.053411 0.289083
Si Si6 0.069942 0.443596 0.720296
Si Si7 0.500000 0.415976 0.783143
O O1 0.561151 0.274938 0.722677
O O2 0.500000 0.358785 0.719808
O O3 0.500000 0.302377 0.000000
O O4 0.345760 0.144022 0.500000
O O5 0.272492 0.142441 0.228764
O O6 0.365897 0.199235 0.215904
O O7 0.384304 0.099227 0.217845
O O8 0.699758 0.348119 0.500000
O O9 0.673789 0.297606 0.214366
O O10 0.663499 0.396433 0.214247
O O11 0.853504 0.249776 0.500000
O O12 0.848534 0.052428 0.500000
O O13 0.938216 0.058760 0.278219
O O14 0.847742 0.000000 0.210190
O O15 0.070739 0.443419 0.500000
O O16 0.085920 0.500000 0.776057
O O17 0.000000 0.433802 0.773689
O O18 0.500000 0.416515 0.000000
#
# Coordination Sequence:
#
# PCOD9486500 Si02
#       7
#     8  16  16  16  16  16   8
#     4  11  23  36  52  75 103 133 168 212 259 304
#     4   9  17  27  46  74 101 131 169 203 240 299
#     4   9  17  30  46  69 101 133 162 203 251 292
#     4  10  19  32  53  76 100 130 167 208 252 298
#     4  10  20  33  51  75 103 135 172 211 253 301
#     4   8  14  24  37  59  98 137 160 190 240 291
#     4  11  22  36  53  72  98 133 175 217 259 302
#
# _framework density 21.877524000000001
#
# number of rings (size 3 to 8) (size 9 to 14) (size 15 to 20)
#    0.000    2.500    1.667    1.750    1.167    4.667 
#    0.000    3.333    0.000    3.000    0.000    0.000 
#    0.000    1.333    0.000    0.000    0.000    0.000 
#
# Total GULP energy -268093.476896 kJ/mol
# GULP energy per Si atom -5585.280769 kJ/mol
# Density = 2.182773 g / cm^3
# Si number density = 21.877524 Si / 1000 Ang^3
#
#
#
# Elastic Constant Matrix: (Units=GPa)
#
#
# Indices 1 2 3 4 5 6 
#
# 1 137.1621 119.0674 -9.2666 0.0000 0.0000 0.0000
# 2 119.0674 235.3198 7.3206 0.0000 0.0000 0.0000
# 3 -9.2666 7.3206 74.0801 0.0000 0.0000 0.0000
# 4 0.0000 0.0000 0.0000 -12.1200 0.0000 0.0000
# 5 0.0000 0.0000 0.0000 0.0000 77.6661 0.0000
# 6 0.0000 0.0000 0.0000 0.0000 0.0000 26.2141
#
#
#
# Elastic Compliance Matrix: (Units=1/GPa)
#
#
# Indices 1 2 3 4 5 6 
#
# 1 0.013398 -0.006852 0.002353 0.000000 0.000000 0.000000
# 2 -0.006852 0.007767 -0.001625 0.000000 0.000000 0.000000
# 3 0.002353 -0.001625 0.013954 0.000000 0.000000 0.000000
# 4 0.000000 0.000000 0.000000 -0.082508 0.000000 0.000000
# 5 0.000000 0.000000 0.000000 0.000000 0.012876 0.000000
# 6 0.000000 0.000000 0.000000 0.000000 0.000000 0.038147
#
#
# Mechanical properties :
#
#
# Convention : Reuss Voigt Hill
#
# Bulk Modulus (GPa) = 43.72331 75.64498 59.68415
# Shear Modulus (GPa) = 212.71460 40.31474 126.51467
#
# Velocity S-wave (km/s) = 9.87121 4.29738 7.61276
# Velocity P-wave (km/s) = 12.24541 7.69902 10.22802
#
# Compressibility (1/GPa) = 0.02287110
#
# Stress axis : x y z
#
# Youngs Moduli (GPa) = 74.63821 128.74613 71.66511
#
# Poissons Ratio (x) = 0.88221 -0.16863
# Poissons Ratio (y) = 0.51144 0.11643
# Poissons Ratio (z) = -0.17563 0.20917
#
# Static dielectric constant tensor:
#      x y z
#    x 1.731960 0.000000 0.000000 
#    y 0.000000 1.799110 0.000000 
#    z 0.000000 0.000000 1.826150 
# 
# From -- ./inp_files/14413.got.cif
#   From: 2010.05.17/outbox.cif.g08.bks.cpg/sg65_8_cif.got.tgz:14413.got - 2010.06.03 17:01:31.
