data_PCOD9486367
_publ_section_title
;
Structure prediction by ZEFSAII (Michael W. Deem and Ramdas Pophale) SiO2 
 PCOD9486367
Probable space group: C M M M
;
_chemical_formula_sum "Si O2"
_cell_formula_units_Z 72
_cell_length_a 16.942035
_cell_length_b 7.618101
_cell_length_c 26.056870
_cell_angle_alpha 90.000000
_cell_angle_beta 90.000000
_cell_angle_gamma 90.000000
_cell_volume 3363.059469
_symmetry_space_group_name_H-M "C M M M"
_symmetry_group_IT_number 65
_symmetry_cell_setting 'orthorhombic'
loop_
_space_group_symop_operation_xyz
x,y,z
-x,-y,z
x,-y,-z
-x,y,-z
-x,-y,-z
x,y,-z
-x,y,z
x,-y,z
1/2+x,1/2+y,z
1/2-x,1/2-y,z
1/2+x,1/2-y,-z
1/2-x,1/2+y,-z
1/2-x,1/2-y,-z
1/2+x,1/2+y,-z
1/2-x,1/2+y,z
1/2+x,1/2-y,z
loop_
_atom_site_type_symbol
_atom_site_label
_atom_site_fract_x
_atom_site_fract_y
_atom_site_fract_z
Si Si1 0.843205 0.699690 0.615571
Si Si2 0.500000 0.214874 0.560117
Si Si3 0.093365 0.796173 0.837896
Si Si4 0.342825 0.288904 0.055367
Si Si5 0.658030 0.290381 0.731219
O O1 0.842416 0.500000 0.598679
O O2 0.750000 0.750000 0.610252
O O3 0.917779 0.781965 0.585502
O O4 0.864202 0.714104 0.675983
O O5 0.500000 0.254602 0.500000
O O6 0.500000 0.000000 0.565950
O O7 0.124406 0.717117 0.891058
O O8 0.117567 0.720579 0.782859
O O9 0.000000 0.798057 0.840919
O O10 0.122293 0.000000 0.836641
O O11 0.355572 0.500000 0.055678
O O12 0.250000 0.250000 0.055438
O O13 0.374603 0.224532 0.000000
O O14 0.644960 0.500000 0.727353
O O15 0.750000 0.250000 0.737772
#
# Coordination Sequence:
#
# PCOD9486367 Si02
#       5
#    16   8  16  16  16
#     4  10  20  36  58  83 111 144 182 223 266 316
#     4   9  20  38  59  83 113 149 182 217 266 318
#     4   9  18  30  45  70  99 127 161 204 254 302
#     4   9  17  30  49  69  90 121 161 204 248 297
#     4  10  19  32  52  74 101 135 170 211 258 307
#
# _framework density 21.409077
#
# number of rings (size 3 to 8) (size 9 to 14) (size 15 to 20)
#    0.000    2.556    0.000    3.333    1.556    0.889 
#    0.000    5.000    0.000    8.000    0.000    3.111 
#    0.000    0.000    0.000    0.000    0.000    0.000 
#
# Total GULP energy -200515.679171 kJ/mol
# GULP energy per Si atom -5569.879977 kJ/mol
# Density = 2.136035 g / cm^3
# Si number density = 21.409077 Si / 1000 Ang^3
#
#
#
# Elastic Constant Matrix: (Units=GPa)
#
#
# Indices 1 2 3 4 5 6 
#
# 1 90.8120 3.0446 103.5774 0.0000 0.0000 0.0000
# 2 3.0446 44.1437 -10.1206 0.0000 0.0000 0.0000
# 3 103.5774 -10.1206 165.0850 0.0000 0.0000 0.0000
# 4 0.0000 0.0000 0.0000 11.6377 0.0000 0.0000
# 5 0.0000 0.0000 0.0000 0.0000 85.2054 0.0000
# 6 0.0000 0.0000 0.0000 0.0000 0.0000 5.4509
#
#
#
# Elastic Compliance Matrix: (Units=1/GPa)
#
#
# Indices 1 2 3 4 5 6 
#
# 1 0.042021 -0.009070 -0.026921 0.000000 0.000000 0.000000
# 2 -0.009070 0.024934 0.007219 0.000000 0.000000 0.000000
# 3 -0.026921 0.007219 0.023391 0.000000 0.000000 0.000000
# 4 0.000000 0.000000 0.000000 0.085928 0.000000 0.000000
# 5 0.000000 0.000000 0.000000 0.000000 0.011736 0.000000
# 6 0.000000 0.000000 0.000000 0.000000 0.000000 0.183456
#
#
# Mechanical properties :
#
#
# Convention : Reuss Voigt Hill
#
# Bulk Modulus (GPa) = 30.48550 54.78262 42.63406
# Shear Modulus (GPa) = 11.36512 34.02808 22.69660
#
# Velocity S-wave (km/s) = 2.30653 3.99108 3.25951
# Velocity P-wave (km/s) = 4.62211 6.84707 5.84150
#
# Compressibility (1/GPa) = 0.03280248
#
# Stress axis : x y z
#
# Youngs Moduli (GPa) = 23.79774 40.10590 42.75218
#
# Poissons Ratio (x) = 0.36377 1.15092
# Poissons Ratio (y) = 0.21585 -0.30864
# Poissons Ratio (z) = 0.64065 -0.28954
#
# Static dielectric constant tensor:
#      x y z
#    x 1.754970 0.000000 0.000000 
#    y 0.000000 1.805500 0.000000 
#    z 0.000000 0.000000 1.800900 
# 
# From -- ./inp_files/77564.got.cif
#   From: 2010.05.17/outbox.cif.g08.bks.cpg/sg65_39_cif.got.tgz:77564.got - 2010.06.03 17:01:31.
