data_PCOD9486333
_publ_section_title
;
Structure prediction by ZEFSAII (Michael W. Deem and Ramdas Pophale) SiO2 
 PCOD9486333
Probable space group: C M M M
;
_chemical_formula_sum "Si O2"
_cell_formula_units_Z 128
_cell_length_a 17.483278
_cell_length_b 18.539067
_cell_length_c 20.428397
_cell_angle_alpha 90.000000
_cell_angle_beta 90.000000
_cell_angle_gamma 90.000000
_cell_volume 6621.326849
_symmetry_space_group_name_H-M "C M M M"
_symmetry_group_IT_number 65
_symmetry_cell_setting 'orthorhombic'
loop_
_space_group_symop_operation_xyz
x,y,z
-x,-y,z
x,-y,-z
-x,y,-z
-x,-y,-z
x,y,-z
-x,y,z
x,-y,z
1/2+x,1/2+y,z
1/2-x,1/2-y,z
1/2+x,1/2-y,-z
1/2-x,1/2+y,-z
1/2-x,1/2-y,-z
1/2+x,1/2+y,-z
1/2-x,1/2+y,z
1/2+x,1/2-y,z
loop_
_atom_site_type_symbol
_atom_site_label
_atom_site_fract_x
_atom_site_fract_y
_atom_site_fract_z
Si Si1 0.909196 0.787677 0.204504
Si Si2 0.747987 0.915659 0.382981
Si Si3 0.818295 0.421725 0.868009
Si Si4 0.805544 0.082783 0.239433
Si Si5 0.914204 0.355538 0.607319
Si Si6 0.839803 0.731764 0.074070
Si Si7 0.168293 0.217781 0.422083
Si Si8 0.586365 0.132749 0.243507
O O1 0.868831 0.855684 0.237304
O O2 0.886421 0.775655 0.128562
O O3 0.878822 0.713017 0.236507
O O4 0.000000 0.793821 0.212132
O O5 0.751414 0.906278 0.303385
O O6 0.667229 0.889460 0.415586
O O7 0.818698 0.866220 0.407023
O O8 0.757488 0.000000 0.396773
O O9 0.818689 0.500000 0.900571
O O10 0.738378 0.410004 0.829919
O O11 0.843009 0.353879 0.910927
O O12 0.873471 0.420962 0.805108
O O13 0.833355 0.000000 0.244167
O O14 0.897450 0.269202 0.606982
O O15 0.916911 0.385673 0.680879
O O16 0.000000 0.368473 0.578981
O O17 0.750000 0.750000 0.080564
O O18 0.864292 0.747120 0.000000
O O19 0.162495 0.227232 0.500000
O O20 0.250000 0.250000 0.398719
O O21 0.500000 0.140167 0.219198
#
# Coordination Sequence:
#
# PCOD9486333 Si02
#       8
#    16  16  16  16  16  16  16  16
#     4  10  20  34  53  76 101 135 178 224 271 315
#     4  10  20  34  54  81 112 146 181 225 279 331
#     4  10  19  32  51  76 106 139 172 209 257 317
#     4  10  19  32  51  78 108 140 176 216 269 328
#     4  10  19  32  53  82 112 141 177 224 278 330
#     4  10  20  35  54  76 101 135 178 220 264 316
#     4   9  19  35  53  74 103 145 191 228 265 318
#     4   9  18  30  48  76 106 135 168 209 261 319
#
# _framework density 19.331472000000002
#
# number of rings (size 3 to 8) (size 9 to 14) (size 15 to 20)
#    0.000    2.250    2.500    0.750    0.000    1.750 
#    0.000    1.250    0.000    1.500    0.000    8.750 
#    0.000    0.000    0.000    0.000    0.000    0.000 
#
# Total GULP energy -356271.306358 kJ/mol
# GULP energy per Si atom -5566.739162 kJ/mol
# Density = 1.928747 g / cm^3
# Si number density = 19.331472 Si / 1000 Ang^3
#
#
#
# Elastic Constant Matrix: (Units=GPa)
#
#
# Indices 1 2 3 4 5 6 
#
# 1 50.6008 32.8638 -0.6072 0.0000 0.0000 0.0000
# 2 32.8638 101.0124 -0.2627 0.0000 0.0000 0.0000
# 3 -0.6072 -0.2627 40.3101 0.0000 0.0000 0.0000
# 4 0.0000 0.0000 0.0000 14.1710 0.0000 0.0000
# 5 0.0000 0.0000 0.0000 0.0000 0.4602 0.0000
# 6 0.0000 0.0000 0.0000 0.0000 0.0000 11.5772
#
#
#
# Elastic Compliance Matrix: (Units=1/GPa)
#
#
# Indices 1 2 3 4 5 6 
#
# 1 0.025061 -0.008153 0.000324 0.000000 0.000000 0.000000
# 2 -0.008153 0.012552 -0.000041 0.000000 0.000000 0.000000
# 3 0.000324 -0.000041 0.024812 0.000000 0.000000 0.000000
# 4 0.000000 0.000000 0.000000 0.070567 0.000000 0.000000
# 5 0.000000 0.000000 0.000000 0.000000 2.172944 0.000000
# 6 0.000000 0.000000 0.000000 0.000000 0.000000 0.086377
#
#
# Mechanical properties :
#
#
# Convention : Reuss Voigt Hill
#
# Bulk Modulus (GPa) = 21.41921 28.43457 24.92689
# Shear Modulus (GPa) = 2.06303 15.90364 8.98334
#
# Velocity S-wave (km/s) = 1.03417 2.87135 2.15803
# Velocity P-wave (km/s) = 3.53978 5.07285 4.37400
#
# Compressibility (1/GPa) = 0.04668706
#
# Stress axis : x y z
#
# Youngs Moduli (GPa) = 39.90205 79.66792 40.30258
#
# Poissons Ratio (x) = 0.64951 -0.01307
# Poissons Ratio (y) = 0.32531 0.00165
# Poissons Ratio (z) = -0.01294 0.00327
#
# Static dielectric constant tensor:
#      x y z
#    x 1.702500 0.000000 0.000000 
#    y 0.000000 1.708180 0.000000 
#    z 0.000000 0.000000 1.705580 
# 
# From -- ./inp_files/70655.got.cif
#   From: 2010.05.17/outbox.cif.g08.bks.cpg/sg65_36_cif.got.tgz:70655.got - 2010.06.03 17:01:31.
