data_PCOD9486055
_publ_section_title
;
Structure prediction by ZEFSAII (Michael W. Deem and Ramdas Pophale) SiO2 
 PCOD9486055
Probable space group: C M M M
;
_chemical_formula_sum "Si O2"
_cell_formula_units_Z 96
_cell_length_a 22.184700
_cell_length_b 17.923833
_cell_length_c 18.935226
_cell_angle_alpha 90.000000
_cell_angle_beta 90.000000
_cell_angle_gamma 90.000000
_cell_volume 7529.305901
_symmetry_space_group_name_H-M "C M M M"
_symmetry_group_IT_number 65
_symmetry_cell_setting 'orthorhombic'
loop_
_space_group_symop_operation_xyz
x,y,z
-x,-y,z
x,-y,-z
-x,y,-z
-x,-y,-z
x,y,-z
-x,y,z
x,-y,z
1/2+x,1/2+y,z
1/2-x,1/2-y,z
1/2+x,1/2-y,-z
1/2-x,1/2+y,-z
1/2-x,1/2-y,-z
1/2+x,1/2+y,-z
1/2-x,1/2+y,z
1/2+x,1/2-y,z
loop_
_atom_site_type_symbol
_atom_site_label
_atom_site_fract_x
_atom_site_fract_y
_atom_site_fract_z
Si Si1 0.927837 0.587257 0.500000
Si Si2 0.928041 0.410182 0.924101
Si Si3 0.865211 0.662769 0.634624
Si Si4 0.377926 0.670690 0.584848
Si Si5 0.572615 0.089303 0.231880
Si Si6 0.000000 0.085666 0.414254
Si Si7 0.253009 0.587789 0.584058
O O1 0.910908 0.500000 0.500000
O O2 0.901489 0.625413 0.569622
O O3 0.000000 0.593133 0.500000
O O4 0.920953 0.500000 0.924181
O O5 0.906638 0.385640 0.846755
O O6 0.000000 0.396441 0.924526
O O7 0.903725 0.382223 0.000000
O O8 0.869767 0.751162 0.624080
O O9 0.894283 0.633498 0.706630
O O10 0.796886 0.634308 0.625768
O O11 0.380829 0.685495 0.500000
O O12 0.439456 0.629324 0.606117
O O13 0.320028 0.618427 0.596805
O O14 0.500000 0.099169 0.236970
O O15 0.583476 0.000000 0.239373
O O16 0.000000 0.083284 0.500000
O O17 0.000000 0.000000 0.389501
O O18 0.240772 0.597397 0.500000
O O19 0.248611 0.500000 0.599923
#
# Coordination Sequence:
#
# PCOD9486055 Si02
#       7
#     8  16  16  16  16   8  16
#     4  11  22  30  37  50  76 115 150 169 185 225
#     4   7  10  19  35  52  71  99 135 170 198 227
#     4  12  20  28  41  56  82 106 139 167 203 238
#     4  10  20  31  45  60  76  97 133 177 217 247
#     4   9  17  26  36  54  81 111 141 168 197 234
#     4   9  18  32  48  62  74  92 127 176 223 255
#     4  10  19  32  46  57  73 100 137 177 214 248
#
# _framework density 12.750178999999999
#
# number of rings (size 3 to 8) (size 9 to 14) (size 15 to 20)
#    0.000    2.333    1.667    4.500    2.333    4.667 
#    0.000    0.000    0.000    0.000    0.000    0.000 
#    0.000    2.667    0.000    0.333    0.000    3.500 
#
# Total GULP energy -267380.330974 kJ/mol
# GULP energy per Si atom -5570.423562 kJ/mol
# Density = 1.272116 g / cm^3
# Si number density = 12.750179 Si / 1000 Ang^3
#
#
#
# Elastic Constant Matrix: (Units=GPa)
#
#
# Indices 1 2 3 4 5 6 
#
# 1 74.1546 44.7189 31.4949 0.0000 0.0000 0.0000
# 2 44.7189 78.5359 29.8083 0.0000 0.0000 0.0000
# 3 31.4949 29.8083 88.5253 0.0000 0.0000 0.0000
# 4 0.0000 0.0000 0.0000 5.3454 0.0000 0.0000
# 5 0.0000 0.0000 0.0000 0.0000 4.4435 0.0000
# 6 0.0000 0.0000 0.0000 0.0000 0.0000 26.7764
#
#
#
# Elastic Compliance Matrix: (Units=1/GPa)
#
#
# Indices 1 2 3 4 5 6 
#
# 1 0.021758 -0.010836 -0.004092 0.000000 0.000000 0.000000
# 2 -0.010836 0.019995 -0.002878 0.000000 0.000000 0.000000
# 3 -0.004092 -0.002878 0.013721 0.000000 0.000000 0.000000
# 4 0.000000 0.000000 0.000000 0.187077 0.000000 0.000000
# 5 0.000000 0.000000 0.000000 0.000000 0.225047 0.000000
# 6 0.000000 0.000000 0.000000 0.000000 0.000000 0.037346
#
#
# Mechanical properties :
#
#
# Convention : Reuss Voigt Hill
#
# Bulk Modulus (GPa) = 50.34569 50.36221 50.35395
# Shear Modulus (GPa) = 9.13780 16.32597 12.73189
#
# Velocity S-wave (km/s) = 2.67999 3.58222 3.16344
# Velocity P-wave (km/s) = 7.01060 7.52959 7.27472
#
# Compressibility (1/GPa) = 0.01986267
#
# Stress axis : x y z
#
# Youngs Moduli (GPa) = 45.96007 50.01171 72.88052
#
# Poissons Ratio (x) = 0.54192 0.29824
# Poissons Ratio (y) = 0.49802 0.20973
# Poissons Ratio (z) = 0.18808 0.14392
#
# Static dielectric constant tensor:
#      x y z
#    x 1.415660 0.000000 0.000000 
#    y 0.000000 1.405910 0.000000 
#    z 0.000000 0.000000 1.418540 
# 
# From -- ./inp_files/54783.got.cif
#   From: 2010.05.17/outbox.cif.g08.bks.cpg/sg65_28_cif.got.tgz:54783.got - 2010.06.03 17:01:31.
