data_PCOD9486025
_publ_section_title
;
Structure prediction by ZEFSAII (Michael W. Deem and Ramdas Pophale) SiO2 
 PCOD9486025
Probable space group: C M M M
;
_chemical_formula_sum "Si O2"
_cell_formula_units_Z 104
_cell_length_a 19.409742
_cell_length_b 19.426144
_cell_length_c 15.499351
_cell_angle_alpha 90.000000
_cell_angle_beta 90.000000
_cell_angle_gamma 90.000000
_cell_volume 5844.130158
_symmetry_space_group_name_H-M "C M M M"
_symmetry_group_IT_number 65
_symmetry_cell_setting 'orthorhombic'
loop_
_space_group_symop_operation_xyz
x,y,z
-x,-y,z
x,-y,-z
-x,y,-z
-x,-y,-z
x,y,-z
-x,y,z
x,-y,z
1/2+x,1/2+y,z
1/2-x,1/2-y,z
1/2+x,1/2-y,-z
1/2-x,1/2+y,-z
1/2-x,1/2-y,-z
1/2+x,1/2+y,-z
1/2-x,1/2+y,z
1/2+x,1/2-y,z
loop_
_atom_site_type_symbol
_atom_site_label
_atom_site_fract_x
_atom_site_fract_y
_atom_site_fract_z
Si Si1 0.722456 0.327726 0.095643
Si Si2 0.000000 0.421311 0.897438
Si Si3 0.181173 0.797950 0.722549
Si Si4 0.370508 0.075822 0.362754
Si Si5 0.712902 0.578225 0.403619
Si Si6 0.148652 0.419467 0.842382
Si Si7 0.420753 0.221922 0.403194
O O1 0.750000 0.250000 0.088386
O O2 0.672265 0.322582 0.178517
O O3 0.787218 0.376368 0.121523
O O4 0.696268 0.347813 0.000000
O O5 0.073579 0.390935 0.870314
O O6 0.000000 0.500000 0.861239
O O7 0.000000 0.424765 0.000000
O O8 0.250000 0.750000 0.720067
O O9 0.190915 0.865396 0.664617
O O10 0.122500 0.754573 0.674578
O O11 0.295829 0.080210 0.406255
O O12 0.353417 0.081708 0.260992
O O13 0.415239 0.139662 0.392413
O O14 0.400550 0.000000 0.378503
O O15 0.686466 0.592636 0.500000
O O16 0.693660 0.500000 0.379344
O O17 0.153814 0.500000 0.870444
O O18 0.393897 0.239255 0.500000
O O19 0.500000 0.243393 0.398418
#
# Coordination Sequence:
#
# PCOD9486025 Si02
#       7
#    16   8  16  16  16  16  16
#     4  10  20  34  53  75 102 137 180 230 279 319
#     4   9  18  30  46  72 105 143 186 222 255 306
#     4  11  20  36  58  78 104 143 182 227 277 330
#     4  10  19  32  50  76 113 151 181 215 262 317
#     4  10  19  31  52  81 109 138 178 225 268 317
#     4  10  19  33  52  77 110 149 187 221 264 322
#     4  11  24  38  54  80 110 145 189 231 273 326
#
# _framework density 17.795632999999999
#
# number of rings (size 3 to 8) (size 9 to 14) (size 15 to 20)
#    0.000    1.769    3.077    2.308    1.077    2.769 
#    0.000    0.769    0.000    0.923    0.000    2.154 
#    0.000    0.000    0.000    2.769    0.923    0.154 
#
# Total GULP energy -289881.796196 kJ/mol
# GULP energy per Si atom -5574.649927 kJ/mol
# Density = 1.775513 g / cm^3
# Si number density = 17.795633 Si / 1000 Ang^3
#
#
#
# Elastic Constant Matrix: (Units=GPa)
#
#
# Indices 1 2 3 4 5 6 
#
# 1 50.9447 21.6429 33.6826 0.0000 0.0000 0.0000
# 2 21.6429 75.5877 42.9579 0.0000 0.0000 0.0000
# 3 33.6826 42.9579 137.7459 0.0000 0.0000 0.0000
# 4 0.0000 0.0000 0.0000 15.4158 0.0000 0.0000
# 5 0.0000 0.0000 0.0000 0.0000 13.2593 0.0000
# 6 0.0000 0.0000 0.0000 0.0000 0.0000 10.4146
#
#
#
# Elastic Compliance Matrix: (Units=1/GPa)
#
#
# Indices 1 2 3 4 5 6 
#
# 1 0.024562 -0.004399 -0.004634 0.000000 0.000000 0.000000
# 2 -0.004399 0.016867 -0.004185 0.000000 0.000000 0.000000
# 3 -0.004634 -0.004185 0.009698 0.000000 0.000000 0.000000
# 4 0.000000 0.000000 0.000000 0.064868 0.000000 0.000000
# 5 0.000000 0.000000 0.000000 0.000000 0.075419 0.000000
# 6 0.000000 0.000000 0.000000 0.000000 0.000000 0.096019
#
#
# Mechanical properties :
#
#
# Convention : Reuss Voigt Hill
#
# Bulk Modulus (GPa) = 40.49969 51.20501 45.85235
# Shear Modulus (GPa) = 15.52316 18.88429 17.20373
#
# Velocity S-wave (km/s) = 2.95668 3.26110 3.11262
# Velocity P-wave (km/s) = 5.87057 6.55867 6.22413
#
# Compressibility (1/GPa) = 0.02469155
#
# Stress axis : x y z
#
# Youngs Moduli (GPa) = 40.71350 59.28569 103.11468
#
# Poissons Ratio (x) = 0.26081 0.47784
# Poissons Ratio (y) = 0.17910 0.43150
# Poissons Ratio (z) = 0.18867 0.24809
#
# Static dielectric constant tensor:
#      x y z
#    x 1.604020 0.000000 0.000000 
#    y 0.000000 1.625490 0.000000 
#    z 0.000000 0.000000 1.679660 
# 
# From -- ./inp_files/44439.got.cif
#   From: 2010.05.17/outbox.cif.g08.bks.cpg/sg65_23_cif.got.tgz:44439.got - 2010.06.03 17:01:31.
