data_PCOD9486976
_publ_section_title
;
Structure prediction by ZEFSAII (Michael W. Deem and Ramdas Pophale) SiO2 
 PCOD9486976
Probable space group: C M M M
;
_chemical_formula_sum "Si O2"
_cell_formula_units_Z 88
_cell_length_a 7.665402
_cell_length_b 18.454155
_cell_length_c 29.951132
_cell_angle_alpha 90.000000
_cell_angle_beta 90.000000
_cell_angle_gamma 90.000000
_cell_volume 4236.842705
_symmetry_space_group_name_H-M "C M M M"
_symmetry_group_IT_number 65
_symmetry_cell_setting 'orthorhombic'
loop_
_space_group_symop_operation_xyz
x,y,z
-x,-y,z
x,-y,-z
-x,y,-z
-x,-y,-z
x,y,-z
-x,y,z
x,-y,z
1/2+x,1/2+y,z
1/2-x,1/2-y,z
1/2+x,1/2-y,-z
1/2-x,1/2+y,-z
1/2-x,1/2-y,-z
1/2+x,1/2+y,-z
1/2-x,1/2+y,z
1/2+x,1/2-y,z
loop_
_atom_site_type_symbol
_atom_site_label
_atom_site_fract_x
_atom_site_fract_y
_atom_site_fract_z
Si Si1 0.786179 0.583922 0.410771
Si Si2 0.206994 0.665359 0.322208
Si Si3 0.209738 0.836033 0.047968
Si Si4 0.209422 0.334855 0.500000
Si Si5 0.710331 0.664649 0.145149
Si Si6 0.708169 0.418464 0.232076
O O1 0.733893 0.500000 0.411446
O O2 0.724037 0.623912 0.365954
O O3 0.726846 0.625997 0.455064
O O4 0.000000 0.585209 0.410744
O O5 0.250000 0.750000 0.323418
O O6 0.264452 0.628499 0.276294
O O7 0.000000 0.658374 0.323616
O O8 0.250000 0.750000 0.047969
O O9 0.274698 0.861965 0.096363
O O10 0.000000 0.844792 0.047780
O O11 0.275541 0.864940 0.000000
O O12 0.250000 0.250000 0.500000
O O13 0.000000 0.342357 0.500000
O O14 0.500000 0.658339 0.144487
O O15 0.750000 0.750000 0.149909
O O16 0.778226 0.620937 0.187742
O O17 0.500000 0.423635 0.226125
O O18 0.777538 0.500000 0.237528
#
# Coordination Sequence:
#
# PCOD9486976 Si02
#       6
#    16  16  16   8  16  16
#     4   9  18  33  54  79 104 133 170 208 246 292
#     4  11  22  36  55  78 104 132 166 208 251 298
#     4   8  13  22  38  61  88 116 148 189 236 284
#     4  10  19  33  55  79 105 136 170 208 248 292
#     4   9  17  29  46  68  93 122 157 198 243 290
#     4  10  21  36  52  71  98 132 168 206 250 298
#
# _framework density 20.770184
#
# number of rings (size 3 to 8) (size 9 to 14) (size 15 to 20)
#    0.000    2.545    0.000    2.455    0.000    4.364 
#    0.000    0.909    0.000    3.818    0.000    3.818 
#    0.000    0.000    0.000   31.091    0.000   15.636 
#
# Total GULP energy -245487.381294 kJ/mol
# GULP energy per Si atom -5579.258666 kJ/mol
# Density = 2.072291 g / cm^3
# Si number density = 20.770184 Si / 1000 Ang^3
#
#
#
# Elastic Constant Matrix: (Units=GPa)
#
#
# Indices 1 2 3 4 5 6 
#
# 1 40.0616 -1.5295 7.1749 0.0000 0.0000 0.0000
# 2 -1.5295 150.6152 121.3277 0.0000 0.0000 0.0000
# 3 7.1749 121.3277 263.5406 0.0000 0.0000 0.0000
# 4 0.0000 0.0000 0.0000 -11.1234 0.0000 0.0000
# 5 0.0000 0.0000 0.0000 0.0000 13.2418 0.0000
# 6 0.0000 0.0000 0.0000 0.0000 0.0000 10.4833
#
#
#
# Elastic Compliance Matrix: (Units=1/GPa)
#
#
# Indices 1 2 3 4 5 6 
#
# 1 0.025240 0.001287 -0.001280 0.000000 0.000000 0.000000
# 2 0.001287 0.010619 -0.004924 0.000000 0.000000 0.000000
# 3 -0.001280 -0.004924 0.006096 0.000000 0.000000 0.000000
# 4 0.000000 0.000000 0.000000 -0.089901 0.000000 0.000000
# 5 0.000000 0.000000 0.000000 0.000000 0.075519 0.000000
# 6 0.000000 0.000000 0.000000 0.000000 0.000000 0.095390
#
#
# Mechanical properties :
#
#
# Convention : Reuss Voigt Hill
#
# Bulk Modulus (GPa) = 31.13102 78.68484 54.90793
# Shear Modulus (GPa) = 34.84273 24.33664 29.58968
#
# Velocity S-wave (km/s) = 4.10022 3.42674 3.77851
# Velocity P-wave (km/s) = 6.11854 7.32274 6.74756
#
# Compressibility (1/GPa) = 0.03212230
#
# Stress axis : x y z
#
# Youngs Moduli (GPa) = 39.61983 94.17301 164.04047
#
# Poissons Ratio (x) = -0.12122 0.20993
# Poissons Ratio (y) = -0.05100 0.80768
# Poissons Ratio (z) = 0.05070 0.46368
#
# Static dielectric constant tensor:
#      x y z
#    x 1.787900 0.000000 0.000000 
#    y 0.000000 1.699430 0.000000 
#    z 0.000000 0.000000 1.777780 
# 
# From -- ./inp_files/76567.got.cif
#   From: 2010.05.17/outbox.cif.g08.bks.cpg/sg65_39_cif.got.tgz:76567.got - 2010.06.03 17:01:31.
