data_PCOD9486910
_publ_section_title
;
Structure prediction by ZEFSAII (Michael W. Deem and Ramdas Pophale) SiO2 
 PCOD9486910
Probable space group: C M M M
;
_chemical_formula_sum "Si O2"
_cell_formula_units_Z 104
_cell_length_a 8.849435
_cell_length_b 19.965821
_cell_length_c 34.045738
_cell_angle_alpha 90.000000
_cell_angle_beta 90.000000
_cell_angle_gamma 90.000000
_cell_volume 6015.413271
_symmetry_space_group_name_H-M "C M M M"
_symmetry_group_IT_number 65
_symmetry_cell_setting 'orthorhombic'
loop_
_space_group_symop_operation_xyz
x,y,z
-x,-y,z
x,-y,-z
-x,y,-z
-x,-y,-z
x,y,-z
-x,y,z
x,-y,z
1/2+x,1/2+y,z
1/2-x,1/2-y,z
1/2+x,1/2-y,-z
1/2-x,1/2+y,-z
1/2-x,1/2-y,-z
1/2+x,1/2+y,-z
1/2-x,1/2+y,z
1/2+x,1/2-y,z
loop_
_atom_site_type_symbol
_atom_site_label
_atom_site_fract_x
_atom_site_fract_y
_atom_site_fract_z
Si Si1 0.817885 0.174896 0.086476
Si Si2 0.681155 0.324069 0.000000
Si Si3 0.819095 0.578486 0.152069
Si Si4 0.819704 0.322936 0.608124
Si Si5 0.318198 0.421723 0.455308
Si Si6 0.319917 0.578753 0.762808
Si Si7 0.181125 0.323371 0.698633
O O1 0.750000 0.250000 0.090099
O O2 0.752400 0.126622 0.119605
O O3 0.000000 0.178670 0.089419
O O4 0.776633 0.147252 0.042674
O O5 0.750000 0.250000 0.000000
O O6 0.500000 0.319237 0.000000
O O7 0.783256 0.500000 0.144259
O O8 0.753014 0.594982 0.195005
O O9 0.000000 0.585766 0.152468
O O10 0.750000 0.250000 0.600271
O O11 0.756992 0.375823 0.577224
O O12 0.781094 0.341032 0.653320
O O13 0.000000 0.318849 0.605260
O O14 0.274379 0.402932 0.500000
O O15 0.500000 0.415935 0.452703
O O16 0.279943 0.500000 0.449713
O O17 0.500000 0.588712 0.764709
O O18 0.290752 0.500000 0.755181
O O19 0.249120 0.623933 0.728938
O O20 0.250000 0.250000 0.706277
O O21 0.000000 0.320749 0.702323
#
# Coordination Sequence:
#
# PCOD9486910 Si02
#       7
#    16   8  16  16  16  16  16
#     4  10  19  33  54  79 106 136 174 216 259 309
#     4   8  16  30  49  74 103 135 169 211 259 304
#     4  10  21  37  55  76 105 139 174 215 262 308
#     4  10  21  36  55  79 107 140 176 215 260 310
#     4   9  19  36  56  78 106 140 177 218 263 309
#     4  10  21  37  57  80 105 136 174 213 257 311
#     4  10  21  37  56  79 108 139 173 215 261 308
#
# _framework density 17.288919
#
# number of rings (size 3 to 8) (size 9 to 14) (size 15 to 20)
#    0.000    2.308    0.000    2.769    0.000    6.462 
#    0.000    7.308    0.000    2.308    0.000    0.000 
#    0.000    0.000    0.000    0.000    0.000    0.000 
#
# Total GULP energy -290112.305888 kJ/mol
# GULP energy per Si atom -5579.082806 kJ/mol
# Density = 1.724957 g / cm^3
# Si number density = 17.288919 Si / 1000 Ang^3
#
#
#
# Elastic Constant Matrix: (Units=GPa)
#
#
# Indices 1 2 3 4 5 6 
#
# 1 66.2091 58.5475 78.2988 0.0000 0.0000 0.0000
# 2 58.5475 94.9940 118.9317 0.0000 0.0000 0.0000
# 3 78.2988 118.9317 186.0717 0.0000 0.0000 0.0000
# 4 0.0000 0.0000 0.0000 51.2502 0.0000 0.0000
# 5 0.0000 0.0000 0.0000 0.0000 30.6764 0.0000
# 6 0.0000 0.0000 0.0000 0.0000 0.0000 31.0027
#
#
#
# Elastic Compliance Matrix: (Units=1/GPa)
#
#
# Indices 1 2 3 4 5 6 
#
# 1 0.033953 -0.015210 -0.004565 0.000000 0.000000 0.000000
# 2 -0.015210 0.059511 -0.031637 0.000000 0.000000 0.000000
# 3 -0.004565 -0.031637 0.027517 0.000000 0.000000 0.000000
# 4 0.000000 0.000000 0.000000 0.019512 0.000000 0.000000
# 5 0.000000 0.000000 0.000000 0.000000 0.032598 0.000000
# 6 0.000000 0.000000 0.000000 0.000000 0.000000 0.032255
#
#
# Mechanical properties :
#
#
# Convention : Reuss Voigt Hill
#
# Bulk Modulus (GPa) = 55.08107 95.42564 75.25336
# Shear Modulus (GPa) = 15.91219 28.68565 22.29892
#
# Velocity S-wave (km/s) = 3.03705 4.07774 3.59525
# Velocity P-wave (km/s) = 6.65031 8.80256 7.80102
#
# Compressibility (1/GPa) = 0.01815506
#
# Stress axis : x y z
#
# Youngs Moduli (GPa) = 29.45260 16.80354 36.34114
#
# Poissons Ratio (x) = 0.25559 0.16591
# Poissons Ratio (y) = 0.44799 1.14974
# Poissons Ratio (z) = 0.13446 0.53162
#
# Static dielectric constant tensor:
#      x y z
#    x 1.577710 0.000000 0.000000 
#    y 0.000000 1.550850 0.000000 
#    z 0.000000 0.000000 1.585630 
# 
# From -- ./inp_files/73346.got.cif
#   From: 2010.05.17/outbox.cif.g08.bks.cpg/sg65_37_cif.got.tgz:73346.got - 2010.06.03 17:01:31.
