data_PCOD9486929
_publ_section_title
;
Structure prediction by ZEFSAII (Michael W. Deem and Ramdas Pophale) SiO2 
 PCOD9486929
Probable space group: C M M M
;
_chemical_formula_sum "Si O2"
_cell_formula_units_Z 104
_cell_length_a 18.869761
_cell_length_b 10.472152
_cell_length_c 29.987522
_cell_angle_alpha 90.000000
_cell_angle_beta 90.000000
_cell_angle_gamma 90.000000
_cell_volume 5925.744422
_symmetry_space_group_name_H-M "C M M M"
_symmetry_group_IT_number 65
_symmetry_cell_setting 'orthorhombic'
loop_
_space_group_symop_operation_xyz
x,y,z
-x,-y,z
x,-y,-z
-x,y,-z
-x,-y,-z
x,y,-z
-x,y,z
x,-y,z
1/2+x,1/2+y,z
1/2-x,1/2-y,z
1/2+x,1/2-y,-z
1/2-x,1/2+y,-z
1/2-x,1/2-y,-z
1/2+x,1/2+y,-z
1/2-x,1/2+y,z
1/2+x,1/2-y,z
loop_
_atom_site_type_symbol
_atom_site_label
_atom_site_fract_x
_atom_site_fract_y
_atom_site_fract_z
Si Si1 0.197338 0.862624 0.051636
Si Si2 0.414284 0.000000 0.050689
Si Si3 0.583756 0.251971 0.107254
Si Si4 0.080245 0.346130 0.629669
Si Si5 0.187007 0.650069 0.552692
Si Si6 0.918124 0.349259 0.796043
Si Si7 0.816483 0.346287 0.711650
O O1 0.250000 0.750000 0.063499
O O2 0.131044 0.857676 0.084223
O O3 0.233551 0.000000 0.054824
O O4 0.174826 0.844951 0.000000
O O5 0.397307 0.874736 0.078916
O O6 0.500000 0.000000 0.047384
O O7 0.386221 0.000000 0.000000
O O8 0.500000 0.274513 0.102784
O O9 0.598765 0.227947 0.159182
O O10 0.074899 0.500000 0.631722
O O11 0.120099 0.316423 0.583513
O O12 0.132274 0.311812 0.670213
O O13 0.000000 0.295204 0.632966
O O14 0.171080 0.659246 0.500000
O O15 0.206065 0.500000 0.561711
O O16 0.250000 0.750000 0.562534
O O17 0.916349 0.500000 0.807797
O O18 0.863310 0.328743 0.756261
O O19 0.000000 0.321815 0.782517
O O20 0.798523 0.500000 0.708472
O O21 0.750000 0.250000 0.711826
#
# Coordination Sequence:
#
# PCOD9486929 Si02
#       7
#    16   8  16  16  16  16  16
#     4  10  23  40  56  76 104 138 171 206 250 299
#     4   9  16  26  46  78 106 128 157 195 238 286
#     4  10  19  33  54  80 106 132 165 206 250 297
#     4   9  17  30  50  76 102 131 174 221 263 308
#     4   9  17  29  47  72 103 139 176 217 263 310
#     4   9  17  32  53  77 104 133 168 208 250 298
#     4  10  20  34  54  77 101 133 170 214 259 308
#
# _framework density 17.550539000000001
#
# number of rings (size 3 to 8) (size 9 to 14) (size 15 to 20)
#    0.000    2.538    0.769    1.385    1.077    4.000 
#    0.000    4.615    0.000    4.154    0.000    2.154 
#    0.000    0.000    0.000    0.000    0.000    0.000 
#
# Total GULP energy -289812.383611 kJ/mol
# GULP energy per Si atom -5573.315069 kJ/mol
# Density = 1.751059 g / cm^3
# Si number density = 17.550539 Si / 1000 Ang^3
#
#
#
# Elastic Constant Matrix: (Units=GPa)
#
#
# Indices 1 2 3 4 5 6 
#
# 1 119.4214 55.4197 71.9914 0.0000 0.0000 0.0000
# 2 55.4197 77.2893 39.5437 0.0000 0.0000 0.0000
# 3 71.9914 39.5437 82.5597 0.0000 0.0000 0.0000
# 4 0.0000 0.0000 0.0000 13.4967 0.0000 0.0000
# 5 0.0000 0.0000 0.0000 0.0000 24.2296 0.0000
# 6 0.0000 0.0000 0.0000 0.0000 0.0000 29.0302
#
#
#
# Elastic Compliance Matrix: (Units=1/GPa)
#
#
# Indices 1 2 3 4 5 6 
#
# 1 0.020353 -0.007304 -0.014250 0.000000 0.000000 0.000000
# 2 -0.007304 0.019759 -0.003095 0.000000 0.000000 0.000000
# 3 -0.014250 -0.003095 0.026021 0.000000 0.000000 0.000000
# 4 0.000000 0.000000 0.000000 0.074092 0.000000 0.000000
# 5 0.000000 0.000000 0.000000 0.000000 0.041272 0.000000
# 6 0.000000 0.000000 0.000000 0.000000 0.000000 0.034447
#
#
# Mechanical properties :
#
#
# Convention : Reuss Voigt Hill
#
# Bulk Modulus (GPa) = 59.39746 68.13111 63.76429
# Shear Modulus (GPa) = 18.46020 20.83900 19.64960
#
# Velocity S-wave (km/s) = 3.24671 3.44956 3.34967
# Velocity P-wave (km/s) = 6.92618 7.40069 7.16736
#
# Compressibility (1/GPa) = 0.01683574
#
# Stress axis : x y z
#
# Youngs Moduli (GPa) = 49.13217 50.60966 38.43101
#
# Poissons Ratio (x) = 0.36963 0.54763
# Poissons Ratio (y) = 0.35884 0.11896
# Poissons Ratio (z) = 0.70012 0.15666
#
# Static dielectric constant tensor:
#      x y z
#    x 1.599900 0.000000 0.000000 
#    y 0.000000 1.616660 0.000000 
#    z 0.000000 0.000000 1.590490 
# 
# From -- ./inp_files/75204.got.cif
#   From: 2010.05.17/outbox.cif.g08.bks.cpg/sg65_38_cif.got.tgz:75204.got - 2010.06.03 17:01:31.
