data_PCOD9486400
_publ_section_title
;
Structure prediction by ZEFSAII (Michael W. Deem and Ramdas Pophale) SiO2 
 PCOD9486400
Probable space group: C M M M
;
_chemical_formula_sum "Si O2"
_cell_formula_units_Z 104
_cell_length_a 14.839025
_cell_length_b 19.127717
_cell_length_c 20.116630
_cell_angle_alpha 90.000000
_cell_angle_beta 90.000000
_cell_angle_gamma 90.000000
_cell_volume 5709.837286
_symmetry_space_group_name_H-M "C M M M"
_symmetry_group_IT_number 65
_symmetry_cell_setting 'orthorhombic'
loop_
_space_group_symop_operation_xyz
x,y,z
-x,-y,z
x,-y,-z
-x,y,-z
-x,-y,-z
x,y,-z
-x,y,z
x,-y,z
1/2+x,1/2+y,z
1/2-x,1/2-y,z
1/2+x,1/2-y,-z
1/2-x,1/2+y,-z
1/2-x,1/2-y,-z
1/2+x,1/2+y,-z
1/2-x,1/2+y,z
1/2+x,1/2-y,z
loop_
_atom_site_type_symbol
_atom_site_label
_atom_site_fract_x
_atom_site_fract_y
_atom_site_fract_z
Si Si1 0.603147 0.359826 0.079500
Si Si2 0.393271 0.204882 0.701425
Si Si3 0.730988 0.077532 0.707657
Si Si4 0.220805 0.423538 0.132901
Si Si5 0.607284 0.644797 0.358702
Si Si6 0.609087 0.580693 0.500000
Si Si7 0.106700 0.709461 0.141501
O O1 0.500000 0.374739 0.100898
O O2 0.677793 0.410915 0.108675
O O3 0.626456 0.281787 0.104637
O O4 0.606004 0.361919 0.000000
O O5 0.500000 0.189654 0.696436
O O6 0.333916 0.138538 0.681077
O O7 0.374123 0.274531 0.659487
O O8 0.373479 0.219416 0.779697
O O9 0.719691 0.076564 0.787030
O O10 0.832740 0.097970 0.689815
O O11 0.709647 0.000000 0.682099
O O12 0.188309 0.500000 0.110087
O O13 0.161075 0.356614 0.113599
O O14 0.500000 0.633664 0.350204
O O15 0.633857 0.621756 0.433060
O O16 0.641423 0.500000 0.500000
O O17 0.500000 0.577607 0.500000
O O18 0.000000 0.695789 0.135659
#
# Coordination Sequence:
#
# PCOD9486400 Si02
#       7
#    16  16  16  16  16   8  16
#     4  10  21  36  53  72  96 130 169 205 245 297
#     4   9  18  33  53  75 100 131 166 205 246 290
#     4  10  20  33  50  74 104 134 164 201 246 297
#     4  10  21  34  50  75 103 131 163 201 248 298
#     4  10  19  32  52  76 101 130 165 206 250 293
#     4   9  18  32  49  72 104 138 169 203 248 300
#     4   9  18  34  55  76  98 127 165 207 248 292
#
# _framework density 18.214179000000001
#
# number of rings (size 3 to 8) (size 9 to 14) (size 15 to 20)
#    0.000    2.385    0.000    2.308    0.000    7.692 
#    0.000    6.923    0.000    0.000    0.000    3.231 
#    0.000    4.923    0.000    0.000    0.000    0.000 
#
# Total GULP energy -290062.280667 kJ/mol
# GULP energy per Si atom -5578.120782 kJ/mol
# Density = 1.817272 g / cm^3
# Si number density = 18.214179 Si / 1000 Ang^3
#
#
#
# Elastic Constant Matrix: (Units=GPa)
#
#
# Indices 1 2 3 4 5 6 
#
# 1 34.8932 31.6035 7.3924 0.0000 0.0000 0.0000
# 2 31.6035 90.6309 19.9223 0.0000 0.0000 0.0000
# 3 7.3924 19.9223 8.6883 0.0000 0.0000 0.0000
# 4 0.0000 0.0000 0.0000 -51.0369 0.0000 0.0000
# 5 0.0000 0.0000 0.0000 0.0000 15.1963 0.0000
# 6 0.0000 0.0000 0.0000 0.0000 0.0000 17.1931
#
#
#
# Elastic Compliance Matrix: (Units=1/GPa)
#
#
# Indices 1 2 3 4 5 6 
#
# 1 0.041969 -0.013681 -0.004338 0.000000 0.000000 0.000000
# 2 -0.013681 0.026707 -0.049600 0.000000 0.000000 0.000000
# 3 -0.004338 -0.049600 0.232521 0.000000 0.000000 0.000000
# 4 0.000000 0.000000 0.000000 -0.019594 0.000000 0.000000
# 5 0.000000 0.000000 0.000000 0.000000 0.065805 0.000000
# 6 0.000000 0.000000 0.000000 0.000000 0.000000 0.058163
#
#
# Mechanical properties :
#
#
# Convention : Reuss Voigt Hill
#
# Bulk Modulus (GPa) = 6.02555 28.00545 17.01550
# Shear Modulus (GPa) = 8.38741 1.29011 4.83876
#
# Velocity S-wave (km/s) = 2.14823 0.84252 1.63167
# Velocity P-wave (km/s) = 3.07710 4.04419 3.59333
#
# Compressibility (1/GPa) = 0.16595988
#
# Stress axis : x y z
#
# Youngs Moduli (GPa) = 23.82684 37.44270 4.30068
#
# Poissons Ratio (x) = 0.51227 0.01866
# Poissons Ratio (y) = 0.32598 0.21331
# Poissons Ratio (z) = 0.10336 1.85715
#
# Static dielectric constant tensor:
#      x y z
#    x 1.631610 0.000000 0.000000 
#    y 0.000000 1.634540 0.000000 
#    z 0.000000 0.000000 1.614370 
# 
# From -- ./inp_files/62817.got.cif
#   From: 2010.05.17/outbox.cif.g08.bks.cpg/sg65_32_cif.got.tgz:62817.got - 2010.06.03 17:01:31.
