data_PCOD9486247
_publ_section_title
;
Structure prediction by ZEFSAII (Michael W. Deem and Ramdas Pophale) SiO2 
 PCOD9486247
Probable space group: C M M M
;
_chemical_formula_sum "Si O2"
_cell_formula_units_Z 80
_cell_length_a 18.744143
_cell_length_b 8.076808
_cell_length_c 26.782449
_cell_angle_alpha 90.000000
_cell_angle_beta 90.000000
_cell_angle_gamma 90.000000
_cell_volume 4054.671127
_symmetry_space_group_name_H-M "C M M M"
_symmetry_group_IT_number 65
_symmetry_cell_setting 'orthorhombic'
loop_
_space_group_symop_operation_xyz
x,y,z
-x,-y,z
x,-y,-z
-x,y,-z
-x,-y,-z
x,y,-z
-x,y,z
x,-y,z
1/2+x,1/2+y,z
1/2-x,1/2-y,z
1/2+x,1/2-y,-z
1/2-x,1/2+y,-z
1/2-x,1/2-y,-z
1/2+x,1/2+y,-z
1/2-x,1/2+y,z
1/2+x,1/2-y,z
loop_
_atom_site_type_symbol
_atom_site_label
_atom_site_fract_x
_atom_site_fract_y
_atom_site_fract_z
Si Si1 0.332160 0.697291 0.596573
Si Si2 0.832423 0.699782 0.901547
Si Si3 0.917382 0.297359 0.000000
Si Si4 0.832353 0.302799 0.293302
Si Si5 0.582033 0.296939 0.500000
Si Si6 0.917687 0.702856 0.196642
O O1 0.334387 0.500000 0.595429
O O2 0.250000 0.750000 0.590998
O O3 0.357016 0.750899 0.651529
O O4 0.377978 0.760535 0.550022
O O5 0.835202 0.500000 0.901554
O O6 0.750000 0.750000 0.902856
O O7 0.875327 0.757138 0.950513
O O8 0.871861 0.757139 0.851188
O O9 0.917550 0.500000 0.000000
O O10 0.000000 0.245169 0.000000
O O11 0.833762 0.500000 0.291630
O O12 0.750000 0.250000 0.287149
O O13 0.880490 0.239767 0.247802
O O14 0.583834 0.500000 0.500000
O O15 0.500000 0.246424 0.500000
O O16 0.917243 0.500000 0.196786
O O17 0.000000 0.754364 0.193108
#
# Coordination Sequence:
#
# PCOD9486247 Si02
#       6
#    16  16   8  16   8  16
#     4  10  19  33  54  75  98 128 162 200 239 286
#     4  10  19  32  52  75 100 130 165 206 247 291
#     4   9  17  30  51  77 100 127 168 210 244 287
#     4  10  19  32  51  73  98 127 161 201 242 288
#     4   9  19  34  51  73 100 129 160 196 242 291
#     4   9  18  32  50  72  98 130 166 203 244 288
#
# _framework density 19.730329999999999
#
# number of rings (size 3 to 8) (size 9 to 14) (size 15 to 20)
#    0.000    2.400    0.000    4.200    0.000    3.200 
#    0.000    2.500    0.000   11.400    0.000    0.000 
#    0.000    0.000    0.000    0.000    0.000    0.000 
#
# Total GULP energy -223328.543901 kJ/mol
# GULP energy per Si atom -5583.213598 kJ/mol
# Density = 1.968542 g / cm^3
# Si number density = 19.730330 Si / 1000 Ang^3
#
#
#
# Elastic Constant Matrix: (Units=GPa)
#
#
# Indices 1 2 3 4 5 6 
#
# 1 166.2262 6.8844 143.3869 0.0000 0.0000 0.0000
# 2 6.8844 20.2664 16.9006 0.0000 0.0000 0.0000
# 3 143.3869 16.9006 242.3206 0.0000 0.0000 0.0000
# 4 0.0000 0.0000 0.0000 5.3198 0.0000 0.0000
# 5 0.0000 0.0000 0.0000 0.0000 14.4972 0.0000
# 6 0.0000 0.0000 0.0000 0.0000 0.0000 20.1474
#
#
#
# Elastic Compliance Matrix: (Units=1/GPa)
#
#
# Indices 1 2 3 4 5 6 
#
# 1 0.012365 0.002019 -0.007458 0.000000 0.000000 0.000000
# 2 0.002019 0.052719 -0.004871 0.000000 0.000000 0.000000
# 3 -0.007458 -0.004871 0.008879 0.000000 0.000000 0.000000
# 4 0.000000 0.000000 0.000000 0.187979 0.000000 0.000000
# 5 0.000000 0.000000 0.000000 0.000000 0.068979 0.000000
# 6 0.000000 0.000000 0.000000 0.000000 0.000000 0.049634
#
#
# Mechanical properties :
#
#
# Convention : Reuss Voigt Hill
#
# Bulk Modulus (GPa) = 18.74648 84.79522 51.77085
# Shear Modulus (GPa) = 11.93438 25.43561 18.68500
#
# Velocity S-wave (km/s) = 2.46209 3.59439 3.08071
# Velocity P-wave (km/s) = 4.19577 7.76509 6.24103
#
# Compressibility (1/GPa) = 0.05334335
#
# Stress axis : x y z
#
# Youngs Moduli (GPa) = 80.87209 18.96833 112.62095
#
# Poissons Ratio (x) = -0.03829 0.83988
# Poissons Ratio (y) = -0.16325 0.54862
# Poissons Ratio (z) = 0.60311 0.09240
#
# Static dielectric constant tensor:
#      x y z
#    x 1.653450 0.000000 0.000000 
#    y 0.000000 1.710280 0.000000 
#    z 0.000000 0.000000 1.698460 
# 
# From -- ./inp_files/75116.got.cif
#   From: 2010.05.17/outbox.cif.g08.bks.cpg/sg65_38_cif.got.tgz:75116.got - 2010.06.03 17:01:31.
