data_PCOD9486065
_publ_section_title
;
Structure prediction by ZEFSAII (Michael W. Deem and Ramdas Pophale) SiO2 
 PCOD9486065
Probable space group: C M M M
;
_chemical_formula_sum "Si O2"
_cell_formula_units_Z 72
_cell_length_a 15.217281
_cell_length_b 39.720252
_cell_length_c 7.691748
_cell_angle_alpha 90.000000
_cell_angle_beta 90.000000
_cell_angle_gamma 90.000000
_cell_volume 4649.155826
_symmetry_space_group_name_H-M "C M M M"
_symmetry_group_IT_number 65
_symmetry_cell_setting 'orthorhombic'
loop_
_space_group_symop_operation_xyz
x,y,z
-x,-y,z
x,-y,-z
-x,y,-z
-x,-y,-z
x,y,-z
-x,y,z
x,-y,z
1/2+x,1/2+y,z
1/2-x,1/2-y,z
1/2+x,1/2-y,-z
1/2-x,1/2+y,-z
1/2-x,1/2-y,-z
1/2+x,1/2+y,-z
1/2-x,1/2+y,z
1/2+x,1/2-y,z
loop_
_atom_site_type_symbol
_atom_site_label
_atom_site_fract_x
_atom_site_fract_y
_atom_site_fract_z
Si Si1 0.500000 0.724177 0.702113
Si Si2 0.680460 0.838223 0.200342
Si Si3 0.000000 0.304900 0.701805
Si Si4 0.393669 0.961801 0.500000
Si Si5 0.395093 0.091029 0.792695
Si Si6 0.808146 0.780851 0.297842
O O1 0.500000 0.712245 0.500000
O O2 0.500000 0.764717 0.706184
O O3 0.405382 0.714308 0.779710
O O4 0.587508 0.819088 0.212888
O O5 0.659527 0.875958 0.262132
O O6 0.751485 0.814733 0.291993
O O7 0.707271 0.840502 0.000000
O O8 0.000000 0.315520 0.500000
O O9 0.500000 0.963649 0.500000
O O10 0.370471 0.940350 0.328441
O O11 0.359907 0.000000 0.500000
O O12 0.500000 0.097880 0.767645
O O13 0.383057 0.085313 0.000000
O O14 0.823495 0.771129 0.500000
O O15 0.750000 0.750000 0.221821
#
# Coordination Sequence:
#
# PCOD9486065 Si02
#       6
#     8  16   8   8  16  16
#     4   9  18  33  45  63  87 111 154 203 242 280
#     4  11  21  31  43  67  93 117 153 199 241 275
#     4  11  19  29  49  65  81 116 156 199 239 276
#     4   9  18  30  46  68  91 121 157 183 215 270
#     4   9  18  30  44  65  93 121 151 191 231 266
#     4  10  19  32  48  64  84 117 158 196 238 282
#
# _framework density 15.486682999999999
#
# number of rings (size 3 to 8) (size 9 to 14) (size 15 to 20)
#    0.000    2.111    3.333    1.000    3.111    0.889 
#    0.000    2.778    0.000    0.000    0.000    0.000 
#    0.000    0.000    0.000    2.000    0.000    8.889 
#
# Total GULP energy -200612.920641 kJ/mol
# GULP energy per Si atom -5572.581129 kJ/mol
# Density = 1.545143 g / cm^3
# Si number density = 15.486683 Si / 1000 Ang^3
#
#
#
# Elastic Constant Matrix: (Units=GPa)
#
#
# Indices 1 2 3 4 5 6 
#
# 1 102.2437 39.2936 11.7872 0.0000 0.0000 0.0000
# 2 39.2936 102.9752 27.7049 0.0000 0.0000 0.0000
# 3 11.7872 27.7049 40.2096 0.0000 0.0000 0.0000
# 4 0.0000 0.0000 0.0000 33.7755 0.0000 0.0000
# 5 0.0000 0.0000 0.0000 0.0000 -8.2849 0.0000
# 6 0.0000 0.0000 0.0000 0.0000 0.0000 5.2586
#
#
#
# Elastic Compliance Matrix: (Units=1/GPa)
#
#
# Indices 1 2 3 4 5 6 
#
# 1 0.011467 -0.004261 -0.000426 0.000000 0.000000 0.000000
# 2 -0.004261 0.013504 -0.008056 0.000000 0.000000 0.000000
# 3 -0.000426 -0.008056 0.030545 0.000000 0.000000 0.000000
# 4 0.000000 0.000000 0.000000 0.029607 0.000000 0.000000
# 5 0.000000 0.000000 0.000000 0.000000 -0.120701 0.000000
# 6 0.000000 0.000000 0.000000 0.000000 0.000000 0.190163
#
#
# Mechanical properties :
#
#
# Convention : Reuss Voigt Hill
#
# Bulk Modulus (GPa) = 33.29801 44.77777 39.03789
# Shear Modulus (GPa) = 26.30454 17.25936 21.78195
#
# Velocity S-wave (km/s) = 4.12579 3.34198 3.75440
# Velocity P-wave (km/s) = 6.65161 6.62331 6.63748
#
# Compressibility (1/GPa) = 0.03003183
#
# Stress axis : x y z
#
# Youngs Moduli (GPa) = 87.20481 74.05002 32.73885
#
# Poissons Ratio (x) = 0.31554 0.01393
# Poissons Ratio (y) = 0.37160 0.26373
# Poissons Ratio (z) = 0.03711 0.59651
#
# Static dielectric constant tensor:
#      x y z
#    x 1.527050 0.000000 0.000000 
#    y 0.000000 1.504690 0.000000 
#    z 0.000000 0.000000 1.556260 
# 
# From -- ./inp_files/7734.got.cif
#   From: 2010.05.17/outbox.cif.g08.bks.cpg/sg65_4_cif.got.tgz:7734.got - 2010.06.03 17:01:31.
