data_PCOD9486432
_publ_section_title
;
Structure prediction by ZEFSAII (Michael W. Deem and Ramdas Pophale) SiO2 
 PCOD9486432
Probable space group: C M M M
;
_chemical_formula_sum "Si O2"
_cell_formula_units_Z 104
_cell_length_a 14.791722
_cell_length_b 15.685805
_cell_length_c 23.391035
_cell_angle_alpha 90.000000
_cell_angle_beta 90.000000
_cell_angle_gamma 90.000000
_cell_volume 5427.189506
_symmetry_space_group_name_H-M "C M M M"
_symmetry_group_IT_number 65
_symmetry_cell_setting 'orthorhombic'
loop_
_space_group_symop_operation_xyz
x,y,z
-x,-y,z
x,-y,-z
-x,y,-z
-x,-y,-z
x,y,-z
-x,y,z
x,-y,z
1/2+x,1/2+y,z
1/2-x,1/2-y,z
1/2+x,1/2-y,-z
1/2-x,1/2+y,-z
1/2-x,1/2-y,-z
1/2+x,1/2+y,-z
1/2-x,1/2+y,z
1/2+x,1/2-y,z
loop_
_atom_site_type_symbol
_atom_site_label
_atom_site_fract_x
_atom_site_fract_y
_atom_site_fract_z
Si Si1 0.900399 0.099898 0.852047
Si Si2 0.895953 0.359658 0.768314
Si Si3 0.100573 0.835042 0.272915
Si Si4 0.897693 0.603889 0.434284
Si Si5 0.604216 0.895858 0.000000
Si Si6 0.268847 0.097493 0.665102
Si Si7 0.206887 0.603745 0.885597
O O1 0.886809 0.107403 0.783709
O O2 0.810254 0.136240 0.880879
O O3 0.000000 0.138060 0.864787
O O4 0.904508 0.000000 0.866999
O O5 0.895694 0.260512 0.751062
O O6 0.837001 0.403100 0.718988
O O7 0.848408 0.370877 0.829224
O O8 0.000000 0.389394 0.769902
O O9 0.180581 0.851279 0.316640
O O10 0.000000 0.850961 0.296243
O O11 0.879988 0.628256 0.500000
O O12 0.897579 0.500000 0.432262
O O13 0.824422 0.633272 0.388618
O O14 0.000000 0.630891 0.418795
O O15 0.656311 0.868586 0.057105
O O16 0.500000 0.868121 0.000000
O O17 0.603874 0.000000 0.000000
O O18 0.241921 0.000000 0.652839
O O19 0.210224 0.500000 0.885640
#
# Coordination Sequence:
#
# PCOD9486432 Si02
#       7
#    16  16  16  16   8  16  16
#     4   9  17  31  51  73  97 129 173 218 256 302
#     4  11  22  33  49  75 107 138 168 212 263 315
#     4  10  21  35  50  71 103 142 176 210 260 313
#     4   8  15  29  49  75 109 143 171 208 262 316
#     4   9  18  32  49  72 105 139 171 211 265 330
#     4  11  20  31  52  81 106 132 173 219 259 306
#     4  10  19  32  52  77 103 136 173 215 266 319
#
# _framework density 19.162773000000001
#
# number of rings (size 3 to 8) (size 9 to 14) (size 15 to 20)
#    0.000    2.231    1.538    2.769    0.000    3.385 
#    0.000    0.385    0.000    6.462    0.000    7.538 
#    0.000    0.000    0.000    0.000    0.000    0.000 
#
# Total GULP energy -290203.698282 kJ/mol
# GULP energy per Si atom -5580.840352 kJ/mol
# Density = 1.911916 g / cm^3
# Si number density = 19.162773 Si / 1000 Ang^3
#
#
#
# Elastic Constant Matrix: (Units=GPa)
#
#
# Indices 1 2 3 4 5 6 
#
# 1 207.8880 17.6726 101.9691 0.0000 0.0000 0.0000
# 2 17.6726 21.8324 6.0829 0.0000 0.0000 0.0000
# 3 101.9691 6.0829 118.7809 0.0000 0.0000 0.0000
# 4 0.0000 0.0000 0.0000 0.3902 0.0000 0.0000
# 5 0.0000 0.0000 0.0000 0.0000 37.6412 0.0000
# 6 0.0000 0.0000 0.0000 0.0000 0.0000 36.6864
#
#
#
# Elastic Compliance Matrix: (Units=1/GPa)
#
#
# Indices 1 2 3 4 5 6 
#
# 1 0.008838 -0.005113 -0.007325 0.000000 0.000000 0.000000
# 2 -0.005113 0.049425 0.001858 0.000000 0.000000 0.000000
# 3 -0.007325 0.001858 0.014612 0.000000 0.000000 0.000000
# 4 0.000000 0.000000 0.000000 2.562762 0.000000 0.000000
# 5 0.000000 0.000000 0.000000 0.000000 0.026567 0.000000
# 6 0.000000 0.000000 0.000000 0.000000 0.000000 0.027258
#
#
# Mechanical properties :
#
#
# Convention : Reuss Voigt Hill
#
# Bulk Modulus (GPa) = 19.33687 66.66118 42.99902
# Shear Modulus (GPa) = 1.83294 29.79534 15.81414
#
# Velocity S-wave (km/s) = 0.97907 3.94744 2.87584
# Velocity P-wave (km/s) = 3.37504 7.45914 5.78920
#
# Compressibility (1/GPa) = 0.05171468
#
# Stress axis : x y z
#
# Youngs Moduli (GPa) = 113.14804 20.23285 68.43621
#
# Poissons Ratio (x) = 0.10345 0.50131
# Poissons Ratio (y) = 0.57854 -0.12718
# Poissons Ratio (z) = 0.82884 -0.03760
#
# Static dielectric constant tensor:
#      x y z
#    x 1.689580 0.000000 0.000000 
#    y 0.000000 1.706670 0.000000 
#    z 0.000000 0.000000 1.634720 
# 
# From -- ./inp_files/62837.got.cif
#   From: 2010.05.17/outbox.cif.g08.bks.cpg/sg65_32_cif.got.tgz:62837.got - 2010.06.03 17:01:31.
