data_PCOD9486874
_publ_section_title
;
Structure prediction by ZEFSAII (Michael W. Deem and Ramdas Pophale) SiO2 
 PCOD9486874
Probable space group: C M M M
;
_chemical_formula_sum "Si O2"
_cell_formula_units_Z 88
_cell_length_a 18.764598
_cell_length_b 7.687902
_cell_length_c 29.646188
_cell_angle_alpha 90.000000
_cell_angle_beta 90.000000
_cell_angle_gamma 90.000000
_cell_volume 4276.770658
_symmetry_space_group_name_H-M "C M M M"
_symmetry_group_IT_number 65
_symmetry_cell_setting 'orthorhombic'
loop_
_space_group_symop_operation_xyz
x,y,z
-x,-y,z
x,-y,-z
-x,y,-z
-x,-y,-z
x,y,-z
-x,y,z
x,-y,z
1/2+x,1/2+y,z
1/2-x,1/2-y,z
1/2+x,1/2-y,-z
1/2-x,1/2+y,-z
1/2-x,1/2-y,-z
1/2+x,1/2+y,-z
1/2-x,1/2+y,z
1/2+x,1/2-y,z
loop_
_atom_site_type_symbol
_atom_site_label
_atom_site_fract_x
_atom_site_fract_y
_atom_site_fract_z
Si Si1 0.166158 0.207307 0.401954
Si Si2 0.580441 0.207015 0.312580
Si Si3 0.417882 0.786868 0.137632
Si Si4 0.833298 0.709254 0.773931
Si Si5 0.334270 0.708977 0.500000
Si Si6 0.667225 0.790870 0.050432
O O1 0.250000 0.250000 0.396354
O O2 0.120711 0.268274 0.359689
O O3 0.140389 0.275223 0.451157
O O4 0.160764 0.000000 0.403224
O O5 0.500000 0.277949 0.313441
O O6 0.626951 0.276617 0.270836
O O7 0.575016 0.000000 0.305602
O O8 0.500000 0.733919 0.141293
O O9 0.372211 0.728327 0.180702
O O10 0.381893 0.727089 0.091052
O O11 0.416760 0.000000 0.137432
O O12 0.839399 0.500000 0.773969
O O13 0.750000 0.750000 0.773527
O O14 0.343764 0.500000 0.500000
O O15 0.250000 0.750000 0.500000
O O16 0.750000 0.750000 0.059538
O O17 0.660276 0.000000 0.049250
O O18 0.649959 0.724915 0.000000
#
# Coordination Sequence:
#
# PCOD9486874 Si02
#       6
#    16  16  16  16   8  16
#     4  10  19  33  54  78 103 132 167 205 246 292
#     4  10  21  36  52  72 100 132 166 205 249 296
#     4   9  17  30  49  72  97 126 161 200 242 288
#     4  10  20  34  53  74  96 126 163 202 244 292
#     4   8  16  30  49  74 101 129 163 203 243 286
#     4   9  17  29  47  71  97 126 161 201 242 284
#
# _framework density 20.576273
#
# number of rings (size 3 to 8) (size 9 to 14) (size 15 to 20)
#    0.000    2.545    0.000    2.182    0.000    5.818 
#    0.000    2.273    0.000    6.000    0.000    2.545 
#    0.000    0.000    0.000    0.000    0.000    0.000 
#
# Total GULP energy -245539.274209 kJ/mol
# GULP energy per Si atom -5580.438050 kJ/mol
# Density = 2.052944 g / cm^3
# Si number density = 20.576273 Si / 1000 Ang^3
#
#
#
# Elastic Constant Matrix: (Units=GPa)
#
#
# Indices 1 2 3 4 5 6 
#
# 1 164.9461 1.1178 139.3615 0.0000 0.0000 0.0000
# 2 1.1178 36.5227 6.5848 0.0000 0.0000 0.0000
# 3 139.3615 6.5848 231.1154 0.0000 0.0000 0.0000
# 4 0.0000 0.0000 0.0000 19.6389 0.0000 0.0000
# 5 0.0000 0.0000 0.0000 0.0000 -9.5189 0.0000
# 6 0.0000 0.0000 0.0000 0.0000 0.0000 21.9687
#
#
#
# Elastic Compliance Matrix: (Units=1/GPa)
#
#
# Indices 1 2 3 4 5 6 
#
# 1 0.012393 0.000973 -0.007501 0.000000 0.000000 0.000000
# 2 0.000973 0.027598 -0.001373 0.000000 0.000000 0.000000
# 3 -0.007501 -0.001373 0.008889 0.000000 0.000000 0.000000
# 4 0.000000 0.000000 0.000000 0.050919 0.000000 0.000000
# 5 0.000000 0.000000 0.000000 0.000000 -0.105054 0.000000
# 6 0.000000 0.000000 0.000000 0.000000 0.000000 0.045519
#
#
# Mechanical properties :
#
#
# Convention : Reuss Voigt Hill
#
# Bulk Modulus (GPa) = 30.23106 80.74584 55.48845
# Shear Modulus (GPa) = 74.52324 25.45241 49.98783
#
# Velocity S-wave (km/s) = 6.02467 3.52089 4.93423
# Velocity P-wave (km/s) = 7.94479 7.47370 7.71284
#
# Compressibility (1/GPa) = 0.03307856
#
# Stress axis : x y z
#
# Youngs Moduli (GPa) = 80.68780 36.23455 112.49887
#
# Poissons Ratio (x) = -0.03526 0.84384
# Poissons Ratio (y) = -0.07851 0.15447
# Poissons Ratio (z) = 0.60523 0.04975
#
# Static dielectric constant tensor:
#      x y z
#    x 1.679840 0.000000 0.000000 
#    y 0.000000 1.799540 0.000000 
#    z 0.000000 0.000000 1.756510 
# 
# From -- ./inp_files/77862.got.cif
#   From: 2010.05.17/outbox.cif.g08.bks.cpg/sg65_39_cif.got.tgz:77862.got - 2010.06.03 17:01:31.
