data_PCOD9486464
_publ_section_title
;
Structure prediction by ZEFSAII (Michael W. Deem and Ramdas Pophale) SiO2 
 PCOD9486464
Probable space group: C M M M
;
_chemical_formula_sum "Si O2"
_cell_formula_units_Z 80
_cell_length_a 8.576675
_cell_length_b 19.598855
_cell_length_c 26.045122
_cell_angle_alpha 90.000000
_cell_angle_beta 90.000000
_cell_angle_gamma 90.000000
_cell_volume 4378.002945
_symmetry_space_group_name_H-M "C M M M"
_symmetry_group_IT_number 65
_symmetry_cell_setting 'orthorhombic'
loop_
_space_group_symop_operation_xyz
x,y,z
-x,-y,z
x,-y,-z
-x,y,-z
-x,-y,-z
x,y,-z
-x,y,z
x,-y,z
1/2+x,1/2+y,z
1/2-x,1/2-y,z
1/2+x,1/2-y,-z
1/2-x,1/2+y,-z
1/2-x,1/2-y,-z
1/2+x,1/2+y,-z
1/2-x,1/2+y,z
1/2+x,1/2-y,z
loop_
_atom_site_type_symbol
_atom_site_label
_atom_site_fract_x
_atom_site_fract_y
_atom_site_fract_z
Si Si1 0.813346 0.675366 0.060053
Si Si2 0.312101 0.673876 0.349456
Si Si3 0.686951 0.579244 0.147208
Si Si4 0.310143 0.421195 0.557199
Si Si5 0.186012 0.326431 0.237713
O O1 0.750000 0.750000 0.075557
O O2 0.742112 0.617409 0.095809
O O3 0.000000 0.675364 0.065053
O O4 0.773154 0.665370 0.000000
O O5 0.500000 0.674616 0.347599
O O6 0.250000 0.750000 0.358511
O O7 0.258843 0.625461 0.395795
O O8 0.248965 0.652384 0.293754
O O9 0.500000 0.581984 0.150282
O O10 0.735502 0.500000 0.147908
O O11 0.757118 0.621497 0.194569
O O12 0.260424 0.398541 0.500000
O O13 0.500000 0.420162 0.557371
O O14 0.263052 0.500000 0.563962
O O15 0.250000 0.250000 0.227367
O O16 0.000000 0.323196 0.238654
#
# Coordination Sequence:
#
# PCOD9486464 Si02
#       5
#    16  16  16  16  16
#     4  10  21  38  61  87 115 148 186 226 268 318
#     4  10  19  32  52  78 106 136 173 218 267 318
#     4  11  24  40  58  82 113 147 183 224 271 323
#     4   8  15  29  49  73 101 135 175 216 259 311
#     4  11  22  38  59  80 107 142 181 225 272 325
#
# _framework density 18.273171999999999
#
# number of rings (size 3 to 8) (size 9 to 14) (size 15 to 20)
#    0.000    2.000    0.000    6.000    0.000    4.400 
#    0.000    4.000    0.000    3.600    0.000    5.600 
#    0.000    0.000    0.000    0.000    0.000    0.000 
#
# Total GULP energy -223389.710248 kJ/mol
# GULP energy per Si atom -5584.742756 kJ/mol
# Density = 1.823158 g / cm^3
# Si number density = 18.273172 Si / 1000 Ang^3
#
#
#
# Elastic Constant Matrix: (Units=GPa)
#
#
# Indices 1 2 3 4 5 6 
#
# 1 74.3930 45.0558 49.3302 0.0000 0.0000 0.0000
# 2 45.0558 119.7531 107.2656 0.0000 0.0000 0.0000
# 3 49.3302 107.2656 145.5805 0.0000 0.0000 0.0000
# 4 0.0000 0.0000 0.0000 84.8941 0.0000 0.0000
# 5 0.0000 0.0000 0.0000 0.0000 15.0367 0.0000
# 6 0.0000 0.0000 0.0000 0.0000 0.0000 26.1193
#
#
#
# Elastic Compliance Matrix: (Units=1/GPa)
#
#
# Indices 1 2 3 4 5 6 
#
# 1 0.017916 -0.003832 -0.003248 0.000000 0.000000 0.000000
# 2 -0.003832 0.025379 -0.017401 0.000000 0.000000 0.000000
# 3 -0.003248 -0.017401 0.020791 0.000000 0.000000 0.000000
# 4 0.000000 0.000000 0.000000 0.011779 0.000000 0.000000
# 5 0.000000 0.000000 0.000000 0.000000 0.066504 0.000000
# 6 0.000000 0.000000 0.000000 0.000000 0.000000 0.038286
#
#
# Mechanical properties :
#
#
# Convention : Reuss Voigt Hill
#
# Bulk Modulus (GPa) = 66.11582 82.55887 74.33734
# Shear Modulus (GPa) = 21.30769 34.41503 27.86136
#
# Velocity S-wave (km/s) = 3.41847 4.34448 3.90899
# Velocity P-wave (km/s) = 7.20012 8.39312 7.81941
#
# Compressibility (1/GPa) = 0.01512497
#
# Stress axis : x y z
#
# Youngs Moduli (GPa) = 55.81486 39.40337 48.09850
#
# Poissons Ratio (x) = 0.15099 0.15621
# Poissons Ratio (y) = 0.21388 0.83695
# Poissons Ratio (z) = 0.18127 0.68565
#
# Static dielectric constant tensor:
#      x y z
#    x 1.621320 0.000000 0.000000 
#    y 0.000000 1.600770 0.000000 
#    z 0.000000 0.000000 1.626840 
# 
# From -- ./inp_files/72820.got.cif
#   From: 2010.05.17/outbox.cif.g08.bks.cpg/sg65_37_cif.got.tgz:72820.got - 2010.06.03 17:01:31.
