data_PCOD9486665
_publ_section_title
;
Structure prediction by ZEFSAII (Michael W. Deem and Ramdas Pophale) SiO2 
 PCOD9486665
Probable space group: C M M M
;
_chemical_formula_sum "Si O2"
_cell_formula_units_Z 120
_cell_length_a 29.195515
_cell_length_b 8.837124
_cell_length_c 29.231319
_cell_angle_alpha 90.000000
_cell_angle_beta 90.000000
_cell_angle_gamma 90.000000
_cell_volume 7541.808519
_symmetry_space_group_name_H-M "C M M M"
_symmetry_group_IT_number 65
_symmetry_cell_setting 'orthorhombic'
loop_
_space_group_symop_operation_xyz
x,y,z
-x,-y,z
x,-y,-z
-x,y,-z
-x,-y,-z
x,y,-z
-x,y,z
x,-y,z
1/2+x,1/2+y,z
1/2-x,1/2-y,z
1/2+x,1/2-y,-z
1/2-x,1/2+y,-z
1/2-x,1/2-y,-z
1/2+x,1/2+y,-z
1/2-x,1/2+y,z
1/2+x,1/2-y,z
loop_
_atom_site_type_symbol
_atom_site_label
_atom_site_fract_x
_atom_site_fract_y
_atom_site_fract_z
Si Si1 0.609502 0.181412 0.229315
Si Si2 0.446973 0.315387 0.500000
Si Si3 0.395875 0.683093 0.407673
Si Si4 0.446778 0.817822 0.320219
Si Si5 0.299080 0.318610 0.266039
Si Si6 0.946129 0.819646 0.145739
Si Si7 0.055477 0.322919 0.050399
Si Si8 0.298575 0.681594 0.626669
O O1 0.579588 0.225336 0.273920
O O2 0.659505 0.251640 0.236851
O O3 0.583978 0.241526 0.184545
O O4 0.612467 0.000000 0.227850
O O5 0.447272 0.500000 0.500000
O O6 0.500000 0.266144 0.500000
O O7 0.420307 0.266974 0.545653
O O8 0.396737 0.500000 0.406522
O O9 0.423254 0.743746 0.364032
O O10 0.342870 0.730571 0.402094
O O11 0.500000 0.774422 0.317411
O O12 0.444226 0.000000 0.324461
O O13 0.298189 0.500000 0.262873
O O14 0.250000 0.250000 0.252926
O O15 0.306568 0.277438 0.319821
O O16 0.930475 0.768963 0.095087
O O17 0.000000 0.775952 0.151024
O O18 0.943263 0.000000 0.149921
O O19 0.067603 0.500000 0.055539
O O20 0.000000 0.315401 0.049422
O O21 0.071453 0.270681 0.000000
O O22 0.295314 0.500000 0.624537
O O23 0.250000 0.750000 0.612340
#
# Coordination Sequence:
#
# PCOD9486665 Si02
#       8
#    16   8  16  16  16  16  16  16
#     4  11  21  33  49  69  97 131 164 200 245 295
#     4   9  18  32  52  75  97 123 157 197 240 285
#     4  10  19  34  53  74  95 122 159 198 237 282
#     4  10  21  34  48  69  96 126 160 197 237 284
#     4  10  19  33  51  73  98 124 159 197 242 293
#     4  10  20  31  44  66  98 135 172 211 253 295
#     4   8  14  26  44  64  88 124 170 214 254 297
#     4   9  18  31  50  73  97 122 151 190 236 285
#
# _framework density 15.911301999999999
#
# number of rings (size 3 to 8) (size 9 to 14) (size 15 to 20)
#    0.000    2.333    1.333    2.400    0.000    4.000 
#    0.000    2.000    0.000    1.200    0.000    0.000 
#    0.000    0.533    0.000    2.000    0.000    3.067 
#
# Total GULP energy -334629.020573 kJ/mol
# GULP energy per Si atom -5577.150343 kJ/mol
# Density = 1.587509 g / cm^3
# Si number density = 15.911302 Si / 1000 Ang^3
#
#
#
# Elastic Constant Matrix: (Units=GPa)
#
#
# Indices 1 2 3 4 5 6 
#
# 1 134.3533 38.1975 75.9276 0.0000 0.0000 0.0000
# 2 38.1975 28.8119 39.7948 0.0000 0.0000 0.0000
# 3 75.9276 39.7948 131.7196 0.0000 0.0000 0.0000
# 4 0.0000 0.0000 0.0000 10.2616 0.0000 0.0000
# 5 0.0000 0.0000 0.0000 0.0000 8.2518 0.0000
# 6 0.0000 0.0000 0.0000 0.0000 0.0000 23.8407
#
#
#
# Elastic Compliance Matrix: (Units=1/GPa)
#
#
# Indices 1 2 3 4 5 6 
#
# 1 0.013035 -0.011846 -0.003935 0.000000 0.000000 0.000000
# 2 -0.011846 0.070328 -0.014419 0.000000 0.000000 0.000000
# 3 -0.003935 -0.014419 0.014216 0.000000 0.000000 0.000000
# 4 0.000000 0.000000 0.000000 0.097450 0.000000 0.000000
# 5 0.000000 0.000000 0.000000 0.000000 0.121186 0.000000
# 6 0.000000 0.000000 0.000000 0.000000 0.000000 0.041945
#
#
# Mechanical properties :
#
#
# Convention : Reuss Voigt Hill
#
# Bulk Modulus (GPa) = 26.89646 66.96940 46.93293
# Shear Modulus (GPa) = 11.60219 17.86847 14.73533
#
# Velocity S-wave (km/s) = 2.70326 3.35476 3.04648
# Velocity P-wave (km/s) = 5.16567 7.56217 6.47575
#
# Compressibility (1/GPa) = 0.03717962
#
# Stress axis : x y z
#
# Youngs Moduli (GPa) = 76.71886 14.21904 70.34254
#
# Poissons Ratio (x) = 0.16844 0.27677
# Poissons Ratio (y) = 0.90882 1.01426
# Poissons Ratio (z) = 0.30186 0.20502
#
# Static dielectric constant tensor:
#      x y z
#    x 1.519500 0.000000 0.000000 
#    y 0.000000 1.530660 0.000000 
#    z 0.000000 0.000000 1.522930 
# 
# From -- ./inp_files/76106.got.cif
#   From: 2010.05.17/outbox.cif.g08.bks.cpg/sg65_39_cif.got.tgz:76106.got - 2010.06.03 17:01:31.
