data_PCOD9486249
_publ_section_title
;
Structure prediction by ZEFSAII (Michael W. Deem and Ramdas Pophale) SiO2 
 PCOD9486249
Probable space group: C M M M
;
_chemical_formula_sum "Si O2"
_cell_formula_units_Z 88
_cell_length_a 9.126606
_cell_length_b 19.065867
_cell_length_c 29.401488
_cell_angle_alpha 90.000000
_cell_angle_beta 90.000000
_cell_angle_gamma 90.000000
_cell_volume 5116.054613
_symmetry_space_group_name_H-M "C M M M"
_symmetry_group_IT_number 65
_symmetry_cell_setting 'orthorhombic'
loop_
_space_group_symop_operation_xyz
x,y,z
-x,-y,z
x,-y,-z
-x,y,-z
-x,-y,-z
x,y,-z
-x,y,z
x,-y,z
1/2+x,1/2+y,z
1/2-x,1/2-y,z
1/2+x,1/2-y,-z
1/2-x,1/2+y,-z
1/2-x,1/2-y,-z
1/2+x,1/2+y,-z
1/2-x,1/2+y,z
1/2+x,1/2-y,z
loop_
_atom_site_type_symbol
_atom_site_label
_atom_site_fract_x
_atom_site_fract_y
_atom_site_fract_z
Si Si1 0.176047 0.583095 0.677994
Si Si2 0.323926 0.326840 0.400221
Si Si3 0.674917 0.325846 0.500000
Si Si4 0.831127 0.414744 0.220018
Si Si5 0.671174 0.415685 0.128504
Si Si6 0.674464 0.174632 0.947657
O O1 0.206815 0.500000 0.674051
O O2 0.259206 0.625671 0.639504
O O3 0.216664 0.606829 0.729324
O O4 0.000000 0.591918 0.673792
O O5 0.500000 0.320632 0.396304
O O6 0.250000 0.250000 0.397624
O O7 0.288346 0.357876 0.450748
O O8 0.500000 0.316248 0.500000
O O9 0.750000 0.250000 0.500000
O O10 0.830713 0.500000 0.220859
O O11 0.732749 0.392597 0.177694
O O12 0.000000 0.393014 0.212842
O O13 0.500000 0.398644 0.124530
O O14 0.687442 0.500000 0.125814
O O15 0.760516 0.379225 0.088446
O O16 0.500000 0.181093 0.942220
O O17 0.750000 0.250000 0.940820
O O18 0.704237 0.152903 0.000000
#
# Coordination Sequence:
#
# PCOD9486249 Si02
#       6
#    16  16   8  16  16  16
#     4   9  18  33  52  74 101 132 165 202 246 295
#     4  10  19  32  51  73  98 128 164 206 249 295
#     4   8  16  30  47  68  93 125 163 201 245 294
#     4   8  15  30  51  72  97 131 167 203 245 293
#     4  10  20  33  52  79 107 133 165 207 249 290
#     4  10  21  37  56  76 101 135 171 206 248 299
#
# _framework density 17.200754
#
# number of rings (size 3 to 8) (size 9 to 14) (size 15 to 20)
#    0.000    2.727    0.000    2.727    0.000    4.364 
#    0.000    5.000    0.000    7.091    0.000    0.000 
#    0.000    0.000    0.000    0.000    0.000    0.000 
#
# Total GULP energy -245171.414171 kJ/mol
# GULP energy per Si atom -5572.077595 kJ/mol
# Density = 1.716160 g / cm^3
# Si number density = 17.200754 Si / 1000 Ang^3
#
#
#
# Elastic Constant Matrix: (Units=GPa)
#
#
# Indices 1 2 3 4 5 6 
#
# 1 76.2217 37.7748 86.2945 0.0000 0.0000 0.0000
# 2 37.7748 31.0605 54.7992 0.0000 0.0000 0.0000
# 3 86.2945 54.7992 173.0341 0.0000 0.0000 0.0000
# 4 0.0000 0.0000 0.0000 39.8465 0.0000 0.0000
# 5 0.0000 0.0000 0.0000 0.0000 32.6248 0.0000
# 6 0.0000 0.0000 0.0000 0.0000 0.0000 27.3336
#
#
#
# Elastic Compliance Matrix: (Units=1/GPa)
#
#
# Indices 1 2 3 4 5 6 
#
# 1 0.039644 -0.030214 -0.010202 0.000000 0.000000 0.000000
# 2 -0.030214 0.095989 -0.015331 0.000000 0.000000 0.000000
# 3 -0.010202 -0.015331 0.015723 0.000000 0.000000 0.000000
# 4 0.000000 0.000000 0.000000 0.025096 0.000000 0.000000
# 5 0.000000 0.000000 0.000000 0.000000 0.030652 0.000000
# 6 0.000000 0.000000 0.000000 0.000000 0.000000 0.036585
#
#
# Mechanical properties :
#
#
# Convention : Reuss Voigt Hill
#
# Bulk Modulus (GPa) = 25.08762 70.89481 47.99121
# Shear Modulus (GPa) = 13.56962 26.72416 20.14689
#
# Velocity S-wave (km/s) = 2.81178 3.94593 3.42611
# Velocity P-wave (km/s) = 5.01581 7.87820 6.60395
#
# Compressibility (1/GPa) = 0.03986030
#
# Stress axis : x y z
#
# Youngs Moduli (GPa) = 25.22446 10.41789 63.60297
#
# Poissons Ratio (x) = 0.31477 0.64890
# Poissons Ratio (y) = 0.76213 0.97510
# Poissons Ratio (z) = 0.25735 0.15972
#
# Static dielectric constant tensor:
#      x y z
#    x 1.573600 0.000000 0.000000 
#    y 0.000000 1.551560 0.000000 
#    z 0.000000 0.000000 1.604290 
# 
# From -- ./inp_files/67481.got.cif
#   From: 2010.05.17/outbox.cif.g08.bks.cpg/sg65_34_cif.got.tgz:67481.got - 2010.06.03 17:01:31.
