data_PCOD9486119
_publ_section_title
;
Structure prediction by ZEFSAII (Michael W. Deem and Ramdas Pophale) SiO2 
 PCOD9486119
Probable space group: C M M M
;
_chemical_formula_sum "Si O2"
_cell_formula_units_Z 96
_cell_length_a 21.904704
_cell_length_b 28.459982
_cell_length_c 8.893166
_cell_angle_alpha 90.000000
_cell_angle_beta 90.000000
_cell_angle_gamma 90.000000
_cell_volume 5544.066219
_symmetry_space_group_name_H-M "C M M M"
_symmetry_group_IT_number 65
_symmetry_cell_setting 'orthorhombic'
loop_
_space_group_symop_operation_xyz
x,y,z
-x,-y,z
x,-y,-z
-x,y,-z
-x,-y,-z
x,y,-z
-x,y,z
x,-y,z
1/2+x,1/2+y,z
1/2-x,1/2-y,z
1/2+x,1/2-y,-z
1/2-x,1/2+y,-z
1/2-x,1/2-y,-z
1/2+x,1/2+y,-z
1/2-x,1/2+y,z
1/2+x,1/2-y,z
loop_
_atom_site_type_symbol
_atom_site_label
_atom_site_fract_x
_atom_site_fract_y
_atom_site_fract_z
Si Si1 0.000000 0.781130 0.178417
Si Si2 0.245417 0.946038 0.319096
Si Si3 0.625474 0.226724 0.822406
Si Si4 0.316434 0.688105 0.673846
Si Si5 0.373828 0.599430 0.821766
Si Si6 0.500000 0.384840 0.679054
Si Si7 0.317558 0.142967 0.674512
O O1 0.059532 0.749573 0.209314
O O2 0.000000 0.830141 0.267479
O O3 0.000000 0.793013 0.000000
O O4 0.238072 0.940034 0.500000
O O5 0.181384 0.931786 0.243379
O O6 0.297871 0.909043 0.272583
O O7 0.260304 0.000000 0.287639
O O8 0.672225 0.259891 0.732318
O O9 0.634841 0.173494 0.768267
O O10 0.637059 0.229914 0.000000
O O11 0.336270 0.683663 0.500000
O O12 0.354901 0.652624 0.777096
O O13 0.246954 0.670861 0.681733
O O14 0.439014 0.591449 0.744939
O O15 0.378084 0.594526 0.000000
O O16 0.500000 0.386668 0.500000
O O17 0.336512 0.140935 0.500000
#
# Coordination Sequence:
#
# PCOD9486119 Si02
#       7
#     8  16  16  16  16   8  16
#     4  10  22  36  48  69 104 143 178 217 256 292
#     4   9  19  38  60  79 101 131 167 211 265 319
#     4  11  21  32  48  71 103 138 173 211 254 303
#     4  10  19  32  49  71 101 137 174 210 250 302
#     4  11  21  33  51  76 106 136 171 218 261 302
#     4  12  22  34  53  73  98 141 187 217 250 300
#     4   9  19  33  50  74 103 131 164 209 256 308
#
# _framework density 17.315809999999999
#
# number of rings (size 3 to 8) (size 9 to 14) (size 15 to 20)
#    0.000    1.833    1.667    4.750    0.000    6.333 
#    0.000    0.417    0.000    2.500    0.000    0.583 
#    0.000    4.667    0.000    0.000    0.000    0.000 
#
# Total GULP energy -267928.321900 kJ/mol
# GULP energy per Si atom -5581.840040 kJ/mol
# Density = 1.727640 g / cm^3
# Si number density = 17.315810 Si / 1000 Ang^3
#
#
#
# Elastic Constant Matrix: (Units=GPa)
#
#
# Indices 1 2 3 4 5 6 
#
# 1 18.6099 13.2508 14.3740 0.0000 0.0000 0.0000
# 2 13.2508 100.2868 26.1722 0.0000 0.0000 0.0000
# 3 14.3740 26.1722 65.3080 0.0000 0.0000 0.0000
# 4 0.0000 0.0000 0.0000 8.6985 0.0000 0.0000
# 5 0.0000 0.0000 0.0000 0.0000 10.8235 0.0000
# 6 0.0000 0.0000 0.0000 0.0000 0.0000 15.4430
#
#
#
# Elastic Compliance Matrix: (Units=1/GPa)
#
#
# Indices 1 2 3 4 5 6 
#
# 1 0.067470 -0.005628 -0.012594 0.000000 0.000000 0.000000
# 2 -0.005628 0.011606 -0.003412 0.000000 0.000000 0.000000
# 3 -0.012594 -0.003412 0.019452 0.000000 0.000000 0.000000
# 4 0.000000 0.000000 0.000000 0.114963 0.000000 0.000000
# 5 0.000000 0.000000 0.000000 0.000000 0.092392 0.000000
# 6 0.000000 0.000000 0.000000 0.000000 0.000000 0.064754
#
#
# Mechanical properties :
#
#
# Convention : Reuss Voigt Hill
#
# Bulk Modulus (GPa) = 18.09705 32.42208 25.25956
# Shear Modulus (GPa) = 11.56540 15.68684 13.62612
#
# Velocity S-wave (km/s) = 2.58720 3.01313 2.80825
# Velocity P-wave (km/s) = 4.40439 5.55606 5.01341
#
# Compressibility (1/GPa) = 0.05525764
#
# Stress axis : x y z
#
# Youngs Moduli (GPa) = 14.82144 86.16596 51.40991
#
# Poissons Ratio (x) = 0.48494 0.64748
# Poissons Ratio (y) = 0.08341 0.17542
# Poissons Ratio (z) = 0.18667 0.29402
#
# Static dielectric constant tensor:
#      x y z
#    x 1.592640 0.000000 0.000000 
#    y 0.000000 1.603900 0.000000 
#    z 0.000000 0.000000 1.583840 
# 
# From -- ./inp_files/14643.got.cif
#   From: 2010.05.17/outbox.cif.g08.bks.cpg/sg65_8_cif.got.tgz:14643.got - 2010.06.03 17:01:31.
