data_PCOD9486224
_publ_section_title
;
Structure prediction by ZEFSAII (Michael W. Deem and Ramdas Pophale) SiO2 
 PCOD9486224
Probable space group: C M M M
;
_chemical_formula_sum "Si O2"
_cell_formula_units_Z 104
_cell_length_a 18.695054
_cell_length_b 8.237571
_cell_length_c 35.294044
_cell_angle_alpha 90.000000
_cell_angle_beta 90.000000
_cell_angle_gamma 90.000000
_cell_volume 5435.347529
_symmetry_space_group_name_H-M "C M M M"
_symmetry_group_IT_number 65
_symmetry_cell_setting 'orthorhombic'
loop_
_space_group_symop_operation_xyz
x,y,z
-x,-y,z
x,-y,-z
-x,y,-z
-x,-y,-z
x,y,-z
-x,y,z
x,-y,z
1/2+x,1/2+y,z
1/2-x,1/2-y,z
1/2+x,1/2-y,-z
1/2-x,1/2+y,-z
1/2-x,1/2-y,-z
1/2+x,1/2+y,-z
1/2-x,1/2+y,z
1/2+x,1/2-y,z
loop_
_atom_site_type_symbol
_atom_site_label
_atom_site_fract_x
_atom_site_fract_y
_atom_site_fract_z
Si Si1 0.332019 0.803851 0.425182
Si Si2 0.917534 0.301380 0.350553
Si Si3 0.168195 0.194162 0.805605
Si Si4 0.417281 0.198509 0.500000
Si Si5 0.584484 0.804840 0.040952
Si Si6 0.582062 0.304640 0.878505
Si Si7 0.332166 0.805978 0.723342
O O1 0.250000 0.750000 0.426079
O O2 0.372095 0.748492 0.387040
O O3 0.375201 0.748741 0.462388
O O4 0.333367 0.000000 0.425180
O O5 0.917285 0.500000 0.350519
O O6 0.879692 0.247160 0.311770
O O7 0.000000 0.249999 0.352914
O O8 0.250000 0.250000 0.808557
O O9 0.124643 0.255760 0.841914
O O10 0.140935 0.250343 0.764541
O O11 0.166498 0.000000 0.805967
O O12 0.500000 0.250395 0.500000
O O13 0.417662 0.000000 0.500000
O O14 0.500000 0.758949 0.040976
O O15 0.614424 0.741753 0.080636
O O16 0.587872 0.000000 0.041577
O O17 0.614142 0.749363 0.000000
O O18 0.500000 0.244726 0.876988
O O19 0.580314 0.500000 0.876858
O O20 0.250000 0.750000 0.719008
O O21 0.332210 0.000000 0.722967
#
# Coordination Sequence:
#
# PCOD9486224 Si02
#       7
#    16  16  16   8  16  16  16
#     4  10  19  32  52  75 101 132 166 206 246 290
#     4   9  18  32  50  73  99 127 161 201 242 283
#     4  10  20  34  51  70  95 126 159 195 235 283
#     4   9  17  30  51  77 100 129 172 212 246 289
#     4   8  14  25  42  66  95 124 154 190 232 277
#     4   9  18  31  47  69  95 122 153 191 236 282
#     4  10  19  32  51  71  92 121 157 195 235 283
#
# _framework density 19.13401
#
# number of rings (size 3 to 8) (size 9 to 14) (size 15 to 20)
#    0.000    2.692    0.000    3.462    0.000    4.000 
#    0.000    2.308    0.000    6.000    0.000    0.000 
#    0.000    0.000    0.000    0.000    0.000    0.000 
#
# Total GULP energy -289958.472575 kJ/mol
# GULP energy per Si atom -5576.124473 kJ/mol
# Density = 1.909046 g / cm^3
# Si number density = 19.134010 Si / 1000 Ang^3
#
#
#
# Elastic Constant Matrix: (Units=GPa)
#
#
# Indices 1 2 3 4 5 6 
#
# 1 104.1343 7.9301 104.0955 0.0000 0.0000 0.0000
# 2 7.9301 15.2461 20.4655 0.0000 0.0000 0.0000
# 3 104.0955 20.4655 244.2218 0.0000 0.0000 0.0000
# 4 0.0000 0.0000 0.0000 15.3110 0.0000 0.0000
# 5 0.0000 0.0000 0.0000 0.0000 6.4446 0.0000
# 6 0.0000 0.0000 0.0000 0.0000 0.0000 17.9199
#
#
#
# Elastic Compliance Matrix: (Units=1/GPa)
#
#
# Indices 1 2 3 4 5 6 
#
# 1 0.016745 0.000981 -0.007220 0.000000 0.000000 0.000000
# 2 0.000981 0.073962 -0.006616 0.000000 0.000000 0.000000
# 3 -0.007220 -0.006616 0.007726 0.000000 0.000000 0.000000
# 4 0.000000 0.000000 0.000000 0.065313 0.000000 0.000000
# 5 0.000000 0.000000 0.000000 0.000000 0.155168 0.000000
# 6 0.000000 0.000000 0.000000 0.000000 0.000000 0.055804
#
#
# Mechanical properties :
#
#
# Convention : Reuss Voigt Hill
#
# Bulk Modulus (GPa) = 13.75060 69.84273 41.79666
# Shear Modulus (GPa) = 11.77392 23.34251 17.55821
#
# Velocity S-wave (km/s) = 2.48330 3.49657 3.03255
# Velocity P-wave (km/s) = 3.92739 7.27203 5.84409
#
# Compressibility (1/GPa) = 0.07272410
#
# Stress axis : x y z
#
# Youngs Moduli (GPa) = 59.71883 13.52055 129.42814
#
# Poissons Ratio (x) = -0.01327 0.93442
# Poissons Ratio (y) = -0.05860 0.85632
# Poissons Ratio (z) = 0.43114 0.08945
#
# Static dielectric constant tensor:
#      x y z
#    x 1.638630 0.000000 0.000000 
#    y 0.000000 1.672100 0.000000 
#    z 0.000000 0.000000 1.694100 
# 
# From -- ./inp_files/78226.got.cif
#   From: 2010.05.17/outbox.cif.g08.bks.cpg/sg65_40_cif.got.tgz:78226.got - 2010.06.03 17:01:31.
