data_PCOD9486155
_publ_section_title
;
Structure prediction by ZEFSAII (Michael W. Deem and Ramdas Pophale) SiO2 
 PCOD9486155
Probable space group: C M M M
;
_chemical_formula_sum "Si O2"
_cell_formula_units_Z 104
_cell_length_a 14.858074
_cell_length_b 25.958049
_cell_length_c 15.191430
_cell_angle_alpha 90.000000
_cell_angle_beta 90.000000
_cell_angle_gamma 90.000000
_cell_volume 5859.131182
_symmetry_space_group_name_H-M "C M M M"
_symmetry_group_IT_number 65
_symmetry_cell_setting 'orthorhombic'
loop_
_space_group_symop_operation_xyz
x,y,z
-x,-y,z
x,-y,-z
-x,y,-z
-x,-y,-z
x,y,-z
-x,y,z
x,-y,z
1/2+x,1/2+y,z
1/2-x,1/2-y,z
1/2+x,1/2-y,-z
1/2-x,1/2+y,-z
1/2-x,1/2-y,-z
1/2+x,1/2+y,-z
1/2-x,1/2+y,z
1/2+x,1/2-y,z
loop_
_atom_site_type_symbol
_atom_site_label
_atom_site_fract_x
_atom_site_fract_y
_atom_site_fract_z
Si Si1 0.367000 0.149334 0.398028
Si Si2 0.107009 0.943369 0.725804
Si Si3 0.890984 0.889961 0.902790
Si Si4 0.000000 0.559447 0.393519
Si Si5 0.139785 0.749282 0.288883
Si Si6 0.647846 0.270117 0.096052
Si Si7 0.150050 0.149750 0.398204
O O1 0.392441 0.158808 0.500000
O O2 0.414476 0.095881 0.370083
O O3 0.391783 0.198247 0.338720
O O4 0.258851 0.147629 0.395595
O O5 0.142178 0.922077 0.819301
O O6 0.120742 0.902147 0.649622
O O7 0.000000 0.947700 0.737454
O O8 0.143790 0.000000 0.705373
O O9 0.854341 0.831995 0.896986
O O10 0.000000 0.886265 0.898499
O O11 0.868532 0.911130 0.000000
O O12 0.000000 0.500000 0.360750
O O13 0.000000 0.555698 0.500000
O O14 0.250000 0.750000 0.287575
O O15 0.107933 0.750513 0.187939
O O16 0.116357 0.801031 0.342589
O O17 0.750000 0.250000 0.094055
O O18 0.607345 0.256890 0.000000
O O19 0.122237 0.153397 0.500000
#
# Coordination Sequence:
#
# PCOD9486155 Si02
#       7
#    16  16  16   8  16  16  16
#     4   9  18  32  51  74  98 127 162 199 242 290
#     4  10  21  35  48  66  94 127 167 209 244 284
#     4   9  17  31  50  70  93 122 159 200 241 286
#     4   9  18  34  52  72 101 129 160 208 254 287
#     4   9  16  29  48  70  99 125 153 193 239 285
#     4   9  16  27  47  72  95 122 150 184 238 296
#     4  10  19  32  50  70  95 131 168 199 240 291
#
# _framework density 17.750071999999999
#
# number of rings (size 3 to 8) (size 9 to 14) (size 15 to 20)
#    0.000    2.692    1.538    0.462    0.000    3.385 
#    2.769    3.846    0.000    0.000    0.000    0.000 
#    0.000    1.231    0.000    0.000    0.000    0.154 
#
# Total GULP energy -289658.981996 kJ/mol
# GULP energy per Si atom -5570.365038 kJ/mol
# Density = 1.770967 g / cm^3
# Si number density = 17.750072 Si / 1000 Ang^3
#
#
#
# Elastic Constant Matrix: (Units=GPa)
#
#
# Indices 1 2 3 4 5 6 
#
# 1 38.5765 15.3813 11.6332 0.0000 0.0000 0.0000
# 2 15.3813 140.5207 79.1652 0.0000 0.0000 0.0000
# 3 11.6332 79.1652 149.7554 0.0000 0.0000 0.0000
# 4 0.0000 0.0000 0.0000 18.2974 0.0000 0.0000
# 5 0.0000 0.0000 0.0000 0.0000 5.1975 0.0000
# 6 0.0000 0.0000 0.0000 0.0000 0.0000 22.4950
#
#
#
# Elastic Compliance Matrix: (Units=1/GPa)
#
#
# Indices 1 2 3 4 5 6 
#
# 1 0.027167 -0.002542 -0.000767 0.000000 0.000000 0.000000
# 2 -0.002542 0.010372 -0.005286 0.000000 0.000000 0.000000
# 3 -0.000767 -0.005286 0.009531 0.000000 0.000000 0.000000
# 4 0.000000 0.000000 0.000000 0.054653 0.000000 0.000000
# 5 0.000000 0.000000 0.000000 0.000000 0.192402 0.000000
# 6 0.000000 0.000000 0.000000 0.000000 0.000000 0.044454
#
#
# Mechanical properties :
#
#
# Convention : Reuss Voigt Hill
#
# Bulk Modulus (GPa) = 33.46442 60.13467 46.79955
# Shear Modulus (GPa) = 13.67133 24.04284 18.85709
#
# Velocity S-wave (km/s) = 2.77828 3.68437 3.26293
# Velocity P-wave (km/s) = 5.40239 7.21468 6.37328
#
# Compressibility (1/GPa) = 0.02988249
#
# Stress axis : x y z
#
# Youngs Moduli (GPa) = 36.80914 96.40946 104.91736
#
# Poissons Ratio (x) = 0.24505 0.08045
# Poissons Ratio (y) = 0.09356 0.55456
# Poissons Ratio (z) = 0.02822 0.50959
#
# Static dielectric constant tensor:
#      x y z
#    x 1.654620 0.000000 0.000000 
#    y 0.000000 1.594530 0.000000 
#    z 0.000000 0.000000 1.633650 
# 
# From -- ./inp_files/43265.got.cif
#   From: 2010.05.17/outbox.cif.g08.bks.cpg/sg65_22_cif.got.tgz:43265.got - 2010.06.03 17:01:31.
