data_PCOD9486131
_publ_section_title
;
Structure prediction by ZEFSAII (Michael W. Deem and Ramdas Pophale) SiO2 
 PCOD9486131
Probable space group: C M M M
;
_chemical_formula_sum "Si O2"
_cell_formula_units_Z 120
_cell_length_a 30.903227
_cell_length_b 25.249492
_cell_length_c 8.196267
_cell_angle_alpha 90.000000
_cell_angle_beta 90.000000
_cell_angle_gamma 90.000000
_cell_volume 6395.471594
_symmetry_space_group_name_H-M "C M M M"
_symmetry_group_IT_number 65
_symmetry_cell_setting 'orthorhombic'
loop_
_space_group_symop_operation_xyz
x,y,z
-x,-y,z
x,-y,-z
-x,y,-z
-x,-y,-z
x,y,-z
-x,y,z
x,-y,z
1/2+x,1/2+y,z
1/2-x,1/2-y,z
1/2+x,1/2-y,-z
1/2-x,1/2+y,-z
1/2-x,1/2-y,-z
1/2+x,1/2+y,-z
1/2-x,1/2+y,z
1/2+x,1/2-y,z
loop_
_atom_site_type_symbol
_atom_site_label
_atom_site_fract_x
_atom_site_fract_y
_atom_site_fract_z
Si Si1 0.950453 0.751893 0.303178
Si Si2 0.077833 0.634843 0.696414
Si Si3 0.652929 0.559486 0.306354
Si Si4 0.327475 0.863275 0.196543
Si Si5 0.500000 0.060481 0.300194
Si Si6 0.875000 0.829613 0.805801
Si Si7 0.251017 0.060619 0.803243
Si Si8 0.799829 0.247135 0.199190
O O1 0.951407 0.749960 0.500000
O O2 0.933783 0.694222 0.244399
O O3 0.916453 0.796892 0.254119
O O4 0.000000 0.760660 0.247241
O O5 0.076024 0.636528 0.500000
O O6 0.125678 0.618425 0.747627
O O7 0.041977 0.593269 0.752841
O O8 0.647918 0.558204 0.500000
O O9 0.642942 0.500000 0.241953
O O10 0.625915 0.608855 0.240569
O O11 0.703279 0.570212 0.265140
O O12 0.287539 0.898927 0.255267
O O13 0.321440 0.802502 0.248227
O O14 0.326126 0.864240 0.000000
O O15 0.500000 0.060101 0.500000
O O16 0.500000 0.000000 0.245201
O O17 0.830859 0.800461 0.744409
O O18 0.874197 0.825648 0.000000
O O19 0.263169 0.000000 0.764149
O O20 0.247882 0.065255 0.000000
O O21 0.750000 0.250000 0.254183
O O22 0.798442 0.244539 0.000000
#
# Coordination Sequence:
#
# PCOD9486131 Si02
#       8
#    16  16  16  16   8  16  16  16
#     4  10  20  36  57  79 108 144 180 225 280 333
#     4  10  19  33  53  75 102 138 181 229 276 324
#     4  10  21  37  57  81 111 145 179 218 262 311
#     4  10  19  32  49  72 106 143 178 222 274 323
#     4   9  18  34  55  77 101 137 186 231 274 325
#     4  11  21  34  56  84 111 142 181 223 267 324
#     4   9  18  33  53  75 102 144 192 229 265 315
#     4   9  17  29  46  71 104 141 176 212 260 315
#
# _framework density 18.763275
#
# number of rings (size 3 to 8) (size 9 to 14) (size 15 to 20)
#    0.000    2.200    2.000    1.600    0.000    4.267 
#    0.000    0.333    0.000    2.800    0.000    2.800 
#    0.000    0.000    0.000    0.000    0.000    0.000 
#
# Total GULP energy -334825.382138 kJ/mol
# GULP energy per Si atom -5580.423036 kJ/mol
# Density = 1.872057 g / cm^3
# Si number density = 18.763275 Si / 1000 Ang^3
#
#
#
# Elastic Constant Matrix: (Units=GPa)
#
#
# Indices 1 2 3 4 5 6 
#
# 1 82.8496 50.1918 9.0441 0.0000 0.0000 0.0000
# 2 50.1918 125.5126 17.1564 0.0000 0.0000 0.0000
# 3 9.0441 17.1564 7.6874 0.0000 0.0000 0.0000
# 4 0.0000 0.0000 0.0000 13.9817 0.0000 0.0000
# 5 0.0000 0.0000 0.0000 0.0000 27.8823 0.0000
# 6 0.0000 0.0000 0.0000 0.0000 0.0000 30.1302
#
#
#
# Elastic Compliance Matrix: (Units=1/GPa)
#
#
# Indices 1 2 3 4 5 6 
#
# 1 0.016159 -0.005559 -0.006604 0.000000 0.000000 0.000000
# 2 -0.005559 0.013377 -0.023315 0.000000 0.000000 0.000000
# 3 -0.006604 -0.023315 0.189886 0.000000 0.000000 0.000000
# 4 0.000000 0.000000 0.000000 0.071522 0.000000 0.000000
# 5 0.000000 0.000000 0.000000 0.000000 0.035865 0.000000
# 6 0.000000 0.000000 0.000000 0.000000 0.000000 0.033189
#
#
# Mechanical properties :
#
#
# Convention : Reuss Voigt Hill
#
# Bulk Modulus (GPa) = 6.73554 40.98158 23.85856
# Shear Modulus (GPa) = 10.40707 23.70932 17.05820
#
# Velocity S-wave (km/s) = 2.35766 3.55858 3.01844
# Velocity P-wave (km/s) = 3.31797 6.22683 4.98911
#
# Compressibility (1/GPa) = 0.14846612
#
# Stress axis : x y z
#
# Youngs Moduli (GPa) = 61.88584 74.75348 5.26633
#
# Poissons Ratio (x) = 0.41556 0.03478
# Poissons Ratio (y) = 0.34403 0.12278
# Poissons Ratio (z) = 0.40869 1.74286
#
# Static dielectric constant tensor:
#      x y z
#    x 1.630100 0.000000 0.000000 
#    y 0.000000 1.660390 0.000000 
#    z 0.000000 0.000000 1.664730 
# 
# From -- ./inp_files/17088.got.cif
#   From: 2010.05.17/outbox.cif.g08.bks.cpg/sg65_9_cif.got.tgz:17088.got - 2010.06.03 17:01:31.
