data_PCOD9486374
_publ_section_title
;
Structure prediction by ZEFSAII (Michael W. Deem and Ramdas Pophale) SiO2 
 PCOD9486374
Probable space group: C M M M
;
_chemical_formula_sum "Si O2"
_cell_formula_units_Z 88
_cell_length_a 29.340400
_cell_length_b 19.002762
_cell_length_c 7.560397
_cell_angle_alpha 90.000000
_cell_angle_beta 90.000000
_cell_angle_gamma 90.000000
_cell_volume 4215.289051
_symmetry_space_group_name_H-M "C M M M"
_symmetry_group_IT_number 65
_symmetry_cell_setting 'orthorhombic'
loop_
_space_group_symop_operation_xyz
x,y,z
-x,-y,z
x,-y,-z
-x,y,-z
-x,-y,-z
x,y,-z
-x,y,z
x,-y,z
1/2+x,1/2+y,z
1/2-x,1/2-y,z
1/2+x,1/2-y,-z
1/2-x,1/2+y,-z
1/2-x,1/2-y,-z
1/2+x,1/2+y,-z
1/2-x,1/2+y,z
1/2+x,1/2-y,z
loop_
_atom_site_type_symbol
_atom_site_label
_atom_site_fract_x
_atom_site_fract_y
_atom_site_fract_z
Si Si1 0.781671 0.685068 0.716256
Si Si2 0.707168 0.420869 0.286628
Si Si3 0.552581 0.078222 0.716045
Si Si4 0.108415 0.862690 0.792304
Si Si5 0.053227 0.000000 0.216688
Si Si6 0.115630 0.296273 0.290468
O O1 0.782974 0.685349 0.500000
O O2 0.750000 0.750000 0.769605
O O3 0.753667 0.616273 0.772293
O O4 0.833026 0.694738 0.780726
O O5 0.708547 0.422883 0.500000
O O6 0.702413 0.500000 0.219103
O O7 0.661800 0.377967 0.240175
O O8 0.552790 0.079262 0.500000
O O9 0.500000 0.085634 0.770314
O O10 0.582624 0.143180 0.780563
O O11 0.568847 0.000000 0.768591
O O12 0.098487 0.783692 0.729534
O O13 0.079386 0.929176 0.721123
O O14 0.100163 0.862105 0.000000
O O15 0.000000 0.000000 0.266694
O O16 0.055030 0.000000 0.000000
O O17 0.118904 0.308597 0.500000
#
# Coordination Sequence:
#
# PCOD9486374 Si02
#       6
#    16  16  16  16   8  16
#     4   9  16  28  46  70  99 130 162 199 244 292
#     4  10  19  32  52  74  98 131 172 213 252 299
#     4   8  15  29  50  77 106 132 161 206 262 309
#     4  11  21  34  53  75 100 133 174 214 257 309
#     4   9  20  38  55  71  97 135 175 217 262 311
#     4  10  19  32  53  77 105 137 172 211 253 304
#
# _framework density 20.876384999999999
#
# number of rings (size 3 to 8) (size 9 to 14) (size 15 to 20)
#    0.000    2.455    2.727    1.091    0.000    1.455 
#    0.000    5.455    0.000    4.364    0.000    1.273 
#    0.000    0.000    0.000    0.000    0.000    0.000 
#
# Total GULP energy -245535.833077 kJ/mol
# GULP energy per Si atom -5580.359843 kJ/mol
# Density = 2.082887 g / cm^3
# Si number density = 20.876385 Si / 1000 Ang^3
#
#
#
# Elastic Constant Matrix: (Units=GPa)
#
#
# Indices 1 2 3 4 5 6 
#
# 1 125.7005 98.3519 4.3337 0.0000 0.0000 0.0000
# 2 98.3519 196.2363 -1.9228 0.0000 0.0000 0.0000
# 3 4.3337 -1.9228 39.8199 0.0000 0.0000 0.0000
# 4 0.0000 0.0000 0.0000 -4.2176 0.0000 0.0000
# 5 0.0000 0.0000 0.0000 0.0000 -1.3596 0.0000
# 6 0.0000 0.0000 0.0000 0.0000 0.0000 52.6093
#
#
#
# Elastic Compliance Matrix: (Units=1/GPa)
#
#
# Indices 1 2 3 4 5 6 
#
# 1 0.013210 -0.006638 -0.001758 0.000000 0.000000 0.000000
# 2 -0.006638 0.008434 0.001130 0.000000 0.000000 0.000000
# 3 -0.001758 0.001130 0.025359 0.000000 0.000000 0.000000
# 4 0.000000 0.000000 0.000000 -0.237103 0.000000 0.000000
# 5 0.000000 0.000000 0.000000 0.000000 -0.735512 0.000000
# 6 0.000000 0.000000 0.000000 0.000000 0.000000 0.019008
#
#
# Mechanical properties :
#
#
# Convention : Reuss Voigt Hill
#
# Bulk Modulus (GPa) = 30.79784 62.58692 46.69238
# Shear Modulus (GPa) = -5.67376 26.80601 10.56613
#
# Velocity S-wave (km/s) = -1.65036 3.58723 2.25217
# Velocity P-wave (km/s) = 3.33960 6.87041 5.40164
#
# Compressibility (1/GPa) = 0.03246981
#
# Stress axis : x y z
#
# Youngs Moduli (GPa) = 75.70235 118.57108 39.43374
#
# Poissons Ratio (x) = 0.78705 0.06933
# Poissons Ratio (y) = 0.50250 -0.04455
# Poissons Ratio (z) = 0.13310 -0.13394
#
# Static dielectric constant tensor:
#      x y z
#    x 1.720150 0.000000 0.000000 
#    y 0.000000 1.877100 0.000000 
#    z 0.000000 0.000000 1.789990 
# 
# From -- ./inp_files/18337.got.cif
#   From: 2010.05.17/outbox.cif.g08.bks.cpg/sg65_10_cif.got.tgz:18337.got - 2010.06.03 17:01:31.
