data_PCOD9486784
_publ_section_title
;
Structure prediction by ZEFSAII (Michael W. Deem and Ramdas Pophale) SiO2 
 PCOD9486784
Probable space group: C M M M
;
_chemical_formula_sum "Si O2"
_cell_formula_units_Z 120
_cell_length_a 27.531352
_cell_length_b 28.937543
_cell_length_c 8.067420
_cell_angle_alpha 90.000000
_cell_angle_beta 90.000000
_cell_angle_gamma 90.000000
_cell_volume 6427.230277
_symmetry_space_group_name_H-M "C M M M"
_symmetry_group_IT_number 65
_symmetry_cell_setting 'orthorhombic'
loop_
_space_group_symop_operation_xyz
x,y,z
-x,-y,z
x,-y,-z
-x,y,-z
-x,-y,-z
x,y,-z
-x,y,z
x,-y,z
1/2+x,1/2+y,z
1/2-x,1/2-y,z
1/2+x,1/2-y,-z
1/2-x,1/2+y,-z
1/2-x,1/2-y,-z
1/2+x,1/2+y,-z
1/2-x,1/2+y,z
1/2+x,1/2-y,z
loop_
_atom_site_type_symbol
_atom_site_label
_atom_site_fract_x
_atom_site_fract_y
_atom_site_fract_z
Si Si1 0.941635 0.885285 0.685017
Si Si2 0.784382 0.791604 0.693420
Si Si3 0.894017 0.308584 0.303318
Si Si4 0.440889 0.446683 0.000000
Si Si5 0.204622 0.356891 0.196491
Si Si6 0.651631 0.948445 0.202560
Si Si7 0.553750 0.099932 0.799741
Si Si8 0.106705 0.793845 0.190745
O O1 0.930488 0.903184 0.500000
O O2 0.925827 0.918927 0.834575
O O3 0.917457 0.835244 0.707934
O O4 0.000000 0.880268 0.697382
O O5 0.795276 0.782278 0.500000
O O6 0.750000 0.750000 0.756109
O O7 0.751220 0.836663 0.712868
O O8 0.835105 0.795403 0.786049
O O9 0.888474 0.308584 0.500000
O O10 0.842117 0.324017 0.227468
O O11 0.931686 0.348212 0.251166
O O12 0.908212 0.257606 0.245203
O O13 0.424589 0.500000 0.000000
O O14 0.500000 0.447340 0.000000
O O15 0.187866 0.407655 0.253685
O O16 0.214096 0.357771 0.000000
O O17 0.597590 0.933033 0.256434
O O18 0.663443 0.000000 0.258042
O O19 0.651588 0.948152 0.000000
O O20 0.500000 0.087693 0.739893
O O21 0.553524 0.098190 0.000000
O O22 0.093575 0.800916 0.000000
#
# Coordination Sequence:
#
# PCOD9486784 Si02
#       8
#    16  16  16   8  16  16  16  16
#     4  10  21  38  59  87 123 158 194 235 280 336
#     4  11  22  35  54  81 111 143 180 226 278 334
#     4  11  21  33  49  71 102 142 182 222 276 337
#     4   9  18  36  62  90 117 148 190 234 278 329
#     4  10  19  33  53  77 104 135 176 226 279 332
#     4   8  15  29  51  78 104 133 175 228 283 335
#     4   9  18  32  49  72 102 137 182 232 279 330
#     4  12  23  36  57  82 114 151 189 231 279 338
#
# _framework density 18.670562
#
# number of rings (size 3 to 8) (size 9 to 14) (size 15 to 20)
#    0.000    1.933    2.000    4.000    0.000    1.867 
#    0.000    2.667    0.000   10.800    0.000    3.733 
#    0.000    0.000    0.000    0.000    0.000    0.000 
#
# Total GULP energy -334940.442637 kJ/mol
# GULP energy per Si atom -5582.340711 kJ/mol
# Density = 1.862807 g / cm^3
# Si number density = 18.670562 Si / 1000 Ang^3
#
#
#
# Elastic Constant Matrix: (Units=GPa)
#
#
# Indices 1 2 3 4 5 6 
#
# 1 22.1784 11.4379 2.7397 0.0000 0.0000 0.0000
# 2 11.4379 119.8692 18.2690 0.0000 0.0000 0.0000
# 3 2.7397 18.2690 62.3478 0.0000 0.0000 0.0000
# 4 0.0000 0.0000 0.0000 0.0274 0.0000 0.0000
# 5 0.0000 0.0000 0.0000 0.0000 8.3169 0.0000
# 6 0.0000 0.0000 0.0000 0.0000 0.0000 13.6559
#
#
#
# Elastic Compliance Matrix: (Units=1/GPa)
#
#
# Indices 1 2 3 4 5 6 
#
# 1 0.047460 -0.004408 -0.000794 0.000000 0.000000 0.000000
# 2 -0.004408 0.009142 -0.002485 0.000000 0.000000 0.000000
# 3 -0.000794 -0.002485 0.016802 0.000000 0.000000 0.000000
# 4 0.000000 0.000000 0.000000 36.515851 0.000000 0.000000
# 5 0.000000 0.000000 0.000000 0.000000 0.120237 0.000000
# 6 0.000000 0.000000 0.000000 0.000000 0.000000 0.073229
#
#
# Mechanical properties :
#
#
# Convention : Reuss Voigt Hill
#
# Bulk Modulus (GPa) = 17.23223 29.92094 23.57659
# Shear Modulus (GPa) = 0.13581 15.86329 7.99955
#
# Velocity S-wave (km/s) = 0.26999 2.91802 2.07217
# Velocity P-wave (km/s) = 3.05726 5.23581 4.28722
#
# Compressibility (1/GPa) = 0.05803078
#
# Stress axis : x y z
#
# Youngs Moduli (GPa) = 21.07030 109.38840 59.51636
#
# Poissons Ratio (x) = 0.48214 0.04725
# Poissons Ratio (y) = 0.09287 0.14790
# Poissons Ratio (z) = 0.01673 0.27183
#
# Static dielectric constant tensor:
#      x y z
#    x 1.625720 0.000000 0.000000 
#    y 0.000000 1.642810 0.000000 
#    z 0.000000 0.000000 1.654220 
# 
# From -- ./inp_files/17064.got.cif
#   From: 2010.05.17/outbox.cif.g08.bks.cpg/sg65_9_cif.got.tgz:17064.got - 2010.06.03 17:01:31.
