data_PCOD9486712
_publ_section_title
;
Structure prediction by ZEFSAII (Michael W. Deem and Ramdas Pophale) SiO2 
 PCOD9486712
Probable space group: C M M M
;
_chemical_formula_sum "Si O2"
_cell_formula_units_Z 88
_cell_length_a 30.059489
_cell_length_b 8.077021
_cell_length_c 18.208280
_cell_angle_alpha 90.000000
_cell_angle_beta 90.000000
_cell_angle_gamma 90.000000
_cell_volume 4420.808766
_symmetry_space_group_name_H-M "C M M M"
_symmetry_group_IT_number 65
_symmetry_cell_setting 'orthorhombic'
loop_
_space_group_symop_operation_xyz
x,y,z
-x,-y,z
x,-y,-z
-x,y,-z
-x,-y,-z
x,y,-z
-x,y,z
x,-y,z
1/2+x,1/2+y,z
1/2-x,1/2-y,z
1/2+x,1/2-y,-z
1/2-x,1/2+y,-z
1/2-x,1/2-y,-z
1/2+x,1/2+y,-z
1/2-x,1/2+y,z
1/2+x,1/2-y,z
loop_
_atom_site_type_symbol
_atom_site_label
_atom_site_fract_x
_atom_site_fract_y
_atom_site_fract_z
Si Si1 0.897111 0.702672 0.352891
Si Si2 0.663928 0.696834 0.843715
Si Si3 0.930126 0.312044 0.798937
Si Si4 0.051779 0.702337 0.500000
Si Si5 0.199536 0.801651 0.000000
Si Si6 0.000000 0.194596 0.916792
Si Si7 0.798030 0.301550 0.304060
O O1 0.897255 0.500000 0.350131
O O2 0.926830 0.761989 0.283241
O O3 0.920811 0.754181 0.427802
O O4 0.844863 0.751294 0.343128
O O5 0.653587 0.500000 0.845982
O O6 0.620858 0.800052 0.822433
O O7 0.678787 0.754651 0.923650
O O8 0.698479 0.727064 0.778087
O O9 0.945629 0.500000 0.791525
O O10 0.958409 0.236733 0.864746
O O11 0.051211 0.500000 0.500000
O O12 0.000000 0.755397 0.500000
O O13 0.250000 0.750000 0.000000
O O14 0.196264 0.000000 0.000000
O O15 0.000000 0.000000 0.926272
O O16 0.000000 0.268767 0.000000
O O17 0.798930 0.500000 0.299906
O O18 0.750000 0.250000 0.336430
#
# Coordination Sequence:
#
# PCOD9486712 Si02
#       7
#    16  16  16   8   8   8  16
#     4   8  17  32  51  82 117 144 178 228 278 333
#     4  10  20  35  53  75 105 142 181 224 276 334
#     4  10  21  37  57  82 111 143 182 232 281 331
#     4   9  16  28  53  84 114 148 180 220 281 340
#     4  10  22  34  48  71 100 133 172 222 269 318
#     4  11  25  41  57  78 107 146 192 239 283 335
#     4  10  19  33  52  77 109 144 186 232 277 330
#
# _framework density 19.905860000000001
#
# number of rings (size 3 to 8) (size 9 to 14) (size 15 to 20)
#    0.000    2.364    0.000    3.545    2.545    3.636 
#    0.000    0.455    0.000    0.000    0.000   22.909 
#    0.000    0.000    0.000    0.000    0.000    0.000 
#
# Total GULP energy -245174.846084 kJ/mol
# GULP energy per Si atom -5572.155593 kJ/mol
# Density = 1.986055 g / cm^3
# Si number density = 19.905860 Si / 1000 Ang^3
#
#
#
# Elastic Constant Matrix: (Units=GPa)
#
#
# Indices 1 2 3 4 5 6 
#
# 1 111.9498 6.8164 77.0300 0.0000 0.0000 0.0000
# 2 6.8164 27.2890 11.4717 0.0000 0.0000 0.0000
# 3 77.0300 11.4717 184.4872 0.0000 0.0000 0.0000
# 4 0.0000 0.0000 0.0000 -86.4063 0.0000 0.0000
# 5 0.0000 0.0000 0.0000 0.0000 23.1952 0.0000
# 6 0.0000 0.0000 0.0000 0.0000 0.0000 29.6956
#
#
#
# Elastic Compliance Matrix: (Units=1/GPa)
#
#
# Indices 1 2 3 4 5 6 
#
# 1 0.012558 -0.000958 -0.005184 0.000000 0.000000 0.000000
# 2 -0.000958 0.037701 -0.001945 0.000000 0.000000 0.000000
# 3 -0.005184 -0.001945 0.007706 0.000000 0.000000 0.000000
# 4 0.000000 0.000000 0.000000 -0.011573 0.000000 0.000000
# 5 0.000000 0.000000 0.000000 0.000000 0.043112 0.000000
# 6 0.000000 0.000000 0.000000 0.000000 0.000000 0.033675
#
#
# Mechanical properties :
#
#
# Convention : Reuss Voigt Hill
#
# Bulk Modulus (GPa) = 23.92734 57.15136 40.53935
# Shear Modulus (GPa) = 32.61967 8.52409 20.57188
#
# Velocity S-wave (km/s) = 4.05247 2.07159 3.21823
# Velocity P-wave (km/s) = 5.82607 5.87326 5.84971
#
# Compressibility (1/GPa) = 0.04179319
#
# Stress axis : x y z
#
# Youngs Moduli (GPa) = 79.63246 26.52420 129.77339
#
# Poissons Ratio (x) = 0.02540 0.67271
# Poissons Ratio (y) = 0.07625 0.25235
# Poissons Ratio (z) = 0.41279 0.05158
#
# Static dielectric constant tensor:
#      x y z
#    x 1.725150 0.000000 0.000000 
#    y 0.000000 1.765670 0.000000 
#    z 0.000000 0.000000 1.628940 
# 
# From -- ./inp_files/58081.got.cif
#   From: 2010.05.17/outbox.cif.g08.bks.cpg/sg65_30_cif.got.tgz:58081.got - 2010.06.03 17:01:31.
