data_PCOD9486169
_publ_section_title
;
Structure prediction by ZEFSAII (Michael W. Deem and Ramdas Pophale) SiO2 
 PCOD9486169
Probable space group: C M M M
;
_chemical_formula_sum "Si O2"
_cell_formula_units_Z 72
_cell_length_a 8.668618
_cell_length_b 27.696376
_cell_length_c 16.410585
_cell_angle_alpha 90.000000
_cell_angle_beta 90.000000
_cell_angle_gamma 90.000000
_cell_volume 3940.005923
_symmetry_space_group_name_H-M "C M M M"
_symmetry_group_IT_number 65
_symmetry_cell_setting 'orthorhombic'
loop_
_space_group_symop_operation_xyz
x,y,z
-x,-y,z
x,-y,-z
-x,y,-z
-x,-y,-z
x,y,-z
-x,y,z
x,-y,z
1/2+x,1/2+y,z
1/2-x,1/2-y,z
1/2+x,1/2-y,-z
1/2-x,1/2+y,-z
1/2-x,1/2-y,-z
1/2+x,1/2+y,-z
1/2-x,1/2+y,z
1/2+x,1/2-y,z
loop_
_atom_site_type_symbol
_atom_site_label
_atom_site_fract_x
_atom_site_fract_y
_atom_site_fract_z
Si Si1 0.685678 0.347429 0.334345
Si Si2 0.814251 0.946634 0.253026
Si Si3 0.315533 0.199016 0.172313
Si Si4 0.314300 0.097948 0.091532
Si Si5 0.315903 0.195885 0.500000
O O1 0.500000 0.345207 0.337998
O O2 0.734734 0.401917 0.309719
O O3 0.744092 0.313797 0.260461
O O4 0.755755 0.330619 0.419175
O O5 0.757464 0.934599 0.162100
O O6 0.000000 0.946379 0.252906
O O7 0.761048 0.000000 0.278099
O O8 0.500000 0.201775 0.179442
O O9 0.250000 0.250000 0.143307
O O10 0.277154 0.153572 0.114533
O O11 0.500000 0.093247 0.094968
O O12 0.263015 0.086475 0.000000
O O13 0.500000 0.197571 0.500000
O O14 0.250000 0.250000 0.500000
#
# Coordination Sequence:
#
# PCOD9486169 Si02
#       5
#    16  16  16  16   8
#     4  10  20  36  56  78 105 136 172 211 253 303
#     4   9  19  36  57  79 103 134 172 214 259 305
#     4  10  19  32  50  72 101 137 175 214 258 308
#     4   9  19  34  50  72 103 137 174 216 260 308
#     4  12  24  38  57  82 111 139 170 207 249 298
#
# _framework density 18.274083999999998
#
# number of rings (size 3 to 8) (size 9 to 14) (size 15 to 20)
#    0.000    2.222    0.000    3.000    0.000    3.556 
#    0.000    2.778    0.000    3.333    0.000    0.000 
#    0.000    0.000    0.000    0.000    0.000    0.000 
#
# Total GULP energy -200971.681257 kJ/mol
# GULP energy per Si atom -5582.546702 kJ/mol
# Density = 1.823249 g / cm^3
# Si number density = 18.274084 Si / 1000 Ang^3
#
#
#
# Elastic Constant Matrix: (Units=GPa)
#
#
# Indices 1 2 3 4 5 6 
#
# 1 45.0813 21.1466 19.4003 0.0000 0.0000 0.0000
# 2 21.1466 109.7013 28.3361 0.0000 0.0000 0.0000
# 3 19.4003 28.3361 98.9455 0.0000 0.0000 0.0000
# 4 0.0000 0.0000 0.0000 5.6574 0.0000 0.0000
# 5 0.0000 0.0000 0.0000 0.0000 26.4455 0.0000
# 6 0.0000 0.0000 0.0000 0.0000 0.0000 23.3516
#
#
#
# Elastic Compliance Matrix: (Units=1/GPa)
#
#
# Indices 1 2 3 4 5 6 
#
# 1 0.025717 -0.003947 -0.003912 0.000000 0.000000 0.000000
# 2 -0.003947 0.010450 -0.002219 0.000000 0.000000 0.000000
# 3 -0.003912 -0.002219 0.011509 0.000000 0.000000 0.000000
# 4 0.000000 0.000000 0.000000 0.176760 0.000000 0.000000
# 5 0.000000 0.000000 0.000000 0.000000 0.037814 0.000000
# 6 0.000000 0.000000 0.000000 0.000000 0.000000 0.042824
#
#
# Mechanical properties :
#
#
# Convention : Reuss Voigt Hill
#
# Bulk Modulus (GPa) = 36.33669 43.49935 39.91802
# Shear Modulus (GPa) = 14.95207 23.41392 19.18299
#
# Velocity S-wave (km/s) = 2.86354 3.58336 3.24348
# Velocity P-wave (km/s) = 5.55523 6.40126 5.99319
#
# Compressibility (1/GPa) = 0.02752039
#
# Stress axis : x y z
#
# Youngs Moduli (GPa) = 38.88476 95.69769 86.88855
#
# Poissons Ratio (x) = 0.37771 0.33991
# Poissons Ratio (y) = 0.15347 0.19278
# Poissons Ratio (z) = 0.15212 0.21232
#
# Static dielectric constant tensor:
#      x y z
#    x 1.614740 0.000000 0.000000 
#    y 0.000000 1.643100 0.000000 
#    z 0.000000 0.000000 1.594180 
# 
# From -- ./inp_files/36510.got.cif
#   From: 2010.05.17/outbox.cif.g08.bks.cpg/sg65_19_cif.got.tgz:36510.got - 2010.06.03 17:01:31.
