data_PCOD9486293
_publ_section_title
;
Structure prediction by ZEFSAII (Michael W. Deem and Ramdas Pophale) SiO2 
 PCOD9486293
Probable space group: C M M M
;
_chemical_formula_sum "Si O2"
_cell_formula_units_Z 96
_cell_length_a 8.827781
_cell_length_b 19.131309
_cell_length_c 32.252141
_cell_angle_alpha 90.000000
_cell_angle_beta 90.000000
_cell_angle_gamma 90.000000
_cell_volume 5446.967534
_symmetry_space_group_name_H-M "C M M M"
_symmetry_group_IT_number 65
_symmetry_cell_setting 'orthorhombic'
loop_
_space_group_symop_operation_xyz
x,y,z
-x,-y,z
x,-y,-z
-x,y,-z
-x,-y,-z
x,y,-z
-x,y,z
x,-y,z
1/2+x,1/2+y,z
1/2-x,1/2-y,z
1/2+x,1/2-y,-z
1/2-x,1/2+y,-z
1/2-x,1/2-y,-z
1/2+x,1/2+y,-z
1/2-x,1/2+y,z
1/2+x,1/2-y,z
loop_
_atom_site_type_symbol
_atom_site_label
_atom_site_fract_x
_atom_site_fract_y
_atom_site_fract_z
Si Si1 0.684209 0.580827 0.545941
Si Si2 0.319603 0.172672 0.289112
Si Si3 0.182964 0.827518 0.375720
Si Si4 0.673285 0.085083 0.130597
Si Si5 0.677748 0.583628 0.783388
Si Si6 0.678087 0.584908 0.045571
O O1 0.733319 0.605227 0.500000
O O2 0.500000 0.581746 0.545885
O O3 0.730234 0.500000 0.550735
O O4 0.731963 0.626907 0.584804
O O5 0.500000 0.177892 0.293192
O O6 0.250000 0.250000 0.282775
O O7 0.247534 0.144959 0.332082
O O8 0.272901 0.124105 0.250973
O O9 0.250000 0.750000 0.380383
O O10 0.000000 0.825160 0.373807
O O11 0.500000 0.106535 0.136772
O O12 0.772376 0.105310 0.170297
O O13 0.735205 0.110164 0.086260
O O14 0.676928 0.000000 0.129201
O O15 0.500000 0.597511 0.777292
O O16 0.702142 0.500000 0.779922
O O17 0.500000 0.601564 0.049101
O O18 0.688595 0.500000 0.045518
O O19 0.732905 0.608479 0.000000
#
# Coordination Sequence:
#
# PCOD9486293 Si02
#       6
#    16  16  16  16  16  16
#     4   8  15  29  49  73 100 130 165 203 240 281
#     4  11  22  37  55  74 100 131 165 206 251 298
#     4  10  19  32  51  74  99 128 162 200 244 292
#     4   9  16  25  38  59  88 120 155 197 244 291
#     4  10  20  34  52  73  98 129 165 203 246 298
#     4   8  13  21  33  50  76 114 157 196 237 288
#
# _framework density 17.624485
#
# number of rings (size 3 to 8) (size 9 to 14) (size 15 to 20)
#    0.000    2.667    0.000    5.000    0.000    4.333 
#    0.000    3.333    0.000    3.000    0.000    4.667 
#    0.000    0.667    0.000    2.500    0.000    5.833 
#
# Total GULP energy -267511.818499 kJ/mol
# GULP energy per Si atom -5573.162885 kJ/mol
# Density = 1.758437 g / cm^3
# Si number density = 17.624485 Si / 1000 Ang^3
#
#
#
# Elastic Constant Matrix: (Units=GPa)
#
#
# Indices 1 2 3 4 5 6 
#
# 1 80.6955 19.4551 47.8009 0.0000 0.0000 0.0000
# 2 19.4551 15.9564 37.5747 0.0000 0.0000 0.0000
# 3 47.8009 37.5747 151.1067 0.0000 0.0000 0.0000
# 4 0.0000 0.0000 0.0000 -29.4003 0.0000 0.0000
# 5 0.0000 0.0000 0.0000 0.0000 24.6463 0.0000
# 6 0.0000 0.0000 0.0000 0.0000 0.0000 16.6139
#
#
#
# Elastic Compliance Matrix: (Units=1/GPa)
#
#
# Indices 1 2 3 4 5 6 
#
# 1 0.017571 -0.020111 -0.000558 0.000000 0.000000 0.000000
# 2 -0.020111 0.174236 -0.036964 0.000000 0.000000 0.000000
# 3 -0.000558 -0.036964 0.015986 0.000000 0.000000 0.000000
# 4 0.000000 0.000000 0.000000 -0.034013 0.000000 0.000000
# 5 0.000000 0.000000 0.000000 0.000000 0.040574 0.000000
# 6 0.000000 0.000000 0.000000 0.000000 0.000000 0.060191
#
#
# Mechanical properties :
#
#
# Convention : Reuss Voigt Hill
#
# Bulk Modulus (GPa) = 10.80760 50.82445 30.81603
# Shear Modulus (GPa) = 11.88631 11.90050 11.89341
#
# Velocity S-wave (km/s) = 2.59978 2.60133 2.60055
# Velocity P-wave (km/s) = 3.89323 6.15813 5.15169
#
# Compressibility (1/GPa) = 0.09252745
#
# Stress axis : x y z
#
# Youngs Moduli (GPa) = 56.91145 5.73935 62.55528
#
# Poissons Ratio (x) = 0.11542 0.03488
# Poissons Ratio (y) = 1.14454 2.31230
# Poissons Ratio (z) = 0.03173 0.21215
#
# Static dielectric constant tensor:
#      x y z
#    x 1.595710 0.000000 0.000000 
#    y 0.000000 1.582210 0.000000 
#    z 0.000000 0.000000 1.618060 
# 
# From -- ./inp_files/73118.got.cif
#   From: 2010.05.17/outbox.cif.g08.bks.cpg/sg65_37_cif.got.tgz:73118.got - 2010.06.03 17:01:31.
