data_PCOD9486431
_publ_section_title
;
Structure prediction by ZEFSAII (Michael W. Deem and Ramdas Pophale) SiO2 
 PCOD9486431
Probable space group: C M M M
;
_chemical_formula_sum "Si O2"
_cell_formula_units_Z 120
_cell_length_a 27.376059
_cell_length_b 8.893059
_cell_length_c 28.435826
_cell_angle_alpha 90.000000
_cell_angle_beta 90.000000
_cell_angle_gamma 90.000000
_cell_volume 6922.898271
_symmetry_space_group_name_H-M "C M M M"
_symmetry_group_IT_number 65
_symmetry_cell_setting 'orthorhombic'
loop_
_space_group_symop_operation_xyz
x,y,z
-x,-y,z
x,-y,-z
-x,y,-z
-x,-y,-z
x,y,-z
-x,y,z
x,-y,z
1/2+x,1/2+y,z
1/2-x,1/2-y,z
1/2+x,1/2-y,-z
1/2-x,1/2+y,-z
1/2-x,1/2-y,-z
1/2+x,1/2+y,-z
1/2-x,1/2+y,z
1/2+x,1/2-y,z
loop_
_atom_site_type_symbol
_atom_site_label
_atom_site_fract_x
_atom_site_fract_y
_atom_site_fract_z
Si Si1 0.799837 0.821489 0.232480
Si Si2 0.401337 0.181888 0.608116
Si Si3 0.650004 0.180130 0.143406
Si Si4 0.601609 0.321711 0.289348
Si Si5 0.500000 0.816683 0.445859
Si Si6 0.303734 0.320513 0.053845
Si Si7 0.945670 0.319972 0.799999
Si Si8 0.698149 0.181035 0.444674
O O1 0.750000 0.750000 0.250432
O O2 0.813352 0.745621 0.182715
O O3 0.844469 0.792687 0.267925
O O4 0.794998 0.000000 0.226113
O O5 0.404126 0.242729 0.660838
O O6 0.449955 0.230392 0.579859
O O7 0.350303 0.229721 0.583565
O O8 0.401199 0.000000 0.608648
O O9 0.661769 0.250190 0.093180
O O10 0.596417 0.221193 0.163074
O O11 0.654550 0.000000 0.141683
O O12 0.595160 0.500000 0.294149
O O13 0.565632 0.257894 0.249577
O O14 0.500000 0.767870 0.500000
O O15 0.500000 0.000000 0.445625
O O16 0.300803 0.500000 0.059614
O O17 0.250000 0.250000 0.060320
O O18 0.318992 0.288235 0.000000
O O19 0.942490 0.500000 0.793075
O O20 0.000000 0.282253 0.816296
O O21 0.691949 0.219604 0.500000
O O22 0.750000 0.250000 0.428694
O O23 0.701453 0.000000 0.441318
#
# Coordination Sequence:
#
# PCOD9486431 Si02
#       8
#    16  16  16  16   8  16  16  16
#     4  10  20  34  51  71 100 137 174 210 250 300
#     4  10  20  34  54  78 103 132 167 209 255 305
#     4  10  19  32  52  77 103 133 171 215 261 306
#     4  10  22  36  50  74 105 135 166 204 253 304
#     4   9  18  34  57  81 101 127 167 211 252 299
#     4  10  20  33  50  74 106 142 177 213 254 303
#     4   9  19  36  57  77  99 130 171 215 255 302
#     4   9  18  33  53  76 101 131 168 209 252 301
#
# _framework density 17.333780999999998
#
# number of rings (size 3 to 8) (size 9 to 14) (size 15 to 20)
#    0.000    2.333    0.000    2.400    0.933    5.867 
#    0.000    2.667    0.000    2.000    0.000    2.800 
#    0.000    0.000    0.000    0.000    0.000    0.000 
#
# Total GULP energy -334813.417450 kJ/mol
# GULP energy per Si atom -5580.223624 kJ/mol
# Density = 1.729433 g / cm^3
# Si number density = 17.333781 Si / 1000 Ang^3
#
#
#
# Elastic Constant Matrix: (Units=GPa)
#
#
# Indices 1 2 3 4 5 6 
#
# 1 116.7633 36.4635 65.9376 0.0000 0.0000 0.0000
# 2 36.4635 30.7927 42.9792 0.0000 0.0000 0.0000
# 3 65.9376 42.9792 132.0829 0.0000 0.0000 0.0000
# 4 0.0000 0.0000 0.0000 26.2717 0.0000 0.0000
# 5 0.0000 0.0000 0.0000 0.0000 6.6714 0.0000
# 6 0.0000 0.0000 0.0000 0.0000 0.0000 23.0155
#
#
#
# Elastic Compliance Matrix: (Units=1/GPa)
#
#
# Indices 1 2 3 4 5 6 
#
# 1 0.014195 -0.012675 -0.002962 0.000000 0.000000 0.000000
# 2 -0.012675 0.070816 -0.016715 0.000000 0.000000 0.000000
# 3 -0.002962 -0.016715 0.014489 0.000000 0.000000 0.000000
# 4 0.000000 0.000000 0.000000 0.038064 0.000000 0.000000
# 5 0.000000 0.000000 0.000000 0.000000 0.149893 0.000000
# 6 0.000000 0.000000 0.000000 0.000000 0.000000 0.043449
#
#
# Mechanical properties :
#
#
# Convention : Reuss Voigt Hill
#
# Bulk Modulus (GPa) = 28.74037 63.37771 46.05904
# Shear Modulus (GPa) = 12.27871 20.14230 16.21050
#
# Velocity S-wave (km/s) = 2.66441 3.41255 3.06142
# Velocity P-wave (km/s) = 5.10705 7.22287 6.25507
#
# Compressibility (1/GPa) = 0.03479427
#
# Stress axis : x y z
#
# Youngs Moduli (GPa) = 70.44563 14.12120 69.01888
#
# Poissons Ratio (x) = 0.17899 0.20444
# Poissons Ratio (y) = 0.89292 1.15368
# Poissons Ratio (z) = 0.20866 0.23604
#
# Static dielectric constant tensor:
#      x y z
#    x 1.593440 0.000000 0.000000 
#    y 0.000000 1.581170 0.000000 
#    z 0.000000 0.000000 1.561500 
# 
# From -- ./inp_files/76168.got.cif
#   From: 2010.05.17/outbox.cif.g08.bks.cpg/sg65_39_cif.got.tgz:76168.got - 2010.06.03 17:01:31.
