data_PCOD9486544
_publ_section_title
;
Structure prediction by ZEFSAII (Michael W. Deem and Ramdas Pophale) SiO2 
 PCOD9486544
Probable space group: C M M M
;
_chemical_formula_sum "Si O2"
_cell_formula_units_Z 80
_cell_length_a 18.640097
_cell_length_b 8.705637
_cell_length_c 26.768808
_cell_angle_alpha 90.000000
_cell_angle_beta 90.000000
_cell_angle_gamma 90.000000
_cell_volume 4343.879358
_symmetry_space_group_name_H-M "C M M M"
_symmetry_group_IT_number 65
_symmetry_cell_setting 'orthorhombic'
loop_
_space_group_symop_operation_xyz
x,y,z
-x,-y,z
x,-y,-z
-x,y,-z
-x,-y,-z
x,y,-z
-x,y,z
x,-y,z
1/2+x,1/2+y,z
1/2-x,1/2-y,z
1/2+x,1/2-y,-z
1/2-x,1/2+y,-z
1/2-x,1/2-y,-z
1/2+x,1/2+y,-z
1/2-x,1/2+y,z
1/2+x,1/2-y,z
loop_
_atom_site_type_symbol
_atom_site_label
_atom_site_fract_x
_atom_site_fract_y
_atom_site_fract_z
Si Si1 0.669076 0.814740 0.053617
Si Si2 0.831029 0.685030 0.836638
Si Si3 0.170321 0.317546 0.649259
Si Si4 0.915749 0.815679 0.442370
Si Si5 0.416215 0.315831 0.742878
O O1 0.750000 0.750000 0.053370
O O2 0.639388 0.770454 0.108022
O O3 0.672081 0.000000 0.053570
O O4 0.635732 0.767042 0.000000
O O5 0.828300 0.500000 0.833324
O O6 0.750000 0.750000 0.832353
O O7 0.878695 0.751188 0.792402
O O8 0.173317 0.500000 0.653440
O O9 0.250000 0.250000 0.651764
O O10 0.133091 0.268567 0.597538
O O11 0.123833 0.250125 0.694621
O O12 0.898967 0.776716 0.500000
O O13 0.000000 0.781024 0.433797
O O14 0.907338 0.000000 0.436784
O O15 0.500000 0.273778 0.741653
O O16 0.410421 0.500000 0.742399
#
# Coordination Sequence:
#
# PCOD9486544 Si02
#       5
#    16  16  16  16  16
#     4   8  14  25  43  70 103 137 172 212 260 312
#     4  10  19  32  53  80 110 141 177 222 268 319
#     4  12  25  40  60  85 114 146 183 228 274 322
#     4   9  19  38  63  89 119 154 188 223 267 319
#     4  11  24  41  59  78 105 141 180 224 275 330
#
# _framework density 18.416716999999998
#
# number of rings (size 3 to 8) (size 9 to 14) (size 15 to 20)
#    0.000    2.000    0.000    4.800    0.000    6.000 
#    0.000    1.000    0.000    0.600    0.000    4.200 
#    0.000    0.000    0.000    0.000    0.000    0.000 
#
# Total GULP energy -223228.012739 kJ/mol
# GULP energy per Si atom -5580.700318 kJ/mol
# Density = 1.837480 g / cm^3
# Si number density = 18.416717 Si / 1000 Ang^3
#
#
#
# Elastic Constant Matrix: (Units=GPa)
#
#
# Indices 1 2 3 4 5 6 
#
# 1 111.6623 57.5857 102.1603 0.0000 0.0000 0.0000
# 2 57.5857 65.4177 64.9448 0.0000 0.0000 0.0000
# 3 102.1603 64.9448 177.8000 0.0000 0.0000 0.0000
# 4 0.0000 0.0000 0.0000 37.7731 0.0000 0.0000
# 5 0.0000 0.0000 0.0000 0.0000 263.9114 0.0000
# 6 0.0000 0.0000 0.0000 0.0000 0.0000 25.6462
#
#
#
# Elastic Compliance Matrix: (Units=1/GPa)
#
#
# Indices 1 2 3 4 5 6 
#
# 1 0.023197 -0.011277 -0.009209 0.000000 0.000000 0.000000
# 2 -0.011277 0.029466 -0.004283 0.000000 0.000000 0.000000
# 3 -0.009209 -0.004283 0.012480 0.000000 0.000000 0.000000
# 4 0.000000 0.000000 0.000000 0.026474 0.000000 0.000000
# 5 0.000000 0.000000 0.000000 0.000000 0.003789 0.000000
# 6 0.000000 0.000000 0.000000 0.000000 0.000000 0.038992
#
#
# Mechanical properties :
#
#
# Convention : Reuss Voigt Hill
#
# Bulk Modulus (GPa) = 64.08778 89.36239 76.72508
# Shear Modulus (GPa) = 26.43563 74.14543 50.29053
#
# Velocity S-wave (km/s) = 3.79280 6.35195 5.23128
# Velocity P-wave (km/s) = 7.35219 10.12048 8.84530
#
# Compressibility (1/GPa) = 0.01560360
#
# Stress axis : x y z
#
# Youngs Moduli (GPa) = 43.10914 33.93787 80.12549
#
# Poissons Ratio (x) = 0.38271 0.73791
# Poissons Ratio (y) = 0.48614 0.34321
# Poissons Ratio (z) = 0.39701 0.14537
#
# Static dielectric constant tensor:
#      x y z
#    x 1.598710 0.000000 0.000000 
#    y 0.000000 1.624280 0.000000 
#    z 0.000000 0.000000 1.662060 
# 
# From -- ./inp_files/72763.got.cif
#   From: 2010.05.17/outbox.cif.g08.bks.cpg/sg65_37_cif.got.tgz:72763.got - 2010.06.03 17:01:31.
