data_PCOD9486634
_publ_section_title
;
Structure prediction by ZEFSAII (Michael W. Deem and Ramdas Pophale) SiO2 
 PCOD9486634
Probable space group: C M M M
;
_chemical_formula_sum "Si O2"
_cell_formula_units_Z 104
_cell_length_a 23.282572
_cell_length_b 31.346521
_cell_length_c 7.651636
_cell_angle_alpha 90.000000
_cell_angle_beta 90.000000
_cell_angle_gamma 90.000000
_cell_volume 5584.375384
_symmetry_space_group_name_H-M "C M M M"
_symmetry_group_IT_number 65
_symmetry_cell_setting 'orthorhombic'
loop_
_space_group_symop_operation_xyz
x,y,z
-x,-y,z
x,-y,-z
-x,y,-z
-x,-y,-z
x,y,-z
-x,y,z
x,-y,z
1/2+x,1/2+y,z
1/2-x,1/2-y,z
1/2+x,1/2-y,-z
1/2-x,1/2+y,-z
1/2-x,1/2-y,-z
1/2+x,1/2+y,-z
1/2-x,1/2+y,z
1/2+x,1/2-y,z
loop_
_atom_site_type_symbol
_atom_site_label
_atom_site_fract_x
_atom_site_fract_y
_atom_site_fract_z
Si Si1 0.566941 0.121988 0.286299
Si Si2 0.651038 0.951695 0.290623
Si Si3 0.434225 0.307889 0.791202
Si Si4 0.000000 0.049014 0.290505
Si Si5 0.282012 0.451470 0.210771
Si Si6 0.933689 0.715439 0.290155
Si Si7 0.887183 0.103827 0.792015
O O1 0.567707 0.121415 0.500000
O O2 0.500000 0.117381 0.235663
O O3 0.606584 0.083473 0.223390
O O4 0.588628 0.169195 0.231483
O O5 0.643725 0.953594 0.500000
O O6 0.716940 0.939256 0.255712
O O7 0.642390 0.000000 0.222307
O O8 0.500000 0.308749 0.721685
O O9 0.407966 0.261099 0.759424
O O10 0.400491 0.348915 0.721585
O O11 0.438240 0.312821 0.000000
O O12 0.943340 0.074500 0.232986
O O13 0.000000 0.048048 0.500000
O O14 0.000000 0.000000 0.226424
O O15 0.291513 0.500000 0.274463
O O16 0.331087 0.420025 0.279015
O O17 0.286092 0.452625 0.000000
O O18 0.934587 0.714402 0.500000
O O19 0.000000 0.716928 0.227519
O O20 0.878258 0.108228 0.000000
#
# Coordination Sequence:
#
# PCOD9486634 Si02
#       7
#    16  16  16   8  16  16  16
#     4   8  14  26  45  70  97 122 150 182 220 271
#     4   9  17  29  47  70  94 120 150 188 230 268
#     4   9  16  27  43  65  90 112 143 190 234 268
#     4  11  23  33  43  67  99 123 147 191 244 281
#     4   9  18  32  49  66  85 117 159 193 222 269
#     4   8  14  25  42  63  88 119 149 178 218 270
#     4  10  19  33  50  66  87 121 160 193 231 279
#
# _framework density 18.623389
#
# number of rings (size 3 to 8) (size 9 to 14) (size 15 to 20)
#    0.000    3.000    0.769    1.615    0.000    2.769 
#    0.000    3.846    0.000    2.308    0.000    8.615 
#    0.000    0.000    0.000    0.000    0.000    0.000 
#
# Total GULP energy -289697.489557 kJ/mol
# GULP energy per Si atom -5571.105568 kJ/mol
# Density = 1.858100 g / cm^3
# Si number density = 18.623389 Si / 1000 Ang^3
#
#
#
# Elastic Constant Matrix: (Units=GPa)
#
#
# Indices 1 2 3 4 5 6 
#
# 1 96.2370 105.3838 -0.6988 0.0000 0.0000 0.0000
# 2 105.3838 193.6829 3.6327 0.0000 0.0000 0.0000
# 3 -0.6988 3.6327 31.8421 0.0000 0.0000 0.0000
# 4 0.0000 0.0000 0.0000 25.2109 0.0000 0.0000
# 5 0.0000 0.0000 0.0000 0.0000 15.8615 0.0000
# 6 0.0000 0.0000 0.0000 0.0000 0.0000 29.6132
#
#
#
# Elastic Compliance Matrix: (Units=1/GPa)
#
#
# Indices 1 2 3 4 5 6 
#
# 1 0.025859 -0.014111 0.002177 0.000000 0.000000 0.000000
# 2 -0.014111 0.012874 -0.001778 0.000000 0.000000 0.000000
# 3 0.002177 -0.001778 0.031656 0.000000 0.000000 0.000000
# 4 0.000000 0.000000 0.000000 0.039665 0.000000 0.000000
# 5 0.000000 0.000000 0.000000 0.000000 0.063046 0.000000
# 6 0.000000 0.000000 0.000000 0.000000 0.000000 0.033769
#
#
# Mechanical properties :
#
#
# Convention : Reuss Voigt Hill
#
# Bulk Modulus (GPa) = 23.27487 59.82194 41.54841
# Shear Modulus (GPa) = 20.11155 28.36672 24.23913
#
# Velocity S-wave (km/s) = 3.28976 3.90702 3.61160
# Velocity P-wave (km/s) = 5.19180 7.24878 6.30474
#
# Compressibility (1/GPa) = 0.04296479
#
# Stress axis : x y z
#
# Youngs Moduli (GPa) = 38.67186 77.67537 31.59000
#
# Poissons Ratio (x) = 1.09605 -0.06878
# Poissons Ratio (y) = 0.54568 0.05618
# Poissons Ratio (z) = -0.08420 0.13814
#
# Static dielectric constant tensor:
#      x y z
#    x 1.611510 0.000000 0.000000 
#    y 0.000000 1.691490 0.000000 
#    z 0.000000 0.000000 1.699970 
# 
# From -- ./inp_files/15032.got.cif
#   From: 2010.05.17/outbox.cif.g08.bks.cpg/sg65_8_cif.got.tgz:15032.got - 2010.06.03 17:01:31.
