data_PCOD9486336
_publ_section_title
;
Structure prediction by ZEFSAII (Michael W. Deem and Ramdas Pophale) SiO2 
 PCOD9486336
Probable space group: C M M M
;
_chemical_formula_sum "Si O2"
_cell_formula_units_Z 72
_cell_length_a 16.340907
_cell_length_b 21.163946
_cell_length_c 8.541764
_cell_angle_alpha 90.000000
_cell_angle_beta 90.000000
_cell_angle_gamma 90.000000
_cell_volume 2954.067205
_symmetry_space_group_name_H-M "C M M M"
_symmetry_group_IT_number 65
_symmetry_cell_setting 'orthorhombic'
loop_
_space_group_symop_operation_xyz
x,y,z
-x,-y,z
x,-y,-z
-x,y,-z
-x,-y,-z
x,y,-z
-x,y,z
x,-y,z
1/2+x,1/2+y,z
1/2-x,1/2-y,z
1/2+x,1/2-y,-z
1/2-x,1/2+y,-z
1/2-x,1/2-y,-z
1/2+x,1/2+y,-z
1/2-x,1/2+y,z
1/2+x,1/2-y,z
loop_
_atom_site_type_symbol
_atom_site_label
_atom_site_fract_x
_atom_site_fract_y
_atom_site_fract_z
Si Si1 0.000000 0.576517 0.321845
Si Si2 0.848599 0.753194 0.000000
Si Si3 0.596767 0.399966 0.000000
Si Si4 0.150739 0.249106 0.333916
Si Si5 0.826334 0.423546 0.179236
Si Si6 0.661291 0.397482 0.672521
O O1 0.917170 0.592794 0.232476
O O2 0.000000 0.500000 0.328308
O O3 0.000000 0.599312 0.500000
O O4 0.750000 0.750000 0.000000
O O5 0.877478 0.725733 0.165757
O O6 0.872745 0.827111 0.000000
O O7 0.627643 0.427156 0.166312
O O8 0.500000 0.402223 0.000000
O O9 0.122467 0.276563 0.500000
O O10 0.250000 0.250000 0.334335
O O11 0.129189 0.174486 0.333494
O O12 0.818677 0.500000 0.184755
O O13 0.758691 0.396056 0.295950
O O14 0.809766 0.403577 0.000000
O O15 0.645080 0.425321 0.500000
#
# Coordination Sequence:
#
# PCOD9486336 Si02
#       6
#     8   8   8  16  16  16
#     4   9  17  29  47  75 107 139 177 218 259 309
#     4   8  14  26  46  71  93 126 159 201 252 301
#     4  10  20  34  51  77 106 134 175 226 272 319
#     4   8  14  25  43  70  95 121 162 203 245 295
#     4  10  19  32  51  76 107 141 177 218 264 318
#     4  10  19  32  52  77 102 137 178 220 265 317
#
# _framework density 24.373176999999998
#
# number of rings (size 3 to 8) (size 9 to 14) (size 15 to 20)
#    0.000    2.778    1.111    1.000    0.000    3.111 
#    0.000    0.000    0.000    1.333   46.222    1.556 
#    0.000    0.000    0.000    0.000    0.000    0.000 
#
# Total GULP energy -201045.172960 kJ/mol
# GULP energy per Si atom -5584.588138 kJ/mol
# Density = 2.431770 g / cm^3
# Si number density = 24.373177 Si / 1000 Ang^3
#
#
#
# Elastic Constant Matrix: (Units=GPa)
#
#
# Indices 1 2 3 4 5 6 
#
# 1 92.2066 12.4265 38.4604 0.0000 0.0000 0.0000
# 2 12.4265 91.1283 29.8429 0.0000 0.0000 0.0000
# 3 38.4604 29.8429 300.9054 0.0000 0.0000 0.0000
# 4 0.0000 0.0000 0.0000 1.3900 0.0000 0.0000
# 5 0.0000 0.0000 0.0000 0.0000 2.1154 0.0000
# 6 0.0000 0.0000 0.0000 0.0000 0.0000 19.8940
#
#
#
# Elastic Compliance Matrix: (Units=1/GPa)
#
#
# Indices 1 2 3 4 5 6 
#
# 1 0.011567 -0.001130 -0.001366 0.000000 0.000000 0.000000
# 2 -0.001130 0.011452 -0.000991 0.000000 0.000000 0.000000
# 3 -0.001366 -0.000991 0.003596 0.000000 0.000000 0.000000
# 4 0.000000 0.000000 0.000000 0.719422 0.000000 0.000000
# 5 0.000000 0.000000 0.000000 0.000000 0.472728 0.000000
# 6 0.000000 0.000000 0.000000 0.000000 0.000000 0.050266
#
#
# Mechanical properties :
#
#
# Convention : Reuss Voigt Hill
#
# Bulk Modulus (GPa) = 50.91499 71.74443 61.32971
# Shear Modulus (GPa) = 3.89847 31.58059 17.73953
#
# Velocity S-wave (km/s) = 1.26608 3.60350 2.70076
# Velocity P-wave (km/s) = 4.80337 6.84203 5.91125
#
# Compressibility (1/GPa) = 0.01964058
#
# Stress axis : x y z
#
# Youngs Moduli (GPa) = 86.44960 87.31888 278.06516
#
# Poissons Ratio (x) = 0.09866 0.37996
# Poissons Ratio (y) = 0.09768 0.27567
# Poissons Ratio (z) = 0.11813 0.08657
#
# Static dielectric constant tensor:
#      x y z
#    x 1.844190 0.000000 0.000000 
#    y 0.000000 1.888730 0.000000 
#    z 0.000000 0.000000 1.994550 
# 
# From -- ./inp_files/7406.got.cif
#   From: 2010.05.17/outbox.cif.g08.bks.cpg/sg65_4_cif.got.tgz:7406.got - 2010.06.03 17:01:31.
