data_PCOD9486772
_publ_section_title
;
Structure prediction by ZEFSAII (Michael W. Deem and Ramdas Pophale) SiO2 
 PCOD9486772
Probable space group: C M M M
;
_chemical_formula_sum "Si O2"
_cell_formula_units_Z 88
_cell_length_a 18.297401
_cell_length_b 28.357498
_cell_length_c 7.393098
_cell_angle_alpha 90.000000
_cell_angle_beta 90.000000
_cell_angle_gamma 90.000000
_cell_volume 3836.045760
_symmetry_space_group_name_H-M "C M M M"
_symmetry_group_IT_number 65
_symmetry_cell_setting 'orthorhombic'
loop_
_space_group_symop_operation_xyz
x,y,z
-x,-y,z
x,-y,-z
-x,y,-z
-x,-y,-z
x,y,-z
-x,y,z
x,-y,z
1/2+x,1/2+y,z
1/2-x,1/2-y,z
1/2+x,1/2-y,-z
1/2-x,1/2+y,-z
1/2-x,1/2-y,-z
1/2+x,1/2+y,-z
1/2-x,1/2+y,z
1/2+x,1/2-y,z
loop_
_atom_site_type_symbol
_atom_site_label
_atom_site_fract_x
_atom_site_fract_y
_atom_site_fract_z
Si Si1 0.583878 0.319177 0.280897
Si Si2 0.416551 0.500000 0.279233
Si Si3 0.175726 0.728523 0.209523
Si Si4 0.164508 0.553212 0.212697
Si Si5 0.917720 0.357664 0.221896
Si Si6 0.174804 0.090715 0.281950
O O1 0.584337 0.319149 0.500000
O O2 0.500000 0.327322 0.224120
O O3 0.614833 0.269167 0.218721
O O4 0.638711 0.360540 0.219193
O O5 0.500000 0.500000 0.220706
O O6 0.416214 0.500000 0.500000
O O7 0.374554 0.453211 0.220862
O O8 0.250000 0.750000 0.291132
O O9 0.140875 0.680957 0.286201
O O10 0.192820 0.717753 0.000000
O O11 0.167060 0.500000 0.288547
O O12 0.105418 0.590267 0.283703
O O13 0.242753 0.578810 0.229755
O O14 0.149645 0.548525 0.000000
O O15 0.000000 0.345474 0.276256
O O16 0.916363 0.356964 0.000000
O O17 0.172863 0.091688 0.500000
#
# Coordination Sequence:
#
# PCOD9486772 Si02
#       6
#    16   8  16  16  16  16
#     4  10  21  35  52  78 110 140 175 220 264 307
#     4   9  16  28  49  73  96 129 174 212 243 293
#     4  10  20  35  56  80 106 140 180 217 260 318
#     4  10  20  34  54  79 105 133 169 220 272 311
#     4   9  18  33  53  77 105 138 177 216 256 312
#     4  10  19  33  53  76 103 138 176 212 255 312
#
# _framework density 22.940287999999999
#
# number of rings (size 3 to 8) (size 9 to 14) (size 15 to 20)
#    0.000    2.273    0.909    2.182    0.000    6.182 
#    0.000    2.727    0.000    3.818    0.000    1.273 
#    0.000    0.000    0.000    0.000    0.000    0.000 
#
# Total GULP energy -245934.692314 kJ/mol
# GULP energy per Si atom -5589.424825 kJ/mol
# Density = 2.288808 g / cm^3
# Si number density = 22.940288 Si / 1000 Ang^3
#
#
#
# Elastic Constant Matrix: (Units=GPa)
#
#
# Indices 1 2 3 4 5 6 
#
# 1 117.2420 51.0870 0.2040 0.0000 0.0000 0.0000
# 2 51.0870 146.4052 0.2177 0.0000 0.0000 0.0000
# 3 0.2040 0.2177 80.0517 0.0000 0.0000 0.0000
# 4 0.0000 0.0000 0.0000 5.2512 0.0000 0.0000
# 5 0.0000 0.0000 0.0000 0.0000 16.2736 0.0000
# 6 0.0000 0.0000 0.0000 0.0000 0.0000 45.7073
#
#
#
# Elastic Compliance Matrix: (Units=1/GPa)
#
#
# Indices 1 2 3 4 5 6 
#
# 1 0.010059 -0.003510 -0.000016 0.000000 0.000000 0.000000
# 2 -0.003510 0.008055 -0.000013 0.000000 0.000000 0.000000
# 3 -0.000016 -0.000013 0.012492 0.000000 0.000000 0.000000
# 4 0.000000 0.000000 0.000000 0.190433 0.000000 0.000000
# 5 0.000000 0.000000 0.000000 0.000000 0.061449 0.000000
# 6 0.000000 0.000000 0.000000 0.000000 0.000000 0.021878
#
#
# Mechanical properties :
#
#
# Convention : Reuss Voigt Hill
#
# Bulk Modulus (GPa) = 42.50253 49.63515 46.06884
# Shear Modulus (GPa) = 15.65987 32.92575 24.29281
#
# Velocity S-wave (km/s) = 2.61557 3.79262 3.25769
# Velocity P-wave (km/s) = 5.26206 6.39236 5.85455
#
# Compressibility (1/GPa) = 0.02352801
#
# Stress axis : x y z
#
# Youngs Moduli (GPa) = 99.41530 124.14431 80.05118
#
# Poissons Ratio (x) = 0.43574 0.00129
# Poissons Ratio (y) = 0.34894 0.00104
# Poissons Ratio (z) = 0.00160 0.00161
#
# Static dielectric constant tensor:
#      x y z
#    x 1.810600 0.000000 0.000000 
#    y 0.000000 1.822430 0.000000 
#    z 0.000000 0.000000 1.935710 
# 
# From -- ./inp_files/10045.got.cif
#   From: 2010.05.17/outbox.cif.g08.bks.cpg/sg65_6_cif.got.tgz:10045.got - 2010.06.03 17:01:31.
