data_PCOD9486786
_publ_section_title
;
Structure prediction by ZEFSAII (Michael W. Deem and Ramdas Pophale) SiO2 
 PCOD9486786
Probable space group: C M M M
;
_chemical_formula_sum "Si O2"
_cell_formula_units_Z 80
_cell_length_a 7.684821
_cell_length_b 24.267587
_cell_length_c 21.454109
_cell_angle_alpha 90.000000
_cell_angle_beta 90.000000
_cell_angle_gamma 90.000000
_cell_volume 4001.021030
_symmetry_space_group_name_H-M "C M M M"
_symmetry_group_IT_number 65
_symmetry_cell_setting 'orthorhombic'
loop_
_space_group_symop_operation_xyz
x,y,z
-x,-y,z
x,-y,-z
-x,y,-z
-x,-y,-z
x,y,-z
-x,y,z
x,-y,z
1/2+x,1/2+y,z
1/2-x,1/2-y,z
1/2+x,1/2-y,-z
1/2-x,1/2+y,-z
1/2-x,1/2-y,-z
1/2+x,1/2+y,-z
1/2-x,1/2+y,z
1/2+x,1/2-y,z
loop_
_atom_site_type_symbol
_atom_site_label
_atom_site_fract_x
_atom_site_fract_y
_atom_site_fract_z
Si Si1 0.290680 0.000000 0.900357
Si Si2 0.205793 0.185925 0.193218
Si Si3 0.201950 0.884638 0.306631
Si Si4 0.709196 0.120851 0.067195
Si Si5 0.291758 0.000000 0.752743
Si Si6 0.287160 0.563625 0.429267
O O1 0.224180 0.941943 0.926048
O O2 0.262076 0.000000 0.826499
O O3 0.500000 0.000000 0.911308
O O4 0.250000 0.250000 0.190632
O O5 0.281997 0.156235 0.255084
O O6 0.251917 0.155470 0.128886
O O7 0.000000 0.180333 0.198541
O O8 0.276933 0.895135 0.375650
O O9 0.000000 0.868762 0.315595
O O10 0.211827 0.945117 0.275953
O O11 0.500000 0.117912 0.065306
O O12 0.768993 0.143695 0.000000
O O13 0.500000 0.000000 0.742066
O O14 0.235210 0.577083 0.500000
O O15 0.500000 0.563671 0.427542
O O16 0.234389 0.500000 0.416332
#
# Coordination Sequence:
#
# PCOD9486786 Si02
#       6
#     8  16  16  16   8  16
#     4   9  17  31  52  80 110 136 164 197 246 311
#     4  11  24  39  56  75  99 133 176 223 266 305
#     4  10  19  33  53  77 105 136 173 216 255 299
#     4  10  20  36  58  81 107 138 170 207 252 307
#     4  11  19  28  50  80 108 140 169 203 255 311
#     4   8  13  23  45  77 108 136 166 202 245 297
#
# _framework density 19.994895
#
# number of rings (size 3 to 8) (size 9 to 14) (size 15 to 20)
#    0.000    2.200    3.000    1.800    0.000    2.800 
#    0.000    0.500    0.000    3.000    0.000    0.000 
#    0.000    0.000    0.000    0.000    0.000    0.200 
#
# Total GULP energy -223101.007337 kJ/mol
# GULP energy per Si atom -5577.525183 kJ/mol
# Density = 1.994939 g / cm^3
# Si number density = 19.994895 Si / 1000 Ang^3
#
#
#
# Elastic Constant Matrix: (Units=GPa)
#
#
# Indices 1 2 3 4 5 6 
#
# 1 36.2656 -6.1138 16.5256 0.0000 0.0000 0.0000
# 2 -6.1138 116.7637 91.5449 0.0000 0.0000 0.0000
# 3 16.5256 91.5449 204.8518 0.0000 0.0000 0.0000
# 4 0.0000 0.0000 0.0000 -2.7201 0.0000 0.0000
# 5 0.0000 0.0000 0.0000 0.0000 -40.6044 0.0000
# 6 0.0000 0.0000 0.0000 0.0000 0.0000 -12.6316
#
#
#
# Elastic Compliance Matrix: (Units=1/GPa)
#
#
# Indices 1 2 3 4 5 6 
#
# 1 0.030741 0.005471 -0.004925 0.000000 0.000000 0.000000
# 2 0.005471 0.014157 -0.006768 0.000000 0.000000 0.000000
# 3 -0.004925 -0.006768 0.008303 0.000000 0.000000 0.000000
# 4 0.000000 0.000000 0.000000 -0.367631 0.000000 0.000000
# 5 0.000000 0.000000 0.000000 0.000000 -0.024628 0.000000
# 6 0.000000 0.000000 0.000000 0.000000 0.000000 -0.079167
#
#
# Mechanical properties :
#
#
# Convention : Reuss Voigt Hill
#
# Bulk Modulus (GPa) = 24.53555 62.42159 43.47857
# Shear Modulus (GPa) = -12.74874 5.87041 -3.43917
#
# Velocity S-wave (km/s) = -2.52781 1.71532 -1.31292
# Velocity P-wave (km/s) = 1.94365 5.93377 4.41517
#
# Compressibility (1/GPa) = 0.04075718
#
# Stress axis : x y z
#
# Youngs Moduli (GPa) = 32.53018 70.63747 120.43483
#
# Poissons Ratio (x) = -0.38643 0.59309
# Poissons Ratio (y) = -0.17796 0.81507
# Poissons Ratio (z) = 0.16020 0.47806
#
# Static dielectric constant tensor:
#      x y z
#    x 1.750670 0.000000 0.000000 
#    y 0.000000 1.622770 0.000000 
#    z 0.000000 0.000000 1.761120 
# 
# From -- ./inp_files/59671.got.cif
#   From: 2010.05.17/outbox.cif.g08.bks.cpg/sg65_30_cif.got.tgz:59671.got - 2010.06.03 17:01:31.
