data_PCOD9486327
_publ_section_title
;
Structure prediction by ZEFSAII (Michael W. Deem and Ramdas Pophale) SiO2 
 PCOD9486327
Probable space group: C M M M
;
_chemical_formula_sum "Si O2"
_cell_formula_units_Z 104
_cell_length_a 28.022994
_cell_length_b 17.458968
_cell_length_c 13.351288
_cell_angle_alpha 90.000000
_cell_angle_beta 90.000000
_cell_angle_gamma 90.000000
_cell_volume 6532.151773
_symmetry_space_group_name_H-M "C M M M"
_symmetry_group_IT_number 65
_symmetry_cell_setting 'orthorhombic'
loop_
_space_group_symop_operation_xyz
x,y,z
-x,-y,z
x,-y,-z
-x,y,-z
-x,-y,-z
x,y,-z
-x,y,z
x,-y,z
1/2+x,1/2+y,z
1/2-x,1/2-y,z
1/2+x,1/2-y,-z
1/2-x,1/2+y,-z
1/2-x,1/2-y,-z
1/2+x,1/2+y,-z
1/2-x,1/2+y,z
1/2+x,1/2-y,z
loop_
_atom_site_type_symbol
_atom_site_label
_atom_site_fract_x
_atom_site_fract_y
_atom_site_fract_z
Si Si1 0.557858 0.000000 0.884191
Si Si2 0.206340 0.197557 0.746536
Si Si3 0.141331 0.687638 0.381724
Si Si4 0.945923 0.810019 0.119512
Si Si5 0.231308 0.415266 0.617709
Si Si6 0.143836 0.088611 0.120361
Si Si7 0.943460 0.652454 0.759859
O O1 0.571019 0.077044 0.823542
O O2 0.500000 0.000000 0.888818
O O3 0.574934 0.000000 0.000000
O O4 0.250000 0.250000 0.786488
O O5 0.166861 0.247391 0.686694
O O6 0.232451 0.142744 0.667772
O O7 0.182087 0.144613 0.829400
O O8 0.138955 0.708343 0.500000
O O9 0.177826 0.616618 0.371812
O O10 0.090554 0.664752 0.335342
O O11 0.907375 0.874082 0.146876
O O12 0.937400 0.728828 0.172947
O O13 0.000000 0.834467 0.143219
O O14 0.942801 0.797877 0.000000
O O15 0.241446 0.417390 0.500000
O O16 0.235719 0.500000 0.660784
O O17 0.147771 0.000000 0.152835
O O18 0.148328 0.090130 0.000000
O O19 0.000000 0.645540 0.735591
#
# Coordination Sequence:
#
# PCOD9486327 Si02
#       7
#     8  16  16  16  16  16  16
#     4   9  18  32  51  75 103 135 172 216 253 287
#     4  10  19  34  53  73  96 132 170 212 250 299
#     4  10  20  33  50  74 103 132 168 211 252 297
#     4   9  17  31  52  76 101 130 167 207 246 297
#     4   9  18  32  52  75  96 124 163 210 258 300
#     4  10  20  33  51  77 106 133 164 205 258 311
#     4  10  19  32  51  76 104 137 172 204 250 305
#
# _framework density 15.921246
#
# number of rings (size 3 to 8) (size 9 to 14) (size 15 to 20)
#    0.000    2.385    1.538    1.385    1.077    4.615 
#    0.000    1.538    0.000    1.385    0.000    0.000 
#    0.000    2.462    0.000    0.000    0.000    0.000 
#
# Total GULP energy -289631.568695 kJ/mol
# GULP energy per Si atom -5569.837860 kJ/mol
# Density = 1.588501 g / cm^3
# Si number density = 15.921246 Si / 1000 Ang^3
#
#
#
# Elastic Constant Matrix: (Units=GPa)
#
#
# Indices 1 2 3 4 5 6 
#
# 1 91.3216 54.2183 41.9073 0.0000 0.0000 0.0000
# 2 54.2183 112.1228 36.4830 0.0000 0.0000 0.0000
# 3 41.9073 36.4830 45.5749 0.0000 0.0000 0.0000
# 4 0.0000 0.0000 0.0000 23.1997 0.0000 0.0000
# 5 0.0000 0.0000 0.0000 0.0000 24.1161 0.0000
# 6 0.0000 0.0000 0.0000 0.0000 0.0000 13.0968
#
#
#
# Elastic Compliance Matrix: (Units=1/GPa)
#
#
# Indices 1 2 3 4 5 6 
#
# 1 0.020994 -0.005234 -0.015115 0.000000 0.000000 0.000000
# 2 -0.005234 0.013365 -0.005886 0.000000 0.000000 0.000000
# 3 -0.015115 -0.005886 0.040552 0.000000 0.000000 0.000000
# 4 0.000000 0.000000 0.000000 0.043104 0.000000 0.000000
# 5 0.000000 0.000000 0.000000 0.000000 0.041466 0.000000
# 6 0.000000 0.000000 0.000000 0.000000 0.000000 0.076355
#
#
# Mechanical properties :
#
#
# Convention : Reuss Voigt Hill
#
# Bulk Modulus (GPa) = 44.55992 57.13740 50.84866
# Shear Modulus (GPa) = 16.90419 19.84323 18.37371
#
# Velocity S-wave (km/s) = 3.26197 3.53418 3.40080
# Velocity P-wave (km/s) = 6.49890 7.25392 6.88676
#
# Compressibility (1/GPa) = 0.02244169
#
# Stress axis : x y z
#
# Youngs Moduli (GPa) = 47.63349 74.82302 24.65966
#
# Poissons Ratio (x) = 0.39160 0.37272
# Poissons Ratio (y) = 0.24930 0.14515
# Poissons Ratio (z) = 0.71996 0.44042
#
# Static dielectric constant tensor:
#      x y z
#    x 1.534930 0.000000 0.000000 
#    y 0.000000 1.531430 0.000000 
#    z 0.000000 0.000000 1.512220 
# 
# From -- ./inp_files/27482.got.cif
#   From: 2010.05.17/outbox.cif.g08.bks.cpg/sg65_14_cif.got.tgz:27482.got - 2010.06.03 17:01:31.
