data_PCOD9486462
_publ_section_title
;
Structure prediction by ZEFSAII (Michael W. Deem and Ramdas Pophale) SiO2 
 PCOD9486462
Probable space group: C M M M
;
_chemical_formula_sum "Si O2"
_cell_formula_units_Z 72
_cell_length_a 15.480523
_cell_length_b 8.787695
_cell_length_c 26.724788
_cell_angle_alpha 90.000000
_cell_angle_beta 90.000000
_cell_angle_gamma 90.000000
_cell_volume 3635.589772
_symmetry_space_group_name_H-M "C M M M"
_symmetry_group_IT_number 65
_symmetry_cell_setting 'orthorhombic'
loop_
_space_group_symop_operation_xyz
x,y,z
-x,-y,z
x,-y,-z
-x,y,-z
-x,-y,-z
x,y,-z
-x,y,z
x,-y,z
1/2+x,1/2+y,z
1/2-x,1/2-y,z
1/2+x,1/2-y,-z
1/2-x,1/2+y,-z
1/2-x,1/2-y,-z
1/2+x,1/2+y,-z
1/2-x,1/2+y,z
1/2+x,1/2-y,z
loop_
_atom_site_type_symbol
_atom_site_label
_atom_site_fract_x
_atom_site_fract_y
_atom_site_fract_z
Si Si1 0.396938 0.672617 0.554171
Si Si2 0.152670 0.683610 0.124597
Si Si3 0.654581 0.818480 0.657466
Si Si4 0.500000 0.317891 0.058996
Si Si5 0.653180 0.816597 0.764586
O O1 0.365809 0.734487 0.500000
O O2 0.500000 0.662673 0.550624
O O3 0.362386 0.500000 0.559399
O O4 0.380593 0.762431 0.604711
O O5 0.156714 0.500000 0.121165
O O6 0.250000 0.750000 0.118949
O O7 0.085185 0.748846 0.084982
O O8 0.118362 0.725678 0.180724
O O9 0.750000 0.750000 0.659629
O O10 0.612059 0.771446 0.710986
O O11 0.656365 0.000000 0.656474
O O12 0.500000 0.500000 0.065505
O O13 0.500000 0.283880 0.000000
O O14 0.750000 0.750000 0.764471
O O15 0.657482 0.000000 0.764232
#
# Coordination Sequence:
#
# PCOD9486462 Si02
#       5
#    16  16  16   8  16
#     4   9  19  36  53  68  94 133 175 220 269 321
#     4  10  20  38  64  90 120 159 199 242 295 352
#     4  10  19  32  52  78 106 135 170 216 267 322
#     4  11  25  43  61  87 123 159 202 251 290 337
#     4   8  16  31  52  79 109 141 175 217 270 326
#
# _framework density 19.804214999999999
#
# number of rings (size 3 to 8) (size 9 to 14) (size 15 to 20)
#    0.000    2.556    0.000    2.333    0.000    4.444 
#    2.000    1.111    0.000    0.000    0.000    0.000 
#    0.000    0.000    0.000    0.000    0.000    0.000 
#
# Total GULP energy -200440.923347 kJ/mol
# GULP energy per Si atom -5567.803426 kJ/mol
# Density = 1.975914 g / cm^3
# Si number density = 19.804215 Si / 1000 Ang^3
#
#
#
# Elastic Constant Matrix: (Units=GPa)
#
#
# Indices 1 2 3 4 5 6 
#
# 1 64.2385 26.4321 68.5970 0.0000 0.0000 0.0000
# 2 26.4321 53.2280 79.2966 0.0000 0.0000 0.0000
# 3 68.5970 79.2966 240.8323 0.0000 0.0000 0.0000
# 4 0.0000 0.0000 0.0000 30.2189 0.0000 0.0000
# 5 0.0000 0.0000 0.0000 0.0000 50.2040 0.0000
# 6 0.0000 0.0000 0.0000 0.0000 0.0000 19.8633
#
#
#
# Elastic Compliance Matrix: (Units=1/GPa)
#
#
# Indices 1 2 3 4 5 6 
#
# 1 0.022648 -0.003212 -0.005393 0.000000 0.000000 0.000000
# 2 -0.003212 0.037330 -0.011377 0.000000 0.000000 0.000000
# 3 -0.005393 -0.011377 0.009434 0.000000 0.000000 0.000000
# 4 0.000000 0.000000 0.000000 0.033092 0.000000 0.000000
# 5 0.000000 0.000000 0.000000 0.000000 0.019919 0.000000
# 6 0.000000 0.000000 0.000000 0.000000 0.000000 0.050344
#
#
# Mechanical properties :
#
#
# Convention : Reuss Voigt Hill
#
# Bulk Modulus (GPa) = 33.95693 78.55003 56.25348
# Shear Modulus (GPa) = 22.46720 32.32214 27.39467
#
# Velocity S-wave (km/s) = 3.37184 4.04429 3.72327
# Velocity P-wave (km/s) = 5.68705 7.84587 6.85202
#
# Compressibility (1/GPa) = 0.02944907
#
# Stress axis : x y z
#
# Youngs Moduli (GPa) = 44.15443 26.78790 105.99591
#
# Poissons Ratio (x) = 0.08604 0.57167
# Poissons Ratio (y) = 0.14181 1.20587
# Poissons Ratio (z) = 0.23814 0.30475
#
# Static dielectric constant tensor:
#      x y z
#    x 1.673470 0.000000 0.000000 
#    y 0.000000 1.682790 0.000000 
#    z 0.000000 0.000000 1.784990 
# 
# From -- ./inp_files/72481.got.cif
#   From: 2010.05.17/outbox.cif.g08.bks.cpg/sg65_37_cif.got.tgz:72481.got - 2010.06.03 17:01:31.
