data_PCOD9486945
_publ_section_title
;
Structure prediction by ZEFSAII (Michael W. Deem and Ramdas Pophale) SiO2 
 PCOD9486945
Probable space group: C M M M
;
_chemical_formula_sum "Si O2"
_cell_formula_units_Z 120
_cell_length_a 26.891063
_cell_length_b 8.033146
_cell_length_c 27.824009
_cell_angle_alpha 90.000000
_cell_angle_beta 90.000000
_cell_angle_gamma 90.000000
_cell_volume 6010.537838
_symmetry_space_group_name_H-M "C M M M"
_symmetry_group_IT_number 65
_symmetry_cell_setting 'orthorhombic'
loop_
_space_group_symop_operation_xyz
x,y,z
-x,-y,z
x,-y,-z
-x,y,-z
-x,-y,-z
x,y,-z
-x,y,z
x,-y,z
1/2+x,1/2+y,z
1/2-x,1/2-y,z
1/2+x,1/2-y,-z
1/2-x,1/2+y,-z
1/2-x,1/2-y,-z
1/2+x,1/2+y,-z
1/2-x,1/2+y,z
1/2+x,1/2-y,z
loop_
_atom_site_type_symbol
_atom_site_label
_atom_site_fract_x
_atom_site_fract_y
_atom_site_fract_z
Si Si1 0.500000 0.796327 0.555788
Si Si2 0.838498 0.796518 0.052037
Si Si3 0.444225 0.698944 0.290458
Si Si4 0.804956 0.299227 0.555279
Si Si5 0.901292 0.700049 0.611786
Si Si6 0.554201 0.304638 0.915992
Si Si7 0.589704 0.807022 0.814567
Si Si8 0.696142 0.699124 0.844723
O O1 0.500000 0.746511 0.500000
O O2 0.549814 0.739347 0.583054
O O3 0.500000 0.000000 0.556670
O O4 0.895759 0.738794 0.059187
O O5 0.809333 0.742998 0.099584
O O6 0.838631 0.000000 0.052519
O O7 0.819586 0.741651 0.000000
O O8 0.500000 0.761057 0.301989
O O9 0.444810 0.500000 0.290279
O O10 0.407886 0.756888 0.332529
O O11 0.429847 0.757658 0.237464
O O12 0.810595 0.240448 0.500000
O O13 0.807052 0.500000 0.554399
O O14 0.750000 0.250000 0.572249
O O15 0.850483 0.237689 0.587691
O O16 0.901166 0.500000 0.607496
O O17 0.500000 0.231635 0.927649
O O18 0.552420 0.500000 0.928383
O O19 0.564390 0.289718 0.858840
O O20 0.648685 0.773228 0.817702
O O21 0.579598 0.000000 0.823350
O O22 0.691372 0.500000 0.843573
O O23 0.750000 0.750000 0.826116
#
# Coordination Sequence:
#
# PCOD9486945 Si02
#       8
#     8  16  16  16  16  16  16  16
#     4   9  16  28  51  81 111 143 179 225 274 319
#     4   8  15  28  47  74 107 141 176 213 256 312
#     4  11  23  38  56  79 111 145 176 216 272 331
#     4   9  18  33  54  80 109 144 186 228 268 313
#     4  10  19  33  54  81 111 143 185 228 269 324
#     4   9  17  30  49  74 105 139 176 219 266 315
#     4  11  22  36  56  79 102 134 178 223 268 320
#     4  10  20  36  57  80 107 137 173 219 269 319
#
# _framework density 19.964936000000002
#
# number of rings (size 3 to 8) (size 9 to 14) (size 15 to 20)
#    0.000    2.333    0.667    3.600    0.000    5.333 
#    0.000    2.000    0.000   12.800    0.000    3.733 
#    0.000    0.000    0.000    0.000    0.000    0.000 
#
# Total GULP energy -334905.855572 kJ/mol
# GULP energy per Si atom -5581.764260 kJ/mol
# Density = 1.991949 g / cm^3
# Si number density = 19.964936 Si / 1000 Ang^3
#
#
#
# Elastic Constant Matrix: (Units=GPa)
#
#
# Indices 1 2 3 4 5 6 
#
# 1 101.5599 2.4841 14.4163 0.0000 0.0000 0.0000
# 2 2.4841 20.8256 -3.3363 0.0000 0.0000 0.0000
# 3 14.4163 -3.3363 68.2915 0.0000 0.0000 0.0000
# 4 0.0000 0.0000 0.0000 17.3531 0.0000 0.0000
# 5 0.0000 0.0000 0.0000 0.0000 3.1196 0.0000
# 6 0.0000 0.0000 0.0000 0.0000 0.0000 19.3096
#
#
#
# Elastic Compliance Matrix: (Units=1/GPa)
#
#
# Indices 1 2 3 4 5 6 
#
# 1 0.010202 -0.001574 -0.002230 0.000000 0.000000 0.000000
# 2 -0.001574 0.048639 0.002709 0.000000 0.000000 0.000000
# 3 -0.002230 0.002709 0.015246 0.000000 0.000000 0.000000
# 4 0.000000 0.000000 0.000000 0.057627 0.000000 0.000000
# 5 0.000000 0.000000 0.000000 0.000000 0.320557 0.000000
# 6 0.000000 0.000000 0.000000 0.000000 0.000000 0.051788
#
#
# Mechanical properties :
#
#
# Convention : Reuss Voigt Hill
#
# Bulk Modulus (GPa) = 13.90917 24.20060 19.05488
# Shear Modulus (GPa) = 9.43013 19.76397 14.59705
#
# Velocity S-wave (km/s) = 2.17568 3.14973 2.70688
# Velocity P-wave (km/s) = 3.64601 5.03742 4.39710
#
# Compressibility (1/GPa) = 0.07189502
#
# Stress axis : x y z
#
# Youngs Moduli (GPa) = 98.02464 20.55945 65.58981
#
# Poissons Ratio (x) = 0.03236 0.14629
# Poissons Ratio (y) = 0.15431 -0.17765
# Poissons Ratio (z) = 0.21864 -0.05569
#
# Static dielectric constant tensor:
#      x y z
#    x 1.716610 0.000000 0.000000 
#    y 0.000000 1.720630 0.000000 
#    z 0.000000 0.000000 1.681920 
# 
# From -- ./inp_files/76179.got.cif
#   From: 2010.05.17/outbox.cif.g08.bks.cpg/sg65_39_cif.got.tgz:76179.got - 2010.06.03 17:01:31.
