data_PCOD9486792
_publ_section_title
;
Structure prediction by ZEFSAII (Michael W. Deem and Ramdas Pophale) SiO2 
 PCOD9486792
Probable space group: C M M M
;
_chemical_formula_sum "Si O2"
_cell_formula_units_Z 64
_cell_length_a 18.359222
_cell_length_b 7.799678
_cell_length_c 23.076319
_cell_angle_alpha 90.000000
_cell_angle_beta 90.000000
_cell_angle_gamma 90.000000
_cell_volume 3304.437035
_symmetry_space_group_name_H-M "C M M M"
_symmetry_group_IT_number 65
_symmetry_cell_setting 'orthorhombic'
loop_
_space_group_symop_operation_xyz
x,y,z
-x,-y,z
x,-y,-z
-x,y,-z
-x,-y,-z
x,y,-z
-x,y,z
x,-y,z
1/2+x,1/2+y,z
1/2-x,1/2-y,z
1/2+x,1/2-y,-z
1/2-x,1/2+y,-z
1/2-x,1/2-y,-z
1/2+x,1/2+y,-z
1/2-x,1/2+y,z
1/2+x,1/2-y,z
loop_
_atom_site_type_symbol
_atom_site_label
_atom_site_fract_x
_atom_site_fract_y
_atom_site_fract_z
Si Si1 0.413571 0.306291 0.149950
Si Si2 0.165185 0.705338 0.732832
Si Si3 0.584117 0.209720 0.383978
Si Si4 0.411360 0.000000 0.066094
Si Si5 0.834827 0.706343 0.500000
O O1 0.500000 0.279290 0.161178
O O2 0.403947 0.500000 0.128546
O O3 0.371057 0.282004 0.209811
O O4 0.389614 0.166862 0.102803
O O5 0.157017 0.500000 0.736536
O O6 0.250000 0.750000 0.729594
O O7 0.124550 0.765004 0.674545
O O8 0.500000 0.262853 0.384450
O O9 0.625822 0.268761 0.441624
O O10 0.585149 0.000000 0.384277
O O11 0.500000 0.000000 0.063991
O O12 0.385149 0.000000 0.000000
O O13 0.841413 0.500000 0.500000
O O14 0.750000 0.750000 0.500000
#
# Coordination Sequence:
#
# PCOD9486792 Si02
#       5
#    16  16  16   8   8
#     4  10  20  35  57  86 117 151 192 237 287 342
#     4  11  21  34  53  79 110 148 189 239 291 349
#     4   9  18  32  53  78 105 142 190 238 287 342
#     4   9  18  34  58  88 120 153 190 234 283 337
#     4  10  19  33  53  77 107 144 186 234 282 346
#
# _framework density 19.367899000000001
#
# number of rings (size 3 to 8) (size 9 to 14) (size 15 to 20)
#    0.000    2.125    1.250    2.625    0.000    3.000 
#    0.000    3.750    0.000    5.250    0.000    0.000 
#    0.000    0.000    0.000    0.000    0.000    0.000 
#
# Total GULP energy -178763.075781 kJ/mol
# GULP energy per Si atom -5586.346118 kJ/mol
# Density = 1.932382 g / cm^3
# Si number density = 19.367899 Si / 1000 Ang^3
#
#
#
# Elastic Constant Matrix: (Units=GPa)
#
#
# Indices 1 2 3 4 5 6 
#
# 1 117.4952 35.2361 88.4299 0.0000 0.0000 0.0000
# 2 35.2361 73.3383 55.0346 0.0000 0.0000 0.0000
# 3 88.4299 55.0346 201.6134 0.0000 0.0000 0.0000
# 4 0.0000 0.0000 0.0000 -2.9441 0.0000 0.0000
# 5 0.0000 0.0000 0.0000 0.0000 -24.2465 0.0000
# 6 0.0000 0.0000 0.0000 0.0000 0.0000 23.6167
#
#
#
# Elastic Compliance Matrix: (Units=1/GPa)
#
#
# Indices 1 2 3 4 5 6 
#
# 1 0.013055 -0.002484 -0.005048 0.000000 0.000000 0.000000
# 2 -0.002484 0.017621 -0.003720 0.000000 0.000000 0.000000
# 3 -0.005048 -0.003720 0.008190 0.000000 0.000000 0.000000
# 4 0.000000 0.000000 0.000000 -0.339658 0.000000 0.000000
# 5 0.000000 0.000000 0.000000 0.000000 -0.041243 0.000000
# 6 0.000000 0.000000 0.000000 0.000000 0.000000 0.042343
#
#
# Mechanical properties :
#
#
# Convention : Reuss Voigt Hill
#
# Bulk Modulus (GPa) = 61.12330 83.31645 72.21987
# Shear Modulus (GPa) = -18.40039 13.53496 -2.43272
#
# Velocity S-wave (km/s) = -3.08563 2.64642 -1.12195
# Velocity P-wave (km/s) = 4.35118 7.24218 5.97420
#
# Compressibility (1/GPa) = 0.01636037
#
# Stress axis : x y z
#
# Youngs Moduli (GPa) = 76.59702 56.75083 122.10520
#
# Poissons Ratio (x) = 0.14099 0.61639
# Poissons Ratio (y) = 0.19030 0.45427
# Poissons Ratio (z) = 0.38667 0.21113
#
# Static dielectric constant tensor:
#      x y z
#    x 1.634000 0.000000 0.000000 
#    y 0.000000 1.714720 0.000000 
#    z 0.000000 0.000000 1.639370 
# 
# From -- ./inp_files/63251.got.cif
#   From: 2010.05.17/outbox.cif.g08.bks.cpg/sg65_32_cif.got.tgz:63251.got - 2010.06.03 17:01:31.
