data_PCOD9486613
_publ_section_title
;
Structure prediction by ZEFSAII (Michael W. Deem and Ramdas Pophale) SiO2 
 PCOD9486613
Probable space group: C M M M
;
_chemical_formula_sum "Si O2"
_cell_formula_units_Z 48
_cell_length_a 7.906035
_cell_length_b 38.872771
_cell_length_c 7.850074
_cell_angle_alpha 90.000000
_cell_angle_beta 90.000000
_cell_angle_gamma 90.000000
_cell_volume 2412.559224
_symmetry_space_group_name_H-M "C M M M"
_symmetry_group_IT_number 65
_symmetry_cell_setting 'orthorhombic'
loop_
_space_group_symop_operation_xyz
x,y,z
-x,-y,z
x,-y,-z
-x,y,-z
-x,-y,-z
x,y,-z
-x,y,z
x,-y,z
1/2+x,1/2+y,z
1/2-x,1/2-y,z
1/2+x,1/2-y,-z
1/2-x,1/2+y,-z
1/2-x,1/2-y,-z
1/2+x,1/2+y,-z
1/2-x,1/2+y,z
1/2+x,1/2-y,z
loop_
_atom_site_type_symbol
_atom_site_label
_atom_site_fract_x
_atom_site_fract_y
_atom_site_fract_z
Si Si1 0.189254 0.913214 0.206322
Si Si2 0.204936 0.337036 0.690405
Si Si3 0.000000 0.460564 0.208453
Si Si4 0.703582 0.789776 0.000000
O O1 0.225942 0.875066 0.273796
O O2 0.334192 0.939498 0.262951
O O3 0.000000 0.924026 0.254592
O O4 0.197397 0.911314 0.000000
O O5 0.251223 0.326062 0.500000
O O6 0.264091 0.310411 0.833600
O O7 0.000000 0.339325 0.700275
O O8 0.000000 0.500000 0.265167
O O9 0.000000 0.460854 0.000000
O O10 0.750000 0.750000 0.000000
O O11 0.500000 0.791761 0.000000
#
# Coordination Sequence:
#
# PCOD9486613 Si02
#       4
#    16  16   8   8
#     4  10  19  32  56  85 114 154 203 247 294 352
#     4  10  20  36  60  85 112 154 201 243 292 351
#     4   9  18  32  53  83 123 162 197 249 306 353
#     4  10  22  38  58  84 120 155 192 241 295 355
#
# _framework density 19.895886000000001
#
# number of rings (size 3 to 8) (size 9 to 14) (size 15 to 20)
#    0.000    2.167    3.333    0.000    0.000    3.333 
#    0.000    3.333    0.000    2.000    0.000    2.333 
#    0.000    0.000    0.000    0.000    0.000    0.000 
#
# Total GULP energy -134073.668866 kJ/mol
# GULP energy per Si atom -5586.402869 kJ/mol
# Density = 1.985060 g / cm^3
# Si number density = 19.895886 Si / 1000 Ang^3
#
#
#
# Elastic Constant Matrix: (Units=GPa)
#
#
# Indices 1 2 3 4 5 6 
#
# 1 95.7863 68.1477 56.5669 0.0000 0.0000 0.0000
# 2 68.1477 174.5940 69.8477 0.0000 0.0000 0.0000
# 3 56.5669 69.8477 95.0820 0.0000 0.0000 0.0000
# 4 0.0000 0.0000 0.0000 -6.5164 0.0000 0.0000
# 5 0.0000 0.0000 0.0000 0.0000 6.9417 0.0000
# 6 0.0000 0.0000 0.0000 0.0000 0.0000 19.5330
#
#
#
# Elastic Compliance Matrix: (Units=1/GPa)
#
#
# Indices 1 2 3 4 5 6 
#
# 1 0.017732 -0.003825 -0.007739 0.000000 0.000000 0.000000
# 2 -0.003825 0.008936 -0.004289 0.000000 0.000000 0.000000
# 3 -0.007739 -0.004289 0.018272 0.000000 0.000000 0.000000
# 4 0.000000 0.000000 0.000000 -0.153459 0.000000 0.000000
# 5 0.000000 0.000000 0.000000 0.000000 0.144058 0.000000
# 6 0.000000 0.000000 0.000000 0.000000 0.000000 0.051196
#
#
# Mechanical properties :
#
#
# Convention : Reuss Voigt Hill
#
# Bulk Modulus (GPa) = 75.56436 83.84298 79.70367
# Shear Modulus (GPa) = 40.69899 15.38498 28.04199
#
# Velocity S-wave (km/s) = 4.52774 2.78380 3.75832
# Velocity P-wave (km/s) = 8.08679 7.25018 7.67988
#
# Compressibility (1/GPa) = 0.01323375
#
# Stress axis : x y z
#
# Youngs Moduli (GPa) = 56.39666 111.90145 54.72736
#
# Poissons Ratio (x) = 0.42801 0.42355
# Poissons Ratio (y) = 0.21571 0.23474
# Poissons Ratio (z) = 0.43647 0.47997
#
# Static dielectric constant tensor:
#      x y z
#    x 1.843810 0.000000 0.000000 
#    y 0.000000 1.630660 0.000000 
#    z 0.000000 0.000000 1.725810 
# 
# From -- ./inp_files/3082.got.cif
#   From: 2010.05.17/outbox.cif.g08.bks.cpg/sg65_2_cif.got.tgz:3082.got - 2010.06.03 17:01:31.
