data_PCOD9486951
_publ_section_title
;
Structure prediction by ZEFSAII (Michael W. Deem and Ramdas Pophale) SiO2 
 PCOD9486951
Probable space group: C M M M
;
_chemical_formula_sum "Si O2"
_cell_formula_units_Z 88
_cell_length_a 21.160733
_cell_length_b 25.865629
_cell_length_c 7.396290
_cell_angle_alpha 90.000000
_cell_angle_beta 90.000000
_cell_angle_gamma 90.000000
_cell_volume 4048.253336
_symmetry_space_group_name_H-M "C M M M"
_symmetry_group_IT_number 65
_symmetry_cell_setting 'orthorhombic'
loop_
_space_group_symop_operation_xyz
x,y,z
-x,-y,z
x,-y,-z
-x,y,-z
-x,-y,-z
x,y,-z
-x,y,z
x,-y,z
1/2+x,1/2+y,z
1/2-x,1/2-y,z
1/2+x,1/2-y,-z
1/2-x,1/2+y,-z
1/2-x,1/2-y,-z
1/2+x,1/2+y,-z
1/2-x,1/2+y,z
1/2+x,1/2-y,z
loop_
_atom_site_type_symbol
_atom_site_label
_atom_site_fract_x
_atom_site_fract_y
_atom_site_fract_z
Si Si1 0.625939 0.162930 0.297585
Si Si2 0.738274 0.689949 0.720336
Si Si3 0.000000 0.712785 0.711939
Si Si4 0.575377 0.500000 0.721408
Si Si5 0.870267 0.889855 0.707742
Si Si6 0.500000 0.333365 0.783615
Si Si7 0.425892 0.943796 0.217682
O O1 0.631504 0.186062 0.500000
O O2 0.695202 0.166226 0.219038
O O3 0.565307 0.190506 0.209814
O O4 0.608811 0.103372 0.304591
O O5 0.731602 0.691022 0.500000
O O6 0.750000 0.750000 0.774407
O O7 0.681150 0.651963 0.782998
O O8 0.000000 0.773854 0.726823
O O9 0.000000 0.696519 0.500000
O O10 0.500000 0.500000 0.774854
O O11 0.574359 0.500000 0.500000
O O12 0.612225 0.552519 0.780878
O O13 0.850583 0.898915 0.500000
O O14 0.937262 0.860745 0.713408
O O15 0.500000 0.336419 0.000000
O O16 0.500000 0.940606 0.262615
O O17 0.402129 0.000000 0.271723
O O18 0.421336 0.939647 0.000000
#
# Coordination Sequence:
#
# PCOD9486951 Si02
#       7
#    16  16   8   8  16   8  16
#     4  10  19  33  54  83 109 135 178 229 276 321
#     4   9  18  33  54  80 110 142 178 221 272 333
#     4  10  20  34  54  78 110 147 179 217 276 333
#     4   9  16  30  56  86 106 129 181 228 263 330
#     4  10  19  36  59  79 107 146 181 220 276 336
#     4  12  24  35  53  83 110 134 180 230 270 323
#     4   9  18  33  52  73 102 144 185 216 259 322
#
# _framework density 21.737770000000001
#
# number of rings (size 3 to 8) (size 9 to 14) (size 15 to 20)
#    0.000    2.273    1.818    2.455    0.000    4.000 
#    1.636    2.727    0.000    2.182    0.000    0.000 
#    0.000    0.000    0.000    0.000    0.000    0.000 
#
# Total GULP energy -245238.663974 kJ/mol
# GULP energy per Si atom -5573.605999 kJ/mol
# Density = 2.168829 g / cm^3
# Si number density = 21.737770 Si / 1000 Ang^3
#
#
#
# Elastic Constant Matrix: (Units=GPa)
#
#
# Indices 1 2 3 4 5 6 
#
# 1 164.1750 102.7173 0.6967 0.0000 0.0000 0.0000
# 2 102.7173 203.4482 -3.7141 0.0000 0.0000 0.0000
# 3 0.6967 -3.7141 69.8802 0.0000 0.0000 0.0000
# 4 0.0000 0.0000 0.0000 10.8071 0.0000 0.0000
# 5 0.0000 0.0000 0.0000 0.0000 -17.2859 0.0000
# 6 0.0000 0.0000 0.0000 0.0000 0.0000 101.5564
#
#
#
# Elastic Compliance Matrix: (Units=1/GPa)
#
#
# Indices 1 2 3 4 5 6 
#
# 1 0.008911 -0.004505 -0.000328 0.000000 0.000000 0.000000
# 2 -0.004505 0.007198 0.000427 0.000000 0.000000 0.000000
# 3 -0.000328 0.000427 0.014336 0.000000 0.000000 0.000000
# 4 0.000000 0.000000 0.000000 0.092532 0.000000 0.000000
# 5 0.000000 0.000000 0.000000 0.000000 -0.057851 0.000000
# 6 0.000000 0.000000 0.000000 0.000000 0.000000 0.009847
#
#
# Mechanical properties :
#
#
# Convention : Reuss Voigt Hill
#
# Bulk Modulus (GPa) = 46.22536 70.76700 58.49618
# Shear Modulus (GPa) = 54.94785 41.53576 48.24181
#
# Velocity S-wave (km/s) = 5.03314 4.37597 4.71602
# Velocity P-wave (km/s) = 7.42211 7.62612 7.52481
#
# Compressibility (1/GPa) = 0.02163315
#
# Stress axis : x y z
#
# Youngs Moduli (GPa) = 112.22011 138.93582 69.75346
#
# Poissons Ratio (x) = 0.62591 0.02290
# Poissons Ratio (y) = 0.50555 -0.02982
# Poissons Ratio (z) = 0.03684 -0.05939
#
# Static dielectric constant tensor:
#      x y z
#    x 1.737640 0.000000 0.000000 
#    y 0.000000 1.794250 0.000000 
#    z 0.000000 0.000000 1.872010 
# 
# From -- ./inp_files/11885.got.cif
#   From: 2010.05.17/outbox.cif.g08.bks.cpg/sg65_6_cif.got.tgz:11885.got - 2010.06.03 17:01:31.
