data_PCOD9486726
_publ_section_title
;
Structure prediction by ZEFSAII (Michael W. Deem and Ramdas Pophale) SiO2 
 PCOD9486726
Probable space group: C M M M
;
_chemical_formula_sum "Si O2"
_cell_formula_units_Z 88
_cell_length_a 7.735451
_cell_length_b 31.936322
_cell_length_c 17.715686
_cell_angle_alpha 90.000000
_cell_angle_beta 90.000000
_cell_angle_gamma 90.000000
_cell_volume 4376.515913
_symmetry_space_group_name_H-M "C M M M"
_symmetry_group_IT_number 65
_symmetry_cell_setting 'orthorhombic'
loop_
_space_group_symop_operation_xyz
x,y,z
-x,-y,z
x,-y,-z
-x,y,-z
-x,-y,-z
x,y,-z
-x,y,z
x,-y,z
1/2+x,1/2+y,z
1/2-x,1/2-y,z
1/2+x,1/2-y,-z
1/2-x,1/2+y,-z
1/2-x,1/2-y,-z
1/2+x,1/2+y,-z
1/2-x,1/2+y,z
1/2+x,1/2-y,z
loop_
_atom_site_type_symbol
_atom_site_label
_atom_site_fract_x
_atom_site_fract_y
_atom_site_fract_z
Si Si1 0.790619 0.453703 0.335395
Si Si2 0.206575 0.872789 0.763630
Si Si3 0.706964 0.074031 0.500000
Si Si4 0.207985 0.797067 0.661549
Si Si5 0.791492 0.827567 0.500000
Si Si6 0.796349 0.092547 0.915191
Si Si7 0.304819 0.000000 0.908503
O O1 0.734432 0.500000 0.309705
O O2 0.734269 0.415016 0.284227
O O3 0.729697 0.445675 0.421546
O O4 0.000000 0.453376 0.335714
O O5 0.274967 0.833026 0.717542
O O6 0.278486 0.879667 0.847821
O O7 0.000000 0.867240 0.770776
O O8 0.500000 0.068352 0.500000
O O9 0.745942 0.123418 0.500000
O O10 0.250000 0.750000 0.684646
O O11 0.273575 0.806326 0.576769
O O12 0.000000 0.801081 0.659065
O O13 0.000000 0.824562 0.500000
O O14 0.000000 0.101384 0.921030
O O15 0.779725 0.044102 0.889354
O O16 0.721887 0.096784 0.000000
O O17 0.500000 0.000000 0.878885
O O18 0.308481 0.000000 0.000000
#
# Coordination Sequence:
#
# PCOD9486726 Si02
#       7
#    16  16   8  16   8  16   8
#     4  10  21  35  51  74 105 142 180 215 252 299
#     4  10  21  36  54  77 104 134 172 218 261 305
#     4  10  19  33  53  73 101 141 180 212 248 299
#     4  10  21  36  55  78 103 131 166 210 261 312
#     4  10  19  34  54  76 104 133 164 210 258 305
#     4   9  18  33  52  73 100 137 176 211 252 304
#     4   9  17  29  47  73 103 134 169 210 253 297
#
# _framework density 20.107319
#
# number of rings (size 3 to 8) (size 9 to 14) (size 15 to 20)
#    0.000    2.273    1.818    0.818    1.273    4.727 
#    0.000    0.000    0.000    2.182    0.000    0.000 
#    0.000    0.000    0.000    0.000    0.000    0.000 
#
# Total GULP energy -245603.459463 kJ/mol
# GULP energy per Si atom -5581.896806 kJ/mol
# Density = 2.006155 g / cm^3
# Si number density = 20.107319 Si / 1000 Ang^3
#
#
#
# Elastic Constant Matrix: (Units=GPa)
#
#
# Indices 1 2 3 4 5 6 
#
# 1 29.2028 -5.0144 8.9912 0.0000 0.0000 0.0000
# 2 -5.0144 151.0254 81.5518 0.0000 0.0000 0.0000
# 3 8.9912 81.5518 151.0476 0.0000 0.0000 0.0000
# 4 0.0000 0.0000 0.0000 6.4873 0.0000 0.0000
# 5 0.0000 0.0000 0.0000 0.0000 4.0702 0.0000
# 6 0.0000 0.0000 0.0000 0.0000 0.0000 19.9023
#
#
#
# Elastic Compliance Matrix: (Units=1/GPa)
#
#
# Indices 1 2 3 4 5 6 
#
# 1 0.036027 0.003323 -0.003939 0.000000 0.000000 0.000000
# 2 0.003323 0.009653 -0.005409 0.000000 0.000000 0.000000
# 3 -0.003939 -0.005409 0.009775 0.000000 0.000000 0.000000
# 4 0.000000 0.000000 0.000000 0.154148 0.000000 0.000000
# 5 0.000000 0.000000 0.000000 0.000000 0.245686 0.000000
# 6 0.000000 0.000000 0.000000 0.000000 0.000000 0.050245
#
#
# Mechanical properties :
#
#
# Convention : Reuss Voigt Hill
#
# Bulk Modulus (GPa) = 23.03901 55.81477 39.42689
# Shear Modulus (GPa) = 9.39757 22.47511 15.93634
#
# Velocity S-wave (km/s) = 2.16422 3.34692 2.81831
# Velocity P-wave (km/s) = 4.21047 6.53869 5.49921
#
# Compressibility (1/GPa) = 0.04340465
#
# Stress axis : x y z
#
# Youngs Moduli (GPa) = 27.75734 103.59765 102.29717
#
# Poissons Ratio (x) = -0.34425 0.40290
# Poissons Ratio (y) = -0.09224 0.55336
# Poissons Ratio (z) = 0.10932 0.56040
#
# Static dielectric constant tensor:
#      x y z
#    x 1.737660 0.000000 0.000000 
#    y 0.000000 1.680670 0.000000 
#    z 0.000000 0.000000 1.760740 
# 
# From -- ./inp_files/50489.got.cif
#   From: 2010.05.17/outbox.cif.g08.bks.cpg/sg65_26_cif.got.tgz:50489.got - 2010.06.03 17:01:31.
