data_PCOD9486756
_publ_section_title
;
Structure prediction by ZEFSAII (Michael W. Deem and Ramdas Pophale) SiO2 
 PCOD9486756
Probable space group: C M M M
;
_chemical_formula_sum "Si O2"
_cell_formula_units_Z 72
_cell_length_a 9.274039
_cell_length_b 14.728957
_cell_length_c 24.436276
_cell_angle_alpha 90.000000
_cell_angle_beta 90.000000
_cell_angle_gamma 90.000000
_cell_volume 3337.920078
_symmetry_space_group_name_H-M "C M M M"
_symmetry_group_IT_number 65
_symmetry_cell_setting 'orthorhombic'
loop_
_space_group_symop_operation_xyz
x,y,z
-x,-y,z
x,-y,-z
-x,y,-z
-x,-y,-z
x,y,-z
-x,y,z
x,-y,z
1/2+x,1/2+y,z
1/2-x,1/2-y,z
1/2+x,1/2-y,-z
1/2-x,1/2+y,-z
1/2-x,1/2-y,-z
1/2+x,1/2+y,-z
1/2-x,1/2+y,z
1/2+x,1/2-y,z
loop_
_atom_site_type_symbol
_atom_site_label
_atom_site_fract_x
_atom_site_fract_y
_atom_site_fract_z
Si Si1 0.339644 0.393730 0.226918
Si Si2 0.173193 0.347593 0.881338
Si Si3 0.664408 0.888518 0.668372
Si Si4 0.172249 0.652474 0.000000
Si Si5 0.666654 0.610692 0.439035
O O1 0.500000 0.353655 0.218716
O O2 0.357258 0.500000 0.238473
O O3 0.244163 0.388911 0.172416
O O4 0.257354 0.356701 0.279793
O O5 0.250000 0.250000 0.884141
O O6 0.204922 0.391679 0.941041
O O7 0.000000 0.342411 0.875395
O O8 0.500000 0.858209 0.673101
O O9 0.735107 0.859865 0.611178
O O10 0.663316 0.000000 0.668746
O O11 0.250000 0.750000 0.000000
O O12 0.000000 0.667846 0.000000
O O13 0.714303 0.638618 0.500000
O O14 0.500000 0.638195 0.431134
O O15 0.667436 0.500000 0.438639
#
# Coordination Sequence:
#
# PCOD9486756 Si02
#       5
#    16  16  16   8  16
#     4  10  20  33  48  67  94 128 163 197 236 282
#     4  10  19  33  53  75  98 123 155 193 234 280
#     4   9  16  25  38  57  82 114 151 190 233 279
#     4   8  16  30  49  72  95 121 151 187 231 278
#     4   8  13  21  33  50  75 109 147 185 226 273
#
# _framework density 21.570319000000001
#
# number of rings (size 3 to 8) (size 9 to 14) (size 15 to 20)
#    0.000    2.889    0.000    2.667    0.000    5.333 
#    0.000    2.778    0.000    3.333    0.000    0.000 
#    0.000    0.889    0.000    3.333    0.000    7.778 
#
# Total GULP energy -200755.809968 kJ/mol
# GULP energy per Si atom -5576.550277 kJ/mol
# Density = 2.152122 g / cm^3
# Si number density = 21.570319 Si / 1000 Ang^3
#
#
#
# Elastic Constant Matrix: (Units=GPa)
#
#
# Indices 1 2 3 4 5 6 
#
# 1 149.2966 10.6724 123.7063 0.0000 0.0000 0.0000
# 2 10.6724 44.9887 7.8066 0.0000 0.0000 0.0000
# 3 123.7063 7.8066 229.9609 0.0000 0.0000 0.0000
# 4 0.0000 0.0000 0.0000 3.4959 0.0000 0.0000
# 5 0.0000 0.0000 0.0000 0.0000 47.1032 0.0000
# 6 0.0000 0.0000 0.0000 0.0000 0.0000 10.1124
#
#
#
# Elastic Compliance Matrix: (Units=1/GPa)
#
#
# Indices 1 2 3 4 5 6 
#
# 1 0.012223 -0.001769 -0.006515 0.000000 0.000000 0.000000
# 2 -0.001769 0.022616 0.000184 0.000000 0.000000 0.000000
# 3 -0.006515 0.000184 0.007847 0.000000 0.000000 0.000000
# 4 0.000000 0.000000 0.000000 0.286048 0.000000 0.000000
# 5 0.000000 0.000000 0.000000 0.000000 0.021230 0.000000
# 6 0.000000 0.000000 0.000000 0.000000 0.000000 0.098888
#
#
# Mechanical properties :
#
#
# Convention : Reuss Voigt Hill
#
# Bulk Modulus (GPa) = 37.75729 78.73520 58.24625
# Shear Modulus (GPa) = 10.55117 30.94638 20.74877
#
# Velocity S-wave (km/s) = 2.21408 3.79182 3.10484
# Velocity P-wave (km/s) = 4.90698 7.46669 6.31783
#
# Compressibility (1/GPa) = 0.02648495
#
# Stress axis : x y z
#
# Youngs Moduli (GPa) = 81.81264 44.21740 127.43433
#
# Poissons Ratio (x) = 0.07822 0.83027
# Poissons Ratio (y) = 0.14473 -0.02344
# Poissons Ratio (z) = 0.53303 -0.00813
#
# Static dielectric constant tensor:
#      x y z
#    x 1.753480 0.000000 0.000000 
#    y 0.000000 1.914620 0.000000 
#    z 0.000000 0.000000 1.800560 
# 
# From -- ./inp_files/59305.got.cif
#   From: 2010.05.17/outbox.cif.g08.bks.cpg/sg65_30_cif.got.tgz:59305.got - 2010.06.03 17:01:31.
