data_PCOD9486638
_publ_section_title
;
Structure prediction by ZEFSAII (Michael W. Deem and Ramdas Pophale) SiO2 
 PCOD9486638
Probable space group: C M M M
;
_chemical_formula_sum "Si O2"
_cell_formula_units_Z 88
_cell_length_a 17.792781
_cell_length_b 16.419250
_cell_length_c 18.883963
_cell_angle_alpha 90.000000
_cell_angle_beta 90.000000
_cell_angle_gamma 90.000000
_cell_volume 5516.838742
_symmetry_space_group_name_H-M "C M M M"
_symmetry_group_IT_number 65
_symmetry_cell_setting 'orthorhombic'
loop_
_space_group_symop_operation_xyz
x,y,z
-x,-y,z
x,-y,-z
-x,y,-z
-x,-y,-z
x,y,-z
-x,y,z
x,-y,z
1/2+x,1/2+y,z
1/2-x,1/2-y,z
1/2+x,1/2-y,-z
1/2-x,1/2+y,-z
1/2-x,1/2-y,-z
1/2+x,1/2+y,-z
1/2-x,1/2+y,z
1/2+x,1/2-y,z
loop_
_atom_site_type_symbol
_atom_site_label
_atom_site_fract_x
_atom_site_fract_y
_atom_site_fract_z
Si Si1 0.913236 0.902384 0.083043
Si Si2 0.311813 0.317893 0.198667
Si Si3 0.716080 0.904052 0.316244
Si Si4 0.910550 0.282502 0.309833
Si Si5 0.416852 0.500000 0.414619
Si Si6 0.833246 0.166948 0.584261
O O1 0.854470 0.858245 0.133560
O O2 0.000000 0.880543 0.100568
O O3 0.906704 0.000000 0.091294
O O4 0.901238 0.883694 0.000000
O O5 0.250000 0.250000 0.178101
O O6 0.266914 0.382604 0.247656
O O7 0.373181 0.273245 0.248558
O O8 0.632652 0.868638 0.305489
O O9 0.753565 0.847816 0.377653
O O10 0.717384 0.000000 0.332055
O O11 0.883415 0.237438 0.381593
O O12 0.000000 0.287397 0.305179
O O13 0.500000 0.500000 0.383865
O O14 0.421606 0.500000 0.500000
O O15 0.374710 0.417756 0.396301
O O16 0.826140 0.174840 0.500000
#
# Coordination Sequence:
#
# PCOD9486638 Si02
#       6
#    16  16  16  16   8  16
#     4   9  17  29  47  72 101 131 158 186 227 278
#     4   9  18  32  50  71  95 124 159 198 236 276
#     4  10  20  34  51  70  92 124 162 196 238 286
#     4  10  21  34  49  70  95 124 158 198 241 283
#     4   9  16  26  44  68  91 113 138 178 229 276
#     4  10  19  33  50  69  93 120 153 192 238 289
#
# _framework density 15.951164
#
# number of rings (size 3 to 8) (size 9 to 14) (size 15 to 20)
#    0.000    2.455    0.909    3.818    0.000    3.273 
#    0.000    0.000    0.000    0.000    0.000    2.545 
#    0.000    0.000    0.000   33.818    0.000    0.000 
#
# Total GULP energy -245234.807444 kJ/mol
# GULP energy per Si atom -5573.518351 kJ/mol
# Density = 1.591486 g / cm^3
# Si number density = 15.951164 Si / 1000 Ang^3
#
#
#
# Elastic Constant Matrix: (Units=GPa)
#
#
# Indices 1 2 3 4 5 6 
#
# 1 144.1076 46.5792 52.3733 0.0000 0.0000 0.0000
# 2 46.5792 63.2628 31.3976 0.0000 0.0000 0.0000
# 3 52.3733 31.3976 87.8801 0.0000 0.0000 0.0000
# 4 0.0000 0.0000 0.0000 23.0017 0.0000 0.0000
# 5 0.0000 0.0000 0.0000 0.0000 17.4497 0.0000
# 6 0.0000 0.0000 0.0000 0.0000 0.0000 18.5526
#
#
#
# Elastic Compliance Matrix: (Units=1/GPa)
#
#
# Indices 1 2 3 4 5 6 
#
# 1 0.010207 -0.005465 -0.004130 0.000000 0.000000 0.000000
# 2 -0.005465 0.022140 -0.004653 0.000000 0.000000 0.000000
# 3 -0.004130 -0.004653 0.015503 0.000000 0.000000 0.000000
# 4 0.000000 0.000000 0.000000 0.043475 0.000000 0.000000
# 5 0.000000 0.000000 0.000000 0.000000 0.057308 0.000000
# 6 0.000000 0.000000 0.000000 0.000000 0.000000 0.053901
#
#
# Mechanical properties :
#
#
# Convention : Reuss Voigt Hill
#
# Bulk Modulus (GPa) = 51.67171 61.77228 56.72199
# Shear Modulus (GPa) = 21.05423 22.79418 21.92420
#
# Velocity S-wave (km/s) = 3.63701 3.78431 3.71139
# Velocity P-wave (km/s) = 7.07821 7.60951 7.34866
#
# Compressibility (1/GPa) = 0.01935295
#
# Stress axis : x y z
#
# Youngs Moduli (GPa) = 97.97362 45.16624 64.50316
#
# Poissons Ratio (x) = 0.24684 0.26642
# Poissons Ratio (y) = 0.53545 0.30015
# Poissons Ratio (z) = 0.40466 0.21017
#
# Static dielectric constant tensor:
#      x y z
#    x 1.549440 0.000000 0.000000 
#    y 0.000000 1.551640 0.000000 
#    z 0.000000 0.000000 1.525640 
# 
# From -- ./inp_files/54301.got.cif
#   From: 2010.05.17/outbox.cif.g08.bks.cpg/sg65_28_cif.got.tgz:54301.got - 2010.06.03 17:01:31.
