data_PCOD9486997
_publ_section_title
;
Structure prediction by ZEFSAII (Michael W. Deem and Ramdas Pophale) SiO2 
 PCOD9486997
Probable space group: C M M M
;
_chemical_formula_sum "Si O2"
_cell_formula_units_Z 88
_cell_length_a 13.450705
_cell_length_b 27.571222
_cell_length_c 12.948691
_cell_angle_alpha 90.000000
_cell_angle_beta 90.000000
_cell_angle_gamma 90.000000
_cell_volume 4802.052793
_symmetry_space_group_name_H-M "C M M M"
_symmetry_group_IT_number 65
_symmetry_cell_setting 'orthorhombic'
loop_
_space_group_symop_operation_xyz
x,y,z
-x,-y,z
x,-y,-z
-x,y,-z
-x,-y,-z
x,y,-z
-x,y,z
x,-y,z
1/2+x,1/2+y,z
1/2-x,1/2-y,z
1/2+x,1/2-y,-z
1/2-x,1/2+y,-z
1/2-x,1/2-y,-z
1/2+x,1/2+y,-z
1/2-x,1/2+y,z
1/2+x,1/2-y,z
loop_
_atom_site_type_symbol
_atom_site_label
_atom_site_fract_x
_atom_site_fract_y
_atom_site_fract_z
Si Si1 0.114284 0.920701 0.379336
Si Si2 0.614907 0.211443 0.703290
Si Si3 0.609992 0.558438 0.000000
Si Si4 0.176917 0.810231 0.617894
Si Si5 0.882381 0.639813 0.118271
Si Si6 0.251589 0.444812 0.191807
O O1 0.132034 0.932469 0.500000
O O2 0.129327 0.862721 0.367481
O O3 0.191917 0.943594 0.300594
O O4 0.000000 0.933752 0.354806
O O5 0.500000 0.200709 0.674058
O O6 0.703899 0.188456 0.635135
O O7 0.633177 0.268912 0.692093
O O8 0.632526 0.188931 0.816540
O O9 0.669442 0.570060 0.103463
O O10 0.602388 0.500000 0.000000
O O11 0.500000 0.579588 0.000000
O O12 0.156566 0.794785 0.500000
O O13 0.832728 0.595473 0.179888
O O14 0.000000 0.631365 0.114464
O O15 0.845662 0.642175 0.000000
O O16 0.217445 0.500000 0.170521
#
# Coordination Sequence:
#
# PCOD9486997 Si02
#       6
#    16  16   8  16  16  16
#     4  10  21  37  57  82 115 153 190 230 279 337
#     4  10  19  33  55  80 109 144 178 220 274 330
#     4   9  18  32  53  81 106 135 178 229 286 337
#     4  10  20  34  55  85 114 142 182 228 272 324
#     4  10  21  38  59  83 112 146 186 232 283 339
#     4  11  21  36  58  82 112 147 187 240 288 333
#
# _framework density 18.325495
#
# number of rings (size 3 to 8) (size 9 to 14) (size 15 to 20)
#    0.000    1.909    2.727    2.182    0.000    4.000 
#    0.000    3.636    2.000    0.545    0.000    1.273 
#    0.000    0.000    0.000    0.000    0.000    0.000 
#
# Total GULP energy -245306.517283 kJ/mol
# GULP energy per Si atom -5575.148120 kJ/mol
# Density = 1.828379 g / cm^3
# Si number density = 18.325495 Si / 1000 Ang^3
#
#
#
# Elastic Constant Matrix: (Units=GPa)
#
#
# Indices 1 2 3 4 5 6 
#
# 1 57.5976 21.6649 27.8036 0.0000 0.0000 0.0000
# 2 21.6649 72.8745 41.6499 0.0000 0.0000 0.0000
# 3 27.8036 41.6499 86.8798 0.0000 0.0000 0.0000
# 4 0.0000 0.0000 0.0000 24.9344 0.0000 0.0000
# 5 0.0000 0.0000 0.0000 0.0000 26.5542 0.0000
# 6 0.0000 0.0000 0.0000 0.0000 0.0000 12.3088
#
#
#
# Elastic Compliance Matrix: (Units=1/GPa)
#
#
# Indices 1 2 3 4 5 6 
#
# 1 0.021103 -0.003325 -0.005160 0.000000 0.000000 0.000000
# 2 -0.003325 0.019425 -0.008248 0.000000 0.000000 0.000000
# 3 -0.005160 -0.008248 0.017115 0.000000 0.000000 0.000000
# 4 0.000000 0.000000 0.000000 0.040105 0.000000 0.000000
# 5 0.000000 0.000000 0.000000 0.000000 0.037659 0.000000
# 6 0.000000 0.000000 0.000000 0.000000 0.000000 0.081243
#
#
# Mechanical properties :
#
#
# Convention : Reuss Voigt Hill
#
# Bulk Modulus (GPa) = 41.35968 44.39876 42.87922
# Shear Modulus (GPa) = 19.36675 21.17505 20.27090
#
# Velocity S-wave (km/s) = 3.25440 3.40295 3.32950
# Velocity P-wave (km/s) = 6.06135 6.30242 6.18306
#
# Compressibility (1/GPa) = 0.02417814
#
# Stress axis : x y z
#
# Youngs Moduli (GPa) = 47.38643 51.48074 58.42681
#
# Poissons Ratio (x) = 0.17117 0.30145
# Poissons Ratio (y) = 0.15756 0.48191
# Poissons Ratio (z) = 0.24449 0.42462
#
# Static dielectric constant tensor:
#      x y z
#    x 1.640040 0.000000 0.000000 
#    y 0.000000 1.627460 0.000000 
#    z 0.000000 0.000000 1.633700 
# 
# From -- ./inp_files/25164.got.cif
#   From: 2010.05.17/outbox.cif.g08.bks.cpg/sg65_13_cif.got.tgz:25164.got - 2010.06.03 17:01:31.
