data_PCOD9486147
_publ_section_title
;
Structure prediction by ZEFSAII (Michael W. Deem and Ramdas Pophale) SiO2 
 PCOD9486147
Probable space group: C M M M
;
_chemical_formula_sum "Si O2"
_cell_formula_units_Z 72
_cell_length_a 7.764691
_cell_length_b 23.779770
_cell_length_c 23.319924
_cell_angle_alpha 90.000000
_cell_angle_beta 90.000000
_cell_angle_gamma 90.000000
_cell_volume 4305.850609
_symmetry_space_group_name_H-M "C M M M"
_symmetry_group_IT_number 65
_symmetry_cell_setting 'orthorhombic'
loop_
_space_group_symop_operation_xyz
x,y,z
-x,-y,z
x,-y,-z
-x,y,-z
-x,-y,-z
x,y,-z
-x,y,z
x,-y,z
1/2+x,1/2+y,z
1/2-x,1/2-y,z
1/2+x,1/2-y,-z
1/2-x,1/2+y,-z
1/2-x,1/2-y,-z
1/2+x,1/2+y,-z
1/2-x,1/2+y,z
1/2+x,1/2-y,z
loop_
_atom_site_type_symbol
_atom_site_label
_atom_site_fract_x
_atom_site_fract_y
_atom_site_fract_z
Si Si1 0.208110 0.815440 0.000000
Si Si2 0.291158 0.434551 0.777155
Si Si3 0.000000 0.931264 0.434024
Si Si4 0.302523 0.380821 0.110824
Si Si5 0.191900 0.568271 0.647453
Si Si6 0.699321 0.000000 0.931871
O O1 0.250000 0.750000 0.000000
O O2 0.275062 0.843917 0.940928
O O3 0.000000 0.824034 0.000000
O O4 0.500000 0.435322 0.779917
O O5 0.235030 0.500000 0.787317
O O6 0.226757 0.391045 0.825651
O O7 0.237679 0.417919 0.713163
O O8 0.166423 0.912740 0.397980
O O9 0.000000 0.913173 0.500000
O O10 0.000000 0.000000 0.434229
O O11 0.500000 0.361565 0.118130
O O12 0.295670 0.444422 0.087762
O O13 0.193725 0.500000 0.645786
O O14 0.000000 0.587505 0.633449
O O15 0.500000 0.000000 0.911480
O O16 0.694361 0.000000 0.000000
#
# Coordination Sequence:
#
# PCOD9486147 Si02
#       6
#     8  16   8  16  16   8
#     4  10  22  37  52  65  83 116 156 196 231 276
#     4   9  15  25  42  62  84 108 136 180 231 276
#     4   9  16  26  38  52  76 111 153 193 217 248
#     4  10  19  32  50  66  83 115 151 183 229 288
#     4   9  16  25  37  54  79 111 144 182 226 265
#     4  11  21  29  41  67  97 113 129 180 243 280
#
# _framework density 16.721435
#
# number of rings (size 3 to 8) (size 9 to 14) (size 15 to 20)
#    0.000    2.444    3.333    0.333    0.000    2.667 
#    0.000    2.222    0.000    0.000    0.000    0.000 
#    0.000    0.000    0.000    0.000    0.000    1.111 
#
# Total GULP energy -200449.035997 kJ/mol
# GULP energy per Si atom -5568.028778 kJ/mol
# Density = 1.668338 g / cm^3
# Si number density = 16.721435 Si / 1000 Ang^3
#
#
#
# Elastic Constant Matrix: (Units=GPa)
#
#
# Indices 1 2 3 4 5 6 
#
# 1 71.8988 0.7810 56.6640 0.0000 0.0000 0.0000
# 2 0.7810 44.2977 31.6103 0.0000 0.0000 0.0000
# 3 56.6640 31.6103 170.9452 0.0000 0.0000 0.0000
# 4 0.0000 0.0000 0.0000 4.1299 0.0000 0.0000
# 5 0.0000 0.0000 0.0000 0.0000 1.3845 0.0000
# 6 0.0000 0.0000 0.0000 0.0000 0.0000 703.6040
#
#
#
# Elastic Compliance Matrix: (Units=1/GPa)
#
#
# Indices 1 2 3 4 5 6 
#
# 1 0.019735 0.004977 -0.007462 0.000000 0.000000 0.000000
# 2 0.004977 0.027261 -0.006691 0.000000 0.000000 0.000000
# 3 -0.007462 -0.006691 0.009561 0.000000 0.000000 0.000000
# 4 0.000000 0.000000 0.000000 0.242138 0.000000 0.000000
# 5 0.000000 0.000000 0.000000 0.000000 0.722283 0.000000
# 6 0.000000 0.000000 0.000000 0.000000 0.000000 0.001421
#
#
# Mechanical properties :
#
#
# Convention : Reuss Voigt Hill
#
# Bulk Modulus (GPa) = 26.17442 51.69468 38.93455
# Shear Modulus (GPa) = 4.74615 155.02944 79.88779
#
# Velocity S-wave (km/s) = 1.68657 9.63920 6.91949
# Velocity P-wave (km/s) = 4.41360 12.44460 9.33670
#
# Compressibility (1/GPa) = 0.03820524
#
# Stress axis : x y z
#
# Youngs Moduli (GPa) = 50.67078 36.68216 104.59701
#
# Poissons Ratio (x) = -0.18256 0.78050
# Poissons Ratio (y) = -0.25218 0.69983
# Poissons Ratio (z) = 0.37811 0.24543
#
# Static dielectric constant tensor:
#      x y z
#    x 1.621520 0.000000 0.000000 
#    y 0.000000 1.577000 0.000000 
#    z 0.000000 0.000000 1.604130 
# 
# From -- ./inp_files/59576.got.cif
#   From: 2010.05.17/outbox.cif.g08.bks.cpg/sg65_30_cif.got.tgz:59576.got - 2010.06.03 17:01:31.
