data_PCOD9486968
_publ_section_title
;
Structure prediction by ZEFSAII (Michael W. Deem and Ramdas Pophale) SiO2 
 PCOD9486968
Probable space group: C M M M
;
_chemical_formula_sum "Si O2"
_cell_formula_units_Z 80
_cell_length_a 7.849931
_cell_length_b 18.523408
_cell_length_c 29.292302
_cell_angle_alpha 90.000000
_cell_angle_beta 90.000000
_cell_angle_gamma 90.000000
_cell_volume 4259.319662
_symmetry_space_group_name_H-M "C M M M"
_symmetry_group_IT_number 65
_symmetry_cell_setting 'orthorhombic'
loop_
_space_group_symop_operation_xyz
x,y,z
-x,-y,z
x,-y,-z
-x,y,-z
-x,-y,-z
x,y,-z
-x,y,z
x,-y,z
1/2+x,1/2+y,z
1/2-x,1/2-y,z
1/2+x,1/2-y,-z
1/2-x,1/2+y,-z
1/2-x,1/2-y,-z
1/2+x,1/2+y,-z
1/2-x,1/2+y,z
1/2+x,1/2-y,z
loop_
_atom_site_type_symbol
_atom_site_label
_atom_site_fract_x
_atom_site_fract_y
_atom_site_fract_z
Si Si1 0.298500 0.080052 0.500000
Si Si2 0.199391 0.086919 0.119638
Si Si3 0.297621 0.665932 0.409543
Si Si4 0.000000 0.587855 0.052206
Si Si5 0.795115 0.165513 0.211838
Si Si6 0.794654 0.835098 0.689108
O O1 0.500000 0.073672 0.500000
O O2 0.253790 0.122449 0.545940
O O3 0.220626 0.000000 0.500000
O O4 0.330289 0.109311 0.079991
O O5 0.259316 0.121724 0.167362
O O6 0.000000 0.106613 0.111257
O O7 0.205237 0.000000 0.123502
O O8 0.500000 0.662611 0.406811
O O9 0.250000 0.750000 0.414623
O O10 0.230012 0.637944 0.360205
O O11 0.000000 0.500000 0.051223
O O12 0.000000 0.613270 0.000000
O O13 0.750000 0.250000 0.207359
O O14 0.731024 0.138139 0.261503
O O15 0.000000 0.160084 0.212937
O O16 0.750000 0.750000 0.688934
O O17 0.000000 0.843039 0.689390
#
# Coordination Sequence:
#
# PCOD9486968 Si02
#       6
#     8  16  16   8  16  16
#     4  11  24  39  52  67  95 131 166 207 254 303
#     4   9  18  32  50  74 103 133 168 212 256 301
#     4  10  19  33  55  78  99 126 162 207 248 296
#     4   9  18  32  52  76 100 130 171 216 258 300
#     4   9  17  29  48  75 101 133 166 198 243 299
#     4   8  15  28  46  72 101 125 158 198 242 287
#
# _framework density 18.782342
#
# number of rings (size 3 to 8) (size 9 to 14) (size 15 to 20)
#    0.000    2.800    0.000    1.200    1.400    2.000 
#    0.000    3.000    0.000    4.200    0.000    0.000 
#    0.000    0.000    0.000    0.000    0.000    0.000 
#
# Total GULP energy -222723.843486 kJ/mol
# GULP energy per Si atom -5568.096087 kJ/mol
# Density = 1.873959 g / cm^3
# Si number density = 18.782342 Si / 1000 Ang^3
#
#
#
# Elastic Constant Matrix: (Units=GPa)
#
#
# Indices 1 2 3 4 5 6 
#
# 1 57.9675 16.0066 61.4189 0.0000 0.0000 0.0000
# 2 16.0066 31.0000 55.1415 0.0000 0.0000 0.0000
# 3 61.4189 55.1415 242.2115 0.0000 0.0000 0.0000
# 4 0.0000 0.0000 0.0000 41.0925 0.0000 0.0000
# 5 0.0000 0.0000 0.0000 0.0000 13.7713 0.0000
# 6 0.0000 0.0000 0.0000 0.0000 0.0000 10.7705
#
#
#
# Elastic Compliance Matrix: (Units=1/GPa)
#
#
# Indices 1 2 3 4 5 6 
#
# 1 0.023713 -0.002602 -0.005421 0.000000 0.000000 0.000000
# 2 -0.002602 0.054496 -0.011747 0.000000 0.000000 0.000000
# 3 -0.005421 -0.011747 0.008177 0.000000 0.000000 0.000000
# 4 0.000000 0.000000 0.000000 0.024335 0.000000 0.000000
# 5 0.000000 0.000000 0.000000 0.000000 0.072615 0.000000
# 6 0.000000 0.000000 0.000000 0.000000 0.000000 0.092846
#
#
# Mechanical properties :
#
#
# Convention : Reuss Voigt Hill
#
# Bulk Modulus (GPa) = 21.34571 66.25701 43.80136
# Shear Modulus (GPa) = 15.09038 26.36768 20.72903
#
# Velocity S-wave (km/s) = 2.83757 3.75087 3.32572
# Velocity P-wave (km/s) = 4.70374 7.35605 6.17400
#
# Compressibility (1/GPa) = 0.04684782
#
# Stress axis : x y z
#
# Youngs Moduli (GPa) = 42.17110 18.34994 122.28806
#
# Poissons Ratio (x) = 0.04774 0.66288
# Poissons Ratio (y) = 0.10973 1.43648
# Poissons Ratio (z) = 0.22860 0.21555
#
# Static dielectric constant tensor:
#      x y z
#    x 1.670820 0.000000 0.000000 
#    y 0.000000 1.609010 0.000000 
#    z 0.000000 0.000000 1.723850 
# 
# From -- ./inp_files/72890.got.cif
#   From: 2010.05.17/outbox.cif.g08.bks.cpg/sg65_37_cif.got.tgz:72890.got - 2010.06.03 17:01:31.
