data_PCOD9486346
_publ_section_title
;
Structure prediction by ZEFSAII (Michael W. Deem and Ramdas Pophale) SiO2 
 PCOD9486346
Probable space group: C M M M
;
_chemical_formula_sum "Si O2"
_cell_formula_units_Z 104
_cell_length_a 13.692899
_cell_length_b 21.079625
_cell_length_c 22.826993
_cell_angle_alpha 90.000000
_cell_angle_beta 90.000000
_cell_angle_gamma 90.000000
_cell_volume 6588.810106
_symmetry_space_group_name_H-M "C M M M"
_symmetry_group_IT_number 65
_symmetry_cell_setting 'orthorhombic'
loop_
_space_group_symop_operation_xyz
x,y,z
-x,-y,z
x,-y,-z
-x,y,-z
-x,-y,-z
x,y,-z
-x,y,z
x,-y,z
1/2+x,1/2+y,z
1/2-x,1/2-y,z
1/2+x,1/2-y,-z
1/2-x,1/2+y,-z
1/2-x,1/2-y,-z
1/2+x,1/2+y,-z
1/2-x,1/2+y,z
1/2+x,1/2-y,z
loop_
_atom_site_type_symbol
_atom_site_label
_atom_site_fract_x
_atom_site_fract_y
_atom_site_fract_z
Si Si1 0.695055 0.148665 0.386779
Si Si2 0.203250 0.648921 0.828358
Si Si3 0.386541 0.715579 0.355106
Si Si4 0.882422 0.575663 0.500000
Si Si5 0.115187 0.425892 0.069659
Si Si6 0.113186 0.575187 0.724244
Si Si7 0.613848 0.719013 0.785597
O O1 0.638388 0.215811 0.382336
O O2 0.809270 0.166504 0.382164
O O3 0.663230 0.109456 0.443308
O O4 0.664047 0.109286 0.329892
O O5 0.178775 0.622017 0.892066
O O6 0.166610 0.596068 0.783074
O O7 0.314602 0.668070 0.815224
O O8 0.143296 0.712728 0.812050
O O9 0.500000 0.699887 0.363981
O O10 0.368112 0.720104 0.284761
O O11 0.863797 0.500000 0.500000
O O12 0.000000 0.584252 0.500000
O O13 0.137444 0.500000 0.082756
O O14 0.000000 0.416326 0.083620
O O15 0.127137 0.416940 0.000000
O O16 0.115421 0.500000 0.716713
O O17 0.000000 0.595931 0.727002
O O18 0.500000 0.706474 0.794906
#
# Coordination Sequence:
#
# PCOD9486346 Si02
#       7
#    16  16  16   8  16  16  16
#     4  11  20  36  53  77 105 134 168 207 252 307
#     4  11  18  31  51  77 101 133 170 207 257 302
#     4  10  19  34  57  79 103 135 167 210 259 302
#     4  11  24  39  55  75 105 141 167 202 260 313
#     4   9  18  32  50  74 105 138 170 208 254 302
#     4  11  20  29  48  76 101 126 164 213 255 298
#     4  10  19  32  51  77 108 135 163 206 262 308
#
# _framework density 15.784337000000001
#
# number of rings (size 3 to 8) (size 9 to 14) (size 15 to 20)
#    0.000    1.615    3.077    5.077    0.000    3.692 
#    0.000    2.692    0.000    6.462    0.000    1.077 
#    0.000    0.000    0.000    0.000    0.000    0.000 
#
# Total GULP energy -290228.222008 kJ/mol
# GULP energy per Si atom -5581.311962 kJ/mol
# Density = 1.574841 g / cm^3
# Si number density = 15.784337 Si / 1000 Ang^3
#
#
#
# Elastic Constant Matrix: (Units=GPa)
#
#
# Indices 1 2 3 4 5 6 
#
# 1 133.2653 55.5146 45.3063 0.0000 0.0000 0.0000
# 2 55.5146 74.6930 40.9679 0.0000 0.0000 0.0000
# 3 45.3063 40.9679 71.9936 0.0000 0.0000 0.0000
# 4 0.0000 0.0000 0.0000 6721.9392 0.0000 0.0000
# 5 0.0000 0.0000 0.0000 0.0000 23.7271 0.0000
# 6 0.0000 0.0000 0.0000 0.0000 0.0000 23.9655
#
#
#
# Elastic Compliance Matrix: (Units=1/GPa)
#
#
# Indices 1 2 3 4 5 6 
#
# 1 0.011422 -0.006610 -0.003427 0.000000 0.000000 0.000000
# 2 -0.006610 0.023288 -0.009092 0.000000 0.000000 0.000000
# 3 -0.003427 -0.009092 0.021221 0.000000 0.000000 0.000000
# 4 0.000000 0.000000 0.000000 0.000149 0.000000 0.000000
# 5 0.000000 0.000000 0.000000 0.000000 0.042146 0.000000
# 6 0.000000 0.000000 0.000000 0.000000 0.000000 0.041727
#
#
# Mechanical properties :
#
#
# Convention : Reuss Voigt Hill
#
# Bulk Modulus (GPa) = 56.58415 62.61438 59.59926
# Shear Modulus (GPa) = 27.15901 1363.13724 695.14813
#
# Velocity S-wave (km/s) = 4.15255 29.41897 21.00857
# Velocity P-wave (km/s) = 7.67578 34.55029 25.02639
#
# Compressibility (1/GPa) = 0.01767279
#
# Stress axis : x y z
#
# Youngs Moduli (GPa) = 87.54748 42.94081 47.12407
#
# Poissons Ratio (x) = 0.28384 0.16149
# Poissons Ratio (y) = 0.57869 0.42846
# Poissons Ratio (z) = 0.30001 0.39043
#
# Static dielectric constant tensor:
#      x y z
#    x 1.528500 0.000000 0.000000 
#    y 0.000000 1.513610 0.000000 
#    z 0.000000 0.000000 1.528870 
# 
# From -- ./inp_files/62992.got.cif
#   From: 2010.05.17/outbox.cif.g08.bks.cpg/sg65_32_cif.got.tgz:62992.got - 2010.06.03 17:01:31.
