data_PCOD9486986
_publ_section_title
;
Structure prediction by ZEFSAII (Michael W. Deem and Ramdas Pophale) SiO2 
 PCOD9486986
Probable space group: C M M M
;
_chemical_formula_sum "Si O2"
_cell_formula_units_Z 64
_cell_length_a 18.072765
_cell_length_b 10.188485
_cell_length_c 20.028321
_cell_angle_alpha 90.000000
_cell_angle_beta 90.000000
_cell_angle_gamma 90.000000
_cell_volume 3687.896764
_symmetry_space_group_name_H-M "C M M M"
_symmetry_group_IT_number 65
_symmetry_cell_setting 'orthorhombic'
loop_
_space_group_symop_operation_xyz
x,y,z
-x,-y,z
x,-y,-z
-x,y,-z
-x,-y,-z
x,y,-z
-x,y,z
x,-y,z
1/2+x,1/2+y,z
1/2-x,1/2-y,z
1/2+x,1/2-y,-z
1/2-x,1/2+y,-z
1/2-x,1/2-y,-z
1/2+x,1/2+y,-z
1/2-x,1/2+y,z
1/2+x,1/2-y,z
loop_
_atom_site_type_symbol
_atom_site_label
_atom_site_fract_x
_atom_site_fract_y
_atom_site_fract_z
Si Si1 0.909820 0.000000 0.921753
Si Si2 0.089298 0.745548 0.163203
Si Si3 0.415192 0.841245 0.574387
Si Si4 0.677057 0.160749 0.706104
Si Si5 0.910188 0.500000 0.074422
O O1 0.887707 0.124746 0.877118
O O2 0.000000 0.000000 0.924950
O O3 0.885340 0.000000 0.000000
O O4 0.125106 0.712117 0.234007
O O5 0.111122 0.627205 0.114887
O O6 0.000000 0.748616 0.170632
O O7 0.392051 0.796557 0.500000
O O8 0.500000 0.797188 0.585934
O O9 0.362433 0.808377 0.635520
O O10 0.417229 0.000000 0.572620
O O11 0.750000 0.250000 0.710152
O O12 0.687451 0.000000 0.710951
O O13 0.000000 0.500000 0.071068
O O14 0.880809 0.500000 0.000000
#
# Coordination Sequence:
#
# PCOD9486986 Si02
#       5
#     8  16  16  16   8
#     4   9  18  32  53  83 112 135 168 221 281 332
#     4  10  19  33  55  80 105 138 178 223 270 317
#     4   8  15  31  57  85 109 136 176 223 265 309
#     4  11  23  36  53  78 111 147 183 222 264 316
#     4   9  16  28  51  81 104 125 168 227 275 312
#
# _framework density 17.354066
#
# number of rings (size 3 to 8) (size 9 to 14) (size 15 to 20)
#    0.000    2.500    1.250    2.250    1.750    4.500 
#    0.000    0.000    0.000    4.500    0.000    1.750 
#    0.000    0.000    0.000    0.000    0.000    0.000 
#
# Total GULP energy -178161.650016 kJ/mol
# GULP energy per Si atom -5567.551563 kJ/mol
# Density = 1.731457 g / cm^3
# Si number density = 17.354066 Si / 1000 Ang^3
#
#
#
# Elastic Constant Matrix: (Units=GPa)
#
#
# Indices 1 2 3 4 5 6 
#
# 1 50.5212 38.2767 62.2816 0.0000 0.0000 0.0000
# 2 38.2767 127.4676 72.7215 0.0000 0.0000 0.0000
# 3 62.2816 72.7215 178.1191 0.0000 0.0000 0.0000
# 4 0.0000 0.0000 0.0000 23.2627 0.0000 0.0000
# 5 0.0000 0.0000 0.0000 0.0000 -9.1657 0.0000
# 6 0.0000 0.0000 0.0000 0.0000 0.0000 40.5493
#
#
#
# Elastic Compliance Matrix: (Units=1/GPa)
#
#
# Indices 1 2 3 4 5 6 
#
# 1 0.036961 -0.004857 -0.010941 0.000000 0.000000 0.000000
# 2 -0.004857 0.010866 -0.002738 0.000000 0.000000 0.000000
# 3 -0.010941 -0.002738 0.010558 0.000000 0.000000 0.000000
# 4 0.000000 0.000000 0.000000 0.042987 0.000000 0.000000
# 5 0.000000 0.000000 0.000000 0.000000 -0.109103 0.000000
# 6 0.000000 0.000000 0.000000 0.000000 0.000000 0.024661
#
#
# Mechanical properties :
#
#
# Convention : Reuss Voigt Hill
#
# Bulk Modulus (GPa) = 46.91990 78.07419 62.49705
# Shear Modulus (GPa) = 81.82411 23.11780 52.47096
#
# Velocity S-wave (km/s) = 6.87402 3.65379 5.50465
# Velocity P-wave (km/s) = 9.49202 7.93013 8.74601
#
# Compressibility (1/GPa) = 0.02131292
#
# Stress axis : x y z
#
# Youngs Moduli (GPa) = 27.05523 92.03376 94.71782
#
# Poissons Ratio (x) = 0.44701 1.03631
# Poissons Ratio (y) = 0.13141 0.25932
# Poissons Ratio (z) = 0.29601 0.25197
#
# Static dielectric constant tensor:
#      x y z
#    x 1.585720 0.000000 0.000000 
#    y 0.000000 1.583900 0.000000 
#    z 0.000000 0.000000 1.592500 
# 
# From -- ./inp_files/55308.got.cif
#   From: 2010.05.17/outbox.cif.g08.bks.cpg/sg65_28_cif.got.tgz:55308.got - 2010.06.03 17:01:31.
