data_PCOD9486250
_publ_section_title
;
Structure prediction by ZEFSAII (Michael W. Deem and Ramdas Pophale) SiO2 
 PCOD9486250
Probable space group: C M M M
;
_chemical_formula_sum "Si O2"
_cell_formula_units_Z 104
_cell_length_a 7.855710
_cell_length_b 27.000188
_cell_length_c 22.432412
_cell_angle_alpha 90.000000
_cell_angle_beta 90.000000
_cell_angle_gamma 90.000000
_cell_volume 4758.041258
_symmetry_space_group_name_H-M "C M M M"
_symmetry_group_IT_number 65
_symmetry_cell_setting 'orthorhombic'
loop_
_space_group_symop_operation_xyz
x,y,z
-x,-y,z
x,-y,-z
-x,y,-z
-x,-y,-z
x,y,-z
-x,y,z
x,-y,z
1/2+x,1/2+y,z
1/2-x,1/2-y,z
1/2+x,1/2-y,-z
1/2-x,1/2+y,-z
1/2-x,1/2-y,-z
1/2+x,1/2+y,-z
1/2-x,1/2+y,z
1/2+x,1/2-y,z
loop_
_atom_site_type_symbol
_atom_site_label
_atom_site_fract_x
_atom_site_fract_y
_atom_site_fract_z
Si Si1 0.200699 0.662228 0.281580
Si Si2 0.791136 0.107116 0.068971
Si Si3 0.707338 0.586531 0.565215
Si Si4 0.306403 0.695433 0.407564
Si Si5 0.700916 0.053331 0.305488
Si Si6 0.198251 0.000000 0.927290
Si Si7 0.203136 0.195772 0.152620
O O1 0.289650 0.690292 0.335983
O O2 0.267872 0.605335 0.279360
O O3 0.225411 0.688024 0.218686
O O4 0.000000 0.660854 0.296228
O O5 0.728907 0.053099 0.090835
O O6 0.734029 0.151949 0.110008
O O7 0.000000 0.105799 0.069562
O O8 0.741393 0.113854 0.000000
O O9 0.752498 0.566626 0.500000
O O10 0.500000 0.585952 0.569916
O O11 0.771520 0.643764 0.569470
O O12 0.775654 0.558968 0.623230
O O13 0.500000 0.692255 0.426186
O O14 0.250000 0.750000 0.425788
O O15 0.500000 0.052417 0.292000
O O16 0.774243 0.000000 0.286436
O O17 0.000000 0.000000 0.909192
O O18 0.200783 0.000000 0.000000
O O19 0.250000 0.250000 0.129768
O O20 0.000000 0.192160 0.156407
#
# Coordination Sequence:
#
# PCOD9486250 Si02
#       7
#    16  16  16  16  16   8  16
#     4  10  20  36  55  73  98 132 171 211 256 308
#     4   8  15  29  50  76 106 139 174 213 259 309
#     4   9  19  34  50  72 103 135 166 203 249 302
#     4  10  19  32  51  73  98 129 167 209 254 301
#     4   9  19  36  56  76  99 130 168 209 254 306
#     4   7  10  22  46  72  99 131 165 205 252 297
#     4  11  22  35  52  77 108 140 176 217 260 310
#
# _framework density 21.857734000000001
#
# number of rings (size 3 to 8) (size 9 to 14) (size 15 to 20)
#    0.000    2.692    0.000    2.769    0.000    2.769 
#    1.385    1.538    0.000    1.385    0.000    0.000 
#    0.000    7.385    0.000    0.000    0.000    0.000 
#
# Total GULP energy -290127.085183 kJ/mol
# GULP energy per Si atom -5579.367023 kJ/mol
# Density = 2.180798 g / cm^3
# Si number density = 21.857734 Si / 1000 Ang^3
#
#
#
# Elastic Constant Matrix: (Units=GPa)
#
#
# Indices 1 2 3 4 5 6 
#
# 1 29.1151 1.6019 -7.3440 0.0000 0.0000 0.0000
# 2 1.6019 150.0745 25.5347 0.0000 0.0000 0.0000
# 3 -7.3440 25.5347 54.8007 0.0000 0.0000 0.0000
# 4 0.0000 0.0000 0.0000 -6.3213 0.0000 0.0000
# 5 0.0000 0.0000 0.0000 0.0000 25.2094 0.0000
# 6 0.0000 0.0000 0.0000 0.0000 0.0000 14.0886
#
#
#
# Elastic Compliance Matrix: (Units=1/GPa)
#
#
# Indices 1 2 3 4 5 6 
#
# 1 0.035780 -0.001301 0.005401 0.000000 0.000000 0.000000
# 2 -0.001301 0.007284 -0.003569 0.000000 0.000000 0.000000
# 3 0.005401 -0.003569 0.020635 0.000000 0.000000 0.000000
# 4 0.000000 0.000000 0.000000 -0.158195 0.000000 0.000000
# 5 0.000000 0.000000 0.000000 0.000000 0.039668 0.000000
# 6 0.000000 0.000000 0.000000 0.000000 0.000000 0.070979
#
#
# Mechanical properties :
#
#
# Convention : Reuss Voigt Hill
#
# Bulk Modulus (GPa) = 15.44095 30.39727 22.91911
# Shear Modulus (GPa) = 136.32847 20.87517 78.60182
#
# Velocity S-wave (km/s) = 7.90609 3.09374 6.00323
# Velocity P-wave (km/s) = 9.50901 5.16708 7.65245
#
# Compressibility (1/GPa) = 0.06476286
#
# Stress axis : x y z
#
# Youngs Moduli (GPa) = 27.94823 137.27923 48.46236
#
# Poissons Ratio (x) = 0.17859 -0.26175
# Poissons Ratio (y) = 0.03636 0.17294
# Poissons Ratio (z) = -0.15095 0.48989
#
# Static dielectric constant tensor:
#      x y z
#    x 1.817310 0.000000 0.000000 
#    y 0.000000 1.864730 0.000000 
#    z 0.000000 0.000000 1.760750 
# 
# From -- ./inp_files/68172.got.cif
#   From: 2010.05.17/outbox.cif.g08.bks.cpg/sg65_35_cif.got.tgz:68172.got - 2010.06.03 17:01:31.
