data_PCOD9486244
_publ_section_title
;
Structure prediction by ZEFSAII (Michael W. Deem and Ramdas Pophale) SiO2 
 PCOD9486244
Probable space group: C M M M
;
_chemical_formula_sum "Si O2"
_cell_formula_units_Z 80
_cell_length_a 8.394470
_cell_length_b 19.913127
_cell_length_c 27.002706
_cell_angle_alpha 90.000000
_cell_angle_beta 90.000000
_cell_angle_gamma 90.000000
_cell_volume 4513.776310
_symmetry_space_group_name_H-M "C M M M"
_symmetry_group_IT_number 65
_symmetry_cell_setting 'orthorhombic'
loop_
_space_group_symop_operation_xyz
x,y,z
-x,-y,z
x,-y,-z
-x,y,-z
-x,-y,-z
x,y,-z
-x,y,z
x,-y,z
1/2+x,1/2+y,z
1/2-x,1/2-y,z
1/2+x,1/2-y,-z
1/2-x,1/2+y,-z
1/2-x,1/2-y,-z
1/2+x,1/2+y,-z
1/2-x,1/2+y,z
1/2+x,1/2-y,z
loop_
_atom_site_type_symbol
_atom_site_label
_atom_site_fract_x
_atom_site_fract_y
_atom_site_fract_z
Si Si1 0.806863 0.578203 0.338529
Si Si2 0.308872 0.825842 0.856781
Si Si3 0.689311 0.674089 0.251715
Si Si4 0.189321 0.581267 0.553194
Si Si5 0.305753 0.077412 0.944356
O O1 0.759488 0.500000 0.331897
O O2 0.747444 0.624694 0.294570
O O3 0.748640 0.602736 0.392995
O O4 0.000000 0.579397 0.339359
O O5 0.500000 0.825803 0.856767
O O6 0.250000 0.750000 0.864638
O O7 0.251952 0.847571 0.802348
O O8 0.250737 0.874065 0.900715
O O9 0.500000 0.675508 0.250350
O O10 0.750000 0.750000 0.260369
O O11 0.256841 0.604743 0.500000
O O12 0.201943 0.500000 0.553639
O O13 0.000000 0.596356 0.552526
O O14 0.500000 0.078435 0.943967
O O15 0.257961 0.000000 0.936303
O O16 0.255861 0.097602 0.000000
#
# Coordination Sequence:
#
# PCOD9486244 Si02
#       5
#    16  16  16  16  16
#     4   9  17  30  50  76 103 129 160 198 240 290
#     4  10  19  32  51  73  96 124 159 198 240 287
#     4  11  22  36  52  69  95 130 167 207 249 293
#     4   7  10  19  39  68  98 125 154 190 232 279
#     4   8  15  29  49  73  99 126 157 192 230 275
#
# _framework density 17.723517999999999
#
# number of rings (size 3 to 8) (size 9 to 14) (size 15 to 20)
#    0.000    3.000    0.000    6.000    0.000    1.600 
#    0.000    2.000    0.000    4.800    0.000    8.400 
#    0.000    0.000    0.000    0.000    0.000    0.000 
#
# Total GULP energy -222767.453281 kJ/mol
# GULP energy per Si atom -5569.186332 kJ/mol
# Density = 1.768318 g / cm^3
# Si number density = 17.723518 Si / 1000 Ang^3
#
#
#
# Elastic Constant Matrix: (Units=GPa)
#
#
# Indices 1 2 3 4 5 6 
#
# 1 37.4977 18.3794 32.2696 0.0000 0.0000 0.0000
# 2 18.3794 61.3838 103.1170 0.0000 0.0000 0.0000
# 3 32.2696 103.1170 230.1022 0.0000 0.0000 0.0000
# 4 0.0000 0.0000 0.0000 -3.5894 0.0000 0.0000
# 5 0.0000 0.0000 0.0000 0.0000 11.2731 0.0000
# 6 0.0000 0.0000 0.0000 0.0000 0.0000 19.6691
#
#
#
# Elastic Compliance Matrix: (Units=1/GPa)
#
#
# Indices 1 2 3 4 5 6 
#
# 1 0.031289 -0.008080 -0.000767 0.000000 0.000000 0.000000
# 2 -0.008080 0.067991 -0.029336 0.000000 0.000000 0.000000
# 3 -0.000767 -0.029336 0.017600 0.000000 0.000000 0.000000
# 4 0.000000 0.000000 0.000000 -0.278597 0.000000 0.000000
# 5 0.000000 0.000000 0.000000 0.000000 0.088707 0.000000
# 6 0.000000 0.000000 0.000000 0.000000 0.000000 0.050841
#
#
# Mechanical properties :
#
#
# Convention : Reuss Voigt Hill
#
# Bulk Modulus (GPa) = 24.68283 70.72397 47.70340
# Shear Modulus (GPa) = 73.85240 17.15173 45.50206
#
# Velocity S-wave (km/s) = 6.46217 3.11422 5.07238
# Velocity P-wave (km/s) = 8.34484 7.27474 7.82810
#
# Compressibility (1/GPa) = 0.04051399
#
# Stress axis : x y z
#
# Youngs Moduli (GPa) = 31.96034 14.70772 56.81782
#
# Poissons Ratio (x) = 0.11884 0.04358
# Poissons Ratio (y) = 0.25823 1.66682
# Poissons Ratio (z) = 0.02452 0.43147
#
# Static dielectric constant tensor:
#      x y z
#    x 1.614110 0.000000 0.000000 
#    y 0.000000 1.574230 0.000000 
#    z 0.000000 0.000000 1.644340 
# 
# From -- ./inp_files/72825.got.cif
#   From: 2010.05.17/outbox.cif.g08.bks.cpg/sg65_37_cif.got.tgz:72825.got - 2010.06.03 17:01:31.
