data_PCOD9486622
_publ_section_title
;
Structure prediction by ZEFSAII (Michael W. Deem and Ramdas Pophale) SiO2 
 PCOD9486622
Probable space group: C M M M
;
_chemical_formula_sum "Si O2"
_cell_formula_units_Z 96
_cell_length_a 16.514791
_cell_length_b 22.509762
_cell_length_c 20.060049
_cell_angle_alpha 90.000000
_cell_angle_beta 90.000000
_cell_angle_gamma 90.000000
_cell_volume 7457.203154
_symmetry_space_group_name_H-M "C M M M"
_symmetry_group_IT_number 65
_symmetry_cell_setting 'orthorhombic'
loop_
_space_group_symop_operation_xyz
x,y,z
-x,-y,z
x,-y,-z
-x,y,-z
-x,-y,-z
x,y,-z
-x,y,z
x,-y,z
1/2+x,1/2+y,z
1/2-x,1/2-y,z
1/2+x,1/2-y,-z
1/2-x,1/2+y,-z
1/2-x,1/2-y,-z
1/2+x,1/2+y,-z
1/2-x,1/2+y,z
1/2+x,1/2-y,z
loop_
_atom_site_type_symbol
_atom_site_label
_atom_site_fract_x
_atom_site_fract_y
_atom_site_fract_z
Si Si1 0.500000 0.932129 0.419337
Si Si2 0.597843 0.570323 0.071639
Si Si3 0.661220 0.859444 0.420366
Si Si4 0.596135 0.272487 0.576971
Si Si5 0.329364 0.384900 0.353003
Si Si6 0.596421 0.572063 0.780827
Si Si7 0.406637 0.500000 0.579627
O O1 0.500000 0.933724 0.500000
O O2 0.581294 0.896728 0.401495
O O3 0.500000 0.000000 0.395071
O O4 0.500000 0.574459 0.071611
O O5 0.616840 0.500000 0.071118
O O6 0.622323 0.592442 0.144739
O O7 0.626555 0.595390 0.000000
O O8 0.677825 0.869176 0.500000
O O9 0.641284 0.789767 0.412148
O O10 0.736685 0.877884 0.375412
O O11 0.611468 0.290672 0.500000
O O12 0.500000 0.262651 0.583926
O O13 0.626140 0.324956 0.623700
O O14 0.350080 0.398477 0.276413
O O15 0.365214 0.441090 0.392703
O O16 0.500000 0.584837 0.771202
O O17 0.603827 0.500000 0.777182
O O18 0.500000 0.500000 0.601938
O O19 0.403961 0.500000 0.500000
#
# Coordination Sequence:
#
# PCOD9486622 Si02
#       7
#     8  16  16  16  16  16   8
#     4   9  18  32  50  64  76  95 126 178 236 268
#     4   7  10  18  34  53  73 104 142 168 187 222
#     4  10  20  34  47  61  77  98 138 185 222 256
#     4  10  19  33  48  59  75 103 139 180 220 252
#     4  12  21  28  42  61  83 111 139 169 208 249
#     4   9  16  26  37  54  85 116 138 163 198 240
#     4  11  22  32  38  53  82 114 146 169 191 236
#
# _framework density 12.873459
#
# number of rings (size 3 to 8) (size 9 to 14) (size 15 to 20)
#    0.000    2.333    1.667    5.000    1.167    2.667 
#    0.000    0.000    0.000    0.000    0.000    0.000 
#    0.000    2.667    0.000    1.083    0.000    8.917 
#
# Total GULP energy -267333.731047 kJ/mol
# GULP energy per Si atom -5569.452730 kJ/mol
# Density = 1.284416 g / cm^3
# Si number density = 12.873459 Si / 1000 Ang^3
#
#
#
# Elastic Constant Matrix: (Units=GPa)
#
#
# Indices 1 2 3 4 5 6 
#
# 1 72.0052 28.2430 51.6290 0.0000 0.0000 0.0000
# 2 28.2430 57.3353 39.1897 0.0000 0.0000 0.0000
# 3 51.6290 39.1897 108.1882 0.0000 0.0000 0.0000
# 4 0.0000 0.0000 0.0000 10.2722 0.0000 0.0000
# 5 0.0000 0.0000 0.0000 0.0000 12.9141 0.0000
# 6 0.0000 0.0000 0.0000 0.0000 0.0000 952.2260
#
#
#
# Elastic Compliance Matrix: (Units=1/GPa)
#
#
# Indices 1 2 3 4 5 6 
#
# 1 0.022096 -0.004887 -0.008774 0.000000 0.000000 0.000000
# 2 -0.004887 0.024262 -0.006456 0.000000 0.000000 0.000000
# 3 -0.008774 -0.006456 0.015769 0.000000 0.000000 0.000000
# 4 0.000000 0.000000 0.000000 0.097350 0.000000 0.000000
# 5 0.000000 0.000000 0.000000 0.000000 0.077435 0.000000
# 6 0.000000 0.000000 0.000000 0.000000 0.000000 0.001050
#
#
# Mechanical properties :
#
#
# Convention : Reuss Voigt Hill
#
# Bulk Modulus (GPa) = 45.67971 52.85023 49.26497
# Shear Modulus (GPa) = 17.51353 202.98027 110.24690
#
# Velocity S-wave (km/s) = 3.69241 12.57043 9.26417
# Velocity P-wave (km/s) = 7.33070 15.86917 12.36062
#
# Compressibility (1/GPa) = 0.02189156
#
# Stress axis : x y z
#
# Youngs Moduli (GPa) = 45.25691 41.21750 63.41517
#
# Poissons Ratio (x) = 0.20143 0.55643
# Poissons Ratio (y) = 0.22117 0.40943
# Poissons Ratio (z) = 0.39710 0.26611
#
# Static dielectric constant tensor:
#      x y z
#    x 1.417370 0.000000 0.000000 
#    y 0.000000 1.411220 0.000000 
#    z 0.000000 0.000000 1.439490 
# 
# From -- ./inp_files/64051.got.cif
#   From: 2010.05.17/outbox.cif.g08.bks.cpg/sg65_33_cif.got.tgz:64051.got - 2010.06.03 17:01:31.
