data_PCOD9486046
_publ_section_title
;
Structure prediction by ZEFSAII (Michael W. Deem and Ramdas Pophale) SiO2 
 PCOD9486046
Probable space group: C M M M
;
_chemical_formula_sum "Si O2"
_cell_formula_units_Z 60
_cell_length_a 23.544571
_cell_length_b 5.616234
_cell_length_c 19.492412
_cell_angle_alpha 90.000000
_cell_angle_beta 90.000000
_cell_angle_gamma 90.000000
_cell_volume 2577.517118
_symmetry_space_group_name_H-M "C M M M"
_symmetry_group_IT_number 65
_symmetry_cell_setting 'orthorhombic'
loop_
_space_group_symop_operation_xyz
x,y,z
-x,-y,z
x,-y,-z
-x,y,-z
-x,-y,-z
x,y,-z
-x,y,z
x,-y,z
1/2+x,1/2+y,z
1/2-x,1/2-y,z
1/2+x,1/2-y,-z
1/2-x,1/2+y,-z
1/2-x,1/2-y,-z
1/2+x,1/2+y,-z
1/2-x,1/2+y,z
1/2+x,1/2-y,z
loop_
_atom_site_type_symbol
_atom_site_label
_atom_site_fract_x
_atom_site_fract_y
_atom_site_fract_z
Si Si1 0.285209 0.000000 0.000000
Si Si2 0.647937 0.500000 0.247864
Si Si3 0.434277 0.500000 0.116476
Si Si4 0.890449 0.500000 0.901613
Si Si5 0.269222 0.500000 0.422187
Si Si6 0.099212 0.000000 0.602669
Si Si7 0.152446 0.500000 0.749497
Si Si8 0.937027 0.500000 0.625037
O O1 0.250000 0.250000 0.000000
O O2 0.327899 0.000000 0.065029
O O3 0.608370 0.500000 0.181175
O O4 0.606739 0.500000 0.314265
O O5 0.682154 0.745136 0.249488
O O6 0.500000 0.500000 0.137080
O O7 0.420670 0.751139 0.079505
O O8 0.885053 0.500000 0.818943
O O9 0.244787 0.500000 0.500000
O O10 0.250000 0.750000 0.390436
O O11 0.336744 0.500000 0.424073
O O12 0.070584 0.251113 0.584956
O O13 0.112016 0.500000 0.682740
O O14 0.000000 0.500000 0.656216
#
# Coordination Sequence:
#
# PCOD9486046 Si02
#       8
#     4   8   8   8   8   8   8   8
#     4  12  26  46  67  78  95 140 194 240 280 312
#     4   8  16  27  47  76 110 144 172 197 248 318
#     4  10  19  34  58  86 119 149 169 204 266 330
#     4  10  21  37  57  83 109 137 184 230 261 317
#     4  10  21  38  60  80  99 135 188 239 288 330
#     4  10  19  32  52  79 112 141 180 231 266 310
#     4   8  16  29  49  74 109 137 170 216 254 297
#     4  10  19  31  53  83 115 153 182 201 249 328
#
# _framework density 23.278217000000001
#
# number of rings (size 3 to 8) (size 9 to 14) (size 15 to 20)
#    0.000    2.400    0.000    2.400    0.000    9.600 
#    0.000    2.000    0.000   45.600    0.000    0.000 
#    0.000    0.000    0.000    0.000    0.000    0.000 
#
# Total GULP energy -167197.011547 kJ/mol
# GULP energy per Si atom -5573.233718 kJ/mol
# Density = 2.322524 g / cm^3
# Si number density = 23.278217 Si / 1000 Ang^3
#
#
#
# Elastic Constant Matrix: (Units=GPa)
#
#
# Indices 1 2 3 4 5 6 
#
# 1 96.3670 53.1411 -1.1426 0.0000 0.0000 0.0000
# 2 53.1411 330.7581 11.1269 0.0000 0.0000 0.0000
# 3 -1.1426 11.1269 70.1898 0.0000 0.0000 0.0000
# 4 0.0000 0.0000 0.0000 -10.8051 0.0000 0.0000
# 5 0.0000 0.0000 0.0000 0.0000 -17.3744 0.0000
# 6 0.0000 0.0000 0.0000 0.0000 0.0000 36.1892
#
#
#
# Elastic Compliance Matrix: (Units=1/GPa)
#
#
# Indices 1 2 3 4 5 6 
#
# 1 0.011402 -0.001848 0.000479 0.000000 0.000000 0.000000
# 2 -0.001848 0.003339 -0.000559 0.000000 0.000000 0.000000
# 3 0.000479 -0.000559 0.014344 0.000000 0.000000 0.000000
# 4 0.000000 0.000000 0.000000 -0.092549 0.000000 0.000000
# 5 0.000000 0.000000 0.000000 0.000000 -0.057556 0.000000
# 6 0.000000 0.000000 0.000000 0.000000 0.000000 0.027633
#
#
# Mechanical properties :
#
#
# Convention : Reuss Voigt Hill
#
# Bulk Modulus (GPa) = 39.64052 69.28511 54.46281
# Shear Modulus (GPa) = -61.63605 30.54790 -15.54408
#
# Velocity S-wave (km/s) = -5.15126 3.62649 -2.58689
# Velocity P-wave (km/s) = 4.27956 6.88214 3.81111
#
# Compressibility (1/GPa) = 0.02522671
#
# Stress axis : x y z
#
# Youngs Moduli (GPa) = 87.70612 299.48392 69.71772
#
# Poissons Ratio (x) = 0.55343 -0.03336
# Poissons Ratio (y) = 0.16208 0.03900
# Poissons Ratio (z) = -0.04197 0.16754
#
# Static dielectric constant tensor:
#      x y z
#    x 1.770980 0.000000 0.000000 
#    y 0.000000 1.998460 0.000000 
#    z 0.000000 0.000000 1.879660 
# 
# From -- ./inp_files/70723.got.cif
#   From: 2010.05.17/outbox.cif.g08.bks.cpg/sg65_36_cif.got.tgz:70723.got - 2010.06.03 17:01:31.
