data_PCOD9486754
_publ_section_title
;
Structure prediction by ZEFSAII (Michael W. Deem and Ramdas Pophale) SiO2 
 PCOD9486754
Probable space group: C M M M
;
_chemical_formula_sum "Si O2"
_cell_formula_units_Z 104
_cell_length_a 19.827027
_cell_length_b 14.390220
_cell_length_c 20.186018
_cell_angle_alpha 90.000000
_cell_angle_beta 90.000000
_cell_angle_gamma 90.000000
_cell_volume 5759.379387
_symmetry_space_group_name_H-M "C M M M"
_symmetry_group_IT_number 65
_symmetry_cell_setting 'orthorhombic'
loop_
_space_group_symop_operation_xyz
x,y,z
-x,-y,z
x,-y,-z
-x,y,-z
-x,-y,-z
x,y,-z
-x,y,z
x,-y,z
1/2+x,1/2+y,z
1/2-x,1/2-y,z
1/2+x,1/2-y,-z
1/2-x,1/2+y,-z
1/2-x,1/2-y,-z
1/2+x,1/2+y,-z
1/2-x,1/2+y,z
1/2+x,1/2-y,z
loop_
_atom_site_type_symbol
_atom_site_label
_atom_site_fract_x
_atom_site_fract_y
_atom_site_fract_z
Si Si1 0.724602 0.388337 0.427978
Si Si2 0.146625 0.198474 0.871952
Si Si3 0.080641 0.108505 0.000000
Si Si4 0.199993 0.667975 0.294189
Si Si5 0.923399 0.789031 0.266902
Si Si6 0.425592 0.390869 0.602316
Si Si7 0.209513 0.395729 0.849112
O O1 0.752231 0.360161 0.500000
O O2 0.721052 0.500000 0.426569
O O3 0.769288 0.361362 0.364625
O O4 0.646628 0.354016 0.423052
O O5 0.105129 0.184042 0.804342
O O6 0.163480 0.309252 0.873751
O O7 0.215423 0.139388 0.866150
O O8 0.107788 0.161343 0.935454
O O9 0.000000 0.109616 0.000000
O O10 0.102579 0.000000 0.000000
O O11 0.250000 0.750000 0.271277
O O12 0.125587 0.710795 0.297512
O O13 0.202253 0.601185 0.231060
O O14 0.921738 0.873481 0.318916
O O15 0.000000 0.756321 0.261274
O O16 0.500000 0.352991 0.581361
O O17 0.426769 0.500000 0.586555
O O18 0.196435 0.500000 0.874907
#
# Coordination Sequence:
#
# PCOD9486754 Si02
#       7
#    16  16   8  16  16  16  16
#     4  10  20  32  49  72 101 142 183 222 276 341
#     4  10  20  37  55  83 116 147 185 229 275 336
#     4  11  24  39  57  83 119 161 193 226 282 343
#     4  11  18  34  51  80 108 138 179 234 282 325
#     4  10  19  33  53  75 104 139 177 222 277 327
#     4   9  17  29  46  71 102 134 171 216 267 328
#     4  10  19  34  60  87 110 143 185 238 290 330
#
# _framework density 18.057500999999998
#
# number of rings (size 3 to 8) (size 9 to 14) (size 15 to 20)
#    0.000    1.923    4.615    1.385    0.000    4.308 
#    0.000    4.231    0.000   16.615    0.000    1.077 
#    0.000    0.000    0.000    0.000    0.000    0.000 
#
# Total GULP energy -289616.945594 kJ/mol
# GULP energy per Si atom -5569.556646 kJ/mol
# Density = 1.801640 g / cm^3
# Si number density = 18.057501 Si / 1000 Ang^3
#
#
#
# Elastic Constant Matrix: (Units=GPa)
#
#
# Indices 1 2 3 4 5 6 
#
# 1 87.6024 14.3053 42.9347 0.0000 0.0000 0.0000
# 2 14.3053 89.9147 34.7756 0.0000 0.0000 0.0000
# 3 42.9347 34.7756 120.9320 0.0000 0.0000 0.0000
# 4 0.0000 0.0000 0.0000 18.4036 0.0000 0.0000
# 5 0.0000 0.0000 0.0000 0.0000 10.4578 0.0000
# 6 0.0000 0.0000 0.0000 0.0000 0.0000 19.0734
#
#
#
# Elastic Compliance Matrix: (Units=1/GPa)
#
#
# Indices 1 2 3 4 5 6 
#
# 1 0.013829 -0.000339 -0.004812 0.000000 0.000000 0.000000
# 2 -0.000339 0.012522 -0.003480 0.000000 0.000000 0.000000
# 3 -0.004812 -0.003480 0.010978 0.000000 0.000000 0.000000
# 4 0.000000 0.000000 0.000000 0.054337 0.000000 0.000000
# 5 0.000000 0.000000 0.000000 0.000000 0.095623 0.000000
# 6 0.000000 0.000000 0.000000 0.000000 0.000000 0.052429
#
#
# Mechanical properties :
#
#
# Convention : Reuss Voigt Hill
#
# Bulk Modulus (GPa) = 49.83589 53.60892 51.72241
# Shear Modulus (GPa) = 18.96307 23.34918 21.15612
#
# Velocity S-wave (km/s) = 3.24412 3.59980 3.42657
# Velocity P-wave (km/s) = 6.45684 6.85787 6.66037
#
# Compressibility (1/GPa) = 0.02006586
#
# Stress axis : x y z
#
# Youngs Moduli (GPa) = 72.31122 79.86148 91.08741
#
# Poissons Ratio (x) = 0.02707 0.43834
# Poissons Ratio (y) = 0.02451 0.31702
# Poissons Ratio (z) = 0.34798 0.27795
#
# Static dielectric constant tensor:
#      x y z
#    x 1.642850 0.000000 0.000000 
#    y 0.000000 1.640800 0.000000 
#    z 0.000000 0.000000 1.634870 
# 
# From -- ./inp_files/62821.got.cif
#   From: 2010.05.17/outbox.cif.g08.bks.cpg/sg65_32_cif.got.tgz:62821.got - 2010.06.03 17:01:31.
