data_PCOD9486066
_publ_section_title
;
Structure prediction by ZEFSAII (Michael W. Deem and Ramdas Pophale) SiO2 
 PCOD9486066
Probable space group: C M M M
;
_chemical_formula_sum "Si O2"
_cell_formula_units_Z 80
_cell_length_a 8.284834
_cell_length_b 29.204998
_cell_length_c 22.468951
_cell_angle_alpha 90.000000
_cell_angle_beta 90.000000
_cell_angle_gamma 90.000000
_cell_volume 5436.555038
_symmetry_space_group_name_H-M "C M M M"
_symmetry_group_IT_number 65
_symmetry_cell_setting 'orthorhombic'
loop_
_space_group_symop_operation_xyz
x,y,z
-x,-y,z
x,-y,-z
-x,y,-z
-x,-y,-z
x,y,-z
-x,y,z
x,-y,z
1/2+x,1/2+y,z
1/2-x,1/2-y,z
1/2+x,1/2-y,-z
1/2-x,1/2+y,-z
1/2-x,1/2-y,-z
1/2+x,1/2+y,-z
1/2-x,1/2+y,z
1/2+x,1/2-y,z
loop_
_atom_site_type_symbol
_atom_site_label
_atom_site_fract_x
_atom_site_fract_y
_atom_site_fract_z
Si Si1 0.306589 0.199497 0.930640
Si Si2 0.809891 0.894528 0.118163
Si Si3 0.805981 0.553338 0.000000
Si Si4 0.310210 0.053144 0.232346
Si Si5 0.000000 0.444215 0.569180
Si Si6 0.819949 0.055625 0.360024
O O1 0.500000 0.197045 0.928657
O O2 0.250000 0.250000 0.912233
O O3 0.234571 0.158321 0.892673
O O4 0.255949 0.193274 0.000000
O O5 0.723825 0.916093 0.175311
O O6 0.000000 0.899613 0.126065
O O7 0.756682 0.921614 0.058894
O O8 0.758554 0.500000 0.000000
O O9 0.000000 0.556054 0.000000
O O10 0.500000 0.054444 0.247611
O O11 0.212292 0.067298 0.290992
O O12 0.269612 0.000000 0.218271
O O13 0.165424 0.428895 0.601522
O O14 0.000000 0.500000 0.572055
O O15 0.000000 0.431233 0.500000
O O16 0.000000 0.070771 0.378705
O O17 0.819095 0.000000 0.362905
#
# Coordination Sequence:
#
# PCOD9486066 Si02
#       6
#    16  16   8  16   8  16
#     4  10  20  35  54  70  88 111 139 180 230 279
#     4  12  23  33  48  69  90 113 148 189 231 283
#     4  11  23  37  48  61  86 117 147 187 239 281
#     4  10  19  32  48  64  87 121 157 194 233 276
#     4   9  16  26  40  60  86 115 151 193 231 266
#     4   9  16  27  42  60  84 115 152 192 230 270
#
# _framework density 14.715199999999999
#
# number of rings (size 3 to 8) (size 9 to 14) (size 15 to 20)
#    0.000    1.800    2.000    3.900    0.000    5.600 
#    0.000    2.000    0.000    0.000    0.000    0.000 
#    0.000    0.000    0.000    0.000    0.000    1.000 
#
# Total GULP energy -223192.015400 kJ/mol
# GULP energy per Si atom -5579.800385 kJ/mol
# Density = 1.468171 g / cm^3
# Si number density = 14.715200 Si / 1000 Ang^3
#
#
#
# Elastic Constant Matrix: (Units=GPa)
#
#
# Indices 1 2 3 4 5 6 
#
# 1 81.1967 13.1541 33.1639 0.0000 0.0000 0.0000
# 2 13.1541 54.0836 20.9418 0.0000 0.0000 0.0000
# 3 33.1639 20.9418 77.2438 0.0000 0.0000 0.0000
# 4 0.0000 0.0000 0.0000 1.3020 0.0000 0.0000
# 5 0.0000 0.0000 0.0000 0.0000 12.2001 0.0000
# 6 0.0000 0.0000 0.0000 0.0000 0.0000 18.7955
#
#
#
# Elastic Compliance Matrix: (Units=1/GPa)
#
#
# Indices 1 2 3 4 5 6 
#
# 1 0.015015 -0.001291 -0.006096 0.000000 0.000000 0.000000
# 2 -0.001291 0.020770 -0.005077 0.000000 0.000000 0.000000
# 3 -0.006096 -0.005077 0.016940 0.000000 0.000000 0.000000
# 4 0.000000 0.000000 0.000000 0.768027 0.000000 0.000000
# 5 0.000000 0.000000 0.000000 0.000000 0.081967 0.000000
# 6 0.000000 0.000000 0.000000 0.000000 0.000000 0.053204
#
#
# Mechanical properties :
#
#
# Convention : Reuss Voigt Hill
#
# Bulk Modulus (GPa) = 35.97654 38.56041 37.26848
# Shear Modulus (GPa) = 5.04991 16.14380 10.59686
#
# Velocity S-wave (km/s) = 1.85451 3.31582 2.68644
# Velocity P-wave (km/s) = 5.39326 6.39694 5.91642
#
# Compressibility (1/GPa) = 0.02779589
#
# Stress axis : x y z
#
# Youngs Moduli (GPa) = 66.60004 48.14723 59.03254
#
# Poissons Ratio (x) = 0.06217 0.35989
# Poissons Ratio (y) = 0.08600 0.29968
# Poissons Ratio (z) = 0.40603 0.24442
#
# Static dielectric constant tensor:
#      x y z
#    x 1.518240 0.000000 0.000000 
#    y 0.000000 1.456160 0.000000 
#    z 0.000000 0.000000 1.488130 
# 
# From -- ./inp_files/60545.got.cif
#   From: 2010.05.17/outbox.cif.g08.bks.cpg/sg65_31_cif.got.tgz:60545.got - 2010.06.03 17:01:31.
