data_PCOD9486458
_publ_section_title
;
Structure prediction by ZEFSAII (Michael W. Deem and Ramdas Pophale) SiO2 
 PCOD9486458
Probable space group: C M M M
;
_chemical_formula_sum "Si O2"
_cell_formula_units_Z 72
_cell_length_a 21.140667
_cell_length_b 24.052243
_cell_length_c 7.803224
_cell_angle_alpha 90.000000
_cell_angle_beta 90.000000
_cell_angle_gamma 90.000000
_cell_volume 3967.786928
_symmetry_space_group_name_H-M "C M M M"
_symmetry_group_IT_number 65
_symmetry_cell_setting 'orthorhombic'
loop_
_space_group_symop_operation_xyz
x,y,z
-x,-y,z
x,-y,-z
-x,y,-z
-x,-y,-z
x,y,-z
-x,y,z
x,-y,z
1/2+x,1/2+y,z
1/2-x,1/2-y,z
1/2+x,1/2-y,-z
1/2-x,1/2+y,-z
1/2-x,1/2-y,-z
1/2+x,1/2+y,-z
1/2-x,1/2+y,z
1/2+x,1/2-y,z
loop_
_atom_site_type_symbol
_atom_site_label
_atom_site_fract_x
_atom_site_fract_y
_atom_site_fract_z
Si Si1 0.733638 0.884170 0.812210
Si Si2 0.070281 0.649784 0.500000
Si Si3 0.136590 0.933210 0.702859
Si Si4 0.294176 0.804036 0.500000
Si Si5 0.397995 0.063448 0.799813
Si Si6 0.500000 0.564866 0.290806
O O1 0.802806 0.909832 0.796643
O O2 0.724335 0.839245 0.666349
O O3 0.678343 0.929862 0.789615
O O4 0.724245 0.859334 0.000000
O O5 0.128518 0.693789 0.500000
O O6 0.076963 0.608960 0.334303
O O7 0.000000 0.674648 0.500000
O O8 0.143260 0.920681 0.500000
O O9 0.067822 0.911540 0.763075
O O10 0.135774 0.000000 0.718776
O O11 0.250000 0.750000 0.500000
O O12 0.416014 0.000000 0.756418
O O13 0.415655 0.073550 0.000000
O O14 0.500000 0.500000 0.239063
O O15 0.500000 0.565168 0.500000
#
# Coordination Sequence:
#
# PCOD9486458 Si02
#       6
#    16   8  16   8  16   8
#     4  10  19  32  52  78 103 133 173 215 259 306
#     4  10  21  36  56  81 105 135 178 218 254 308
#     4   9  15  25  44  70 104 142 176 208 246 297
#     4  10  22  41  61  76  97 126 170 222 275 321
#     4   9  18  31  48  77 117 151 174 200 241 298
#     4   7  12  22  37  61  95 138 179 205 236 285
#
# _framework density 18.146135000000001
#
# number of rings (size 3 to 8) (size 9 to 14) (size 15 to 20)
#    0.000    2.778    1.111    2.333    0.000    3.111 
#    0.000    1.667    2.444    2.000    0.000    0.000 
#    0.000    0.000    0.000    0.000    0.000    0.000 
#
# Total GULP energy -200503.354512 kJ/mol
# GULP energy per Si atom -5569.537625 kJ/mol
# Density = 1.810483 g / cm^3
# Si number density = 18.146135 Si / 1000 Ang^3
#
#
#
# Elastic Constant Matrix: (Units=GPa)
#
#
# Indices 1 2 3 4 5 6 
#
# 1 139.3476 15.5153 22.1184 0.0000 0.0000 0.0000
# 2 15.5153 40.2055 26.3655 0.0000 0.0000 0.0000
# 3 22.1184 26.3655 77.3832 0.0000 0.0000 0.0000
# 4 0.0000 0.0000 0.0000 -149.4973 0.0000 0.0000
# 5 0.0000 0.0000 0.0000 0.0000 7.2483 0.0000
# 6 0.0000 0.0000 0.0000 0.0000 0.0000 7.2408
#
#
#
# Elastic Compliance Matrix: (Units=1/GPa)
#
#
# Indices 1 2 3 4 5 6 
#
# 1 0.007634 -0.001951 -0.001517 0.000000 0.000000 0.000000
# 2 -0.001951 0.032527 -0.010525 0.000000 0.000000 0.000000
# 3 -0.001517 -0.010525 0.016942 0.000000 0.000000 0.000000
# 4 0.000000 0.000000 0.000000 -0.006689 0.000000 0.000000
# 5 0.000000 0.000000 0.000000 0.000000 0.137963 0.000000
# 6 0.000000 0.000000 0.000000 0.000000 0.000000 0.138106
#
#
# Mechanical properties :
#
#
# Convention : Reuss Voigt Hill
#
# Bulk Modulus (GPa) = 34.34376 42.77051 38.55714
# Shear Modulus (GPa) = 13.72966 -14.13916 -0.20475
#
# Velocity S-wave (km/s) = 2.75365 -2.79441 -0.33627
# Velocity P-wave (km/s) = 5.39235 3.63449 4.59820
#
# Compressibility (1/GPa) = 0.02911737
#
# Stress axis : x y z
#
# Youngs Moduli (GPa) = 130.98631 30.74380 59.02384
#
# Poissons Ratio (x) = 0.05998 0.08956
# Poissons Ratio (y) = 0.25556 0.62121
# Poissons Ratio (z) = 0.19876 0.32357
#
# Static dielectric constant tensor:
#      x y z
#    x 1.685940 0.000000 0.000000 
#    y 0.000000 1.578960 0.000000 
#    z 0.000000 0.000000 1.642670 
# 
# From -- ./inp_files/11332.got.cif
#   From: 2010.05.17/outbox.cif.g08.bks.cpg/sg65_6_cif.got.tgz:11332.got - 2010.06.03 17:01:31.
