data_PCOD9486768
_publ_section_title
;
Structure prediction by ZEFSAII (Michael W. Deem and Ramdas Pophale) SiO2 
 PCOD9486768
Probable space group: C M M M
;
_chemical_formula_sum "Si O2"
_cell_formula_units_Z 80
_cell_length_a 18.324928
_cell_length_b 9.017632
_cell_length_c 28.331862
_cell_angle_alpha 90.000000
_cell_angle_beta 90.000000
_cell_angle_gamma 90.000000
_cell_volume 4681.768151
_symmetry_space_group_name_H-M "C M M M"
_symmetry_group_IT_number 65
_symmetry_cell_setting 'orthorhombic'
loop_
_space_group_symop_operation_xyz
x,y,z
-x,-y,z
x,-y,-z
-x,y,-z
-x,-y,-z
x,y,-z
-x,y,z
x,-y,z
1/2+x,1/2+y,z
1/2-x,1/2-y,z
1/2+x,1/2-y,-z
1/2-x,1/2+y,-z
1/2-x,1/2-y,-z
1/2+x,1/2+y,-z
1/2-x,1/2+y,z
1/2+x,1/2-y,z
loop_
_atom_site_type_symbol
_atom_site_label
_atom_site_fract_x
_atom_site_fract_y
_atom_site_fract_z
Si Si1 0.675067 0.168056 0.871871
Si Si2 0.329876 0.322496 0.500000
Si Si3 0.913436 0.176539 0.788752
Si Si4 0.913320 0.500000 0.944317
Si Si5 0.669422 0.678331 0.603257
Si Si6 0.412252 0.172934 0.310116
O O1 0.750000 0.250000 0.883346
O O2 0.631562 0.254707 0.831664
O O3 0.691279 0.000000 0.854621
O O4 0.624311 0.138810 0.917602
O O5 0.321442 0.500000 0.500000
O O6 0.250000 0.250000 0.500000
O O7 0.363062 0.283939 0.551063
O O8 0.890975 0.250809 0.739267
O O9 0.000000 0.206810 0.795553
O O10 0.903544 0.000000 0.786274
O O11 0.000000 0.500000 0.936202
O O12 0.899517 0.500000 0.000000
O O13 0.674419 0.500000 0.607156
O O14 0.750000 0.750000 0.605454
O O15 0.622888 0.744252 0.645706
O O16 0.500000 0.182066 0.313397
O O17 0.391237 0.000000 0.310004
#
# Coordination Sequence:
#
# PCOD9486768 Si02
#       6
#    16   8  16   8  16  16
#     4  10  21  35  57  85 119 151 190 236 285 330
#     4   8  16  30  49  72  97 129 169 217 269 328
#     4  10  20  35  57  81 109 146 187 230 278 338
#     4   9  20  38  62  88 117 159 203 236 279 343
#     4  10  19  33  53  76 102 133 174 221 274 330
#     4  10  21  36  53  76 107 143 182 224 273 329
#
# _framework density 17.087561000000001
#
# number of rings (size 3 to 8) (size 9 to 14) (size 15 to 20)
#    0.600    1.700    0.000    3.000    0.000    4.000 
#    0.000    4.500    0.000    3.000    0.000    4.200 
#    0.000    0.000    0.000    0.000    0.000    0.000 
#
# Total GULP energy -222868.492012 kJ/mol
# GULP energy per Si atom -5571.712300 kJ/mol
# Density = 1.704867 g / cm^3
# Si number density = 17.087561 Si / 1000 Ang^3
#
#
#
# Elastic Constant Matrix: (Units=GPa)
#
#
# Indices 1 2 3 4 5 6 
#
# 1 64.3120 49.5162 78.2842 0.0000 0.0000 0.0000
# 2 49.5162 90.4858 67.4442 0.0000 0.0000 0.0000
# 3 78.2842 67.4442 180.7756 0.0000 0.0000 0.0000
# 4 0.0000 0.0000 0.0000 26.6075 0.0000 0.0000
# 5 0.0000 0.0000 0.0000 0.0000 34.8411 0.0000
# 6 0.0000 0.0000 0.0000 0.0000 0.0000 30.6440
#
#
#
# Elastic Compliance Matrix: (Units=1/GPa)
#
#
# Indices 1 2 3 4 5 6 
#
# 1 0.041499 -0.012903 -0.013157 0.000000 0.000000 0.000000
# 2 -0.012903 0.019320 -0.001621 0.000000 0.000000 0.000000
# 3 -0.013157 -0.001621 0.011834 0.000000 0.000000 0.000000
# 4 0.000000 0.000000 0.000000 0.037583 0.000000 0.000000
# 5 0.000000 0.000000 0.000000 0.000000 0.028702 0.000000
# 6 0.000000 0.000000 0.000000 0.000000 0.000000 0.032633
#
#
# Mechanical properties :
#
#
# Convention : Reuss Voigt Hill
#
# Bulk Modulus (GPa) = 57.82901 80.67362 69.25131
# Shear Modulus (GPa) = 21.48723 27.77375 24.63049
#
# Velocity S-wave (km/s) = 3.54994 4.03597 3.80073
# Velocity P-wave (km/s) = 7.12173 8.30862 7.73796
#
# Compressibility (1/GPa) = 0.01729236
#
# Stress axis : x y z
#
# Youngs Moduli (GPa) = 24.09681 51.75995 84.50179
#
# Poissons Ratio (x) = 0.66783 1.11182
# Poissons Ratio (y) = 0.31091 0.13694
# Poissons Ratio (z) = 0.31705 0.08388
#
# Static dielectric constant tensor:
#      x y z
#    x 1.558300 0.000000 0.000000 
#    y 0.000000 1.570290 0.000000 
#    z 0.000000 0.000000 1.574270 
# 
# From -- ./inp_files/70789.got.cif
#   From: 2010.05.17/outbox.cif.g08.bks.cpg/sg65_36_cif.got.tgz:70789.got - 2010.06.03 17:01:31.
