data_PCOD9486608
_publ_section_title
;
Structure prediction by ZEFSAII (Michael W. Deem and Ramdas Pophale) SiO2 
 PCOD9486608
Probable space group: C M M M
;
_chemical_formula_sum "Si O2"
_cell_formula_units_Z 96
_cell_length_a 29.509670
_cell_length_b 19.537691
_cell_length_c 7.926203
_cell_angle_alpha 90.000000
_cell_angle_beta 90.000000
_cell_angle_gamma 90.000000
_cell_volume 4569.858791
_symmetry_space_group_name_H-M "C M M M"
_symmetry_group_IT_number 65
_symmetry_cell_setting 'orthorhombic'
loop_
_space_group_symop_operation_xyz
x,y,z
-x,-y,z
x,-y,-z
-x,y,-z
-x,-y,-z
x,y,-z
-x,y,z
x,-y,z
1/2+x,1/2+y,z
1/2-x,1/2-y,z
1/2+x,1/2-y,-z
1/2-x,1/2+y,-z
1/2-x,1/2-y,-z
1/2+x,1/2+y,-z
1/2-x,1/2+y,z
1/2+x,1/2-y,z
loop_
_atom_site_type_symbol
_atom_site_label
_atom_site_fract_x
_atom_site_fract_y
_atom_site_fract_z
Si Si1 0.278538 0.921439 0.294075
Si Si2 0.143243 0.926699 0.807778
Si Si3 0.202281 0.184586 0.308367
Si Si4 0.550159 0.608501 0.304194
Si Si5 0.351293 0.183953 0.296382
Si Si6 0.949304 0.264820 0.799248
O O1 0.274817 0.923230 0.500000
O O2 0.241175 0.865344 0.234563
O O3 0.326982 0.887353 0.251520
O O4 0.273084 0.000000 0.235138
O O5 0.159627 0.865619 0.693512
O O6 0.089524 0.924962 0.801323
O O7 0.160558 0.000000 0.747252
O O8 0.158171 0.915825 0.000000
O O9 0.216079 0.199332 0.500000
O O10 0.182370 0.254752 0.232412
O O11 0.555288 0.589344 0.500000
O O12 0.500000 0.589826 0.247232
O O13 0.554182 0.690739 0.287749
O O14 0.351080 0.189830 0.500000
O O15 0.403309 0.193953 0.241510
O O16 0.000000 0.293150 0.755382
O O17 0.949117 0.253154 0.000000
#
# Coordination Sequence:
#
# PCOD9486608 Si02
#       6
#    16  16  16  16  16  16
#     4   9  18  33  54  81 113 146 180 222 274 326
#     4  11  23  35  48  70 104 144 182 222 268 318
#     4  10  19  33  54  79 106 141 184 227 265 311
#     4  10  20  34  52  73  98 132 177 226 272 319
#     4  10  19  32  55  85 111 140 182 228 268 316
#     4  10  20  34  54  80 110 142 175 217 272 329
#
# _framework density 21.007214000000001
#
# number of rings (size 3 to 8) (size 9 to 14) (size 15 to 20)
#    0.000    2.000    1.667    2.500    0.000    6.333 
#    0.000    2.500    0.000    4.000    0.000    3.500 
#    0.000    0.000    0.000    0.000    0.000    0.000 
#
# Total GULP energy -267695.578701 kJ/mol
# GULP energy per Si atom -5576.991223 kJ/mol
# Density = 2.095940 g / cm^3
# Si number density = 21.007214 Si / 1000 Ang^3
#
#
#
# Elastic Constant Matrix: (Units=GPa)
#
#
# Indices 1 2 3 4 5 6 
#
# 1 141.2964 71.3193 12.6437 0.0000 0.0000 0.0000
# 2 71.3193 82.5630 13.4191 0.0000 0.0000 0.0000
# 3 12.6437 13.4191 33.2657 0.0000 0.0000 0.0000
# 4 0.0000 0.0000 0.0000 8.3151 0.0000 0.0000
# 5 0.0000 0.0000 0.0000 0.0000 2.9811 0.0000
# 6 0.0000 0.0000 0.0000 0.0000 0.0000 -53.1565
#
#
#
# Elastic Compliance Matrix: (Units=1/GPa)
#
#
# Indices 1 2 3 4 5 6 
#
# 1 0.012554 -0.010776 -0.000425 0.000000 0.000000 0.000000
# 2 -0.010776 0.022211 -0.004864 0.000000 0.000000 0.000000
# 3 -0.000425 -0.004864 0.032185 0.000000 0.000000 0.000000
# 4 0.000000 0.000000 0.000000 0.120263 0.000000 0.000000
# 5 0.000000 0.000000 0.000000 0.000000 0.335442 0.000000
# 6 0.000000 0.000000 0.000000 0.000000 0.000000 -0.018812
#
#
# Mechanical properties :
#
#
# Convention : Reuss Voigt Hill
#
# Bulk Modulus (GPa) = 28.71861 50.20992 39.46426
# Shear Modulus (GPa) = 9.13112 2.27749 5.70430
#
# Velocity S-wave (km/s) = 2.08713 1.04235 1.64964
# Velocity P-wave (km/s) = 4.41686 5.04002 4.73870
#
# Compressibility (1/GPa) = 0.03482063
#
# Stress axis : x y z
#
# Youngs Moduli (GPa) = 79.65403 45.02350 31.07077
#
# Poissons Ratio (x) = 0.48515 0.01320
# Poissons Ratio (y) = 0.85832 0.15113
# Poissons Ratio (z) = 0.03384 0.21899
#
# Static dielectric constant tensor:
#      x y z
#    x 1.816580 0.000000 0.000000 
#    y 0.000000 1.747200 0.000000 
#    z 0.000000 0.000000 1.763410 
# 
# From -- ./inp_files/12261.got.cif
#   From: 2010.05.17/outbox.cif.g08.bks.cpg/sg65_7_cif.got.tgz:12261.got - 2010.06.03 17:01:31.
