data_PCOD9486345
_publ_section_title
;
Structure prediction by ZEFSAII (Michael W. Deem and Ramdas Pophale) SiO2 
 PCOD9486345
Probable space group: C M M M
;
_chemical_formula_sum "Si O2"
_cell_formula_units_Z 128
_cell_length_a 18.838681
_cell_length_b 19.346379
_cell_length_c 19.511677
_cell_angle_alpha 90.000000
_cell_angle_beta 90.000000
_cell_angle_gamma 90.000000
_cell_volume 7111.230921
_symmetry_space_group_name_H-M "C M M M"
_symmetry_group_IT_number 65
_symmetry_cell_setting 'orthorhombic'
loop_
_space_group_symop_operation_xyz
x,y,z
-x,-y,z
x,-y,-z
-x,y,-z
-x,-y,-z
x,y,-z
-x,y,z
x,-y,z
1/2+x,1/2+y,z
1/2-x,1/2-y,z
1/2+x,1/2-y,-z
1/2-x,1/2+y,-z
1/2-x,1/2-y,-z
1/2+x,1/2+y,-z
1/2-x,1/2+y,z
1/2+x,1/2-y,z
loop_
_atom_site_type_symbol
_atom_site_label
_atom_site_fract_x
_atom_site_fract_y
_atom_site_fract_z
Si Si1 0.188669 0.193811 0.080707
Si Si2 0.644544 0.076971 0.193637
Si Si3 0.147561 0.811003 0.577985
Si Si4 0.304068 0.848702 0.576837
Si Si5 0.417218 0.324165 0.275827
Si Si6 0.576799 0.079654 0.337772
Si Si7 0.306863 0.580849 0.195578
Si Si8 0.916197 0.283421 0.841211
O O1 0.250000 0.250000 0.099024
O O2 0.195215 0.124230 0.124888
O O3 0.115771 0.230073 0.104191
O O4 0.192013 0.181152 0.000000
O O5 0.590179 0.079594 0.256787
O O6 0.725151 0.084557 0.220983
O O7 0.623677 0.143761 0.150365
O O8 0.640326 0.000000 0.161715
O O9 0.122213 0.827327 0.500000
O O10 0.220429 0.853015 0.591963
O O11 0.173180 0.731549 0.576588
O O12 0.096511 0.818812 0.642924
O O13 0.315070 0.875919 0.500000
O O14 0.356743 0.885020 0.627913
O O15 0.500000 0.340749 0.262731
O O16 0.363114 0.380222 0.244029
O O17 0.402062 0.252823 0.233432
O O18 0.500000 0.111999 0.353806
O O19 0.575395 0.000000 0.359992
O O20 0.324642 0.500000 0.187205
O O21 0.000000 0.292562 0.847952
#
# Coordination Sequence:
#
# PCOD9486345 Si02
#       8
#    16  16  16  16  16  16  16  16
#     4  10  20  37  60  86 116 148 183 223 267 316
#     4  10  19  32  51  77 107 142 183 223 265 322
#     4   9  18  33  52  74 100 135 182 233 286 339
#     4   9  18  32  48  67  94 132 177 226 277 331
#     4  10  21  34  53  81 109 142 185 237 290 337
#     4  10  20  31  45  69 101 137 174 213 262 319
#     4  10  21  37  59  85 111 145 187 226 275 328
#     4  10  20  34  54  82 114 148 186 226 275 330
#
# _framework density 17.999697000000001
#
# number of rings (size 3 to 8) (size 9 to 14) (size 15 to 20)
#    0.000    2.250    1.250    2.625    0.000    4.750 
#    0.000    1.875    0.000    1.500    0.000    5.250 
#    0.000    0.000    0.000    0.000    0.000    0.000 
#
# Total GULP energy -356605.354092 kJ/mol
# GULP energy per Si atom -5571.958658 kJ/mol
# Density = 1.795873 g / cm^3
# Si number density = 17.999697 Si / 1000 Ang^3
#
#
#
# Elastic Constant Matrix: (Units=GPa)
#
#
# Indices 1 2 3 4 5 6 
#
# 1 70.3922 34.0593 19.3455 0.0000 0.0000 0.0000
# 2 34.0593 82.6297 19.3977 0.0000 0.0000 0.0000
# 3 19.3455 19.3977 61.0633 0.0000 0.0000 0.0000
# 4 0.0000 0.0000 0.0000 12.2218 0.0000 0.0000
# 5 0.0000 0.0000 0.0000 0.0000 15.3279 0.0000
# 6 0.0000 0.0000 0.0000 0.0000 0.0000 19.9957
#
#
#
# Elastic Compliance Matrix: (Units=1/GPa)
#
#
# Indices 1 2 3 4 5 6 
#
# 1 0.018493 -0.006751 -0.003714 0.000000 0.000000 0.000000
# 2 -0.006751 0.015542 -0.002798 0.000000 0.000000 0.000000
# 3 -0.003714 -0.002798 0.018442 0.000000 0.000000 0.000000
# 4 0.000000 0.000000 0.000000 0.081821 0.000000 0.000000
# 5 0.000000 0.000000 0.000000 0.000000 0.065240 0.000000
# 6 0.000000 0.000000 0.000000 0.000000 0.000000 0.050011
#
#
# Mechanical properties :
#
#
# Convention : Reuss Voigt Hill
#
# Bulk Modulus (GPa) = 38.53550 39.96559 39.25055
# Shear Modulus (GPa) = 17.56072 18.92793 18.24432
#
# Velocity S-wave (km/s) = 3.12687 3.24631 3.18715
# Velocity P-wave (km/s) = 5.87298 6.02520 5.94958
#
# Compressibility (1/GPa) = 0.02595010
#
# Stress axis : x y z
#
# Youngs Moduli (GPa) = 54.07357 64.34283 54.22364
#
# Poissons Ratio (x) = 0.43437 0.20141
# Poissons Ratio (y) = 0.36504 0.15174
# Poissons Ratio (z) = 0.20085 0.18005
#
# Static dielectric constant tensor:
#      x y z
#    x 1.624160 0.000000 0.000000 
#    y 0.000000 1.634460 0.000000 
#    z 0.000000 0.000000 1.618680 
# 
# From -- ./inp_files/64870.got.cif
#   From: 2010.05.17/outbox.cif.g08.bks.cpg/sg65_33_cif.got.tgz:64870.got - 2010.06.03 17:01:31.
