data_PCOD9486056
_publ_section_title
;
Structure prediction by ZEFSAII (Michael W. Deem and Ramdas Pophale) SiO2 
 PCOD9486056
Probable space group: C M M M
;
_chemical_formula_sum "Si O2"
_cell_formula_units_Z 88
_cell_length_a 22.257330
_cell_length_b 17.881291
_cell_length_c 16.038684
_cell_angle_alpha 90.000000
_cell_angle_beta 90.000000
_cell_angle_gamma 90.000000
_cell_volume 6383.232551
_symmetry_space_group_name_H-M "C M M M"
_symmetry_group_IT_number 65
_symmetry_cell_setting 'orthorhombic'
loop_
_space_group_symop_operation_xyz
x,y,z
-x,-y,z
x,-y,-z
-x,y,-z
-x,-y,-z
x,y,-z
-x,y,z
x,-y,z
1/2+x,1/2+y,z
1/2-x,1/2-y,z
1/2+x,1/2-y,-z
1/2-x,1/2+y,-z
1/2-x,1/2-y,-z
1/2+x,1/2+y,-z
1/2-x,1/2+y,z
1/2+x,1/2-y,z
loop_
_atom_site_type_symbol
_atom_site_label
_atom_site_fract_x
_atom_site_fract_y
_atom_site_fract_z
Si Si1 0.121748 0.328967 0.100181
Si Si2 0.927264 0.087195 0.500000
Si Si3 0.000000 0.414126 0.101218
Si Si4 0.135623 0.162244 0.158886
Si Si5 0.753780 0.587890 0.900716
Si Si6 0.071898 0.090133 0.316132
Si Si7 0.571743 0.411896 0.000000
O O1 0.130146 0.250831 0.146836
O O2 0.179388 0.381501 0.114217
O O3 0.060359 0.370338 0.125181
O O4 0.118906 0.313911 0.000000
O O5 0.909171 0.116769 0.590817
O O6 0.000000 0.088848 0.500000
O O7 0.909783 0.000000 0.500000
O O8 0.000000 0.500000 0.130489
O O9 0.000000 0.416570 0.000000
O O10 0.203953 0.134802 0.147987
O O11 0.107163 0.132070 0.243879
O O12 0.099358 0.124888 0.082186
O O13 0.749198 0.500000 0.881421
O O14 0.741690 0.596998 0.000000
O O15 0.000000 0.101790 0.306805
O O16 0.081285 0.000000 0.310250
O O17 0.586029 0.500000 0.000000
O O18 0.500000 0.402752 0.000000
#
# Coordination Sequence:
#
# PCOD9486056 Si02
#       7
#    16   8   8  16  16  16   8
#     4  10  20  31  45  62  85 115 153 193 230 259
#     4   7  12  26  44  60  81 112 150 191 220 251
#     4   9  18  32  48  62  78 109 156 199 231 258
#     4  12  20  28  43  63  92 118 149 180 223 263
#     4  10  19  32  46  59  82 118 160 194 220 258
#     4   9  17  28  43  63  88 119 154 184 218 261
#     4  11  22  30  37  54  90 131 158 171 197 255
#
# _framework density 13.786118999999999
#
# number of rings (size 3 to 8) (size 9 to 14) (size 15 to 20)
#    0.000    2.091    1.818    4.364    2.545    5.091 
#    0.000    0.000    0.000    0.000    0.000    2.545 
#    0.000    0.000    0.000    3.273    0.000    0.000 
#
# Total GULP energy -245311.712479 kJ/mol
# GULP energy per Si atom -5575.266193 kJ/mol
# Density = 1.375474 g / cm^3
# Si number density = 13.786119 Si / 1000 Ang^3
#
#
#
# Elastic Constant Matrix: (Units=GPa)
#
#
# Indices 1 2 3 4 5 6 
#
# 1 91.3916 59.2608 40.7606 0.0000 0.0000 0.0000
# 2 59.2608 87.9355 31.1865 0.0000 0.0000 0.0000
# 3 40.7606 31.1865 83.9686 0.0000 0.0000 0.0000
# 4 0.0000 0.0000 0.0000 9.9554 0.0000 0.0000
# 5 0.0000 0.0000 0.0000 0.0000 9.5122 0.0000
# 6 0.0000 0.0000 0.0000 0.0000 0.0000 30.7351
#
#
#
# Elastic Compliance Matrix: (Units=1/GPa)
#
#
# Indices 1 2 3 4 5 6 
#
# 1 0.021688 -0.012533 -0.005873 0.000000 0.000000 0.000000
# 2 -0.012533 0.020340 -0.001470 0.000000 0.000000 0.000000
# 3 -0.005873 -0.001470 0.015306 0.000000 0.000000 0.000000
# 4 0.000000 0.000000 0.000000 0.100448 0.000000 0.000000
# 5 0.000000 0.000000 0.000000 0.000000 0.105128 0.000000
# 6 0.000000 0.000000 0.000000 0.000000 0.000000 0.032536
#
#
# Mechanical properties :
#
#
# Convention : Reuss Voigt Hill
#
# Bulk Modulus (GPa) = 56.87981 58.41238 57.64609
# Shear Modulus (GPa) = 14.66024 18.84641 16.75333
#
# Velocity S-wave (km/s) = 3.26453 3.70138 3.48980
# Velocity P-wave (km/s) = 7.45371 7.79291 7.62520
#
# Compressibility (1/GPa) = 0.01758093
#
# Stress axis : x y z
#
# Youngs Moduli (GPa) = 46.10846 49.16539 65.33250
#
# Poissons Ratio (x) = 0.61618 0.38371
# Poissons Ratio (y) = 0.57787 0.09607
# Poissons Ratio (z) = 0.27080 0.07229
#
# Static dielectric constant tensor:
#      x y z
#    x 1.454720 0.000000 0.000000 
#    y 0.000000 1.446100 0.000000 
#    z 0.000000 0.000000 1.439040 
# 
# From -- ./inp_files/42770.got.cif
#   From: 2010.05.17/outbox.cif.g08.bks.cpg/sg65_22_cif.got.tgz:42770.got - 2010.06.03 17:01:31.
