data_PCOD9486315
_publ_section_title
;
Structure prediction by ZEFSAII (Michael W. Deem and Ramdas Pophale) SiO2 
 PCOD9486315
Probable space group: C M M M
;
_chemical_formula_sum "Si O2"
_cell_formula_units_Z 116
_cell_length_a 29.186279
_cell_length_b 24.091593
_cell_length_c 7.394269
_cell_angle_alpha 90.000000
_cell_angle_beta 90.000000
_cell_angle_gamma 90.000000
_cell_volume 5199.235548
_symmetry_space_group_name_H-M "C M M M"
_symmetry_group_IT_number 65
_symmetry_cell_setting 'orthorhombic'
loop_
_space_group_symop_operation_xyz
x,y,z
-x,-y,z
x,-y,-z
-x,y,-z
-x,-y,-z
x,y,-z
-x,y,z
x,-y,z
1/2+x,1/2+y,z
1/2-x,1/2-y,z
1/2+x,1/2-y,-z
1/2-x,1/2+y,-z
1/2-x,1/2-y,-z
1/2+x,1/2+y,-z
1/2-x,1/2+y,z
1/2+x,1/2-y,z
loop_
_atom_site_type_symbol
_atom_site_label
_atom_site_fract_x
_atom_site_fract_y
_atom_site_fract_z
Si Si1 0.127772 0.561212 0.290354
Si Si2 0.557674 0.500000 0.000000
Si Si3 0.823017 0.872262 0.780527
Si Si4 0.734141 0.937027 0.782932
Si Si5 0.613611 0.820114 0.287881
Si Si6 0.697572 0.250458 0.781881
Si Si7 0.578292 0.594182 0.708116
Si Si8 0.947532 0.218879 0.280317
O O1 0.113570 0.558836 0.500000
O O2 0.118427 0.500000 0.210483
O O3 0.182886 0.568952 0.288464
O O4 0.107830 0.618119 0.210279
O O5 0.559118 0.548443 0.842159
O O6 0.773855 0.895859 0.721851
O O7 0.825753 0.808128 0.723045
O O8 0.866167 0.907082 0.713852
O O9 0.824133 0.874470 0.000000
O O10 0.749302 0.000000 0.743377
O O11 0.730347 0.931132 0.000000
O O12 0.602233 0.823915 0.500000
O O13 0.666361 0.800736 0.274154
O O14 0.584190 0.768995 0.212115
O O15 0.750000 0.250000 0.719289
O O16 0.698739 0.250321 0.000000
O O17 0.562932 0.587504 0.500000
O O18 0.566387 0.656645 0.773287
O O19 0.944298 0.218584 0.500000
O O20 0.000000 0.229023 0.230502
#
# Coordination Sequence:
#
# PCOD9486315 Si02
#       8
#    16   4  16  16  16  16  16  16
#     4   9  18  32  48  73 111 150 193 242 289 344
#     4  12  26  44  65  88 130 152 194 258 294 368
#     4  10  19  32  51  75 114 153 194 254 305 344
#     4   9  18  30  48  71 102 151 199 236 284 343
#     4  10  19  33  56  81 108 148 192 240 299 352
#     4  10  20  32  49  77 114 155 193 238 299 355
#     4  11  23  40  64  90 117 159 201 246 314 371
#     4   9  19  39  65  90 115 145 190 247 304 369
#
# _framework density 22.310970999999999
#
# number of rings (size 3 to 8) (size 9 to 14) (size 15 to 20)
#    0.000    2.207    2.069    1.034    0.966    2.483 
#    0.000    1.034    0.000    2.069    0.000    2.897 
#    0.000    0.000    0.000    4.690    0.000    4.966 
#
# Total GULP energy -323496.168852 kJ/mol
# GULP energy per Si atom -5577.520153 kJ/mol
# Density = 2.226019 g / cm^3
# Si number density = 22.310971 Si / 1000 Ang^3
#
#
#
# Elastic Constant Matrix: (Units=GPa)
#
#
# Indices 1 2 3 4 5 6 
#
# 1 62.1727 44.0082 4.5274 0.0000 0.0000 0.0000
# 2 44.0082 205.9973 40.8800 0.0000 0.0000 0.0000
# 3 4.5274 40.8800 97.7829 0.0000 0.0000 0.0000
# 4 0.0000 0.0000 0.0000 -1.0001 0.0000 0.0000
# 5 0.0000 0.0000 0.0000 0.0000 13.8382 0.0000
# 6 0.0000 0.0000 0.0000 0.0000 0.0000 -20.0573
#
#
#
# Elastic Compliance Matrix: (Units=1/GPa)
#
#
# Indices 1 2 3 4 5 6 
#
# 1 0.019021 -0.004241 0.000892 0.000000 0.000000 0.000000
# 2 -0.004241 0.006239 -0.002412 0.000000 0.000000 0.000000
# 3 0.000892 -0.002412 0.011194 0.000000 0.000000 0.000000
# 4 0.000000 0.000000 0.000000 -0.999921 0.000000 0.000000
# 5 0.000000 0.000000 0.000000 0.000000 0.072264 0.000000
# 6 0.000000 0.000000 0.000000 0.000000 0.000000 -0.049857
#
#
# Mechanical properties :
#
#
# Convention : Reuss Voigt Hill
#
# Bulk Modulus (GPa) = 40.10763 60.53157 50.31960
# Shear Modulus (GPa) = -5.42753 16.99198 5.78222
#
# Velocity S-wave (km/s) = -1.56140 2.76270 1.61161
# Velocity P-wave (km/s) = 3.84253 6.11281 5.10546
#
# Compressibility (1/GPa) = 0.02493291
#
# Stress axis : x y z
#
# Youngs Moduli (GPa) = 52.57378 160.28138 89.33504
#
# Poissons Ratio (x) = 0.67969 -0.07970
# Poissons Ratio (y) = 0.22294 0.21548
# Poissons Ratio (z) = -0.04690 0.38660
#
# Static dielectric constant tensor:
#      x y z
#    x 1.804000 0.000000 0.000000 
#    y 0.000000 1.836270 0.000000 
#    z 0.000000 0.000000 1.864010 
# 
# From -- ./inp_files/18934.got.cif
#   From: 2010.05.17/outbox.cif.g08.bks.cpg/sg65_10_cif.got.tgz:18934.got - 2010.06.03 17:01:31.
