data_PCOD9486165
_publ_section_title
;
Structure prediction by ZEFSAII (Michael W. Deem and Ramdas Pophale) SiO2 
 PCOD9486165
Probable space group: C M M M
;
_chemical_formula_sum "Si O2"
_cell_formula_units_Z 88
_cell_length_a 20.185241
_cell_length_b 8.038846
_cell_length_c 30.659161
_cell_angle_alpha 90.000000
_cell_angle_beta 90.000000
_cell_angle_gamma 90.000000
_cell_volume 4974.940764
_symmetry_space_group_name_H-M "C M M M"
_symmetry_group_IT_number 65
_symmetry_cell_setting 'orthorhombic'
loop_
_space_group_symop_operation_xyz
x,y,z
-x,-y,z
x,-y,-z
-x,y,-z
-x,-y,-z
x,y,-z
-x,y,z
x,-y,z
1/2+x,1/2+y,z
1/2-x,1/2-y,z
1/2+x,1/2-y,-z
1/2-x,1/2+y,-z
1/2-x,1/2-y,-z
1/2+x,1/2+y,-z
1/2-x,1/2+y,z
1/2+x,1/2-y,z
loop_
_atom_site_type_symbol
_atom_site_label
_atom_site_fract_x
_atom_site_fract_y
_atom_site_fract_z
Si Si1 0.825300 0.200733 0.875945
Si Si2 0.080926 0.500000 0.550377
Si Si3 0.923681 0.796879 0.049079
Si Si4 0.674342 0.699364 0.222900
Si Si5 0.076174 0.696738 0.701315
Si Si6 0.080594 0.816181 0.393411
O O1 0.750000 0.250000 0.885970
O O2 0.875429 0.262563 0.912858
O O3 0.840535 0.258500 0.826593
O O4 0.828903 0.000000 0.875431
O O5 0.101318 0.500000 0.500000
O O6 0.102900 0.334860 0.576082
O O7 0.000000 0.500000 0.551026
O O8 0.000000 0.747481 0.056371
O O9 0.922493 0.000000 0.049471
O O10 0.904133 0.745183 0.000000
O O11 0.670148 0.500000 0.223483
O O12 0.750000 0.750000 0.232686
O O13 0.623576 0.768036 0.258267
O O14 0.075419 0.500000 0.692027
O O15 0.099192 0.785553 0.656954
O O16 0.000000 0.748296 0.710647
O O17 0.000000 0.812345 0.393900
O O18 0.101726 0.000000 0.407763
#
# Coordination Sequence:
#
# PCOD9486165 Si02
#       6
#    16   8  16  16  16  16
#     4   9  18  31  47  67  92 121 154 193 241 293
#     4   9  16  26  40  62  96 134 170 210 256 306
#     4   8  14  26  45  68  92 119 154 197 241 284
#     4  10  20  33  48  68  96 129 162 204 253 300
#     4  10  19  32  50  71  97 130 166 206 254 305
#     4   9  16  27  43  64  93 130 169 209 255 304
#
# _framework density 17.688654
#
# number of rings (size 3 to 8) (size 9 to 14) (size 15 to 20)
#    0.000    2.818    0.909    1.636    0.000    3.273 
#    0.000    3.636    0.000    0.545    0.000    1.273 
#    0.000    0.727    0.364    0.000    0.000    0.000 
#
# Total GULP energy -245260.677947 kJ/mol
# GULP energy per Si atom -5574.106317 kJ/mol
# Density = 1.764839 g / cm^3
# Si number density = 17.688654 Si / 1000 Ang^3
#
#
#
# Elastic Constant Matrix: (Units=GPa)
#
#
# Indices 1 2 3 4 5 6 
#
# 1 49.1956 19.7831 71.3176 0.0000 0.0000 0.0000
# 2 19.7831 68.5085 45.4769 0.0000 0.0000 0.0000
# 3 71.3176 45.4769 147.1833 0.0000 0.0000 0.0000
# 4 0.0000 0.0000 0.0000 11.8349 0.0000 0.0000
# 5 0.0000 0.0000 0.0000 0.0000 -11.8504 0.0000
# 6 0.0000 0.0000 0.0000 0.0000 0.0000 17.4246
#
#
#
# Elastic Compliance Matrix: (Units=1/GPa)
#
#
# Indices 1 2 3 4 5 6 
#
# 1 0.068750 0.002844 -0.034191 0.000000 0.000000 0.000000
# 2 0.002844 0.018481 -0.007088 0.000000 0.000000 0.000000
# 3 -0.034191 -0.007088 0.025552 0.000000 0.000000 0.000000
# 4 0.000000 0.000000 0.000000 0.084496 0.000000 0.000000
# 5 0.000000 0.000000 0.000000 0.000000 -0.084386 0.000000
# 6 0.000000 0.000000 0.000000 0.000000 0.000000 0.057390
#
#
# Mechanical properties :
#
#
# Convention : Reuss Voigt Hill
#
# Bulk Modulus (GPa) = 27.84673 59.78252 43.81462
# Shear Modulus (GPa) = 19.29580 12.03582 15.66581
#
# Velocity S-wave (km/s) = 3.30640 2.61133 2.97920
# Velocity P-wave (km/s) = 5.50938 6.55458 6.05457
#
# Compressibility (1/GPa) = 0.03591086
#
# Stress axis : x y z
#
# Youngs Moduli (GPa) = 14.54556 54.11030 39.13626
#
# Poissons Ratio (x) = -0.15389 1.33812
# Poissons Ratio (y) = -0.04137 0.27741
# Poissons Ratio (z) = 0.49733 0.38355
#
# Static dielectric constant tensor:
#      x y z
#    x 1.567130 0.000000 0.000000 
#    y 0.000000 1.631340 0.000000 
#    z 0.000000 0.000000 1.600200 
# 
# From -- ./inp_files/77906.got.cif
#   From: 2010.05.17/outbox.cif.g08.bks.cpg/sg65_39_cif.got.tgz:77906.got - 2010.06.03 17:01:31.
