data_PCOD9486921
_publ_section_title
;
Structure prediction by ZEFSAII (Michael W. Deem and Ramdas Pophale) SiO2 
 PCOD9486921
Probable space group: C M M M
;
_chemical_formula_sum "Si O2"
_cell_formula_units_Z 64
_cell_length_a 18.938833
_cell_length_b 8.790610
_cell_length_c 21.344281
_cell_angle_alpha 90.000000
_cell_angle_beta 90.000000
_cell_angle_gamma 90.000000
_cell_volume 3553.479032
_symmetry_space_group_name_H-M "C M M M"
_symmetry_group_IT_number 65
_symmetry_cell_setting 'orthorhombic'
loop_
_space_group_symop_operation_xyz
x,y,z
-x,-y,z
x,-y,-z
-x,y,-z
-x,-y,-z
x,y,-z
-x,y,z
x,-y,z
1/2+x,1/2+y,z
1/2-x,1/2-y,z
1/2+x,1/2-y,-z
1/2-x,1/2+y,-z
1/2-x,1/2-y,-z
1/2+x,1/2+y,-z
1/2-x,1/2+y,z
1/2+x,1/2-y,z
loop_
_atom_site_type_symbol
_atom_site_label
_atom_site_fract_x
_atom_site_fract_y
_atom_site_fract_z
Si Si1 0.171682 0.818553 0.500000
Si Si2 0.916033 0.179966 0.748589
Si Si3 0.171255 0.317274 0.000000
Si Si4 0.829163 0.683090 0.862935
Si Si5 0.416607 0.818289 0.613991
O O1 0.250000 0.750000 0.500000
O O2 0.129459 0.760300 0.560764
O O3 0.175133 0.000000 0.500000
O O4 0.874753 0.250804 0.806663
O O5 0.896576 0.258931 0.682928
O O6 0.000000 0.202352 0.757230
O O7 0.902178 0.000000 0.744401
O O8 0.250000 0.250000 0.000000
O O9 0.140383 0.274106 0.067848
O O10 0.175900 0.500000 0.000000
O O11 0.826231 0.500000 0.858738
O O12 0.750000 0.750000 0.859137
O O13 0.500000 0.783472 0.604531
O O14 0.408137 0.000000 0.610606
#
# Coordination Sequence:
#
# PCOD9486921 Si02
#       5
#     8  16   8  16  16
#     4  12  25  40  59  85 117 147 179 222 269 314
#     4  10  21  37  56  80 110 143 181 224 269 318
#     4   8  16  30  49  74 103 137 177 221 267 320
#     4  10  19  33  54  79 107 140 180 224 272 324
#     4  10  21  39  62  85 110 143 182 221 265 321
#
# _framework density 18.010518000000001
#
# number of rings (size 3 to 8) (size 9 to 14) (size 15 to 20)
#    0.000    2.000    0.000    3.750    0.000    6.500 
#    0.000    5.625    0.000    3.750    0.000    0.000 
#    0.000    0.000    0.000    0.000    0.000    0.000 
#
# Total GULP energy -178609.554820 kJ/mol
# GULP energy per Si atom -5581.548588 kJ/mol
# Density = 1.796953 g / cm^3
# Si number density = 18.010518 Si / 1000 Ang^3
#
#
#
# Elastic Constant Matrix: (Units=GPa)
#
#
# Indices 1 2 3 4 5 6 
#
# 1 62.1547 58.5749 92.2652 0.0000 0.0000 0.0000
# 2 58.5749 92.8259 88.0987 0.0000 0.0000 0.0000
# 3 92.2652 88.0987 215.6495 0.0000 0.0000 0.0000
# 4 0.0000 0.0000 0.0000 31.5618 0.0000 0.0000
# 5 0.0000 0.0000 0.0000 0.0000 35.8682 0.0000
# 6 0.0000 0.0000 0.0000 0.0000 0.0000 28.2940
#
#
#
# Elastic Compliance Matrix: (Units=1/GPa)
#
#
# Indices 1 2 3 4 5 6 
#
# 1 0.066636 -0.024483 -0.018508 0.000000 0.000000 0.000000
# 2 -0.024483 0.026590 -0.000388 0.000000 0.000000 0.000000
# 3 -0.018508 -0.000388 0.012714 0.000000 0.000000 0.000000
# 4 0.000000 0.000000 0.000000 0.031684 0.000000 0.000000
# 5 0.000000 0.000000 0.000000 0.000000 0.027880 0.000000
# 6 0.000000 0.000000 0.000000 0.000000 0.000000 0.035343
#
#
# Mechanical properties :
#
#
# Convention : Reuss Voigt Hill
#
# Bulk Modulus (GPa) = 52.13064 94.27864 73.20464
# Shear Modulus (GPa) = 17.00683 27.92423 22.46553
#
# Velocity S-wave (km/s) = 3.07623 3.94183 3.53562
# Velocity P-wave (km/s) = 6.45175 8.55438 7.57636
#
# Compressibility (1/GPa) = 0.01918258
#
# Stress axis : x y z
#
# Youngs Moduli (GPa) = 15.00688 37.60785 78.65208
#
# Poissons Ratio (x) = 0.92076 1.45570
# Poissons Ratio (y) = 0.36741 0.03050
# Poissons Ratio (z) = 0.27775 0.01458
#
# Static dielectric constant tensor:
#      x y z
#    x 1.584210 0.000000 0.000000 
#    y 0.000000 1.600860 0.000000 
#    z 0.000000 0.000000 1.622490 
# 
# From -- ./inp_files/49133.got.cif
#   From: 2010.05.17/outbox.cif.g08.bks.cpg/sg65_25_cif.got.tgz:49133.got - 2010.06.03 17:01:31.
