data_PCOD9486061
_publ_section_title
;
Structure prediction by ZEFSAII (Michael W. Deem and Ramdas Pophale) SiO2 
 PCOD9486061
Probable space group: C M M M
;
_chemical_formula_sum "Si O2"
_cell_formula_units_Z 120
_cell_length_a 8.731267
_cell_length_b 29.163507
_cell_length_c 29.350205
_cell_angle_alpha 90.000000
_cell_angle_beta 90.000000
_cell_angle_gamma 90.000000
_cell_volume 7473.570850
_symmetry_space_group_name_H-M "C M M M"
_symmetry_group_IT_number 65
_symmetry_cell_setting 'orthorhombic'
loop_
_space_group_symop_operation_xyz
x,y,z
-x,-y,z
x,-y,-z
-x,y,-z
-x,-y,-z
x,y,-z
-x,y,z
x,-y,z
1/2+x,1/2+y,z
1/2-x,1/2-y,z
1/2+x,1/2-y,-z
1/2-x,1/2+y,-z
1/2-x,1/2-y,-z
1/2+x,1/2+y,-z
1/2-x,1/2+y,z
1/2+x,1/2-y,z
loop_
_atom_site_type_symbol
_atom_site_label
_atom_site_fract_x
_atom_site_fract_y
_atom_site_fract_z
Si Si1 0.683918 0.446342 0.500000
Si Si2 0.818409 0.444727 0.950345
Si Si3 0.814766 0.105608 0.764774
Si Si4 0.315587 0.553248 0.854880
Si Si5 0.315896 0.298947 0.724578
Si Si6 0.183969 0.607115 0.413532
Si Si7 0.815613 0.446826 0.678226
Si Si8 0.183753 0.200565 0.382146
O O1 0.728763 0.500000 0.500000
O O2 0.500000 0.443807 0.500000
O O3 0.748967 0.420891 0.455700
O O4 0.798064 0.500000 0.950845
O O5 0.739712 0.428938 0.903970
O O6 0.000000 0.436016 0.947751
O O7 0.762538 0.427781 0.000000
O O8 0.762379 0.083943 0.812508
O O9 0.764172 0.157603 0.754178
O O10 0.758337 0.074667 0.723026
O O11 0.000000 0.105383 0.764781
O O12 0.500000 0.552843 0.854827
O O13 0.264561 0.500000 0.849063
O O14 0.500000 0.296732 0.726118
O O15 0.250000 0.250000 0.739039
O O16 0.272682 0.306424 0.671371
O O17 0.229185 0.581532 0.366620
O O18 0.247825 0.658590 0.410409
O O19 0.000000 0.607852 0.416308
O O20 0.772528 0.500000 0.673163
O O21 0.000000 0.444260 0.682302
O O22 0.250000 0.250000 0.395758
O O23 0.000000 0.200794 0.385131
#
# Coordination Sequence:
#
# PCOD9486061 Si02
#       8
#     8  16  16  16  16  16  16  16
#     4  11  25  43  62  83 106 135 171 209 249 295
#     4   8  14  25  40  57  80 115 159 202 241 281
#     4  10  19  32  47  68  97 130 163 197 240 288
#     4   9  17  27  40  61  91 126 161 197 237 281
#     4   9  18  31  49  71  97 127 162 200 240 285
#     4  11  22  38  59  81 106 135 167 206 251 296
#     4  10  21  34  49  72 100 130 165 201 236 281
#     4  10  19  34  56  82 108 134 167 204 247 296
#
# _framework density 16.056581000000001
#
# number of rings (size 3 to 8) (size 9 to 14) (size 15 to 20)
#    0.000    2.333    1.333    2.200    0.000    4.267 
#    0.000    3.000    0.000    0.000    0.000    0.000 
#    0.000    0.533    0.000    1.200    0.000    2.133 
#
# Total GULP energy -334610.957248 kJ/mol
# GULP energy per Si atom -5576.849287 kJ/mol
# Density = 1.602004 g / cm^3
# Si number density = 16.056581 Si / 1000 Ang^3
#
#
#
# Elastic Constant Matrix: (Units=GPa)
#
#
# Indices 1 2 3 4 5 6 
#
# 1 19.7490 30.9653 33.0862 0.0000 0.0000 0.0000
# 2 30.9653 130.5564 71.7022 0.0000 0.0000 0.0000
# 3 33.0862 71.7022 133.9226 0.0000 0.0000 0.0000
# 4 0.0000 0.0000 0.0000 10.2799 0.0000 0.0000
# 5 0.0000 0.0000 0.0000 0.0000 24.8297 0.0000
# 6 0.0000 0.0000 0.0000 0.0000 0.0000 21.5089
#
#
#
# Elastic Compliance Matrix: (Units=1/GPa)
#
#
# Indices 1 2 3 4 5 6 
#
# 1 0.103414 -0.014868 -0.017589 0.000000 0.000000 0.000000
# 2 -0.014868 0.012987 -0.003280 0.000000 0.000000 0.000000
# 3 -0.017589 -0.003280 0.013569 0.000000 0.000000 0.000000
# 4 0.000000 0.000000 0.000000 0.097277 0.000000 0.000000
# 5 0.000000 0.000000 0.000000 0.000000 0.040274 0.000000
# 6 0.000000 0.000000 0.000000 0.000000 0.000000 0.046492
#
#
# Mechanical properties :
#
#
# Convention : Reuss Voigt Hill
#
# Bulk Modulus (GPa) = 17.09503 61.74839 39.42171
# Shear Modulus (GPa) = 12.34609 21.22200 16.78405
#
# Velocity S-wave (km/s) = 2.77593 3.63946 3.23663
# Velocity P-wave (km/s) = 4.57649 7.49674 6.21069
#
# Compressibility (1/GPa) = 0.05849652
#
# Stress axis : x y z
#
# Youngs Moduli (GPa) = 9.66984 76.99743 73.69941
#
# Poissons Ratio (x) = 1.14480 1.29628
# Poissons Ratio (y) = 0.14377 0.24175
# Poissons Ratio (z) = 0.17008 0.25257
#
# Static dielectric constant tensor:
#      x y z
#    x 1.538560 0.000000 0.000000 
#    y 0.000000 1.527530 0.000000 
#    z 0.000000 0.000000 1.540440 
# 
# From -- ./inp_files/73992.got.cif
#   From: 2010.05.17/outbox.cif.g08.bks.cpg/sg65_37_cif.got.tgz:73992.got - 2010.06.03 17:01:31.
