data_PCOD9486205
_publ_section_title
;
Structure prediction by ZEFSAII (Michael W. Deem and Ramdas Pophale) SiO2 
 PCOD9486205
Probable space group: C M M M
;
_chemical_formula_sum "Si O2"
_cell_formula_units_Z 104
_cell_length_a 29.788618
_cell_length_b 8.235134
_cell_length_c 24.274247
_cell_angle_alpha 90.000000
_cell_angle_beta 90.000000
_cell_angle_gamma 90.000000
_cell_volume 5954.794688
_symmetry_space_group_name_H-M "C M M M"
_symmetry_group_IT_number 65
_symmetry_cell_setting 'orthorhombic'
loop_
_space_group_symop_operation_xyz
x,y,z
-x,-y,z
x,-y,-z
-x,y,-z
-x,-y,-z
x,y,-z
-x,y,z
x,-y,z
1/2+x,1/2+y,z
1/2-x,1/2-y,z
1/2+x,1/2-y,-z
1/2-x,1/2+y,-z
1/2-x,1/2-y,-z
1/2+x,1/2+y,-z
1/2-x,1/2+y,z
1/2+x,1/2-y,z
loop_
_atom_site_type_symbol
_atom_site_label
_atom_site_fract_x
_atom_site_fract_y
_atom_site_fract_z
Si Si1 0.801829 0.695925 0.000000
Si Si2 0.644892 0.801484 0.560576
Si Si3 0.549487 0.804324 0.602839
Si Si4 0.698368 0.194005 0.879806
Si Si5 0.801256 0.305353 0.331819
Si Si6 0.450145 0.696627 0.729488
Si Si7 0.356852 0.306219 0.774647
O O1 0.750000 0.750000 0.000000
O O2 0.818833 0.752908 0.940144
O O3 0.804544 0.500000 0.000000
O O4 0.660522 0.749927 0.500000
O O5 0.593406 0.748194 0.570427
O O6 0.674962 0.746689 0.611890
O O7 0.645106 0.000000 0.561447
O O8 0.500000 0.744794 0.585069
O O9 0.555435 0.757911 0.666880
O O10 0.548841 0.000000 0.598848
O O11 0.750000 0.250000 0.871965
O O12 0.667377 0.247263 0.829655
O O13 0.699331 0.000000 0.880859
O O14 0.802771 0.500000 0.331536
O O15 0.750000 0.250000 0.329309
O O16 0.828375 0.244988 0.278774
O O17 0.500000 0.747482 0.748352
O O18 0.449390 0.500000 0.727984
O O19 0.407901 0.753423 0.765303
O O20 0.357903 0.500000 0.776482
#
# Coordination Sequence:
#
# PCOD9486205 Si02
#       7
#     8  16  16  16  16  16  16
#     4   8  16  30  48  70  99 136 169 201 236 277
#     4   9  18  32  49  70  95 122 155 196 242 292
#     4   9  16  28  49  74  96 119 150 189 237 294
#     4  10  19  32  50  74 105 137 170 202 238 280
#     4  11  22  36  52  69  93 125 161 203 248 290
#     4   9  18  32  50  71  97 127 156 192 240 290
#     4  11  21  33  51  75 101 128 162 200 242 288
#
# _framework density 17.464917
#
# number of rings (size 3 to 8) (size 9 to 14) (size 15 to 20)
#    0.000    2.308    1.538    1.846    0.000    1.846 
#    0.000    1.538    0.000    3.692    0.000    2.692 
#    0.000    4.308    0.000    0.000    0.000    0.000 
#
# Total GULP energy -289930.907921 kJ/mol
# GULP energy per Si atom -5575.594383 kJ/mol
# Density = 1.742517 g / cm^3
# Si number density = 17.464917 Si / 1000 Ang^3
#
#
#
# Elastic Constant Matrix: (Units=GPa)
#
#
# Indices 1 2 3 4 5 6 
#
# 1 111.7842 9.8436 71.4989 0.0000 0.0000 0.0000
# 2 9.8436 16.1446 12.0428 0.0000 0.0000 0.0000
# 3 71.4989 12.0428 149.5740 0.0000 0.0000 0.0000
# 4 0.0000 0.0000 0.0000 2.7174 0.0000 0.0000
# 5 0.0000 0.0000 0.0000 0.0000 20.6030 0.0000
# 6 0.0000 0.0000 0.0000 0.0000 0.0000 7.1838
#
#
#
# Elastic Compliance Matrix: (Units=1/GPa)
#
#
# Indices 1 2 3 4 5 6 
#
# 1 0.013071 -0.003520 -0.005965 0.000000 0.000000 0.000000
# 2 -0.003520 0.066846 -0.003699 0.000000 0.000000 0.000000
# 3 -0.005965 -0.003699 0.009835 0.000000 0.000000 0.000000
# 4 0.000000 0.000000 0.000000 0.368003 0.000000 0.000000
# 5 0.000000 0.000000 0.000000 0.000000 0.048537 0.000000
# 6 0.000000 0.000000 0.000000 0.000000 0.000000 0.139201
#
#
# Mechanical properties :
#
#
# Convention : Reuss Voigt Hill
#
# Bulk Modulus (GPa) = 15.77708 51.58596 33.68152
# Shear Modulus (GPa) = 7.21512 18.37534 12.79523
#
# Velocity S-wave (km/s) = 2.03474 3.24717 2.70964
# Velocity P-wave (km/s) = 3.81752 6.60756 5.39598
#
# Compressibility (1/GPa) = 0.06338307
#
# Stress axis : x y z
#
# Youngs Moduli (GPa) = 76.50580 14.95977 101.68061
#
# Poissons Ratio (x) = 0.05266 0.60649
# Poissons Ratio (y) = 0.26932 0.37614
# Poissons Ratio (z) = 0.45633 0.05534
#
# Static dielectric constant tensor:
#      x y z
#    x 1.602850 0.000000 0.000000 
#    y 0.000000 1.704640 0.000000 
#    z 0.000000 0.000000 1.607900 
# 
# From -- ./inp_files/72129.got.cif
#   From: 2010.05.17/outbox.cif.g08.bks.cpg/sg65_37_cif.got.tgz:72129.got - 2010.06.03 17:01:31.
