data_PCOD9486752
_publ_section_title
;
Structure prediction by ZEFSAII (Michael W. Deem and Ramdas Pophale) SiO2 
 PCOD9486752
Probable space group: C M M M
;
_chemical_formula_sum "Si O2"
_cell_formula_units_Z 72
_cell_length_a 27.658607
_cell_length_b 15.375841
_cell_length_c 7.488925
_cell_angle_alpha 90.000000
_cell_angle_beta 90.000000
_cell_angle_gamma 90.000000
_cell_volume 3184.847663
_symmetry_space_group_name_H-M "C M M M"
_symmetry_group_IT_number 65
_symmetry_cell_setting 'orthorhombic'
loop_
_space_group_symop_operation_xyz
x,y,z
-x,-y,z
x,-y,-z
-x,y,-z
-x,-y,-z
x,y,-z
-x,y,z
x,-y,z
1/2+x,1/2+y,z
1/2-x,1/2-y,z
1/2+x,1/2-y,-z
1/2-x,1/2+y,-z
1/2-x,1/2-y,-z
1/2+x,1/2+y,-z
1/2-x,1/2+y,z
1/2+x,1/2-y,z
loop_
_atom_site_type_symbol
_atom_site_label
_atom_site_fract_x
_atom_site_fract_y
_atom_site_fract_z
Si Si1 0.375326 0.403126 0.289839
Si Si2 0.085021 0.725828 0.706264
Si Si3 0.266741 0.345935 0.215436
Si Si4 0.664576 0.092688 0.784283
Si Si5 0.500000 0.899342 0.719112
O O1 0.386913 0.407300 0.500000
O O2 0.382859 0.500000 0.214236
O O3 0.405672 0.321416 0.213969
O O4 0.318591 0.378268 0.278424
O O5 0.070985 0.738871 0.500000
O O6 0.135528 0.674349 0.712879
O O7 0.046030 0.657731 0.780148
O O8 0.250000 0.250000 0.273480
O O9 0.220740 0.403720 0.265722
O O10 0.270205 0.344541 0.000000
O O11 0.643085 0.000000 0.726914
O O12 0.662298 0.097703 0.000000
O O13 0.500000 0.902938 0.500000
O O14 0.500000 0.000000 0.778701
#
# Coordination Sequence:
#
# PCOD9486752 Si02
#       5
#    16  16  16  16   8
#     4  10  21  35  51  75 107 140 175 216 259 302
#     4  10  20  35  55  76 101 133 172 214 258 310
#     4  10  19  33  53  75 103 140 179 213 250 300
#     4  10  20  33  50  75 106 136 169 211 256 304
#     4   9  18  34  56  80 102 127 165 213 264 317
#
# _framework density 22.607043999999998
#
# number of rings (size 3 to 8) (size 9 to 14) (size 15 to 20)
#    0.000    2.111    2.222    1.333    0.000    4.000 
#    0.000    1.111    0.000    5.333    0.000    0.000 
#    0.000    3.556    0.000    0.000    0.000    0.000 
#
# Total GULP energy -200948.564226 kJ/mol
# GULP energy per Si atom -5581.904562 kJ/mol
# Density = 2.255559 g / cm^3
# Si number density = 22.607044 Si / 1000 Ang^3
#
#
#
# Elastic Constant Matrix: (Units=GPa)
#
#
# Indices 1 2 3 4 5 6 
#
# 1 92.0331 71.7755 -1.3829 0.0000 0.0000 0.0000
# 2 71.7755 248.5432 9.5938 0.0000 0.0000 0.0000
# 3 -1.3829 9.5938 60.9202 0.0000 0.0000 0.0000
# 4 0.0000 0.0000 0.0000 1.7819 0.0000 0.0000
# 5 0.0000 0.0000 0.0000 0.0000 15.1317 0.0000
# 6 0.0000 0.0000 0.0000 0.0000 0.0000 33.1274
#
#
#
# Elastic Compliance Matrix: (Units=1/GPa)
#
#
# Indices 1 2 3 4 5 6 
#
# 1 0.014080 -0.004103 0.000966 0.000000 0.000000 0.000000
# 2 -0.004103 0.005244 -0.000919 0.000000 0.000000 0.000000
# 3 0.000966 -0.000919 0.016582 0.000000 0.000000 0.000000
# 4 0.000000 0.000000 0.000000 0.561197 0.000000 0.000000
# 5 0.000000 0.000000 0.000000 0.000000 0.066087 0.000000
# 6 0.000000 0.000000 0.000000 0.000000 0.000000 0.030186
#
#
# Mechanical properties :
#
#
# Convention : Reuss Voigt Hill
#
# Bulk Modulus (GPa) = 35.98066 62.38546 49.18306
# Shear Modulus (GPa) = 7.03479 31.44222 19.23850
#
# Velocity S-wave (km/s) = 1.76593 3.73341 2.92035
# Velocity P-wave (km/s) = 4.48422 6.80000 5.75970
#
# Compressibility (1/GPa) = 0.02779271
#
# Stress axis : x y z
#
# Youngs Moduli (GPa) = 71.02058 190.69617 60.30792
#
# Poissons Ratio (x) = 0.78252 -0.05825
# Poissons Ratio (y) = 0.29143 0.05542
# Poissons Ratio (z) = -0.06860 0.17524
#
# Static dielectric constant tensor:
#      x y z
#    x 1.817230 0.000000 0.000000 
#    y 0.000000 1.882280 0.000000 
#    z 0.000000 0.000000 1.868650 
# 
# From -- ./inp_files/7194.got.cif
#   From: 2010.05.17/outbox.cif.g08.bks.cpg/sg65_4_cif.got.tgz:7194.got - 2010.06.03 17:01:31.
