data_PCOD9486285
_publ_section_title
;
Structure prediction by ZEFSAII (Michael W. Deem and Ramdas Pophale) SiO2 
 PCOD9486285
Probable space group: C M M M
;
_chemical_formula_sum "Si O2"
_cell_formula_units_Z 96
_cell_length_a 20.546894
_cell_length_b 14.100330
_cell_length_c 12.829052
_cell_angle_alpha 90.000000
_cell_angle_beta 90.000000
_cell_angle_gamma 90.000000
_cell_volume 3716.807106
_symmetry_space_group_name_H-M "C M M M"
_symmetry_group_IT_number 65
_symmetry_cell_setting 'orthorhombic'
loop_
_space_group_symop_operation_xyz
x,y,z
-x,-y,z
x,-y,-z
-x,y,-z
-x,-y,-z
x,y,-z
-x,y,z
x,-y,z
1/2+x,1/2+y,z
1/2-x,1/2-y,z
1/2+x,1/2-y,-z
1/2-x,1/2+y,-z
1/2-x,1/2-y,-z
1/2+x,1/2+y,-z
1/2-x,1/2+y,z
1/2+x,1/2-y,z
loop_
_atom_site_type_symbol
_atom_site_label
_atom_site_fract_x
_atom_site_fract_y
_atom_site_fract_z
Si Si1 0.258997 0.644345 0.663663
Si Si2 0.211201 0.611845 0.881502
Si Si3 0.425452 0.810916 0.119958
Si Si4 0.901288 0.828980 0.618168
Si Si5 0.886013 0.603007 0.378379
Si Si6 0.426879 0.601012 0.838150
O O1 0.250000 0.750000 0.625019
O O2 0.259221 0.644635 0.790029
O O3 0.329561 0.622685 0.621262
O O4 0.192497 0.596206 0.630383
O O5 0.219027 0.500000 0.887162
O O6 0.137279 0.631685 0.840940
O O7 0.218769 0.649331 0.000000
O O8 0.500000 0.818885 0.163614
O O9 0.402010 0.701486 0.121778
O O10 0.431277 0.841317 0.000000
O O11 0.925604 0.836088 0.500000
O O12 0.901909 0.715041 0.649502
O O13 0.932511 0.883518 0.714243
O O14 0.904380 0.602037 0.500000
O O15 0.911962 0.500000 0.335473
O O16 0.500000 0.596666 0.880611
O O17 0.393988 0.500000 0.861773
#
# Coordination Sequence:
#
# PCOD9486285 Si02
#       6
#    16  16  16  16  16  16
#     4  10  19  32  51  74 105 144 181 220 264 314
#     4  10  21  36  55  82 116 150 181 218 270 328
#     4   9  18  35  60  86 111 143 183 224 267 319
#     4  10  21  37  57  81 109 143 185 231 276 327
#     4   9  17  30  51  79 108 137 170 212 266 325
#     4  10  22  39  57  79 108 142 183 232 283 330
#
# _framework density 25.828620999999998
#
# number of rings (size 3 to 8) (size 9 to 14) (size 15 to 20)
#    0.000    2.333    0.000    3.000    0.000    5.000 
#    0.000    5.000    0.000    1.500    0.000    2.333 
#    0.000    0.000    0.000    4.667    0.000    0.500 
#
# Total GULP energy -267497.283752 kJ/mol
# GULP energy per Si atom -5572.860078 kJ/mol
# Density = 2.576983 g / cm^3
# Si number density = 25.828621 Si / 1000 Ang^3
#
#
#
# Elastic Constant Matrix: (Units=GPa)
#
#
# Indices 1 2 3 4 5 6 
#
# 1 85.4853 4.7006 16.7370 0.0000 0.0000 0.0000
# 2 4.7006 123.7190 -3.7680 0.0000 0.0000 0.0000
# 3 16.7370 -3.7680 126.5772 0.0000 0.0000 0.0000
# 4 0.0000 0.0000 0.0000 21.7176 0.0000 0.0000
# 5 0.0000 0.0000 0.0000 0.0000 8.5088 0.0000
# 6 0.0000 0.0000 0.0000 0.0000 0.0000 14.7636
#
#
#
# Elastic Compliance Matrix: (Units=1/GPa)
#
#
# Indices 1 2 3 4 5 6 
#
# 1 0.012040 -0.000506 -0.001607 0.000000 0.000000 0.000000
# 2 -0.000506 0.008111 0.000308 0.000000 0.000000 0.000000
# 3 -0.001607 0.000308 0.008122 0.000000 0.000000 0.000000
# 4 0.000000 0.000000 0.000000 0.046046 0.000000 0.000000
# 5 0.000000 0.000000 0.000000 0.000000 0.117525 0.000000
# 6 0.000000 0.000000 0.000000 0.000000 0.000000 0.067734
#
#
# Mechanical properties :
#
#
# Convention : Reuss Voigt Hill
#
# Bulk Modulus (GPa) = 40.54556 41.23565 40.89061
# Shear Modulus (GPa) = 18.42233 30.20548 24.31391
#
# Velocity S-wave (km/s) = 2.67358 3.42344 3.07148
# Velocity P-wave (km/s) = 5.02620 5.62373 5.33334
#
# Compressibility (1/GPa) = 0.02466361
#
# Stress axis : x y z
#
# Youngs Moduli (GPa) = 83.05354 123.28229 123.12224
#
# Poissons Ratio (x) = 0.06243 0.19788
# Poissons Ratio (y) = 0.04206 -0.03797
# Poissons Ratio (z) = 0.13348 -0.03802
#
# Static dielectric constant tensor:
#      x y z
#    x 2.103060 0.000000 0.000000 
#    y 0.000000 2.126540 0.000000 
#    z 0.000000 0.000000 2.085790 
# 
# From -- ./inp_files/44090.got.cif
#   From: 2010.05.17/outbox.cif.g08.bks.cpg/sg65_23_cif.got.tgz:44090.got - 2010.06.03 17:01:31.
