data_PCOD9486372
_publ_section_title
;
Structure prediction by ZEFSAII (Michael W. Deem and Ramdas Pophale) SiO2 
 PCOD9486372
Probable space group: C M M M
;
_chemical_formula_sum "Si O2"
_cell_formula_units_Z 112
_cell_length_a 14.741288
_cell_length_b 30.437176
_cell_length_c 14.529300
_cell_angle_alpha 90.000000
_cell_angle_beta 90.000000
_cell_angle_gamma 90.000000
_cell_volume 6519.052488
_symmetry_space_group_name_H-M "C M M M"
_symmetry_group_IT_number 65
_symmetry_cell_setting 'orthorhombic'
loop_
_space_group_symop_operation_xyz
x,y,z
-x,-y,z
x,-y,-z
-x,y,-z
-x,-y,-z
x,y,-z
-x,y,z
x,-y,z
1/2+x,1/2+y,z
1/2-x,1/2-y,z
1/2+x,1/2-y,-z
1/2-x,1/2+y,-z
1/2-x,1/2-y,-z
1/2+x,1/2+y,-z
1/2-x,1/2+y,z
1/2+x,1/2-y,z
loop_
_atom_site_type_symbol
_atom_site_label
_atom_site_fract_x
_atom_site_fract_y
_atom_site_fract_z
Si Si1 0.321038 0.049631 0.396276
Si Si2 0.393209 0.210949 0.390440
Si Si3 0.104787 0.547688 0.200333
Si Si4 0.737029 0.641871 0.607632
Si Si5 0.770599 0.198760 0.103395
Si Si6 0.104859 0.362742 0.110788
Si Si7 0.392196 0.700190 0.278236
O O1 0.359376 0.055808 0.500000
O O2 0.389170 0.051679 0.310736
O O3 0.253739 0.090138 0.379569
O O4 0.281932 0.000000 0.394144
O O5 0.381825 0.221573 0.500000
O O6 0.500000 0.200635 0.376629
O O7 0.328056 0.169852 0.368827
O O8 0.369088 0.253139 0.327958
O O9 0.146085 0.500000 0.175726
O O10 0.140461 0.591627 0.153504
O O11 0.000000 0.546379 0.172028
O O12 0.720954 0.649343 0.500000
O O13 0.654667 0.662136 0.662917
O O14 0.750000 0.250000 0.097553
O O15 0.678098 0.174403 0.133913
O O16 0.849468 0.195089 0.177615
O O17 0.793900 0.182869 0.000000
O O18 0.000000 0.354122 0.141425
O O19 0.101944 0.366315 0.000000
O O20 0.500000 0.697193 0.276954
#
# Coordination Sequence:
#
# PCOD9486372 Si02
#       7
#    16  16  16  16  16  16  16
#     4   9  18  31  46  66  94 129 166 201 236 277
#     4   9  18  32  50  74 102 129 159 196 239 289
#     4   9  17  28  44  69 100 131 160 191 229 278
#     4  10  19  32  52  74  98 129 163 201 245 291
#     4  10  21  36  52  70  95 129 168 204 237 280
#     4   9  18  33  53  75  98 125 157 195 240 288
#     4  11  22  34  50  72  98 128 163 204 248 290
#
# _framework density 17.180410999999999
#
# number of rings (size 3 to 8) (size 9 to 14) (size 15 to 20)
#    0.000    2.429    0.000    2.571    0.000    4.000 
#    0.000    9.286    0.000    0.429    0.000    2.000 
#    0.000    0.000    0.000   12.286    0.000    0.286 
#
# Total GULP energy -312051.072374 kJ/mol
# GULP energy per Si atom -5572.340578 kJ/mol
# Density = 1.714131 g / cm^3
# Si number density = 17.180411 Si / 1000 Ang^3
#
#
#
# Elastic Constant Matrix: (Units=GPa)
#
#
# Indices 1 2 3 4 5 6 
#
# 1 75.4320 49.2064 37.6478 0.0000 0.0000 0.0000
# 2 49.2064 117.5630 37.9676 0.0000 0.0000 0.0000
# 3 37.6478 37.9676 57.8479 0.0000 0.0000 0.0000
# 4 0.0000 0.0000 0.0000 19.2019 0.0000 0.0000
# 5 0.0000 0.0000 0.0000 0.0000 24.0910 0.0000
# 6 0.0000 0.0000 0.0000 0.0000 0.0000 15.6210
#
#
#
# Elastic Compliance Matrix: (Units=1/GPa)
#
#
# Indices 1 2 3 4 5 6 
#
# 1 0.022496 -0.005948 -0.010736 0.000000 0.000000 0.000000
# 2 -0.005948 0.012367 -0.004246 0.000000 0.000000 0.000000
# 3 -0.010736 -0.004246 0.027060 0.000000 0.000000 0.000000
# 4 0.000000 0.000000 0.000000 0.052078 0.000000 0.000000
# 5 0.000000 0.000000 0.000000 0.000000 0.041509 0.000000
# 6 0.000000 0.000000 0.000000 0.000000 0.000000 0.064016
#
#
# Mechanical properties :
#
#
# Convention : Reuss Voigt Hill
#
# Bulk Modulus (GPa) = 49.84379 55.60961 52.72670
# Shear Modulus (GPa) = 18.65152 20.18419 19.41785
#
# Velocity S-wave (km/s) = 3.29846 3.43131 3.36554
# Velocity P-wave (km/s) = 6.60162 6.93807 6.77194
#
# Compressibility (1/GPa) = 0.02006268
#
# Stress axis : x y z
#
# Youngs Moduli (GPa) = 44.45304 80.86094 36.95425
#
# Poissons Ratio (x) = 0.48099 0.39675
# Poissons Ratio (y) = 0.26442 0.15689
# Poissons Ratio (z) = 0.47726 0.34331
#
# Static dielectric constant tensor:
#      x y z
#    x 1.553680 0.000000 0.000000 
#    y 0.000000 1.606640 0.000000 
#    z 0.000000 0.000000 1.636930 
# 
# From -- ./inp_files/41133.got.cif
#   From: 2010.05.17/outbox.cif.g08.bks.cpg/sg65_21_cif.got.tgz:41133.got - 2010.06.03 17:01:31.
