data_PCOD9486161
_publ_section_title
;
Structure prediction by ZEFSAII (Michael W. Deem and Ramdas Pophale) SiO2 
 PCOD9486161
Probable space group: C M M M
;
_chemical_formula_sum "Si O2"
_cell_formula_units_Z 56
_cell_length_a 8.412882
_cell_length_b 14.824127
_cell_length_c 23.107895
_cell_angle_alpha 90.000000
_cell_angle_beta 90.000000
_cell_angle_gamma 90.000000
_cell_volume 2881.869495
_symmetry_space_group_name_H-M "C M M M"
_symmetry_group_IT_number 65
_symmetry_cell_setting 'orthorhombic'
loop_
_space_group_symop_operation_xyz
x,y,z
-x,-y,z
x,-y,-z
-x,y,-z
-x,-y,-z
x,y,-z
-x,y,z
x,-y,z
1/2+x,1/2+y,z
1/2-x,1/2-y,z
1/2+x,1/2-y,-z
1/2-x,1/2+y,-z
1/2-x,1/2-y,-z
1/2+x,1/2+y,-z
1/2-x,1/2+y,z
1/2+x,1/2-y,z
loop_
_atom_site_type_symbol
_atom_site_label
_atom_site_fract_x
_atom_site_fract_y
_atom_site_fract_z
Si Si1 0.305664 0.500000 0.775603
Si Si2 0.308307 0.352199 0.000000
Si Si3 0.190658 0.646209 0.562718
Si Si4 0.689819 0.647794 0.684929
Si Si5 0.306029 0.500000 0.907763
O O1 0.500000 0.500000 0.776725
O O2 0.255333 0.413363 0.738270
O O3 0.250589 0.500000 0.841712
O O4 0.250000 0.250000 0.000000
O O5 0.257421 0.411570 0.055718
O O6 0.500000 0.350805 0.000000
O O7 0.239692 0.607475 0.500000
O O8 0.250000 0.750000 0.562358
O O9 0.255083 0.608718 0.622923
O O10 0.000000 0.644690 0.565072
O O11 0.500000 0.649245 0.684422
O O12 0.750000 0.750000 0.690226
O O13 0.500000 0.500000 0.907267
#
# Coordination Sequence:
#
# PCOD9486161 Si02
#       5
#     8   8  16  16   8
#     4   9  19  34  51  71 100 136 171 202 236 290
#     4   9  17  31  56  82 104 133 167 203 242 284
#     4   9  16  27  45  68  93 123 159 202 252 301
#     4  10  19  32  50  71  95 127 165 206 250 295
#     4   8  16  33  52  73 103 139 171 196 235 294
#
# _framework density 19.431830999999999
#
# number of rings (size 3 to 8) (size 9 to 14) (size 15 to 20)
#    0.000    2.857    0.000    4.286    0.000    2.857 
#    0.000    5.000    0.000    9.429    0.000    0.000 
#    0.000    0.000    0.000    0.000    0.000    0.000 
#
# Total GULP energy -156091.482504 kJ/mol
# GULP energy per Si atom -5574.695804 kJ/mol
# Density = 1.938760 g / cm^3
# Si number density = 19.431831 Si / 1000 Ang^3
#
#
#
# Elastic Constant Matrix: (Units=GPa)
#
#
# Indices 1 2 3 4 5 6 
#
# 1 31.4255 16.8393 30.2009 0.0000 0.0000 0.0000
# 2 16.8393 137.1725 97.4152 0.0000 0.0000 0.0000
# 3 30.2009 97.4152 238.8929 0.0000 0.0000 0.0000
# 4 0.0000 0.0000 0.0000 20.5027 0.0000 0.0000
# 5 0.0000 0.0000 0.0000 0.0000 16.9087 0.0000
# 6 0.0000 0.0000 0.0000 0.0000 0.0000 16.4414
#
#
#
# Elastic Compliance Matrix: (Units=1/GPa)
#
#
# Indices 1 2 3 4 5 6 
#
# 1 0.036500 -0.001694 -0.003923 0.000000 0.000000 0.000000
# 2 -0.001694 0.010340 -0.004002 0.000000 0.000000 0.000000
# 3 -0.003923 -0.004002 0.006314 0.000000 0.000000 0.000000
# 4 0.000000 0.000000 0.000000 0.048774 0.000000 0.000000
# 5 0.000000 0.000000 0.000000 0.000000 0.059141 0.000000
# 6 0.000000 0.000000 0.000000 0.000000 0.000000 0.060822
#
#
# Mechanical properties :
#
#
# Convention : Reuss Voigt Hill
#
# Bulk Modulus (GPa) = 29.48653 77.37797 53.43225
# Shear Modulus (GPa) = 19.80696 28.30626 24.05661
#
# Velocity S-wave (km/s) = 3.19612 3.82081 3.52234
# Velocity P-wave (km/s) = 5.36913 7.70529 6.64074
#
# Compressibility (1/GPa) = 0.03391380
#
# Stress axis : x y z
#
# Youngs Moduli (GPa) = 27.39749 96.70737 158.37684
#
# Poissons Ratio (x) = 0.16387 0.62136
# Poissons Ratio (y) = 0.04642 0.63389
# Poissons Ratio (z) = 0.10749 0.38706
#
# Static dielectric constant tensor:
#      x y z
#    x 1.670220 0.000000 0.000000 
#    y 0.000000 1.675590 0.000000 
#    z 0.000000 0.000000 1.704770 
# 
# From -- ./inp_files/66687.got.cif
#   From: 2010.05.17/outbox.cif.g08.bks.cpg/sg65_34_cif.got.tgz:66687.got - 2010.06.03 17:01:31.
