data_PCOD9486761
_publ_section_title
;
Structure prediction by ZEFSAII (Michael W. Deem and Ramdas Pophale) SiO2 
 PCOD9486761
Probable space group: C M M M
;
_chemical_formula_sum "Si O2"
_cell_formula_units_Z 88
_cell_length_a 9.005711
_cell_length_b 27.904290
_cell_length_c 19.442535
_cell_angle_alpha 90.000000
_cell_angle_beta 90.000000
_cell_angle_gamma 90.000000
_cell_volume 4885.869604
_symmetry_space_group_name_H-M "C M M M"
_symmetry_group_IT_number 65
_symmetry_cell_setting 'orthorhombic'
loop_
_space_group_symop_operation_xyz
x,y,z
-x,-y,z
x,-y,-z
-x,y,-z
-x,-y,-z
x,y,-z
-x,y,z
x,-y,z
1/2+x,1/2+y,z
1/2-x,1/2-y,z
1/2+x,1/2-y,-z
1/2-x,1/2+y,-z
1/2-x,1/2-y,-z
1/2+x,1/2+y,-z
1/2-x,1/2+y,z
1/2+x,1/2-y,z
loop_
_atom_site_type_symbol
_atom_site_label
_atom_site_fract_x
_atom_site_fract_y
_atom_site_fract_z
Si Si1 0.177121 0.387786 0.420377
Si Si2 0.328183 0.443955 0.308598
Si Si3 0.818913 0.000000 0.920352
Si Si4 0.676548 0.299815 0.340477
Si Si5 0.181246 0.905157 0.837919
Si Si6 0.322955 0.700021 0.176118
O O1 0.221489 0.391254 0.500000
O O2 0.232628 0.432214 0.375056
O O3 0.252030 0.342550 0.383252
O O4 0.000000 0.383526 0.417009
O O5 0.500000 0.429684 0.321507
O O6 0.326639 0.500000 0.291973
O O7 0.275147 0.416219 0.240802
O O8 0.770111 0.049427 0.883525
O O9 0.000000 0.000000 0.916897
O O10 0.775857 0.000000 0.000000
O O11 0.500000 0.298866 0.350163
O O12 0.750000 0.250000 0.362405
O O13 0.704532 0.304846 0.258429
O O14 0.227759 0.850850 0.856290
O O15 0.000000 0.905240 0.838929
O O16 0.500000 0.703962 0.166613
O O17 0.250000 0.750000 0.153033
#
# Coordination Sequence:
#
# PCOD9486761 Si02
#       6
#    16  16   8  16  16  16
#     4  11  24  38  50  68  99 136 173 220 272 320
#     4  10  19  34  56  76  96 130 173 218 268 321
#     4   9  16  26  48  84 118 143 168 206 259 313
#     4  10  19  33  53  75  99 131 171 218 270 319
#     4   9  15  28  49  75 108 139 169 211 261 308
#     4   9  17  29  48  74 103 135 170 215 261 302
#
# _framework density 18.011123000000001
#
# number of rings (size 3 to 8) (size 9 to 14) (size 15 to 20)
#    0.000    2.273    2.727    1.091    0.000    3.273 
#    0.000    1.818    0.000    0.545    0.000    0.000 
#    0.000    5.091    0.000    0.000    0.000    0.000 
#
# Total GULP energy -245287.331120 kJ/mol
# GULP energy per Si atom -5574.712071 kJ/mol
# Density = 1.797013 g / cm^3
# Si number density = 18.011123 Si / 1000 Ang^3
#
#
#
# Elastic Constant Matrix: (Units=GPa)
#
#
# Indices 1 2 3 4 5 6 
#
# 1 16.3800 23.8591 17.1724 0.0000 0.0000 0.0000
# 2 23.8591 148.7281 41.3009 0.0000 0.0000 0.0000
# 3 17.1724 41.3009 49.8623 0.0000 0.0000 0.0000
# 4 0.0000 0.0000 0.0000 17.2166 0.0000 0.0000
# 5 0.0000 0.0000 0.0000 0.0000 7.4923 0.0000
# 6 0.0000 0.0000 0.0000 0.0000 0.0000 27.8660
#
#
#
# Elastic Compliance Matrix: (Units=1/GPa)
#
#
# Indices 1 2 3 4 5 6 
#
# 1 0.103571 -0.008714 -0.028452 0.000000 0.000000 0.000000
# 2 -0.008714 0.009465 -0.004839 0.000000 0.000000 0.000000
# 3 -0.028452 -0.004839 0.033862 0.000000 0.000000 0.000000
# 4 0.000000 0.000000 0.000000 0.058084 0.000000 0.000000
# 5 0.000000 0.000000 0.000000 0.000000 0.133471 0.000000
# 6 0.000000 0.000000 0.000000 0.000000 0.000000 0.035886
#
#
# Mechanical properties :
#
#
# Convention : Reuss Voigt Hill
#
# Bulk Modulus (GPa) = 15.90110 42.18169 29.04140
# Shear Modulus (GPa) = 10.43164 19.35751 14.89458
#
# Velocity S-wave (km/s) = 2.40922 3.28190 2.87882
# Velocity P-wave (km/s) = 4.07269 6.15076 5.21625
#
# Compressibility (1/GPa) = 0.06288871
#
# Stress axis : x y z
#
# Youngs Moduli (GPa) = 9.65524 105.64828 29.53155
#
# Poissons Ratio (x) = 0.92062 0.84022
# Poissons Ratio (y) = 0.08414 0.14291
# Poissons Ratio (z) = 0.27471 0.51124
#
# Static dielectric constant tensor:
#      x y z
#    x 1.601250 0.000000 0.000000 
#    y 0.000000 1.662440 0.000000 
#    z 0.000000 0.000000 1.593230 
# 
# From -- ./inp_files/50382.got.cif
#   From: 2010.05.17/outbox.cif.g08.bks.cpg/sg65_26_cif.got.tgz:50382.got - 2010.06.03 17:01:31.
