data_PCOD9486450
_publ_section_title
;
Structure prediction by ZEFSAII (Michael W. Deem and Ramdas Pophale) SiO2 
 PCOD9486450
Probable space group: C M M M
;
_chemical_formula_sum "Si O2"
_cell_formula_units_Z 52
_cell_length_a 10.436399
_cell_length_b 26.428402
_cell_length_c 8.407273
_cell_angle_alpha 90.000000
_cell_angle_beta 90.000000
_cell_angle_gamma 90.000000
_cell_volume 2318.871744
_symmetry_space_group_name_H-M "C M M M"
_symmetry_group_IT_number 65
_symmetry_cell_setting 'orthorhombic'
loop_
_space_group_symop_operation_xyz
x,y,z
-x,-y,z
x,-y,-z
-x,y,-z
-x,-y,-z
x,y,-z
-x,y,z
x,-y,z
1/2+x,1/2+y,z
1/2-x,1/2-y,z
1/2+x,1/2-y,-z
1/2-x,1/2+y,-z
1/2-x,1/2-y,-z
1/2+x,1/2+y,-z
1/2-x,1/2+y,z
1/2+x,1/2-y,z
loop_
_atom_site_type_symbol
_atom_site_label
_atom_site_fract_x
_atom_site_fract_y
_atom_site_fract_z
Si Si1 0.783036 0.404007 0.322701
Si Si2 0.358531 0.212823 0.691345
Si Si3 0.500000 0.631864 0.333694
Si Si4 0.261057 0.443535 0.000000
Si Si5 0.500000 0.634299 0.000000
O O1 0.830282 0.418865 0.500000
O O2 0.823019 0.346050 0.290619
O O3 0.627754 0.401651 0.334036
O O4 0.814953 0.435303 0.165141
O O5 0.362708 0.220602 0.500000
O O6 0.500000 0.221355 0.756521
O O7 0.250000 0.250000 0.756317
O O8 0.500000 0.662214 0.500000
O O9 0.500000 0.661997 0.168913
O O10 0.374542 0.401732 0.000000
O O11 0.315384 0.500000 0.000000
#
# Coordination Sequence:
#
# PCOD9486450 Si02
#       5
#    16  16   8   8   4
#     4   9  18  32  51  76 109 145 182 227 278 329
#     4   9  18  32  54  83 114 149 186 228 278 333
#     4   8  14  25  45  71  98 138 180 216 264 322
#     4  10  19  32  52  77 106 144 187 232 280 330
#     4   8  15  28  44  68 104 136 172 226 278 320
#
# _framework density 22.424699
#
# number of rings (size 3 to 8) (size 9 to 14) (size 15 to 20)
#    0.000    3.077    0.000    0.231    2.154    0.615 
#    0.000    1.538    0.000   11.077    0.000    4.308 
#    0.000    0.000    0.000    0.000    0.000    0.000 
#
# Total GULP energy -144844.219007 kJ/mol
# GULP energy per Si atom -5570.931500 kJ/mol
# Density = 2.237366 g / cm^3
# Si number density = 22.424699 Si / 1000 Ang^3
#
#
#
# Elastic Constant Matrix: (Units=GPa)
#
#
# Indices 1 2 3 4 5 6 
#
# 1 82.2702 17.3194 7.3837 0.0000 0.0000 0.0000
# 2 17.3194 51.2393 35.6413 0.0000 0.0000 0.0000
# 3 7.3837 35.6413 197.4265 0.0000 0.0000 0.0000
# 4 0.0000 0.0000 0.0000 17.3005 0.0000 0.0000
# 5 0.0000 0.0000 0.0000 0.0000 -3.1528 0.0000
# 6 0.0000 0.0000 0.0000 0.0000 0.0000 5.0083
#
#
#
# Elastic Compliance Matrix: (Units=1/GPa)
#
#
# Indices 1 2 3 4 5 6 
#
# 1 0.013108 -0.004677 0.000354 0.000000 0.000000 0.000000
# 2 -0.004677 0.023988 -0.004156 0.000000 0.000000 0.000000
# 3 0.000354 -0.004156 0.005802 0.000000 0.000000 0.000000
# 4 0.000000 0.000000 0.000000 0.057802 0.000000 0.000000
# 5 0.000000 0.000000 0.000000 0.000000 -0.317177 0.000000
# 6 0.000000 0.000000 0.000000 0.000000 0.000000 0.199668
#
#
# Mechanical properties :
#
#
# Convention : Reuss Voigt Hill
#
# Bulk Modulus (GPa) = 38.54917 50.18056 44.36486
# Shear Modulus (GPa) = 568.55448 21.87064 295.21256
#
# Velocity S-wave (km/s) = 15.94019 3.12636 11.48616
# Velocity P-wave (km/s) = 18.86834 5.95467 13.99057
#
# Compressibility (1/GPa) = 0.02594090
#
# Stress axis : x y z
#
# Youngs Moduli (GPa) = 76.29012 41.68813 172.35028
#
# Poissons Ratio (x) = 0.19497 -0.06103
# Poissons Ratio (y) = 0.35680 0.71621
# Poissons Ratio (z) = -0.02701 0.17324
#
# Static dielectric constant tensor:
#      x y z
#    x 1.879890 0.000000 0.000000 
#    y 0.000000 1.753470 0.000000 
#    z 0.000000 0.000000 1.937340 
# 
# From -- ./inp_files/4328.got.cif
#   From: 2010.05.17/outbox.cif.g08.bks.cpg/sg65_3_cif.got.tgz:4328.got - 2010.06.03 17:01:31.
