data_PCOD9486535
_publ_section_title
;
Structure prediction by ZEFSAII (Michael W. Deem and Ramdas Pophale) SiO2 
 PCOD9486535
Probable space group: C M M M
;
_chemical_formula_sum "Si O2"
_cell_formula_units_Z 104
_cell_length_a 26.340867
_cell_length_b 7.726746
_cell_length_c 25.164972
_cell_angle_alpha 90.000000
_cell_angle_beta 90.000000
_cell_angle_gamma 90.000000
_cell_volume 5121.806336
_symmetry_space_group_name_H-M "C M M M"
_symmetry_group_IT_number 65
_symmetry_cell_setting 'orthorhombic'
loop_
_space_group_symop_operation_xyz
x,y,z
-x,-y,z
x,-y,-z
-x,y,-z
-x,-y,-z
x,y,-z
-x,y,z
x,-y,z
1/2+x,1/2+y,z
1/2-x,1/2-y,z
1/2+x,1/2-y,-z
1/2-x,1/2+y,-z
1/2-x,1/2-y,-z
1/2+x,1/2+y,-z
1/2-x,1/2+y,z
1/2+x,1/2-y,z
loop_
_atom_site_type_symbol
_atom_site_label
_atom_site_fract_x
_atom_site_fract_y
_atom_site_fract_z
Si Si1 0.193492 0.291972 0.439509
Si Si2 0.809386 0.706717 0.884771
Si Si3 0.309366 0.793022 0.000000
Si Si4 0.598985 0.207231 0.626176
Si Si5 0.000000 0.788336 0.937448
Si Si6 0.444553 0.708275 0.265786
Si Si7 0.000000 0.712006 0.561916
Si Si8 0.917542 0.205363 0.149351
O O1 0.187523 0.226430 0.500000
O O2 0.189289 0.500000 0.441810
O O3 0.250000 0.250000 0.421068
O O4 0.149793 0.224891 0.401215
O O5 0.810466 0.500000 0.886525
O O6 0.750000 0.750000 0.873504
O O7 0.825770 0.777019 0.943298
O O8 0.856881 0.765818 0.850365
O O9 0.250000 0.750000 0.000000
O O10 0.317380 0.000000 0.000000
O O11 0.594583 0.244374 0.688488
O O12 0.549902 0.271446 0.593636
O O13 0.598703 0.000000 0.620532
O O14 0.950655 0.731935 0.901773
O O15 0.000000 0.000000 0.939591
O O16 0.000000 0.731482 0.000000
O O17 0.500000 0.768519 0.284583
O O18 0.444914 0.500000 0.262569
O O19 0.436419 0.774938 0.206091
O O20 0.000000 0.500000 0.562065
O O21 0.000000 0.764252 0.500000
O O22 0.926552 0.000000 0.149198
#
# Coordination Sequence:
#
# PCOD9486535 Si02
#       8
#    16  16   8  16   8  16   8  16
#     4   9  18  33  53  78 109 144 180 218 261 311
#     4  10  20  35  54  79 109 140 174 215 264 320
#     4   8  16  30  48  71 102 135 167 202 250 310
#     4  10  19  32  53  80 105 135 179 222 259 309
#     4   9  18  33  55  83 109 137 178 225 274 334
#     4  10  20  36  55  75 105 143 179 218 266 320
#     4   9  16  27  47  77 109 135 162 209 268 312
#     4  10  20  36  57  80 107 142 183 225 273 326
#
# _framework density 20.305336
#
# number of rings (size 3 to 8) (size 9 to 14) (size 15 to 20)
#    0.000    2.462    1.538    0.923    1.077    3.692 
#    0.000    1.154    0.000    4.154    0.000    0.000 
#    0.000    0.000    0.000    0.000    0.000    0.000 
#
# Total GULP energy -289717.070425 kJ/mol
# GULP energy per Si atom -5571.482124 kJ/mol
# Density = 2.025912 g / cm^3
# Si number density = 20.305336 Si / 1000 Ang^3
#
#
#
# Elastic Constant Matrix: (Units=GPa)
#
#
# Indices 1 2 3 4 5 6 
#
# 1 145.1348 3.0467 83.4839 0.0000 0.0000 0.0000
# 2 3.0467 31.5345 5.6266 0.0000 0.0000 0.0000
# 3 83.4839 5.6266 132.5890 0.0000 0.0000 0.0000
# 4 0.0000 0.0000 0.0000 17.1373 0.0000 0.0000
# 5 0.0000 0.0000 0.0000 0.0000 27.8166 0.0000
# 6 0.0000 0.0000 0.0000 0.0000 0.0000 16.7327
#
#
#
# Elastic Compliance Matrix: (Units=1/GPa)
#
#
# Indices 1 2 3 4 5 6 
#
# 1 0.010804 0.000171 -0.006810 0.000000 0.000000 0.000000
# 2 0.000171 0.031956 -0.001464 0.000000 0.000000 0.000000
# 3 -0.006810 -0.001464 0.011892 0.000000 0.000000 0.000000
# 4 0.000000 0.000000 0.000000 0.058352 0.000000 0.000000
# 5 0.000000 0.000000 0.000000 0.000000 0.035950 0.000000
# 6 0.000000 0.000000 0.000000 0.000000 0.000000 0.059763
#
#
# Mechanical properties :
#
#
# Convention : Reuss Voigt Hill
#
# Bulk Modulus (GPa) = 26.01000 54.84141 40.42570
# Shear Modulus (GPa) = 21.03163 26.81072 23.92118
#
# Velocity S-wave (km/s) = 3.22183 3.63764 3.43603
# Velocity P-wave (km/s) = 5.16502 6.68657 5.97443
#
# Compressibility (1/GPa) = 0.03844676
#
# Stress axis : x y z
#
# Youngs Moduli (GPa) = 92.56177 31.29305 84.09076
#
# Poissons Ratio (x) = -0.00536 0.57263
# Poissons Ratio (y) = -0.01585 0.12310
# Poissons Ratio (z) = 0.63032 0.04581
#
# Static dielectric constant tensor:
#      x y z
#    x 1.720590 0.000000 0.000000 
#    y 0.000000 2.994600 0.000000 
#    z 0.000000 0.000000 1.747400 
# 
# From -- ./inp_files/71912.got.cif
#   From: 2010.05.17/outbox.cif.g08.bks.cpg/sg65_36_cif.got.tgz:71912.got - 2010.06.03 17:01:31.
