data_PCOD9486239
_publ_section_title
;
Structure prediction by ZEFSAII (Michael W. Deem and Ramdas Pophale) SiO2 
 PCOD9486239
Probable space group: C M M M
;
_chemical_formula_sum "Si O2"
_cell_formula_units_Z 120
_cell_length_a 27.318165
_cell_length_b 28.682595
_cell_length_c 8.884647
_cell_angle_alpha 90.000000
_cell_angle_beta 90.000000
_cell_angle_gamma 90.000000
_cell_volume 6961.617246
_symmetry_space_group_name_H-M "C M M M"
_symmetry_group_IT_number 65
_symmetry_cell_setting 'orthorhombic'
loop_
_space_group_symop_operation_xyz
x,y,z
-x,-y,z
x,-y,-z
-x,y,-z
-x,-y,-z
x,y,-z
-x,y,z
x,-y,z
1/2+x,1/2+y,z
1/2-x,1/2-y,z
1/2+x,1/2-y,-z
1/2-x,1/2+y,-z
1/2-x,1/2-y,-z
1/2+x,1/2+y,-z
1/2-x,1/2+y,z
1/2+x,1/2-y,z
loop_
_atom_site_type_symbol
_atom_site_label
_atom_site_fract_x
_atom_site_fract_y
_atom_site_fract_z
Si Si1 0.443192 0.688739 0.820166
Si Si2 0.146873 0.141509 0.319710
Si Si3 0.000000 0.553635 0.816548
Si Si4 0.941173 0.287894 0.324659
Si Si5 0.264680 0.697756 0.818929
Si Si6 0.291543 0.447409 0.681329
Si Si7 0.797053 0.607005 0.180451
Si Si8 0.407732 0.883622 0.182009
O O1 0.500000 0.680551 0.777831
O O2 0.405721 0.652535 0.748757
O O3 0.429105 0.739967 0.759444
O O4 0.439630 0.688224 0.000000
O O5 0.145066 0.143974 0.500000
O O6 0.186089 0.179101 0.258407
O O7 0.168274 0.091074 0.273585
O O8 0.048673 0.581730 0.769839
O O9 0.000000 0.500000 0.765979
O O10 0.000000 0.553164 0.000000
O O11 0.927856 0.284408 0.500000
O O12 0.917398 0.332703 0.248733
O O13 0.000000 0.293779 0.314460
O O14 0.250000 0.750000 0.773275
O O15 0.222889 0.659187 0.784330
O O16 0.271818 0.697744 0.000000
O O17 0.289516 0.447089 0.500000
O O18 0.301790 0.500000 0.731978
O O19 0.240020 0.428879 0.743644
O O20 0.853292 0.600655 0.226094
O O21 0.794009 0.601636 0.000000
O O22 0.409202 0.880645 0.000000
#
# Coordination Sequence:
#
# PCOD9486239 Si02
#       8
#    16  16   8  16  16  16  16  16
#     4  10  21  36  55  79 109 145 180 212 254 312
#     4  10  20  34  54  81 109 138 176 221 264 312
#     4   9  18  32  49  69  95 131 177 227 274 319
#     4  10  20  33  50  74 104 138 177 217 259 308
#     4   9  18  32  48  70 104 143 176 213 261 316
#     4   9  19  37  58  78 104 139 176 215 265 322
#     4   9  19  32  48  75 103 132 175 223 266 309
#     4  10  19  32  51  73 100 136 178 223 271 321
#
# _framework density 17.237373999999999
#
# number of rings (size 3 to 8) (size 9 to 14) (size 15 to 20)
#    0.000    2.467    0.667    1.200    1.867    3.467 
#    0.000    1.333    0.000    1.200    0.000    2.800 
#    0.000    0.000    0.000    0.000    0.000    0.000 
#
# Total GULP energy -334729.457802 kJ/mol
# GULP energy per Si atom -5578.824297 kJ/mol
# Density = 1.719814 g / cm^3
# Si number density = 17.237374 Si / 1000 Ang^3
#
#
#
# Elastic Constant Matrix: (Units=GPa)
#
#
# Indices 1 2 3 4 5 6 
#
# 1 128.0135 82.1899 37.4696 0.0000 0.0000 0.0000
# 2 82.1899 140.2879 34.2010 0.0000 0.0000 0.0000
# 3 37.4696 34.2010 23.9481 0.0000 0.0000 0.0000
# 4 0.0000 0.0000 0.0000 20.7439 0.0000 0.0000
# 5 0.0000 0.0000 0.0000 0.0000 21.4574 0.0000
# 6 0.0000 0.0000 0.0000 0.0000 0.0000 11.7063
#
#
#
# Elastic Compliance Matrix: (Units=1/GPa)
#
#
# Indices 1 2 3 4 5 6 
#
# 1 0.016558 -0.005193 -0.018491 0.000000 0.000000 0.000000
# 2 -0.005193 0.012564 -0.009818 0.000000 0.000000 0.000000
# 3 -0.018491 -0.009818 0.084710 0.000000 0.000000 0.000000
# 4 0.000000 0.000000 0.000000 0.048207 0.000000 0.000000
# 5 0.000000 0.000000 0.000000 0.000000 0.046604 0.000000
# 6 0.000000 0.000000 0.000000 0.000000 0.000000 0.085424
#
#
# Mechanical properties :
#
#
# Convention : Reuss Voigt Hill
#
# Bulk Modulus (GPa) = 21.35484 66.66340 44.00912
# Shear Modulus (GPa) = 13.27388 20.00747 16.64068
#
# Velocity S-wave (km/s) = 2.77801 3.41061 3.11043
# Velocity P-wave (km/s) = 4.76502 7.36664 6.20374
#
# Compressibility (1/GPa) = 0.04682780
#
# Stress axis : x y z
#
# Youngs Moduli (GPa) = 60.39401 79.59140 11.80502
#
# Poissons Ratio (x) = 0.41331 0.21828
# Poissons Ratio (y) = 0.31362 0.11591
# Poissons Ratio (z) = 1.11673 0.78146
#
# Static dielectric constant tensor:
#      x y z
#    x 1.580390 0.000000 0.000000 
#    y 0.000000 1.571590 0.000000 
#    z 0.000000 0.000000 1.575450 
# 
# From -- ./inp_files/17104.got.cif
#   From: 2010.05.17/outbox.cif.g08.bks.cpg/sg65_9_cif.got.tgz:17104.got - 2010.06.03 17:01:31.
