data_PCOD9486636
_publ_section_title
;
Structure prediction by ZEFSAII (Michael W. Deem and Ramdas Pophale) SiO2 
 PCOD9486636
Probable space group: C M M M
;
_chemical_formula_sum "Si O2"
_cell_formula_units_Z 72
_cell_length_a 15.152517
_cell_length_b 36.596193
_cell_length_c 8.671406
_cell_angle_alpha 90.000000
_cell_angle_beta 90.000000
_cell_angle_gamma 90.000000
_cell_volume 4808.506526
_symmetry_space_group_name_H-M "C M M M"
_symmetry_group_IT_number 65
_symmetry_cell_setting 'orthorhombic'
loop_
_space_group_symop_operation_xyz
x,y,z
-x,-y,z
x,-y,-z
-x,y,-z
-x,-y,-z
x,y,-z
-x,y,z
x,-y,z
1/2+x,1/2+y,z
1/2-x,1/2-y,z
1/2+x,1/2-y,-z
1/2-x,1/2+y,-z
1/2-x,1/2-y,-z
1/2+x,1/2+y,-z
1/2-x,1/2+y,z
1/2+x,1/2-y,z
loop_
_atom_site_type_symbol
_atom_site_label
_atom_site_fract_x
_atom_site_fract_y
_atom_site_fract_z
Si Si1 0.500000 0.725664 0.679497
Si Si2 0.677017 0.846633 0.184472
Si Si3 0.000000 0.313257 0.679417
Si Si4 0.393039 0.000000 0.678101
Si Si5 0.397323 0.077315 0.814363
Si Si6 0.804228 0.786543 0.313074
O O1 0.500000 0.713699 0.500000
O O2 0.500000 0.769547 0.680522
O O3 0.405250 0.713960 0.745463
O O4 0.586119 0.827562 0.235180
O O5 0.663544 0.888773 0.234435
O O6 0.753807 0.822742 0.259808
O O7 0.686056 0.845687 0.000000
O O8 0.000000 0.325052 0.500000
O O9 0.365763 0.037935 0.756205
O O10 0.500000 0.000000 0.688010
O O11 0.367564 0.000000 0.500000
O O12 0.500000 0.083186 0.762930
O O13 0.399339 0.076905 0.000000
O O14 0.805789 0.785231 0.500000
O O15 0.750000 0.750000 0.263463
#
# Coordination Sequence:
#
# PCOD9486636 Si02
#       6
#     8  16   8   8  16  16
#     4   9  18  33  49  65  88 119 158 197 235 282
#     4  11  21  32  45  69  96 121 158 199 234 273
#     4  11  19  31  49  66  88 123 160 196 236 278
#     4   9  17  27  41  65  89 112 151 192 219 257
#     4   9  17  30  44  59  88 126 152 178 226 279
#     4  10  19  33  50  67  89 122 160 195 235 280
#
# _framework density 14.973463000000001
#
# number of rings (size 3 to 8) (size 9 to 14) (size 15 to 20)
#    0.000    2.111    3.333    1.333    0.000    3.556 
#    0.000    0.556    0.000    0.000    0.000    0.000 
#    0.000    0.889    0.000   10.000    0.000    4.444 
#
# Total GULP energy -200607.277733 kJ/mol
# GULP energy per Si atom -5572.424381 kJ/mol
# Density = 1.493938 g / cm^3
# Si number density = 14.973463 Si / 1000 Ang^3
#
#
#
# Elastic Constant Matrix: (Units=GPa)
#
#
# Indices 1 2 3 4 5 6 
#
# 1 103.9523 57.4985 13.1683 0.0000 0.0000 0.0000
# 2 57.4985 120.8037 18.0768 0.0000 0.0000 0.0000
# 3 13.1683 18.0768 7.8197 0.0000 0.0000 0.0000
# 4 0.0000 0.0000 0.0000 29.7570 0.0000 0.0000
# 5 0.0000 0.0000 0.0000 0.0000 12.8091 0.0000
# 6 0.0000 0.0000 0.0000 0.0000 0.0000 32.0556
#
#
#
# Elastic Compliance Matrix: (Units=1/GPa)
#
#
# Indices 1 2 3 4 5 6 
#
# 1 0.013791 -0.004722 -0.012307 0.000000 0.000000 0.000000
# 2 -0.004722 0.014273 -0.025042 0.000000 0.000000 0.000000
# 3 -0.012307 -0.025042 0.206496 0.000000 0.000000 0.000000
# 4 0.000000 0.000000 0.000000 0.033606 0.000000 0.000000
# 5 0.000000 0.000000 0.000000 0.000000 0.078070 0.000000
# 6 0.000000 0.000000 0.000000 0.000000 0.000000 0.031196
#
#
# Mechanical properties :
#
#
# Convention : Reuss Voigt Hill
#
# Bulk Modulus (GPa) = 6.64817 45.56257 26.10537
# Shear Modulus (GPa) = 9.77111 24.51315 17.14213
#
# Velocity S-wave (km/s) = 2.55730 4.05051 3.38721
# Velocity P-wave (km/s) = 3.62896 7.23674 5.72450
#
# Compressibility (1/GPa) = 0.15041737
#
# Stress axis : x y z
#
# Youngs Moduli (GPa) = 72.51173 70.06320 4.84270
#
# Poissons Ratio (x) = 0.33087 0.05960
# Poissons Ratio (y) = 0.34243 0.12127
# Poissons Ratio (z) = 0.89240 1.75452
#
# Static dielectric constant tensor:
#      x y z
#    x 1.492270 0.000000 0.000000 
#    y 0.000000 1.501690 0.000000 
#    z 0.000000 0.000000 1.508070 
# 
# From -- ./inp_files/7733.got.cif
#   From: 2010.05.17/outbox.cif.g08.bks.cpg/sg65_4_cif.got.tgz:7733.got - 2010.06.03 17:01:31.
