data_PCOD9486232
_publ_section_title
;
Structure prediction by ZEFSAII (Michael W. Deem and Ramdas Pophale) SiO2 
 PCOD9486232
Probable space group: C M M M
;
_chemical_formula_sum "Si O2"
_cell_formula_units_Z 80
_cell_length_a 8.272596
_cell_length_b 14.184771
_cell_length_c 29.588072
_cell_angle_alpha 90.000000
_cell_angle_beta 90.000000
_cell_angle_gamma 90.000000
_cell_volume 3472.008753
_symmetry_space_group_name_H-M "C M M M"
_symmetry_group_IT_number 65
_symmetry_cell_setting 'orthorhombic'
loop_
_space_group_symop_operation_xyz
x,y,z
-x,-y,z
x,-y,-z
-x,y,-z
-x,-y,-z
x,y,-z
-x,y,z
x,-y,z
1/2+x,1/2+y,z
1/2-x,1/2-y,z
1/2+x,1/2-y,-z
1/2-x,1/2+y,-z
1/2-x,1/2-y,-z
1/2+x,1/2+y,-z
1/2-x,1/2+y,z
1/2+x,1/2-y,z
loop_
_atom_site_type_symbol
_atom_site_label
_atom_site_fract_x
_atom_site_fract_y
_atom_site_fract_z
Si Si1 0.175675 0.884961 0.261554
Si Si2 0.193389 0.857589 0.451132
Si Si3 0.822342 0.390815 0.352474
Si Si4 0.000000 0.615708 0.894492
Si Si5 0.179350 0.885186 0.947202
Si Si6 0.500000 0.884628 0.790351
O O1 0.202180 0.855560 0.313910
O O2 0.335509 0.854994 0.234753
O O3 0.000000 0.851970 0.245181
O O4 0.171136 0.000000 0.258688
O O5 0.246612 0.897800 0.500000
O O6 0.250000 0.750000 0.452270
O O7 0.262069 0.891690 0.403749
O O8 0.000000 0.865553 0.449454
O O9 0.841253 0.500000 0.340040
O O10 0.000000 0.345405 0.350551
O O11 0.835962 0.646500 0.919619
O O12 0.000000 0.644938 0.842392
O O13 0.000000 0.500000 0.895415
O O14 0.000000 0.855712 0.931073
O O15 0.180214 0.000000 0.945563
O O16 0.195107 0.859526 0.000000
O O17 0.500000 0.000000 0.789307
#
# Coordination Sequence:
#
# PCOD9486232 Si02
#       6
#    16  16  16   8  16   8
#     4   9  16  27  42  58  79 106 136 173 217 263
#     4  10  21  36  52  71  97 126 154 186 229 279
#     4  10  19  32  51  72  94 120 154 192 227 274
#     4   9  15  20  29  42  60  85 116 155 207 266
#     4   8  13  20  28  38  54  79 115 159 205 253
#     4   9  16  25  34  51  75  98 127 168 218 269
#
# _framework density 23.041418
#
# number of rings (size 3 to 8) (size 9 to 14) (size 15 to 20)
#    0.000    2.800    1.000    2.100    0.000    4.800 
#    0.000    6.000    0.000    0.000    0.000    0.000 
#    0.000    0.000    0.000    0.000    0.000    0.000 
#
# Total GULP energy -223293.605823 kJ/mol
# GULP energy per Si atom -5582.340146 kJ/mol
# Density = 2.298897 g / cm^3
# Si number density = 23.041418 Si / 1000 Ang^3
#
#
#
# Elastic Constant Matrix: (Units=GPa)
#
#
# Indices 1 2 3 4 5 6 
#
# 1 230.7049 14.7805 119.0434 0.0000 0.0000 0.0000
# 2 14.7805 63.9279 -4.9099 0.0000 0.0000 0.0000
# 3 119.0434 -4.9099 147.6685 0.0000 0.0000 0.0000
# 4 0.0000 0.0000 0.0000 15.4184 0.0000 0.0000
# 5 0.0000 0.0000 0.0000 0.0000 -6.6234 0.0000
# 6 0.0000 0.0000 0.0000 0.0000 0.0000 19.0058
#
#
#
# Elastic Compliance Matrix: (Units=1/GPa)
#
#
# Indices 1 2 3 4 5 6 
#
# 1 0.007738 -0.002274 -0.006314 0.000000 0.000000 0.000000
# 2 -0.002274 0.016351 0.002377 0.000000 0.000000 0.000000
# 3 -0.006314 0.002377 0.011941 0.000000 0.000000 0.000000
# 4 0.000000 0.000000 0.000000 0.064858 0.000000 0.000000
# 5 0.000000 0.000000 0.000000 0.000000 -0.150981 0.000000
# 6 0.000000 0.000000 0.000000 0.000000 0.000000 0.052616
#
#
# Mechanical properties :
#
#
# Convention : Reuss Voigt Hill
#
# Bulk Modulus (GPa) = 42.35836 77.79216 60.07526
# Shear Modulus (GPa) = 219.17142 26.45265 122.81203
#
# Velocity S-wave (km/s) = 9.76356 3.39196 7.30864
# Velocity P-wave (km/s) = 12.06343 7.01254 9.86666
#
# Compressibility (1/GPa) = 0.02360809
#
# Stress axis : x y z
#
# Youngs Moduli (GPa) = 129.23084 61.15860 83.74675
#
# Poissons Ratio (x) = 0.13908 0.52875
# Poissons Ratio (y) = 0.29387 -0.19905
# Poissons Ratio (z) = 0.81592 -0.14537
#
# Static dielectric constant tensor:
#      x y z
#    x 1.838270 0.000000 0.000000 
#    y 0.000000 1.933810 0.000000 
#    z 0.000000 0.000000 1.823830 
# 
# From -- ./inp_files/72955.got.cif
#   From: 2010.05.17/outbox.cif.g08.bks.cpg/sg65_37_cif.got.tgz:72955.got - 2010.06.03 17:01:31.
