data_PCOD9486298
_publ_section_title
;
Structure prediction by ZEFSAII (Michael W. Deem and Ramdas Pophale) SiO2 
 PCOD9486298
Probable space group: C M M M
;
_chemical_formula_sum "Si O2"
_cell_formula_units_Z 72
_cell_length_a 7.488827
_cell_length_b 22.885698
_cell_length_c 18.964696
_cell_angle_alpha 90.000000
_cell_angle_beta 90.000000
_cell_angle_gamma 90.000000
_cell_volume 3250.302981
_symmetry_space_group_name_H-M "C M M M"
_symmetry_group_IT_number 65
_symmetry_cell_setting 'orthorhombic'
loop_
_space_group_symop_operation_xyz
x,y,z
-x,-y,z
x,-y,-z
-x,y,-z
-x,-y,-z
x,y,-z
-x,y,z
x,-y,z
1/2+x,1/2+y,z
1/2-x,1/2-y,z
1/2+x,1/2-y,-z
1/2-x,1/2+y,-z
1/2-x,1/2-y,-z
1/2+x,1/2+y,-z
1/2-x,1/2+y,z
1/2+x,1/2-y,z
loop_
_atom_site_type_symbol
_atom_site_label
_atom_site_fract_x
_atom_site_fract_y
_atom_site_fract_z
Si Si1 0.206557 0.934202 0.653214
Si Si2 0.783655 0.500000 0.921155
Si Si3 0.784747 0.401480 0.188915
Si Si4 0.714224 0.315198 0.580910
Si Si5 0.713333 0.818185 0.076396
O O1 0.210057 0.921510 0.736783
O O2 0.282627 0.874682 0.618110
O O3 0.000000 0.937530 0.630232
O O4 0.283037 0.000000 0.640502
O O5 0.734887 0.554660 0.873715
O O6 0.000000 0.500000 0.925507
O O7 0.714034 0.500000 0.000000
O O8 0.723760 0.341865 0.151979
O O9 0.000000 0.402340 0.198433
O O10 0.779650 0.314649 0.500000
O O11 0.500000 0.319654 0.580271
O O12 0.750000 0.250000 0.611595
O O13 0.500000 0.829179 0.075756
O O14 0.750000 0.750000 0.074487
O O15 0.779833 0.842303 0.000000
#
# Coordination Sequence:
#
# PCOD9486298 Si02
#       5
#    16   8  16  16  16
#     4  10  21  36  54  78 111 145 175 215 266 319
#     4   9  16  28  49  73  94 123 168 218 259 295
#     4  10  19  32  51  74  99 131 172 215 258 308
#     4   9  19  37  60  84 109 140 179 220 263 314
#     4   9  18  32  49  70  96 128 169 216 263 311
#
# _framework density 22.151782000000001
#
# number of rings (size 3 to 8) (size 9 to 14) (size 15 to 20)
#    0.000    2.556    1.111    0.667    0.000    5.778 
#    0.000    6.667    0.000    2.667    0.000    4.667 
#    0.000    0.000    0.000    0.000    0.000    0.000 
#
# Total GULP energy -200509.285897 kJ/mol
# GULP energy per Si atom -5569.702386 kJ/mol
# Density = 2.210136 g / cm^3
# Si number density = 22.151782 Si / 1000 Ang^3
#
#
#
# Elastic Constant Matrix: (Units=GPa)
#
#
# Indices 1 2 3 4 5 6 
#
# 1 61.3585 3.6723 -3.9831 0.0000 0.0000 0.0000
# 2 3.6723 176.4024 70.4331 0.0000 0.0000 0.0000
# 3 -3.9831 70.4331 80.1443 0.0000 0.0000 0.0000
# 4 0.0000 0.0000 0.0000 -21.6816 0.0000 0.0000
# 5 0.0000 0.0000 0.0000 0.0000 16.3047 0.0000
# 6 0.0000 0.0000 0.0000 0.0000 0.0000 13.2984
#
#
#
# Elastic Compliance Matrix: (Units=1/GPa)
#
#
# Indices 1 2 3 4 5 6 
#
# 1 0.016471 -0.001032 0.001725 0.000000 0.000000 0.000000
# 2 -0.001032 0.008798 -0.007783 0.000000 0.000000 0.000000
# 3 0.001725 -0.007783 0.019403 0.000000 0.000000 0.000000
# 4 0.000000 0.000000 0.000000 -0.046122 0.000000 0.000000
# 5 0.000000 0.000000 0.000000 0.000000 0.061332 0.000000
# 6 0.000000 0.000000 0.000000 0.000000 0.000000 0.075197
#
#
# Mechanical properties :
#
#
# Convention : Reuss Voigt Hill
#
# Bulk Modulus (GPa) = 32.79387 50.90554 41.84970
# Shear Modulus (GPa) = 31.36300 18.10316 24.73308
#
# Velocity S-wave (km/s) = 3.76682 2.86183 3.34507
# Velocity P-wave (km/s) = 5.80990 5.82669 5.81830
#
# Compressibility (1/GPa) = 0.03049350
#
# Stress axis : x y z
#
# Youngs Moduli (GPa) = 60.71128 113.66256 51.53752
#
# Poissons Ratio (x) = 0.11728 -0.08892
# Poissons Ratio (y) = 0.06264 0.40113
# Poissons Ratio (z) = -0.10475 0.88466
#
# Static dielectric constant tensor:
#      x y z
#    x 1.885450 0.000000 0.000000 
#    y 0.000000 1.223770 0.000000 
#    z 0.000000 0.000000 1.789560 
# 
# From -- ./inp_files/49488.got.cif
#   From: 2010.05.17/outbox.cif.g08.bks.cpg/sg65_25_cif.got.tgz:49488.got - 2010.06.03 17:01:31.
