data_PCOD9486297
_publ_section_title
;
Structure prediction by ZEFSAII (Michael W. Deem and Ramdas Pophale) SiO2 
 PCOD9486297
Probable space group: C M M M
;
_chemical_formula_sum "Si O2"
_cell_formula_units_Z 104
_cell_length_a 8.602436
_cell_length_b 20.128781
_cell_length_c 34.333310
_cell_angle_alpha 90.000000
_cell_angle_beta 90.000000
_cell_angle_gamma 90.000000
_cell_volume 5945.037520
_symmetry_space_group_name_H-M "C M M M"
_symmetry_group_IT_number 65
_symmetry_cell_setting 'orthorhombic'
loop_
_space_group_symop_operation_xyz
x,y,z
-x,-y,z
x,-y,-z
-x,y,-z
-x,-y,-z
x,y,-z
-x,y,z
x,-y,z
1/2+x,1/2+y,z
1/2-x,1/2-y,z
1/2+x,1/2-y,-z
1/2-x,1/2+y,-z
1/2-x,1/2-y,-z
1/2+x,1/2+y,-z
1/2-x,1/2+y,z
1/2+x,1/2-y,z
loop_
_atom_site_type_symbol
_atom_site_label
_atom_site_fract_x
_atom_site_fract_y
_atom_site_fract_z
Si Si1 0.687223 0.825016 0.000000
Si Si2 0.312982 0.675905 0.693509
Si Si3 0.313484 0.825181 0.085355
Si Si4 0.687285 0.422742 0.455139
Si Si5 0.310666 0.575918 0.760784
Si Si6 0.684767 0.823814 0.390843
Si Si7 0.812393 0.076945 0.150719
O O1 0.750000 0.750000 0.000000
O O2 0.735747 0.852216 0.957706
O O3 0.500000 0.824291 0.000000
O O4 0.500000 0.677513 0.692961
O O5 0.250000 0.750000 0.700379
O O6 0.259326 0.626588 0.727601
O O7 0.253840 0.654666 0.650924
O O8 0.500000 0.822151 0.086403
O O9 0.250000 0.750000 0.089630
O O10 0.254377 0.872877 0.119223
O O11 0.729606 0.407316 0.500000
O O12 0.500000 0.417060 0.452059
O O13 0.727458 0.500000 0.447812
O O14 0.765055 0.373953 0.424553
O O15 0.500000 0.576168 0.760572
O O16 0.261816 0.500000 0.752942
O O17 0.263346 0.593662 0.804904
O O18 0.500000 0.819985 0.387770
O O19 0.750000 0.750000 0.398831
O O20 0.000000 0.080031 0.149451
O O21 0.767720 0.000000 0.143285
#
# Coordination Sequence:
#
# PCOD9486297 Si02
#       7
#     8  16  16  16  16  16  16
#     4   8  16  30  47  68  95 127 161 203 249 294
#     4  10  19  33  53  75 101 132 167 208 253 300
#     4  10  19  32  51  74  99 128 166 207 250 299
#     4   9  19  37  59  81 106 137 173 212 254 302
#     4   8  16  32  53  74  96 128 168 205 245 296
#     4  11  22  36  54  77 107 140 174 212 255 302
#     4   9  18  34  53  73 101 134 167 205 249 297
#
# _framework density 17.493582
#
# number of rings (size 3 to 8) (size 9 to 14) (size 15 to 20)
#    0.000    2.615    0.000    4.615    0.000    3.077 
#    0.000    5.769    0.000    5.538    0.000    0.000 
#    0.000    0.000    0.000    0.000    0.000    0.000 
#
# Total GULP energy -289907.723023 kJ/mol
# GULP energy per Si atom -5575.148520 kJ/mol
# Density = 1.745377 g / cm^3
# Si number density = 17.493582 Si / 1000 Ang^3
#
#
#
# Elastic Constant Matrix: (Units=GPa)
#
#
# Indices 1 2 3 4 5 6 
#
# 1 48.0259 36.0120 49.1517 0.0000 0.0000 0.0000
# 2 36.0120 91.6035 115.2220 0.0000 0.0000 0.0000
# 3 49.1517 115.2220 185.6304 0.0000 0.0000 0.0000
# 4 0.0000 0.0000 0.0000 49.9142 0.0000 0.0000
# 5 0.0000 0.0000 0.0000 0.0000 25.0926 0.0000
# 6 0.0000 0.0000 0.0000 0.0000 0.0000 27.0133
#
#
#
# Elastic Compliance Matrix: (Units=1/GPa)
#
#
# Indices 1 2 3 4 5 6 
#
# 1 0.029848 -0.008178 -0.002827 0.000000 0.000000 0.000000
# 2 -0.008178 0.052031 -0.030130 0.000000 0.000000 0.000000
# 3 -0.002827 -0.030130 0.024838 0.000000 0.000000 0.000000
# 4 0.000000 0.000000 0.000000 0.020034 0.000000 0.000000
# 5 0.000000 0.000000 0.000000 0.000000 0.039852 0.000000
# 6 0.000000 0.000000 0.000000 0.000000 0.000000 0.037019
#
#
# Mechanical properties :
#
#
# Convention : Reuss Voigt Hill
#
# Bulk Modulus (GPa) = 40.90806 80.67013 60.78909
# Shear Modulus (GPa) = 17.00443 28.72897 22.86670
#
# Velocity S-wave (km/s) = 3.12113 4.05687 3.61937
# Velocity P-wave (km/s) = 6.03523 8.25582 7.23127
#
# Compressibility (1/GPa) = 0.02444506
#
# Stress axis : x y z
#
# Youngs Moduli (GPa) = 33.50349 19.21936 40.26146
#
# Poissons Ratio (x) = 0.15718 0.11381
# Poissons Ratio (y) = 0.27401 1.21309
# Poissons Ratio (z) = 0.09471 0.57909
#
# Static dielectric constant tensor:
#      x y z
#    x 1.600150 0.000000 0.000000 
#    y 0.000000 1.564690 0.000000 
#    z 0.000000 0.000000 1.605100 
# 
# From -- ./inp_files/76840.got.cif
#   From: 2010.05.17/outbox.cif.g08.bks.cpg/sg65_39_cif.got.tgz:76840.got - 2010.06.03 17:01:31.
