data_PCOD9486829
_publ_section_title
;
Structure prediction by ZEFSAII (Michael W. Deem and Ramdas Pophale) SiO2 
 PCOD9486829
Probable space group: C M M M
;
_chemical_formula_sum "Si O2"
_cell_formula_units_Z 76
_cell_length_a 32.965238
_cell_length_b 10.251613
_cell_length_c 12.328971
_cell_angle_alpha 90.000000
_cell_angle_beta 90.000000
_cell_angle_gamma 90.000000
_cell_volume 4166.537066
_symmetry_space_group_name_H-M "C M M M"
_symmetry_group_IT_number 65
_symmetry_cell_setting 'orthorhombic'
loop_
_space_group_symop_operation_xyz
x,y,z
-x,-y,z
x,-y,-z
-x,y,-z
-x,-y,-z
x,y,-z
-x,y,z
x,-y,z
1/2+x,1/2+y,z
1/2-x,1/2-y,z
1/2+x,1/2-y,-z
1/2-x,1/2+y,-z
1/2-x,1/2-y,-z
1/2+x,1/2+y,-z
1/2-x,1/2+y,z
1/2+x,1/2-y,z
loop_
_atom_site_type_symbol
_atom_site_label
_atom_site_fract_x
_atom_site_fract_y
_atom_site_fract_z
Si Si1 0.294425 0.500000 0.871267
Si Si2 0.953067 0.841736 0.000000
Si Si3 0.000000 0.158472 0.375590
Si Si4 0.201425 0.222326 0.500000
Si Si5 0.831069 0.777212 0.272108
Si Si6 0.293021 0.000000 0.500000
Si Si7 0.421409 0.341405 0.764361
Si Si8 0.787095 0.500000 0.738743
O O1 0.316511 0.626756 0.822642
O O2 0.248989 0.500000 0.823895
O O3 0.295038 0.500000 0.000000
O O4 0.931164 0.803722 0.888675
O O5 0.000000 0.798100 0.000000
O O6 0.954096 0.000000 0.000000
O O7 0.040364 0.196124 0.310054
O O8 0.000000 0.203438 0.500000
O O9 0.000000 0.000000 0.376933
O O10 0.250000 0.250000 0.500000
O O11 0.186976 0.167247 0.385824
O O12 0.181796 0.367949 0.500000
O O13 0.879460 0.780322 0.274856
O O14 0.812751 0.633090 0.253500
O O15 0.269945 0.000000 0.614447
O O16 0.417400 0.500000 0.760261
#
# Coordination Sequence:
#
# PCOD9486829 Si02
#       8
#     8   8   8   8  16   4  16   8
#     4  12  26  42  58  83 118 155 200 253 300 345
#     4   9  16  30  54  77 106 148 191 228 283 347
#     4   9  18  31  51  78 126 154 178 236 305 352
#     4  10  20  36  58  83 112 148 194 242 292 347
#     4  11  23  38  62  89 117 152 198 248 295 350
#     4   8  16  36  60  76 104 141 188 233 278 340
#     4  10  19  33  53  85 114 149 189 238 292 347
#     4  10  22  42  62  83 115 160 196 238 302 361
#
# _framework density 18.240568
#
# number of rings (size 3 to 8) (size 9 to 14) (size 15 to 20)
#    0.000    1.895    2.105    3.158    2.947    2.105 
#    0.000    0.000    0.000    0.632    0.000    1.474 
#    0.000    0.000    0.000    0.000    0.000    0.000 
#
# Total GULP energy -211921.483249 kJ/mol
# GULP energy per Si atom -5576.881138 kJ/mol
# Density = 1.819905 g / cm^3
# Si number density = 18.240568 Si / 1000 Ang^3
#
#
#
# Elastic Constant Matrix: (Units=GPa)
#
#
# Indices 1 2 3 4 5 6 
#
# 1 172.0509 30.7022 77.2927 0.0000 0.0000 0.0000
# 2 30.7022 74.3516 27.1164 0.0000 0.0000 0.0000
# 3 77.2927 27.1164 178.2764 0.0000 0.0000 0.0000
# 4 0.0000 0.0000 0.0000 23.9003 0.0000 0.0000
# 5 0.0000 0.0000 0.0000 0.0000 18.4941 0.0000
# 6 0.0000 0.0000 0.0000 0.0000 0.0000 13.9815
#
#
#
# Elastic Compliance Matrix: (Units=1/GPa)
#
#
# Indices 1 2 3 4 5 6 
#
# 1 0.007495 -0.002022 -0.002942 0.000000 0.000000 0.000000
# 2 -0.002022 0.014785 -0.001372 0.000000 0.000000 0.000000
# 3 -0.002942 -0.001372 0.007093 0.000000 0.000000 0.000000
# 4 0.000000 0.000000 0.000000 0.041841 0.000000 0.000000
# 5 0.000000 0.000000 0.000000 0.000000 0.054071 0.000000
# 6 0.000000 0.000000 0.000000 0.000000 0.000000 0.071523
#
#
# Mechanical properties :
#
#
# Convention : Reuss Voigt Hill
#
# Bulk Modulus (GPa) = 59.87605 77.21128 68.54367
# Shear Modulus (GPa) = 23.25074 30.57968 26.91521
#
# Velocity S-wave (km/s) = 3.57413 4.09891 3.84548
# Velocity P-wave (km/s) = 7.06608 8.05126 7.57470
#
# Compressibility (1/GPa) = 0.01670117
#
# Stress axis : x y z
#
# Youngs Moduli (GPa) = 133.42903 67.63621 140.97569
#
# Poissons Ratio (x) = 0.13675 0.41472
# Poissons Ratio (y) = 0.26978 0.19345
# Poissons Ratio (z) = 0.39252 0.09281
#
# Static dielectric constant tensor:
#      x y z
#    x 1.616630 0.000000 0.000000 
#    y 0.000000 1.659780 0.000000 
#    z 0.000000 0.000000 1.647070 
# 
# From -- ./inp_files/33627.got.cif
#   From: 2010.05.17/outbox.cif.g08.bks.cpg/sg65_17_cif.got.tgz:33627.got - 2010.06.03 17:01:31.
