data_PCOD9486844
_publ_section_title
;
Structure prediction by ZEFSAII (Michael W. Deem and Ramdas Pophale) SiO2 
 PCOD9486844
Probable space group: C M M M
;
_chemical_formula_sum "Si O2"
_cell_formula_units_Z 72
_cell_length_a 7.876484
_cell_length_b 19.206808
_cell_length_c 24.742006
_cell_angle_alpha 90.000000
_cell_angle_beta 90.000000
_cell_angle_gamma 90.000000
_cell_volume 3743.023019
_symmetry_space_group_name_H-M "C M M M"
_symmetry_group_IT_number 65
_symmetry_cell_setting 'orthorhombic'
loop_
_space_group_symop_operation_xyz
x,y,z
-x,-y,z
x,-y,-z
-x,y,-z
-x,-y,-z
x,y,-z
-x,y,z
x,-y,z
1/2+x,1/2+y,z
1/2-x,1/2-y,z
1/2+x,1/2-y,-z
1/2-x,1/2+y,-z
1/2-x,1/2-y,-z
1/2+x,1/2+y,-z
1/2-x,1/2+y,z
1/2+x,1/2-y,z
loop_
_atom_site_type_symbol
_atom_site_label
_atom_site_fract_x
_atom_site_fract_y
_atom_site_fract_z
Si Si1 0.794904 0.168691 0.161831
Si Si2 0.207235 0.080887 0.939997
Si Si3 0.798931 0.578145 0.500000
Si Si4 0.204449 0.831826 0.279263
Si Si5 0.701997 0.668914 0.396725
O O1 0.750000 0.250000 0.157158
O O2 0.730964 0.126414 0.110140
O O3 0.733786 0.141689 0.220825
O O4 0.000000 0.163536 0.162049
O O5 0.000000 0.083080 0.939647
O O6 0.255037 0.000000 0.933726
O O7 0.261549 0.104569 0.000000
O O8 0.724285 0.500000 0.500000
O O9 0.752912 0.621518 0.446700
O O10 0.000000 0.572013 0.500000
O O11 0.250000 0.750000 0.279040
O O12 0.268964 0.856635 0.337869
O O13 0.000000 0.839411 0.279080
O O14 0.500000 0.667364 0.393602
O O15 0.750000 0.750000 0.404917
#
# Coordination Sequence:
#
# PCOD9486844 Si02
#       5
#    16  16   8  16  16
#     4   9  16  27  44  67  93 118 147 185 228 270
#     4   8  14  25  41  61  86 118 155 191 225 264
#     4  11  24  39  52  69  97 129 158 191 234 279
#     4   8  15  27  44  68  94 119 147 182 225 269
#     4  10  19  33  54  76  97 123 158 195 231 277
#
# _framework density 19.235790000000001
#
# number of rings (size 3 to 8) (size 9 to 14) (size 15 to 20)
#    0.000    3.000    0.000    2.000    0.000    2.222 
#    0.000    1.111    0.000    4.667    0.000    1.556 
#    0.000    0.000    0.000    0.000    0.000    0.000 
#
# Total GULP energy -200451.174558 kJ/mol
# GULP energy per Si atom -5568.088182 kJ/mol
# Density = 1.919201 g / cm^3
# Si number density = 19.235790 Si / 1000 Ang^3
#
#
#
# Elastic Constant Matrix: (Units=GPa)
#
#
# Indices 1 2 3 4 5 6 
#
# 1 24.9287 5.4604 15.4392 0.0000 0.0000 0.0000
# 2 5.4604 70.5066 99.7505 0.0000 0.0000 0.0000
# 3 15.4392 99.7505 269.3476 0.0000 0.0000 0.0000
# 4 0.0000 0.0000 0.0000 -13.9111 0.0000 0.0000
# 5 0.0000 0.0000 0.0000 0.0000 286.2631 0.0000
# 6 0.0000 0.0000 0.0000 0.0000 0.0000 11.6566
#
#
#
# Elastic Compliance Matrix: (Units=1/GPa)
#
#
# Indices 1 2 3 4 5 6 
#
# 1 0.041594 0.000319 -0.002502 0.000000 0.000000 0.000000
# 2 0.000319 0.029795 -0.011053 0.000000 0.000000 0.000000
# 3 -0.002502 -0.011053 0.007949 0.000000 0.000000 0.000000
# 4 0.000000 0.000000 0.000000 -0.071885 0.000000 0.000000
# 5 0.000000 0.000000 0.000000 0.000000 0.003493 0.000000
# 6 0.000000 0.000000 0.000000 0.000000 0.000000 0.085788
#
#
# Mechanical properties :
#
#
# Convention : Reuss Voigt Hill
#
# Bulk Modulus (GPa) = 18.91542 67.34254 43.12898
# Shear Modulus (GPa) = 35.50378 73.07726 54.29052
#
# Velocity S-wave (km/s) = 4.30084 6.17031 5.31836
# Velocity P-wave (km/s) = 5.87518 9.26545 7.75778
#
# Compressibility (1/GPa) = 0.05286692
#
# Stress axis : x y z
#
# Youngs Moduli (GPa) = 24.04174 33.56219 125.79569
#
# Poissons Ratio (x) = -0.01071 0.31478
# Poissons Ratio (y) = -0.00767 1.39039
# Poissons Ratio (z) = 0.06016 0.37095
#
# Static dielectric constant tensor:
#      x y z
#    x 1.679030 0.000000 0.000000 
#    y 0.000000 1.644170 0.000000 
#    z 0.000000 0.000000 1.764780 
# 
# From -- ./inp_files/67134.got.cif
#   From: 2010.05.17/outbox.cif.g08.bks.cpg/sg65_34_cif.got.tgz:67134.got - 2010.06.03 17:01:31.
