data_PCOD9486499
_publ_section_title
;
Structure prediction by ZEFSAII (Michael W. Deem and Ramdas Pophale) SiO2 
 PCOD9486499
Probable space group: C M M M
;
_chemical_formula_sum "Si O2"
_cell_formula_units_Z 104
_cell_length_a 27.770192
_cell_length_b 23.234651
_cell_length_c 9.845596
_cell_angle_alpha 90.000000
_cell_angle_beta 90.000000
_cell_angle_gamma 90.000000
_cell_volume 6352.680989
_symmetry_space_group_name_H-M "C M M M"
_symmetry_group_IT_number 65
_symmetry_cell_setting 'orthorhombic'
loop_
_space_group_symop_operation_xyz
x,y,z
-x,-y,z
x,-y,-z
-x,y,-z
-x,-y,-z
x,y,-z
-x,y,z
x,-y,z
1/2+x,1/2+y,z
1/2-x,1/2-y,z
1/2+x,1/2-y,-z
1/2-x,1/2+y,-z
1/2-x,1/2-y,-z
1/2+x,1/2+y,-z
1/2-x,1/2+y,z
1/2+x,1/2-y,z
loop_
_atom_site_type_symbol
_atom_site_label
_atom_site_fract_x
_atom_site_fract_y
_atom_site_fract_z
Si Si1 0.254913 0.500000 0.661033
Si Si2 0.447069 0.068205 0.500000
Si Si3 0.163343 0.500000 0.852768
Si Si4 0.850781 0.211660 0.165110
Si Si5 0.298297 0.375626 0.658909
Si Si6 0.887611 0.611259 0.247381
Si Si7 0.445521 0.777981 0.159720
Si Si8 0.302386 0.192021 0.656849
O O1 0.244706 0.500000 0.500000
O O2 0.204447 0.500000 0.739320
O O3 0.283945 0.441415 0.690905
O O4 0.500000 0.094448 0.500000
O O5 0.418950 0.086706 0.368244
O O6 0.450385 0.000000 0.500000
O O7 0.131356 0.557406 0.838393
O O8 0.187269 0.500000 0.000000
O O9 0.835967 0.152229 0.236830
O O10 0.904591 0.232788 0.206986
O O11 0.814983 0.258807 0.233895
O O12 0.846818 0.211153 0.000000
O O13 0.313673 0.372589 0.500000
O O14 0.249477 0.337519 0.670129
O O15 0.920327 0.659724 0.176613
O O16 0.841710 0.643143 0.312409
O O17 0.500000 0.775679 0.218352
O O18 0.450005 0.767413 0.000000
O O19 0.307291 0.212910 0.500000
#
# Coordination Sequence:
#
# PCOD9486499 Si02
#       8
#     8   8   8  16  16  16  16  16
#     4  10  22  38  58  78 106 146 187 215 254 312
#     4  11  22  32  48  70  93 132 186 241 281 306
#     4  12  24  34  50  77 108 143 183 224 270 315
#     4  10  21  34  52  78 107 137 170 217 268 311
#     4  10  20  35  54  77 105 137 178 210 254 314
#     4  11  20  34  52  71 103 135 179 228 269 310
#     4   9  19  37  56  73  99 136 176 218 269 324
#     4  10  19  32  53  75  99 140 177 212 255 310
#
# _framework density 16.371041000000002
#
# number of rings (size 3 to 8) (size 9 to 14) (size 15 to 20)
#    0.000    1.769    3.077    1.846    1.077    3.692 
#    0.000    0.000    0.000    1.846    0.000    0.538 
#    0.000    4.308    0.000    0.000    0.000    0.000 
#
# Total GULP energy -289875.230985 kJ/mol
# GULP energy per Si atom -5574.523673 kJ/mol
# Density = 1.633378 g / cm^3
# Si number density = 16.371041 Si / 1000 Ang^3
#
#
#
# Elastic Constant Matrix: (Units=GPa)
#
#
# Indices 1 2 3 4 5 6 
#
# 1 91.4965 60.9988 35.6163 0.0000 0.0000 0.0000
# 2 60.9988 91.9143 44.7721 0.0000 0.0000 0.0000
# 3 35.6163 44.7721 65.8184 0.0000 0.0000 0.0000
# 4 0.0000 0.0000 0.0000 -97.0284 0.0000 0.0000
# 5 0.0000 0.0000 0.0000 0.0000 23.1146 0.0000
# 6 0.0000 0.0000 0.0000 0.0000 0.0000 20.9932
#
#
#
# Elastic Compliance Matrix: (Units=1/GPa)
#
#
# Indices 1 2 3 4 5 6 
#
# 1 0.019911 -0.011913 -0.002671 0.000000 0.000000 0.000000
# 2 -0.011913 0.023399 -0.009470 0.000000 0.000000 0.000000
# 3 -0.002671 -0.009470 0.023081 0.000000 0.000000 0.000000
# 4 0.000000 0.000000 0.000000 -0.010306 0.000000 0.000000
# 5 0.000000 0.000000 0.000000 0.000000 0.043263 0.000000
# 6 0.000000 0.000000 0.000000 0.000000 0.000000 0.047634
#
#
# Mechanical properties :
#
#
# Convention : Reuss Voigt Hill
#
# Bulk Modulus (GPa) = 54.69752 59.11148 56.90450
# Shear Modulus (GPa) = 24.85290 -3.39463 10.72914
#
# Velocity S-wave (km/s) = 3.90051 -1.44155 2.56280
# Velocity P-wave (km/s) = 7.33273 5.78057 6.60242
#
# Compressibility (1/GPa) = 0.01828237
#
# Stress axis : x y z
#
# Youngs Moduli (GPa) = 50.22290 42.73723 43.32644
#
# Poissons Ratio (x) = 0.50913 0.11572
# Poissons Ratio (y) = 0.59831 0.41031
# Poissons Ratio (z) = 0.13414 0.40473
#
# Static dielectric constant tensor:
#      x y z
#    x 1.566540 0.000000 0.000000 
#    y 0.000000 1.578770 0.000000 
#    z 0.000000 0.000000 1.548300 
# 
# From -- ./inp_files/14833.got.cif
#   From: 2010.05.17/outbox.cif.g08.bks.cpg/sg65_8_cif.got.tgz:14833.got - 2010.06.03 17:01:31.
