data_PCOD9486948
_publ_section_title
;
Structure prediction by ZEFSAII (Michael W. Deem and Ramdas Pophale) SiO2 
 PCOD9486948
Probable space group: C M M M
;
_chemical_formula_sum "Si O2"
_cell_formula_units_Z 88
_cell_length_a 29.751398
_cell_length_b 14.580370
_cell_length_c 11.655288
_cell_angle_alpha 90.000000
_cell_angle_beta 90.000000
_cell_angle_gamma 90.000000
_cell_volume 5055.905316
_symmetry_space_group_name_H-M "C M M M"
_symmetry_group_IT_number 65
_symmetry_cell_setting 'orthorhombic'
loop_
_space_group_symop_operation_xyz
x,y,z
-x,-y,z
x,-y,-z
-x,y,-z
-x,-y,-z
x,y,-z
-x,y,z
x,-y,z
1/2+x,1/2+y,z
1/2-x,1/2-y,z
1/2+x,1/2-y,-z
1/2-x,1/2+y,-z
1/2-x,1/2-y,-z
1/2+x,1/2+y,-z
1/2-x,1/2+y,z
1/2+x,1/2-y,z
loop_
_atom_site_type_symbol
_atom_site_label
_atom_site_fract_x
_atom_site_fract_y
_atom_site_fract_z
Si Si1 0.845723 0.390828 0.500000
Si Si2 0.136343 0.798860 0.863081
Si Si3 0.266158 0.000000 0.133762
Si Si4 0.948500 0.322544 0.500000
Si Si5 0.207450 0.682267 0.276445
Si Si6 0.553818 0.500000 0.627458
Si Si7 0.448888 0.301642 0.271884
Si Si8 0.841075 0.000000 0.870381
O O1 0.837747 0.500000 0.500000
O O2 0.900331 0.375543 0.500000
O O3 0.820920 0.346558 0.389289
O O4 0.174316 0.737901 0.806120
O O5 0.087528 0.769029 0.819238
O O6 0.144433 0.903148 0.820830
O O7 0.139939 0.796085 0.000000
O O8 0.279087 0.090498 0.206229
O O9 0.212433 0.000000 0.125464
O O10 0.283083 0.000000 0.000000
O O11 0.947105 0.259154 0.613194
O O12 0.000000 0.365720 0.500000
O O13 0.250000 0.750000 0.301529
O O14 0.500000 0.500000 0.614541
O O15 0.574355 0.500000 0.500000
O O16 0.562789 0.405569 0.691710
O O17 0.500000 0.299859 0.228153
O O18 0.859817 0.000000 0.000000
#
# Coordination Sequence:
#
# PCOD9486948 Si02
#       8
#     8  16   8   8  16   8  16   8
#     4  12  25  44  65  88 120 155 184 245 311 350
#     4  11  22  36  58  86 118 158 200 243 292 347
#     4  11  22  38  62  91 118 156 203 240 283 344
#     4  10  20  37  62  87 109 146 197 243 290 352
#     4  12  24  41  64  89 121 156 198 243 292 352
#     4   9  15  26  49  79 110 151 194 233 282 339
#     4  10  19  33  54  81 117 153 194 243 290 346
#     4   9  19  35  55  82 117 155 201 245 281 335
#
# _framework density 17.405390000000001
#
# number of rings (size 3 to 8) (size 9 to 14) (size 15 to 20)
#    0.000    1.364    5.455    1.364    0.000    1.273 
#    0.000    0.000    0.000    3.273    0.000    0.000 
#    0.000    5.818    0.000    0.000    0.000    0.000 
#
# Total GULP energy -245126.272556 kJ/mol
# GULP energy per Si atom -5571.051649 kJ/mol
# Density = 1.736577 g / cm^3
# Si number density = 17.405390 Si / 1000 Ang^3
#
#
#
# Elastic Constant Matrix: (Units=GPa)
#
#
# Indices 1 2 3 4 5 6 
#
# 1 135.5279 51.7090 60.1031 0.0000 0.0000 0.0000
# 2 51.7090 94.0678 37.8993 0.0000 0.0000 0.0000
# 3 60.1031 37.8993 88.0557 0.0000 0.0000 0.0000
# 4 0.0000 0.0000 0.0000 18.7714 0.0000 0.0000
# 5 0.0000 0.0000 0.0000 0.0000 15.8692 0.0000
# 6 0.0000 0.0000 0.0000 0.0000 0.0000 13.4302
#
#
#
# Elastic Compliance Matrix: (Units=1/GPa)
#
#
# Indices 1 2 3 4 5 6 
#
# 1 0.011639 -0.003868 -0.006280 0.000000 0.000000 0.000000
# 2 -0.003868 0.014146 -0.003448 0.000000 0.000000 0.000000
# 3 -0.006280 -0.003448 0.017127 0.000000 0.000000 0.000000
# 4 0.000000 0.000000 0.000000 0.053272 0.000000 0.000000
# 5 0.000000 0.000000 0.000000 0.000000 0.063015 0.000000
# 6 0.000000 0.000000 0.000000 0.000000 0.000000 0.074459
#
#
# Mechanical properties :
#
#
# Convention : Reuss Voigt Hill
#
# Bulk Modulus (GPa) = 63.61254 68.56379 66.08817
# Shear Modulus (GPa) = 18.79057 20.81018 19.80037
#
# Velocity S-wave (km/s) = 3.28927 3.46152 3.37649
# Velocity P-wave (km/s) = 7.14511 7.44674 7.29749
#
# Compressibility (1/GPa) = 0.01572017
#
# Stress axis : x y z
#
# Youngs Moduli (GPa) = 85.91650 70.69029 58.38782
#
# Poissons Ratio (x) = 0.27343 0.36665
# Poissons Ratio (y) = 0.33233 0.20134
# Poissons Ratio (z) = 0.53952 0.24377
#
# Static dielectric constant tensor:
#      x y z
#    x 1.598140 0.000000 0.000000 
#    y 0.000000 1.599260 0.000000 
#    z 0.000000 0.000000 1.589140 
# 
# From -- ./inp_files/33697.got.cif
#   From: 2010.05.17/outbox.cif.g08.bks.cpg/sg65_17_cif.got.tgz:33697.got - 2010.06.03 17:01:31.
