data_PCOD9486231
_publ_section_title
;
Structure prediction by ZEFSAII (Michael W. Deem and Ramdas Pophale) SiO2 
 PCOD9486231
Probable space group: C M M M
;
_chemical_formula_sum "Si O2"
_cell_formula_units_Z 80
_cell_length_a 9.384389
_cell_length_b 14.789254
_cell_length_c 27.293431
_cell_angle_alpha 90.000000
_cell_angle_beta 90.000000
_cell_angle_gamma 90.000000
_cell_volume 3788.003774
_symmetry_space_group_name_H-M "C M M M"
_symmetry_group_IT_number 65
_symmetry_cell_setting 'orthorhombic'
loop_
_space_group_symop_operation_xyz
x,y,z
-x,-y,z
x,-y,-z
-x,y,-z
-x,-y,-z
x,y,-z
-x,y,z
x,-y,z
1/2+x,1/2+y,z
1/2-x,1/2-y,z
1/2+x,1/2-y,-z
1/2-x,1/2+y,-z
1/2-x,1/2-y,-z
1/2+x,1/2+y,-z
1/2-x,1/2+y,z
1/2+x,1/2-y,z
loop_
_atom_site_type_symbol
_atom_site_label
_atom_site_fract_x
_atom_site_fract_y
_atom_site_fract_z
Si Si1 0.165761 0.389769 0.309232
Si Si2 0.162767 0.110761 0.404058
Si Si3 0.837153 0.389399 0.500000
Si Si4 0.329631 0.653521 0.000000
Si Si5 0.159622 0.393176 0.799089
Si Si6 0.829757 0.154703 0.894285
O O1 0.171269 0.500000 0.310348
O O2 0.264729 0.359061 0.353485
O O3 0.208057 0.359148 0.254367
O O4 0.000000 0.365120 0.316801
O O5 0.254345 0.138378 0.451092
O O6 0.000000 0.141079 0.407819
O O7 0.161752 0.000000 0.403950
O O8 0.839458 0.500000 0.500000
O O9 0.000000 0.358231 0.500000
O O10 0.250000 0.750000 0.000000
O O11 0.298119 0.608539 0.052739
O O12 0.500000 0.670043 0.000000
O O13 0.143708 0.500000 0.792589
O O14 0.264910 0.382976 0.844379
O O15 0.000000 0.355939 0.810021
O O16 0.750000 0.250000 0.898103
O O17 0.000000 0.162019 0.890060
#
# Coordination Sequence:
#
# PCOD9486231 Si02
#       6
#    16  16   8   8  16  16
#     4   8  14  25  39  53  73 105 141 174 212 261
#     4   9  15  21  30  46  68  94 129 174 217 256
#     4   9  15  21  29  41  61  93 132 171 212 259
#     4   8  16  30  47  68  91 117 149 185 225 270
#     4   9  18  32  48  67  93 123 155 191 229 271
#     4  10  19  32  51  72  94 120 152 189 229 274
#
# _framework density 21.119302999999999
#
# number of rings (size 3 to 8) (size 9 to 14) (size 15 to 20)
#    0.000    3.100    0.000    2.700    0.000    5.600 
#    0.000    2.500    0.000    3.000    0.000    0.000 
#    0.000    0.000    0.000    0.900    0.000   13.000 
#
# Total GULP energy -222906.881927 kJ/mol
# GULP energy per Si atom -5572.672048 kJ/mol
# Density = 2.107124 g / cm^3
# Si number density = 21.119303 Si / 1000 Ang^3
#
#
#
# Elastic Constant Matrix: (Units=GPa)
#
#
# Indices 1 2 3 4 5 6 
#
# 1 137.5531 10.2427 136.7460 0.0000 0.0000 0.0000
# 2 10.2427 36.7493 11.4832 0.0000 0.0000 0.0000
# 3 136.7460 11.4832 254.1685 0.0000 0.0000 0.0000
# 4 0.0000 0.0000 0.0000 -7.9193 0.0000 0.0000
# 5 0.0000 0.0000 0.0000 0.0000 45.4269 0.0000
# 6 0.0000 0.0000 0.0000 0.0000 0.0000 9.6438
#
#
#
# Elastic Compliance Matrix: (Units=1/GPa)
#
#
# Indices 1 2 3 4 5 6 
#
# 1 0.015742 -0.001766 -0.008389 0.000000 0.000000 0.000000
# 2 -0.001766 0.027799 -0.000306 0.000000 0.000000 0.000000
# 3 -0.008389 -0.000306 0.008462 0.000000 0.000000 0.000000
# 4 0.000000 0.000000 0.000000 -0.126274 0.000000 0.000000
# 5 0.000000 0.000000 0.000000 0.000000 0.022013 0.000000
# 6 0.000000 0.000000 0.000000 0.000000 0.000000 0.103694
#
#
# Mechanical properties :
#
#
# Convention : Reuss Voigt Hill
#
# Bulk Modulus (GPa) = 32.17488 82.82385 57.49937
# Shear Modulus (GPa) = 60.44619 27.43023 43.93821
#
# Velocity S-wave (km/s) = 5.35569 3.60783 4.56617
# Velocity P-wave (km/s) = 7.31522 7.52712 7.42193
#
# Compressibility (1/GPa) = 0.03108014
#
# Stress axis : x y z
#
# Youngs Moduli (GPa) = 63.52591 35.97231 118.17784
#
# Poissons Ratio (x) = 0.06353 0.99144
# Poissons Ratio (y) = 0.11219 0.03614
# Poissons Ratio (z) = 0.53294 0.01100
#
# Static dielectric constant tensor:
#      x y z
#    x 1.719090 0.000000 0.000000 
#    y 0.000000 1.874810 0.000000 
#    z 0.000000 0.000000 1.810210 
# 
# From -- ./inp_files/70812.got.cif
#   From: 2010.05.17/outbox.cif.g08.bks.cpg/sg65_36_cif.got.tgz:70812.got - 2010.06.03 17:01:31.
