data_PCOD9486017
_publ_section_title
;
Structure prediction by ZEFSAII (Michael W. Deem and Ramdas Pophale) SiO2 
 PCOD9486017
Probable space group: C M M M
;
_chemical_formula_sum "Si O2"
_cell_formula_units_Z 120
_cell_length_a 20.840096
_cell_length_b 19.009200
_cell_length_c 18.154410
_cell_angle_alpha 90.000000
_cell_angle_beta 90.000000
_cell_angle_gamma 90.000000
_cell_volume 7191.934022
_symmetry_space_group_name_H-M "C M M M"
_symmetry_group_IT_number 65
_symmetry_cell_setting 'orthorhombic'
loop_
_space_group_symop_operation_xyz
x,y,z
-x,-y,z
x,-y,-z
-x,y,-z
-x,-y,-z
x,y,-z
-x,y,z
x,-y,z
1/2+x,1/2+y,z
1/2-x,1/2-y,z
1/2+x,1/2-y,-z
1/2-x,1/2+y,-z
1/2-x,1/2-y,-z
1/2+x,1/2+y,-z
1/2-x,1/2+y,z
1/2+x,1/2-y,z
loop_
_atom_site_type_symbol
_atom_site_label
_atom_site_fract_x
_atom_site_fract_y
_atom_site_fract_z
Si Si1 0.926340 0.272148 0.417231
Si Si2 0.193436 0.080459 0.292935
Si Si3 0.391770 0.336393 0.185220
Si Si4 0.796370 0.188471 0.415979
Si Si5 0.816838 0.582278 0.814803
Si Si6 0.000000 0.085344 0.089215
Si Si7 0.425714 0.817797 0.748038
Si Si8 0.769055 0.831198 0.081198
O O1 0.920509 0.305827 0.500000
O O2 0.869601 0.215369 0.414933
O O3 0.917235 0.315118 0.341208
O O4 0.000000 0.245052 0.413141
O O5 0.133228 0.117960 0.253933
O O6 0.209634 0.120649 0.367037
O O7 0.256679 0.084792 0.241714
O O8 0.177843 0.000000 0.305213
O O9 0.441269 0.378224 0.133226
O O10 0.413707 0.260308 0.216778
O O11 0.328869 0.330114 0.135361
O O12 0.776692 0.176035 0.500000
O O13 0.750000 0.250000 0.385831
O O14 0.832466 0.500000 0.827097
O O15 0.875777 0.627383 0.782900
O O16 0.788092 0.621470 0.886255
O O17 0.000000 0.000000 0.097459
O O18 0.000000 0.099584 0.000000
O O19 0.500000 0.836246 0.762665
O O20 0.750000 0.750000 0.076722
O O21 0.787137 0.857049 0.000000
#
# Coordination Sequence:
#
# PCOD9486017 Si02
#       8
#    16  16  16  16  16   8  16  16
#     4   9  18  32  51  79 111 143 187 233 273 323
#     4  10  21  34  53  79 109 145 179 225 280 330
#     4  11  20  35  56  84 108 140 187 227 265 332
#     4  10  19  31  52  79 106 143 187 229 276 330
#     4  10  22  38  56  83 114 143 182 233 285 336
#     4  11  24  40  56  78 116 152 176 221 282 330
#     4  11  20  34  59  85 108 148 189 229 278 329
#     4  10  20  35  59  85 108 141 183 226 272 325
#
# _framework density 16.685358999999998
#
# number of rings (size 3 to 8) (size 9 to 14) (size 15 to 20)
#    0.000    1.800    3.333    1.600    0.000    1.333 
#    0.000    0.000    0.000    1.200    0.000    4.667 
#    0.000    0.000    0.000    0.000    0.000    0.000 
#
# Total GULP energy -334136.030062 kJ/mol
# GULP energy per Si atom -5568.933834 kJ/mol
# Density = 1.664738 g / cm^3
# Si number density = 16.685359 Si / 1000 Ang^3
#
#
#
# Elastic Constant Matrix: (Units=GPa)
#
#
# Indices 1 2 3 4 5 6 
#
# 1 65.4117 39.3936 19.8651 0.0000 0.0000 0.0000
# 2 39.3936 106.8946 37.5029 0.0000 0.0000 0.0000
# 3 19.8651 37.5029 82.7403 0.0000 0.0000 0.0000
# 4 0.0000 0.0000 0.0000 6.1752 0.0000 0.0000
# 5 0.0000 0.0000 0.0000 0.0000 -355.2588 0.0000
# 6 0.0000 0.0000 0.0000 0.0000 0.0000 18.9782
#
#
#
# Elastic Compliance Matrix: (Units=1/GPa)
#
#
# Indices 1 2 3 4 5 6 
#
# 1 0.019853 -0.006711 -0.001725 0.000000 0.000000 0.000000
# 2 -0.006711 0.013393 -0.004459 0.000000 0.000000 0.000000
# 3 -0.001725 -0.004459 0.014521 0.000000 0.000000 0.000000
# 4 0.000000 0.000000 0.000000 0.161939 0.000000 0.000000
# 5 0.000000 0.000000 0.000000 0.000000 -0.002815 0.000000
# 6 0.000000 0.000000 0.000000 0.000000 0.000000 0.052692
#
#
# Mechanical properties :
#
#
# Convention : Reuss Voigt Hill
#
# Bulk Modulus (GPa) = 45.50170 49.84107 47.67139
# Shear Modulus (GPa) = 17.08238 -55.46874 -19.19318
#
# Velocity S-wave (km/s) = 3.20315 -5.77201 -3.39529
# Velocity P-wave (km/s) = 6.40389 3.80598 3.64173
#
# Compressibility (1/GPa) = 0.02197720
#
# Stress axis : x y z
#
# Youngs Moduli (GPa) = 50.36907 74.66701 68.86497
#
# Poissons Ratio (x) = 0.50113 0.11876
# Poissons Ratio (y) = 0.33805 0.30707
# Poissons Ratio (z) = 0.08686 0.33294
#
# Static dielectric constant tensor:
#      x y z
#    x 1.577810 0.000000 0.000000 
#    y 0.000000 1.540290 0.000000 
#    z 0.000000 0.000000 1.588460 
# 
# From -- ./inp_files/56123.got.cif
#   From: 2010.05.17/outbox.cif.g08.bks.cpg/sg65_29_cif.got.tgz:56123.got - 2010.06.03 17:01:31.
