data_PCOD9486824
_publ_section_title
;
Structure prediction by ZEFSAII (Michael W. Deem and Ramdas Pophale) SiO2 
 PCOD9486824
Probable space group: C M M M
;
_chemical_formula_sum "Si O2"
_cell_formula_units_Z 100
_cell_length_a 8.704231
_cell_length_b 27.186854
_cell_length_c 22.342125
_cell_angle_alpha 90.000000
_cell_angle_beta 90.000000
_cell_angle_gamma 90.000000
_cell_volume 5287.055147
_symmetry_space_group_name_H-M "C M M M"
_symmetry_group_IT_number 65
_symmetry_cell_setting 'orthorhombic'
loop_
_space_group_symop_operation_xyz
x,y,z
-x,-y,z
x,-y,-z
-x,y,-z
-x,-y,-z
x,y,-z
-x,y,z
x,-y,z
1/2+x,1/2+y,z
1/2-x,1/2-y,z
1/2+x,1/2-y,-z
1/2-x,1/2+y,-z
1/2-x,1/2-y,-z
1/2+x,1/2+y,-z
1/2-x,1/2+y,z
1/2+x,1/2-y,z
loop_
_atom_site_type_symbol
_atom_site_label
_atom_site_fract_x
_atom_site_fract_y
_atom_site_fract_z
Si Si1 0.818752 0.109534 0.180799
Si Si2 0.814605 0.302594 0.396993
Si Si3 0.814842 0.556655 0.931848
Si Si4 0.816396 0.302016 0.256975
Si Si5 0.819090 0.589343 0.415988
Si Si6 0.826277 0.057615 0.300272
Si Si7 0.725684 0.500000 0.500000
O O1 0.748832 0.092660 0.118344
O O2 0.745350 0.156474 0.212992
O O3 0.793624 0.067640 0.231093
O O4 0.000000 0.117085 0.173837
O O5 0.750000 0.250000 0.418763
O O6 0.767186 0.307745 0.326825
O O7 0.770505 0.354212 0.428634
O O8 0.000000 0.300351 0.399559
O O9 0.766459 0.500000 0.919923
O O10 0.000000 0.557594 0.929973
O O11 0.767822 0.568905 0.000000
O O12 0.750000 0.250000 0.236963
O O13 0.000000 0.301992 0.256638
O O14 0.792286 0.582166 0.345384
O O15 0.734050 0.544411 0.448890
O O16 0.000000 0.583771 0.430368
O O17 0.000000 0.076524 0.312840
O O18 0.824400 0.000000 0.311240
#
# Coordination Sequence:
#
# PCOD9486824 Si02
#       7
#    16  16  16  16  16  16   4
#     4  11  21  33  53  82 115 149 187 233 287 340
#     4   9  19  34  56  82 110 142 184 232 286 340
#     4   9  19  36  56  79 111 152 196 238 280 332
#     4  10  19  33  53  81 113 145 184 231 287 346
#     4  11  21  37  58  83 109 145 189 231 280 339
#     4  10  21  35  51  77 113 148 181 227 279 332
#     4  12  25  40  63  86 115 152 193 240 283 340
#
# _framework density 18.914121999999999
#
# number of rings (size 3 to 8) (size 9 to 14) (size 15 to 20)
#    0.000    1.920    2.400    2.640    0.000    3.200 
#    0.000    2.000    0.000    0.480    0.000    0.000 
#    0.000    0.000    0.000    0.000    0.000    0.000 
#
# Total GULP energy -278418.775019 kJ/mol
# GULP energy per Si atom -5568.375500 kJ/mol
# Density = 1.887107 g / cm^3
# Si number density = 18.914122 Si / 1000 Ang^3
#
#
#
# Elastic Constant Matrix: (Units=GPa)
#
#
# Indices 1 2 3 4 5 6 
#
# 1 20.9933 22.8848 27.1130 0.0000 0.0000 0.0000
# 2 22.8848 142.5524 42.5794 0.0000 0.0000 0.0000
# 3 27.1130 42.5794 92.1748 0.0000 0.0000 0.0000
# 4 0.0000 0.0000 0.0000 -70.9918 0.0000 0.0000
# 5 0.0000 0.0000 0.0000 0.0000 71.2805 0.0000
# 6 0.0000 0.0000 0.0000 0.0000 0.0000 21.1524
#
#
#
# Elastic Compliance Matrix: (Units=1/GPa)
#
#
# Indices 1 2 3 4 5 6 
#
# 1 0.082341 -0.006942 -0.021014 0.000000 0.000000 0.000000
# 2 -0.006942 0.008723 -0.001988 0.000000 0.000000 0.000000
# 3 -0.021014 -0.001988 0.017948 0.000000 0.000000 0.000000
# 4 0.000000 0.000000 0.000000 -0.014086 0.000000 0.000000
# 5 0.000000 0.000000 0.000000 0.000000 0.014029 0.000000
# 6 0.000000 0.000000 0.000000 0.000000 0.000000 0.047276
#
#
# Mechanical properties :
#
#
# Convention : Reuss Voigt Hill
#
# Bulk Modulus (GPa) = 20.35589 48.98609 34.67099
# Shear Modulus (GPa) = 21.50603 15.16443 18.33523
#
# Velocity S-wave (km/s) = 3.37565 2.83459 3.11689
# Velocity P-wave (km/s) = 5.09696 6.05547 5.59677
#
# Compressibility (1/GPa) = 0.04912583
#
# Stress axis : x y z
#
# Youngs Moduli (GPa) = 12.14462 114.63837 55.71590
#
# Poissons Ratio (x) = 0.79583 1.17079
# Poissons Ratio (y) = 0.08431 0.11074
# Poissons Ratio (z) = 0.25520 0.22785
#
# Static dielectric constant tensor:
#      x y z
#    x 1.679380 0.000000 0.000000 
#    y 0.000000 1.663920 0.000000 
#    z 0.000000 0.000000 1.650360 
# 
# From -- ./inp_files/60385.got.cif
#   From: 2010.05.17/outbox.cif.g08.bks.cpg/sg65_31_cif.got.tgz:60385.got - 2010.06.03 17:01:31.
