data_PCOD9486467
_publ_section_title
;
Structure prediction by ZEFSAII (Michael W. Deem and Ramdas Pophale) SiO2 
 PCOD9486467
Probable space group: C M M M
;
_chemical_formula_sum "Si O2"
_cell_formula_units_Z 64
_cell_length_a 8.848180
_cell_length_b 16.024530
_cell_length_c 22.739895
_cell_angle_alpha 90.000000
_cell_angle_beta 90.000000
_cell_angle_gamma 90.000000
_cell_volume 3224.242546
_symmetry_space_group_name_H-M "C M M M"
_symmetry_group_IT_number 65
_symmetry_cell_setting 'orthorhombic'
loop_
_space_group_symop_operation_xyz
x,y,z
-x,-y,z
x,-y,-z
-x,y,-z
-x,-y,-z
x,y,-z
-x,y,z
x,-y,z
1/2+x,1/2+y,z
1/2-x,1/2-y,z
1/2+x,1/2-y,-z
1/2-x,1/2+y,-z
1/2-x,1/2-y,-z
1/2+x,1/2+y,-z
1/2-x,1/2+y,z
1/2+x,1/2-y,z
loop_
_atom_site_type_symbol
_atom_site_label
_atom_site_fract_x
_atom_site_fract_y
_atom_site_fract_z
Si Si1 0.324237 0.903336 0.754936
Si Si2 0.817867 0.662670 0.369324
Si Si3 0.177654 0.000000 0.429635
Si Si4 0.319415 0.342740 0.127424
Si Si5 0.817670 0.156573 0.000000
O O1 0.500000 0.882947 0.766139
O O2 0.271571 0.850081 0.699180
O O3 0.236392 0.890033 0.815168
O O4 0.315315 0.000000 0.736900
O O5 0.750000 0.750000 0.390962
O O6 0.755321 0.583006 0.404092
O O7 0.000000 0.663451 0.371897
O O8 0.190216 0.000000 0.500000
O O9 0.000000 0.000000 0.413625
O O10 0.500000 0.337148 0.128894
O O11 0.250000 0.250000 0.130332
O O12 0.274126 0.380647 0.063514
O O13 0.750000 0.250000 0.000000
O O14 0.000000 0.161619 0.000000
#
# Coordination Sequence:
#
# PCOD9486467 Si02
#       5
#    16  16   8  16   8
#     4  10  21  38  57  82 116 152 195 249 303 357
#     4  11  23  42  67  96 129 169 211 257 310 366
#     4  11  25  45  69  99 133 168 209 256 303 359
#     4  10  19  32  52  78 106 144 190 241 299 360
#     4   8  16  30  47  70 103 139 185 239 293 355
#
# _framework density 19.849623999999999
#
# number of rings (size 3 to 8) (size 9 to 14) (size 15 to 20)
#    0.000    1.875    1.250    2.625    0.000    7.000 
#    0.000    0.625    0.000    3.750    0.000    0.000 
#    0.000    0.000    0.000    0.000    0.000    0.000 
#
# Total GULP energy -178611.279303 kJ/mol
# GULP energy per Si atom -5581.602478 kJ/mol
# Density = 1.980445 g / cm^3
# Si number density = 19.849624 Si / 1000 Ang^3
#
#
#
# Elastic Constant Matrix: (Units=GPa)
#
#
# Indices 1 2 3 4 5 6 
#
# 1 57.5727 37.0556 45.2362 0.0000 0.0000 0.0000
# 2 37.0556 101.1604 48.0344 0.0000 0.0000 0.0000
# 3 45.2362 48.0344 93.2148 0.0000 0.0000 0.0000
# 4 0.0000 0.0000 0.0000 19.2675 0.0000 0.0000
# 5 0.0000 0.0000 0.0000 0.0000 31.4915 0.0000
# 6 0.0000 0.0000 0.0000 0.0000 0.0000 29.1093
#
#
#
# Elastic Compliance Matrix: (Units=1/GPa)
#
#
# Indices 1 2 3 4 5 6 
#
# 1 0.030168 -0.005427 -0.011844 0.000000 0.000000 0.000000
# 2 -0.005427 0.014064 -0.004614 0.000000 0.000000 0.000000
# 3 -0.011844 -0.004614 0.018853 0.000000 0.000000 0.000000
# 4 0.000000 0.000000 0.000000 0.051901 0.000000 0.000000
# 5 0.000000 0.000000 0.000000 0.000000 0.031755 0.000000
# 6 0.000000 0.000000 0.000000 0.000000 0.000000 0.034353
#
#
# Mechanical properties :
#
#
# Convention : Reuss Voigt Hill
#
# Bulk Modulus (GPa) = 51.76933 56.95561 54.36247
# Shear Modulus (GPa) = 21.61680 24.08176 22.84928
#
# Velocity S-wave (km/s) = 3.30362 3.48690 3.39650
# Velocity P-wave (km/s) = 6.37882 6.70575 6.54432
#
# Compressibility (1/GPa) = 0.01931645
#
# Stress axis : x y z
#
# Youngs Moduli (GPa) = 33.14743 71.10396 53.04185
#
# Poissons Ratio (x) = 0.38588 0.62822
# Poissons Ratio (y) = 0.17989 0.24471
# Poissons Ratio (z) = 0.39259 0.32805
#
# Static dielectric constant tensor:
#      x y z
#    x 1.681720 0.000000 0.000000 
#    y 0.000000 1.705340 0.000000 
#    z 0.000000 0.000000 1.735570 
# 
# From -- ./inp_files/58815.got.cif
#   From: 2010.05.17/outbox.cif.g08.bks.cpg/sg65_30_cif.got.tgz:58815.got - 2010.06.03 17:01:31.
