data_PCOD9486693
_publ_section_title
;
Structure prediction by ZEFSAII (Michael W. Deem and Ramdas Pophale) SiO2 
 PCOD9486693
Probable space group: C M M M
;
_chemical_formula_sum "Si O2"
_cell_formula_units_Z 104
_cell_length_a 33.422295
_cell_length_b 18.762621
_cell_length_c 9.500823
_cell_angle_alpha 90.000000
_cell_angle_beta 90.000000
_cell_angle_gamma 90.000000
_cell_volume 5957.869708
_symmetry_space_group_name_H-M "C M M M"
_symmetry_group_IT_number 65
_symmetry_cell_setting 'orthorhombic'
loop_
_space_group_symop_operation_xyz
x,y,z
-x,-y,z
x,-y,-z
-x,y,-z
-x,-y,-z
x,y,-z
-x,y,z
x,-y,z
1/2+x,1/2+y,z
1/2-x,1/2-y,z
1/2+x,1/2-y,-z
1/2-x,1/2+y,-z
1/2-x,1/2-y,-z
1/2+x,1/2+y,-z
1/2-x,1/2+y,z
1/2+x,1/2-y,z
loop_
_atom_site_type_symbol
_atom_site_label
_atom_site_fract_x
_atom_site_fract_y
_atom_site_fract_z
Si Si1 0.182511 0.413077 0.661368
Si Si2 0.241306 0.913290 0.838604
Si Si3 0.500000 0.418567 0.671093
Si Si4 0.047246 0.681130 0.665171
Si Si5 0.104086 0.585665 0.163530
Si Si6 0.650365 0.415884 0.830801
Si Si7 0.080611 0.837452 0.668119
O O1 0.179651 0.389291 0.500000
O O2 0.183119 0.500000 0.660718
O O3 0.223370 0.389142 0.736497
O O4 0.143822 0.391872 0.751391
O O5 0.196110 0.894339 0.796034
O O6 0.242061 0.000000 0.840230
O O7 0.248525 0.890299 0.000000
O O8 0.500000 0.500000 0.718261
O O9 0.500000 0.417322 0.500000
O O10 0.540498 0.379255 0.714216
O O11 0.052022 0.662364 0.500000
O O12 0.066137 0.621237 0.762968
O O13 0.071066 0.754467 0.690557
O O14 0.000000 0.692496 0.689715
O O15 0.101446 0.500000 0.171413
O O16 0.107247 0.605675 0.000000
O O17 0.645099 0.500000 0.794899
O O18 0.618179 0.368393 0.750978
O O19 0.646192 0.410056 0.000000
O O20 0.085906 0.848514 0.500000
#
# Coordination Sequence:
#
# PCOD9486693 Si02
#       7
#    16  16   8  16  16  16  16
#     4   9  16  27  47  76 106 133 165 207 253 301
#     4   8  14  26  44  67 100 140 174 206 250 302
#     4   9  16  28  49  75 100 129 168 214 259 299
#     4  10  21  38  57  76 102 135 172 214 262 315
#     4  10  21  36  55  80 107 134 167 207 253 310
#     4   9  18  31  47  72 107 143 178 217 260 304
#     4  10  19  33  52  74 100 134 176 218 260 309
#
# _framework density 17.455904
#
# number of rings (size 3 to 8) (size 9 to 14) (size 15 to 20)
#    0.000    2.692    0.769    2.308    0.000    5.538 
#    0.000    3.462    0.000    2.308    0.000    6.462 
#    0.000    0.000    0.000    0.000    0.000    0.000 
#
# Total GULP energy -289916.454344 kJ/mol
# GULP energy per Si atom -5575.316430 kJ/mol
# Density = 1.741617 g / cm^3
# Si number density = 17.455904 Si / 1000 Ang^3
#
#
#
# Elastic Constant Matrix: (Units=GPa)
#
#
# Indices 1 2 3 4 5 6 
#
# 1 104.6275 33.3277 74.9241 0.0000 0.0000 0.0000
# 2 33.3277 22.2014 38.5383 0.0000 0.0000 0.0000
# 3 74.9241 38.5383 92.9243 0.0000 0.0000 0.0000
# 4 0.0000 0.0000 0.0000 17.5351 0.0000 0.0000
# 5 0.0000 0.0000 0.0000 0.0000 43.3155 0.0000
# 6 0.0000 0.0000 0.0000 0.0000 0.0000 -71.9685
#
#
#
# Elastic Compliance Matrix: (Units=1/GPa)
#
#
# Indices 1 2 3 4 5 6 
#
# 1 0.023042 -0.008354 -0.015114 0.000000 0.000000 0.000000
# 2 -0.008354 0.163839 -0.061213 0.000000 0.000000 0.000000
# 3 -0.015114 -0.061213 0.048334 0.000000 0.000000 0.000000
# 4 0.000000 0.000000 0.000000 0.057029 0.000000 0.000000
# 5 0.000000 0.000000 0.000000 0.000000 0.023086 0.000000
# 6 0.000000 0.000000 0.000000 0.000000 0.000000 -0.013895
#
#
# Mechanical properties :
#
#
# Convention : Reuss Voigt Hill
#
# Bulk Modulus (GPa) = 15.18515 57.03706 36.11111
# Shear Modulus (GPa) = 10.14717 2.64061 6.39389
#
# Velocity S-wave (km/s) = 2.41364 1.23127 1.91594
# Velocity P-wave (km/s) = 4.06024 5.89637 5.06225
#
# Compressibility (1/GPa) = 0.06585382
#
# Stress axis : x y z
#
# Youngs Moduli (GPa) = 43.39938 6.10354 20.68923
#
# Poissons Ratio (x) = 0.05099 0.31269
# Poissons Ratio (y) = 0.36256 1.26645
# Poissons Ratio (z) = 0.65593 0.37362
#
# Static dielectric constant tensor:
#      x y z
#    x 1.582390 0.000000 0.000000 
#    y 0.000000 1.587330 0.000000 
#    z 0.000000 0.000000 1.581200 
# 
# From -- ./inp_files/18660.got.cif
#   From: 2010.05.17/outbox.cif.g08.bks.cpg/sg65_10_cif.got.tgz:18660.got - 2010.06.03 17:01:31.
