data_PCOD9486748
_publ_section_title
;
Structure prediction by ZEFSAII (Michael W. Deem and Ramdas Pophale) SiO2 
 PCOD9486748
Probable space group: C M M M
;
_chemical_formula_sum "Si O2"
_cell_formula_units_Z 80
_cell_length_a 8.728329
_cell_length_b 18.758988
_cell_length_c 26.591308
_cell_angle_alpha 90.000000
_cell_angle_beta 90.000000
_cell_angle_gamma 90.000000
_cell_volume 4353.917683
_symmetry_space_group_name_H-M "C M M M"
_symmetry_group_IT_number 65
_symmetry_cell_setting 'orthorhombic'
loop_
_space_group_symop_operation_xyz
x,y,z
-x,-y,z
x,-y,-z
-x,y,-z
-x,-y,-z
x,y,-z
-x,y,z
x,-y,z
1/2+x,1/2+y,z
1/2-x,1/2-y,z
1/2+x,1/2-y,-z
1/2-x,1/2+y,-z
1/2-x,1/2-y,-z
1/2+x,1/2+y,-z
1/2-x,1/2+y,z
1/2+x,1/2-y,z
loop_
_atom_site_type_symbol
_atom_site_label
_atom_site_fract_x
_atom_site_fract_y
_atom_site_fract_z
Si Si1 0.185628 0.670478 0.500000
Si Si2 0.815608 0.329558 0.696034
Si Si3 0.323047 0.413275 0.000000
Si Si4 0.817925 0.170956 0.197619
Si Si5 0.679780 0.914396 0.105948
Si Si6 0.186637 0.581726 0.598129
O O1 0.250000 0.750000 0.500000
O O2 0.234739 0.627448 0.549760
O O3 0.000000 0.673669 0.500000
O O4 0.750000 0.250000 0.688390
O O5 0.752939 0.355760 0.749702
O O6 0.768382 0.379479 0.649729
O O7 0.000000 0.326068 0.697940
O O8 0.240806 0.390600 0.051331
O O9 0.319326 0.500000 0.000000
O O10 0.500000 0.391068 0.000000
O O11 0.750000 0.250000 0.189772
O O12 0.770062 0.122468 0.150962
O O13 0.000000 0.175404 0.202327
O O14 0.500000 0.898035 0.110467
O O15 0.698348 0.000000 0.108843
O O16 0.239147 0.500000 0.595521
O O17 0.000000 0.580481 0.597448
#
# Coordination Sequence:
#
# PCOD9486748 Si02
#       6
#     8  16   8  16  16  16
#     4  10  19  33  55  79 105 138 176 216 258 310
#     4  10  19  33  53  75 101 135 174 215 261 316
#     4   9  17  31  52  79 110 143 180 221 265 315
#     4  11  22  37  56  78 107 141 179 222 270 322
#     4  10  20  35  56  81 109 142 180 221 267 320
#     4   9  18  32  52  78 105 135 174 218 261 307
#
# _framework density 18.374257
#
# number of rings (size 3 to 8) (size 9 to 14) (size 15 to 20)
#    0.000    2.100    0.000    5.400    0.000    4.400 
#    0.000    3.500    0.000    5.400    0.000    0.000 
#    0.000    0.000    0.000    0.000    0.000    0.000 
#
# Total GULP energy -223337.522358 kJ/mol
# GULP energy per Si atom -5583.438059 kJ/mol
# Density = 1.833244 g / cm^3
# Si number density = 18.374257 Si / 1000 Ang^3
#
#
#
# Elastic Constant Matrix: (Units=GPa)
#
#
# Indices 1 2 3 4 5 6 
#
# 1 88.2789 31.8257 53.8469 0.0000 0.0000 0.0000
# 2 31.8257 74.6027 75.6376 0.0000 0.0000 0.0000
# 3 53.8469 75.6376 179.1308 0.0000 0.0000 0.0000
# 4 0.0000 0.0000 0.0000 26.9957 0.0000 0.0000
# 5 0.0000 0.0000 0.0000 0.0000 21.5894 0.0000
# 6 0.0000 0.0000 0.0000 0.0000 0.0000 26.4580
#
#
#
# Elastic Compliance Matrix: (Units=1/GPa)
#
#
# Indices 1 2 3 4 5 6 
#
# 1 0.014254 -0.003037 -0.003003 0.000000 0.000000 0.000000
# 2 -0.003037 0.024085 -0.009257 0.000000 0.000000 0.000000
# 3 -0.003003 -0.009257 0.010394 0.000000 0.000000 0.000000
# 4 0.000000 0.000000 0.000000 0.037043 0.000000 0.000000
# 5 0.000000 0.000000 0.000000 0.000000 0.046319 0.000000
# 6 0.000000 0.000000 0.000000 0.000000 0.000000 0.037796
#
#
# Mechanical properties :
#
#
# Convention : Reuss Voigt Hill
#
# Bulk Modulus (GPa) = 55.12509 73.84810 64.48660
# Shear Modulus (GPa) = 24.20952 27.05545 25.63249
#
# Velocity S-wave (km/s) = 3.63378 3.84143 3.73905
# Velocity P-wave (km/s) = 6.90451 7.74298 7.33574
#
# Compressibility (1/GPa) = 0.01814056
#
# Stress axis : x y z
#
# Youngs Moduli (GPa) = 70.15627 41.51898 96.21010
#
# Poissons Ratio (x) = 0.12607 0.28888
# Poissons Ratio (y) = 0.21303 0.89064
# Poissons Ratio (z) = 0.21065 0.38435
#
# Static dielectric constant tensor:
#      x y z
#    x 1.623560 0.000000 0.000000 
#    y 0.000000 1.608880 0.000000 
#    z 0.000000 0.000000 1.622480 
# 
# From -- ./inp_files/72902.got.cif
#   From: 2010.05.17/outbox.cif.g08.bks.cpg/sg65_37_cif.got.tgz:72902.got - 2010.06.03 17:01:31.
