data_PCOD9486197
_publ_section_title
;
Structure prediction by ZEFSAII (Michael W. Deem and Ramdas Pophale) SiO2 
 PCOD9486197
Probable space group: C M M M
;
_chemical_formula_sum "Si O2"
_cell_formula_units_Z 128
_cell_length_a 20.571308
_cell_length_b 20.894899
_cell_length_c 14.931115
_cell_angle_alpha 90.000000
_cell_angle_beta 90.000000
_cell_angle_gamma 90.000000
_cell_volume 6417.921833
_symmetry_space_group_name_H-M "C M M M"
_symmetry_group_IT_number 65
_symmetry_cell_setting 'orthorhombic'
loop_
_space_group_symop_operation_xyz
x,y,z
-x,-y,z
x,-y,-z
-x,y,-z
-x,-y,-z
x,y,-z
-x,y,z
x,-y,z
1/2+x,1/2+y,z
1/2-x,1/2-y,z
1/2+x,1/2-y,-z
1/2-x,1/2+y,-z
1/2-x,1/2-y,-z
1/2+x,1/2+y,-z
1/2-x,1/2+y,z
1/2+x,1/2-y,z
loop_
_atom_site_type_symbol
_atom_site_label
_atom_site_fract_x
_atom_site_fract_y
_atom_site_fract_z
Si Si1 0.810736 0.291694 0.106733
Si Si2 0.426550 0.168875 0.605185
Si Si3 0.074180 0.814723 0.641015
Si Si4 0.072997 0.197429 0.143291
Si Si5 0.833216 0.072494 0.346066
Si Si6 0.184988 0.425770 0.608243
Si Si7 0.640803 0.569484 0.133514
Si Si8 0.292998 0.930443 0.897172
O O1 0.750000 0.250000 0.143228
O O2 0.875949 0.252069 0.119841
O O3 0.815240 0.363548 0.144697
O O4 0.798732 0.299080 0.000000
O O5 0.431768 0.153270 0.500000
O O6 0.500000 0.162848 0.644159
O O7 0.406923 0.243321 0.611431
O O8 0.371256 0.121802 0.641478
O O9 0.073090 0.810646 0.749094
O O10 0.122464 0.871479 0.613315
O O11 0.000000 0.826985 0.610915
O O12 0.098993 0.130065 0.105900
O O13 0.000000 0.211483 0.113991
O O14 0.756866 0.087798 0.354155
O O15 0.852074 0.070162 0.241337
O O16 0.842780 0.000000 0.382416
O O17 0.190218 0.419567 0.500000
O O18 0.169084 0.500000 0.627404
O O19 0.614301 0.500000 0.107274
O O20 0.714688 0.574562 0.100070
O O21 0.308220 0.000000 0.854861
O O22 0.316804 0.932767 0.000000
#
# Coordination Sequence:
#
# PCOD9486197 Si02
#       8
#    16  16  16  16  16  16  16  16
#     4  10  19  32  50  73  99 127 163 203 239 284
#     4   9  18  33  51  70  94 125 160 198 243 293
#     4   9  19  34  49  69  97 127 161 199 237 284
#     4  10  20  33  49  71 100 130 160 198 245 290
#     4   9  18  31  47  69  96 126 160 196 235 279
#     4   9  18  32  49  71  98 124 154 198 245 287
#     4   9  17  30  48  71  97 125 160 194 233 288
#     4   9  17  30  49  70  94 125 159 198 240 279
#
# _framework density 19.94415
#
# number of rings (size 3 to 8) (size 9 to 14) (size 15 to 20)
#    0.000    2.750    1.250    0.000    0.000    3.000 
#    0.000    5.000    0.000    0.375    0.000    9.625 
#    0.000    0.000    0.000    0.000    0.000    0.000 
#
# Total GULP energy -356866.548009 kJ/mol
# GULP energy per Si atom -5576.039813 kJ/mol
# Density = 1.989876 g / cm^3
# Si number density = 19.944150 Si / 1000 Ang^3
#
#
#
# Elastic Constant Matrix: (Units=GPa)
#
#
# Indices 1 2 3 4 5 6 
#
# 1 120.3684 116.9143 -4.9409 0.0000 0.0000 0.0000
# 2 116.9143 198.9577 0.8496 0.0000 0.0000 0.0000
# 3 -4.9409 0.8496 39.3454 0.0000 0.0000 0.0000
# 4 0.0000 0.0000 0.0000 14.2848 0.0000 0.0000
# 5 0.0000 0.0000 0.0000 0.0000 11.5034 0.0000
# 6 0.0000 0.0000 0.0000 0.0000 0.0000 32.6986
#
#
#
# Elastic Compliance Matrix: (Units=1/GPa)
#
#
# Indices 1 2 3 4 5 6 
#
# 1 0.019641 -0.011553 0.002716 0.000000 0.000000 0.000000
# 2 -0.011553 0.011823 -0.001706 0.000000 0.000000 0.000000
# 3 0.002716 -0.001706 0.025794 0.000000 0.000000 0.000000
# 4 0.000000 0.000000 0.000000 0.070004 0.000000 0.000000
# 5 0.000000 0.000000 0.000000 0.000000 0.086931 0.000000
# 6 0.000000 0.000000 0.000000 0.000000 0.000000 0.030582
#
#
# Mechanical properties :
#
#
# Convention : Reuss Voigt Hill
#
# Bulk Modulus (GPa) = 27.64684 64.92417 46.28551
# Shear Modulus (GPa) = 17.99083 28.08726 23.03904
#
# Velocity S-wave (km/s) = 3.00669 3.75680 3.40248
# Velocity P-wave (km/s) = 5.09370 7.17229 6.22043
#
# Compressibility (1/GPa) = 0.03617050
#
# Stress axis : x y z
#
# Youngs Moduli (GPa) = 50.91331 84.58323 38.76894
#
# Poissons Ratio (x) = 0.97723 -0.10530
# Poissons Ratio (y) = 0.58822 0.06615
# Poissons Ratio (z) = -0.13828 0.14431
#
# Static dielectric constant tensor:
#      x y z
#    x 1.671630 0.000000 0.000000 
#    y 0.000000 1.727960 0.000000 
#    z 0.000000 0.000000 1.785870 
# 
# From -- ./inp_files/64111.got.cif
#   From: 2010.05.17/outbox.cif.g08.bks.cpg/sg65_33_cif.got.tgz:64111.got - 2010.06.03 17:01:31.
