data_PCOD9486415
_publ_section_title
;
Structure prediction by ZEFSAII (Michael W. Deem and Ramdas Pophale) SiO2 
 PCOD9486415
Probable space group: C M M M
;
_chemical_formula_sum "Si O2"
_cell_formula_units_Z 104
_cell_length_a 18.429472
_cell_length_b 28.857794
_cell_length_c 11.281150
_cell_angle_alpha 90.000000
_cell_angle_beta 90.000000
_cell_angle_gamma 90.000000
_cell_volume 5999.698074
_symmetry_space_group_name_H-M "C M M M"
_symmetry_group_IT_number 65
_symmetry_cell_setting 'orthorhombic'
loop_
_space_group_symop_operation_xyz
x,y,z
-x,-y,z
x,-y,-z
-x,y,-z
-x,-y,-z
x,y,-z
-x,y,z
x,-y,z
1/2+x,1/2+y,z
1/2-x,1/2-y,z
1/2+x,1/2-y,-z
1/2-x,1/2+y,-z
1/2-x,1/2-y,-z
1/2+x,1/2+y,-z
1/2-x,1/2+y,z
1/2+x,1/2-y,z
loop_
_atom_site_type_symbol
_atom_site_label
_atom_site_fract_x
_atom_site_fract_y
_atom_site_fract_z
Si Si1 0.631344 0.761137 0.500000
Si Si2 0.175147 0.892586 0.298298
Si Si3 0.583814 0.776574 0.238391
Si Si4 0.084059 0.626548 0.142069
Si Si5 0.585651 0.444620 0.500000
Si Si6 0.729437 0.672453 0.500000
Si Si7 0.086855 0.820739 0.139739
Si Si8 0.291276 0.054535 0.140976
O O1 0.588845 0.769689 0.378878
O O2 0.662812 0.709006 0.500000
O O3 0.698885 0.796564 0.500000
O O4 0.124058 0.922465 0.385180
O O5 0.222308 0.859721 0.384917
O O6 0.127263 0.859472 0.215214
O O7 0.226484 0.924525 0.218488
O O8 0.500000 0.778865 0.199305
O O9 0.614553 0.826144 0.199600
O O10 0.614661 0.730376 0.177871
O O11 0.135972 0.583511 0.169171
O O12 0.000000 0.618993 0.179266
O O13 0.083930 0.633015 0.000000
O O14 0.594619 0.500000 0.500000
O O15 0.500000 0.433889 0.500000
O O16 0.000000 0.822483 0.163551
O O17 0.097843 0.827285 0.000000
O O18 0.300529 0.000000 0.163324
O O19 0.276709 0.060631 0.000000
#
# Coordination Sequence:
#
# PCOD9486415 Si02
#       8
#     8  16  16  16   8   8  16  16
#     4  11  19  34  46  73 104 140 171 212 250 301
#     4  11  20  37  54  78 104 143 171 222 265 321
#     4  10  19  32  52  76 106 141 177 215 258 312
#     4   9  18  34  55  79 109 144 181 221 266 319
#     4  10  22  38  58  81 103 134 179 226 269 316
#     4  10  22  32  51  70 103 136 176 209 253 305
#     4  10  20  33  51  76 106 140 176 212 255 312
#     4  10  21  36  56  81 107 138 179 228 279 327
#
# _framework density 17.334205000000001
#
# number of rings (size 3 to 8) (size 9 to 14) (size 15 to 20)
#    0.000    1.923    1.538    3.000    0.000    2.154 
#    0.000    1.538    0.000    3.692    0.000    6.462 
#    0.000   10.462    0.000    0.000    0.000    0.000 
#
# Total GULP energy -290146.383956 kJ/mol
# GULP energy per Si atom -5579.738153 kJ/mol
# Density = 1.729475 g / cm^3
# Si number density = 17.334205 Si / 1000 Ang^3
#
#
#
# Elastic Constant Matrix: (Units=GPa)
#
#
# Indices 1 2 3 4 5 6 
#
# 1 68.7411 64.0817 42.1419 0.0000 0.0000 0.0000
# 2 64.0817 154.0162 67.9078 0.0000 0.0000 0.0000
# 3 42.1419 67.9078 85.6012 0.0000 0.0000 0.0000
# 4 0.0000 0.0000 0.0000 25.9001 0.0000 0.0000
# 5 0.0000 0.0000 0.0000 0.0000 21.4146 0.0000
# 6 0.0000 0.0000 0.0000 0.0000 0.0000 24.3208
#
#
#
# Elastic Compliance Matrix: (Units=1/GPa)
#
#
# Indices 1 2 3 4 5 6 
#
# 1 0.025898 -0.007926 -0.006462 0.000000 0.000000 0.000000
# 2 -0.007926 0.012411 -0.005944 0.000000 0.000000 0.000000
# 3 -0.006462 -0.005944 0.019579 0.000000 0.000000 0.000000
# 4 0.000000 0.000000 0.000000 0.038610 0.000000 0.000000
# 5 0.000000 0.000000 0.000000 0.000000 0.046697 0.000000
# 6 0.000000 0.000000 0.000000 0.000000 0.000000 0.041117
#
#
# Mechanical properties :
#
#
# Convention : Reuss Voigt Hill
#
# Bulk Modulus (GPa) = 58.05849 72.95793 65.50821
# Shear Modulus (GPa) = 21.67159 23.27556 22.47357
#
# Velocity S-wave (km/s) = 3.53968 3.66833 3.60458
# Velocity P-wave (km/s) = 7.09028 7.75388 7.42949
#
# Compressibility (1/GPa) = 0.01722401
#
# Stress axis : x y z
#
# Youngs Moduli (GPa) = 38.61356 80.57065 51.07643
#
# Poissons Ratio (x) = 0.63862 0.33004
# Poissons Ratio (y) = 0.30606 0.30359
# Poissons Ratio (z) = 0.24951 0.47891
#
# Static dielectric constant tensor:
#      x y z
#    x 1.583670 0.000000 0.000000 
#    y 0.000000 1.582650 0.000000 
#    z 0.000000 0.000000 1.562660 
# 
# From -- ./inp_files/27536.got.cif
#   From: 2010.05.17/outbox.cif.g08.bks.cpg/sg65_14_cif.got.tgz:27536.got - 2010.06.03 17:01:31.
