data_PCOD9486455
_publ_section_title
;
Structure prediction by ZEFSAII (Michael W. Deem and Ramdas Pophale) SiO2 
 PCOD9486455
Probable space group: C M M M
;
_chemical_formula_sum "Si O2"
_cell_formula_units_Z 88
_cell_length_a 22.609151
_cell_length_b 14.506956
_cell_length_c 14.021717
_cell_angle_alpha 90.000000
_cell_angle_beta 90.000000
_cell_angle_gamma 90.000000
_cell_volume 4598.982380
_symmetry_space_group_name_H-M "C M M M"
_symmetry_group_IT_number 65
_symmetry_cell_setting 'orthorhombic'
loop_
_space_group_symop_operation_xyz
x,y,z
-x,-y,z
x,-y,-z
-x,y,-z
-x,-y,-z
x,y,-z
-x,y,z
x,-y,z
1/2+x,1/2+y,z
1/2-x,1/2-y,z
1/2+x,1/2-y,-z
1/2-x,1/2+y,-z
1/2-x,1/2-y,-z
1/2+x,1/2+y,-z
1/2-x,1/2+y,z
1/2+x,1/2-y,z
loop_
_atom_site_type_symbol
_atom_site_label
_atom_site_fract_x
_atom_site_fract_y
_atom_site_fract_z
Si Si1 0.428338 0.894308 0.500000
Si Si2 0.216015 0.887540 0.106622
Si Si3 0.748020 0.860911 0.392904
Si Si4 0.134664 0.895363 0.285999
Si Si5 0.430370 0.788374 0.694214
Si Si6 0.831189 0.605395 0.789885
O O1 0.500000 0.898943 0.500000
O O2 0.412593 0.838115 0.594887
O O3 0.406696 0.000000 0.500000
O O4 0.168837 0.865639 0.188731
O O5 0.281699 0.856216 0.137636
O O6 0.219112 0.000000 0.107920
O O7 0.200704 0.858003 0.000000
O O8 0.731370 0.887883 0.500000
O O9 0.750000 0.750000 0.387978
O O10 0.813587 0.893575 0.365072
O O11 0.704162 0.894622 0.310888
O O12 0.086486 0.818914 0.309956
O O13 0.112752 0.000000 0.275602
O O14 0.500000 0.801685 0.709232
O O15 0.389691 0.835682 0.774282
O O16 0.845897 0.500000 0.814767
#
# Coordination Sequence:
#
# PCOD9486455 Si02
#       6
#     8  16  16  16  16  16
#     4   9  20  38  57  76 101 145 199 237 270 313
#     4   8  16  34  59  86 113 141 181 232 285 348
#     4  10  19  32  52  77 109 142 171 219 281 338
#     4  10  21  36  56  82 111 147 189 230 283 341
#     4  11  23  38  54  76 111 150 193 239 272 319
#     4  10  20  33  54  82 107 137 179 225 283 341
#
# _framework density 19.134668000000001
#
# number of rings (size 3 to 8) (size 9 to 14) (size 15 to 20)
#    0.000    2.273    1.818    2.182    2.545    2.909 
#    0.000    1.818    0.000    3.818    0.000    5.091 
#    0.000    0.000    0.000    0.000    0.000    0.000 
#
# Total GULP energy -245677.402919 kJ/mol
# GULP energy per Si atom -5583.577339 kJ/mol
# Density = 1.909112 g / cm^3
# Si number density = 19.134668 Si / 1000 Ang^3
#
#
#
# Elastic Constant Matrix: (Units=GPa)
#
#
# Indices 1 2 3 4 5 6 
#
# 1 54.2430 22.6696 7.1478 0.0000 0.0000 0.0000
# 2 22.6696 112.9086 15.4108 0.0000 0.0000 0.0000
# 3 7.1478 15.4108 75.1990 0.0000 0.0000 0.0000
# 4 0.0000 0.0000 0.0000 -6.0348 0.0000 0.0000
# 5 0.0000 0.0000 0.0000 0.0000 14.9296 0.0000
# 6 0.0000 0.0000 0.0000 0.0000 0.0000 27.9156
#
#
#
# Elastic Compliance Matrix: (Units=1/GPa)
#
#
# Indices 1 2 3 4 5 6 
#
# 1 0.020216 -0.003906 -0.001121 0.000000 0.000000 0.000000
# 2 -0.003906 0.009866 -0.001651 0.000000 0.000000 0.000000
# 3 -0.001121 -0.001651 0.013743 0.000000 0.000000 0.000000
# 4 0.000000 0.000000 0.000000 -0.165705 0.000000 0.000000
# 5 0.000000 0.000000 0.000000 0.000000 0.066981 0.000000
# 6 0.000000 0.000000 0.000000 0.000000 0.000000 0.035822
#
#
# Mechanical properties :
#
#
# Convention : Reuss Voigt Hill
#
# Bulk Modulus (GPa) = 32.81963 36.97856 34.89910
# Shear Modulus (GPa) = 1127.45957 20.50357 573.98157
#
# Velocity S-wave (km/s) = 24.30026 3.27699 17.33842
# Velocity P-wave (km/s) = 28.36417 5.80393 20.47207
#
# Compressibility (1/GPa) = 0.03046957
#
# Stress axis : x y z
#
# Youngs Moduli (GPa) = 49.46658 101.35581 72.76493
#
# Poissons Ratio (x) = 0.39588 0.08158
# Poissons Ratio (y) = 0.19321 0.12011
# Poissons Ratio (z) = 0.05546 0.16730
#
# Static dielectric constant tensor:
#      x y z
#    x 1.654350 0.000000 0.000000 
#    y 0.000000 1.709220 0.000000 
#    z 0.000000 0.000000 1.669190 
# 
# From -- ./inp_files/45591.got.cif
#   From: 2010.05.17/outbox.cif.g08.bks.cpg/sg65_23_cif.got.tgz:45591.got - 2010.06.03 17:01:31.
