data_PCOD9486332
_publ_section_title
;
Structure prediction by ZEFSAII (Michael W. Deem and Ramdas Pophale) SiO2 
 PCOD9486332
Probable space group: C M M M
;
_chemical_formula_sum "Si O2"
_cell_formula_units_Z 88
_cell_length_a 25.463922
_cell_length_b 8.525816
_cell_length_c 22.637421
_cell_angle_alpha 90.000000
_cell_angle_beta 90.000000
_cell_angle_gamma 90.000000
_cell_volume 4914.600253
_symmetry_space_group_name_H-M "C M M M"
_symmetry_group_IT_number 65
_symmetry_cell_setting 'orthorhombic'
loop_
_space_group_symop_operation_xyz
x,y,z
-x,-y,z
x,-y,-z
-x,y,-z
-x,-y,-z
x,y,-z
-x,y,z
x,-y,z
1/2+x,1/2+y,z
1/2-x,1/2-y,z
1/2+x,1/2-y,-z
1/2-x,1/2+y,-z
1/2-x,1/2-y,-z
1/2+x,1/2+y,-z
1/2-x,1/2+y,z
1/2+x,1/2-y,z
loop_
_atom_site_type_symbol
_atom_site_label
_atom_site_fract_x
_atom_site_fract_y
_atom_site_fract_z
Si Si1 0.500000 0.309597 0.746014
Si Si2 0.584728 0.688067 0.841678
Si Si3 0.110053 0.689480 0.565960
Si Si4 0.500000 0.311782 0.389669
Si Si5 0.000000 0.311786 0.068358
Si Si6 0.307483 0.812189 0.200321
Si Si7 0.192691 0.689333 0.336452
O O1 0.500000 0.500000 0.745123
O O2 0.448921 0.260480 0.783689
O O3 0.500000 0.255249 0.678700
O O4 0.585258 0.500000 0.842605
O O5 0.550884 0.748496 0.896872
O O6 0.643615 0.750823 0.837276
O O7 0.127054 0.736889 0.500000
O O8 0.109181 0.500000 0.567813
O O9 0.148972 0.745066 0.617569
O O10 0.052042 0.750771 0.578857
O O11 0.500000 0.500000 0.389833
O O12 0.000000 0.500000 0.071452
O O13 0.000000 0.263606 0.000000
O O14 0.250000 0.750000 0.182626
O O15 0.316679 0.759869 0.268649
O O16 0.306651 0.000000 0.198962
O O17 0.193029 0.500000 0.336823
O O18 0.250000 0.750000 0.353873
#
# Coordination Sequence:
#
# PCOD9486332 Si02
#       7
#     8  16  16   8   8  16  16
#     4   8  17  31  48  73 102 129 157 202 260 308
#     4  10  19  33  54  80 109 139 174 213 255 301
#     4  10  21  36  50  65  91 127 164 204 255 313
#     4  11  21  33  50  71  95 123 161 207 254 305
#     4  10  21  37  57  82 113 148 182 214 248 288
#     4  10  19  32  51  76 106 137 171 211 258 311
#     4   9  19  34  52  74  98 128 165 207 256 308
#
# _framework density 17.905832
#
# number of rings (size 3 to 8) (size 9 to 14) (size 15 to 20)
#    0.000    2.273    0.000    3.545    0.000    4.000 
#    0.000    4.545    0.000    0.545    0.000    0.000 
#    0.000    0.000    0.000    0.000    0.000    0.000 
#
# Total GULP energy -245596.347745 kJ/mol
# GULP energy per Si atom -5581.735176 kJ/mol
# Density = 1.786508 g / cm^3
# Si number density = 17.905832 Si / 1000 Ang^3
#
#
#
# Elastic Constant Matrix: (Units=GPa)
#
#
# Indices 1 2 3 4 5 6 
#
# 1 157.6225 29.4856 60.5297 0.0000 0.0000 0.0000
# 2 29.4856 28.8954 23.7596 0.0000 0.0000 0.0000
# 3 60.5297 23.7596 86.5026 0.0000 0.0000 0.0000
# 4 0.0000 0.0000 0.0000 20.6388 0.0000 0.0000
# 5 0.0000 0.0000 0.0000 0.0000 -50.4079 0.0000
# 6 0.0000 0.0000 0.0000 0.0000 0.0000 31.4336
#
#
#
# Elastic Compliance Matrix: (Units=1/GPa)
#
#
# Indices 1 2 3 4 5 6 
#
# 1 0.009270 -0.005329 -0.005023 0.000000 0.000000 0.000000
# 2 -0.005329 0.047768 -0.009391 0.000000 0.000000 0.000000
# 3 -0.005023 -0.009391 0.017655 0.000000 0.000000 0.000000
# 4 0.000000 0.000000 0.000000 0.048452 0.000000 0.000000
# 5 0.000000 0.000000 0.000000 0.000000 -0.019838 0.000000
# 6 0.000000 0.000000 0.000000 0.000000 0.000000 0.031813
#
#
# Mechanical properties :
#
#
# Convention : Reuss Voigt Hill
#
# Bulk Modulus (GPa) = 28.40455 55.61892 42.01174
# Shear Modulus (GPa) = 26.83246 10.94929 18.89087
#
# Velocity S-wave (km/s) = 3.87529 2.47552 3.25162
# Velocity P-wave (km/s) = 5.99346 6.26899 6.13277
#
# Compressibility (1/GPa) = 0.03520562
#
# Stress axis : x y z
#
# Youngs Moduli (GPa) = 107.87421 20.93465 56.64264
#
# Poissons Ratio (x) = 0.11157 0.28451
# Poissons Ratio (y) = 0.57489 0.53194
# Poissons Ratio (z) = 0.54184 0.19660
#
# Static dielectric constant tensor:
#      x y z
#    x 1.587120 0.000000 0.000000 
#    y 0.000000 1.602880 0.000000 
#    z 0.000000 0.000000 1.612830 
# 
# From -- ./inp_files/65217.got.cif
#   From: 2010.05.17/outbox.cif.g08.bks.cpg/sg65_33_cif.got.tgz:65217.got - 2010.06.03 17:01:31.
