data_PCOD9486751
_publ_section_title
;
Structure prediction by ZEFSAII (Michael W. Deem and Ramdas Pophale) SiO2 
 PCOD9486751
Probable space group: C M M M
;
_chemical_formula_sum "Si O2"
_cell_formula_units_Z 72
_cell_length_a 8.645963
_cell_length_b 18.921758
_cell_length_c 23.897194
_cell_angle_alpha 90.000000
_cell_angle_beta 90.000000
_cell_angle_gamma 90.000000
_cell_volume 3909.504935
_symmetry_space_group_name_H-M "C M M M"
_symmetry_group_IT_number 65
_symmetry_cell_setting 'orthorhombic'
loop_
_space_group_symop_operation_xyz
x,y,z
-x,-y,z
x,-y,-z
-x,y,-z
-x,-y,-z
x,y,-z
-x,y,z
x,-y,z
1/2+x,1/2+y,z
1/2-x,1/2-y,z
1/2+x,1/2-y,-z
1/2-x,1/2+y,-z
1/2-x,1/2-y,-z
1/2+x,1/2+y,-z
1/2-x,1/2+y,z
1/2+x,1/2-y,z
loop_
_atom_site_type_symbol
_atom_site_label
_atom_site_fract_x
_atom_site_fract_y
_atom_site_fract_z
Si Si1 0.315388 0.915874 0.937094
Si Si2 0.314234 0.170700 0.283549
Si Si3 0.688582 0.081277 0.608638
Si Si4 0.187310 0.670587 0.500000
Si Si5 0.183222 0.171518 0.835341
O O1 0.500000 0.903705 0.931978
O O2 0.229697 0.875865 0.887825
O O3 0.290262 0.000000 0.932950
O O4 0.268405 0.893535 0.000000
O O5 0.500000 0.173997 0.282616
O O6 0.250000 0.250000 0.292012
O O7 0.264491 0.120193 0.334224
O O8 0.255035 0.145078 0.223191
O O9 0.500000 0.080088 0.608105
O O10 0.736947 0.127379 0.555133
O O11 0.740746 0.000000 0.605541
O O12 0.250000 0.750000 0.500000
O O13 0.000000 0.673432 0.500000
O O14 0.250000 0.250000 0.844141
O O15 0.000000 0.175661 0.829271
#
# Coordination Sequence:
#
# PCOD9486751 Si02
#       5
#    16  16  16   8  16
#     4   9  19  37  59  81 107 140 176 215 263 319
#     4  10  19  33  53  75 102 136 174 216 262 314
#     4   9  18  32  52  78 104 134 174 216 257 305
#     4  10  19  33  55  79 105 136 172 214 258 308
#     4  11  22  36  55  79 108 141 179 222 266 313
#
# _framework density 18.416654999999999
#
# number of rings (size 3 to 8) (size 9 to 14) (size 15 to 20)
#    0.000    2.222    0.000    5.667    0.000    3.556 
#    0.000    4.444    0.000    6.000    0.000    0.000 
#    0.000    0.000    0.000    0.000    0.000    0.000 
#
# Total GULP energy -200981.579702 kJ/mol
# GULP energy per Si atom -5582.821658 kJ/mol
# Density = 1.837474 g / cm^3
# Si number density = 18.416655 Si / 1000 Ang^3
#
#
#
# Elastic Constant Matrix: (Units=GPa)
#
#
# Indices 1 2 3 4 5 6 
#
# 1 59.9015 34.8228 53.8757 0.0000 0.0000 0.0000
# 2 34.8228 100.1174 94.8610 0.0000 0.0000 0.0000
# 3 53.8757 94.8610 184.5185 0.0000 0.0000 0.0000
# 4 0.0000 0.0000 0.0000 43.4433 0.0000 0.0000
# 5 0.0000 0.0000 0.0000 0.0000 18.3937 0.0000
# 6 0.0000 0.0000 0.0000 0.0000 0.0000 27.4966
#
#
#
# Elastic Compliance Matrix: (Units=1/GPa)
#
#
# Indices 1 2 3 4 5 6 
#
# 1 0.023158 -0.003213 -0.005110 0.000000 0.000000 0.000000
# 2 -0.003213 0.019920 -0.009303 0.000000 0.000000 0.000000
# 3 -0.005110 -0.009303 0.011694 0.000000 0.000000 0.000000
# 4 0.000000 0.000000 0.000000 0.023019 0.000000 0.000000
# 5 0.000000 0.000000 0.000000 0.000000 0.054366 0.000000
# 6 0.000000 0.000000 0.000000 0.000000 0.000000 0.036368
#
#
# Mechanical properties :
#
#
# Convention : Reuss Voigt Hill
#
# Bulk Modulus (GPa) = 51.22828 79.07296 65.15062
# Shear Modulus (GPa) = 23.77744 28.59859 26.18801
#
# Velocity S-wave (km/s) = 3.59706 3.94492 3.77500
# Velocity P-wave (km/s) = 6.71777 7.98615 7.37926
#
# Compressibility (1/GPa) = 0.01952047
#
# Stress axis : x y z
#
# Youngs Moduli (GPa) = 43.18220 50.19996 85.51405
#
# Poissons Ratio (x) = 0.16131 0.43694
# Poissons Ratio (y) = 0.13876 0.79552
# Poissons Ratio (z) = 0.22064 0.46700
#
# Static dielectric constant tensor:
#      x y z
#    x 1.626790 0.000000 0.000000 
#    y 0.000000 1.604940 0.000000 
#    z 0.000000 0.000000 1.630080 
# 
# From -- ./inp_files/67108.got.cif
#   From: 2010.05.17/outbox.cif.g08.bks.cpg/sg65_34_cif.got.tgz:67108.got - 2010.06.03 17:01:31.
