data_PCOD9486007
_publ_section_title
;
Structure prediction by ZEFSAII (Michael W. Deem and Ramdas Pophale) SiO2 
 PCOD9486007
Probable space group: C M M M
;
_chemical_formula_sum "Si O2"
_cell_formula_units_Z 116
_cell_length_a 29.576492
_cell_length_b 24.738718
_cell_length_c 7.564561
_cell_angle_alpha 90.000000
_cell_angle_beta 90.000000
_cell_angle_gamma 90.000000
_cell_volume 5534.871995
_symmetry_space_group_name_H-M "C M M M"
_symmetry_group_IT_number 65
_symmetry_cell_setting 'orthorhombic'
loop_
_space_group_symop_operation_xyz
x,y,z
-x,-y,z
x,-y,-z
-x,y,-z
-x,-y,-z
x,y,-z
-x,y,z
x,-y,z
1/2+x,1/2+y,z
1/2-x,1/2-y,z
1/2+x,1/2-y,-z
1/2-x,1/2+y,-z
1/2-x,1/2-y,-z
1/2+x,1/2+y,-z
1/2-x,1/2+y,z
1/2+x,1/2-y,z
loop_
_atom_site_type_symbol
_atom_site_label
_atom_site_fract_x
_atom_site_fract_y
_atom_site_fract_z
Si Si1 0.666851 0.130796 0.793384
Si Si2 0.801817 0.746896 0.783235
Si Si3 0.050839 0.735863 0.287848
Si Si4 0.000000 0.576393 0.000000
Si Si5 0.754189 0.938397 0.288372
Si Si6 0.930079 0.388558 0.704623
Si Si7 0.623768 0.326620 0.209722
Si Si8 0.358042 0.439975 0.206297
O O1 0.674474 0.191529 0.723146
O O2 0.714377 0.100498 0.772379
O O3 0.623709 0.101266 0.710697
O O4 0.656420 0.135100 0.000000
O O5 0.750000 0.750000 0.727285
O O6 0.831172 0.797441 0.720902
O O7 0.802032 0.746162 0.000000
O O8 0.050386 0.736255 0.500000
O O9 0.064759 0.674868 0.237983
O O10 0.084043 0.783396 0.231875
O O11 0.000000 0.744925 0.221965
O O12 0.960441 0.579112 0.843295
O O13 0.756950 0.935610 0.500000
O O14 0.804358 0.927359 0.216751
O O15 0.742921 0.000000 0.236565
O O16 0.945099 0.393705 0.500000
O O17 0.617565 0.386999 0.282954
O O18 0.630415 0.333281 0.000000
O O19 0.364814 0.500000 0.285398
O O20 0.370483 0.444336 0.000000
#
# Coordination Sequence:
#
# PCOD9486007 Si02
#       8
#    16  16  16   4  16  16  16  16
#     4  11  20  33  54  80 112 148 184 228 282 337
#     4   9  17  28  45  72 107 144 180 217 269 338
#     4  10  21  35  51  74 108 143 179 230 283 330
#     4  12  22  36  60  82 111 154 191 232 284 350
#     4  10  21  36  54  77 108 147 190 235 279 325
#     4  11  22  36  55  83 116 149 188 237 281 338
#     4  10  19  31  52  77 105 140 181 227 278 337
#     4   9  18  34  55  79 105 139 186 236 281 330
#
# _framework density 20.958027999999999
#
# number of rings (size 3 to 8) (size 9 to 14) (size 15 to 20)
#    0.000    1.931    2.759    1.862    0.966    3.862 
#    0.000    0.000    0.000    2.483    0.000    3.862 
#    0.000    2.207    0.000    0.000    0.000    0.000 
#
# Total GULP energy -323302.232137 kJ/mol
# GULP energy per Si atom -5574.176416 kJ/mol
# Density = 2.091033 g / cm^3
# Si number density = 20.958028 Si / 1000 Ang^3
#
#
#
# Elastic Constant Matrix: (Units=GPa)
#
#
# Indices 1 2 3 4 5 6 
#
# 1 36.7396 -17.9588 -7.8673 0.0000 0.0000 0.0000
# 2 -17.9588 40.9823 -3.9868 0.0000 0.0000 0.0000
# 3 -7.8673 -3.9868 81.0234 0.0000 0.0000 0.0000
# 4 0.0000 0.0000 0.0000 8.3432 0.0000 0.0000
# 5 0.0000 0.0000 0.0000 0.0000 15.8353 0.0000
# 6 0.0000 0.0000 0.0000 0.0000 0.0000 -4.0147
#
#
#
# Elastic Compliance Matrix: (Units=1/GPa)
#
#
# Indices 1 2 3 4 5 6 
#
# 1 0.036070 0.016225 0.004301 0.000000 0.000000 0.000000
# 2 0.016225 0.031816 0.003141 0.000000 0.000000 0.000000
# 3 0.004301 0.003141 0.012914 0.000000 0.000000 0.000000
# 4 0.000000 0.000000 0.000000 0.119858 0.000000 0.000000
# 5 0.000000 0.000000 0.000000 0.000000 0.063150 0.000000
# 6 0.000000 0.000000 0.000000 0.000000 0.000000 -0.249082
#
#
# Mechanical properties :
#
#
# Convention : Reuss Voigt Hill
#
# Bulk Modulus (GPa) = 7.80436 11.01328 9.40882
# Shear Modulus (GPa) = 494.78818 16.60329 255.69573
#
# Velocity S-wave (km/s) = 15.38174 2.81769 11.05751
# Velocity P-wave (km/s) = 17.86605 3.98148 12.94310
#
# Compressibility (1/GPa) = 0.12813346
#
# Stress axis : x y z
#
# Youngs Moduli (GPa) = 27.72359 31.43064 77.43373
#
# Poissons Ratio (x) = -0.50995 -0.33302
# Poissons Ratio (y) = -0.44981 -0.24321
# Poissons Ratio (z) = -0.11923 -0.09872
#
# Static dielectric constant tensor:
#      x y z
#    x 1.738820 0.000000 0.000000 
#    y 0.000000 1.799500 0.000000 
#    z 0.000000 0.000000 1.808120 
# 
# From -- ./inp_files/18947.got.cif
#   From: 2010.05.17/outbox.cif.g08.bks.cpg/sg65_10_cif.got.tgz:18947.got - 2010.06.03 17:01:31.
