data_PCOD9486589
_publ_section_title
;
Structure prediction by ZEFSAII (Michael W. Deem and Ramdas Pophale) SiO2 
 PCOD9486589
Probable space group: C M M M
;
_chemical_formula_sum "Si O2"
_cell_formula_units_Z 72
_cell_length_a 20.382336
_cell_length_b 16.871566
_cell_length_c 12.375695
_cell_angle_alpha 90.000000
_cell_angle_beta 90.000000
_cell_angle_gamma 90.000000
_cell_volume 4255.777845
_symmetry_space_group_name_H-M "C M M M"
_symmetry_group_IT_number 65
_symmetry_cell_setting 'orthorhombic'
loop_
_space_group_symop_operation_xyz
x,y,z
-x,-y,z
x,-y,-z
-x,y,-z
-x,-y,-z
x,y,-z
-x,y,z
x,-y,z
1/2+x,1/2+y,z
1/2-x,1/2-y,z
1/2+x,1/2-y,-z
1/2-x,1/2+y,-z
1/2-x,1/2-y,-z
1/2+x,1/2+y,-z
1/2-x,1/2+y,z
1/2+x,1/2-y,z
loop_
_atom_site_type_symbol
_atom_site_label
_atom_site_fract_x
_atom_site_fract_y
_atom_site_fract_z
Si Si1 0.378718 0.412687 0.500000
Si Si2 0.174024 0.778106 0.122493
Si Si3 0.856947 0.659283 0.300289
Si Si4 0.211514 0.092274 0.287822
Si Si5 0.578161 0.000000 0.626941
Si Si6 0.574807 0.756929 0.500000
O O1 0.409806 0.500000 0.500000
O O2 0.332640 0.406606 0.394681
O O3 0.425547 0.337688 0.500000
O O4 0.250000 0.750000 0.116905
O O5 0.137321 0.709850 0.190573
O O6 0.176244 0.858458 0.192744
O O7 0.150224 0.788148 0.000000
O O8 0.780379 0.636038 0.312279
O O9 0.895677 0.577317 0.312156
O O10 0.885121 0.712633 0.396713
O O11 0.223748 0.000000 0.259090
O O12 0.500000 0.000000 0.624530
O O13 0.601244 0.000000 0.500000
O O14 0.500000 0.788492 0.500000
#
# Coordination Sequence:
#
# PCOD9486589 Si02
#       6
#     8  16  16  16   8   8
#     4  10  21  34  52  84 111 135 172 227 282 345
#     4   9  19  34  53  78 107 140 182 228 275 325
#     4  11  20  34  54  80 112 147 180 227 272 327
#     4  10  19  32  54  83 113 139 173 218 286 339
#     4  11  22  34  51  81 119 153 186 223 266 326
#     4  12  23  35  55  79 108 151 189 222 272 329
#
# _framework density 16.918175999999999
#
# number of rings (size 3 to 8) (size 9 to 14) (size 15 to 20)
#    0.000    1.667    4.444    1.333    0.000    1.556 
#    0.000    0.556    0.000    3.333    0.000    0.000 
#    0.000    3.556    0.000    0.000    0.000    0.000 
#
# Total GULP energy -200740.641054 kJ/mol
# GULP energy per Si atom -5576.128918 kJ/mol
# Density = 1.687967 g / cm^3
# Si number density = 16.918176 Si / 1000 Ang^3
#
#
#
# Elastic Constant Matrix: (Units=GPa)
#
#
# Indices 1 2 3 4 5 6 
#
# 1 46.4460 34.2137 34.2678 0.0000 0.0000 0.0000
# 2 34.2137 136.9801 67.3192 0.0000 0.0000 0.0000
# 3 34.2678 67.3192 147.3226 0.0000 0.0000 0.0000
# 4 0.0000 0.0000 0.0000 -6.5269 0.0000 0.0000
# 5 0.0000 0.0000 0.0000 0.0000 4.2368 0.0000
# 6 0.0000 0.0000 0.0000 0.0000 0.0000 9.3051
#
#
#
# Elastic Compliance Matrix: (Units=1/GPa)
#
#
# Indices 1 2 3 4 5 6 
#
# 1 0.028382 -0.004958 -0.004336 0.000000 0.000000 0.000000
# 2 -0.004958 0.010281 -0.003545 0.000000 0.000000 0.000000
# 3 -0.004336 -0.003545 0.009416 0.000000 0.000000 0.000000
# 4 0.000000 0.000000 0.000000 -0.153212 0.000000 0.000000
# 5 0.000000 0.000000 0.000000 0.000000 0.236028 0.000000
# 6 0.000000 0.000000 0.000000 0.000000 0.000000 0.107468
#
#
# Mechanical properties :
#
#
# Convention : Reuss Voigt Hill
#
# Bulk Modulus (GPa) = 44.64032 66.92779 55.78406
# Shear Modulus (GPa) = 18.41573 14.39952 16.40763
#
# Velocity S-wave (km/s) = 3.30285 2.92057 3.11758
# Velocity P-wave (km/s) = 6.40222 7.14273 6.78259
#
# Compressibility (1/GPa) = 0.02240127
#
# Stress axis : x y z
#
# Youngs Moduli (GPa) = 35.23388 97.27017 106.20102
#
# Poissons Ratio (x) = 0.48226 0.46051
# Poissons Ratio (y) = 0.17469 0.37643
# Poissons Ratio (z) = 0.15278 0.34478
#
# Static dielectric constant tensor:
#      x y z
#    x 1.541810 0.000000 0.000000 
#    y 0.000000 1.605710 0.000000 
#    z 0.000000 0.000000 1.558710 
# 
# From -- ./inp_files/28501.got.cif
#   From: 2010.05.17/outbox.cif.g08.bks.cpg/sg65_15_cif.got.tgz:28501.got - 2010.06.03 17:01:31.
