data_PCOD9486157
_publ_section_title
;
Structure prediction by ZEFSAII (Michael W. Deem and Ramdas Pophale) SiO2 
 PCOD9486157
Probable space group: C M M M
;
_chemical_formula_sum "Si O2"
_cell_formula_units_Z 80
_cell_length_a 18.294457
_cell_length_b 28.836234
_cell_length_c 7.732287
_cell_angle_alpha 90.000000
_cell_angle_beta 90.000000
_cell_angle_gamma 90.000000
_cell_volume 4079.115759
_symmetry_space_group_name_H-M "C M M M"
_symmetry_group_IT_number 65
_symmetry_cell_setting 'orthorhombic'
loop_
_space_group_symop_operation_xyz
x,y,z
-x,-y,z
x,-y,-z
-x,y,-z
-x,-y,-z
x,y,-z
-x,y,z
x,-y,z
1/2+x,1/2+y,z
1/2-x,1/2-y,z
1/2+x,1/2-y,-z
1/2-x,1/2+y,-z
1/2-x,1/2-y,-z
1/2+x,1/2+y,-z
1/2-x,1/2+y,z
1/2+x,1/2-y,z
loop_
_atom_site_type_symbol
_atom_site_label
_atom_site_fract_x
_atom_site_fract_y
_atom_site_fract_z
Si Si1 0.688978 0.358802 0.300767
Si Si2 0.332904 0.805632 0.202290
Si Si3 0.772401 0.447775 0.711643
Si Si4 0.918002 0.782354 0.796761
Si Si5 0.082041 0.604230 0.709740
O O1 0.669903 0.365963 0.500000
O O2 0.760483 0.325851 0.289667
O O3 0.716276 0.408092 0.227484
O O4 0.622294 0.331361 0.218279
O O5 0.365804 0.758116 0.275735
O O6 0.394059 0.845493 0.221392
O O7 0.313795 0.799554 0.000000
O O8 0.770837 0.447025 0.500000
O O9 0.757185 0.500000 0.768117
O O10 0.853887 0.431140 0.762145
O O11 0.000000 0.782197 0.723851
O O12 0.923844 0.771241 0.000000
O O13 0.083298 0.606606 0.500000
O O14 0.000000 0.591913 0.763735
#
# Coordination Sequence:
#
# PCOD9486157 Si02
#       5
#    16  16  16  16  16
#     4  10  20  33  51  75  98 122 157 199 240 279
#     4  10  19  32  50  70  96 133 168 191 222 275
#     4   8  15  29  48  69  93 122 157 197 240 285
#     4  10  21  35  50  70  97 129 162 193 230 281
#     4   9  17  28  44  70 101 129 160 199 237 271
#
# _framework density 19.612093000000002
#
# number of rings (size 3 to 8) (size 9 to 14) (size 15 to 20)
#    0.000    2.600    0.000    3.600    0.000    6.000 
#    0.000    2.000    0.000   15.600    0.000    9.800 
#    0.000    0.000    0.000    0.000    0.000    0.000 
#
# Total GULP energy -223148.950019 kJ/mol
# GULP energy per Si atom -5578.723750 kJ/mol
# Density = 1.956745 g / cm^3
# Si number density = 19.612093 Si / 1000 Ang^3
#
#
#
# Elastic Constant Matrix: (Units=GPa)
#
#
# Indices 1 2 3 4 5 6 
#
# 1 36.7114 43.0495 -10.3868 0.0000 0.0000 0.0000
# 2 43.0495 139.3027 -6.1475 0.0000 0.0000 0.0000
# 3 -10.3868 -6.1475 27.6700 0.0000 0.0000 0.0000
# 4 0.0000 0.0000 0.0000 21.9843 0.0000 0.0000
# 5 0.0000 0.0000 0.0000 0.0000 19.0237 0.0000
# 6 0.0000 0.0000 0.0000 0.0000 0.0000 6.6334
#
#
#
# Elastic Compliance Matrix: (Units=1/GPa)
#
#
# Indices 1 2 3 4 5 6 
#
# 1 0.048126 -0.014215 0.014907 0.000000 0.000000 0.000000
# 2 -0.014215 0.011448 -0.002792 0.000000 0.000000 0.000000
# 3 0.014907 -0.002792 0.041116 0.000000 0.000000 0.000000
# 4 0.000000 0.000000 0.000000 0.045487 0.000000 0.000000
# 5 0.000000 0.000000 0.000000 0.000000 0.052566 0.000000
# 6 0.000000 0.000000 0.000000 0.000000 0.000000 0.150753
#
#
# Mechanical properties :
#
#
# Convention : Reuss Voigt Hill
#
# Bulk Modulus (GPa) = 10.36371 28.52383 19.44377
# Shear Modulus (GPa) = 12.95808 21.33955 17.14882
#
# Velocity S-wave (km/s) = 2.57323 3.30219 2.96023
# Velocity P-wave (km/s) = 3.75826 5.39581 4.64970
#
# Compressibility (1/GPa) = 0.09649057
#
# Stress axis : x y z
#
# Youngs Moduli (GPa) = 20.77873 87.34959 24.32155
#
# Poissons Ratio (x) = 1.24166 -0.36257
# Poissons Ratio (y) = 0.29537 0.06792
# Poissons Ratio (z) = -0.30976 0.24392
#
# Static dielectric constant tensor:
#      x y z
#    x 1.682830 0.000000 0.000000 
#    y 0.000000 1.691590 0.000000 
#    z 0.000000 0.000000 1.713200 
# 
# From -- ./inp_files/9568.got.cif
#   From: 2010.05.17/outbox.cif.g08.bks.cpg/sg65_5_cif.got.tgz:9568.got - 2010.06.03 17:01:31.
