data_PCOD9486661
_publ_section_title
;
Structure prediction by ZEFSAII (Michael W. Deem and Ramdas Pophale) SiO2 
 PCOD9486661
Probable space group: C M M M
;
_chemical_formula_sum "Si O2"
_cell_formula_units_Z 64
_cell_length_a 8.683800
_cell_length_b 29.036031
_cell_length_c 16.080331
_cell_angle_alpha 90.000000
_cell_angle_beta 90.000000
_cell_angle_gamma 90.000000
_cell_volume 4054.544282
_symmetry_space_group_name_H-M "C M M M"
_symmetry_group_IT_number 65
_symmetry_cell_setting 'orthorhombic'
loop_
_space_group_symop_operation_xyz
x,y,z
-x,-y,z
x,-y,-z
-x,y,-z
-x,-y,-z
x,y,-z
-x,y,z
x,-y,z
1/2+x,1/2+y,z
1/2-x,1/2-y,z
1/2+x,1/2-y,-z
1/2-x,1/2+y,-z
1/2-x,1/2-y,-z
1/2+x,1/2+y,-z
1/2-x,1/2+y,z
1/2+x,1/2-y,z
loop_
_atom_site_type_symbol
_atom_site_label
_atom_site_fract_x
_atom_site_fract_y
_atom_site_fract_z
Si Si1 0.815053 0.698383 0.500000
Si Si2 0.185600 0.302145 0.682658
Si Si3 0.815207 0.447370 0.901672
Si Si4 0.315809 0.198462 0.000000
Si Si5 0.317091 0.645146 0.159607
O O1 0.750000 0.750000 0.500000
O O2 0.770175 0.679061 0.590402
O O3 0.000000 0.700421 0.500000
O O4 0.250000 0.250000 0.690117
O O5 0.253020 0.332768 0.756097
O O6 0.000000 0.300557 0.688786
O O7 0.775260 0.500000 0.879339
O O8 0.730741 0.408021 0.850639
O O9 0.000000 0.442135 0.892858
O O10 0.780278 0.441270 0.000000
O O11 0.250000 0.250000 0.000000
O O12 0.257087 0.171993 0.081626
O O13 0.500000 0.199433 0.000000
O O14 0.500000 0.650265 0.156004
#
# Coordination Sequence:
#
# PCOD9486661 Si02
#       5
#     8  16  16   8  16
#     4   8  16  30  50  72  95 126 165 206 248 289
#     4  10  19  33  51  73 101 133 168 207 247 292
#     4   9  18  34  55  75  96 126 164 206 251 293
#     4  12  24  38  51  66  95 134 172 207 243 285
#     4  12  23  34  49  74 102 132 167 202 244 295
#
# _framework density 15.784758
#
# number of rings (size 3 to 8) (size 9 to 14) (size 15 to 20)
#    0.000    1.750    1.250    5.625    0.000    1.500 
#    0.000    1.250    0.000    0.000    0.000    0.875 
#    0.000    7.000    0.000    0.000    0.000    0.000 
#
# Total GULP energy -178566.051584 kJ/mol
# GULP energy per Si atom -5580.189112 kJ/mol
# Density = 1.574883 g / cm^3
# Si number density = 15.784758 Si / 1000 Ang^3
#
#
#
# Elastic Constant Matrix: (Units=GPa)
#
#
# Indices 1 2 3 4 5 6 
#
# 1 95.8906 51.3245 61.0180 0.0000 0.0000 0.0000
# 2 51.3245 99.3448 69.5592 0.0000 0.0000 0.0000
# 3 61.0180 69.5592 155.3868 0.0000 0.0000 0.0000
# 4 0.0000 0.0000 0.0000 2.2707 0.0000 0.0000
# 5 0.0000 0.0000 0.0000 0.0000 13.0405 0.0000
# 6 0.0000 0.0000 0.0000 0.0000 0.0000 27.4166
#
#
#
# Elastic Compliance Matrix: (Units=1/GPa)
#
#
# Indices 1 2 3 4 5 6 
#
# 1 0.015753 -0.005545 -0.003704 0.000000 0.000000 0.000000
# 2 -0.005545 0.016613 -0.005259 0.000000 0.000000 0.000000
# 3 -0.003704 -0.005259 0.010244 0.000000 0.000000 0.000000
# 4 0.000000 0.000000 0.000000 0.440387 0.000000 0.000000
# 5 0.000000 0.000000 0.000000 0.000000 0.076684 0.000000
# 6 0.000000 0.000000 0.000000 0.000000 0.000000 0.036474
#
#
# Mechanical properties :
#
#
# Convention : Reuss Voigt Hill
#
# Bulk Modulus (GPa) = 73.56148 79.38061 76.47105
# Shear Modulus (GPa) = 7.94022 19.79360 13.86691
#
# Velocity S-wave (km/s) = 2.24527 3.54498 2.96717
# Velocity P-wave (km/s) = 7.30929 8.19478 7.76467
#
# Compressibility (1/GPa) = 0.01359407
#
# Stress axis : x y z
#
# Youngs Moduli (GPa) = 63.47802 60.19221 97.61500
#
# Poissons Ratio (x) = 0.33379 0.36154
# Poissons Ratio (y) = 0.35202 0.51340
# Poissons Ratio (z) = 0.23510 0.31658
#
# Static dielectric constant tensor:
#      x y z
#    x 1.526820 0.000000 0.000000 
#    y 0.000000 1.507070 0.000000 
#    z 0.000000 0.000000 1.538210 
# 
# From -- ./inp_files/36336.got.cif
#   From: 2010.05.17/outbox.cif.g08.bks.cpg/sg65_19_cif.got.tgz:36336.got - 2010.06.03 17:01:31.
