data_PCOD9486972
_publ_section_title
;
Structure prediction by ZEFSAII (Michael W. Deem and Ramdas Pophale) SiO2 
 PCOD9486972
Probable space group: C M M M
;
_chemical_formula_sum "Si O2"
_cell_formula_units_Z 64
_cell_length_a 19.955174
_cell_length_b 7.307397
_cell_length_c 18.052047
_cell_angle_alpha 90.000000
_cell_angle_beta 90.000000
_cell_angle_gamma 90.000000
_cell_volume 2632.356328
_symmetry_space_group_name_H-M "C M M M"
_symmetry_group_IT_number 65
_symmetry_cell_setting 'orthorhombic'
loop_
_space_group_symop_operation_xyz
x,y,z
-x,-y,z
x,-y,-z
-x,y,-z
-x,-y,-z
x,y,-z
-x,y,z
x,-y,z
1/2+x,1/2+y,z
1/2-x,1/2-y,z
1/2+x,1/2-y,-z
1/2-x,1/2+y,-z
1/2-x,1/2-y,-z
1/2+x,1/2+y,-z
1/2-x,1/2+y,z
1/2+x,1/2-y,z
loop_
_atom_site_type_symbol
_atom_site_label
_atom_site_fract_x
_atom_site_fract_y
_atom_site_fract_z
Si Si1 0.147699 0.775616 0.083141
Si Si2 0.678581 0.282419 0.240771
Si Si3 0.169713 0.781750 0.500000
Si Si4 0.422357 0.276388 0.637535
Si Si5 0.500000 0.700978 0.911475
O O1 0.183782 0.710043 0.156895
O O2 0.071673 0.714727 0.100776
O O3 0.147980 0.000000 0.080098
O O4 0.167772 0.715651 0.000000
O O5 0.670404 0.500000 0.234873
O O6 0.750000 0.250000 0.279603
O O7 0.615142 0.216642 0.287369
O O8 0.250000 0.750000 0.500000
O O9 0.127387 0.717596 0.428546
O O10 0.163413 0.000000 0.500000
O O11 0.500000 0.218470 0.630645
O O12 0.423571 0.500000 0.637132
O O13 0.500000 0.500000 0.874360
O O14 0.500000 0.676885 0.000000
#
# Coordination Sequence:
#
# PCOD9486972 Si02
#       5
#    16  16   8  16   8
#     4   8  14  24  40  64  92 121 155 198 246 288
#     4  10  20  32  48  70  98 129 161 200 244 292
#     4  10  19  33  55  79 105 134 160 194 240 290
#     4   9  18  32  52  77 100 126 165 207 241 277
#     4   7  10  18  34  58  85 108 138 188 239 273
#
# _framework density 24.312816999999999
#
# number of rings (size 3 to 8) (size 9 to 14) (size 15 to 20)
#    0.000    3.125    0.000    2.625    1.750    2.000 
#    0.000    0.000    0.000    3.750    0.000    0.000 
#    0.000    3.000    0.000    0.000    0.000    0.000 
#
# Total GULP energy -178379.027773 kJ/mol
# GULP energy per Si atom -5574.344618 kJ/mol
# Density = 2.425748 g / cm^3
# Si number density = 24.312817 Si / 1000 Ang^3
#
#
#
# Elastic Constant Matrix: (Units=GPa)
#
#
# Indices 1 2 3 4 5 6 
#
# 1 229.1564 -6.4564 91.6479 0.0000 0.0000 0.0000
# 2 -6.4564 101.9430 7.7484 0.0000 0.0000 0.0000
# 3 91.6479 7.7484 164.0972 0.0000 0.0000 0.0000
# 4 0.0000 0.0000 0.0000 40.4944 0.0000 0.0000
# 5 0.0000 0.0000 0.0000 0.0000 30.6999 0.0000
# 6 0.0000 0.0000 0.0000 0.0000 0.0000 15.2677
#
#
#
# Elastic Compliance Matrix: (Units=1/GPa)
#
#
# Indices 1 2 3 4 5 6 
#
# 1 0.005655 0.000600 -0.003187 0.000000 0.000000 0.000000
# 2 0.000600 0.009908 -0.000803 0.000000 0.000000 0.000000
# 3 -0.003187 -0.000803 0.007912 0.000000 0.000000 0.000000
# 4 0.000000 0.000000 0.000000 0.024695 0.000000 0.000000
# 5 0.000000 0.000000 0.000000 0.000000 0.032573 0.000000
# 6 0.000000 0.000000 0.000000 0.000000 0.000000 0.065498
#
#
# Mechanical properties :
#
#
# Convention : Reuss Voigt Hill
#
# Bulk Modulus (GPa) = 59.89370 75.67517 67.78443
# Shear Modulus (GPa) = 31.52860 44.10951 37.81906
#
# Velocity S-wave (km/s) = 3.60500 4.26402 3.94829
# Velocity P-wave (km/s) = 6.48199 7.44552 6.98040
#
# Compressibility (1/GPa) = 0.01669625
#
# Stress axis : x y z
#
# Youngs Moduli (GPa) = 176.82644 100.92373 126.39517
#
# Poissons Ratio (x) = -0.06059 0.40280
# Poissons Ratio (y) = -0.10616 0.10152
# Poissons Ratio (z) = 0.56351 0.08106
#
# Static dielectric constant tensor:
#      x y z
#    x 2.099900 0.000000 0.000000 
#    y 0.000000 2.005280 0.000000 
#    z 0.000000 0.000000 1.940140 
# 
# From -- ./inp_files/54043.got.cif
#   From: 2010.05.17/outbox.cif.g08.bks.cpg/sg65_28_cif.got.tgz:54043.got - 2010.06.03 17:01:31.
