data_PCOD9486555
_publ_section_title
;
Structure prediction by ZEFSAII (Michael W. Deem and Ramdas Pophale) SiO2 
 PCOD9486555
Probable space group: C M M M
;
_chemical_formula_sum "Si O2"
_cell_formula_units_Z 104
_cell_length_a 18.319881
_cell_length_b 16.133716
_cell_length_c 17.947552
_cell_angle_alpha 90.000000
_cell_angle_beta 90.000000
_cell_angle_gamma 90.000000
_cell_volume 5304.717692
_symmetry_space_group_name_H-M "C M M M"
_symmetry_group_IT_number 65
_symmetry_cell_setting 'orthorhombic'
loop_
_space_group_symop_operation_xyz
x,y,z
-x,-y,z
x,-y,-z
-x,y,-z
-x,-y,-z
x,y,-z
-x,y,z
x,-y,z
1/2+x,1/2+y,z
1/2-x,1/2-y,z
1/2+x,1/2-y,-z
1/2-x,1/2+y,-z
1/2-x,1/2-y,-z
1/2+x,1/2+y,-z
1/2-x,1/2+y,z
1/2+x,1/2-y,z
loop_
_atom_site_type_symbol
_atom_site_label
_atom_site_fract_x
_atom_site_fract_y
_atom_site_fract_z
Si Si1 0.413149 0.345289 0.175726
Si Si2 0.588202 0.591770 0.341514
Si Si3 0.713635 0.596496 0.913998
Si Si4 0.910852 0.737706 0.584939
Si Si5 0.149078 0.337108 0.845236
Si Si6 0.412326 0.092682 0.697643
Si Si7 0.586972 0.095708 0.000000
O O1 0.500000 0.342638 0.164783
O O2 0.398136 0.389524 0.254552
O O3 0.369331 0.391539 0.111168
O O4 0.381011 0.252672 0.176749
O O5 0.500000 0.589949 0.350268
O O6 0.615840 0.500000 0.361957
O O7 0.614185 0.671495 0.387739
O O8 0.733988 0.500000 0.906530
O O9 0.765338 0.650785 0.861013
O O10 0.723304 0.621345 0.000000
O O11 0.888611 0.722009 0.500000
O O12 0.888055 0.665191 0.641537
O O13 0.000000 0.738361 0.586703
O O14 0.124028 0.395650 0.777998
O O15 0.114352 0.362034 0.924560
O O16 0.500000 0.100959 0.707447
O O17 0.397875 0.000000 0.668713
O O18 0.500000 0.097449 0.000000
O O19 0.611499 0.000000 0.000000
#
# Coordination Sequence:
#
# PCOD9486555 Si02
#       7
#    16  16  16  16  16  16   8
#     4  11  23  39  61  88 118 155 204 254 305 365
#     4   9  17  32  54  80 112 151 195 246 300 354
#     4  11  25  43  60  83 119 160 202 252 310 369
#     4   9  17  30  49  80 120 156 195 247 304 361
#     4  12  22  38  60  83 117 157 200 252 310 359
#     4  10  19  32  53  82 117 161 208 251 301 364
#     4  11  22  34  53  82 114 154 201 251 306 358
#
# _framework density 19.60519
#
# number of rings (size 3 to 8) (size 9 to 14) (size 15 to 20)
#    0.000    1.615    2.308    3.692    1.077    3.692 
#    0.000    3.846    0.000    0.000    0.000    2.154 
#    0.000    3.692    0.000    0.154    0.000    0.000 
#
# Total GULP energy -290346.673801 kJ/mol
# GULP energy per Si atom -5583.589881 kJ/mol
# Density = 1.956057 g / cm^3
# Si number density = 19.605190 Si / 1000 Ang^3
#
#
#
# Elastic Constant Matrix: (Units=GPa)
#
#
# Indices 1 2 3 4 5 6 
#
# 1 53.6907 18.5306 22.1080 0.0000 0.0000 0.0000
# 2 18.5306 117.3623 57.8301 0.0000 0.0000 0.0000
# 3 22.1080 57.8301 111.2651 0.0000 0.0000 0.0000
# 4 0.0000 0.0000 0.0000 268.2999 0.0000 0.0000
# 5 0.0000 0.0000 0.0000 0.0000 4.9920 0.0000
# 6 0.0000 0.0000 0.0000 0.0000 0.0000 15.2158
#
#
#
# Elastic Compliance Matrix: (Units=1/GPa)
#
#
# Indices 1 2 3 4 5 6 
#
# 1 0.020521 -0.001655 -0.003217 0.000000 0.000000 0.000000
# 2 -0.001655 0.011588 -0.005694 0.000000 0.000000 0.000000
# 3 -0.003217 -0.005694 0.012586 0.000000 0.000000 0.000000
# 4 0.000000 0.000000 0.000000 0.003727 0.000000 0.000000
# 5 0.000000 0.000000 0.000000 0.000000 0.200319 0.000000
# 6 0.000000 0.000000 0.000000 0.000000 0.000000 0.065721
#
#
# Mechanical properties :
#
#
# Convention : Reuss Voigt Hill
#
# Bulk Modulus (GPa) = 42.43967 53.25062 47.84515
# Shear Modulus (GPa) = 14.55821 69.95815 42.25818
#
# Velocity S-wave (km/s) = 2.72797 5.98005 4.64773
# Velocity P-wave (km/s) = 5.62286 8.65458 7.29789
#
# Compressibility (1/GPa) = 0.02356286
#
# Stress axis : x y z
#
# Youngs Moduli (GPa) = 48.73021 86.29971 79.45200
#
# Poissons Ratio (x) = 0.14280 0.25563
# Poissons Ratio (y) = 0.08064 0.45239
# Poissons Ratio (z) = 0.15679 0.49138
#
# Static dielectric constant tensor:
#      x y z
#    x 1.698080 0.000000 0.000000 
#    y 0.000000 1.731220 0.000000 
#    z 0.000000 0.000000 1.655160 
# 
# From -- ./inp_files/55867.got.cif
#   From: 2010.05.17/outbox.cif.g08.bks.cpg/sg65_28_cif.got.tgz:55867.got - 2010.06.03 17:01:31.
