data_PCOD9486171
_publ_section_title
;
Structure prediction by ZEFSAII (Michael W. Deem and Ramdas Pophale) SiO2 
 PCOD9486171
Probable space group: C M M M
;
_chemical_formula_sum "Si O2"
_cell_formula_units_Z 72
_cell_length_a 14.590453
_cell_length_b 10.324211
_cell_length_c 22.592118
_cell_angle_alpha 90.000000
_cell_angle_beta 90.000000
_cell_angle_gamma 90.000000
_cell_volume 3403.161783
_symmetry_space_group_name_H-M "C M M M"
_symmetry_group_IT_number 65
_symmetry_cell_setting 'orthorhombic'
loop_
_space_group_symop_operation_xyz
x,y,z
-x,-y,z
x,-y,-z
-x,y,-z
-x,-y,-z
x,y,-z
-x,y,z
x,-y,z
1/2+x,1/2+y,z
1/2-x,1/2-y,z
1/2+x,1/2-y,-z
1/2-x,1/2+y,-z
1/2-x,1/2-y,-z
1/2+x,1/2+y,-z
1/2-x,1/2+y,z
1/2+x,1/2-y,z
loop_
_atom_site_type_symbol
_atom_site_label
_atom_site_fract_x
_atom_site_fract_y
_atom_site_fract_z
Si Si1 0.860552 0.500000 0.567332
Si Si2 0.860163 0.747152 0.359885
Si Si3 0.387281 0.650049 0.869709
Si Si4 0.895552 0.156851 0.000000
Si Si5 0.391882 0.852008 0.770948
Si Si6 0.363323 0.500000 0.430893
O O1 0.890138 0.500000 0.500000
O O2 0.891801 0.374537 0.602123
O O3 0.748598 0.500000 0.567419
O O4 0.750000 0.750000 0.362272
O O5 0.883337 0.720167 0.291936
O O6 0.892302 0.875667 0.393008
O O7 0.500000 0.648536 0.870586
O O8 0.360132 0.500000 0.857335
O O9 0.355822 0.689724 0.935861
O O10 0.356711 0.755208 0.821642
O O11 0.000000 0.207337 0.000000
O O12 0.900003 0.000000 0.000000
O O13 0.500000 0.865671 0.782426
O O14 0.353433 0.000000 0.768566
O O15 0.391992 0.500000 0.500000
#
# Coordination Sequence:
#
# PCOD9486171 Si02
#       6
#     8  16  16   8  16   8
#     4   9  16  30  51  71  93 120 153 194 238 281
#     4  10  19  32  50  72  96 122 156 196 235 279
#     4   8  14  25  43  66  91 123 159 193 230 272
#     4   7  10  20  39  63  90 117 152 195 231 267
#     4  10  20  33  47  67  99 133 160 187 228 282
#     4   9  18  30  49  75  93 112 151 204 248 275
#
# _framework density 21.156794999999999
#
# number of rings (size 3 to 8) (size 9 to 14) (size 15 to 20)
#    0.000    3.000    1.111    2.000    1.556    2.667 
#    0.000    0.556    0.000    7.333    0.000    0.778 
#    0.000    0.000    0.000    0.000    0.000    0.000 
#
# Total GULP energy -200758.553651 kJ/mol
# GULP energy per Si atom -5576.626490 kJ/mol
# Density = 2.110864 g / cm^3
# Si number density = 21.156795 Si / 1000 Ang^3
#
#
#
# Elastic Constant Matrix: (Units=GPa)
#
#
# Indices 1 2 3 4 5 6 
#
# 1 63.9909 9.8961 0.6407 0.0000 0.0000 0.0000
# 2 9.8961 193.6046 133.8242 0.0000 0.0000 0.0000
# 3 0.6407 133.8242 248.9827 0.0000 0.0000 0.0000
# 4 0.0000 0.0000 0.0000 39.9687 0.0000 0.0000
# 5 0.0000 0.0000 0.0000 0.0000 14.6501 0.0000
# 6 0.0000 0.0000 0.0000 0.0000 0.0000 4.0141
#
#
#
# Elastic Compliance Matrix: (Units=1/GPa)
#
#
# Indices 1 2 3 4 5 6 
#
# 1 0.015813 -0.001241 0.000627 0.000000 0.000000 0.000000
# 2 -0.001241 0.008316 -0.004467 0.000000 0.000000 0.000000
# 3 0.000627 -0.004467 0.006415 0.000000 0.000000 0.000000
# 4 0.000000 0.000000 0.000000 0.025020 0.000000 0.000000
# 5 0.000000 0.000000 0.000000 0.000000 0.068259 0.000000
# 6 0.000000 0.000000 0.000000 0.000000 0.000000 0.249120
#
#
# Mechanical properties :
#
#
# Convention : Reuss Voigt Hill
#
# Bulk Modulus (GPa) = 49.06382 88.36671 68.71527
# Shear Modulus (GPa) = 12.82382 35.87438 24.34910
#
# Velocity S-wave (km/s) = 2.46465 4.12229 3.39615
# Velocity P-wave (km/s) = 5.59823 8.03218 6.92301
#
# Compressibility (1/GPa) = 0.02038162
#
# Stress axis : x y z
#
# Youngs Moduli (GPa) = 63.23947 120.25034 155.87460
#
# Poissons Ratio (x) = 0.14927 -0.09766
# Poissons Ratio (y) = 0.07850 0.69622
# Poissons Ratio (z) = -0.03962 0.53710
#
# Static dielectric constant tensor:
#      x y z
#    x 1.835740 0.000000 0.000000 
#    y 0.000000 1.716420 0.000000 
#    z 0.000000 0.000000 1.746340 
# 
# From -- ./inp_files/59406.got.cif
#   From: 2010.05.17/outbox.cif.g08.bks.cpg/sg65_30_cif.got.tgz:59406.got - 2010.06.03 17:01:31.
