data_PCOD9486234
_publ_section_title
;
Structure prediction by ZEFSAII (Michael W. Deem and Ramdas Pophale) SiO2 
 PCOD9486234
Probable space group: C M M M
;
_chemical_formula_sum "Si O2"
_cell_formula_units_Z 72
_cell_length_a 16.707230
_cell_length_b 28.465118
_cell_length_c 7.663700
_cell_angle_alpha 90.000000
_cell_angle_beta 90.000000
_cell_angle_gamma 90.000000
_cell_volume 3644.650895
_symmetry_space_group_name_H-M "C M M M"
_symmetry_group_IT_number 65
_symmetry_cell_setting 'orthorhombic'
loop_
_space_group_symop_operation_xyz
x,y,z
-x,-y,z
x,-y,-z
-x,y,-z
-x,-y,-z
x,y,-z
-x,y,z
x,-y,z
1/2+x,1/2+y,z
1/2-x,1/2-y,z
1/2+x,1/2-y,-z
1/2-x,1/2+y,-z
1/2-x,1/2-y,-z
1/2+x,1/2+y,-z
1/2-x,1/2+y,z
1/2+x,1/2-y,z
loop_
_atom_site_type_symbol
_atom_site_label
_atom_site_fract_x
_atom_site_fract_y
_atom_site_fract_z
Si Si1 0.673509 0.448064 0.206290
Si Si2 0.336455 0.895267 0.707265
Si Si3 0.088172 0.857536 0.213793
Si Si4 0.245745 0.803354 0.210428
Si Si5 0.500000 0.055158 0.713626
O O1 0.670274 0.500000 0.283202
O O2 0.761402 0.425414 0.224604
O O3 0.610519 0.410005 0.274000
O O4 0.658014 0.451744 0.000000
O O5 0.336696 0.900615 0.500000
O O6 0.315550 0.840701 0.744963
O O7 0.420181 0.916988 0.771831
O O8 0.161745 0.825423 0.271322
O O9 0.000000 0.843065 0.270062
O O10 0.088973 0.857215 0.000000
O O11 0.250000 0.750000 0.274652
O O12 0.244024 0.801869 0.000000
O O13 0.500000 0.055227 0.500000
O O14 0.500000 0.000000 0.766275
#
# Coordination Sequence:
#
# PCOD9486234 Si02
#       5
#    16  16  16  16   8
#     4   9  17  29  46  69  97 127 159 197 240 283
#     4  10  19  32  51  72  96 128 168 204 240 292
#     4   8  14  26  45  68  93 121 156 192 229 281
#     4   9  18  34  52  71  97 126 158 202 251 292
#     4   9  18  32  49  71 101 135 169 205 244 293
#
# _framework density 19.754977
#
# number of rings (size 3 to 8) (size 9 to 14) (size 15 to 20)
#    0.000    3.000    0.000    2.667    0.000    2.222 
#    2.000    4.444    0.000   14.667    0.000    6.222 
#    0.000    0.000    0.000    0.000    0.000    0.000 
#
# Total GULP energy -200637.028246 kJ/mol
# GULP energy per Si atom -5573.250785 kJ/mol
# Density = 1.971001 g / cm^3
# Si number density = 19.754977 Si / 1000 Ang^3
#
#
#
# Elastic Constant Matrix: (Units=GPa)
#
#
# Indices 1 2 3 4 5 6 
#
# 1 122.7514 62.5324 -4.9293 0.0000 0.0000 0.0000
# 2 62.5324 168.9800 1.5589 0.0000 0.0000 0.0000
# 3 -4.9293 1.5589 35.2387 0.0000 0.0000 0.0000
# 4 0.0000 0.0000 0.0000 11.9459 0.0000 0.0000
# 5 0.0000 0.0000 0.0000 0.0000 30.4135 0.0000
# 6 0.0000 0.0000 0.0000 0.0000 0.0000 12.8995
#
#
#
# Elastic Compliance Matrix: (Units=1/GPa)
#
#
# Indices 1 2 3 4 5 6 
#
# 1 0.010127 -0.003762 0.001583 0.000000 0.000000 0.000000
# 2 -0.003762 0.007318 -0.000850 0.000000 0.000000 0.000000
# 3 0.001583 -0.000850 0.028637 0.000000 0.000000 0.000000
# 4 0.000000 0.000000 0.000000 0.083711 0.000000 0.000000
# 5 0.000000 0.000000 0.000000 0.000000 0.032880 0.000000
# 6 0.000000 0.000000 0.000000 0.000000 0.000000 0.077522
#
#
# Mechanical properties :
#
#
# Convention : Reuss Voigt Hill
#
# Bulk Modulus (GPa) = 24.98545 49.47712 37.23128
# Shear Modulus (GPa) = 19.26088 28.90565 24.08327
#
# Velocity S-wave (km/s) = 3.12587 3.82934 3.49535
# Velocity P-wave (km/s) = 5.06983 6.68218 5.93105
#
# Compressibility (1/GPa) = 0.04002330
#
# Stress axis : x y z
#
# Youngs Moduli (GPa) = 98.75008 136.65183 34.91993
#
# Poissons Ratio (x) = 0.51409 -0.05528
# Poissons Ratio (y) = 0.37150 0.02968
# Poissons Ratio (z) = -0.15632 0.11615
#
# Static dielectric constant tensor:
#      x y z
#    x 1.677160 0.000000 0.000000 
#    y 0.000000 1.706860 0.000000 
#    z 0.000000 0.000000 1.735910 
# 
# From -- ./inp_files/7644.got.cif
#   From: 2010.05.17/outbox.cif.g08.bks.cpg/sg65_4_cif.got.tgz:7644.got - 2010.06.03 17:01:31.
