data_PCOD9486111
_publ_section_title
;
Structure prediction by ZEFSAII (Michael W. Deem and Ramdas Pophale) SiO2 
 PCOD9486111
Probable space group: C M M M
;
_chemical_formula_sum "Si O2"
_cell_formula_units_Z 88
_cell_length_a 14.436759
_cell_length_b 27.930804
_cell_length_c 11.038097
_cell_angle_alpha 90.000000
_cell_angle_beta 90.000000
_cell_angle_gamma 90.000000
_cell_volume 4450.895010
_symmetry_space_group_name_H-M "C M M M"
_symmetry_group_IT_number 65
_symmetry_cell_setting 'orthorhombic'
loop_
_space_group_symop_operation_xyz
x,y,z
-x,-y,z
x,-y,-z
-x,y,-z
-x,-y,-z
x,y,-z
-x,y,z
x,-y,z
1/2+x,1/2+y,z
1/2-x,1/2-y,z
1/2+x,1/2-y,-z
1/2-x,1/2+y,-z
1/2-x,1/2-y,-z
1/2+x,1/2+y,-z
1/2-x,1/2+y,z
1/2+x,1/2-y,z
loop_
_atom_site_type_symbol
_atom_site_label
_atom_site_fract_x
_atom_site_fract_y
_atom_site_fract_z
Si Si1 0.388215 0.202008 0.637306
Si Si2 0.113223 0.231906 0.860719
Si Si3 0.112671 0.945948 0.000000
Si Si4 0.603188 0.089559 0.645540
Si Si5 0.293057 0.551501 0.355975
Si Si6 0.111091 0.874879 0.787186
O O1 0.353434 0.213494 0.500000
O O2 0.500000 0.208378 0.631736
O O3 0.355950 0.233091 0.752115
O O4 0.373656 0.145737 0.661722
O O5 0.142131 0.177926 0.824692
O O6 0.000000 0.232654 0.861517
O O7 0.141128 0.243015 0.000000
O O8 0.140204 0.914224 0.114010
O O9 0.000000 0.947734 0.000000
O O10 0.147210 0.000000 0.000000
O O11 0.598265 0.082412 0.500000
O O12 0.500000 0.079725 0.694068
O O13 0.688751 0.058881 0.692623
O O14 0.286666 0.548293 0.500000
O O15 0.332793 0.500000 0.312731
O O16 0.349313 0.599873 0.330680
O O17 0.000000 0.873178 0.782290
#
# Coordination Sequence:
#
# PCOD9486111 Si02
#       6
#    16  16   8  16  16  16
#     4   8  14  26  48  76 101 129 167 208 254 309
#     4   9  16  28  48  74 104 136 172 213 254 297
#     4   9  16  28  48  68  84 117 173 217 240 275
#     4   8  15  31  54  76  99 129 166 209 254 303
#     4  10  21  34  49  74 104 131 165 210 259 310
#     4  10  19  32  49  70 100 136 170 206 247 293
#
# _framework density 19.771303
#
# number of rings (size 3 to 8) (size 9 to 14) (size 15 to 20)
#    0.000    3.000    0.909    1.636    0.000    2.545 
#    0.000    5.455    2.000    4.364    0.000    0.000 
#    0.000    2.182    0.000    0.000    0.000    0.000 
#
# Total GULP energy -244951.829626 kJ/mol
# GULP energy per Si atom -5567.087037 kJ/mol
# Density = 1.972630 g / cm^3
# Si number density = 19.771303 Si / 1000 Ang^3
#
#
#
# Elastic Constant Matrix: (Units=GPa)
#
#
# Indices 1 2 3 4 5 6 
#
# 1 20.8210 3.3014 4.0754 0.0000 0.0000 0.0000
# 2 3.3014 21.9959 33.8060 0.0000 0.0000 0.0000
# 3 4.0754 33.8060 80.2593 0.0000 0.0000 0.0000
# 4 0.0000 0.0000 0.0000 26.1410 0.0000 0.0000
# 5 0.0000 0.0000 0.0000 0.0000 -1.5732 0.0000
# 6 0.0000 0.0000 0.0000 0.0000 0.0000 19.7654
#
#
#
# Elastic Compliance Matrix: (Units=1/GPa)
#
#
# Indices 1 2 3 4 5 6 
#
# 1 0.049285 -0.010070 0.001739 0.000000 0.000000 0.000000
# 2 -0.010070 0.130983 -0.054660 0.000000 0.000000 0.000000
# 3 0.001739 -0.054660 0.035395 0.000000 0.000000 0.000000
# 4 0.000000 0.000000 0.000000 0.038254 0.000000 0.000000
# 5 0.000000 0.000000 0.000000 0.000000 -0.635657 0.000000
# 6 0.000000 0.000000 0.000000 0.000000 0.000000 0.050593
#
#
# Mechanical properties :
#
#
# Convention : Reuss Voigt Hill
#
# Bulk Modulus (GPa) = 11.15073 22.82687 16.98880
# Shear Modulus (GPa) = -28.52705 14.32620 -7.10042
#
# Velocity S-wave (km/s) = -3.80261 2.69475 -1.89712
# Velocity P-wave (km/s) = 3.69157 4.61007 1.95257
#
# Compressibility (1/GPa) = 0.08968027
#
# Stress axis : x y z
#
# Youngs Moduli (GPa) = 20.29029 7.63460 28.25284
#
# Poissons Ratio (x) = 0.07688 -0.04913
# Poissons Ratio (y) = 0.20432 1.54430
# Poissons Ratio (z) = -0.03528 0.41731
#
# Static dielectric constant tensor:
#      x y z
#    x 1.720920 0.000000 0.000000 
#    y 0.000000 1.696380 0.000000 
#    z 0.000000 0.000000 1.812130 
# 
# From -- ./inp_files/25150.got.cif
#   From: 2010.05.17/outbox.cif.g08.bks.cpg/sg65_13_cif.got.tgz:25150.got - 2010.06.03 17:01:31.
