data_PCOD9486880
_publ_section_title
;
Structure prediction by ZEFSAII (Michael W. Deem and Ramdas Pophale) SiO2 
 PCOD9486880
Probable space group: C M M M
;
_chemical_formula_sum "Si O2"
_cell_formula_units_Z 104
_cell_length_a 8.736145
_cell_length_b 29.364188
_cell_length_c 23.598722
_cell_angle_alpha 90.000000
_cell_angle_beta 90.000000
_cell_angle_gamma 90.000000
_cell_volume 6053.775533
_symmetry_space_group_name_H-M "C M M M"
_symmetry_group_IT_number 65
_symmetry_cell_setting 'orthorhombic'
loop_
_space_group_symop_operation_xyz
x,y,z
-x,-y,z
x,-y,-z
-x,y,-z
-x,-y,-z
x,y,-z
-x,y,z
x,-y,z
1/2+x,1/2+y,z
1/2-x,1/2-y,z
1/2+x,1/2-y,-z
1/2-x,1/2+y,-z
1/2-x,1/2-y,-z
1/2+x,1/2+y,-z
1/2-x,1/2+y,z
1/2+x,1/2-y,z
loop_
_atom_site_type_symbol
_atom_site_label
_atom_site_fract_x
_atom_site_fract_y
_atom_site_fract_z
Si Si1 0.813243 0.552444 0.000000
Si Si2 0.183406 0.893546 0.669028
Si Si3 0.183252 0.201295 0.851793
Si Si4 0.815935 0.798385 0.280682
Si Si5 0.684525 0.052476 0.565267
Si Si6 0.815026 0.607991 0.111307
Si Si7 0.815297 0.447009 0.775794
O O1 0.766311 0.579503 0.056290
O O2 0.761589 0.500000 0.000000
O O3 0.000000 0.551410 0.000000
O O4 0.234426 0.841963 0.683202
O O5 0.244983 0.913442 0.610408
O O6 0.243127 0.924900 0.720219
O O7 0.000000 0.894239 0.668859
O O8 0.250000 0.250000 0.870044
O O9 0.229173 0.194822 0.785401
O O10 0.247325 0.158483 0.885915
O O11 0.000000 0.202340 0.854525
O O12 0.750000 0.750000 0.299640
O O13 0.000000 0.796143 0.282111
O O14 0.727971 0.061876 0.500000
O O15 0.500000 0.054532 0.568675
O O16 0.728975 0.000000 0.578311
O O17 0.769378 0.581008 0.168312
O O18 0.000000 0.610855 0.110850
O O19 0.773380 0.500000 0.781276
O O20 0.000000 0.444557 0.771112
#
# Coordination Sequence:
#
# PCOD9486880 Si02
#       7
#     8  16  16  16  16  16  16
#     4   9  18  34  56  79 104 137 180 225 262 307
#     4  11  21  33  50  78 109 135 168 213 264 311
#     4  10  19  34  54  77 106 136 170 213 263 317
#     4   9  19  33  50  74 104 135 168 208 257 310
#     4   9  19  36  55  75 103 141 182 218 252 298
#     4  10  19  33  54  78 103 136 176 218 264 311
#     4  10  20  32  48  73 104 137 173 211 254 308
#
# _framework density 17.179362000000001
#
# number of rings (size 3 to 8) (size 9 to 14) (size 15 to 20)
#    0.000    2.231    1.538    2.308    0.000    6.462 
#    0.000    1.538    0.000    2.308    0.000    0.000 
#    0.000    0.000    0.000    0.000    0.000    0.000 
#
# Total GULP energy -290208.696927 kJ/mol
# GULP energy per Si atom -5580.936479 kJ/mol
# Density = 1.714026 g / cm^3
# Si number density = 17.179362 Si / 1000 Ang^3
#
#
#
# Elastic Constant Matrix: (Units=GPa)
#
#
# Indices 1 2 3 4 5 6 
#
# 1 15.2091 36.0011 25.8014 0.0000 0.0000 0.0000
# 2 36.0011 182.0091 84.6768 0.0000 0.0000 0.0000
# 3 25.8014 84.6768 102.2870 0.0000 0.0000 0.0000
# 4 0.0000 0.0000 0.0000 31.8536 0.0000 0.0000
# 5 0.0000 0.0000 0.0000 0.0000 11.8816 0.0000
# 6 0.0000 0.0000 0.0000 0.0000 0.0000 29.2012
#
#
#
# Elastic Compliance Matrix: (Units=1/GPa)
#
#
# Indices 1 2 3 4 5 6 
#
# 1 0.147379 -0.019282 -0.021213 0.000000 0.000000 0.000000
# 2 -0.019282 0.011459 -0.004622 0.000000 0.000000 0.000000
# 3 -0.021213 -0.004622 0.018953 0.000000 0.000000 0.000000
# 4 0.000000 0.000000 0.000000 0.031394 0.000000 0.000000
# 5 0.000000 0.000000 0.000000 0.000000 0.084164 0.000000
# 6 0.000000 0.000000 0.000000 0.000000 0.000000 0.034245
#
#
# Mechanical properties :
#
#
# Convention : Reuss Voigt Hill
#
# Bulk Modulus (GPa) = 11.42118 65.82930 38.62524
# Shear Modulus (GPa) = 11.18533 24.78900 17.98717
#
# Velocity S-wave (km/s) = 2.55442 3.80274 3.23928
# Velocity P-wave (km/s) = 3.91953 7.59494 6.04342
#
# Compressibility (1/GPa) = 0.08755664
#
# Stress axis : x y z
#
# Youngs Moduli (GPa) = 6.78521 87.27142 52.76077
#
# Poissons Ratio (x) = 1.68280 1.11922
# Poissons Ratio (y) = 0.13083 0.24385
# Poissons Ratio (z) = 0.14394 0.40336
#
# Static dielectric constant tensor:
#      x y z
#    x 1.580200 0.000000 0.000000 
#    y 0.000000 1.572900 0.000000 
#    z 0.000000 0.000000 1.563160 
# 
# From -- ./inp_files/60455.got.cif
#   From: 2010.05.17/outbox.cif.g08.bks.cpg/sg65_31_cif.got.tgz:60455.got - 2010.06.03 17:01:31.
