data_PCOD9486770
_publ_section_title
;
Structure prediction by ZEFSAII (Michael W. Deem and Ramdas Pophale) SiO2 
 PCOD9486770
Probable space group: C M M M
;
_chemical_formula_sum "Si O2"
_cell_formula_units_Z 96
_cell_length_a 24.767635
_cell_length_b 18.317282
_cell_length_c 13.065500
_cell_angle_alpha 90.000000
_cell_angle_beta 90.000000
_cell_angle_gamma 90.000000
_cell_volume 5927.500574
_symmetry_space_group_name_H-M "C M M M"
_symmetry_group_IT_number 65
_symmetry_cell_setting 'orthorhombic'
loop_
_space_group_symop_operation_xyz
x,y,z
-x,-y,z
x,-y,-z
-x,y,-z
-x,-y,-z
x,y,-z
-x,y,z
x,-y,z
1/2+x,1/2+y,z
1/2-x,1/2-y,z
1/2+x,1/2-y,-z
1/2-x,1/2+y,-z
1/2-x,1/2-y,-z
1/2+x,1/2+y,-z
1/2-x,1/2+y,z
1/2+x,1/2-y,z
loop_
_atom_site_type_symbol
_atom_site_label
_atom_site_fract_x
_atom_site_fract_y
_atom_site_fract_z
Si Si1 0.804213 0.205934 0.713155
Si Si2 0.369322 0.153305 0.312661
Si Si3 0.438389 0.500000 0.875431
Si Si4 0.063282 0.304929 0.881890
Si Si5 0.935296 0.413040 0.500000
Si Si6 0.763044 0.582838 0.380978
Si Si7 0.383088 0.349638 0.880695
O O1 0.750000 0.250000 0.741145
O O2 0.845533 0.265242 0.666037
O O3 0.783736 0.140987 0.641221
O O4 0.832652 0.172305 0.811862
O O5 0.399666 0.157245 0.203780
O O6 0.409053 0.124315 0.400229
O O7 0.315902 0.103105 0.315285
O O8 0.500000 0.500000 0.839469
O O9 0.408727 0.425666 0.844881
O O10 0.439626 0.500000 0.000000
O O11 0.075108 0.217978 0.873342
O O12 0.000000 0.319117 0.864102
O O13 0.076240 0.325271 0.000000
O O14 0.922831 0.500000 0.500000
O O15 0.000000 0.404740 0.500000
O O16 0.779399 0.589089 0.500000
O O17 0.745878 0.500000 0.361246
O O18 0.368378 0.356812 0.000000
#
# Coordination Sequence:
#
# PCOD9486770 Si02
#       7
#    16  16   8  16   8  16  16
#     4   9  20  32  49  75  98 130 169 213 253 305
#     4  10  19  33  53  76 103 131 167 213 259 300
#     4   9  16  26  44  70  99 133 171 211 254 299
#     4   9  17  31  51  74 102 136 173 208 245 299
#     4  11  22  34  53  80 107 133 164 209 263 309
#     4  10  20  34  53  73  97 131 169 210 258 311
#     4   9  17  29  46  70 102 135 168 208 253 299
#
# _framework density 16.195696000000002
#
# number of rings (size 3 to 8) (size 9 to 14) (size 15 to 20)
#    0.000    2.500    0.833    1.500    2.333    3.333 
#    0.000    2.500    0.000    3.000    0.000    5.833 
#    0.000    1.333    0.000    0.000    0.000    0.000 
#
# Total GULP energy -267389.872884 kJ/mol
# GULP energy per Si atom -5570.622352 kJ/mol
# Density = 1.615883 g / cm^3
# Si number density = 16.195696 Si / 1000 Ang^3
#
#
#
# Elastic Constant Matrix: (Units=GPa)
#
#
# Indices 1 2 3 4 5 6 
#
# 1 85.7513 56.4415 51.7774 0.0000 0.0000 0.0000
# 2 56.4415 103.6700 54.6355 0.0000 0.0000 0.0000
# 3 51.7774 54.6355 79.4540 0.0000 0.0000 0.0000
# 4 0.0000 0.0000 0.0000 18.7433 0.0000 0.0000
# 5 0.0000 0.0000 0.0000 0.0000 25.2149 0.0000
# 6 0.0000 0.0000 0.0000 0.0000 0.0000 11.3172
#
#
#
# Elastic Compliance Matrix: (Units=1/GPa)
#
#
# Indices 1 2 3 4 5 6 
#
# 1 0.022007 -0.006937 -0.009571 0.000000 0.000000 0.000000
# 2 -0.006937 0.017315 -0.007386 0.000000 0.000000 0.000000
# 3 -0.009571 -0.007386 0.023901 0.000000 0.000000 0.000000
# 4 0.000000 0.000000 0.000000 0.053352 0.000000 0.000000
# 5 0.000000 0.000000 0.000000 0.000000 0.039659 0.000000
# 6 0.000000 0.000000 0.000000 0.000000 0.000000 0.088361
#
#
# Mechanical properties :
#
#
# Convention : Reuss Voigt Hill
#
# Bulk Modulus (GPa) = 64.78388 66.06486 65.42437
# Shear Modulus (GPa) = 16.80512 18.12315 17.46413
#
# Velocity S-wave (km/s) = 3.22472 3.34879 3.28734
# Velocity P-wave (km/s) = 7.34524 7.47213 7.40896
#
# Compressibility (1/GPa) = 0.01543594
#
# Stress axis : x y z
#
# Youngs Moduli (GPa) = 45.44101 57.75217 41.83839
#
# Poissons Ratio (x) = 0.40065 0.40042
# Poissons Ratio (y) = 0.31524 0.30901
# Poissons Ratio (z) = 0.43490 0.42655
#
# Static dielectric constant tensor:
#      x y z
#    x 1.535500 0.000000 0.000000 
#    y 0.000000 1.553530 0.000000 
#    z 0.000000 0.000000 1.522840 
# 
# From -- ./inp_files/32465.got.cif
#   From: 2010.05.17/outbox.cif.g08.bks.cpg/sg65_17_cif.got.tgz:32465.got - 2010.06.03 17:01:31.
