data_PCOD9486310
_publ_section_title
;
Structure prediction by ZEFSAII (Michael W. Deem and Ramdas Pophale) SiO2 
 PCOD9486310
Probable space group: C M M M
;
_chemical_formula_sum "Si O2"
_cell_formula_units_Z 88
_cell_length_a 8.642220
_cell_length_b 25.523119
_cell_length_c 22.550268
_cell_angle_alpha 90.000000
_cell_angle_beta 90.000000
_cell_angle_gamma 90.000000
_cell_volume 4974.057148
_symmetry_space_group_name_H-M "C M M M"
_symmetry_group_IT_number 65
_symmetry_cell_setting 'orthorhombic'
loop_
_space_group_symop_operation_xyz
x,y,z
-x,-y,z
x,-y,-z
-x,y,-z
-x,-y,-z
x,y,-z
-x,y,z
x,-y,z
1/2+x,1/2+y,z
1/2-x,1/2-y,z
1/2+x,1/2-y,-z
1/2-x,1/2+y,-z
1/2-x,1/2-y,-z
1/2+x,1/2+y,-z
1/2-x,1/2+y,z
1/2+x,1/2-y,z
loop_
_atom_site_type_symbol
_atom_site_label
_atom_site_fract_x
_atom_site_fract_y
_atom_site_fract_z
Si Si1 0.314339 0.193926 0.792394
Si Si2 0.313198 0.082913 0.835516
Si Si3 0.313992 0.500000 0.605905
Si Si4 0.188583 0.500000 0.067503
Si Si5 0.184974 0.000000 0.744881
Si Si6 0.684565 0.693762 0.659854
Si Si7 0.815068 0.389080 0.567420
O O1 0.500000 0.196685 0.790471
O O2 0.250000 0.250000 0.812784
O O3 0.267070 0.143472 0.830908
O O4 0.252809 0.184964 0.725612
O O5 0.500000 0.080701 0.833024
O O6 0.264103 0.050752 0.893950
O O7 0.250055 0.050431 0.779471
O O8 0.500000 0.500000 0.600548
O O9 0.272979 0.500000 0.675880
O O10 0.245492 0.552194 0.577237
O O11 0.000000 0.500000 0.065952
O O12 0.244007 0.500000 0.000000
O O13 0.000000 0.000000 0.749269
O O14 0.500000 0.695943 0.663791
O O15 0.750000 0.750000 0.639534
O O16 0.737258 0.648772 0.615235
O O17 0.779052 0.372535 0.500000
O O18 0.000000 0.387903 0.575227
#
# Coordination Sequence:
#
# PCOD9486310 Si02
#       7
#    16  16   8   8   8  16  16
#     4  10  19  32  51  75 104 134 166 205 251 303
#     4   9  18  31  49  75 103 133 169 207 248 294
#     4  11  23  37  54  77 103 131 167 209 258 313
#     4   8  14  28  51  76 101 132 174 218 250 282
#     4  10  20  31  48  75 102 129 159 200 252 302
#     4  11  22  37  57  79 103 131 166 208 257 309
#     4  11  24  40  56  74  98 131 170 210 255 308
#
# _framework density 17.691794999999999
#
# number of rings (size 3 to 8) (size 9 to 14) (size 15 to 20)
#    0.000    1.909    0.000    6.273    0.000    8.727 
#    0.000    0.000    0.000    4.909    0.000    0.000 
#    0.000    0.000    0.000    0.000    0.000    0.727 
#
# Total GULP energy -245710.980748 kJ/mol
# GULP energy per Si atom -5584.340472 kJ/mol
# Density = 1.765153 g / cm^3
# Si number density = 17.691795 Si / 1000 Ang^3
#
#
#
# Elastic Constant Matrix: (Units=GPa)
#
#
# Indices 1 2 3 4 5 6 
#
# 1 52.2938 36.2152 26.3625 0.0000 0.0000 0.0000
# 2 36.2152 158.1962 53.6357 0.0000 0.0000 0.0000
# 3 26.3625 53.6357 73.9228 0.0000 0.0000 0.0000
# 4 0.0000 0.0000 0.0000 11.7292 0.0000 0.0000
# 5 0.0000 0.0000 0.0000 0.0000 12.5693 0.0000
# 6 0.0000 0.0000 0.0000 0.0000 0.0000 32.7248
#
#
#
# Elastic Compliance Matrix: (Units=1/GPa)
#
#
# Indices 1 2 3 4 5 6 
#
# 1 0.024725 -0.003542 -0.006248 0.000000 0.000000 0.000000
# 2 -0.003542 0.008891 -0.005188 0.000000 0.000000 0.000000
# 3 -0.006248 -0.005188 0.019520 0.000000 0.000000 0.000000
# 4 0.000000 0.000000 0.000000 0.085257 0.000000 0.000000
# 5 0.000000 0.000000 0.000000 0.000000 0.079559 0.000000
# 6 0.000000 0.000000 0.000000 0.000000 0.000000 0.030558
#
#
# Mechanical properties :
#
#
# Convention : Reuss Voigt Hill
#
# Bulk Modulus (GPa) = 43.13856 57.42662 50.28259
# Shear Modulus (GPa) = 17.47080 22.61795 20.04437
#
# Velocity S-wave (km/s) = 3.14587 3.57941 3.36962
# Velocity P-wave (km/s) = 6.13447 7.04364 6.60471
#
# Compressibility (1/GPa) = 0.02318112
#
# Stress axis : x y z
#
# Youngs Moduli (GPa) = 40.44447 112.47259 51.23006
#
# Poissons Ratio (x) = 0.39838 0.32006
# Poissons Ratio (y) = 0.14326 0.26577
# Poissons Ratio (z) = 0.25268 0.58349
#
# Static dielectric constant tensor:
#      x y z
#    x 1.594430 0.000000 0.000000 
#    y 0.000000 1.611530 0.000000 
#    z 0.000000 0.000000 1.580560 
# 
# From -- ./inp_files/59897.got.cif
#   From: 2010.05.17/outbox.cif.g08.bks.cpg/sg65_30_cif.got.tgz:59897.got - 2010.06.03 17:01:31.
