data_PCOD9486878
_publ_section_title
;
Structure prediction by ZEFSAII (Michael W. Deem and Ramdas Pophale) SiO2 
 PCOD9486878
Probable space group: C M M M
;
_chemical_formula_sum "Si O2"
_cell_formula_units_Z 80
_cell_length_a 19.392280
_cell_length_b 8.549978
_cell_length_c 26.401437
_cell_angle_alpha 90.000000
_cell_angle_beta 90.000000
_cell_angle_gamma 90.000000
_cell_volume 4377.452438
_symmetry_space_group_name_H-M "C M M M"
_symmetry_group_IT_number 65
_symmetry_cell_setting 'orthorhombic'
loop_
_space_group_symop_operation_xyz
x,y,z
-x,-y,z
x,-y,-z
-x,y,-z
-x,-y,-z
x,y,-z
-x,y,z
x,-y,z
1/2+x,1/2+y,z
1/2-x,1/2-y,z
1/2+x,1/2-y,-z
1/2-x,1/2+y,-z
1/2-x,1/2-y,-z
1/2+x,1/2+y,-z
1/2-x,1/2+y,z
1/2+x,1/2-y,z
loop_
_atom_site_type_symbol
_atom_site_label
_atom_site_fract_x
_atom_site_fract_y
_atom_site_fract_z
Si Si1 0.671491 0.311879 0.388852
Si Si2 0.328057 0.688225 0.500000
Si Si3 0.579274 0.189298 0.297275
Si Si4 0.173811 0.312340 0.911065
Si Si5 0.825939 0.688625 0.204975
Si Si6 0.420705 0.687368 0.000000
O O1 0.673598 0.500000 0.386575
O O2 0.750000 0.250000 0.383306
O O3 0.643907 0.263244 0.444965
O O4 0.623217 0.248118 0.344795
O O5 0.327557 0.500000 0.500000
O O6 0.250000 0.750000 0.500000
O O7 0.500000 0.242053 0.299060
O O8 0.617933 0.240610 0.245870
O O9 0.579556 0.000000 0.297774
O O10 0.174563 0.500000 0.913135
O O11 0.250000 0.250000 0.924102
O O12 0.159136 0.262830 0.852939
O O13 0.119022 0.248489 0.950659
O O14 0.823773 0.500000 0.205577
O O15 0.750000 0.750000 0.218762
O O16 0.418818 0.500000 0.000000
O O17 0.500000 0.739739 0.000000
#
# Coordination Sequence:
#
# PCOD9486878 Si02
#       6
#    16   8  16  16  16   8
#     4  10  19  33  54  78 103 133 172 215 260 310
#     4   8  16  30  49  74 101 129 165 213 261 304
#     4  10  21  36  52  74 107 142 174 212 259 308
#     4  10  20  36  59  83 107 137 175 216 258 308
#     4   9  19  35  56  80 104 134 172 215 260 306
#     4  11  24  39  54  77 111 145 176 215 262 307
#
# _framework density 18.275469999999999
#
# number of rings (size 3 to 8) (size 9 to 14) (size 15 to 20)
#    0.000    2.300    0.000    2.400    0.000    6.000 
#    0.000    2.500    0.000    3.000    0.000    0.000 
#    0.000    0.000    0.000    0.000    0.000    0.000 
#
# Total GULP energy -223168.518136 kJ/mol
# GULP energy per Si atom -5579.212953 kJ/mol
# Density = 1.823387 g / cm^3
# Si number density = 18.275470 Si / 1000 Ang^3
#
#
#
# Elastic Constant Matrix: (Units=GPa)
#
#
# Indices 1 2 3 4 5 6 
#
# 1 150.3665 30.2290 121.9262 0.0000 0.0000 0.0000
# 2 30.2290 22.9081 30.4749 0.0000 0.0000 0.0000
# 3 121.9262 30.4749 155.4348 0.0000 0.0000 0.0000
# 4 0.0000 0.0000 0.0000 15.5419 0.0000 0.0000
# 5 0.0000 0.0000 0.0000 0.0000 -6.8236 0.0000
# 6 0.0000 0.0000 0.0000 0.0000 0.0000 23.7190
#
#
#
# Elastic Compliance Matrix: (Units=1/GPa)
#
#
# Indices 1 2 3 4 5 6 
#
# 1 0.019097 -0.007132 -0.013582 0.000000 0.000000 0.000000
# 2 -0.007132 0.061719 -0.006506 0.000000 0.000000 0.000000
# 3 -0.013582 -0.006506 0.018363 0.000000 0.000000 0.000000
# 4 0.000000 0.000000 0.000000 0.064342 0.000000 0.000000
# 5 0.000000 0.000000 0.000000 0.000000 -0.146550 0.000000
# 6 0.000000 0.000000 0.000000 0.000000 0.000000 0.042160
#
#
# Mechanical properties :
#
#
# Convention : Reuss Voigt Hill
#
# Bulk Modulus (GPa) = 22.35177 77.10773 49.72975
# Shear Modulus (GPa) = 38.91461 16.22607 27.57034
#
# Velocity S-wave (km/s) = 4.61948 2.98293 3.88828
# Velocity P-wave (km/s) = 6.38042 7.35849 6.88684
#
# Compressibility (1/GPa) = 0.04473918
#
# Stress axis : x y z
#
# Youngs Moduli (GPa) = 52.36344 16.20235 54.45695
#
# Poissons Ratio (x) = 0.11556 0.73963
# Poissons Ratio (y) = 0.37347 0.35431
# Poissons Ratio (z) = 0.71120 0.10542
#
# Static dielectric constant tensor:
#      x y z
#    x 1.584960 0.000000 0.000000 
#    y 0.000000 1.631760 0.000000 
#    z 0.000000 0.000000 1.652590 
# 
# From -- ./inp_files/75105.got.cif
#   From: 2010.05.17/outbox.cif.g08.bks.cpg/sg65_38_cif.got.tgz:75105.got - 2010.06.03 17:01:31.
