data_PCOD9486475
_publ_section_title
;
Structure prediction by ZEFSAII (Michael W. Deem and Ramdas Pophale) SiO2 
 PCOD9486475
Probable space group: C M M M
;
_chemical_formula_sum "Si O2"
_cell_formula_units_Z 104
_cell_length_a 23.520328
_cell_length_b 9.359219
_cell_length_c 26.205973
_cell_angle_alpha 90.000000
_cell_angle_beta 90.000000
_cell_angle_gamma 90.000000
_cell_volume 5768.770646
_symmetry_space_group_name_H-M "C M M M"
_symmetry_group_IT_number 65
_symmetry_cell_setting 'orthorhombic'
loop_
_space_group_symop_operation_xyz
x,y,z
-x,-y,z
x,-y,-z
-x,y,-z
-x,-y,-z
x,y,-z
-x,y,z
x,-y,z
1/2+x,1/2+y,z
1/2-x,1/2-y,z
1/2+x,1/2-y,-z
1/2-x,1/2+y,-z
1/2-x,1/2-y,-z
1/2+x,1/2+y,-z
1/2-x,1/2+y,z
1/2+x,1/2-y,z
loop_
_atom_site_type_symbol
_atom_site_label
_atom_site_fract_x
_atom_site_fract_y
_atom_site_fract_z
Si Si1 0.194196 0.669699 0.811923
Si Si2 0.191006 0.669531 0.000000
Si Si3 0.889687 0.331767 0.904770
Si Si4 0.647265 0.167297 0.443162
Si Si5 0.750000 0.250000 0.371478
Si Si6 0.159289 0.163842 0.289708
Si Si7 0.932893 0.327281 0.645447
Si Si8 0.500000 0.329279 0.060394
O O1 0.204932 0.500000 0.805481
O O2 0.250000 0.750000 0.832694
O O3 0.142540 0.687568 0.851359
O O4 0.180047 0.744587 0.758408
O O5 0.250000 0.750000 0.000000
O O6 0.154218 0.703717 0.049957
O O7 0.201458 0.500000 0.000000
O O8 0.904628 0.500000 0.909874
O O9 0.944808 0.236817 0.913023
O O10 0.652631 0.231324 0.500000
O O11 0.704408 0.179089 0.409513
O O12 0.595025 0.220432 0.408483
O O13 0.636461 0.000000 0.449180
O O14 0.791056 0.164408 0.332815
O O15 0.104370 0.243266 0.313057
O O16 0.147473 0.000000 0.275654
O O17 0.924434 0.500000 0.651094
O O18 0.000000 0.299650 0.648081
O O19 0.500000 0.500000 0.063656
O O20 0.500000 0.289595 0.000000
#
# Coordination Sequence:
#
# PCOD9486475 Si02
#       8
#    16   8  16  16   8  16  16   8
#     4  11  23  39  61  89 120 153 191 236 290 345
#     4  10  20  35  58  87 119 154 194 234 285 344
#     4  10  22  40  62  87 118 159 198 236 288 350
#     4   9  17  29  49  79 111 143 183 233 285 340
#     4  10  19  32  52  78 114 149 190 226 286 344
#     4  11  22  36  58  83 111 150 193 239 289 341
#     4   9  19  36  56  78 108 147 192 240 288 343
#     4  11  23  39  63  93 121 155 199 247 290 335
#
# _framework density 18.028105
#
# number of rings (size 3 to 8) (size 9 to 14) (size 15 to 20)
#    0.000    1.923    1.538    2.308    0.000    4.000 
#    1.385    1.538    0.000    4.154    0.000    4.308 
#    0.000    0.000    0.000    0.000    0.000    0.000 
#
# Total GULP energy -289964.571999 kJ/mol
# GULP energy per Si atom -5576.241769 kJ/mol
# Density = 1.798707 g / cm^3
# Si number density = 18.028105 Si / 1000 Ang^3
#
#
#
# Elastic Constant Matrix: (Units=GPa)
#
#
# Indices 1 2 3 4 5 6 
#
# 1 139.6350 63.3963 39.4368 0.0000 0.0000 0.0000
# 2 63.3963 83.5993 46.2588 0.0000 0.0000 0.0000
# 3 39.4368 46.2588 85.3112 0.0000 0.0000 0.0000
# 4 0.0000 0.0000 0.0000 13.5810 0.0000 0.0000
# 5 0.0000 0.0000 0.0000 0.0000 26.0172 0.0000
# 6 0.0000 0.0000 0.0000 0.0000 0.0000 28.1706
#
#
#
# Elastic Compliance Matrix: (Units=1/GPa)
#
#
# Indices 1 2 3 4 5 6 
#
# 1 0.010960 -0.007869 -0.000800 0.000000 0.000000 0.000000
# 2 -0.007869 0.022739 -0.008692 0.000000 0.000000 0.000000
# 3 -0.000800 -0.008692 0.016805 0.000000 0.000000 0.000000
# 4 0.000000 0.000000 0.000000 0.073632 0.000000 0.000000
# 5 0.000000 0.000000 0.000000 0.000000 0.038436 0.000000
# 6 0.000000 0.000000 0.000000 0.000000 0.000000 0.035498
#
#
# Mechanical properties :
#
#
# Convention : Reuss Voigt Hill
#
# Bulk Modulus (GPa) = 63.36372 67.41436 65.38904
# Shear Modulus (GPa) = 21.00383 24.18401 22.59392
#
# Velocity S-wave (km/s) = 3.41700 3.66657 3.54398
# Velocity P-wave (km/s) = 7.12681 7.44313 7.28668
#
# Compressibility (1/GPa) = 0.01578190
#
# Stress axis : x y z
#
# Youngs Moduli (GPa) = 91.24142 43.97770 59.50705
#
# Poissons Ratio (x) = 0.34605 0.04759
# Poissons Ratio (y) = 0.71796 0.51725
# Poissons Ratio (z) = 0.07297 0.38227
#
# Static dielectric constant tensor:
#      x y z
#    x 1.600810 0.000000 0.000000 
#    y 0.000000 1.610200 0.000000 
#    z 0.000000 0.000000 1.637780 
# 
# From -- ./inp_files/75581.got.cif
#   From: 2010.05.17/outbox.cif.g08.bks.cpg/sg65_38_cif.got.tgz:75581.got - 2010.06.03 17:01:31.
