data_PCOD9486389
_publ_section_title
;
Structure prediction by ZEFSAII (Michael W. Deem and Ramdas Pophale) SiO2 
 PCOD9486389
Probable space group: C M M M
;
_chemical_formula_sum "Si O2"
_cell_formula_units_Z 104
_cell_length_a 17.685766
_cell_length_b 20.993227
_cell_length_c 17.381080
_cell_angle_alpha 90.000000
_cell_angle_beta 90.000000
_cell_angle_gamma 90.000000
_cell_volume 6453.269983
_symmetry_space_group_name_H-M "C M M M"
_symmetry_group_IT_number 65
_symmetry_cell_setting 'orthorhombic'
loop_
_space_group_symop_operation_xyz
x,y,z
-x,-y,z
x,-y,-z
-x,y,-z
-x,-y,-z
x,y,-z
-x,y,z
x,-y,z
1/2+x,1/2+y,z
1/2-x,1/2-y,z
1/2+x,1/2-y,-z
1/2-x,1/2+y,-z
1/2-x,1/2-y,-z
1/2+x,1/2+y,-z
1/2-x,1/2+y,z
1/2+x,1/2-y,z
loop_
_atom_site_type_symbol
_atom_site_label
_atom_site_fract_x
_atom_site_fract_y
_atom_site_fract_z
Si Si1 0.291649 0.573411 0.691378
Si Si2 0.203702 0.184785 0.910489
Si Si3 0.911783 0.700202 0.287467
Si Si4 0.175724 0.392201 0.823649
Si Si5 0.588343 0.659040 0.775363
Si Si6 0.213526 0.319826 0.591125
Si Si7 0.589785 0.000000 0.088271
O O1 0.301889 0.500000 0.667009
O O2 0.225446 0.576451 0.755810
O O3 0.365814 0.603498 0.731824
O O4 0.264552 0.623328 0.626151
O O5 0.250000 0.250000 0.895705
O O6 0.264367 0.131829 0.886318
O O7 0.132635 0.175236 0.854316
O O8 0.183018 0.182529 0.000000
O O9 0.869926 0.665117 0.216744
O O10 0.906427 0.775982 0.274265
O O11 0.865558 0.680410 0.363135
O O12 0.000000 0.682692 0.290368
O O13 0.119569 0.439566 0.865217
O O14 0.500000 0.644392 0.787318
O O15 0.204787 0.326998 0.500000
O O16 0.250000 0.250000 0.606607
O O17 0.500000 0.000000 0.086634
O O18 0.617532 0.000000 0.000000
#
# Coordination Sequence:
#
# PCOD9486389 Si02
#       7
#    16  16  16  16  16  16   8
#     4  10  20  35  58  81 104 143 180 220 265 321
#     4  10  19  32  52  75 104 140 178 228 284 329
#     4  10  19  33  55  79 106 138 173 222 271 316
#     4  10  19  34  52  76 100 137 183 226 259 322
#     4  10  20  34  54  79 107 140 183 228 270 322
#     4  10  20  35  57  83 109 137 175 220 261 317
#     4  11  22  34  48  72 108 144 178 219 272 332
#
# _framework density 16.115860999999999
#
# number of rings (size 3 to 8) (size 9 to 14) (size 15 to 20)
#    0.000    1.923    3.846    0.923    0.000    1.231 
#    0.000    0.000    0.000    0.462    0.000    5.385 
#    0.000    0.000    0.000    0.000    0.000    0.000 
#
# Total GULP energy -289854.021469 kJ/mol
# GULP energy per Si atom -5574.115797 kJ/mol
# Density = 1.607918 g / cm^3
# Si number density = 16.115861 Si / 1000 Ang^3
#
#
#
# Elastic Constant Matrix: (Units=GPa)
#
#
# Indices 1 2 3 4 5 6 
#
# 1 120.7501 38.6986 51.1023 0.0000 0.0000 0.0000
# 2 38.6986 100.0602 36.4280 0.0000 0.0000 0.0000
# 3 51.1023 36.4280 84.7411 0.0000 0.0000 0.0000
# 4 0.0000 0.0000 0.0000 13.2467 0.0000 0.0000
# 5 0.0000 0.0000 0.0000 0.0000 19.0028 0.0000
# 6 0.0000 0.0000 0.0000 0.0000 0.0000 22.8688
#
#
#
# Elastic Compliance Matrix: (Units=1/GPa)
#
#
# Indices 1 2 3 4 5 6 
#
# 1 0.011545 -0.002289 -0.005978 0.000000 0.000000 0.000000
# 2 -0.002289 0.012302 -0.003908 0.000000 0.000000 0.000000
# 3 -0.005978 -0.003908 0.017086 0.000000 0.000000 0.000000
# 4 0.000000 0.000000 0.000000 0.075491 0.000000 0.000000
# 5 0.000000 0.000000 0.000000 0.000000 0.052624 0.000000
# 6 0.000000 0.000000 0.000000 0.000000 0.000000 0.043728
#
#
# Mechanical properties :
#
#
# Convention : Reuss Voigt Hill
#
# Bulk Modulus (GPa) = 60.30403 62.00103 61.15253
# Shear Modulus (GPa) = 20.60559 22.97850 21.79204
#
# Velocity S-wave (km/s) = 3.57962 3.78011 3.68123
# Velocity P-wave (km/s) = 7.38818 7.58999 7.48976
#
# Compressibility (1/GPa) = 0.01658264
#
# Stress axis : x y z
#
# Youngs Moduli (GPa) = 86.61677 81.28812 58.52800
#
# Poissons Ratio (x) = 0.18604 0.34990
# Poissons Ratio (y) = 0.19823 0.22874
# Poissons Ratio (z) = 0.51782 0.31769
#
# Static dielectric constant tensor:
#      x y z
#    x 1.520170 0.000000 0.000000 
#    y 0.000000 1.547050 0.000000 
#    z 0.000000 0.000000 1.518730 
# 
# From -- ./inp_files/54587.got.cif
#   From: 2010.05.17/outbox.cif.g08.bks.cpg/sg65_28_cif.got.tgz:54587.got - 2010.06.03 17:01:31.
