data_PCOD9486992
_publ_section_title
;
Structure prediction by ZEFSAII (Michael W. Deem and Ramdas Pophale) SiO2 
 PCOD9486992
Probable space group: C M M M
;
_chemical_formula_sum "Si O2"
_cell_formula_units_Z 64
_cell_length_a 18.297374
_cell_length_b 21.422176
_cell_length_c 7.549805
_cell_angle_alpha 90.000000
_cell_angle_beta 90.000000
_cell_angle_gamma 90.000000
_cell_volume 2959.293790
_symmetry_space_group_name_H-M "C M M M"
_symmetry_group_IT_number 65
_symmetry_cell_setting 'orthorhombic'
loop_
_space_group_symop_operation_xyz
x,y,z
-x,-y,z
x,-y,-z
-x,y,-z
-x,-y,-z
x,y,-z
-x,y,z
x,-y,z
1/2+x,1/2+y,z
1/2-x,1/2-y,z
1/2+x,1/2-y,-z
1/2-x,1/2+y,-z
1/2-x,1/2-y,-z
1/2+x,1/2+y,-z
1/2-x,1/2+y,z
1/2+x,1/2-y,z
loop_
_atom_site_type_symbol
_atom_site_label
_atom_site_fract_x
_atom_site_fract_y
_atom_site_fract_z
Si Si1 0.416609 0.623074 0.786701
Si Si2 0.915359 0.626166 0.216691
Si Si3 0.665675 0.251996 0.216729
Si Si4 0.176414 0.000000 0.704734
Si Si5 0.658043 0.000000 0.796707
O O1 0.500000 0.619438 0.721075
O O2 0.375258 0.685264 0.723970
O O3 0.371066 0.561213 0.744566
O O4 0.419971 0.627152 0.000000
O O5 0.876242 0.689727 0.274342
O O6 0.873387 0.564269 0.280030
O O7 0.000000 0.624456 0.268412
O O8 0.912936 0.627231 0.000000
O O9 0.750000 0.250000 0.272097
O O10 0.665266 0.252711 0.000000
O O11 0.254488 0.000000 0.799172
O O12 0.195360 0.000000 0.500000
O O13 0.631705 0.000000 0.000000
#
# Coordination Sequence:
#
# PCOD9486992 Si02
#       5
#    16  16  16   8   8
#     4  10  20  35  56  80 105 136 175 216 258 307
#     4   9  16  27  48  81 114 139 169 213 260 303
#     4   9  16  27  47  78 113 142 168 206 256 305
#     4  12  25  38  53  74 103 138 175 218 268 316
#     4  10  19  33  55  80 107 139 175 214 256 306
#
# _framework density 21.626783
#
# number of rings (size 3 to 8) (size 9 to 14) (size 15 to 20)
#    0.000    2.250    0.000    4.125    0.000   10.500 
#    0.000    0.000    0.000    8.250    0.000    0.000 
#    0.000    0.000    0.000    0.000    0.000    0.000 
#
# Total GULP energy -178863.488038 kJ/mol
# GULP energy per Si atom -5589.484001 kJ/mol
# Density = 2.157756 g / cm^3
# Si number density = 21.626783 Si / 1000 Ang^3
#
#
#
# Elastic Constant Matrix: (Units=GPa)
#
#
# Indices 1 2 3 4 5 6 
#
# 1 191.2479 138.8032 -7.4974 0.0000 0.0000 0.0000
# 2 138.8032 264.4317 -0.0048 0.0000 0.0000 0.0000
# 3 -7.4974 -0.0048 53.2105 0.0000 0.0000 0.0000
# 4 0.0000 0.0000 0.0000 -39.6511 0.0000 0.0000
# 5 0.0000 0.0000 0.0000 0.0000 -23.3746 0.0000
# 6 0.0000 0.0000 0.0000 0.0000 0.0000 49.9632
#
#
#
# Elastic Compliance Matrix: (Units=1/GPa)
#
#
# Indices 1 2 3 4 5 6 
#
# 1 0.008523 -0.004474 0.001200 0.000000 0.000000 0.000000
# 2 -0.004474 0.006130 -0.000630 0.000000 0.000000 0.000000
# 3 0.001200 -0.000630 0.018962 0.000000 0.000000 0.000000
# 4 0.000000 0.000000 0.000000 -0.025220 0.000000 0.000000
# 5 0.000000 0.000000 0.000000 0.000000 -0.042782 0.000000
# 6 0.000000 0.000000 0.000000 0.000000 0.000000 0.020015
#
#
# Mechanical properties :
#
#
# Convention : Reuss Voigt Hill
#
# Bulk Modulus (GPa) = 38.74605 85.72135 62.23370
# Shear Modulus (GPa) = 2454.23186 22.56013 1238.39599
#
# Velocity S-wave (km/s) = 33.72351 3.23330 23.95547
# Velocity P-wave (km/s) = 39.17041 7.32541 28.17785
#
# Compressibility (1/GPa) = 0.02580908
#
# Stress axis : x y z
#
# Youngs Moduli (GPa) = 117.33277 163.13296 52.73604
#
# Poissons Ratio (x) = 0.72980 -0.06331
# Poissons Ratio (y) = 0.52491 0.03321
# Poissons Ratio (z) = -0.14085 0.10274
#
# Static dielectric constant tensor:
#      x y z
#    x 1.746160 0.000000 0.000000 
#    y 0.000000 1.746610 0.000000 
#    z 0.000000 0.000000 1.808190 
# 
# From -- ./inp_files/8845.got.cif
#   From: 2010.05.17/outbox.cif.g08.bks.cpg/sg65_5_cif.got.tgz:8845.got - 2010.06.03 17:01:31.
