data_PCOD9486873
_publ_section_title
;
Structure prediction by ZEFSAII (Michael W. Deem and Ramdas Pophale) SiO2 
 PCOD9486873
Probable space group: C M M M
;
_chemical_formula_sum "Si O2"
_cell_formula_units_Z 72
_cell_length_a 8.560772
_cell_length_b 19.887978
_cell_length_c 24.070079
_cell_angle_alpha 90.000000
_cell_angle_beta 90.000000
_cell_angle_gamma 90.000000
_cell_volume 4098.086086
_symmetry_space_group_name_H-M "C M M M"
_symmetry_group_IT_number 65
_symmetry_cell_setting 'orthorhombic'
loop_
_space_group_symop_operation_xyz
x,y,z
-x,-y,z
x,-y,-z
-x,y,-z
-x,-y,-z
x,y,-z
-x,y,z
x,-y,z
1/2+x,1/2+y,z
1/2-x,1/2-y,z
1/2+x,1/2-y,-z
1/2-x,1/2+y,-z
1/2-x,1/2-y,-z
1/2+x,1/2+y,-z
1/2-x,1/2+y,z
1/2+x,1/2-y,z
loop_
_atom_site_type_symbol
_atom_site_label
_atom_site_fract_x
_atom_site_fract_y
_atom_site_fract_z
Si Si1 0.811906 0.673885 0.500000
Si Si2 0.811248 0.422306 0.838706
Si Si3 0.686975 0.577863 0.282110
Si Si4 0.187690 0.673613 0.378241
Si Si5 0.188788 0.325070 0.062711
O O1 0.750000 0.750000 0.500000
O O2 0.763053 0.646380 0.560310
O O3 0.000000 0.674371 0.500000
O O4 0.764949 0.500000 0.847837
O O5 0.746377 0.401035 0.778843
O O6 0.757949 0.375513 0.889261
O O7 0.000000 0.419933 0.836458
O O8 0.500000 0.579581 0.282656
O O9 0.737798 0.500000 0.290603
O O10 0.750957 0.626146 0.329736
O O11 0.250000 0.750000 0.372458
O O12 0.000000 0.675839 0.376293
O O13 0.250000 0.250000 0.072735
O O14 0.000000 0.323898 0.063667
O O15 0.236897 0.345130 0.000000
#
# Coordination Sequence:
#
# PCOD9486873 Si02
#       5
#     8  16  16  16  16
#     4   8  16  30  49  74 101 129 161 201 247 294
#     4   9  18  33  52  72  95 127 166 205 246 292
#     4  10  21  36  52  72 101 135 170 209 252 296
#     4  10  19  33  54  78 103 131 166 206 249 298
#     4   9  18  32  50  73 100 128 158 196 243 293
#
# _framework density 17.569175999999999
#
# number of rings (size 3 to 8) (size 9 to 14) (size 15 to 20)
#    0.000    2.667    0.000    1.333    0.000    4.444 
#    0.000    5.000    0.000    3.333    0.000    6.222 
#    0.000    0.000    0.000    0.000    0.000    0.000 
#
# Total GULP energy -200641.116239 kJ/mol
# GULP energy per Si atom -5573.364340 kJ/mol
# Density = 1.752919 g / cm^3
# Si number density = 17.569176 Si / 1000 Ang^3
#
#
#
# Elastic Constant Matrix: (Units=GPa)
#
#
# Indices 1 2 3 4 5 6 
#
# 1 19.4837 21.1478 37.1426 0.0000 0.0000 0.0000
# 2 21.1478 75.6041 109.8702 0.0000 0.0000 0.0000
# 3 37.1426 109.8702 220.8959 0.0000 0.0000 0.0000
# 4 0.0000 0.0000 0.0000 -769.8328 0.0000 0.0000
# 5 0.0000 0.0000 0.0000 0.0000 18.2936 0.0000
# 6 0.0000 0.0000 0.0000 0.0000 0.0000 24.0768
#
#
#
# Elastic Compliance Matrix: (Units=1/GPa)
#
#
# Indices 1 2 3 4 5 6 
#
# 1 0.077536 -0.009892 -0.008117 0.000000 0.000000 0.000000
# 2 -0.009892 0.048980 -0.022699 0.000000 0.000000 0.000000
# 3 -0.008117 -0.022699 0.017182 0.000000 0.000000 0.000000
# 4 0.000000 0.000000 0.000000 -0.001299 0.000000 0.000000
# 5 0.000000 0.000000 0.000000 0.000000 0.054664 0.000000
# 6 0.000000 0.000000 0.000000 0.000000 0.000000 0.041534
#
#
# Mechanical properties :
#
#
# Convention : Reuss Voigt Hill
#
# Bulk Modulus (GPa) = 16.05593 72.47833 44.26713
# Shear Modulus (GPa) = 14.67250 -135.63760 -60.48255
#
# Velocity S-wave (km/s) = 2.89299 -8.79600 -5.87368
# Velocity P-wave (km/s) = 4.50752 7.86237 4.55517
#
# Compressibility (1/GPa) = 0.06228227
#
# Stress axis : x y z
#
# Youngs Moduli (GPa) = 12.89723 20.41638 58.20082
#
# Poissons Ratio (x) = 0.20196 0.47243
# Poissons Ratio (y) = 0.12758 1.32109
# Poissons Ratio (z) = 0.10469 0.46343
#
# Static dielectric constant tensor:
#      x y z
#    x 1.597270 0.000000 0.000000 
#    y 0.000000 1.566750 0.000000 
#    z 0.000000 0.000000 1.613940 
# 
# From -- ./inp_files/56464.got.cif
#   From: 2010.05.17/outbox.cif.g08.bks.cpg/sg65_29_cif.got.tgz:56464.got - 2010.06.03 17:01:31.
