data_PCOD9486000
_publ_section_title
;
Structure prediction by ZEFSAII (Michael W. Deem and Ramdas Pophale) SiO2 
 PCOD9486000
Probable space group: C M M M
;
_chemical_formula_sum "Si O2"
_cell_formula_units_Z 104
_cell_length_a 19.414320
_cell_length_b 24.680481
_cell_length_c 12.676067
_cell_angle_alpha 90.000000
_cell_angle_beta 90.000000
_cell_angle_gamma 90.000000
_cell_volume 6073.797789
_symmetry_space_group_name_H-M "C M M M"
_symmetry_group_IT_number 65
_symmetry_cell_setting 'orthorhombic'
loop_
_space_group_symop_operation_xyz
x,y,z
-x,-y,z
x,-y,-z
-x,y,-z
-x,-y,-z
x,y,-z
-x,y,z
x,-y,z
1/2+x,1/2+y,z
1/2-x,1/2-y,z
1/2+x,1/2-y,-z
1/2-x,1/2+y,-z
1/2-x,1/2-y,-z
1/2+x,1/2+y,-z
1/2-x,1/2+y,z
1/2+x,1/2-y,z
loop_
_atom_site_type_symbol
_atom_site_label
_atom_site_fract_x
_atom_site_fract_y
_atom_site_fract_z
Si Si1 0.917389 0.836753 0.000000
Si Si2 0.323500 0.356147 0.193259
Si Si3 0.203728 0.563572 0.126680
Si Si4 0.417150 0.210019 0.000000
Si Si5 0.880904 0.708845 0.623901
Si Si6 0.750000 0.750000 0.256285
Si Si7 0.420116 0.133336 0.808343
Si Si8 0.922577 0.167791 0.375865
O O1 0.880928 0.860674 0.102848
O O2 0.899542 0.772720 0.000000
O O3 0.000000 0.842763 0.000000
O O4 0.264696 0.400333 0.175359
O O5 0.288132 0.296551 0.190225
O O6 0.363839 0.358152 0.304024
O O7 0.214357 0.500000 0.145046
O O8 0.131763 0.583965 0.175703
O O9 0.201861 0.572640 0.000000
O O10 0.395757 0.178009 0.104834
O O11 0.500000 0.208674 0.000000
O O12 0.881314 0.696530 0.500000
O O13 0.804571 0.719534 0.668858
O O14 0.913496 0.662355 0.695647
O O15 0.917957 0.766991 0.639747
O O16 0.500000 0.119623 0.828952
O O17 0.911709 0.157897 0.500000
O O18 0.000000 0.150427 0.346782
#
# Coordination Sequence:
#
# PCOD9486000 Si02
#       8
#     8  16  16   8  16   8  16  16
#     4  11  22  32  52  85 120 151 175 213 283 353
#     4  11  21  35  55  82 115 148 182 231 279 334
#     4  11  24  42  60  79 108 147 192 239 287 336
#     4   9  18  31  49  78 114 142 171 218 273 330
#     4  10  19  31  51  83 123 156 185 222 270 333
#     4  10  19  31  54  84 116 153 191 226 268 328
#     4  11  21  36  57  81 110 145 190 237 279 325
#     4   9  18  33  55  84 118 155 189 220 264 329
#
# _framework density 17.122731000000002
#
# number of rings (size 3 to 8) (size 9 to 14) (size 15 to 20)
#    0.000    1.692    3.077    3.000    0.000    3.385 
#    0.000    0.769    0.000    4.154    0.000    2.154 
#    0.000    0.000    0.000    0.000    0.000    0.000 
#
# Total GULP energy -290225.114044 kJ/mol
# GULP energy per Si atom -5581.252193 kJ/mol
# Density = 1.708376 g / cm^3
# Si number density = 17.122731 Si / 1000 Ang^3
#
#
#
# Elastic Constant Matrix: (Units=GPa)
#
#
# Indices 1 2 3 4 5 6 
#
# 1 128.4043 49.6926 49.2363 0.0000 0.0000 0.0000
# 2 49.6926 73.6123 40.5000 0.0000 0.0000 0.0000
# 3 49.2363 40.5000 84.6613 0.0000 0.0000 0.0000
# 4 0.0000 0.0000 0.0000 17.7007 0.0000 0.0000
# 5 0.0000 0.0000 0.0000 0.0000 20.3675 0.0000
# 6 0.0000 0.0000 0.0000 0.0000 0.0000 13.3671
#
#
#
# Elastic Compliance Matrix: (Units=1/GPa)
#
#
# Indices 1 2 3 4 5 6 
#
# 1 0.011471 -0.005528 -0.004027 0.000000 0.000000 0.000000
# 2 -0.005528 0.021102 -0.006879 0.000000 0.000000 0.000000
# 3 -0.004027 -0.006879 0.017445 0.000000 0.000000 0.000000
# 4 0.000000 0.000000 0.000000 0.056495 0.000000 0.000000
# 5 0.000000 0.000000 0.000000 0.000000 0.049098 0.000000
# 6 0.000000 0.000000 0.000000 0.000000 0.000000 0.074810
#
#
# Mechanical properties :
#
#
# Convention : Reuss Voigt Hill
#
# Bulk Modulus (GPa) = 58.31421 62.83728 60.57575
# Shear Modulus (GPa) = 18.58695 20.10367 19.34531
#
# Velocity S-wave (km/s) = 3.29829 3.43022 3.36490
# Velocity P-wave (km/s) = 6.97391 7.24337 7.10992
#
# Compressibility (1/GPa) = 0.01714848
#
# Stress axis : x y z
#
# Youngs Moduli (GPa) = 87.17283 47.38983 57.32465
#
# Poissons Ratio (x) = 0.26199 0.23083
# Poissons Ratio (y) = 0.48193 0.39435
# Poissons Ratio (z) = 0.35102 0.32601
#
# Static dielectric constant tensor:
#      x y z
#    x 1.602700 0.000000 0.000000 
#    y 0.000000 1.550810 0.000000 
#    z 0.000000 0.000000 1.586130 
# 
# From -- ./inp_files/27553.got.cif
#   From: 2010.05.17/outbox.cif.g08.bks.cpg/sg65_14_cif.got.tgz:27553.got - 2010.06.03 17:01:31.
