data_PCOD9486782
_publ_section_title
;
Structure prediction by ZEFSAII (Michael W. Deem and Ramdas Pophale) SiO2 
 PCOD9486782
Probable space group: C M M M
;
_chemical_formula_sum "Si O2"
_cell_formula_units_Z 80
_cell_length_a 7.767209
_cell_length_b 18.529607
_cell_length_c 28.868718
_cell_angle_alpha 90.000000
_cell_angle_beta 90.000000
_cell_angle_gamma 90.000000
_cell_volume 4154.882035
_symmetry_space_group_name_H-M "C M M M"
_symmetry_group_IT_number 65
_symmetry_cell_setting 'orthorhombic'
loop_
_space_group_symop_operation_xyz
x,y,z
-x,-y,z
x,-y,-z
-x,y,-z
-x,-y,-z
x,y,-z
-x,y,z
x,-y,z
1/2+x,1/2+y,z
1/2-x,1/2-y,z
1/2+x,1/2-y,-z
1/2-x,1/2+y,-z
1/2-x,1/2-y,-z
1/2+x,1/2+y,-z
1/2-x,1/2+y,z
1/2+x,1/2-y,z
loop_
_atom_site_type_symbol
_atom_site_label
_atom_site_fract_x
_atom_site_fract_y
_atom_site_fract_z
Si Si1 0.205378 0.834664 0.100562
Si Si2 0.792864 0.164809 0.000000
Si Si3 0.797529 0.413280 0.376825
Si Si4 0.793278 0.334037 0.717152
Si Si5 0.500000 0.587653 0.447232
Si Si6 0.294465 0.918650 0.193131
O O1 0.250000 0.750000 0.105605
O O2 0.271793 0.861563 0.050112
O O3 0.266727 0.879001 0.144556
O O4 0.000000 0.839887 0.099540
O O5 0.750000 0.250000 0.000000
O O6 0.000000 0.156229 0.000000
O O7 0.785393 0.500000 0.370451
O O8 0.738566 0.374231 0.329747
O O9 0.670437 0.391835 0.418390
O O10 0.000000 0.396778 0.385575
O O11 0.750000 0.250000 0.716648
O O12 0.725250 0.372635 0.763542
O O13 0.000000 0.340189 0.717843
O O14 0.500000 0.500000 0.448896
O O15 0.500000 0.614128 0.500000
O O16 0.500000 0.923458 0.199549
O O17 0.224652 0.000000 0.192616
#
# Coordination Sequence:
#
# PCOD9486782 Si02
#       6
#    16   8  16  16   8  16
#     4  10  19  33  53  77 103 134 174 219 264 320
#     4   8  16  30  49  72  99 131 169 215 265 310
#     4   9  18  34  55  80 111 147 184 225 273 322
#     4  10  21  35  54  79 104 139 176 217 265 321
#     4   9  18  32  54  86 116 144 183 228 272 318
#     4  10  21  37  54  74 106 141 174 218 271 321
#
# _framework density 19.254458
#
# number of rings (size 3 to 8) (size 9 to 14) (size 15 to 20)
#    0.000    2.500    0.000    1.800    1.400    6.400 
#    0.000    2.500    0.000    3.600    0.000    0.000 
#    0.000    0.000    0.000    0.000    0.000    0.000 
#
# Total GULP energy -223065.898311 kJ/mol
# GULP energy per Si atom -5576.647458 kJ/mol
# Density = 1.921063 g / cm^3
# Si number density = 19.254458 Si / 1000 Ang^3
#
#
#
# Elastic Constant Matrix: (Units=GPa)
#
#
# Indices 1 2 3 4 5 6 
#
# 1 52.3013 21.8498 50.1277 0.0000 0.0000 0.0000
# 2 21.8498 79.1674 82.0358 0.0000 0.0000 0.0000
# 3 50.1277 82.0358 227.4790 0.0000 0.0000 0.0000
# 4 0.0000 0.0000 0.0000 26.9733 0.0000 0.0000
# 5 0.0000 0.0000 0.0000 0.0000 42.4323 0.0000
# 6 0.0000 0.0000 0.0000 0.0000 0.0000 20.0903
#
#
#
# Elastic Compliance Matrix: (Units=1/GPa)
#
#
# Indices 1 2 3 4 5 6 
#
# 1 0.024409 -0.001857 -0.004709 0.000000 0.000000 0.000000
# 2 -0.001857 0.020310 -0.006915 0.000000 0.000000 0.000000
# 3 -0.004709 -0.006915 0.007927 0.000000 0.000000 0.000000
# 4 0.000000 0.000000 0.000000 0.037074 0.000000 0.000000
# 5 0.000000 0.000000 0.000000 0.000000 0.023567 0.000000
# 6 0.000000 0.000000 0.000000 0.000000 0.000000 0.049775
#
#
# Mechanical properties :
#
#
# Convention : Reuss Voigt Hill
#
# Bulk Modulus (GPa) = 38.93499 74.10825 56.52162
# Shear Modulus (GPa) = 25.17803 31.56149 28.36976
#
# Velocity S-wave (km/s) = 3.62006 4.05307 3.84267
# Velocity P-wave (km/s) = 6.14315 7.77661 7.00764
#
# Compressibility (1/GPa) = 0.02568384
#
# Stress axis : x y z
#
# Youngs Moduli (GPa) = 40.96811 49.23783 126.14329
#
# Poissons Ratio (x) = 0.09144 0.59403
# Poissons Ratio (y) = 0.07608 0.87228
# Poissons Ratio (z) = 0.19292 0.34048
#
# Static dielectric constant tensor:
#      x y z
#    x 1.695420 0.000000 0.000000 
#    y 0.000000 1.652230 0.000000 
#    z 0.000000 0.000000 1.689070 
# 
# From -- ./inp_files/72934.got.cif
#   From: 2010.05.17/outbox.cif.g08.bks.cpg/sg65_37_cif.got.tgz:72934.got - 2010.06.03 17:01:31.
