data_PCOD9486859
_publ_section_title
;
Structure prediction by ZEFSAII (Michael W. Deem and Ramdas Pophale) SiO2 
 PCOD9486859
Probable space group: C M M M
;
_chemical_formula_sum "Si O2"
_cell_formula_units_Z 80
_cell_length_a 27.795663
_cell_length_b 18.284916
_cell_length_c 8.418216
_cell_angle_alpha 90.000000
_cell_angle_beta 90.000000
_cell_angle_gamma 90.000000
_cell_volume 4278.485575
_symmetry_space_group_name_H-M "C M M M"
_symmetry_group_IT_number 65
_symmetry_cell_setting 'orthorhombic'
loop_
_space_group_symop_operation_xyz
x,y,z
-x,-y,z
x,-y,-z
-x,y,-z
-x,-y,-z
x,y,-z
-x,y,z
x,-y,z
1/2+x,1/2+y,z
1/2-x,1/2-y,z
1/2+x,1/2-y,-z
1/2-x,1/2+y,-z
1/2-x,1/2-y,-z
1/2+x,1/2+y,-z
1/2-x,1/2+y,z
1/2+x,1/2-y,z
loop_
_atom_site_type_symbol
_atom_site_label
_atom_site_fract_x
_atom_site_fract_y
_atom_site_fract_z
Si Si1 0.919082 0.081081 0.187672
Si Si2 0.154467 0.277938 0.185290
Si Si3 0.209529 0.582404 0.691840
Si Si4 0.317607 0.375394 0.312862
Si Si5 0.446768 0.736043 0.311883
O O1 0.861895 0.089373 0.218624
O O2 0.942186 0.149316 0.277574
O O3 0.934528 0.000000 0.238451
O O4 0.928633 0.088824 0.000000
O O5 0.177127 0.354808 0.233110
O O6 0.178694 0.211601 0.282933
O O7 0.097768 0.273288 0.223532
O O8 0.162249 0.263177 0.000000
O O9 0.206636 0.588349 0.500000
O O10 0.195695 0.500000 0.737401
O O11 0.265348 0.596135 0.734985
O O12 0.324596 0.390517 0.500000
O O13 0.441243 0.747898 0.500000
O O14 0.500000 0.760477 0.262268
#
# Coordination Sequence:
#
# PCOD9486859 Si02
#       5
#    16  16  16  16  16
#     4  10  20  32  48  74 109 144 174 210 257 304
#     4  11  22  35  54  79 107 138 170 210 260 309
#     4  10  21  36  54  77 106 140 176 214 255 299
#     4  10  19  33  54  77 104 142 183 215 246 292
#     4  10  21  37  57  77  97 129 174 219 261 307
#
# _framework density 18.698204
#
# number of rings (size 3 to 8) (size 9 to 14) (size 15 to 20)
#    0.000    1.800    0.000    7.200    0.000    8.800 
#    0.000    2.000    0.000    0.600    0.000    4.200 
#    0.000    0.000    0.000    0.000    0.000    0.000 
#
# Total GULP energy -223506.914371 kJ/mol
# GULP energy per Si atom -5587.672859 kJ/mol
# Density = 1.865565 g / cm^3
# Si number density = 18.698204 Si / 1000 Ang^3
#
#
#
# Elastic Constant Matrix: (Units=GPa)
#
#
# Indices 1 2 3 4 5 6 
#
# 1 55.5580 13.1844 -0.1809 0.0000 0.0000 0.0000
# 2 13.1844 55.7599 -8.0267 0.0000 0.0000 0.0000
# 3 -0.1809 -8.0267 21.7799 0.0000 0.0000 0.0000
# 4 0.0000 0.0000 0.0000 11.9825 0.0000 0.0000
# 5 0.0000 0.0000 0.0000 0.0000 130.1433 0.0000
# 6 0.0000 0.0000 0.0000 0.0000 0.0000 -1.4821
#
#
#
# Elastic Compliance Matrix: (Units=1/GPa)
#
#
# Indices 1 2 3 4 5 6 
#
# 1 0.019121 -0.004750 -0.001592 0.000000 0.000000 0.000000
# 2 -0.004750 0.020119 0.007375 0.000000 0.000000 0.000000
# 3 -0.001592 0.007375 0.048619 0.000000 0.000000 0.000000
# 4 0.000000 0.000000 0.000000 0.083455 0.000000 0.000000
# 5 0.000000 0.000000 0.000000 0.000000 0.007684 0.000000
# 6 0.000000 0.000000 0.000000 0.000000 0.000000 -0.674732
#
#
# Mechanical properties :
#
#
# Convention : Reuss Voigt Hill
#
# Bulk Modulus (GPa) = 11.12043 15.89462 13.50752
# Shear Modulus (GPa) = -10.68776 36.67015 12.99119
#
# Velocity S-wave (km/s) = -2.39339 4.43330 2.63873
# Velocity P-wave (km/s) = 1.29520 5.89276 4.06492
#
# Compressibility (1/GPa) = 0.08992459
#
# Stress axis : x y z
#
# Youngs Moduli (GPa) = 52.29765 49.70448 20.56823
#
# Poissons Ratio (x) = 0.23612 0.03274
# Poissons Ratio (y) = 0.24843 -0.15169
# Poissons Ratio (z) = 0.08325 -0.36658
#
# Static dielectric constant tensor:
#      x y z
#    x 1.651910 0.000000 0.000000 
#    y 0.000000 1.635210 0.000000 
#    z 0.000000 0.000000 1.630680 
# 
# From -- ./inp_files/9667.got.cif
#   From: 2010.05.17/outbox.cif.g08.bks.cpg/sg65_5_cif.got.tgz:9667.got - 2010.06.03 17:01:31.
