data_PCOD9486317
_publ_section_title
;
Structure prediction by ZEFSAII (Michael W. Deem and Ramdas Pophale) SiO2 
 PCOD9486317
Probable space group: C M M M
;
_chemical_formula_sum "Si O2"
_cell_formula_units_Z 80
_cell_length_a 10.155360
_cell_length_b 14.391424
_cell_length_c 24.646144
_cell_angle_alpha 90.000000
_cell_angle_beta 90.000000
_cell_angle_gamma 90.000000
_cell_volume 3602.036204
_symmetry_space_group_name_H-M "C M M M"
_symmetry_group_IT_number 65
_symmetry_cell_setting 'orthorhombic'
loop_
_space_group_symop_operation_xyz
x,y,z
-x,-y,z
x,-y,-z
-x,y,-z
-x,-y,-z
x,y,-z
-x,y,z
x,-y,z
1/2+x,1/2+y,z
1/2-x,1/2-y,z
1/2+x,1/2-y,-z
1/2-x,1/2+y,-z
1/2-x,1/2-y,-z
1/2+x,1/2+y,-z
1/2-x,1/2+y,z
1/2+x,1/2-y,z
loop_
_atom_site_type_symbol
_atom_site_label
_atom_site_fract_x
_atom_site_fract_y
_atom_site_fract_z
Si Si1 0.852312 0.113212 0.437453
Si Si2 0.500000 0.134953 0.936648
Si Si3 0.246535 0.861770 0.869097
Si Si4 0.000000 0.138626 0.938536
Si Si5 0.151722 0.613701 0.345217
Si Si6 0.150288 0.108430 0.748212
O O1 0.836039 0.142163 0.500000
O O2 0.732300 0.141419 0.399061
O O3 0.000000 0.141583 0.418621
O O4 0.852975 0.000000 0.436974
O O5 0.624406 0.106564 0.900673
O O6 0.500000 0.248119 0.938984
O O7 0.500000 0.105417 0.000000
O O8 0.250000 0.750000 0.869078
O O9 0.216854 0.887731 0.807370
O O10 0.125863 0.892355 0.905767
O O11 0.000000 0.107796 0.000000
O O12 0.146259 0.500000 0.344295
O O13 0.244519 0.644654 0.295368
O O14 0.000000 0.645921 0.342847
O O15 0.000000 0.148383 0.749070
O O16 0.134683 0.000000 0.734208
#
# Coordination Sequence:
#
# PCOD9486317 Si02
#       6
#    16   8  16   8  16  16
#     4   8  13  22  37  57  83 117 156 196 236 278
#     4   9  18  30  49  75  97 121 150 191 244 288
#     4  10  19  32  51  75  98 122 156 197 239 283
#     4   9  16  30  51  73  97 121 154 195 234 284
#     4   9  17  27  40  61  88 121 159 196 238 284
#     4  10  20  34  50  67  93 130 167 198 232 281
#
# _framework density 22.20966
#
# number of rings (size 3 to 8) (size 9 to 14) (size 15 to 20)
#    0.000    2.800    1.000    1.800    1.400    5.200 
#    0.000    2.000    0.000    3.600    0.000    0.000 
#    0.000    0.800    0.000    1.800    0.000    2.000 
#
# Total GULP energy -223313.849703 kJ/mol
# GULP energy per Si atom -5582.846243 kJ/mol
# Density = 2.215911 g / cm^3
# Si number density = 22.209660 Si / 1000 Ang^3
#
#
#
# Elastic Constant Matrix: (Units=GPa)
#
#
# Indices 1 2 3 4 5 6 
#
# 1 265.8183 8.9976 137.1069 0.0000 0.0000 0.0000
# 2 8.9976 77.8376 -2.6243 0.0000 0.0000 0.0000
# 3 137.1069 -2.6243 180.3777 0.0000 0.0000 0.0000
# 4 0.0000 0.0000 0.0000 15.3926 0.0000 0.0000
# 5 0.0000 0.0000 0.0000 0.0000 28.9464 0.0000
# 6 0.0000 0.0000 0.0000 0.0000 0.0000 -9.2423
#
#
#
# Elastic Compliance Matrix: (Units=1/GPa)
#
#
# Indices 1 2 3 4 5 6 
#
# 1 0.006248 -0.000883 -0.004762 0.000000 0.000000 0.000000
# 2 -0.000883 0.012978 0.000860 0.000000 0.000000 0.000000
# 3 -0.004762 0.000860 0.009176 0.000000 0.000000 0.000000
# 4 0.000000 0.000000 0.000000 0.064966 0.000000 0.000000
# 5 0.000000 0.000000 0.000000 0.000000 0.034547 0.000000
# 6 0.000000 0.000000 0.000000 0.000000 0.000000 -0.108198
#
#
# Mechanical properties :
#
#
# Convention : Reuss Voigt Hill
#
# Bulk Modulus (GPa) = 53.09981 90.11044 71.60512
# Shear Modulus (GPa) = 140.58691 32.38956 86.48823
#
# Velocity S-wave (km/s) = 7.96475 3.82298 6.24710
# Velocity P-wave (km/s) = 10.41842 7.75549 9.18398
#
# Compressibility (1/GPa) = 0.01883246
#
# Stress axis : x y z
#
# Youngs Moduli (GPa) = 160.04881 77.05170 108.97826
#
# Poissons Ratio (x) = 0.06802 0.51896
# Poissons Ratio (y) = 0.14129 -0.09370
# Poissons Ratio (z) = 0.76217 -0.06625
#
# Static dielectric constant tensor:
#      x y z
#    x 1.775680 0.000000 0.000000 
#    y 0.000000 1.901800 0.000000 
#    z 0.000000 0.000000 1.770170 
# 
# From -- ./inp_files/67362.got.cif
#   From: 2010.05.17/outbox.cif.g08.bks.cpg/sg65_34_cif.got.tgz:67362.got - 2010.06.03 17:01:31.
