data_PCOD9486845
_publ_section_title
;
Structure prediction by ZEFSAII (Michael W. Deem and Ramdas Pophale) SiO2 
 PCOD9486845
Probable space group: C M M M
;
_chemical_formula_sum "Si O2"
_cell_formula_units_Z 96
_cell_length_a 19.696538
_cell_length_b 8.346076
_cell_length_c 31.126431
_cell_angle_alpha 90.000000
_cell_angle_beta 90.000000
_cell_angle_gamma 90.000000
_cell_volume 5116.836736
_symmetry_space_group_name_H-M "C M M M"
_symmetry_group_IT_number 65
_symmetry_cell_setting 'orthorhombic'
loop_
_space_group_symop_operation_xyz
x,y,z
-x,-y,z
x,-y,-z
-x,y,-z
-x,-y,-z
x,y,-z
-x,y,z
x,-y,z
1/2+x,1/2+y,z
1/2-x,1/2-y,z
1/2+x,1/2-y,-z
1/2-x,1/2+y,-z
1/2-x,1/2-y,-z
1/2+x,1/2+y,-z
1/2-x,1/2+y,z
1/2+x,1/2-y,z
loop_
_atom_site_type_symbol
_atom_site_label
_atom_site_fract_x
_atom_site_fract_y
_atom_site_fract_z
Si Si1 0.174524 0.693585 0.549061
Si Si2 0.825884 0.190337 0.700424
Si Si3 0.422150 0.195943 0.874240
Si Si4 0.422435 0.193573 0.625265
Si Si5 0.674466 0.807739 0.203044
Si Si6 0.174445 0.306450 0.049002
O O1 0.161337 0.747281 0.500000
O O2 0.174276 0.500000 0.549120
O O3 0.250000 0.750000 0.561272
O O4 0.119125 0.749760 0.583334
O O5 0.750000 0.250000 0.689245
O O6 0.880490 0.256582 0.667125
O O7 0.840199 0.245846 0.749095
O O8 0.825753 0.000000 0.698942
O O9 0.500000 0.249561 0.873957
O O10 0.380252 0.245824 0.832099
O O11 0.380861 0.248057 0.916478
O O12 0.422629 0.000000 0.874424
O O13 0.500000 0.251354 0.625951
O O14 0.423967 0.000000 0.623790
O O15 0.750000 0.750000 0.190990
O O16 0.675033 0.000000 0.204264
O O17 0.174328 0.500000 0.049040
O O18 0.250000 0.250000 0.060977
O O19 0.160844 0.252556 0.000000
#
# Coordination Sequence:
#
# PCOD9486845 Si02
#       6
#    16  16  16  16  16  16
#     4   9  18  33  54  79 105 136 175 216 256 300
#     4  11  22  37  57  79 104 134 173 218 261 308
#     4   9  18  31  48  73 102 131 165 205 249 297
#     4  10  21  36  54  78 109 143 176 212 258 309
#     4  10  19  33  54  76  99 130 168 210 255 302
#     4   9  17  30  50  74  99 129 165 205 247 292
#
# _framework density 18.761592
#
# number of rings (size 3 to 8) (size 9 to 14) (size 15 to 20)
#    0.000    2.333    0.000    4.000    0.000    3.667 
#    0.000    5.833    0.000    4.000    0.000    5.833 
#    0.000    0.000    0.000    0.000    0.000    0.000 
#
# Total GULP energy -267962.979056 kJ/mol
# GULP energy per Si atom -5582.562064 kJ/mol
# Density = 1.871889 g / cm^3
# Si number density = 18.761592 Si / 1000 Ang^3
#
#
#
# Elastic Constant Matrix: (Units=GPa)
#
#
# Indices 1 2 3 4 5 6 
#
# 1 201.5097 18.5591 140.9632 0.0000 0.0000 0.0000
# 2 18.5591 20.4358 14.4888 0.0000 0.0000 0.0000
# 3 140.9632 14.4888 135.3987 0.0000 0.0000 0.0000
# 4 0.0000 0.0000 0.0000 8.3673 0.0000 0.0000
# 5 0.0000 0.0000 0.0000 0.0000 2.6843 0.0000
# 6 0.0000 0.0000 0.0000 0.0000 0.0000 25.5183
#
#
#
# Elastic Compliance Matrix: (Units=1/GPa)
#
#
# Indices 1 2 3 4 5 6 
#
# 1 0.018480 -0.003400 -0.018875 0.000000 0.000000 0.000000
# 2 -0.003400 0.053577 -0.002193 0.000000 0.000000 0.000000
# 3 -0.018875 -0.002193 0.027271 0.000000 0.000000 0.000000
# 4 0.000000 0.000000 0.000000 0.119513 0.000000 0.000000
# 5 0.000000 0.000000 0.000000 0.000000 0.372533 0.000000
# 6 0.000000 0.000000 0.000000 0.000000 0.000000 0.039188
#
#
# Mechanical properties :
#
#
# Convention : Reuss Voigt Hill
#
# Bulk Modulus (GPa) = 19.84516 78.37406 49.10961
# Shear Modulus (GPa) = 7.18086 19.53620 13.35853
#
# Velocity S-wave (km/s) = 1.95850 3.23040 2.67126
# Velocity P-wave (km/s) = 3.96419 7.46849 5.97884
#
# Compressibility (1/GPa) = 0.05039013
#
# Stress axis : x y z
#
# Youngs Moduli (GPa) = 54.11393 18.66488 36.66879
#
# Poissons Ratio (x) = 0.06346 0.69213
# Poissons Ratio (y) = 0.18400 0.08042
# Poissons Ratio (z) = 1.02141 0.04094
#
# Static dielectric constant tensor:
#      x y z
#    x 1.623900 0.000000 0.000000 
#    y 0.000000 1.648270 0.000000 
#    z 0.000000 0.000000 1.648670 
# 
# From -- ./inp_files/75387.got.cif
#   From: 2010.05.17/outbox.cif.g08.bks.cpg/sg65_38_cif.got.tgz:75387.got - 2010.06.03 17:01:31.
