data_PCOD9486524
_publ_section_title
;
Structure prediction by ZEFSAII (Michael W. Deem and Ramdas Pophale) SiO2 
 PCOD9486524
Probable space group: C M M M
;
_chemical_formula_sum "Si O2"
_cell_formula_units_Z 88
_cell_length_a 17.244257
_cell_length_b 16.826379
_cell_length_c 17.321704
_cell_angle_alpha 90.000000
_cell_angle_beta 90.000000
_cell_angle_gamma 90.000000
_cell_volume 5026.037985
_symmetry_space_group_name_H-M "C M M M"
_symmetry_group_IT_number 65
_symmetry_cell_setting 'orthorhombic'
loop_
_space_group_symop_operation_xyz
x,y,z
-x,-y,z
x,-y,-z
-x,y,-z
-x,-y,-z
x,y,-z
-x,y,z
x,-y,z
1/2+x,1/2+y,z
1/2-x,1/2-y,z
1/2+x,1/2-y,-z
1/2-x,1/2+y,-z
1/2-x,1/2-y,-z
1/2+x,1/2+y,-z
1/2-x,1/2+y,z
1/2+x,1/2-y,z
loop_
_atom_site_type_symbol
_atom_site_label
_atom_site_fract_x
_atom_site_fract_y
_atom_site_fract_z
Si Si1 0.409866 0.331702 0.000000
Si Si2 0.908448 0.263329 0.737994
Si Si3 0.088906 0.000000 0.593958
Si Si4 0.803505 0.173243 0.141765
Si Si5 0.594457 0.325003 0.587849
Si Si6 0.348808 0.909689 0.167985
Si Si7 0.911145 0.639105 0.000000
O O1 0.359457 0.355283 0.073963
O O2 0.500000 0.357261 0.000000
O O3 0.410323 0.235017 0.000000
O O4 0.858152 0.204993 0.790822
O O5 0.886789 0.242650 0.649929
O O6 0.889271 0.349748 0.772233
O O7 0.000000 0.248682 0.747793
O O8 0.122544 0.086738 0.614185
O O9 0.086316 0.000000 0.500000
O O10 0.000000 0.000000 0.622722
O O11 0.750000 0.250000 0.116880
O O12 0.742653 0.108370 0.169789
O O13 0.620497 0.309758 0.500000
O O14 0.500000 0.330212 0.585288
O O15 0.373440 0.889958 0.079623
O O16 0.367758 0.000000 0.185072
O O17 0.000000 0.612233 0.000000
#
# Coordination Sequence:
#
# PCOD9486524 Si02
#       7
#     8  16   8  16  16  16   8
#     4  11  18  30  55  79  99 128 167 218 270 318
#     4  10  19  32  53  79 106 134 171 219 266 311
#     4   7  10  20  40  68 102 131 155 195 251 305
#     4  10  19  33  51  70 101 138 176 205 251 316
#     4   8  14  26  47  76 107 136 168 211 264 316
#     4  11  23  36  52  74 105 143 179 218 263 309
#     4  11  20  32  54  82 103 125 168 229 278 309
#
# _framework density 17.508821999999999
#
# number of rings (size 3 to 8) (size 9 to 14) (size 15 to 20)
#    0.000    2.273    3.636    3.273    0.000    1.818 
#    1.636    0.000    0.000    7.636    0.000    2.545 
#    0.000    0.000    0.000    0.000    0.000    0.000 
#
# Total GULP energy -245104.652712 kJ/mol
# GULP energy per Si atom -5570.560289 kJ/mol
# Density = 1.746897 g / cm^3
# Si number density = 17.508822 Si / 1000 Ang^3
#
#
#
# Elastic Constant Matrix: (Units=GPa)
#
#
# Indices 1 2 3 4 5 6 
#
# 1 79.3261 11.9080 34.5690 0.0000 0.0000 0.0000
# 2 11.9080 77.8247 54.7412 0.0000 0.0000 0.0000
# 3 34.5690 54.7412 104.0200 0.0000 0.0000 0.0000
# 4 0.0000 0.0000 0.0000 20.2956 0.0000 0.0000
# 5 0.0000 0.0000 0.0000 0.0000 -32.2279 0.0000
# 6 0.0000 0.0000 0.0000 0.0000 0.0000 10.1297
#
#
#
# Elastic Compliance Matrix: (Units=1/GPa)
#
#
# Indices 1 2 3 4 5 6 
#
# 1 0.014918 0.001913 -0.005964 0.000000 0.000000 0.000000
# 2 0.001913 0.020646 -0.011501 0.000000 0.000000 0.000000
# 3 -0.005964 -0.011501 0.017648 0.000000 0.000000 0.000000
# 4 0.000000 0.000000 0.000000 0.049272 0.000000 0.000000
# 5 0.000000 0.000000 0.000000 0.000000 -0.031029 0.000000
# 6 0.000000 0.000000 0.000000 0.000000 0.000000 0.098720
#
#
# Mechanical properties :
#
#
# Convention : Reuss Voigt Hill
#
# Bulk Modulus (GPa) = 45.23359 51.51190 48.37274
# Shear Modulus (GPa) = 23.96365 10.30300 17.13332
#
# Velocity S-wave (km/s) = 3.70356 2.42842 3.13158
# Velocity P-wave (km/s) = 6.64675 6.11125 6.38462
#
# Compressibility (1/GPa) = 0.02210746
#
# Stress axis : x y z
#
# Youngs Moduli (GPa) = 67.03211 48.43470 56.66348
#
# Poissons Ratio (x) = -0.09263 0.33796
# Poissons Ratio (y) = -0.12820 0.65168
# Poissons Ratio (z) = 0.39980 0.55704
#
# Static dielectric constant tensor:
#      x y z
#    x 1.604730 0.000000 0.000000 
#    y 0.000000 1.620710 0.000000 
#    z 0.000000 0.000000 1.612710 
# 
# From -- ./inp_files/54358.got.cif
#   From: 2010.05.17/outbox.cif.g08.bks.cpg/sg65_28_cif.got.tgz:54358.got - 2010.06.03 17:01:31.
