data_PCOD9486700
_publ_section_title
;
Structure prediction by ZEFSAII (Michael W. Deem and Ramdas Pophale) SiO2 
 PCOD9486700
Probable space group: C M M M
;
_chemical_formula_sum "Si O2"
_cell_formula_units_Z 88
_cell_length_a 7.605789
_cell_length_b 30.167553
_cell_length_c 18.249281
_cell_angle_alpha 90.000000
_cell_angle_beta 90.000000
_cell_angle_gamma 90.000000
_cell_volume 4187.261807
_symmetry_space_group_name_H-M "C M M M"
_symmetry_group_IT_number 65
_symmetry_cell_setting 'orthorhombic'
loop_
_space_group_symop_operation_xyz
x,y,z
-x,-y,z
x,-y,-z
-x,y,-z
-x,-y,-z
x,y,-z
-x,y,z
x,-y,z
1/2+x,1/2+y,z
1/2-x,1/2-y,z
1/2+x,1/2-y,-z
1/2-x,1/2+y,-z
1/2-x,1/2-y,-z
1/2+x,1/2+y,-z
1/2-x,1/2+y,z
1/2+x,1/2-y,z
loop_
_atom_site_type_symbol
_atom_site_label
_atom_site_fract_x
_atom_site_fract_y
_atom_site_fract_z
Si Si1 0.714733 0.448438 0.000000
Si Si2 0.708817 0.701012 0.194878
Si Si3 0.793574 0.663930 0.345708
Si Si4 0.715831 0.396781 0.853812
Si Si5 0.215500 0.000000 0.584608
Si Si6 0.698389 0.569356 0.297020
Si Si7 0.710216 0.198763 0.500000
O O1 0.769354 0.420934 0.071850
O O2 0.771316 0.500000 0.000000
O O3 0.500000 0.449143 0.000000
O O4 0.500000 0.697714 0.197045
O O5 0.750000 0.750000 0.163907
O O6 0.775706 0.697993 0.278661
O O7 0.771576 0.655046 0.155918
O O8 0.695350 0.619937 0.322059
O O9 0.723466 0.679423 0.423737
O O10 0.000000 0.653283 0.352547
O O11 0.500000 0.396600 0.851469
O O12 0.778974 0.425910 0.783935
O O13 0.273244 0.958765 0.635553
O O14 0.276787 0.000000 0.500000
O O15 0.000000 0.000000 0.579822
O O16 0.500000 0.552376 0.286488
O O17 0.500000 0.192673 0.500000
O O18 0.750000 0.250000 0.500000
#
# Coordination Sequence:
#
# PCOD9486700 Si02
#       7
#     8  16  16  16   8  16   8
#     4   9  16  26  47  76 105 135 167 205 258 309
#     4  10  19  33  52  75 103 134 170 208 252 301
#     4  10  20  34  50  70  98 131 169 210 255 306
#     4   8  16  29  45  72 105 134 164 208 256 302
#     4   9  18  30  47  72 100 132 175 219 261 305
#     4   9  18  32  50  72 100 133 170 214 258 300
#     4  10  22  34  46  67  94 123 159 206 253 298
#
# _framework density 21.016120000000001
#
# number of rings (size 3 to 8) (size 9 to 14) (size 15 to 20)
#    0.000    2.727    0.000    2.727    2.545    2.909 
#    0.000    0.909    0.000    0.545    0.000   15.273 
#    0.000   18.182    0.000    0.000    0.000    0.000 
#
# Total GULP energy -245169.767592 kJ/mol
# GULP energy per Si atom -5572.040173 kJ/mol
# Density = 2.096829 g / cm^3
# Si number density = 21.016120 Si / 1000 Ang^3
#
#
#
# Elastic Constant Matrix: (Units=GPa)
#
#
# Indices 1 2 3 4 5 6 
#
# 1 54.2720 3.1402 4.3840 0.0000 0.0000 0.0000
# 2 3.1402 128.5436 92.8896 0.0000 0.0000 0.0000
# 3 4.3840 92.8896 204.4564 0.0000 0.0000 0.0000
# 4 0.0000 0.0000 0.0000 22.9033 0.0000 0.0000
# 5 0.0000 0.0000 0.0000 0.0000 -7.3105 0.0000
# 6 0.0000 0.0000 0.0000 0.0000 0.0000 -10.5385
#
#
#
# Elastic Compliance Matrix: (Units=1/GPa)
#
#
# Indices 1 2 3 4 5 6 
#
# 1 0.018463 -0.000246 -0.000284 0.000000 0.000000 0.000000
# 2 -0.000246 0.011585 -0.005258 0.000000 0.000000 0.000000
# 3 -0.000284 -0.005258 0.007286 0.000000 0.000000 0.000000
# 4 0.000000 0.000000 0.000000 0.043662 0.000000 0.000000
# 5 0.000000 0.000000 0.000000 0.000000 -0.136790 0.000000
# 6 0.000000 0.000000 0.000000 0.000000 0.000000 -0.094890
#
#
# Mechanical properties :
#
#
# Convention : Reuss Voigt Hill
#
# Bulk Modulus (GPa) = 38.82294 65.34440 52.08367
# Shear Modulus (GPa) = -38.30791 20.13473 -9.08659
#
# Velocity S-wave (km/s) = -4.27404 3.09861 -2.08159
# Velocity P-wave (km/s) = 2.41734 6.63038 4.36568
#
# Compressibility (1/GPa) = 0.02575797
#
# Stress axis : x y z
#
# Youngs Moduli (GPa) = 54.16276 86.31721 137.24897
#
# Poissons Ratio (x) = 0.02120 0.03902
# Poissons Ratio (y) = 0.01330 0.72168
# Poissons Ratio (z) = 0.01540 0.45387
#
# Static dielectric constant tensor:
#      x y z
#    x 1.808900 0.000000 0.000000 
#    y 0.000000 1.755580 0.000000 
#    z 0.000000 0.000000 1.534370 
# 
# From -- ./inp_files/50546.got.cif
#   From: 2010.05.17/outbox.cif.g08.bks.cpg/sg65_26_cif.got.tgz:50546.got - 2010.06.03 17:01:31.
