data_PCOD9486979
_publ_section_title
;
Structure prediction by ZEFSAII (Michael W. Deem and Ramdas Pophale) SiO2 
 PCOD9486979
Probable space group: C M M M
;
_chemical_formula_sum "Si O2"
_cell_formula_units_Z 72
_cell_length_a 7.803582
_cell_length_b 18.610796
_cell_length_c 24.016150
_cell_angle_alpha 90.000000
_cell_angle_beta 90.000000
_cell_angle_gamma 90.000000
_cell_volume 3487.886423
_symmetry_space_group_name_H-M "C M M M"
_symmetry_group_IT_number 65
_symmetry_cell_setting 'orthorhombic'
loop_
_space_group_symop_operation_xyz
x,y,z
-x,-y,z
x,-y,-z
-x,y,-z
-x,-y,-z
x,y,-z
-x,y,z
x,-y,z
1/2+x,1/2+y,z
1/2-x,1/2-y,z
1/2+x,1/2-y,-z
1/2-x,1/2+y,-z
1/2-x,1/2-y,-z
1/2+x,1/2+y,-z
1/2-x,1/2+y,z
1/2+x,1/2-y,z
loop_
_atom_site_type_symbol
_atom_site_label
_atom_site_fract_x
_atom_site_fract_y
_atom_site_fract_z
Si Si1 0.210018 0.083242 0.110579
Si Si2 0.796156 0.166397 0.779712
Si Si3 0.205381 0.580934 0.668961
Si Si4 0.293362 0.833324 0.437779
Si Si5 0.293837 0.333890 0.000000
O O1 0.270270 0.123425 0.166348
O O2 0.000000 0.083966 0.110625
O O3 0.262401 0.000000 0.109540
O O4 0.267554 0.125990 0.055696
O O5 0.750000 0.250000 0.781927
O O6 0.738818 0.129569 0.722610
O O7 0.000000 0.161130 0.781279
O O8 0.272162 0.500000 0.676654
O O9 0.272516 0.617985 0.612587
O O10 0.000000 0.576511 0.663094
O O11 0.230637 0.852307 0.500000
O O12 0.500000 0.839119 0.438669
O O13 0.250000 0.750000 0.427512
O O14 0.250000 0.250000 0.000000
O O15 0.500000 0.339526 0.000000
#
# Coordination Sequence:
#
# PCOD9486979 Si02
#       5
#    16  16  16  16   8
#     4   9  18  33  54  79 104 134 174 216 258 306
#     4  11  22  36  55  78 106 139 176 217 261 312
#     4  10  21  36  54  78 107 138 174 216 262 311
#     4   9  18  33  53  76 102 134 172 213 257 306
#     4  10  19  33  55  79 105 136 172 214 256 304
#
# _framework density 20.642873000000002
#
# number of rings (size 3 to 8) (size 9 to 14) (size 15 to 20)
#    0.000    2.222    0.000    3.000    0.000    5.778 
#    0.000    3.333    0.000    4.000    0.000    4.667 
#    0.000    0.000    0.000    0.000    0.000    0.000 
#
# Total GULP energy -201108.276450 kJ/mol
# GULP energy per Si atom -5586.341013 kJ/mol
# Density = 2.059589 g / cm^3
# Si number density = 20.642873 Si / 1000 Ang^3
#
#
#
# Elastic Constant Matrix: (Units=GPa)
#
#
# Indices 1 2 3 4 5 6 
#
# 1 27.1337 1.1964 8.0056 0.0000 0.0000 0.0000
# 2 1.1964 205.5316 140.4022 0.0000 0.0000 0.0000
# 3 8.0056 140.4022 211.7744 0.0000 0.0000 0.0000
# 4 0.0000 0.0000 0.0000 11.8356 0.0000 0.0000
# 5 0.0000 0.0000 0.0000 0.0000 22.7990 0.0000
# 6 0.0000 0.0000 0.0000 0.0000 0.0000 16.0962
#
#
#
# Elastic Compliance Matrix: (Units=1/GPa)
#
#
# Indices 1 2 3 4 5 6 
#
# 1 0.037480 0.001370 -0.002325 0.000000 0.000000 0.000000
# 2 0.001370 0.008943 -0.005981 0.000000 0.000000 0.000000
# 3 -0.002325 -0.005981 0.008775 0.000000 0.000000 0.000000
# 4 0.000000 0.000000 0.000000 0.084491 0.000000 0.000000
# 5 0.000000 0.000000 0.000000 0.000000 0.043862 0.000000
# 6 0.000000 0.000000 0.000000 0.000000 0.000000 0.062126
#
#
# Mechanical properties :
#
#
# Convention : Reuss Voigt Hill
#
# Bulk Modulus (GPa) = 24.19754 82.62759 53.41256
# Shear Modulus (GPa) = 18.29325 29.80186 24.04756
#
# Velocity S-wave (km/s) = 2.98010 3.80371 3.41681
# Velocity P-wave (km/s) = 4.85683 7.70747 6.44181
#
# Compressibility (1/GPa) = 0.04132652
#
# Stress axis : x y z
#
# Youngs Moduli (GPa) = 26.68079 111.81783 113.95843
#
# Poissons Ratio (x) = -0.15322 0.26499
# Poissons Ratio (y) = -0.03656 0.68157
# Poissons Ratio (z) = 0.06204 0.66877
#
# Static dielectric constant tensor:
#      x y z
#    x 1.769490 0.000000 0.000000 
#    y 0.000000 1.683560 0.000000 
#    z 0.000000 0.000000 1.728810 
# 
# From -- ./inp_files/67078.got.cif
#   From: 2010.05.17/outbox.cif.g08.bks.cpg/sg65_34_cif.got.tgz:67078.got - 2010.06.03 17:01:31.
