data_PCOD9486785
_publ_section_title
;
Structure prediction by ZEFSAII (Michael W. Deem and Ramdas Pophale) SiO2 
 PCOD9486785
Probable space group: C M M M
;
_chemical_formula_sum "Si O2"
_cell_formula_units_Z 80
_cell_length_a 8.158341
_cell_length_b 29.824341
_cell_length_c 15.039201
_cell_angle_alpha 90.000000
_cell_angle_beta 90.000000
_cell_angle_gamma 90.000000
_cell_volume 3659.295435
_symmetry_space_group_name_H-M "C M M M"
_symmetry_group_IT_number 65
_symmetry_cell_setting 'orthorhombic'
loop_
_space_group_symop_operation_xyz
x,y,z
-x,-y,z
x,-y,-z
-x,y,-z
-x,-y,-z
x,y,-z
-x,y,z
x,-y,z
1/2+x,1/2+y,z
1/2-x,1/2-y,z
1/2+x,1/2-y,-z
1/2-x,1/2+y,-z
1/2-x,1/2-y,-z
1/2+x,1/2+y,-z
1/2-x,1/2+y,z
1/2+x,1/2-y,z
loop_
_atom_site_type_symbol
_atom_site_label
_atom_site_fract_x
_atom_site_fract_y
_atom_site_fract_z
Si Si1 0.685843 0.104628 0.349336
Si Si2 0.000000 0.948242 0.643331
Si Si3 0.178886 0.395477 0.141282
Si Si4 0.500000 0.552412 0.861272
Si Si5 0.813519 0.798839 0.892372
Si Si6 0.304122 0.796655 0.398429
O O1 0.500000 0.100456 0.387522
O O2 0.832766 0.075360 0.388287
O O3 0.672440 0.093054 0.245678
O O4 0.740490 0.156551 0.354543
O O5 0.000000 0.945121 0.752373
O O6 0.000000 0.000000 0.619216
O O7 0.337151 0.421854 0.106203
O O8 0.208663 0.342079 0.133938
O O9 0.000000 0.406493 0.103074
O O10 0.500000 0.500000 0.885010
O O11 0.750000 0.750000 0.863414
O O12 0.000000 0.805430 0.861078
O O13 0.814228 0.798157 0.000000
O O14 0.239565 0.797676 0.500000
O O15 0.500000 0.795628 0.401534
O O16 0.250000 0.750000 0.355943
#
# Coordination Sequence:
#
# PCOD9486785 Si02
#       6
#    16   8  16   8  16  16
#     4   9  19  33  50  76 104 132 169 211 255 302
#     4   9  18  32  53  77 101 135 171 211 262 305
#     4  10  19  33  53  77 105 134 169 213 258 304
#     4   9  18  34  53  77 107 135 171 215 260 309
#     4  10  20  34  52  75 104 138 174 210 251 304
#     4   9  18  32  49  71 100 135 172 208 251 302
#
# _framework density 21.862133
#
# number of rings (size 3 to 8) (size 9 to 14) (size 15 to 20)
#    0.000    2.600    1.000    0.600    1.400    2.800 
#    0.000    6.000    0.000    2.400    0.000    4.200 
#    0.000    0.000    0.000    0.000    0.000    0.000 
#
# Total GULP energy -223212.253108 kJ/mol
# GULP energy per Si atom -5580.306328 kJ/mol
# Density = 2.181237 g / cm^3
# Si number density = 21.862133 Si / 1000 Ang^3
#
#
#
# Elastic Constant Matrix: (Units=GPa)
#
#
# Indices 1 2 3 4 5 6 
#
# 1 178.8406 102.7459 8.2467 0.0000 0.0000 0.0000
# 2 102.7459 155.8625 -5.9581 0.0000 0.0000 0.0000
# 3 8.2467 -5.9581 47.8492 0.0000 0.0000 0.0000
# 4 0.0000 0.0000 0.0000 32.9273 0.0000 0.0000
# 5 0.0000 0.0000 0.0000 0.0000 14.2482 0.0000
# 6 0.0000 0.0000 0.0000 0.0000 0.0000 35.9698
#
#
#
# Elastic Compliance Matrix: (Units=1/GPa)
#
#
# Indices 1 2 3 4 5 6 
#
# 1 0.009259 -0.006194 -0.002367 0.000000 0.000000 0.000000
# 2 -0.006194 0.010591 0.002386 0.000000 0.000000 0.000000
# 3 -0.002367 0.002386 0.021604 0.000000 0.000000 0.000000
# 4 0.000000 0.000000 0.000000 0.030370 0.000000 0.000000
# 5 0.000000 0.000000 0.000000 0.000000 0.070185 0.000000
# 6 0.000000 0.000000 0.000000 0.000000 0.000000 0.027801
#
#
# Mechanical properties :
#
#
# Convention : Reuss Voigt Hill
#
# Bulk Modulus (GPa) = 34.36004 65.84681 50.10343
# Shear Modulus (GPa) = 26.06048 35.13024 30.59536
#
# Velocity S-wave (km/s) = 3.45633 4.01296 3.74500
# Velocity P-wave (km/s) = 5.62842 7.18723 6.45506
#
# Compressibility (1/GPa) = 0.02910357
#
# Stress axis : x y z
#
# Youngs Moduli (GPa) = 107.99736 94.42388 46.28750
#
# Poissons Ratio (x) = 0.58490 0.10957
# Poissons Ratio (y) = 0.66898 -0.11046
# Poissons Ratio (z) = 0.25565 -0.22532
#
# Static dielectric constant tensor:
#      x y z
#    x 1.810380 0.000000 0.000000 
#    y 0.000000 1.759350 0.000000 
#    z 0.000000 0.000000 1.839480 
# 
# From -- ./inp_files/60074.got.cif
#   From: 2010.05.17/outbox.cif.g08.bks.cpg/sg65_31_cif.got.tgz:60074.got - 2010.06.03 17:01:31.
