data_PCOD9486826
_publ_section_title
;
Structure prediction by ZEFSAII (Michael W. Deem and Ramdas Pophale) SiO2 
 PCOD9486826
Probable space group: C M M M
;
_chemical_formula_sum "Si O2"
_cell_formula_units_Z 88
_cell_length_a 24.274264
_cell_length_b 8.503126
_cell_length_c 24.019398
_cell_angle_alpha 90.000000
_cell_angle_beta 90.000000
_cell_angle_gamma 90.000000
_cell_volume 4957.774894
_symmetry_space_group_name_H-M "C M M M"
_symmetry_group_IT_number 65
_symmetry_cell_setting 'orthorhombic'
loop_
_space_group_symop_operation_xyz
x,y,z
-x,-y,z
x,-y,-z
-x,y,-z
-x,-y,-z
x,y,-z
-x,y,z
x,-y,z
1/2+x,1/2+y,z
1/2-x,1/2-y,z
1/2+x,1/2-y,-z
1/2-x,1/2+y,-z
1/2-x,1/2-y,-z
1/2+x,1/2+y,-z
1/2-x,1/2+y,z
1/2+x,1/2-y,z
loop_
_atom_site_type_symbol
_atom_site_label
_atom_site_fract_x
_atom_site_fract_y
_atom_site_fract_z
Si Si1 0.312543 0.189346 0.000000
Si Si2 0.500000 0.308678 0.262827
Si Si3 0.187941 0.688953 0.667133
Si Si4 0.812877 0.689036 0.122081
Si Si5 0.619932 0.311175 0.773019
Si Si6 0.000000 0.811232 0.607503
Si Si7 0.384432 0.189945 0.562443
O O1 0.250000 0.250000 0.000000
O O2 0.334682 0.239049 0.060529
O O3 0.312612 0.000000 0.000000
O O4 0.500000 0.500000 0.262744
O O5 0.443407 0.257288 0.233892
O O6 0.500000 0.259884 0.327668
O O7 0.188113 0.500000 0.668724
O O8 0.250000 0.750000 0.669522
O O9 0.153687 0.751196 0.719659
O O10 0.157704 0.742076 0.610393
O O11 0.811245 0.500000 0.124321
O O12 0.750000 0.750000 0.128400
O O13 0.850697 0.751523 0.171393
O O14 0.620817 0.500000 0.772712
O O15 0.054884 0.749134 0.578211
O O16 0.000000 0.000000 0.606129
O O17 0.369593 0.241933 0.500000
O O18 0.385220 0.000000 0.563010
#
# Coordination Sequence:
#
# PCOD9486826 Si02
#       7
#     8   8  16  16  16   8  16
#     4   8  16  30  50  75 110 145 179 218 258 302
#     4   9  20  36  56  78 105 136 172 219 269 310
#     4  11  23  38  56  78 105 140 177 217 264 320
#     4  10  19  33  53  82 113 146 181 218 261 311
#     4  11  21  37  57  79 107 140 176 221 268 315
#     4  11  20  36  59  84 107 135 175 221 267 316
#     4  10  22  39  57  79 108 140 174 217 269 321
#
# _framework density 17.749898999999999
#
# number of rings (size 3 to 8) (size 9 to 14) (size 15 to 20)
#    0.000    1.818    1.818    2.727    0.000    3.273 
#    0.000    1.818    0.000    0.545    0.000    3.818 
#    0.000    0.000    0.000    0.000    0.000    0.000 
#
# Total GULP energy -245602.321499 kJ/mol
# GULP energy per Si atom -5581.870943 kJ/mol
# Density = 1.770950 g / cm^3
# Si number density = 17.749899 Si / 1000 Ang^3
#
#
#
# Elastic Constant Matrix: (Units=GPa)
#
#
# Indices 1 2 3 4 5 6 
#
# 1 142.1361 26.7555 95.9247 0.0000 0.0000 0.0000
# 2 26.7555 34.1146 36.3802 0.0000 0.0000 0.0000
# 3 95.9247 36.3802 202.4734 0.0000 0.0000 0.0000
# 4 0.0000 0.0000 0.0000 13.0268 0.0000 0.0000
# 5 0.0000 0.0000 0.0000 0.0000 24.4696 0.0000
# 6 0.0000 0.0000 0.0000 0.0000 0.0000 -1.0891
#
#
#
# Elastic Compliance Matrix: (Units=1/GPa)
#
#
# Indices 1 2 3 4 5 6 
#
# 1 0.010706 -0.003696 -0.004408 0.000000 0.000000 0.000000
# 2 -0.003696 0.037537 -0.004994 0.000000 0.000000 0.000000
# 3 -0.004408 -0.004994 0.007925 0.000000 0.000000 0.000000
# 4 0.000000 0.000000 0.000000 0.076765 0.000000 0.000000
# 5 0.000000 0.000000 0.000000 0.000000 0.040867 0.000000
# 6 0.000000 0.000000 0.000000 0.000000 0.000000 -0.918220
#
#
# Mechanical properties :
#
#
# Convention : Reuss Voigt Hill
#
# Bulk Modulus (GPa) = 33.36405 77.42720 55.39562
# Shear Modulus (GPa) = -7.05980 21.92573 7.43297
#
# Velocity S-wave (km/s) = -1.99650 3.51844 2.04859
# Velocity P-wave (km/s) = 3.67735 7.76027 6.07226
#
# Compressibility (1/GPa) = 0.02997238
#
# Stress axis : x y z
#
# Youngs Moduli (GPa) = 93.40419 26.64060 126.18952
#
# Poissons Ratio (x) = 0.09846 0.55626
# Poissons Ratio (y) = 0.34520 0.63014
# Poissons Ratio (z) = 0.41174 0.13303
#
# Static dielectric constant tensor:
#      x y z
#    x 1.568120 0.000000 0.000000 
#    y 0.000000 1.604820 0.000000 
#    z 0.000000 0.000000 1.624500 
# 
# From -- ./inp_files/65248.got.cif
#   From: 2010.05.17/outbox.cif.g08.bks.cpg/sg65_33_cif.got.tgz:65248.got - 2010.06.03 17:01:31.
