data_PCOD9486944
_publ_section_title
;
Structure prediction by ZEFSAII (Michael W. Deem and Ramdas Pophale) SiO2 
 PCOD9486944
Probable space group: C M M M
;
_chemical_formula_sum "Si O2"
_cell_formula_units_Z 50
_cell_length_a 15.692428
_cell_length_b 8.654938
_cell_length_c 21.163258
_cell_angle_alpha 90.000000
_cell_angle_beta 90.000000
_cell_angle_gamma 90.000000
_cell_volume 2874.330030
_symmetry_space_group_name_H-M "C M M M"
_symmetry_group_IT_number 65
_symmetry_cell_setting 'orthorhombic'
loop_
_space_group_symop_operation_xyz
x,y,z
-x,-y,z
x,-y,-z
-x,y,-z
-x,-y,-z
x,y,-z
-x,y,z
x,-y,z
1/2+x,1/2+y,z
1/2-x,1/2-y,z
1/2+x,1/2-y,-z
1/2-x,1/2+y,-z
1/2-x,1/2-y,-z
1/2+x,1/2+y,-z
1/2-x,1/2+y,z
1/2+x,1/2-y,z
loop_
_atom_site_type_symbol
_atom_site_label
_atom_site_fract_x
_atom_site_fract_y
_atom_site_fract_z
Si Si1 0.000000 0.829308 0.630801
Si Si2 0.500000 0.500000 0.500000
Si Si3 0.657265 0.686069 0.840302
Si Si4 0.500000 0.311880 0.072202
Si Si5 0.342735 0.184260 0.700300
O O1 0.000000 0.867905 0.556689
O O2 0.916159 0.740985 0.653571
O O3 0.000000 0.000000 0.662776
O O4 0.660368 0.500000 0.837054
O O5 0.750000 0.750000 0.858684
O O6 0.584007 0.734149 0.889044
O O7 0.638280 0.751021 0.770444
O O8 0.500000 0.500000 0.070921
O O9 0.500000 0.257270 0.000000
O O10 0.250000 0.250000 0.682005
O O11 0.338925 0.000000 0.702731
#
# Coordination Sequence:
#
# PCOD9486944 Si02
#       5
#     8   2  16   8  16
#     4  10  20  40  61  82 117 150 185 225 278 326
#     4   8  24  40  66  80 120 154 188 220 272 332
#     4  10  19  33  54  81 110 142 184 237 288 332
#     4   9  19  34  51  72 105 150 193 225 277 348
#     4  11  21  35  60  90 116 146 188 238 286 335
#
# _framework density 17.395358999999999
#
# number of rings (size 3 to 8) (size 9 to 14) (size 15 to 20)
#    0.480    1.440    0.000    7.200    0.000    1.920 
#    0.000    4.800    0.000    6.720    0.000    0.000 
#    0.000    0.000    0.000    0.000    0.000    0.000 
#
# Total GULP energy -139228.573118 kJ/mol
# GULP energy per Si atom -5569.142925 kJ/mol
# Density = 1.735577 g / cm^3
# Si number density = 17.395359 Si / 1000 Ang^3
#
#
#
# Elastic Constant Matrix: (Units=GPa)
#
#
# Indices 1 2 3 4 5 6 
#
# 1 150.1394 55.6075 125.6288 0.0000 0.0000 0.0000
# 2 55.6075 117.1655 49.3711 0.0000 0.0000 0.0000
# 3 125.6288 49.3711 135.9399 0.0000 0.0000 0.0000
# 4 0.0000 0.0000 0.0000 22.7320 0.0000 0.0000
# 5 0.0000 0.0000 0.0000 0.0000 -107.4021 0.0000
# 6 0.0000 0.0000 0.0000 0.0000 0.0000 9.7192
#
#
#
# Elastic Compliance Matrix: (Units=1/GPa)
#
#
# Indices 1 2 3 4 5 6 
#
# 1 0.030270 -0.003045 -0.026869 0.000000 0.000000 0.000000
# 2 -0.003045 0.010383 -0.000957 0.000000 0.000000 0.000000
# 3 -0.026869 -0.000957 0.032534 0.000000 0.000000 0.000000
# 4 0.000000 0.000000 0.000000 0.043991 0.000000 0.000000
# 5 0.000000 0.000000 0.000000 0.000000 -0.009311 0.000000
# 6 0.000000 0.000000 0.000000 0.000000 0.000000 0.102889
#
#
# Mechanical properties :
#
#
# Convention : Reuss Voigt Hill
#
# Bulk Modulus (GPa) = 87.35888 96.05107 91.70497
# Shear Modulus (GPa) = 18.09533 -3.48103 7.30715
#
# Velocity S-wave (km/s) = 3.22877 -1.41615 2.05177
# Velocity P-wave (km/s) = 8.01428 7.25689 7.64497
#
# Compressibility (1/GPa) = 0.01144703
#
# Stress axis : x y z
#
# Youngs Moduli (GPa) = 33.03562 96.30800 30.73664
#
# Poissons Ratio (x) = 0.29322 0.82585
# Poissons Ratio (y) = 0.10058 0.02943
# Poissons Ratio (z) = 0.88762 0.09220
#
# Static dielectric constant tensor:
#      x y z
#    x 1.538830 0.000000 0.000000 
#    y 0.000000 1.594510 0.000000 
#    z 0.000000 0.000000 1.560750 
# 
# From -- ./inp_files/62125.got.cif
#   From: 2010.05.17/outbox.cif.g08.bks.cpg/sg65_32_cif.got.tgz:62125.got - 2010.06.03 17:01:31.
