data_PCOD9486473
_publ_section_title
;
Structure prediction by ZEFSAII (Michael W. Deem and Ramdas Pophale) SiO2 
 PCOD9486473
Probable space group: C M M M
;
_chemical_formula_sum "Si O2"
_cell_formula_units_Z 64
_cell_length_a 15.247519
_cell_length_b 9.087201
_cell_length_c 23.145231
_cell_angle_alpha 90.000000
_cell_angle_beta 90.000000
_cell_angle_gamma 90.000000
_cell_volume 3206.940019
_symmetry_space_group_name_H-M "C M M M"
_symmetry_group_IT_number 65
_symmetry_cell_setting 'orthorhombic'
loop_
_space_group_symop_operation_xyz
x,y,z
-x,-y,z
x,-y,-z
-x,y,-z
-x,-y,-z
x,y,-z
-x,y,z
x,-y,z
1/2+x,1/2+y,z
1/2-x,1/2-y,z
1/2+x,1/2-y,-z
1/2-x,1/2+y,-z
1/2-x,1/2-y,-z
1/2+x,1/2+y,-z
1/2-x,1/2+y,z
1/2+x,1/2-y,z
loop_
_atom_site_type_symbol
_atom_site_label
_atom_site_fract_x
_atom_site_fract_y
_atom_site_fract_z
Si Si1 0.607368 0.330641 0.500000
Si Si2 0.607323 0.830760 0.382841
Si Si3 0.000000 0.321309 0.934262
Si Si4 0.160005 0.676574 0.852435
Si Si5 0.106361 0.169316 0.265718
O O1 0.635766 0.500000 0.500000
O O2 0.500000 0.330599 0.500000
O O3 0.635299 0.247445 0.558049
O O4 0.500000 0.830899 0.382981
O O5 0.634807 0.741747 0.326024
O O6 0.635951 0.000000 0.380526
O O7 0.084347 0.278465 0.897061
O O8 0.000000 0.500000 0.936431
O O9 0.000000 0.267034 0.000000
O O10 0.165574 0.500000 0.850695
O O11 0.250000 0.750000 0.871222
O O12 0.137829 0.737500 0.788858
O O13 0.000000 0.169888 0.265127
O O14 0.135869 0.000000 0.261269
#
# Coordination Sequence:
#
# PCOD9486473 Si02
#       5
#     8  16   8  16  16
#     4   9  15  23  35  57  94 137 184 238 295 350
#     4   9  16  25  40  64  97 139 187 237 294 355
#     4   9  20  40  65  91 123 162 199 238 289 349
#     4  11  22  38  61  89 121 158 200 244 294 350
#     4  10  19  32  52  78 110 147 192 244 298 353
#
# _framework density 19.956720000000001
#
# number of rings (size 3 to 8) (size 9 to 14) (size 15 to 20)
#    0.000    2.250    1.250    2.625    0.000    6.000 
#    0.000    0.000    0.000    5.250    0.000    0.875 
#    0.000    0.000    0.000    0.000    0.000    0.000 
#
# Total GULP energy -178840.878024 kJ/mol
# GULP energy per Si atom -5588.777438 kJ/mol
# Density = 1.991130 g / cm^3
# Si number density = 19.956720 Si / 1000 Ang^3
#
#
#
# Elastic Constant Matrix: (Units=GPa)
#
#
# Indices 1 2 3 4 5 6 
#
# 1 80.8072 45.1324 66.6534 0.0000 0.0000 0.0000
# 2 45.1324 138.8693 77.9493 0.0000 0.0000 0.0000
# 3 66.6534 77.9493 197.1624 0.0000 0.0000 0.0000
# 4 0.0000 0.0000 0.0000 5.6436 0.0000 0.0000
# 5 0.0000 0.0000 0.0000 0.0000 -16.7975 0.0000
# 6 0.0000 0.0000 0.0000 0.0000 0.0000 18.2461
#
#
#
# Elastic Compliance Matrix: (Units=1/GPa)
#
#
# Indices 1 2 3 4 5 6 
#
# 1 0.018179 -0.003160 -0.004896 0.000000 0.000000 0.000000
# 2 -0.003160 0.009804 -0.002808 0.000000 0.000000 0.000000
# 3 -0.004896 -0.002808 0.007837 0.000000 0.000000 0.000000
# 4 0.000000 0.000000 0.000000 0.177192 0.000000 0.000000
# 5 0.000000 0.000000 0.000000 0.000000 -0.059533 0.000000
# 6 0.000000 0.000000 0.000000 0.000000 0.000000 0.054806
#
#
# Mechanical properties :
#
#
# Convention : Reuss Voigt Hill
#
# Bulk Modulus (GPa) = 70.96137 88.47878 79.72008
# Shear Modulus (GPa) = 21.30279 16.55869 18.93074
#
# Velocity S-wave (km/s) = 3.27073 2.88363 3.08326
# Velocity P-wave (km/s) = 7.06388 7.45108 7.26006
#
# Compressibility (1/GPa) = 0.01409217
#
# Stress axis : x y z
#
# Youngs Moduli (GPa) = 55.00984 101.99895 127.59413
#
# Poissons Ratio (x) = 0.32228 0.62474
# Poissons Ratio (y) = 0.17381 0.35827
# Poissons Ratio (z) = 0.26935 0.28640
#
# Static dielectric constant tensor:
#      x y z
#    x 1.756530 0.000000 0.000000 
#    y 0.000000 1.669820 0.000000 
#    z 0.000000 0.000000 1.658800 
# 
# From -- ./inp_files/63233.got.cif
#   From: 2010.05.17/outbox.cif.g08.bks.cpg/sg65_32_cif.got.tgz:63233.got - 2010.06.03 17:01:31.
