data_PCOD9486265
_publ_section_title
;
Structure prediction by ZEFSAII (Michael W. Deem and Ramdas Pophale) SiO2 
 PCOD9486265
Probable space group: C M M M
;
_chemical_formula_sum "Si O2"
_cell_formula_units_Z 72
_cell_length_a 8.643321
_cell_length_b 19.851584
_cell_length_c 23.805044
_cell_angle_alpha 90.000000
_cell_angle_beta 90.000000
_cell_angle_gamma 90.000000
_cell_volume 4084.555454
_symmetry_space_group_name_H-M "C M M M"
_symmetry_group_IT_number 65
_symmetry_cell_setting 'orthorhombic'
loop_
_space_group_symop_operation_xyz
x,y,z
-x,-y,z
x,-y,-z
-x,y,-z
-x,-y,-z
x,y,-z
-x,y,z
x,-y,z
1/2+x,1/2+y,z
1/2-x,1/2-y,z
1/2+x,1/2-y,-z
1/2-x,1/2+y,-z
1/2-x,1/2-y,-z
1/2+x,1/2+y,-z
1/2-x,1/2+y,z
1/2+x,1/2-y,z
loop_
_atom_site_type_symbol
_atom_site_label
_atom_site_fract_x
_atom_site_fract_y
_atom_site_fract_z
Si Si1 0.184815 0.079301 0.619639
Si Si2 0.321828 0.918281 0.500000
Si Si3 0.811622 0.922435 0.063014
Si Si4 0.184454 0.325064 0.715650
Si Si5 0.186462 0.174964 0.163067
O O1 0.238902 0.101958 0.557625
O O2 0.262959 0.124318 0.667173
O O3 0.000000 0.084787 0.623721
O O4 0.226211 0.000000 0.626158
O O5 0.500000 0.896214 0.500000
O O6 0.319570 0.000000 0.500000
O O7 0.761277 0.873807 0.112882
O O8 0.000000 0.921773 0.063177
O O9 0.764247 0.000000 0.072069
O O10 0.762513 0.901877 0.000000
O O11 0.250000 0.250000 0.704855
O O12 0.251747 0.347197 0.776057
O O13 0.000000 0.321470 0.718915
O O14 0.250000 0.250000 0.153476
O O15 0.000000 0.176573 0.164712
#
# Coordination Sequence:
#
# PCOD9486265 Si02
#       5
#    16   8  16  16  16
#     4  10  20  35  56  81 108 139 176 215 257 308
#     4   9  17  31  52  79 110 141 174 213 257 303
#     4   8  15  29  49  73 100 130 166 208 252 299
#     4  11  22  37  55  75 104 139 175 217 265 313
#     4  10  19  32  51  74 100 132 169 209 255 307
#
# _framework density 17.627378
#
# number of rings (size 3 to 8) (size 9 to 14) (size 15 to 20)
#    0.000    2.333    0.000    5.667    0.000    4.000 
#    0.000    2.778    0.000    4.000    0.000    6.222 
#    0.000    0.000    0.000    0.000    0.000    0.000 
#
# Total GULP energy -200848.988568 kJ/mol
# GULP energy per Si atom -5579.138571 kJ/mol
# Density = 1.758726 g / cm^3
# Si number density = 17.627378 Si / 1000 Ang^3
#
#
#
# Elastic Constant Matrix: (Units=GPa)
#
#
# Indices 1 2 3 4 5 6 
#
# 1 83.2946 36.5279 56.8519 0.0000 0.0000 0.0000
# 2 36.5279 65.4848 97.7276 0.0000 0.0000 0.0000
# 3 56.8519 97.7276 194.3113 0.0000 0.0000 0.0000
# 4 0.0000 0.0000 0.0000 66.0810 0.0000 0.0000
# 5 0.0000 0.0000 0.0000 0.0000 23.9151 0.0000
# 6 0.0000 0.0000 0.0000 0.0000 0.0000 24.0675
#
#
#
# Elastic Compliance Matrix: (Units=1/GPa)
#
#
# Indices 1 2 3 4 5 6 
#
# 1 0.015922 -0.007735 -0.000768 0.000000 0.000000 0.000000
# 2 -0.007735 0.064982 -0.030419 0.000000 0.000000 0.000000
# 3 -0.000768 -0.030419 0.020670 0.000000 0.000000 0.000000
# 4 0.000000 0.000000 0.000000 0.015133 0.000000 0.000000
# 5 0.000000 0.000000 0.000000 0.000000 0.041815 0.000000
# 6 0.000000 0.000000 0.000000 0.000000 0.000000 0.041550
#
#
# Mechanical properties :
#
#
# Convention : Reuss Voigt Hill
#
# Bulk Modulus (GPa) = 42.14142 80.58951 61.36546
# Shear Modulus (GPa) = 17.49317 32.94494 25.21905
#
# Velocity S-wave (km/s) = 3.15363 4.32784 3.78653
# Velocity P-wave (km/s) = 6.10076 8.41375 7.34883
#
# Compressibility (1/GPa) = 0.02372962
#
# Stress axis : x y z
#
# Youngs Moduli (GPa) = 62.80620 15.38891 48.37870
#
# Poissons Ratio (x) = 0.11903 0.03717
# Poissons Ratio (y) = 0.48579 1.47164
# Poissons Ratio (z) = 0.04825 0.46812
#
# Static dielectric constant tensor:
#      x y z
#    x 1.598190 0.000000 0.000000 
#    y 0.000000 1.580400 0.000000 
#    z 0.000000 0.000000 1.592870 
# 
# From -- ./inp_files/59215.got.cif
#   From: 2010.05.17/outbox.cif.g08.bks.cpg/sg65_30_cif.got.tgz:59215.got - 2010.06.03 17:01:31.
