data_PCOD9486101
_publ_section_title
;
Structure prediction by ZEFSAII (Michael W. Deem and Ramdas Pophale) SiO2 
 PCOD9486101
Probable space group: C M M M
;
_chemical_formula_sum "Si O2"
_cell_formula_units_Z 96
_cell_length_a 8.636038
_cell_length_b 27.657805
_cell_length_c 24.893273
_cell_angle_alpha 90.000000
_cell_angle_beta 90.000000
_cell_angle_gamma 90.000000
_cell_volume 5945.854219
_symmetry_space_group_name_H-M "C M M M"
_symmetry_group_IT_number 65
_symmetry_cell_setting 'orthorhombic'
loop_
_space_group_symop_operation_xyz
x,y,z
-x,-y,z
x,-y,-z
-x,y,-z
-x,-y,-z
x,y,-z
-x,y,z
x,-y,z
1/2+x,1/2+y,z
1/2-x,1/2-y,z
1/2+x,1/2-y,-z
1/2-x,1/2+y,-z
1/2-x,1/2-y,-z
1/2+x,1/2+y,-z
1/2-x,1/2+y,z
1/2+x,1/2-y,z
loop_
_atom_site_type_symbol
_atom_site_label
_atom_site_fract_x
_atom_site_fract_y
_atom_site_fract_z
Si Si1 0.314659 0.942315 0.941628
Si Si2 0.184911 0.849188 0.438844
Si Si3 0.313651 0.398399 0.282923
Si Si4 0.815815 0.302506 0.333494
Si Si5 0.686221 0.443993 0.829345
Si Si6 0.185623 0.555203 0.389293
O O1 0.500000 0.937132 0.939579
O O2 0.244232 0.923500 0.886234
O O3 0.280695 0.000000 0.941944
O O4 0.260821 0.923213 0.000000
O O5 0.224452 0.836571 0.500000
O O6 0.268141 0.816538 0.394406
O O7 0.235466 0.904260 0.426213
O O8 0.000000 0.845089 0.431633
O O9 0.500000 0.401248 0.287013
O O10 0.258427 0.344586 0.297224
O O11 0.265185 0.415200 0.223673
O O12 0.240858 0.432502 0.328855
O O13 0.750000 0.250000 0.320349
O O14 0.000000 0.303575 0.328520
O O15 0.500000 0.444406 0.830492
O O16 0.738994 0.500000 0.824351
O O17 0.225527 0.500000 0.403115
O O18 0.000000 0.560791 0.392283
#
# Coordination Sequence:
#
# PCOD9486101 Si02
#       6
#    16  16  16  16  16  16
#     4   8  14  24  37  55  83 121 162 199 231 262
#     4  10  21  36  53  73  95 119 150 186 224 269
#     4  10  19  32  49  69  94 121 153 192 231 274
#     4  11  22  37  56  74  93 117 145 181 229 279
#     4   9  17  27  41  64  93 126 160 192 227 265
#     4  10  20  32  47  68  94 125 158 190 226 267
#
# _framework density 16.145703999999999
#
# number of rings (size 3 to 8) (size 9 to 14) (size 15 to 20)
#    0.000    2.333    0.000    6.000    0.000    5.667 
#    0.000    5.000    0.000    0.000    0.000    0.000 
#    0.000    0.667    0.000    2.167    0.000    3.167 
#
# Total GULP energy -267676.900948 kJ/mol
# GULP energy per Si atom -5576.602103 kJ/mol
# Density = 1.610896 g / cm^3
# Si number density = 16.145704 Si / 1000 Ang^3
#
#
#
# Elastic Constant Matrix: (Units=GPa)
#
#
# Indices 1 2 3 4 5 6 
#
# 1 27.5109 -0.9579 7.5693 0.0000 0.0000 0.0000
# 2 -0.9579 42.8933 4.9033 0.0000 0.0000 0.0000
# 3 7.5693 4.9033 101.4104 0.0000 0.0000 0.0000
# 4 0.0000 0.0000 0.0000 6.7831 0.0000 0.0000
# 5 0.0000 0.0000 0.0000 0.0000 -98.8390 0.0000
# 6 0.0000 0.0000 0.0000 0.0000 0.0000 21.8667
#
#
#
# Elastic Compliance Matrix: (Units=1/GPa)
#
#
# Indices 1 2 3 4 5 6 
#
# 1 0.037168 0.001154 -0.002830 0.000000 0.000000 0.000000
# 2 0.001154 0.023479 -0.001221 0.000000 0.000000 0.000000
# 3 -0.002830 -0.001221 0.010131 0.000000 0.000000 0.000000
# 4 0.000000 0.000000 0.000000 0.147424 0.000000 0.000000
# 5 0.000000 0.000000 0.000000 0.000000 -0.010117 0.000000
# 6 0.000000 0.000000 0.000000 0.000000 0.000000 0.045732
#
#
# Mechanical properties :
#
#
# Convention : Reuss Voigt Hill
#
# Bulk Modulus (GPa) = 15.38870 21.64933 18.51902
# Shear Modulus (GPa) = 17.77631 -3.35117 7.21257
#
# Velocity S-wave (km/s) = 3.32172 -1.44225 2.11586
# Velocity P-wave (km/s) = 4.92581 3.26564 4.17900
#
# Compressibility (1/GPa) = 0.06498273
#
# Stress axis : x y z
#
# Youngs Moduli (GPa) = 26.90488 42.59113 98.70496
#
# Poissons Ratio (x) = -0.04913 0.27934
# Poissons Ratio (y) = -0.03104 0.12055
# Poissons Ratio (z) = 0.07614 0.05202
#
# Static dielectric constant tensor:
#      x y z
#    x 1.543360 0.000000 0.000000 
#    y 0.000000 1.523690 0.000000 
#    z 0.000000 0.000000 1.562680 
# 
# From -- ./inp_files/68031.got.cif
#   From: 2010.05.17/outbox.cif.g08.bks.cpg/sg65_35_cif.got.tgz:68031.got - 2010.06.03 17:01:31.
