data_PCOD9486926
_publ_section_title
;
Structure prediction by ZEFSAII (Michael W. Deem and Ramdas Pophale) SiO2 
 PCOD9486926
Probable space group: C M M M
;
_chemical_formula_sum "Si O2"
_cell_formula_units_Z 88
_cell_length_a 19.325233
_cell_length_b 28.055029
_cell_length_c 9.041882
_cell_angle_alpha 90.000000
_cell_angle_beta 90.000000
_cell_angle_gamma 90.000000
_cell_volume 4902.236913
_symmetry_space_group_name_H-M "C M M M"
_symmetry_group_IT_number 65
_symmetry_cell_setting 'orthorhombic'
loop_
_space_group_symop_operation_xyz
x,y,z
-x,-y,z
x,-y,-z
-x,y,-z
-x,-y,-z
x,y,-z
-x,y,z
x,-y,z
1/2+x,1/2+y,z
1/2-x,1/2-y,z
1/2+x,1/2-y,-z
1/2-x,1/2+y,-z
1/2-x,1/2-y,-z
1/2+x,1/2+y,-z
1/2-x,1/2+y,z
1/2+x,1/2-y,z
loop_
_atom_site_type_symbol
_atom_site_label
_atom_site_fract_x
_atom_site_fract_y
_atom_site_fract_z
Si Si1 0.084080 0.714766 0.330331
Si Si2 0.081346 0.186994 0.177425
Si Si3 0.803368 0.555719 0.676821
Si Si4 0.078865 0.000000 0.820261
Si Si5 0.666636 0.592753 0.821332
Si Si6 0.917734 0.383488 0.824686
O O1 0.107186 0.711287 0.500000
O O2 0.104941 0.764547 0.256299
O O3 0.104507 0.668061 0.238805
O O4 0.000000 0.715202 0.329609
O O5 0.127443 0.141502 0.217884
O O6 0.000000 0.178301 0.213145
O O7 0.085084 0.193425 0.000000
O O8 0.803335 0.559882 0.500000
O O9 0.794329 0.500000 0.716071
O O10 0.740437 0.585508 0.746243
O O11 0.874057 0.576284 0.742926
O O12 0.119486 0.047567 0.776480
O O13 0.000000 0.000000 0.767145
O O14 0.076840 0.000000 0.000000
O O15 0.674268 0.591632 0.000000
O O16 0.000000 0.388770 0.798366
O O17 0.905802 0.385251 0.000000
#
# Coordination Sequence:
#
# PCOD9486926 Si02
#       6
#    16  16  16   8  16  16
#     4   9  17  31  53  81 113 147 179 216 269 329
#     4   9  17  30  51  81 114 147 186 231 275 318
#     4  11  24  40  57  78 110 149 183 221 274 332
#     4   9  16  28  51  81 108 139 186 237 277 314
#     4  10  19  33  54  79 109 147 189 232 274 320
#     4  10  21  38  62  88 110 135 174 225 275 327
#
# _framework density 17.950987999999999
#
# number of rings (size 3 to 8) (size 9 to 14) (size 15 to 20)
#    0.000    2.273    0.909    2.182    0.000    7.636 
#    0.000    2.727    0.000    7.636    0.000    0.000 
#    0.000    0.000    0.000    0.000    0.000    0.000 
#
# Total GULP energy -245543.227244 kJ/mol
# GULP energy per Si atom -5580.527892 kJ/mol
# Density = 1.791013 g / cm^3
# Si number density = 17.950988 Si / 1000 Ang^3
#
#
#
# Elastic Constant Matrix: (Units=GPa)
#
#
# Indices 1 2 3 4 5 6 
#
# 1 57.4595 37.0065 36.6920 0.0000 0.0000 0.0000
# 2 37.0065 73.9592 35.2578 0.0000 0.0000 0.0000
# 3 36.6920 35.2578 44.9404 0.0000 0.0000 0.0000
# 4 0.0000 0.0000 0.0000 26.5674 0.0000 0.0000
# 5 0.0000 0.0000 0.0000 0.0000 18.2865 0.0000
# 6 0.0000 0.0000 0.0000 0.0000 0.0000 -7.4946
#
#
#
# Elastic Compliance Matrix: (Units=1/GPa)
#
#
# Indices 1 2 3 4 5 6 
#
# 1 0.038399 -0.006817 -0.026002 0.000000 0.000000 0.000000
# 2 -0.006817 0.022810 -0.012329 0.000000 0.000000 0.000000
# 3 -0.026002 -0.012329 0.053154 0.000000 0.000000 0.000000
# 4 0.000000 0.000000 0.000000 0.037640 0.000000 0.000000
# 5 0.000000 0.000000 0.000000 0.000000 0.054685 0.000000
# 6 0.000000 0.000000 0.000000 0.000000 0.000000 -0.133429
#
#
# Mechanical properties :
#
#
# Convention : Reuss Voigt Hill
#
# Bulk Modulus (GPa) = 41.55430 43.80794 42.68112
# Shear Modulus (GPa) = 29.14114 11.96537 20.55326
#
# Velocity S-wave (km/s) = 4.03348 2.58458 3.38740
# Velocity P-wave (km/s) = 6.70007 5.77615 6.25519
#
# Compressibility (1/GPa) = 0.02406490
#
# Stress axis : x y z
#
# Youngs Moduli (GPa) = 26.04254 43.84103 18.81317
#
# Poissons Ratio (x) = 0.29889 0.48919
# Poissons Ratio (y) = 0.17754 0.23195
# Poissons Ratio (z) = 0.67717 0.54052
#
# Static dielectric constant tensor:
#      x y z
#    x 1.605010 0.000000 0.000000 
#    y 0.000000 1.596230 0.000000 
#    z 0.000000 0.000000 1.600940 
# 
# From -- ./inp_files/10030.got.cif
#   From: 2010.05.17/outbox.cif.g08.bks.cpg/sg65_6_cif.got.tgz:10030.got - 2010.06.03 17:01:31.
