data_PCOD9486941
_publ_section_title
;
Structure prediction by ZEFSAII (Michael W. Deem and Ramdas Pophale) SiO2 
 PCOD9486941
Probable space group: C M M M
;
_chemical_formula_sum "Si O2"
_cell_formula_units_Z 88
_cell_length_a 16.880913
_cell_length_b 31.795780
_cell_length_c 7.449963
_cell_angle_alpha 90.000000
_cell_angle_beta 90.000000
_cell_angle_gamma 90.000000
_cell_volume 3998.706520
_symmetry_space_group_name_H-M "C M M M"
_symmetry_group_IT_number 65
_symmetry_cell_setting 'orthorhombic'
loop_
_space_group_symop_operation_xyz
x,y,z
-x,-y,z
x,-y,-z
-x,y,-z
-x,-y,-z
x,y,-z
-x,y,z
x,-y,z
1/2+x,1/2+y,z
1/2-x,1/2-y,z
1/2+x,1/2-y,-z
1/2-x,1/2+y,-z
1/2-x,1/2-y,-z
1/2+x,1/2+y,-z
1/2-x,1/2+y,z
1/2+x,1/2-y,z
loop_
_atom_site_type_symbol
_atom_site_label
_atom_site_fract_x
_atom_site_fract_y
_atom_site_fract_z
Si Si1 0.000000 0.859767 0.783922
Si Si2 0.092317 0.000000 0.279303
Si Si3 0.500000 0.735715 0.213743
Si Si4 0.185989 0.628318 0.279952
Si Si5 0.827642 0.723670 0.713352
Si Si6 0.907616 0.454158 0.281986
Si Si7 0.154603 0.912193 0.708053
O O1 0.000000 0.812086 0.718102
O O2 0.076308 0.884679 0.719493
O O3 0.000000 0.859906 0.000000
O O4 0.135329 0.042094 0.215557
O O5 0.091855 0.000000 0.500000
O O6 0.000000 0.000000 0.226294
O O7 0.415307 0.756447 0.263270
O O8 0.500000 0.734596 0.000000
O O9 0.181457 0.629650 0.500000
O O10 0.169120 0.675623 0.217400
O O11 0.131749 0.589170 0.221282
O O12 0.273160 0.614532 0.219086
O O13 0.814782 0.720853 0.500000
O O14 0.750000 0.750000 0.781944
O O15 0.902422 0.454129 0.500000
O O16 0.874288 0.500000 0.223839
O O17 0.000000 0.453508 0.234393
O O18 0.175110 0.919860 0.500000
#
# Coordination Sequence:
#
# PCOD9486941 Si02
#       7
#     8   8   8  16  16  16  16
#     4  11  23  38  54  75 104 139 183 224 271 330
#     4   9  16  28  48  80 113 143 180 223 270 320
#     4  11  25  41  60  84 110 149 194 239 295 352
#     4   9  18  29  49  78 107 142 180 218 266 323
#     4  10  21  38  59  86 117 147 186 238 294 347
#     4   8  14  24  39  66 106 141 165 200 256 314
#     4  10  19  33  54  80 112 146 182 223 268 320
#
# _framework density 22.007116
#
# number of rings (size 3 to 8) (size 9 to 14) (size 15 to 20)
#    0.000    2.455    0.909    2.182    2.545    3.273 
#    0.000    1.818    0.000    0.000    0.000    0.000 
#    0.000    0.727    0.000    0.000    0.000    0.000 
#
# Total GULP energy -245500.968340 kJ/mol
# GULP energy per Si atom -5579.567462 kJ/mol
# Density = 2.195703 g / cm^3
# Si number density = 22.007116 Si / 1000 Ang^3
#
#
#
# Elastic Constant Matrix: (Units=GPa)
#
#
# Indices 1 2 3 4 5 6 
#
# 1 124.7243 104.6411 -15.5329 0.0000 0.0000 0.0000
# 2 104.6411 255.0063 -3.5598 0.0000 0.0000 0.0000
# 3 -15.5329 -3.5598 63.9411 0.0000 0.0000 0.0000
# 4 0.0000 0.0000 0.0000 7.6034 0.0000 0.0000
# 5 0.0000 0.0000 0.0000 0.0000 -51.1989 0.0000
# 6 0.0000 0.0000 0.0000 0.0000 0.0000 95.3269
#
#
#
# Elastic Compliance Matrix: (Units=1/GPa)
#
#
# Indices 1 2 3 4 5 6 
#
# 1 0.012709 -0.005176 0.002799 0.000000 0.000000 0.000000
# 2 -0.005176 0.006033 -0.000922 0.000000 0.000000 0.000000
# 3 0.002799 -0.000922 0.016268 0.000000 0.000000 0.000000
# 4 0.000000 0.000000 0.000000 0.131521 0.000000 0.000000
# 5 0.000000 0.000000 0.000000 0.000000 -0.019532 0.000000
# 6 0.000000 0.000000 0.000000 0.000000 0.000000 0.010490
#
#
# Mechanical properties :
#
#
# Convention : Reuss Voigt Hill
#
# Bulk Modulus (GPa) = 35.19550 68.30761 51.75155
# Shear Modulus (GPa) = 28.80911 34.22116 31.51514
#
# Velocity S-wave (km/s) = 3.62205 3.94763 3.78834
# Velocity P-wave (km/s) = 5.78963 7.20310 6.53469
#
# Compressibility (1/GPa) = 0.02841273
#
# Stress axis : x y z
#
# Youngs Moduli (GPa) = 78.68576 165.76767 61.47010
#
# Poissons Ratio (x) = 0.85800 -0.17206
# Poissons Ratio (y) = 0.40727 0.05665
# Poissons Ratio (z) = -0.22025 0.15276
#
# Static dielectric constant tensor:
#      x y z
#    x 1.769870 0.000000 0.000000 
#    y 0.000000 1.804400 0.000000 
#    z 0.000000 0.000000 1.884470 
# 
# From -- ./inp_files/10221.got.cif
#   From: 2010.05.17/outbox.cif.g08.bks.cpg/sg65_6_cif.got.tgz:10221.got - 2010.06.03 17:01:31.
