data_PCOD9486851
_publ_section_title
;
Structure prediction by ZEFSAII (Michael W. Deem and Ramdas Pophale) SiO2 
 PCOD9486851
Probable space group: C M M M
;
_chemical_formula_sum "Si O2"
_cell_formula_units_Z 88
_cell_length_a 19.148499
_cell_length_b 8.463541
_cell_length_c 29.595331
_cell_angle_alpha 90.000000
_cell_angle_beta 90.000000
_cell_angle_gamma 90.000000
_cell_volume 4796.340871
_symmetry_space_group_name_H-M "C M M M"
_symmetry_group_IT_number 65
_symmetry_cell_setting 'orthorhombic'
loop_
_space_group_symop_operation_xyz
x,y,z
-x,-y,z
x,-y,-z
-x,y,-z
-x,-y,-z
x,y,-z
-x,y,z
x,-y,z
1/2+x,1/2+y,z
1/2-x,1/2-y,z
1/2+x,1/2-y,-z
1/2-x,1/2+y,-z
1/2-x,1/2-y,-z
1/2+x,1/2+y,-z
1/2-x,1/2+y,z
1/2+x,1/2-y,z
loop_
_atom_site_type_symbol
_atom_site_label
_atom_site_fract_x
_atom_site_fract_y
_atom_site_fract_z
Si Si1 0.419564 0.193265 0.000000
Si Si2 0.172515 0.689280 0.448228
Si Si3 0.829652 0.309557 0.184763
Si Si4 0.420103 0.689122 0.632917
Si Si5 0.170298 0.310170 0.283607
Si Si6 0.670301 0.808674 0.085990
O O1 0.377831 0.244783 0.955305
O O2 0.500000 0.244219 0.000000
O O3 0.419552 0.000000 0.000000
O O4 0.157804 0.739613 0.500000
O O5 0.172976 0.500000 0.446783
O O6 0.250000 0.750000 0.436428
O O7 0.117491 0.752765 0.412460
O O8 0.830444 0.500000 0.184850
O O9 0.750000 0.250000 0.184657
O O10 0.857870 0.259106 0.233803
O O11 0.857827 0.258623 0.135709
O O12 0.500000 0.745616 0.634955
O O13 0.419822 0.500000 0.633041
O O14 0.376565 0.747951 0.675905
O O15 0.171689 0.500000 0.285167
O O16 0.250000 0.250000 0.288173
O O17 0.750000 0.750000 0.080813
O O18 0.672070 0.000000 0.085231
#
# Coordination Sequence:
#
# PCOD9486851 Si02
#       6
#     8  16  16  16  16  16
#     4   9  17  28  43  65  94 127 160 196 240 291
#     4  10  21  38  61  86 110 137 171 211 253 299
#     4   8  15  27  45  71  97 122 156 200 247 292
#     4  11  24  39  54  75 106 142 176 211 253 300
#     4  10  19  33  54  77 102 132 168 210 255 303
#     4   9  16  28  47  70  94 121 158 200 243 291
#
# _framework density 18.34732
#
# number of rings (size 3 to 8) (size 9 to 14) (size 15 to 20)
#    0.000    2.455    0.000    2.455    0.000    3.636 
#    0.000    2.727    0.000    4.364    0.000    0.000 
#    0.000    0.000    0.000    0.000    0.000    0.000 
#
# Total GULP energy -245295.326239 kJ/mol
# GULP energy per Si atom -5574.893778 kJ/mol
# Density = 1.830556 g / cm^3
# Si number density = 18.347320 Si / 1000 Ang^3
#
#
#
# Elastic Constant Matrix: (Units=GPa)
#
#
# Indices 1 2 3 4 5 6 
#
# 1 111.9336 21.3983 105.8344 0.0000 0.0000 0.0000
# 2 21.3983 24.4623 29.7667 0.0000 0.0000 0.0000
# 3 105.8344 29.7667 180.2474 0.0000 0.0000 0.0000
# 4 0.0000 0.0000 0.0000 3.1390 0.0000 0.0000
# 5 0.0000 0.0000 0.0000 0.0000 -6.0785 0.0000
# 6 0.0000 0.0000 0.0000 0.0000 0.0000 20.7238
#
#
#
# Elastic Compliance Matrix: (Units=1/GPa)
#
#
# Indices 1 2 3 4 5 6 
#
# 1 0.020406 -0.004093 -0.011306 0.000000 0.000000 0.000000
# 2 -0.004093 0.051981 -0.006181 0.000000 0.000000 0.000000
# 3 -0.011306 -0.006181 0.013207 0.000000 0.000000 0.000000
# 4 0.000000 0.000000 0.000000 0.318576 0.000000 0.000000
# 5 0.000000 0.000000 0.000000 0.000000 -0.164516 0.000000
# 6 0.000000 0.000000 0.000000 0.000000 0.000000 0.048254
#
#
# Mechanical properties :
#
#
# Convention : Reuss Voigt Hill
#
# Bulk Modulus (GPa) = 23.56572 70.07131 46.81852
# Shear Modulus (GPa) = 14.48385 14.19979 14.34182
#
# Velocity S-wave (km/s) = 2.81272 2.78500 2.79890
# Velocity P-wave (km/s) = 4.83949 6.97253 6.00153
#
# Compressibility (1/GPa) = 0.04243452
#
# Stress axis : x y z
#
# Youngs Moduli (GPa) = 49.00537 19.23783 75.71762
#
# Poissons Ratio (x) = 0.07874 0.85604
# Poissons Ratio (y) = 0.20057 0.46802
# Poissons Ratio (z) = 0.55404 0.11891
#
# Static dielectric constant tensor:
#      x y z
#    x 1.581030 0.000000 0.000000 
#    y 0.000000 1.588980 0.000000 
#    z 0.000000 0.000000 1.675780 
# 
# From -- ./inp_files/76590.got.cif
#   From: 2010.05.17/outbox.cif.g08.bks.cpg/sg65_39_cif.got.tgz:76590.got - 2010.06.03 17:01:31.
