data_PCOD9486584
_publ_section_title
;
Structure prediction by ZEFSAII (Michael W. Deem and Ramdas Pophale) SiO2 
 PCOD9486584
Probable space group: C M M M
;
_chemical_formula_sum "Si O2"
_cell_formula_units_Z 60
_cell_length_a 16.366354
_cell_length_b 14.464052
_cell_length_c 13.390989
_cell_angle_alpha 90.000000
_cell_angle_beta 90.000000
_cell_angle_gamma 90.000000
_cell_volume 3169.965739
_symmetry_space_group_name_H-M "C M M M"
_symmetry_group_IT_number 65
_symmetry_cell_setting 'orthorhombic'
loop_
_space_group_symop_operation_xyz
x,y,z
-x,-y,z
x,-y,-z
-x,y,-z
-x,-y,-z
x,y,-z
-x,y,z
x,-y,z
1/2+x,1/2+y,z
1/2-x,1/2-y,z
1/2+x,1/2-y,-z
1/2-x,1/2+y,-z
1/2-x,1/2-y,-z
1/2+x,1/2+y,-z
1/2-x,1/2+y,z
1/2+x,1/2-y,z
loop_
_atom_site_type_symbol
_atom_site_label
_atom_site_fract_x
_atom_site_fract_y
_atom_site_fract_z
Si Si1 0.404096 0.296675 0.117315
Si Si2 0.000000 0.500000 0.764105
Si Si3 0.000000 0.327312 0.613005
Si Si4 0.823356 0.500000 0.762959
Si Si5 0.667344 0.202609 0.693915
Si Si6 0.843837 0.000000 0.881131
O O1 0.500000 0.274155 0.129537
O O2 0.350968 0.235720 0.192489
O O3 0.389388 0.404443 0.144681
O O4 0.383307 0.284084 0.000000
O O5 0.000000 0.589390 0.692698
O O6 0.912316 0.500000 0.817637
O O7 0.084637 0.274347 0.634003
O O8 0.000000 0.361899 0.500000
O O9 0.820704 0.407473 0.697196
O O10 0.745621 0.500000 0.833826
O O11 0.750000 0.250000 0.657785
O O12 0.837001 0.000000 0.000000
#
# Coordination Sequence:
#
# PCOD9486584 Si02
#       6
#    16   4   8   8  16   8
#     4  10  20  35  55  82 113 148 190 228 270 326
#     4   8  19  36  57  76 106 146 181 218 278 334
#     4  10  21  38  59  84 109 139 185 236 279 333
#     4  10  20  34  51  79 111 141 185 221 265 333
#     4  11  21  36  59  82 111 149 183 226 284 328
#     4  10  19  32  54  81 110 148 191 229 264 317
#
# _framework density 18.927651000000001
#
# number of rings (size 3 to 8) (size 9 to 14) (size 15 to 20)
#    0.000    1.867    4.000    0.600    0.000    3.733 
#    0.000    0.333    0.000    0.000    0.000    4.667 
#    0.000    0.000    0.000    0.000    0.000    0.000 
#
# Total GULP energy -167292.364854 kJ/mol
# GULP energy per Si atom -5576.412162 kJ/mol
# Density = 1.888457 g / cm^3
# Si number density = 18.927651 Si / 1000 Ang^3
#
#
#
# Elastic Constant Matrix: (Units=GPa)
#
#
# Indices 1 2 3 4 5 6 
#
# 1 129.3266 33.4164 6.0837 0.0000 0.0000 0.0000
# 2 33.4164 66.5557 14.6018 0.0000 0.0000 0.0000
# 3 6.0837 14.6018 28.4686 0.0000 0.0000 0.0000
# 4 0.0000 0.0000 0.0000 -0.0915 0.0000 0.0000
# 5 0.0000 0.0000 0.0000 0.0000 4.2899 0.0000
# 6 0.0000 0.0000 0.0000 0.0000 0.0000 27.8069
#
#
#
# Elastic Compliance Matrix: (Units=1/GPa)
#
#
# Indices 1 2 3 4 5 6 
#
# 1 0.008890 -0.004560 0.000439 0.000000 0.000000 0.000000
# 2 -0.004560 0.019269 -0.008909 0.000000 0.000000 0.000000
# 3 0.000439 -0.008909 0.039602 0.000000 0.000000 0.000000
# 4 0.000000 0.000000 0.000000-10.924553 0.000000 0.000000
# 5 0.000000 0.000000 0.000000 0.000000 0.233107 0.000000
# 6 0.000000 0.000000 0.000000 0.000000 0.000000 0.035962
#
#
# Mechanical properties :
#
#
# Convention : Reuss Voigt Hill
#
# Bulk Modulus (GPa) = 23.97983 36.95051 30.46517
# Shear Modulus (GPa) = -0.47403 17.75098 8.63847
#
# Velocity S-wave (km/s) = -0.50099 3.06573 2.13866
# Velocity P-wave (km/s) = 3.51597 5.66533 4.71476
#
# Compressibility (1/GPa) = 0.04170172
#
# Stress axis : x y z
#
# Youngs Moduli (GPa) = 112.48727 51.89711 25.25123
#
# Poissons Ratio (x) = 0.23664 -0.01109
# Poissons Ratio (y) = 0.51292 0.22496
# Poissons Ratio (z) = -0.04938 0.46234
#
# Static dielectric constant tensor:
#      x y z
#    x 1.702500 0.000000 0.000000 
#    y 0.000000 1.679550 0.000000 
#    z 0.000000 0.000000 1.630710 
# 
# From -- ./inp_files/39587.got.cif
#   From: 2010.05.17/outbox.cif.g08.bks.cpg/sg65_20_cif.got.tgz:39587.got - 2010.06.03 17:01:31.
