data_PCOD9486269
_publ_section_title
;
Structure prediction by ZEFSAII (Michael W. Deem and Ramdas Pophale) SiO2 
 PCOD9486269
Probable space group: C M M M
;
_chemical_formula_sum "Si O2"
_cell_formula_units_Z 88
_cell_length_a 7.757570
_cell_length_b 30.657357
_cell_length_c 18.077368
_cell_angle_alpha 90.000000
_cell_angle_beta 90.000000
_cell_angle_gamma 90.000000
_cell_volume 4299.278841
_symmetry_space_group_name_H-M "C M M M"
_symmetry_group_IT_number 65
_symmetry_cell_setting 'orthorhombic'
loop_
_space_group_symop_operation_xyz
x,y,z
-x,-y,z
x,-y,-z
-x,y,-z
-x,-y,-z
x,y,-z
-x,y,z
x,-y,z
1/2+x,1/2+y,z
1/2-x,1/2-y,z
1/2+x,1/2-y,-z
1/2-x,1/2+y,-z
1/2-x,1/2-y,-z
1/2+x,1/2+y,-z
1/2-x,1/2+y,z
1/2+x,1/2-y,z
loop_
_atom_site_type_symbol
_atom_site_label
_atom_site_fract_x
_atom_site_fract_y
_atom_site_fract_z
Si Si1 0.788550 0.449133 0.000000
Si Si2 0.800511 0.701246 0.182380
Si Si3 0.708857 0.672328 0.340403
Si Si4 0.793674 0.396258 0.855974
Si Si5 0.788491 0.000000 0.586133
Si Si6 0.707122 0.574847 0.301942
Si Si7 0.793584 0.199921 0.500000
O O1 0.730981 0.421958 0.927986
O O2 0.734685 0.500000 0.000000
O O3 0.000000 0.449542 0.000000
O O4 0.750000 0.750000 0.155881
O O5 0.774615 0.699922 0.271171
O O6 0.724058 0.653953 0.155019
O O7 0.000000 0.698186 0.164888
O O8 0.500000 0.675743 0.339331
O O9 0.760757 0.622945 0.325448
O O10 0.773415 0.683121 0.421848
O O11 0.759751 0.426214 0.783765
O O12 0.000000 0.392347 0.862264
O O13 0.731815 0.959182 0.636559
O O14 0.732530 0.000000 0.500000
O O15 0.000000 0.000000 0.583671
O O16 0.500000 0.572215 0.303000
O O17 0.750000 0.250000 0.500000
O O18 0.000000 0.191989 0.500000
#
# Coordination Sequence:
#
# PCOD9486269 Si02
#       7
#     8  16  16  16   8  16   8
#     4   9  18  34  58  83 105 135 173 209 250 305
#     4  10  19  32  51  74 101 132 167 206 250 301
#     4   9  18  31  47  67  94 129 168 209 252 299
#     4   9  19  35  55  80 106 134 171 213 254 303
#     4   9  18  30  49  76 103 136 178 217 253 301
#     4   9  18  32  51  74 102 135 171 212 255 302
#     4  10  20  30  42  63  89 119 159 206 252 294
#
# _framework density 20.468548999999999
#
# number of rings (size 3 to 8) (size 9 to 14) (size 15 to 20)
#    0.000    2.727    0.000    1.091    2.545    2.909 
#    0.000    0.909    0.000    1.636    0.000    0.000 
#    0.000    0.000    0.000    0.000    0.000    0.000 
#
# Total GULP energy -245039.005017 kJ/mol
# GULP energy per Si atom -5569.068296 kJ/mol
# Density = 2.042196 g / cm^3
# Si number density = 20.468549 Si / 1000 Ang^3
#
#
#
# Elastic Constant Matrix: (Units=GPa)
#
#
# Indices 1 2 3 4 5 6 
#
# 1 18.7233 9.3432 1.0984 0.0000 0.0000 0.0000
# 2 9.3432 141.1083 89.7073 0.0000 0.0000 0.0000
# 3 1.0984 89.7073 175.2944 0.0000 0.0000 0.0000
# 4 0.0000 0.0000 0.0000 -13.8243 0.0000 0.0000
# 5 0.0000 0.0000 0.0000 0.0000 14.8759 0.0000
# 6 0.0000 0.0000 0.0000 0.0000 0.0000 9.5867
#
#
#
# Elastic Compliance Matrix: (Units=1/GPa)
#
#
# Indices 1 2 3 4 5 6 
#
# 1 0.055846 -0.005151 0.002286 0.000000 0.000000 0.000000
# 2 -0.005151 0.010979 -0.005586 0.000000 0.000000 0.000000
# 3 0.002286 -0.005586 0.008549 0.000000 0.000000 0.000000
# 4 0.000000 0.000000 0.000000 -0.072337 0.000000 0.000000
# 5 0.000000 0.000000 0.000000 0.000000 0.067223 0.000000
# 6 0.000000 0.000000 0.000000 0.000000 0.000000 0.104311
#
#
# Mechanical properties :
#
#
# Convention : Reuss Voigt Hill
#
# Bulk Modulus (GPa) = 17.10237 59.49155 38.29696
# Shear Modulus (GPa) = 23.70069 17.79281 20.74675
#
# Velocity S-wave (km/s) = 3.40650 2.95155 3.18715
# Velocity P-wave (km/s) = 4.88322 6.38306 5.68284
#
# Compressibility (1/GPa) = 0.05847143
#
# Stress axis : x y z
#
# Youngs Moduli (GPa) = 17.90651 91.08064 116.96978
#
# Poissons Ratio (x) = 0.46916 -0.26741
# Poissons Ratio (y) = 0.09224 0.65344
# Poissons Ratio (z) = -0.04094 0.50881
#
# Static dielectric constant tensor:
#      x y z
#    x 1.172530 0.000000 0.000000 
#    y 0.000000 1.761890 0.000000 
#    z 0.000000 0.000000 1.650500 
# 
# From -- ./inp_files/50549.got.cif
#   From: 2010.05.17/outbox.cif.g08.bks.cpg/sg65_26_cif.got.tgz:50549.got - 2010.06.03 17:01:31.
