data_PCOD9486084
_publ_section_title
;
Structure prediction by ZEFSAII (Michael W. Deem and Ramdas Pophale) SiO2 
 PCOD9486084
Probable space group: C M M M
;
_chemical_formula_sum "Si O2"
_cell_formula_units_Z 104
_cell_length_a 29.479193
_cell_length_b 29.069676
_cell_length_c 9.265097
_cell_angle_alpha 90.000000
_cell_angle_beta 90.000000
_cell_angle_gamma 90.000000
_cell_volume 7939.730334
_symmetry_space_group_name_H-M "C M M M"
_symmetry_group_IT_number 65
_symmetry_cell_setting 'orthorhombic'
loop_
_space_group_symop_operation_xyz
x,y,z
-x,-y,z
x,-y,-z
-x,y,-z
-x,-y,-z
x,y,-z
-x,y,z
x,-y,z
1/2+x,1/2+y,z
1/2-x,1/2-y,z
1/2+x,1/2-y,-z
1/2-x,1/2+y,-z
1/2-x,1/2-y,-z
1/2+x,1/2+y,-z
1/2-x,1/2+y,z
1/2+x,1/2-y,z
loop_
_atom_site_type_symbol
_atom_site_label
_atom_site_fract_x
_atom_site_fract_y
_atom_site_fract_z
Si Si1 0.713260 0.791539 0.335240
Si Si2 0.553432 0.686178 0.827879
Si Si3 0.171193 0.053643 0.828058
Si Si4 0.853690 0.228508 0.828745
Si Si5 0.000000 0.946694 0.839585
Si Si6 0.583228 0.406752 0.672501
Si Si7 0.717662 0.352190 0.828805
O O1 0.702860 0.803387 0.500000
O O2 0.750000 0.750000 0.334894
O O3 0.670247 0.769943 0.254720
O O4 0.739077 0.832546 0.254546
O O5 0.500000 0.695631 0.796922
O O6 0.592562 0.723990 0.800881
O O7 0.571696 0.643695 0.734270
O O8 0.556430 0.675481 0.000000
O O9 0.128676 0.070740 0.735119
O O10 0.207715 0.094109 0.800804
O O11 0.182705 0.000000 0.797867
O O12 0.159988 0.056337 0.000000
O O13 0.825925 0.180907 0.791739
O O14 0.847229 0.234804 0.000000
O O15 0.043007 0.934962 0.744667
O O16 0.000000 0.000000 0.862461
O O17 0.000000 0.923813 0.000000
O O18 0.583128 0.406948 0.500000
O O19 0.724528 0.346519 0.000000
#
# Coordination Sequence:
#
# PCOD9486084 Si02
#       7
#    16  16  16  16   8  16  16
#     4   9  17  27  41  63  85 105 127 160 209 254
#     4  10  19  32  49  63  80 109 142 171 207 255
#     4  10  20  34  49  62  79 108 142 171 207 255
#     4   9  16  28  45  63  81 104 135 170 204 244
#     4  11  23  37  49  55  65  93 133 175 217 261
#     4  12  23  32  44  61  80 100 129 174 221 256
#     4   9  16  28  45  63  81 104 135 170 204 244
#
# _framework density 13.098682
#
# number of rings (size 3 to 8) (size 9 to 14) (size 15 to 20)
#    0.000    2.077    2.308    2.538    0.000    5.846 
#    0.000    0.000    0.000    0.000    0.000    0.000 
#    0.000    0.000    0.000    0.000    0.000    0.769 
#
# Total GULP energy -289503.127384 kJ/mol
# GULP energy per Si atom -5567.367834 kJ/mol
# Density = 1.306887 g / cm^3
# Si number density = 13.098682 Si / 1000 Ang^3
#
#
#
# Elastic Constant Matrix: (Units=GPa)
#
#
# Indices 1 2 3 4 5 6 
#
# 1 80.3011 60.2805 52.0120 0.0000 0.0000 0.0000
# 2 60.2805 71.4420 51.9166 0.0000 0.0000 0.0000
# 3 52.0120 51.9166 55.7584 0.0000 0.0000 0.0000
# 4 0.0000 0.0000 0.0000 46.7821 0.0000 0.0000
# 5 0.0000 0.0000 0.0000 0.0000 -17.3279 0.0000
# 6 0.0000 0.0000 0.0000 0.0000 0.0000 -74.9872
#
#
#
# Elastic Compliance Matrix: (Units=1/GPa)
#
#
# Indices 1 2 3 4 5 6 
#
# 1 0.038905 -0.019959 -0.017707 0.000000 0.000000 0.000000
# 2 -0.019959 0.053525 -0.031218 0.000000 0.000000 0.000000
# 3 -0.017707 -0.031218 0.063519 0.000000 0.000000 0.000000
# 4 0.000000 0.000000 0.000000 0.021376 0.000000 0.000000
# 5 0.000000 0.000000 0.000000 0.000000 -0.057710 0.000000
# 6 0.000000 0.000000 0.000000 0.000000 0.000000 -0.013336
#
#
# Mechanical properties :
#
#
# Convention : Reuss Voigt Hill
#
# Bulk Modulus (GPa) = 55.00715 59.54661 57.27688
# Shear Modulus (GPa) = 19.99125 -6.22043 6.88541
#
# Velocity S-wave (km/s) = 3.91090 -2.18156 2.29521
# Velocity P-wave (km/s) = 7.90437 6.26203 7.13065
#
# Compressibility (1/GPa) = 0.01817946
#
# Stress axis : x y z
#
# Youngs Moduli (GPa) = 25.70332 18.68292 15.74322
#
# Poissons Ratio (x) = 0.37290 0.27877
# Poissons Ratio (y) = 0.51302 0.49148
# Poissons Ratio (z) = 0.45513 0.58325
#
# Static dielectric constant tensor:
#      x y z
#    x 1.623310 0.000000 0.000000 
#    y 0.000000 1.437330 0.000000 
#    z 0.000000 0.000000 1.439870 
# 
# From -- ./inp_files/17236.got.cif
#   From: 2010.05.17/outbox.cif.g08.bks.cpg/sg65_9_cif.got.tgz:17236.got - 2010.06.03 17:01:31.
