data_PCOD9486073
_publ_section_title
;
Structure prediction by ZEFSAII (Michael W. Deem and Ramdas Pophale) SiO2 
 PCOD9486073
Probable space group: C M M M
;
_chemical_formula_sum "Si O2"
_cell_formula_units_Z 88
_cell_length_a 28.103097
_cell_length_b 8.603057
_cell_length_c 21.833622
_cell_angle_alpha 90.000000
_cell_angle_beta 90.000000
_cell_angle_gamma 90.000000
_cell_volume 5278.770366
_symmetry_space_group_name_H-M "C M M M"
_symmetry_group_IT_number 65
_symmetry_cell_setting 'orthorhombic'
loop_
_space_group_symop_operation_xyz
x,y,z
-x,-y,z
x,-y,-z
-x,y,-z
-x,-y,-z
x,y,-z
-x,y,z
x,-y,z
1/2+x,1/2+y,z
1/2-x,1/2-y,z
1/2+x,1/2-y,-z
1/2-x,1/2+y,-z
1/2-x,1/2-y,-z
1/2+x,1/2+y,-z
1/2-x,1/2+y,z
1/2+x,1/2-y,z
loop_
_atom_site_type_symbol
_atom_site_label
_atom_site_fract_x
_atom_site_fract_y
_atom_site_fract_z
Si Si1 0.696753 0.813789 0.430208
Si Si2 0.146494 0.184566 0.687400
Si Si3 0.197777 0.313467 0.192854
Si Si4 0.396559 0.188665 0.874243
Si Si5 0.944565 0.309587 0.000000
Si Si6 0.554216 0.187870 0.747855
O O1 0.682839 0.772140 0.500000
O O2 0.750000 0.750000 0.420261
O O3 0.663207 0.744767 0.378289
O O4 0.697551 0.000000 0.425302
O O5 0.179919 0.256468 0.740623
O O6 0.093216 0.238346 0.703606
O O7 0.150346 0.000000 0.690313
O O8 0.198882 0.500000 0.193520
O O9 0.250000 0.250000 0.179313
O O10 0.156753 0.262399 0.144838
O O11 0.417472 0.243126 0.938657
O O12 0.430359 0.231083 0.817133
O O13 0.396052 0.000000 0.876608
O O14 0.944218 0.500000 0.000000
O O15 0.000000 0.263244 0.000000
O O16 0.500000 0.233242 0.735690
O O17 0.557750 0.000000 0.743673
#
# Coordination Sequence:
#
# PCOD9486073 Si02
#       6
#    16  16  16  16   8  16
#     4  10  20  34  52  74 101 131 161 193 233 282
#     4  11  21  32  49  73 100 128 160 198 240 284
#     4  10  19  32  48  67  94 126 162 200 241 287
#     4   8  15  26  42  67  96 124 155 195 240 286
#     4   9  14  22  41  68  95 121 153 195 242 289
#     4   9  17  31  50  71  97 128 162 200 242 286
#
# _framework density 16.670549999999999
#
# number of rings (size 3 to 8) (size 9 to 14) (size 15 to 20)
#    0.000    2.455    0.000    4.909    0.000    3.636 
#    0.000    0.455    0.000    0.545    0.000   19.091 
#    0.000   24.000    0.000    0.000    0.000    0.000 
#
# Total GULP energy -245425.644570 kJ/mol
# GULP energy per Si atom -5577.855558 kJ/mol
# Density = 1.663261 g / cm^3
# Si number density = 16.670550 Si / 1000 Ang^3
#
#
#
# Elastic Constant Matrix: (Units=GPa)
#
#
# Indices 1 2 3 4 5 6 
#
# 1 148.7968 39.7126 94.0239 0.0000 0.0000 0.0000
# 2 39.7126 47.9600 37.6218 0.0000 0.0000 0.0000
# 3 94.0239 37.6218 146.5734 0.0000 0.0000 0.0000
# 4 0.0000 0.0000 0.0000 8.2195 0.0000 0.0000
# 5 0.0000 0.0000 0.0000 0.0000 18.8811 0.0000
# 6 0.0000 0.0000 0.0000 0.0000 0.0000 25.5910
#
#
#
# Elastic Compliance Matrix: (Units=1/GPa)
#
#
# Indices 1 2 3 4 5 6 
#
# 1 0.012173 -0.004951 -0.006538 0.000000 0.000000 0.000000
# 2 -0.004951 0.028121 -0.004042 0.000000 0.000000 0.000000
# 3 -0.006538 -0.004042 0.012054 0.000000 0.000000 0.000000
# 4 0.000000 0.000000 0.000000 0.121661 0.000000 0.000000
# 5 0.000000 0.000000 0.000000 0.000000 0.052963 0.000000
# 6 0.000000 0.000000 0.000000 0.000000 0.000000 0.039076
#
#
# Mechanical properties :
#
#
# Convention : Reuss Voigt Hill
#
# Bulk Modulus (GPa) = 46.97905 76.22740 61.60322
# Shear Modulus (GPa) = 16.43617 22.00311 19.21964
#
# Velocity S-wave (km/s) = 3.14337 3.63696 3.39914
# Velocity P-wave (km/s) = 6.43556 7.96628 7.24148
#
# Compressibility (1/GPa) = 0.02128608
#
# Stress axis : x y z
#
# Youngs Moduli (GPa) = 82.14597 35.56044 82.95949
#
# Poissons Ratio (x) = 0.17607 0.54240
# Poissons Ratio (y) = 0.40672 0.33531
# Poissons Ratio (z) = 0.53708 0.14373
#
# Static dielectric constant tensor:
#      x y z
#    x 1.552790 0.000000 0.000000 
#    y 0.000000 1.566660 0.000000 
#    z 0.000000 0.000000 1.549670 
# 
# From -- ./inp_files/65782.got.cif
#   From: 2010.05.17/outbox.cif.g08.bks.cpg/sg65_33_cif.got.tgz:65782.got - 2010.06.03 17:01:31.
