data_PCOD9486597
_publ_section_title
;
Structure prediction by ZEFSAII (Michael W. Deem and Ramdas Pophale) SiO2 
 PCOD9486597
Probable space group: C M M M
;
_chemical_formula_sum "Si O2"
_cell_formula_units_Z 58
_cell_length_a 33.773734
_cell_length_b 10.925341
_cell_length_c 7.349785
_cell_angle_alpha 90.000000
_cell_angle_beta 90.000000
_cell_angle_gamma 90.000000
_cell_volume 2711.993939
_symmetry_space_group_name_H-M "C M M M"
_symmetry_group_IT_number 65
_symmetry_cell_setting 'orthorhombic'
loop_
_space_group_symop_operation_xyz
x,y,z
-x,-y,z
x,-y,-z
-x,y,-z
-x,-y,-z
x,y,-z
-x,y,z
x,-y,z
1/2+x,1/2+y,z
1/2-x,1/2-y,z
1/2+x,1/2-y,-z
1/2-x,1/2+y,-z
1/2-x,1/2-y,-z
1/2+x,1/2+y,-z
1/2-x,1/2+y,z
1/2+x,1/2-y,z
loop_
_atom_site_type_symbol
_atom_site_label
_atom_site_fract_x
_atom_site_fract_y
_atom_site_fract_z
Si Si1 0.699600 0.000000 0.277816
Si Si2 0.000000 0.271950 0.220743
Si Si3 0.834819 0.755419 0.288046
Si Si4 0.081689 0.861175 0.218440
Si Si5 0.208143 0.000000 0.722174
Si Si6 0.000000 0.500000 0.500000
O O1 0.678983 0.875007 0.213006
O O2 0.745803 0.000000 0.229174
O O3 0.697297 0.000000 0.500000
O O4 0.960638 0.194721 0.266482
O O5 0.000000 0.393205 0.340172
O O6 0.000000 0.293738 0.000000
O O7 0.823372 0.752524 0.500000
O O8 0.881611 0.777750 0.276723
O O9 0.813477 0.876686 0.212407
O O10 0.086863 0.000000 0.286800
O O11 0.083038 0.866131 0.000000
O O12 0.205763 0.000000 0.500000
#
# Coordination Sequence:
#
# PCOD9486597 Si02
#       6
#     8   8  16  16   8   2
#     4   9  18  31  50  79 117 157 197 244 315 377
#     4  10  24  45  67  95 129 168 211 256 308 379
#     4  10  19  32  54  86 117 151 201 261 306 364
#     4  10  21  40  64  87 119 160 204 255 316 373
#     4   9  16  30  52  79 114 156 199 253 309 363
#     4  12  26  44  66  98 124 176 206 254 312 370
#
# _framework density 21.386476999999999
#
# number of rings (size 3 to 8) (size 9 to 14) (size 15 to 20)
#    0.000    2.207    1.379    1.448    1.931    6.069 
#    2.483    2.759    0.000    4.966    0.000    0.000 
#    0.000    0.000    0.000    0.000    0.000    0.000 
#
# Total GULP energy -161754.208689 kJ/mol
# GULP energy per Si atom -5577.731334 kJ/mol
# Density = 2.133780 g / cm^3
# Si number density = 21.386477 Si / 1000 Ang^3
#
#
#
# Elastic Constant Matrix: (Units=GPa)
#
#
# Indices 1 2 3 4 5 6 
#
# 1 163.0814 112.5800 -1.6611 0.0000 0.0000 0.0000
# 2 112.5800 198.4885 21.1601 0.0000 0.0000 0.0000
# 3 -1.6611 21.1601 84.7281 0.0000 0.0000 0.0000
# 4 0.0000 0.0000 0.0000 -28.0147 0.0000 0.0000
# 5 0.0000 0.0000 0.0000 0.0000 21.4366 0.0000
# 6 0.0000 0.0000 0.0000 0.0000 0.0000 -12.9663
#
#
#
# Elastic Compliance Matrix: (Units=1/GPa)
#
#
# Indices 1 2 3 4 5 6 
#
# 1 0.010313 -0.006032 0.001709 0.000000 0.000000 0.000000
# 2 -0.006032 0.008703 -0.002292 0.000000 0.000000 0.000000
# 3 0.001709 -0.002292 0.012408 0.000000 0.000000 0.000000
# 4 0.000000 0.000000 0.000000 -0.035696 0.000000 0.000000
# 5 0.000000 0.000000 0.000000 0.000000 0.046649 0.000000
# 6 0.000000 0.000000 0.000000 0.000000 0.000000 -0.077123
#
#
# Mechanical properties :
#
#
# Convention : Reuss Voigt Hill
#
# Bulk Modulus (GPa) = 54.96008 78.93954 66.94981
# Shear Modulus (GPa) = -323.63414 17.03905 -153.29755
#
# Velocity S-wave (km/s) = -12.31483 2.82569 -8.47557
# Velocity P-wave (km/s) = 13.28354 6.90196 8.02544
#
# Compressibility (1/GPa) = 0.01819502
#
# Stress axis : x y z
#
# Youngs Moduli (GPa) = 96.96411 114.89721 80.59104
#
# Poissons Ratio (x) = 0.69301 -0.13769
# Poissons Ratio (y) = 0.58485 0.18470
# Poissons Ratio (z) = -0.16567 0.26333
#
# Static dielectric constant tensor:
#      x y z
#    x 1.717930 0.000000 0.000000 
#    y 0.000000 1.748240 0.000000 
#    z 0.000000 0.000000 1.830330 
# 
# From -- ./inp_files/17763.got.cif
#   From: 2010.05.17/outbox.cif.g08.bks.cpg/sg65_9_cif.got.tgz:17763.got - 2010.06.03 17:01:31.
