data_PCOD9486289
_publ_section_title
;
Structure prediction by ZEFSAII (Michael W. Deem and Ramdas Pophale) SiO2 
 PCOD9486289
Probable space group: C M M M
;
_chemical_formula_sum "Si O2"
_cell_formula_units_Z 88
_cell_length_a 10.127499
_cell_length_b 30.967128
_cell_length_c 15.425337
_cell_angle_alpha 90.000000
_cell_angle_beta 90.000000
_cell_angle_gamma 90.000000
_cell_volume 4837.687370
_symmetry_space_group_name_H-M "C M M M"
_symmetry_group_IT_number 65
_symmetry_cell_setting 'orthorhombic'
loop_
_space_group_symop_operation_xyz
x,y,z
-x,-y,z
x,-y,-z
-x,y,-z
-x,-y,-z
x,y,-z
-x,y,z
x,-y,z
1/2+x,1/2+y,z
1/2-x,1/2-y,z
1/2+x,1/2-y,-z
1/2-x,1/2+y,-z
1/2-x,1/2-y,-z
1/2+x,1/2+y,-z
1/2-x,1/2+y,z
1/2+x,1/2-y,z
loop_
_atom_site_type_symbol
_atom_site_label
_atom_site_fract_x
_atom_site_fract_y
_atom_site_fract_z
Si Si1 0.853719 0.312492 0.095715
Si Si2 0.846192 0.396314 0.403895
Si Si3 0.750000 0.250000 0.240303
Si Si4 0.150737 0.117400 0.847374
Si Si5 0.654317 0.948677 0.771414
Si Si6 0.643775 0.668372 0.665172
O O1 0.836177 0.278773 0.173815
O O2 0.738214 0.347770 0.101096
O O3 0.000000 0.332587 0.105037
O O4 0.848823 0.291891 0.000000
O O5 0.821762 0.414657 0.500000
O O6 0.822624 0.429831 0.325668
O O7 0.757168 0.354082 0.390238
O O8 0.000000 0.384088 0.398247
O O9 0.674161 0.283725 0.300946
O O10 0.241092 0.075228 0.833461
O O11 0.140199 0.139581 0.752676
O O12 0.000000 0.110465 0.878469
O O13 0.500000 0.938917 0.793190
O O14 0.670924 0.000000 0.772618
O O15 0.500000 0.666369 0.623094
#
# Coordination Sequence:
#
# PCOD9486289 Si02
#       6
#    16  16   8  16  16  16
#     4  10  20  33  51  75 102 131 162 199 245 294
#     4   9  18  32  49  70  98 130 162 199 244 291
#     4  10  19  32  51  74  98 126 162 206 245 286
#     4   9  18  32  49  70  99 133 165 198 238 288
#     4   9  17  30  51  77 101 127 161 200 242 290
#     4   9  18  31  48  69  93 126 165 201 239 285
#
# _framework density 18.190511000000001
#
# number of rings (size 3 to 8) (size 9 to 14) (size 15 to 20)
#    0.000    2.727    0.000    1.364    0.000    7.273 
#    0.000    2.273    0.000    0.545    0.000    8.909 
#    0.000    0.000    0.000    0.000    0.000    0.000 
#
# Total GULP energy -244966.324356 kJ/mol
# GULP energy per Si atom -5567.416463 kJ/mol
# Density = 1.814911 g / cm^3
# Si number density = 18.190511 Si / 1000 Ang^3
#
#
#
# Elastic Constant Matrix: (Units=GPa)
#
#
# Indices 1 2 3 4 5 6 
#
# 1 109.3528 46.8021 8.7491 0.0000 0.0000 0.0000
# 2 46.8021 91.8158 0.0072 0.0000 0.0000 0.0000
# 3 8.7491 0.0072 10.9032 0.0000 0.0000 0.0000
# 4 0.0000 0.0000 0.0000 9.3125 0.0000 0.0000
# 5 0.0000 0.0000 0.0000 0.0000 15.8423 0.0000
# 6 0.0000 0.0000 0.0000 0.0000 0.0000 19.2503
#
#
#
# Elastic Compliance Matrix: (Units=1/GPa)
#
#
# Indices 1 2 3 4 5 6 
#
# 1 0.012742 -0.006494 -0.010220 0.000000 0.000000 0.000000
# 2 -0.006494 0.014201 0.005202 0.000000 0.000000 0.000000
# 3 -0.010220 0.005202 0.099914 0.000000 0.000000 0.000000
# 4 0.000000 0.000000 0.000000 0.107383 0.000000 0.000000
# 5 0.000000 0.000000 0.000000 0.000000 0.063122 0.000000
# 6 0.000000 0.000000 0.000000 0.000000 0.000000 0.051947
#
#
# Mechanical properties :
#
#
# Convention : Reuss Voigt Hill
#
# Bulk Modulus (GPa) = 9.63099 35.90985 22.77042
# Shear Modulus (GPa) = 12.28668 19.31525 15.80096
#
# Velocity S-wave (km/s) = 2.60175 3.26211 2.95046
# Velocity P-wave (km/s) = 3.78569 5.82858 4.91446
#
# Compressibility (1/GPa) = 0.10383153
#
# Stress axis : x y z
#
# Youngs Moduli (GPa) = 78.48129 70.41598 10.00864
#
# Poissons Ratio (x) = 0.45730 0.10229
# Poissons Ratio (y) = 0.50968 -0.05206
# Poissons Ratio (z) = 0.80209 -0.36629
#
# Static dielectric constant tensor:
#      x y z
#    x 1.658210 0.000000 0.000000 
#    y 0.000000 1.597850 0.000000 
#    z 0.000000 0.000000 1.627170 
# 
# From -- ./inp_files/50360.got.cif
#   From: 2010.05.17/outbox.cif.g08.bks.cpg/sg65_26_cif.got.tgz:50360.got - 2010.06.03 17:01:31.
