data_PCOD9486354
_publ_section_title
;
Structure prediction by ZEFSAII (Michael W. Deem and Ramdas Pophale) SiO2 
 PCOD9486354
Probable space group: C M M M
;
_chemical_formula_sum "Si O2"
_cell_formula_units_Z 112
_cell_length_a 14.162466
_cell_length_b 24.307583
_cell_length_c 15.631758
_cell_angle_alpha 90.000000
_cell_angle_beta 90.000000
_cell_angle_gamma 90.000000
_cell_volume 5381.315818
_symmetry_space_group_name_H-M "C M M M"
_symmetry_group_IT_number 65
_symmetry_cell_setting 'orthorhombic'
loop_
_space_group_symop_operation_xyz
x,y,z
-x,-y,z
x,-y,-z
-x,y,-z
-x,-y,-z
x,y,-z
-x,y,z
x,-y,z
1/2+x,1/2+y,z
1/2-x,1/2-y,z
1/2+x,1/2-y,-z
1/2-x,1/2+y,-z
1/2-x,1/2-y,-z
1/2+x,1/2+y,-z
1/2-x,1/2+y,z
1/2+x,1/2-y,z
loop_
_atom_site_type_symbol
_atom_site_label
_atom_site_fract_x
_atom_site_fract_y
_atom_site_fract_z
Si Si1 0.394724 0.258482 0.904769
Si Si2 0.199621 0.128549 0.096535
Si Si3 0.885298 0.221831 0.401613
Si Si4 0.104970 0.642626 0.167800
Si Si5 0.387950 0.380003 0.720299
Si Si6 0.890143 0.651442 0.632231
Si Si7 0.740966 0.561384 0.407859
O O1 0.500000 0.284237 0.893910
O O2 0.317833 0.305496 0.901830
O O3 0.387446 0.208771 0.840775
O O4 0.392529 0.233545 0.000000
O O5 0.309038 0.117110 0.115726
O O6 0.141629 0.112336 0.180890
O O7 0.172469 0.110514 0.000000
O O8 0.855653 0.207556 0.500000
O O9 0.858524 0.178181 0.326795
O O10 0.857978 0.285221 0.382094
O O11 0.000000 0.221385 0.401567
O O12 0.113487 0.634041 0.268315
O O13 0.000000 0.627013 0.137992
O O14 0.500000 0.383840 0.712996
O O15 0.332751 0.424771 0.665510
O O16 0.821833 0.607232 0.590930
O O17 0.000000 0.648635 0.604793
O O18 0.691321 0.563530 0.500000
O O19 0.780668 0.500000 0.396725
#
# Coordination Sequence:
#
# PCOD9486354 Si02
#       7
#    16  16  16  16  16  16  16
#     4   9  17  28  44  74 117 161 205 249 291 347
#     4  11  21  34  55  83 118 161 204 250 304 364
#     4   9  18  33  57  90 127 166 204 244 300 373
#     4  10  19  32  51  78 116 161 203 245 297 358
#     4  11  23  41  63  90 126 164 205 256 311 368
#     4  10  20  37  61  92 130 166 202 249 305 368
#     4  11  25  44  66  93 122 158 209 259 306 364
#
# _framework density 20.812754000000002
#
# number of rings (size 3 to 8) (size 9 to 14) (size 15 to 20)
#    0.000    1.857    1.429    3.000    0.000    8.000 
#    0.000    2.857    0.000    0.429    0.000    1.000 
#    0.000    2.286    0.000    0.000    0.000    0.000 
#
# Total GULP energy -312492.817285 kJ/mol
# GULP energy per Si atom -5580.228880 kJ/mol
# Density = 2.076538 g / cm^3
# Si number density = 20.812754 Si / 1000 Ang^3
#
#
#
# Elastic Constant Matrix: (Units=GPa)
#
#
# Indices 1 2 3 4 5 6 
#
# 1 89.5622 17.1929 37.2306 0.0000 0.0000 0.0000
# 2 17.1929 52.2843 22.0231 0.0000 0.0000 0.0000
# 3 37.2306 22.0231 134.1493 0.0000 0.0000 0.0000
# 4 0.0000 0.0000 0.0000 41.5031 0.0000 0.0000
# 5 0.0000 0.0000 0.0000 0.0000 18.4321 0.0000
# 6 0.0000 0.0000 0.0000 0.0000 0.0000 12.6175
#
#
#
# Elastic Compliance Matrix: (Units=1/GPa)
#
#
# Indices 1 2 3 4 5 6 
#
# 1 0.013037 -0.002968 -0.003131 0.000000 0.000000 0.000000
# 2 -0.002968 0.021223 -0.002660 0.000000 0.000000 0.000000
# 3 -0.003131 -0.002660 0.008760 0.000000 0.000000 0.000000
# 4 0.000000 0.000000 0.000000 0.024095 0.000000 0.000000
# 5 0.000000 0.000000 0.000000 0.000000 0.054253 0.000000
# 6 0.000000 0.000000 0.000000 0.000000 0.000000 0.079255
#
#
# Mechanical properties :
#
#
# Convention : Reuss Voigt Hill
#
# Bulk Modulus (GPa) = 39.21435 47.65433 43.43434
# Shear Modulus (GPa) = 22.06132 27.81383 24.93757
#
# Velocity S-wave (km/s) = 3.25928 3.65962 3.46524
# Velocity P-wave (km/s) = 5.74859 6.38776 6.07659
#
# Compressibility (1/GPa) = 0.02550087
#
# Stress axis : x y z
#
# Youngs Moduli (GPa) = 76.70670 47.11906 114.15497
#
# Poissons Ratio (x) = 0.13986 0.35740
# Poissons Ratio (y) = 0.22768 0.30369
# Poissons Ratio (z) = 0.24015 0.12535
#
# Static dielectric constant tensor:
#      x y z
#    x 1.805120 0.000000 0.000000 
#    y 0.000000 1.715840 0.000000 
#    z 0.000000 0.000000 1.818030 
# 
# From -- ./inp_files/40811.got.cif
#   From: 2010.05.17/outbox.cif.g08.bks.cpg/sg65_21_cif.got.tgz:40811.got - 2010.06.03 17:01:31.
