data_PCOD9486141
_publ_section_title
;
Structure prediction by ZEFSAII (Michael W. Deem and Ramdas Pophale) SiO2 
 PCOD9486141
Probable space group: C M M M
;
_chemical_formula_sum "Si O2"
_cell_formula_units_Z 104
_cell_length_a 29.265481
_cell_length_b 8.661095
_cell_length_c 23.698862
_cell_angle_alpha 90.000000
_cell_angle_beta 90.000000
_cell_angle_gamma 90.000000
_cell_volume 6006.976884
_symmetry_space_group_name_H-M "C M M M"
_symmetry_group_IT_number 65
_symmetry_cell_setting 'orthorhombic'
loop_
_space_group_symop_operation_xyz
x,y,z
-x,-y,z
x,-y,-z
-x,y,-z
-x,-y,-z
x,y,-z
-x,y,z
x,-y,z
1/2+x,1/2+y,z
1/2-x,1/2-y,z
1/2+x,1/2-y,-z
1/2-x,1/2+y,-z
1/2-x,1/2-y,-z
1/2+x,1/2+y,-z
1/2-x,1/2+y,z
1/2+x,1/2-y,z
loop_
_atom_site_type_symbol
_atom_site_label
_atom_site_fract_x
_atom_site_fract_y
_atom_site_fract_z
Si Si1 0.355260 0.315006 0.106951
Si Si2 0.698707 0.815979 0.000000
Si Si3 0.699537 0.313452 0.564165
Si Si4 0.301014 0.313799 0.220039
Si Si5 0.552056 0.186233 0.147079
Si Si6 0.448525 0.185918 0.721248
Si Si7 0.358445 0.686309 0.670565
O O1 0.353486 0.500000 0.102761
O O2 0.330040 0.267200 0.165097
O O3 0.407594 0.260371 0.111225
O O4 0.328415 0.242327 0.054848
O O5 0.750000 0.750000 0.000000
O O6 0.700925 0.000000 0.000000
O O7 0.687753 0.266347 0.500000
O O8 0.701496 0.500000 0.565516
O O9 0.750000 0.250000 0.577005
O O10 0.663988 0.262137 0.611820
O O11 0.299097 0.500000 0.220662
O O12 0.250000 0.250000 0.217240
O O13 0.326598 0.262661 0.277038
O O14 0.500000 0.229291 0.131260
O O15 0.558715 0.231007 0.213023
O O16 0.555217 0.000000 0.143964
O O17 0.500000 0.233800 0.705443
O O18 0.408987 0.253887 0.682863
O O19 0.446692 0.000000 0.719480
O O20 0.359288 0.500000 0.670877
#
# Coordination Sequence:
#
# PCOD9486141 Si02
#       7
#    16   8  16  16  16  16  16
#     4  11  22  38  58  82 110 141 179 220 265 317
#     4  12  26  44  63  82 107 144 186 223 263 313
#     4   9  18  32  50  72 102 140 180 220 260 309
#     4  10  21  33  48  74 105 135 167 211 261 311
#     4   9  18  34  56  82 111 142 175 215 267 323
#     4   9  18  32  51  77 107 138 174 214 261 318
#     4  10  19  32  49  75 106 135 173 217 265 314
#
# _framework density 17.313200999999999
#
# number of rings (size 3 to 8) (size 9 to 14) (size 15 to 20)
#    0.000    2.154    1.538    3.000    0.000    4.308 
#    0.000    1.923    0.000    2.769    0.000    3.231 
#    0.000    0.000    0.000    0.000    0.000    0.000 
#
# Total GULP energy -290235.276093 kJ/mol
# GULP energy per Si atom -5581.447617 kJ/mol
# Density = 1.727380 g / cm^3
# Si number density = 17.313201 Si / 1000 Ang^3
#
#
#
# Elastic Constant Matrix: (Units=GPa)
#
#
# Indices 1 2 3 4 5 6 
#
# 1 174.3802 40.2381 93.9716 0.0000 0.0000 0.0000
# 2 40.2381 26.5022 36.5645 0.0000 0.0000 0.0000
# 3 93.9716 36.5645 118.9813 0.0000 0.0000 0.0000
# 4 0.0000 0.0000 0.0000 11.3968 0.0000 0.0000
# 5 0.0000 0.0000 0.0000 0.0000 31.6394 0.0000
# 6 0.0000 0.0000 0.0000 0.0000 0.0000 35.5158
#
#
#
# Elastic Compliance Matrix: (Units=1/GPa)
#
#
# Indices 1 2 3 4 5 6 
#
# 1 0.010904 -0.008114 -0.006119 0.000000 0.000000 0.000000
# 2 -0.008114 0.071545 -0.015578 0.000000 0.000000 0.000000
# 3 -0.006119 -0.015578 0.018025 0.000000 0.000000 0.000000
# 4 0.000000 0.000000 0.000000 0.087744 0.000000 0.000000
# 5 0.000000 0.000000 0.000000 0.000000 0.031606 0.000000
# 6 0.000000 0.000000 0.000000 0.000000 0.000000 0.028157
#
#
# Mechanical properties :
#
#
# Convention : Reuss Voigt Hill
#
# Bulk Modulus (GPa) = 24.47848 73.49023 48.98436
# Shear Modulus (GPa) = 15.56567 25.64969 20.60768
#
# Velocity S-wave (km/s) = 3.00169 3.85322 3.45380
# Velocity P-wave (km/s) = 5.11692 7.89532 6.65278
#
# Compressibility (1/GPa) = 0.04085220
#
# Stress axis : x y z
#
# Youngs Moduli (GPa) = 91.70838 13.97714 55.47998
#
# Poissons Ratio (x) = 0.11341 0.33946
# Poissons Ratio (y) = 0.74413 0.86428
# Poissons Ratio (z) = 0.56112 0.21774
#
# Static dielectric constant tensor:
#      x y z
#    x 1.567280 0.000000 0.000000 
#    y 0.000000 1.584190 0.000000 
#    z 0.000000 0.000000 1.583560 
# 
# From -- ./inp_files/60792.got.cif
#   From: 2010.05.17/outbox.cif.g08.bks.cpg/sg65_31_cif.got.tgz:60792.got - 2010.06.03 17:01:31.
