data_PCOD9486882
_publ_section_title
;
Structure prediction by ZEFSAII (Michael W. Deem and Ramdas Pophale) SiO2 
 PCOD9486882
Probable space group: C M M M
;
_chemical_formula_sum "Si O2"
_cell_formula_units_Z 96
_cell_length_a 20.377738
_cell_length_b 23.169543
_cell_length_c 12.871822
_cell_angle_alpha 90.000000
_cell_angle_beta 90.000000
_cell_angle_gamma 90.000000
_cell_volume 6077.339069
_symmetry_space_group_name_H-M "C M M M"
_symmetry_group_IT_number 65
_symmetry_cell_setting 'orthorhombic'
loop_
_space_group_symop_operation_xyz
x,y,z
-x,-y,z
x,-y,-z
-x,y,-z
-x,-y,-z
x,y,-z
-x,y,z
x,-y,z
1/2+x,1/2+y,z
1/2-x,1/2-y,z
1/2+x,1/2-y,-z
1/2-x,1/2+y,-z
1/2-x,1/2-y,-z
1/2+x,1/2+y,-z
1/2-x,1/2+y,z
1/2+x,1/2-y,z
loop_
_atom_site_type_symbol
_atom_site_label
_atom_site_fract_x
_atom_site_fract_y
_atom_site_fract_z
Si Si1 0.576029 0.204103 0.000000
Si Si2 0.382847 0.874610 0.194700
Si Si3 0.189369 0.205891 0.378184
Si Si4 0.309645 0.295734 0.000000
Si Si5 0.774106 0.000000 0.120490
Si Si6 0.076254 0.295480 0.379088
Si Si7 0.224157 0.125139 0.804619
Si Si8 0.114451 0.500000 0.879732
O O1 0.591686 0.165126 0.899273
O O2 0.624018 0.258844 0.000000
O O3 0.500000 0.220505 0.000000
O O4 0.407199 0.847554 0.302091
O O5 0.303577 0.872296 0.192815
O O6 0.405080 0.940349 0.174836
O O7 0.188989 0.190183 0.500000
O O8 0.250000 0.250000 0.361122
O O9 0.123916 0.242131 0.353548
O O10 0.199335 0.152364 0.302404
O O11 0.250000 0.250000 0.000000
O O12 0.301891 0.335454 0.101295
O O13 0.795141 0.058939 0.175618
O O14 0.694284 0.000000 0.119198
O O15 0.794996 0.000000 0.000000
O O16 0.088817 0.310600 0.500000
O O17 0.000000 0.280017 0.368155
O O18 0.092691 0.500000 0.000000
#
# Coordination Sequence:
#
# PCOD9486882 Si02
#       8
#     8  16  16   8   8  16  16   8
#     4  12  24  33  46  75 108 132 161 214 268 303
#     4  11  19  34  52  72 102 136 173 214 255 298
#     4  10  19  33  54  78 104 133 168 211 259 307
#     4  12  20  31  53  77  99 131 173 213 252 310
#     4   9  18  32  49  77 106 135 168 213 255 296
#     4  10  21  36  53  74 103 138 171 208 257 309
#     4  11  19  32  54  79 103 133 174 210 255 305
#     4   9  18  32  51  70  98 138 178 216 248 289
#
# _framework density 15.796388
#
# number of rings (size 3 to 8) (size 9 to 14) (size 15 to 20)
#    0.000    1.500    5.000    2.000    0.000    0.000 
#    0.000    2.917    0.000    4.000    0.000    2.917 
#    0.000    2.667    0.000    0.000    0.000    0.000 
#
# Total GULP energy -267954.029543 kJ/mol
# GULP energy per Si atom -5582.375615 kJ/mol
# Density = 1.576043 g / cm^3
# Si number density = 15.796388 Si / 1000 Ang^3
#
#
#
# Elastic Constant Matrix: (Units=GPa)
#
#
# Indices 1 2 3 4 5 6 
#
# 1 85.2629 53.5615 36.7557 0.0000 0.0000 0.0000
# 2 53.5615 143.2459 77.7098 0.0000 0.0000 0.0000
# 3 36.7557 77.7098 93.5009 0.0000 0.0000 0.0000
# 4 0.0000 0.0000 0.0000 12.9446 0.0000 0.0000
# 5 0.0000 0.0000 0.0000 0.0000 -0.8042 0.0000
# 6 0.0000 0.0000 0.0000 0.0000 0.0000 12.9813
#
#
#
# Elastic Compliance Matrix: (Units=1/GPa)
#
#
# Indices 1 2 3 4 5 6 
#
# 1 0.015605 -0.004566 -0.002340 0.000000 0.000000 0.000000
# 2 -0.004566 0.014049 -0.009881 0.000000 0.000000 0.000000
# 3 -0.002340 -0.009881 0.019827 0.000000 0.000000 0.000000
# 4 0.000000 0.000000 0.000000 0.077252 0.000000 0.000000
# 5 0.000000 0.000000 0.000000 0.000000 -1.243538 0.000000
# 6 0.000000 0.000000 0.000000 0.000000 0.000000 0.077034
#
#
# Mechanical properties :
#
#
# Convention : Reuss Voigt Hill
#
# Bulk Modulus (GPa) = 62.86301 73.11819 67.99060
# Shear Modulus (GPa) = -4.99553 15.28986 5.14717
#
# Velocity S-wave (km/s) = -1.78026 3.11454 1.80707
# Velocity P-wave (km/s) = 5.97130 7.70209 6.89125
#
# Compressibility (1/GPa) = 0.01590761
#
# Stress axis : x y z
#
# Youngs Moduli (GPa) = 64.08114 71.18141 50.43537
#
# Poissons Ratio (x) = 0.32498 0.11802
# Poissons Ratio (y) = 0.29257 0.49836
# Poissons Ratio (z) = 0.14995 0.70336
#
# Static dielectric constant tensor:
#      x y z
#    x 1.526210 0.000000 0.000000 
#    y 0.000000 1.507690 0.000000 
#    z 0.000000 0.000000 1.526630 
# 
# From -- ./inp_files/29116.got.cif
#   From: 2010.05.17/outbox.cif.g08.bks.cpg/sg65_15_cif.got.tgz:29116.got - 2010.06.03 17:01:31.
