data_PCOD9486727
_publ_section_title
;
Structure prediction by ZEFSAII (Michael W. Deem and Ramdas Pophale) SiO2 
 PCOD9486727
Probable space group: C M M M
;
_chemical_formula_sum "Si O2"
_cell_formula_units_Z 104
_cell_length_a 30.911253
_cell_length_b 9.043959
_cell_length_c 23.097592
_cell_angle_alpha 90.000000
_cell_angle_beta 90.000000
_cell_angle_gamma 90.000000
_cell_volume 6457.165239
_symmetry_space_group_name_H-M "C M M M"
_symmetry_group_IT_number 65
_symmetry_cell_setting 'orthorhombic'
loop_
_space_group_symop_operation_xyz
x,y,z
-x,-y,z
x,-y,-z
-x,y,-z
-x,-y,-z
x,y,-z
-x,y,z
x,-y,z
1/2+x,1/2+y,z
1/2-x,1/2-y,z
1/2+x,1/2-y,-z
1/2-x,1/2+y,-z
1/2-x,1/2-y,-z
1/2+x,1/2+y,-z
1/2-x,1/2+y,z
1/2+x,1/2-y,z
loop_
_atom_site_type_symbol
_atom_site_label
_atom_site_fract_x
_atom_site_fract_y
_atom_site_fract_z
Si Si1 0.551885 0.173635 0.682295
Si Si2 0.794100 0.828885 0.909317
Si Si3 0.612167 0.678528 0.224826
Si Si4 0.049247 0.320659 0.000000
Si Si5 0.052495 0.827934 0.435613
Si Si6 0.616224 0.178266 0.098920
Si Si7 0.207123 0.831171 0.231756
O O1 0.500000 0.194046 0.686603
O O2 0.575856 0.266280 0.731523
O O3 0.566064 0.230641 0.618887
O O4 0.561046 0.000000 0.689085
O O5 0.750000 0.750000 0.929139
O O6 0.838027 0.742274 0.923996
O O7 0.792757 0.827978 0.838738
O O8 0.795810 0.000000 0.927507
O O9 0.612401 0.500000 0.219054
O O10 0.607580 0.752180 0.161844
O O11 0.659714 0.726473 0.248055
O O12 0.077420 0.279569 0.944049
O O13 0.047313 0.500000 0.000000
O O14 0.000000 0.265191 0.000000
O O15 0.067018 0.780790 0.500000
O O16 0.000000 0.823607 0.436469
O O17 0.064656 0.000000 0.427101
O O18 0.619152 0.000000 0.102609
O O19 0.250000 0.750000 0.252064
O O20 0.209993 0.000000 0.250287
#
# Coordination Sequence:
#
# PCOD9486727 Si02
#       7
#    16  16  16   8  16  16  16
#     4  10  20  31  44  66  95 127 163 200 237 276
#     4   9  16  28  47  72  99 123 148 179 222 277
#     4  10  20  33  48  69  97 126 156 191 234 283
#     4   9  20  38  56  71  88 115 154 199 242 285
#     4   8  14  26  44  64  88 122 160 194 232 278
#     4  10  19  33  53  73  93 119 153 193 238 286
#     4   8  15  26  42  64  89 117 147 180 220 269
#
# _framework density 16.10614
#
# number of rings (size 3 to 8) (size 9 to 14) (size 15 to 20)
#    0.000    2.846    0.000    3.231    0.000    6.154 
#    0.000    5.000    0.000    3.231    0.000    0.000 
#    0.000    0.615    0.000    2.000    0.000    2.615 
#
# Total GULP energy -289705.894034 kJ/mol
# GULP energy per Si atom -5571.267193 kJ/mol
# Density = 1.606948 g / cm^3
# Si number density = 16.106140 Si / 1000 Ang^3
#
#
#
# Elastic Constant Matrix: (Units=GPa)
#
#
# Indices 1 2 3 4 5 6 
#
# 1 97.1989 50.4337 44.5788 0.0000 0.0000 0.0000
# 2 50.4337 76.2325 40.0982 0.0000 0.0000 0.0000
# 3 44.5788 40.0982 73.1787 0.0000 0.0000 0.0000
# 4 0.0000 0.0000 0.0000 -13.0524 0.0000 0.0000
# 5 0.0000 0.0000 0.0000 0.0000 -6.5151 0.0000
# 6 0.0000 0.0000 0.0000 0.0000 0.0000 26.2761
#
#
#
# Elastic Compliance Matrix: (Units=1/GPa)
#
#
# Indices 1 2 3 4 5 6 
#
# 1 0.017368 -0.008324 -0.006019 0.000000 0.000000 0.000000
# 2 -0.008324 0.022419 -0.007214 0.000000 0.000000 0.000000
# 3 -0.006019 -0.007214 0.021284 0.000000 0.000000 0.000000
# 4 0.000000 0.000000 0.000000 -0.076614 0.000000 0.000000
# 5 0.000000 0.000000 0.000000 0.000000 -0.153489 0.000000
# 6 0.000000 0.000000 0.000000 0.000000 0.000000 0.038057
#
#
# Mechanical properties :
#
#
# Convention : Reuss Voigt Hill
#
# Bulk Modulus (GPa) = 55.68535 57.42572 56.55554
# Shear Modulus (GPa) = -61.06874 8.77501 -26.14687
#
# Velocity S-wave (km/s) = -6.16431 2.33668 -4.03353
# Velocity P-wave (km/s) = 4.00199 6.55836 3.67397
#
# Compressibility (1/GPa) = 0.01795804
#
# Stress axis : x y z
#
# Youngs Moduli (GPa) = 57.57761 44.60443 46.98270
#
# Poissons Ratio (x) = 0.37130 0.28278
# Poissons Ratio (y) = 0.47929 0.33892
# Poissons Ratio (z) = 0.34655 0.32176
#
# Static dielectric constant tensor:
#      x y z
#    x 1.544910 0.000000 0.000000 
#    y 0.000000 1.542930 0.000000 
#    z 0.000000 0.000000 1.537770 
# 
# From -- ./inp_files/71821.got.cif
#   From: 2010.05.17/outbox.cif.g08.bks.cpg/sg65_36_cif.got.tgz:71821.got - 2010.06.03 17:01:31.
