data_PCOD9486887
_publ_section_title
;
Structure prediction by ZEFSAII (Michael W. Deem and Ramdas Pophale) SiO2 
 PCOD9486887
Probable space group: C M M M
;
_chemical_formula_sum "Si O2"
_cell_formula_units_Z 104
_cell_length_a 8.739096
_cell_length_b 19.721162
_cell_length_c 34.414227
_cell_angle_alpha 90.000000
_cell_angle_beta 90.000000
_cell_angle_gamma 90.000000
_cell_volume 5931.124356
_symmetry_space_group_name_H-M "C M M M"
_symmetry_group_IT_number 65
_symmetry_cell_setting 'orthorhombic'
loop_
_space_group_symop_operation_xyz
x,y,z
-x,-y,z
x,-y,-z
-x,y,-z
-x,-y,-z
x,y,-z
-x,y,z
x,-y,z
1/2+x,1/2+y,z
1/2-x,1/2-y,z
1/2+x,1/2-y,-z
1/2-x,1/2+y,-z
1/2-x,1/2-y,-z
1/2+x,1/2+y,-z
1/2-x,1/2+y,z
1/2+x,1/2-y,z
loop_
_atom_site_type_symbol
_atom_site_label
_atom_site_fract_x
_atom_site_fract_y
_atom_site_fract_z
Si Si1 0.816507 0.079781 0.544666
Si Si2 0.316986 0.079081 0.847916
Si Si3 0.182089 0.674985 0.610290
Si Si4 0.315892 0.325191 0.693059
Si Si5 0.315935 0.421291 0.235608
Si Si6 0.816025 0.173714 0.914765
Si Si7 0.183939 0.174197 0.000000
O O1 0.776374 0.096982 0.500000
O O2 0.731881 0.125709 0.575776
O O3 0.000000 0.088502 0.548770
O O4 0.783411 0.000000 0.550438
O O5 0.500000 0.083340 0.849240
O O6 0.259037 0.099529 0.805114
O O7 0.246395 0.126220 0.880938
O O8 0.272055 0.000000 0.853524
O O9 0.250000 0.750000 0.603347
O O10 0.250940 0.651125 0.651554
O O11 0.000000 0.679520 0.613291
O O12 0.500000 0.322167 0.690839
O O13 0.250000 0.250000 0.699695
O O14 0.271488 0.374322 0.728322
O O15 0.500000 0.417571 0.231465
O O16 0.275152 0.500000 0.242930
O O17 0.750000 0.250000 0.911209
O O18 0.771092 0.145494 0.957829
O O19 0.000000 0.177146 0.912724
O O20 0.250000 0.250000 0.000000
O O21 0.000000 0.177288 0.000000
#
# Coordination Sequence:
#
# PCOD9486887 Si02
#       7
#    16  16  16  16  16  16   8
#     4   9  19  37  59  81 107 140 177 218 264 312
#     4  10  21  36  53  75 105 139 174 214 259 306
#     4  11  22  36  55  79 109 143 178 217 261 310
#     4  10  20  35  55  78 105 136 171 214 261 309
#     4   9  19  36  56  76  99 133 175 214 256 307
#     4  10  19  33  54  78 104 134 171 214 258 308
#     4   8  16  30  49  74 101 131 167 209 257 304
#
# _framework density 17.534618999999999
#
# number of rings (size 3 to 8) (size 9 to 14) (size 15 to 20)
#    0.000    2.308    0.000    4.154    0.000    4.923 
#    0.000    4.231    0.000    2.308    0.000    0.000 
#    0.000    0.000    0.000    0.000    0.000    0.000 
#
# Total GULP energy -290101.211849 kJ/mol
# GULP energy per Si atom -5578.869459 kJ/mol
# Density = 1.749471 g / cm^3
# Si number density = 17.534619 Si / 1000 Ang^3
#
#
#
# Elastic Constant Matrix: (Units=GPa)
#
#
# Indices 1 2 3 4 5 6 
#
# 1 63.2929 41.6699 70.8628 0.0000 0.0000 0.0000
# 2 41.6699 66.0823 97.5857 0.0000 0.0000 0.0000
# 3 70.8628 97.5857 196.0854 0.0000 0.0000 0.0000
# 4 0.0000 0.0000 0.0000 55.5761 0.0000 0.0000
# 5 0.0000 0.0000 0.0000 0.0000 26.1533 0.0000
# 6 0.0000 0.0000 0.0000 0.0000 0.0000 26.8376
#
#
#
# Elastic Compliance Matrix: (Units=1/GPa)
#
#
# Indices 1 2 3 4 5 6 
#
# 1 0.028294 -0.010343 -0.005078 0.000000 0.000000 0.000000
# 2 -0.010343 0.060869 -0.026555 0.000000 0.000000 0.000000
# 3 -0.005078 -0.026555 0.020150 0.000000 0.000000 0.000000
# 4 0.000000 0.000000 0.000000 0.017993 0.000000 0.000000
# 5 0.000000 0.000000 0.000000 0.000000 0.038236 0.000000
# 6 0.000000 0.000000 0.000000 0.000000 0.000000 0.037261
#
#
# Mechanical properties :
#
#
# Convention : Reuss Voigt Hill
#
# Bulk Modulus (GPa) = 39.42893 82.85529 61.14211
# Shear Modulus (GPa) = 16.93712 29.40286 23.16999
#
# Velocity S-wave (km/s) = 3.11130 4.09937 3.63903
# Velocity P-wave (km/s) = 5.95333 8.35233 7.25271
#
# Compressibility (1/GPa) = 0.02536209
#
# Stress axis : x y z
#
# Youngs Moduli (GPa) = 35.34297 16.42870 49.62719
#
# Poissons Ratio (x) = 0.16993 0.25198
# Poissons Ratio (y) = 0.36557 1.31783
# Poissons Ratio (z) = 0.17945 0.43626
#
# Static dielectric constant tensor:
#      x y z
#    x 1.589970 0.000000 0.000000 
#    y 0.000000 1.569510 0.000000 
#    z 0.000000 0.000000 1.597060 
# 
# From -- ./inp_files/73340.got.cif
#   From: 2010.05.17/outbox.cif.g08.bks.cpg/sg65_37_cif.got.tgz:73340.got - 2010.06.03 17:01:31.
