data_PCOD9486919
_publ_section_title
;
Structure prediction by ZEFSAII (Michael W. Deem and Ramdas Pophale) SiO2 
 PCOD9486919
Probable space group: C M M M
;
_chemical_formula_sum "Si O2"
_cell_formula_units_Z 64
_cell_length_a 15.674449
_cell_length_b 9.286967
_cell_length_c 23.319889
_cell_angle_alpha 90.000000
_cell_angle_beta 90.000000
_cell_angle_gamma 90.000000
_cell_volume 3394.631715
_symmetry_space_group_name_H-M "C M M M"
_symmetry_group_IT_number 65
_symmetry_cell_setting 'orthorhombic'
loop_
_space_group_symop_operation_xyz
x,y,z
-x,-y,z
x,-y,-z
-x,y,-z
-x,-y,-z
x,y,-z
-x,y,z
x,-y,z
1/2+x,1/2+y,z
1/2-x,1/2-y,z
1/2+x,1/2-y,-z
1/2-x,1/2+y,-z
1/2-x,1/2-y,-z
1/2+x,1/2+y,-z
1/2-x,1/2+y,z
1/2+x,1/2-y,z
loop_
_atom_site_type_symbol
_atom_site_label
_atom_site_fract_x
_atom_site_fract_y
_atom_site_fract_z
Si Si1 0.395585 0.833277 0.387084
Si Si2 0.900927 0.324857 0.261908
Si Si3 0.395515 0.335158 0.500000
Si Si4 0.834896 0.326099 0.138706
Si Si5 0.000000 0.675011 0.065504
O O1 0.500000 0.831313 0.385715
O O2 0.368387 0.776829 0.324366
O O3 0.367462 0.743700 0.441992
O O4 0.370366 0.000000 0.393638
O O5 0.900710 0.500000 0.263887
O O6 0.851846 0.281692 0.204810
O O7 0.000000 0.281216 0.255554
O O8 0.368671 0.500000 0.500000
O O9 0.500000 0.331156 0.500000
O O10 0.827388 0.500000 0.137137
O O11 0.750000 0.250000 0.117572
O O12 0.916017 0.283370 0.100632
O O13 0.000000 0.500000 0.064368
O O14 0.000000 0.726025 0.000000
#
# Coordination Sequence:
#
# PCOD9486919 Si02
#       5
#    16  16   8  16   8
#     4   8  13  21  36  56  78 110 158 207 245 285
#     4   8  13  25  46  68  89 123 170 214 251 296
#     4   9  15  21  29  49  86 123 152 188 246 308
#     4  10  19  33  54  79 107 138 176 218 260 306
#     4   9  18  34  57  81 107 144 183 212 246 305
#
# _framework density 18.853296
#
# number of rings (size 3 to 8) (size 9 to 14) (size 15 to 20)
#    0.000    3.250    1.250    1.875    0.000    2.000 
#    0.000    1.875    0.000    2.250    0.000    0.875 
#    0.000    0.000    0.000    0.000    0.000    0.000 
#
# Total GULP energy -178317.011540 kJ/mol
# GULP energy per Si atom -5572.406611 kJ/mol
# Density = 1.881039 g / cm^3
# Si number density = 18.853296 Si / 1000 Ang^3
#
#
#
# Elastic Constant Matrix: (Units=GPa)
#
#
# Indices 1 2 3 4 5 6 
#
# 1 89.9976 24.0301 62.1798 0.0000 0.0000 0.0000
# 2 24.0301 31.1885 44.1436 0.0000 0.0000 0.0000
# 3 62.1798 44.1436 172.0899 0.0000 0.0000 0.0000
# 4 0.0000 0.0000 0.0000 5.5067 0.0000 0.0000
# 5 0.0000 0.0000 0.0000 0.0000 -7.6372 0.0000
# 6 0.0000 0.0000 0.0000 0.0000 0.0000 14.8297
#
#
#
# Elastic Compliance Matrix: (Units=1/GPa)
#
#
# Indices 1 2 3 4 5 6 
#
# 1 0.015566 -0.006331 -0.004000 0.000000 0.000000 0.000000
# 2 -0.006331 0.052915 -0.011286 0.000000 0.000000 0.000000
# 3 -0.004000 -0.011286 0.010151 0.000000 0.000000 0.000000
# 4 0.000000 0.000000 0.000000 0.181598 0.000000 0.000000
# 5 0.000000 0.000000 0.000000 0.000000 -0.130938 0.000000
# 6 0.000000 0.000000 0.000000 0.000000 0.000000 0.067432
#
#
# Mechanical properties :
#
#
# Convention : Reuss Voigt Hill
#
# Bulk Modulus (GPa) = 28.25073 61.55366 44.90219
# Shear Modulus (GPa) = 19.86038 13.40135 16.63086
#
# Velocity S-wave (km/s) = 3.24916 2.66902 2.97327
# Velocity P-wave (km/s) = 5.39380 6.49753 5.97122
#
# Compressibility (1/GPa) = 0.03539732
#
# Stress axis : x y z
#
# Youngs Moduli (GPa) = 64.24420 18.89825 98.51019
#
# Poissons Ratio (x) = 0.11965 0.39405
# Poissons Ratio (y) = 0.40675 1.11177
# Poissons Ratio (z) = 0.25698 0.21328
#
# Static dielectric constant tensor:
#      x y z
#    x 1.664440 0.000000 0.000000 
#    y 0.000000 1.617560 0.000000 
#    z 0.000000 0.000000 1.674520 
# 
# From -- ./inp_files/66962.got.cif
#   From: 2010.05.17/outbox.cif.g08.bks.cpg/sg65_34_cif.got.tgz:66962.got - 2010.06.03 17:01:31.
