data_PCOD9486933
_publ_section_title
;
Structure prediction by ZEFSAII (Michael W. Deem and Ramdas Pophale) SiO2 
 PCOD9486933
Probable space group: C M M M
;
_chemical_formula_sum "Si O2"
_cell_formula_units_Z 120
_cell_length_a 17.710788
_cell_length_b 18.218623
_cell_length_c 16.762495
_cell_angle_alpha 90.000000
_cell_angle_beta 90.000000
_cell_angle_gamma 90.000000
_cell_volume 5408.690055
_symmetry_space_group_name_H-M "C M M M"
_symmetry_group_IT_number 65
_symmetry_cell_setting 'orthorhombic'
loop_
_space_group_symop_operation_xyz
x,y,z
-x,-y,z
x,-y,-z
-x,y,-z
-x,-y,-z
x,y,-z
-x,y,z
x,-y,z
1/2+x,1/2+y,z
1/2-x,1/2-y,z
1/2+x,1/2-y,-z
1/2-x,1/2+y,-z
1/2-x,1/2-y,-z
1/2+x,1/2+y,-z
1/2-x,1/2+y,z
1/2+x,1/2-y,z
loop_
_atom_site_type_symbol
_atom_site_label
_atom_site_fract_x
_atom_site_fract_y
_atom_site_fract_z
Si Si1 0.590019 0.364663 0.804324
Si Si2 0.907337 0.000000 0.908163
Si Si3 0.806950 0.415858 0.310293
Si Si4 0.916025 0.086487 0.379996
Si Si5 0.591755 0.236128 0.087817
Si Si6 0.191205 0.194236 0.629849
Si Si7 0.410245 0.918633 0.153521
Si Si8 0.087981 0.319073 0.405375
O O1 0.500000 0.361732 0.817070
O O2 0.620186 0.428916 0.860877
O O3 0.594998 0.391123 0.713103
O O4 0.619153 0.287622 0.839475
O O5 0.000000 0.000000 0.905533
O O6 0.885523 0.000000 0.000000
O O7 0.778545 0.500000 0.320583
O O8 0.742865 0.352094 0.307733
O O9 0.859302 0.414683 0.232422
O O10 0.861677 0.389174 0.381842
O O11 0.848398 0.130189 0.418655
O O12 0.000000 0.110063 0.404580
O O13 0.911663 0.000000 0.389522
O O14 0.500000 0.238475 0.087417
O O15 0.611093 0.151192 0.100759
O O16 0.616567 0.262517 0.000000
O O17 0.250000 0.250000 0.590557
O O18 0.121946 0.250775 0.645545
O O19 0.500000 0.912017 0.173423
O O20 0.400031 0.000000 0.117534
O O21 0.094019 0.303101 0.500000
O O22 0.000000 0.329623 0.386328
#
# Coordination Sequence:
#
# PCOD9486933 Si02
#       8
#    16   8  16  16  16  16  16  16
#     4   9  16  25  40  67 100 134 172 221 280 337
#     4   9  14  22  36  58  96 136 163 203 274 343
#     4  10  21  37  57  85 119 153 191 232 282 338
#     4  10  19  33  54  80 109 142 185 236 285 333
#     4   9  17  27  42  69 106 146 188 236 290 348
#     4  10  22  36  56  83 114 150 189 227 274 332
#     4   9  18  32  51  76 108 146 190 244 298 344
#     4  10  22  40  62  88 118 151 187 230 280 334
#
# _framework density 22.186518
#
# number of rings (size 3 to 8) (size 9 to 14) (size 15 to 20)
#    0.000    2.467    0.667    1.600    3.733    5.333 
#    0.000    2.000    0.000    1.200    0.000    7.467 
#    0.000    0.000    0.000    0.000    0.000    0.000 
#
# Total GULP energy -334223.306921 kJ/mol
# GULP energy per Si atom -5570.388449 kJ/mol
# Density = 2.213602 g / cm^3
# Si number density = 22.186518 Si / 1000 Ang^3
#
#
#
# Elastic Constant Matrix: (Units=GPa)
#
#
# Indices 1 2 3 4 5 6 
#
# 1 64.8367 20.0277 -9.1791 0.0000 0.0000 0.0000
# 2 20.0277 118.9997 31.0373 0.0000 0.0000 0.0000
# 3 -9.1791 31.0373 82.5934 0.0000 0.0000 0.0000
# 4 0.0000 0.0000 0.0000 534.5206 0.0000 0.0000
# 5 0.0000 0.0000 0.0000 0.0000 22.4864 0.0000
# 6 0.0000 0.0000 0.0000 0.0000 0.0000 35.7376
#
#
#
# Elastic Compliance Matrix: (Units=1/GPa)
#
#
# Indices 1 2 3 4 5 6 
#
# 1 0.017041 -0.003727 0.003295 0.000000 0.000000 0.000000
# 2 -0.003727 0.010132 -0.004222 0.000000 0.000000 0.000000
# 3 0.003295 -0.004222 0.014060 0.000000 0.000000 0.000000
# 4 0.000000 0.000000 0.000000 0.001871 0.000000 0.000000
# 5 0.000000 0.000000 0.000000 0.000000 0.044471 0.000000
# 6 0.000000 0.000000 0.000000 0.000000 0.000000 0.027982
#
#
# Mechanical properties :
#
#
# Convention : Reuss Voigt Hill
#
# Bulk Modulus (GPa) = 31.32418 38.91129 35.11774
# Shear Modulus (GPa) = 36.89848 133.51851 85.20850
#
# Velocity S-wave (km/s) = 4.08254 7.76599 6.20394
# Velocity P-wave (km/s) = 6.03093 9.89902 8.19642
#
# Compressibility (1/GPa) = 0.03192422
#
# Stress axis : x y z
#
# Youngs Moduli (GPa) = 58.68162 98.69954 71.12347
#
# Poissons Ratio (x) = 0.36788 -0.23432
# Poissons Ratio (y) = 0.21872 0.30025
# Poissons Ratio (z) = -0.19333 0.41667
#
# Static dielectric constant tensor:
#      x y z
#    x 1.865460 0.000000 0.000000 
#    y 0.000000 1.854250 0.000000 
#    z 0.000000 0.000000 1.851410 
# 
# From -- ./inp_files/64037.got.cif
#   From: 2010.05.17/outbox.cif.g08.bks.cpg/sg65_33_cif.got.tgz:64037.got - 2010.06.03 17:01:31.
