data_PCOD9486167
_publ_section_title
;
Structure prediction by ZEFSAII (Michael W. Deem and Ramdas Pophale) SiO2 
 PCOD9486167
Probable space group: C M M M
;
_chemical_formula_sum "Si O2"
_cell_formula_units_Z 80
_cell_length_a 8.149307
_cell_length_b 29.496773
_cell_length_c 19.079524
_cell_angle_alpha 90.000000
_cell_angle_beta 90.000000
_cell_angle_gamma 90.000000
_cell_volume 4586.302756
_symmetry_space_group_name_H-M "C M M M"
_symmetry_group_IT_number 65
_symmetry_cell_setting 'orthorhombic'
loop_
_space_group_symop_operation_xyz
x,y,z
-x,-y,z
x,-y,-z
-x,y,-z
-x,-y,-z
x,y,-z
-x,y,z
x,-y,z
1/2+x,1/2+y,z
1/2-x,1/2-y,z
1/2+x,1/2-y,-z
1/2-x,1/2+y,-z
1/2-x,1/2-y,-z
1/2+x,1/2+y,-z
1/2-x,1/2+y,z
1/2+x,1/2-y,z
loop_
_atom_site_type_symbol
_atom_site_label
_atom_site_fract_x
_atom_site_fract_y
_atom_site_fract_z
Si Si1 0.311696 0.444915 0.000000
Si Si2 0.698256 0.197649 0.922650
Si Si3 0.802148 0.802550 0.500000
Si Si4 0.696340 0.302408 0.652937
Si Si5 0.801776 0.641841 0.787727
Si Si6 0.304278 0.051037 0.847534
O O1 0.227218 0.432219 0.072849
O O2 0.307777 0.500000 0.000000
O O3 0.500000 0.430203 0.000000
O O4 0.500000 0.195706 0.922400
O O5 0.750000 0.250000 0.915523
O O6 0.758528 0.169525 0.855976
O O7 0.754449 0.181574 0.000000
O O8 0.750000 0.750000 0.500000
O O9 0.744189 0.819647 0.423898
O O10 0.000000 0.805634 0.500000
O O11 0.500000 0.302624 0.652365
O O12 0.750000 0.250000 0.662103
O O13 0.754507 0.332910 0.716960
O O14 0.742048 0.590086 0.795965
O O15 0.000000 0.641139 0.791143
O O16 0.500000 0.047795 0.839064
O O17 0.235582 0.000000 0.839180
#
# Coordination Sequence:
#
# PCOD9486167 Si02
#       6
#     8  16   8  16  16  16
#     4   9  17  29  45  65  88 113 148 199 249 287
#     4   9  18  31  44  58  82 117 153 188 223 262
#     4   8  16  30  48  70  95 126 153 183 224 275
#     4  10  19  32  50  72 100 127 156 188 228 277
#     4  10  20  31  47  69  93 121 158 198 238 279
#     4   9  18  32  49  67  89 121 159 198 243 292
#
# _framework density 17.443244
#
# number of rings (size 3 to 8) (size 9 to 14) (size 15 to 20)
#    0.000    2.700    0.000    1.500    1.400    5.200 
#    0.000    0.000    0.000    0.000    0.000    0.700 
#    0.000    5.600    0.000    0.000    0.000    0.000 
#
# Total GULP energy -222898.796913 kJ/mol
# GULP energy per Si atom -5572.469923 kJ/mol
# Density = 1.740354 g / cm^3
# Si number density = 17.443244 Si / 1000 Ang^3
#
#
#
# Elastic Constant Matrix: (Units=GPa)
#
#
# Indices 1 2 3 4 5 6 
#
# 1 8.4709 7.9958 9.3817 0.0000 0.0000 0.0000
# 2 7.9958 90.7496 85.2626 0.0000 0.0000 0.0000
# 3 9.3817 85.2626 163.6031 0.0000 0.0000 0.0000
# 4 0.0000 0.0000 0.0000 9.0320 0.0000 0.0000
# 5 0.0000 0.0000 0.0000 0.0000 14.6666 0.0000
# 6 0.0000 0.0000 0.0000 0.0000 0.0000 12.5099
#
#
#
# Elastic Compliance Matrix: (Units=1/GPa)
#
#
# Indices 1 2 3 4 5 6 
#
# 1 0.129457 -0.008683 -0.002898 0.000000 0.000000 0.000000
# 2 -0.008683 0.022174 -0.011058 0.000000 0.000000 0.000000
# 3 -0.002898 -0.011058 0.012042 0.000000 0.000000 0.000000
# 4 0.000000 0.000000 0.000000 0.110717 0.000000 0.000000
# 5 0.000000 0.000000 0.000000 0.000000 0.068182 0.000000
# 6 0.000000 0.000000 0.000000 0.000000 0.000000 0.079937
#
#
# Mechanical properties :
#
#
# Convention : Reuss Voigt Hill
#
# Bulk Modulus (GPa) = 8.44641 52.01156 30.22899
# Shear Modulus (GPa) = 9.85702 17.92060 13.88881
#
# Velocity S-wave (km/s) = 2.37974 3.20873 2.82481
# Velocity P-wave (km/s) = 3.52188 6.60381 5.29216
#
# Compressibility (1/GPa) = 0.11839350
#
# Stress axis : x y z
#
# Youngs Moduli (GPa) = 7.72455 45.09803 83.04576
#
# Poissons Ratio (x) = 0.39160 0.24069
# Poissons Ratio (y) = 0.06707 0.91833
# Poissons Ratio (z) = 0.02239 0.49870
#
# Static dielectric constant tensor:
#      x y z
#    x 1.622000 0.000000 0.000000 
#    y 0.000000 1.610280 0.000000 
#    z 0.000000 0.000000 1.617580 
# 
# From -- ./inp_files/50160.got.cif
#   From: 2010.05.17/outbox.cif.g08.bks.cpg/sg65_26_cif.got.tgz:50160.got - 2010.06.03 17:01:31.
