data_PCOD9486988
_publ_section_title
;
Structure prediction by ZEFSAII (Michael W. Deem and Ramdas Pophale) SiO2 
 PCOD9486988
Probable space group: C M M M
;
_chemical_formula_sum "Si O2"
_cell_formula_units_Z 104
_cell_length_a 28.464685
_cell_length_b 7.919597
_cell_length_c 22.738643
_cell_angle_alpha 90.000000
_cell_angle_beta 90.000000
_cell_angle_gamma 90.000000
_cell_volume 5125.945777
_symmetry_space_group_name_H-M "C M M M"
_symmetry_group_IT_number 65
_symmetry_cell_setting 'orthorhombic'
loop_
_space_group_symop_operation_xyz
x,y,z
-x,-y,z
x,-y,-z
-x,y,-z
-x,-y,-z
x,y,-z
-x,y,z
x,-y,z
1/2+x,1/2+y,z
1/2-x,1/2-y,z
1/2+x,1/2-y,-z
1/2-x,1/2+y,-z
1/2-x,1/2-y,-z
1/2+x,1/2+y,-z
1/2-x,1/2+y,z
1/2+x,1/2-y,z
loop_
_atom_site_type_symbol
_atom_site_label
_atom_site_fract_x
_atom_site_fract_y
_atom_site_fract_z
Si Si1 0.378295 0.297253 0.662020
Si Si2 0.303019 0.296428 0.932199
Si Si3 0.444307 0.798956 0.000000
Si Si4 0.946506 0.205809 0.563023
Si Si5 0.053396 0.303835 0.237407
Si Si6 0.101884 0.802833 0.879010
Si Si7 0.804323 0.203598 0.566585
O O1 0.374694 0.500000 0.661551
O O2 0.418599 0.233708 0.618112
O O3 0.401423 0.257695 0.724876
O O4 0.332481 0.236705 0.625049
O O5 0.306362 0.500000 0.933794
O O6 0.250000 0.250000 0.914442
O O7 0.344892 0.236041 0.889719
O O8 0.309861 0.235645 0.000000
O O9 0.422135 0.718359 0.942173
O O10 0.500000 0.774248 0.000000
O O11 0.434752 0.000000 0.000000
O O12 0.926690 0.256984 0.500000
O O13 0.000000 0.259019 0.565924
O O14 0.945654 0.000000 0.564290
O O15 0.049303 0.500000 0.250899
O O16 0.069490 0.281704 0.170040
O O17 0.000000 0.229323 0.247299
O O18 0.104824 0.000000 0.863002
O O19 0.818606 0.262768 0.500000
O O20 0.750000 0.250000 0.572901
O O21 0.809564 0.000000 0.564961
#
# Coordination Sequence:
#
# PCOD9486988 Si02
#       7
#    16  16   8  16  16  16  16
#     4  10  19  33  55  80 105 141 189 233 275 329
#     4   9  18  34  56  86 118 144 175 218 269 326
#     4  11  23  37  56  85 118 149 184 231 290 351
#     4   8  13  22  41  72 104 129 161 213 270 318
#     4  11  25  42  57  78 112 151 191 235 286 345
#     4  11  22  39  61  86 114 147 192 240 283 335
#     4   9  18  33  55  85 118 149 186 236 290 343
#
# _framework density 20.288938000000002
#
# number of rings (size 3 to 8) (size 9 to 14) (size 15 to 20)
#    0.000    2.231    0.769    3.000    0.000    8.000 
#    0.000    0.769    0.000    1.385    0.000    5.385 
#    0.000    0.000    0.000    0.000    0.000    0.000 
#
# Total GULP energy -289582.600810 kJ/mol
# GULP energy per Si atom -5568.896169 kJ/mol
# Density = 2.024276 g / cm^3
# Si number density = 20.288938 Si / 1000 Ang^3
#
#
#
# Elastic Constant Matrix: (Units=GPa)
#
#
# Indices 1 2 3 4 5 6 
#
# 1 120.4055 10.1895 36.2060 0.0000 0.0000 0.0000
# 2 10.1895 22.9406 -3.4659 0.0000 0.0000 0.0000
# 3 36.2060 -3.4659 97.8630 0.0000 0.0000 0.0000
# 4 0.0000 0.0000 0.0000 -6.1561 0.0000 0.0000
# 5 0.0000 0.0000 0.0000 0.0000 28.0492 0.0000
# 6 0.0000 0.0000 0.0000 0.0000 0.0000 22.2625
#
#
#
# Elastic Compliance Matrix: (Units=1/GPa)
#
#
# Indices 1 2 3 4 5 6 
#
# 1 0.009877 -0.004966 -0.003830 0.000000 0.000000 0.000000
# 2 -0.004966 0.046322 0.003478 0.000000 0.000000 0.000000
# 3 -0.003830 0.003478 0.011759 0.000000 0.000000 0.000000
# 4 0.000000 0.000000 0.000000 -0.162442 0.000000 0.000000
# 5 0.000000 0.000000 0.000000 0.000000 0.035652 0.000000
# 6 0.000000 0.000000 0.000000 0.000000 0.000000 0.044919
#
#
# Mechanical properties :
#
#
# Convention : Reuss Voigt Hill
#
# Bulk Modulus (GPa) = 17.44554 36.34094 26.89324
# Shear Modulus (GPa) = 315.85603 22.04975 168.95289
#
# Velocity S-wave (km/s) = 12.49067 3.30022 9.13533
# Velocity P-wave (km/s) = 14.71869 5.69847 11.16047
#
# Compressibility (1/GPa) = 0.05732125
#
# Stress axis : x y z
#
# Youngs Moduli (GPa) = 101.24297 21.58803 85.04460
#
# Poissons Ratio (x) = 0.10720 0.32573
# Poissons Ratio (y) = 0.50276 -0.29576
# Poissons Ratio (z) = 0.38777 -0.07508
#
# Static dielectric constant tensor:
#      x y z
#    x 1.757790 0.000000 0.000000 
#    y 0.000000 1.805330 0.000000 
#    z 0.000000 0.000000 1.766510 
# 
# From -- ./inp_files/65946.got.cif
#   From: 2010.05.17/outbox.cif.g08.bks.cpg/sg65_33_cif.got.tgz:65946.got - 2010.06.03 17:01:31.
