data_PCOD9486388
_publ_section_title
;
Structure prediction by ZEFSAII (Michael W. Deem and Ramdas Pophale) SiO2 
 PCOD9486388
Probable space group: C M M M
;
_chemical_formula_sum "Si O2"
_cell_formula_units_Z 100
_cell_length_a 7.788903
_cell_length_b 29.943851
_cell_length_c 22.877729
_cell_angle_alpha 90.000000
_cell_angle_beta 90.000000
_cell_angle_gamma 90.000000
_cell_volume 5335.767035
_symmetry_space_group_name_H-M "C M M M"
_symmetry_group_IT_number 65
_symmetry_cell_setting 'orthorhombic'
loop_
_space_group_symop_operation_xyz
x,y,z
-x,-y,z
x,-y,-z
-x,y,-z
-x,-y,-z
x,y,-z
-x,y,z
x,-y,z
1/2+x,1/2+y,z
1/2-x,1/2-y,z
1/2+x,1/2-y,-z
1/2-x,1/2+y,-z
1/2-x,1/2-y,-z
1/2+x,1/2+y,-z
1/2-x,1/2+y,z
1/2+x,1/2-y,z
loop_
_atom_site_type_symbol
_atom_site_label
_atom_site_fract_x
_atom_site_fract_y
_atom_site_fract_z
Si Si1 0.704762 0.299163 0.258982
Si Si2 0.709000 0.607589 0.209708
Si Si3 0.698466 0.200234 0.605192
Si Si4 0.000000 0.064291 0.000000
Si Si5 0.791991 0.605700 0.564376
Si Si6 0.196157 0.552267 0.096463
Si Si7 0.294422 0.449663 0.321279
O O1 0.500000 0.301752 0.265320
O O2 0.750000 0.250000 0.235982
O O3 0.760901 0.340890 0.219822
O O4 0.777437 0.302936 0.324697
O O5 0.500000 0.606216 0.206572
O O6 0.780080 0.583960 0.152364
O O7 0.766644 0.580452 0.267254
O O8 0.500000 0.197654 0.591323
O O9 0.750000 0.250000 0.586855
O O10 0.777260 0.155841 0.577073
O O11 0.847176 0.062114 0.949454
O O12 0.735319 0.590915 0.500000
O O13 0.741775 0.573941 0.617399
O O14 0.000000 0.606864 0.564275
O O15 0.214990 0.500000 0.113676
O O16 0.000000 0.557573 0.073894
O O17 0.500000 0.451932 0.315052
O O18 0.225562 0.500000 0.319080
#
# Coordination Sequence:
#
# PCOD9486388 Si02
#       7
#    16  16  16   4  16  16  16
#     4  10  19  32  54  82 114 147 183 229 291 350
#     4  10  20  36  58  84 119 155 191 238 297 349
#     4  10  19  32  52  75 103 138 177 227 288 350
#     4  12  23  42  64  86 136 176 200 252 292 330
#     4  10  22  38  53  72 102 142 186 235 292 351
#     4  11  23  37  60  93 126 168 212 243 289 350
#     4  10  21  37  57  79 106 143 185 234 291 344
#
# _framework density 18.741448999999999
#
# number of rings (size 3 to 8) (size 9 to 14) (size 15 to 20)
#    0.000    1.760    2.400    3.360    0.000    5.120 
#    0.000    1.600    0.000    0.000    0.000    0.560 
#    0.000    0.000    0.000    0.000    0.000    0.000 
#
# Total GULP energy -278523.745742 kJ/mol
# GULP energy per Si atom -5570.474915 kJ/mol
# Density = 1.869879 g / cm^3
# Si number density = 18.741449 Si / 1000 Ang^3
#
#
#
# Elastic Constant Matrix: (Units=GPa)
#
#
# Indices 1 2 3 4 5 6 
#
# 1 54.5758 19.2404 10.1120 0.0000 0.0000 0.0000
# 2 19.2404 130.1254 66.7456 0.0000 0.0000 0.0000
# 3 10.1120 66.7456 101.3154 0.0000 0.0000 0.0000
# 4 0.0000 0.0000 0.0000 -193.6590 0.0000 0.0000
# 5 0.0000 0.0000 0.0000 0.0000 35.1108 0.0000
# 6 0.0000 0.0000 0.0000 0.0000 0.0000 23.1833
#
#
#
# Elastic Compliance Matrix: (Units=1/GPa)
#
#
# Indices 1 2 3 4 5 6 
#
# 1 0.019331 -0.002822 -0.000070 0.000000 0.000000 0.000000
# 2 -0.002822 0.012019 -0.007636 0.000000 0.000000 0.000000
# 3 -0.000070 -0.007636 0.014908 0.000000 0.000000 0.000000
# 4 0.000000 0.000000 0.000000 -0.005164 0.000000 0.000000
# 5 0.000000 0.000000 0.000000 0.000000 0.028481 0.000000
# 6 0.000000 0.000000 0.000000 0.000000 0.000000 0.043134
#
#
# Mechanical properties :
#
#
# Convention : Reuss Voigt Hill
#
# Bulk Modulus (GPa) = 39.68158 53.13474 46.40816
# Shear Modulus (GPa) = 35.16961 -14.41174 10.37893
#
# Velocity S-wave (km/s) = 4.33664 -2.77605 2.35584
# Velocity P-wave (km/s) = 6.80400 4.25884 5.67592
#
# Compressibility (1/GPa) = 0.02520061
#
# Stress axis : x y z
#
# Youngs Moduli (GPa) = 51.72997 83.20021 67.07823
#
# Poissons Ratio (x) = 0.23482 0.00470
# Poissons Ratio (y) = 0.14600 0.51224
# Poissons Ratio (z) = 0.00362 0.63535
#
# Static dielectric constant tensor:
#      x y z
#    x 1.686060 0.000000 0.000000 
#    y 0.000000 1.676950 0.000000 
#    z 0.000000 0.000000 1.612410 
# 
# From -- ./inp_files/60841.got.cif
#   From: 2010.05.17/outbox.cif.g08.bks.cpg/sg65_31_cif.got.tgz:60841.got - 2010.06.03 17:01:31.
