data_PCOD9486097
_publ_section_title
;
Structure prediction by ZEFSAII (Michael W. Deem and Ramdas Pophale) SiO2 
 PCOD9486097
Probable space group: C M M M
;
_chemical_formula_sum "Si O2"
_cell_formula_units_Z 120
_cell_length_a 8.193985
_cell_length_b 29.616764
_cell_length_c 30.582353
_cell_angle_alpha 90.000000
_cell_angle_beta 90.000000
_cell_angle_gamma 90.000000
_cell_volume 7421.704629
_symmetry_space_group_name_H-M "C M M M"
_symmetry_group_IT_number 65
_symmetry_cell_setting 'orthorhombic'
loop_
_space_group_symop_operation_xyz
x,y,z
-x,-y,z
x,-y,-z
-x,y,-z
-x,-y,-z
x,y,-z
-x,y,z
x,-y,z
1/2+x,1/2+y,z
1/2-x,1/2-y,z
1/2+x,1/2-y,-z
1/2-x,1/2+y,-z
1/2-x,1/2-y,-z
1/2+x,1/2+y,-z
1/2-x,1/2+y,z
1/2+x,1/2-y,z
loop_
_atom_site_type_symbol
_atom_site_label
_atom_site_fract_x
_atom_site_fract_y
_atom_site_fract_z
Si Si1 0.000000 0.555058 0.550715
Si Si2 0.680973 0.554864 0.604113
Si Si3 0.697911 0.947983 0.865735
Si Si4 0.304480 0.799431 0.185723
Si Si5 0.199496 0.605512 0.048308
Si Si6 0.191463 0.106591 0.219561
Si Si7 0.696269 0.201008 0.084261
Si Si8 0.308657 0.947905 0.698049
O O1 0.834740 0.570159 0.575218
O O2 0.000000 0.500000 0.552227
O O3 0.000000 0.568284 0.500000
O O4 0.500000 0.569689 0.589901
O O5 0.682856 0.500000 0.602510
O O6 0.711487 0.566571 0.654855
O O7 0.500000 0.946763 0.864972
O O8 0.752033 0.925619 0.911389
O O9 0.758224 0.919064 0.824846
O O10 0.749499 0.000000 0.862349
O O11 0.500000 0.802187 0.185802
O O12 0.250000 0.750000 0.201102
O O13 0.235640 0.841095 0.212845
O O14 0.248299 0.803603 0.134888
O O15 0.251223 0.657085 0.057871
O O16 0.000000 0.605032 0.048580
O O17 0.252557 0.591065 0.000000
O O18 0.279626 0.083424 0.260434
O O19 0.000000 0.101473 0.226328
O O20 0.500000 0.200484 0.084543
O O21 0.750000 0.250000 0.067658
O O22 0.500000 0.947942 0.686375
O O23 0.263585 0.000000 0.708914
#
# Coordination Sequence:
#
# PCOD9486097 Si02
#       8
#     8  16  16  16  16  16  16  16
#     4   9  16  26  40  60  88 126 174 222 265 307
#     4   9  16  27  42  61  89 125 167 217 265 307
#     4  10  20  35  52  69  91 119 152 194 241 283
#     4  10  19  34  53  73  97 122 150 186 229 277
#     4   9  17  31  50  71  93 116 145 184 230 281
#     4  12  23  33  49  73  97 123 158 196 236 288
#     4   9  17  30  49  70  93 116 140 174 221 272
#     4  10  19  32  49  68  94 129 166 209 260 304
#
# _framework density 16.168793000000001
#
# number of rings (size 3 to 8) (size 9 to 14) (size 15 to 20)
#    0.000    2.200    2.000    2.400    0.000    4.000 
#    0.000    2.667    0.000    1.200    0.000    0.933 
#    0.000    0.000    0.000    0.000    0.000    0.667 
#
# Total GULP energy -334718.532927 kJ/mol
# GULP energy per Si atom -5578.642215 kJ/mol
# Density = 1.613199 g / cm^3
# Si number density = 16.168793 Si / 1000 Ang^3
#
#
#
# Elastic Constant Matrix: (Units=GPa)
#
#
# Indices 1 2 3 4 5 6 
#
# 1 53.7342 11.1128 27.0650 0.0000 0.0000 0.0000
# 2 11.1128 69.7171 27.0526 0.0000 0.0000 0.0000
# 3 27.0650 27.0526 84.4759 0.0000 0.0000 0.0000
# 4 0.0000 0.0000 0.0000 3.4043 0.0000 0.0000
# 5 0.0000 0.0000 0.0000 0.0000 0.9705 0.0000
# 6 0.0000 0.0000 0.0000 0.0000 0.0000 18.5406
#
#
#
# Elastic Compliance Matrix: (Units=1/GPa)
#
#
# Indices 1 2 3 4 5 6 
#
# 1 0.022240 -0.000891 -0.006840 0.000000 0.000000 0.000000
# 2 -0.000891 0.016415 -0.004971 0.000000 0.000000 0.000000
# 3 -0.006840 -0.004971 0.015621 0.000000 0.000000 0.000000
# 4 0.000000 0.000000 0.000000 0.293746 0.000000 0.000000
# 5 0.000000 0.000000 0.000000 0.000000 1.030396 0.000000
# 6 0.000000 0.000000 0.000000 0.000000 0.000000 0.053936
#
#
# Mechanical properties :
#
#
# Convention : Reuss Voigt Hill
#
# Bulk Modulus (GPa) = 34.63649 37.59866 36.11757
# Shear Modulus (GPa) = 3.40743 14.09621 8.75182
#
# Velocity S-wave (km/s) = 1.45327 2.95586 2.32906
# Velocity P-wave (km/s) = 4.92791 5.91217 5.44234
#
# Compressibility (1/GPa) = 0.02887129
#
# Stress axis : x y z
#
# Youngs Moduli (GPa) = 44.96498 60.92103 64.01576
#
# Poissons Ratio (x) = 0.05427 0.43787
# Poissons Ratio (y) = 0.04005 0.31824
# Poissons Ratio (z) = 0.30756 0.30285
#
# Static dielectric constant tensor:
#      x y z
#    x 1.578850 0.000000 0.000000 
#    y 0.000000 1.523000 0.000000 
#    z 0.000000 0.000000 1.530830 
# 
# From -- ./inp_files/73898.got.cif
#   From: 2010.05.17/outbox.cif.g08.bks.cpg/sg65_37_cif.got.tgz:73898.got - 2010.06.03 17:01:31.
