data_PCOD9486767
_publ_section_title
;
Structure prediction by ZEFSAII (Michael W. Deem and Ramdas Pophale) SiO2 
 PCOD9486767
Probable space group: C M M M
;
_chemical_formula_sum "Si O2"
_cell_formula_units_Z 104
_cell_length_a 9.090313
_cell_length_b 18.594852
_cell_length_c 34.703386
_cell_angle_alpha 90.000000
_cell_angle_beta 90.000000
_cell_angle_gamma 90.000000
_cell_volume 5866.018309
_symmetry_space_group_name_H-M "C M M M"
_symmetry_group_IT_number 65
_symmetry_cell_setting 'orthorhombic'
loop_
_space_group_symop_operation_xyz
x,y,z
-x,-y,z
x,-y,-z
-x,y,-z
-x,-y,-z
x,y,-z
-x,y,z
x,-y,z
1/2+x,1/2+y,z
1/2-x,1/2-y,z
1/2+x,1/2-y,-z
1/2-x,1/2+y,-z
1/2-x,1/2-y,-z
1/2+x,1/2+y,-z
1/2-x,1/2+y,z
1/2+x,1/2-y,z
loop_
_atom_site_type_symbol
_atom_site_label
_atom_site_fract_x
_atom_site_fract_y
_atom_site_fract_z
Si Si1 0.669354 0.412458 0.232070
Si Si2 0.825058 0.085510 0.544248
Si Si3 0.675781 0.671927 0.000000
Si Si4 0.672309 0.913395 0.846607
Si Si5 0.675765 0.915400 0.689245
Si Si6 0.676849 0.329072 0.084494
Si Si7 0.176139 0.327653 0.612394
O O1 0.500000 0.389664 0.229467
O O2 0.672377 0.500000 0.232361
O O3 0.759355 0.389951 0.194331
O O4 0.742285 0.389743 0.272266
O O5 0.787742 0.104623 0.500000
O O6 0.734732 0.129174 0.575499
O O7 0.000000 0.098118 0.549384
O O8 0.800119 0.000000 0.548797
O O9 0.750000 0.750000 0.000000
O O10 0.713134 0.639232 0.958272
O O11 0.500000 0.681199 0.000000
O O12 0.500000 0.895126 0.848327
O O13 0.758457 0.877117 0.881574
O O14 0.685966 0.000000 0.848962
O O15 0.500000 0.910041 0.695299
O O16 0.715400 0.871137 0.651264
O O17 0.710043 0.000000 0.683217
O O18 0.500000 0.323186 0.087806
O O19 0.750000 0.250000 0.086733
O O20 0.250000 0.250000 0.613273
O O21 0.000000 0.321529 0.610753
#
# Coordination Sequence:
#
# PCOD9486767 Si02
#       7
#    16  16   8  16  16  16  16
#     4   9  17  30  51  78 103 130 168 212 258 309
#     4   9  19  37  60  84 109 138 175 220 266 311
#     4   8  16  30  49  72  97 129 167 209 255 302
#     4  10  20  34  52  75 105 139 173 212 259 307
#     4   9  18  34  55  77 101 131 170 215 260 308
#     4  10  19  33  53  76 102 132 170 213 257 308
#     4  11  23  37  54  78 110 146 180 216 261 312
#
# _framework density 17.729232
#
# number of rings (size 3 to 8) (size 9 to 14) (size 15 to 20)
#    0.000    2.462    0.000    2.769    0.000    6.154 
#    0.000    3.462    0.000    4.154    0.000    0.000 
#    0.000    0.000    0.000    0.000    0.000    0.000 
#
# Total GULP energy -290026.459988 kJ/mol
# GULP energy per Si atom -5577.431923 kJ/mol
# Density = 1.768888 g / cm^3
# Si number density = 17.729232 Si / 1000 Ang^3
#
#
#
# Elastic Constant Matrix: (Units=GPa)
#
#
# Indices 1 2 3 4 5 6 
#
# 1 89.4890 45.7175 95.8763 0.0000 0.0000 0.0000
# 2 45.7175 40.2495 66.6163 0.0000 0.0000 0.0000
# 3 95.8763 66.6163 201.4998 0.0000 0.0000 0.0000
# 4 0.0000 0.0000 0.0000 400.3225 0.0000 0.0000
# 5 0.0000 0.0000 0.0000 0.0000 35.3018 0.0000
# 6 0.0000 0.0000 0.0000 0.0000 0.0000 20.1656
#
#
#
# Elastic Compliance Matrix: (Units=1/GPa)
#
#
# Indices 1 2 3 4 5 6 
#
# 1 0.030226 -0.023252 -0.006695 0.000000 0.000000 0.000000
# 2 -0.023252 0.072753 -0.012989 0.000000 0.000000 0.000000
# 3 -0.006695 -0.012989 0.012442 0.000000 0.000000 0.000000
# 4 0.000000 0.000000 0.000000 0.002498 0.000000 0.000000
# 5 0.000000 0.000000 0.000000 0.000000 0.028327 0.000000
# 6 0.000000 0.000000 0.000000 0.000000 0.000000 0.049589
#
#
# Mechanical properties :
#
#
# Convention : Reuss Voigt Hill
#
# Bulk Modulus (GPa) = 33.84003 83.07316 58.45660
# Shear Modulus (GPa) = 17.14930 99.35985 58.25457
#
# Velocity S-wave (km/s) = 3.11350 7.49431 5.73840
# Velocity P-wave (km/s) = 5.66160 11.03832 8.77207
#
# Compressibility (1/GPa) = 0.02955080
#
# Stress axis : x y z
#
# Youngs Moduli (GPa) = 33.08432 13.74508 80.36984
#
# Poissons Ratio (x) = 0.31959 0.53806
# Poissons Ratio (y) = 0.76926 1.04393
# Poissons Ratio (z) = 0.22149 0.17854
#
# Static dielectric constant tensor:
#      x y z
#    x 1.591670 0.000000 0.000000 
#    y 0.000000 1.579860 0.000000 
#    z 0.000000 0.000000 1.604750 
# 
# From -- ./inp_files/76869.got.cif
#   From: 2010.05.17/outbox.cif.g08.bks.cpg/sg65_39_cif.got.tgz:76869.got - 2010.06.03 17:01:31.
