data_PCOD9486534
_publ_section_title
;
Structure prediction by ZEFSAII (Michael W. Deem and Ramdas Pophale) SiO2 
 PCOD9486534
Probable space group: C M M M
;
_chemical_formula_sum "Si O2"
_cell_formula_units_Z 96
_cell_length_a 24.440769
_cell_length_b 26.073017
_cell_length_c 7.896037
_cell_angle_alpha 90.000000
_cell_angle_beta 90.000000
_cell_angle_gamma 90.000000
_cell_volume 5031.706826
_symmetry_space_group_name_H-M "C M M M"
_symmetry_group_IT_number 65
_symmetry_cell_setting 'orthorhombic'
loop_
_space_group_symop_operation_xyz
x,y,z
-x,-y,z
x,-y,-z
-x,y,-z
-x,-y,-z
x,y,-z
-x,y,z
x,-y,z
1/2+x,1/2+y,z
1/2-x,1/2-y,z
1/2+x,1/2-y,-z
1/2-x,1/2+y,-z
1/2-x,1/2-y,-z
1/2+x,1/2+y,-z
1/2-x,1/2+y,z
1/2+x,1/2-y,z
loop_
_atom_site_type_symbol
_atom_site_label
_atom_site_fract_x
_atom_site_fract_y
_atom_site_fract_z
Si Si1 0.000000 0.697185 0.792766
Si Si2 0.880944 0.151390 0.704078
Si Si3 0.000000 0.184709 0.200999
Si Si4 0.811175 0.752266 0.700446
Si Si5 0.883147 0.342712 0.200474
Si Si6 0.693751 0.441544 0.706808
Si Si7 0.181356 0.558403 0.295492
O O1 0.000000 0.756405 0.733324
O O2 0.944426 0.669287 0.737114
O O3 0.000000 0.697245 0.000000
O O4 0.877484 0.151132 0.500000
O O5 0.848703 0.201716 0.769554
O O6 0.849594 0.100593 0.765411
O O7 0.944472 0.156554 0.747055
O O8 0.000000 0.188596 0.000000
O O9 0.805587 0.762654 0.500000
O O10 0.750000 0.750000 0.773119
O O11 0.841802 0.698611 0.721583
O O12 0.861191 0.399431 0.234867
O O13 0.882818 0.333733 0.000000
O O14 0.693393 0.441423 0.500000
O O15 0.681971 0.500000 0.760151
O O16 0.756212 0.428630 0.757802
O O17 0.180995 0.558840 0.500000
O O18 0.169738 0.500000 0.240300
#
# Coordination Sequence:
#
# PCOD9486534 Si02
#       7
#     8  16   8  16  16  16  16
#     4   9  20  37  52  69 100 144 181 213 258 311
#     4  10  19  32  53  80 104 130 176 221 255 305
#     4  11  21  37  54  69 102 146 181 213 261 312
#     4  10  20  33  51  77 108 136 165 212 270 322
#     4  11  21  35  54  76 104 138 179 220 260 310
#     4   8  15  31  56  81 106 137 170 210 262 315
#     4   9  18  35  58  82 109 140 172 210 262 317
#
# _framework density 19.079013
#
# number of rings (size 3 to 8) (size 9 to 14) (size 15 to 20)
#    0.000    2.333    1.667    2.750    0.000    3.333 
#    0.000    5.000    0.000    6.500    0.000    0.000 
#    0.000    0.000    0.000    0.000    0.000    0.000 
#
# Total GULP energy -267883.914526 kJ/mol
# GULP energy per Si atom -5580.914886 kJ/mol
# Density = 1.903559 g / cm^3
# Si number density = 19.079013 Si / 1000 Ang^3
#
#
#
# Elastic Constant Matrix: (Units=GPa)
#
#
# Indices 1 2 3 4 5 6 
#
# 1 159.9229 74.8743 3.1271 0.0000 0.0000 0.0000
# 2 74.8743 101.1028 -3.8995 0.0000 0.0000 0.0000
# 3 3.1271 -3.8995 16.0599 0.0000 0.0000 0.0000
# 4 0.0000 0.0000 0.0000 3.4916 0.0000 0.0000
# 5 0.0000 0.0000 0.0000 0.0000 0.1684 0.0000
# 6 0.0000 0.0000 0.0000 0.0000 0.0000 20.0722
#
#
#
# Elastic Compliance Matrix: (Units=1/GPa)
#
#
# Indices 1 2 3 4 5 6 
#
# 1 0.009785 -0.007389 -0.003699 0.000000 0.000000 0.000000
# 2 -0.007389 0.015564 0.005218 0.000000 0.000000 0.000000
# 3 -0.003699 0.005218 0.064254 0.000000 0.000000 0.000000
# 4 0.000000 0.000000 0.000000 0.286399 0.000000 0.000000
# 5 0.000000 0.000000 0.000000 0.000000 5.937147 0.000000
# 6 0.000000 0.000000 0.000000 0.000000 0.000000 0.049820
#
#
# Mechanical properties :
#
#
# Convention : Reuss Voigt Hill
#
# Bulk Modulus (GPa) = 12.84319 47.25437 30.04878
# Shear Modulus (GPa) = 0.78117 18.27871 9.52994
#
# Velocity S-wave (km/s) = 0.64057 3.09860 2.23737
# Velocity P-wave (km/s) = 2.70061 6.13378 4.73902
#
# Compressibility (1/GPa) = 0.07786230
#
# Stress axis : x y z
#
# Youngs Moduli (GPa) = 102.19864 64.24922 15.56320
#
# Poissons Ratio (x) = 0.47475 0.05757
# Poissons Ratio (y) = 0.75516 -0.08121
# Poissons Ratio (z) = 0.37807 -0.33525
#
# Static dielectric constant tensor:
#      x y z
#    x 1.657210 0.000000 0.000000 
#    y 0.000000 1.648640 0.000000 
#    z 0.000000 0.000000 1.707190 
# 
# From -- ./inp_files/14365.got.cif
#   From: 2010.05.17/outbox.cif.g08.bks.cpg/sg65_8_cif.got.tgz:14365.got - 2010.06.03 17:01:31.
