data_PCOD9486364
_publ_section_title
;
Structure prediction by ZEFSAII (Michael W. Deem and Ramdas Pophale) SiO2 
 PCOD9486364
Probable space group: C M M M
;
_chemical_formula_sum "Si O2"
_cell_formula_units_Z 72
_cell_length_a 29.843769
_cell_length_b 14.426215
_cell_length_c 7.629118
_cell_angle_alpha 90.000000
_cell_angle_beta 90.000000
_cell_angle_gamma 90.000000
_cell_volume 3284.584222
_symmetry_space_group_name_H-M "C M M M"
_symmetry_group_IT_number 65
_symmetry_cell_setting 'orthorhombic'
loop_
_space_group_symop_operation_xyz
x,y,z
-x,-y,z
x,-y,-z
-x,y,-z
-x,-y,-z
x,y,-z
-x,y,z
x,-y,z
1/2+x,1/2+y,z
1/2-x,1/2-y,z
1/2+x,1/2-y,-z
1/2-x,1/2+y,-z
1/2-x,1/2-y,-z
1/2+x,1/2+y,-z
1/2-x,1/2+y,z
1/2+x,1/2-y,z
loop_
_atom_site_type_symbol
_atom_site_label
_atom_site_fract_x
_atom_site_fract_y
_atom_site_fract_z
Si Si1 0.000000 0.106515 0.784277
Si Si2 0.266634 0.887621 0.204909
Si Si3 0.668254 0.392994 0.704019
Si Si4 0.415921 0.276966 0.200839
Si Si5 0.135093 0.606681 0.784300
O O1 0.955847 0.161555 0.724003
O O2 0.000000 0.000000 0.726321
O O3 0.000000 0.103367 0.000000
O O4 0.219164 0.856341 0.279994
O O5 0.315368 0.860275 0.275569
O O6 0.267077 0.000000 0.221097
O O7 0.265370 0.864117 0.000000
O O8 0.656391 0.393546 0.500000
O O9 0.668156 0.500000 0.768096
O O10 0.630243 0.334738 0.798207
O O11 0.402385 0.177863 0.278979
O O12 0.429212 0.258702 0.000000
O O13 0.128229 0.500000 0.733528
O O14 0.136270 0.608476 0.000000
#
# Coordination Sequence:
#
# PCOD9486364 Si02
#       5
#     8  16  16  16  16
#     4   9  18  32  50  74 100 123 155 201 246 287
#     4   8  14  27  47  68  93 128 164 195 233 284
#     4  10  20  32  46  69 101 131 161 201 244 285
#     4  10  19  32  52  73  94 126 165 201 241 290
#     4   8  15  29  49  73  99 126 160 201 239 279
#
# _framework density 21.920580999999999
#
# number of rings (size 3 to 8) (size 9 to 14) (size 15 to 20)
#    0.000    3.000    0.000    2.667    0.000    3.111 
#    0.000    6.667    0.000    7.333    0.000    0.000 
#    0.000    1.778    0.000    0.000    0.000    0.000 
#
# Total GULP energy -200863.411129 kJ/mol
# GULP energy per Si atom -5579.539198 kJ/mol
# Density = 2.187069 g / cm^3
# Si number density = 21.920581 Si / 1000 Ang^3
#
#
#
# Elastic Constant Matrix: (Units=GPa)
#
#
# Indices 1 2 3 4 5 6 
#
# 1 143.9277 92.2728 4.3995 0.0000 0.0000 0.0000
# 2 92.2728 140.8265 -1.4539 0.0000 0.0000 0.0000
# 3 4.3995 -1.4539 40.0850 0.0000 0.0000 0.0000
# 4 0.0000 0.0000 0.0000 -1.6932 0.0000 0.0000
# 5 0.0000 0.0000 0.0000 0.0000 -190.7235 0.0000
# 6 0.0000 0.0000 0.0000 0.0000 0.0000 42.6601
#
#
#
# Elastic Compliance Matrix: (Units=1/GPa)
#
#
# Indices 1 2 3 4 5 6 
#
# 1 0.012084 -0.007934 -0.001614 0.000000 0.000000 0.000000
# 2 -0.007934 0.012313 0.001317 0.000000 0.000000 0.000000
# 3 -0.001614 0.001317 0.025172 0.000000 0.000000 0.000000
# 4 0.000000 0.000000 0.000000 -0.590615 0.000000 0.000000
# 5 0.000000 0.000000 0.000000 0.000000 -0.005243 0.000000
# 6 0.000000 0.000000 0.000000 0.000000 0.000000 0.023441
#
#
# Mechanical properties :
#
#
# Convention : Reuss Voigt Hill
#
# Bulk Modulus (GPa) = 30.20484 57.25288 43.72886
# Shear Modulus (GPa) = -10.09388 -14.64326 -12.36857
#
# Velocity S-wave (km/s) = -2.14820 -2.58740 -2.37796
# Velocity P-wave (km/s) = 2.76697 4.15317 3.52881
#
# Compressibility (1/GPa) = 0.03310728
#
# Stress axis : x y z
#
# Youngs Moduli (GPa) = 82.75352 81.21257 39.72679
#
# Poissons Ratio (x) = 0.64438 0.06412
# Poissons Ratio (y) = 0.65660 -0.05234
# Poissons Ratio (z) = 0.13357 -0.10699
#
# Static dielectric constant tensor:
#      x y z
#    x 1.799510 0.000000 0.000000 
#    y 0.000000 1.837490 0.000000 
#    z 0.000000 0.000000 1.799130 
# 
# From -- ./inp_files/7214.got.cif
#   From: 2010.05.17/outbox.cif.g08.bks.cpg/sg65_4_cif.got.tgz:7214.got - 2010.06.03 17:01:31.
