data_PCOD9486168
_publ_section_title
;
Structure prediction by ZEFSAII (Michael W. Deem and Ramdas Pophale) SiO2 
 PCOD9486168
Probable space group: C M M M
;
_chemical_formula_sum "Si O2"
_cell_formula_units_Z 72
_cell_length_a 14.463582
_cell_length_b 18.591482
_cell_length_c 14.997267
_cell_angle_alpha 90.000000
_cell_angle_beta 90.000000
_cell_angle_gamma 90.000000
_cell_volume 4032.756464
_symmetry_space_group_name_H-M "C M M M"
_symmetry_group_IT_number 65
_symmetry_cell_setting 'orthorhombic'
loop_
_space_group_symop_operation_xyz
x,y,z
-x,-y,z
x,-y,-z
-x,y,-z
-x,-y,-z
x,y,-z
-x,y,z
x,-y,z
1/2+x,1/2+y,z
1/2-x,1/2-y,z
1/2+x,1/2-y,-z
1/2-x,1/2+y,-z
1/2-x,1/2-y,-z
1/2+x,1/2+y,-z
1/2-x,1/2+y,z
1/2+x,1/2-y,z
loop_
_atom_site_type_symbol
_atom_site_label
_atom_site_fract_x
_atom_site_fract_y
_atom_site_fract_z
Si Si1 0.611876 0.583158 0.500000
Si Si2 0.320781 0.921592 0.000000
Si Si3 0.609635 0.639197 0.307406
Si Si4 0.730436 0.079599 0.196057
Si Si5 0.604381 0.767217 0.000000
Si Si6 0.889552 0.280110 0.803295
O O1 0.644484 0.500000 0.500000
O O2 0.500000 0.580592 0.500000
O O3 0.637937 0.623853 0.409255
O O4 0.260912 0.916986 0.910900
O O5 0.389693 0.854463 0.000000
O O6 0.367693 0.000000 0.000000
O O7 0.500000 0.624113 0.298456
O O8 0.673016 0.590239 0.245071
O O9 0.625416 0.719937 0.271502
O O10 0.663244 0.146237 0.218105
O O11 0.692486 0.000000 0.217628
O O12 0.642383 0.749750 0.098823
O O13 0.500000 0.739826 0.000000
O O14 0.000000 0.293209 0.810998
#
# Coordination Sequence:
#
# PCOD9486168 Si02
#       6
#     8   8  16  16   8  16
#     4   9  18  34  55  76  96 122 161 207 250 290
#     4   8  16  28  42  65  97 133 169 201 235 277
#     4  10  20  34  53  75  98 124 158 203 252 300
#     4  10  19  32  50  72 101 135 169 204 241 285
#     4   8  14  26  45  68  95 129 168 205 237 274
#     4   9  18  32  50  74 102 132 167 204 243 286
#
# _framework density 17.853793
#
# number of rings (size 3 to 8) (size 9 to 14) (size 15 to 20)
#    0.000    2.778    0.000    1.333    0.000    2.889 
#    0.000   11.667    0.000    2.000    0.000    0.000 
#    0.000    7.111    0.000    0.000    0.000    0.000 
#
# Total GULP energy -200427.329583 kJ/mol
# GULP energy per Si atom -5567.425822 kJ/mol
# Density = 1.781316 g / cm^3
# Si number density = 17.853793 Si / 1000 Ang^3
#
#
#
# Elastic Constant Matrix: (Units=GPa)
#
#
# Indices 1 2 3 4 5 6 
#
# 1 56.4998 28.9731 36.2520 0.0000 0.0000 0.0000
# 2 28.9731 104.9070 68.8984 0.0000 0.0000 0.0000
# 3 36.2520 68.8984 119.2941 0.0000 0.0000 0.0000
# 4 0.0000 0.0000 0.0000 35.4057 0.0000 0.0000
# 5 0.0000 0.0000 0.0000 0.0000 14.6020 0.0000
# 6 0.0000 0.0000 0.0000 0.0000 0.0000 17.1740
#
#
#
# Elastic Compliance Matrix: (Units=1/GPa)
#
#
# Indices 1 2 3 4 5 6 
#
# 1 0.022476 -0.002774 -0.005228 0.000000 0.000000 0.000000
# 2 -0.002774 0.015700 -0.008225 0.000000 0.000000 0.000000
# 3 -0.005228 -0.008225 0.014722 0.000000 0.000000 0.000000
# 4 0.000000 0.000000 0.000000 0.028244 0.000000 0.000000
# 5 0.000000 0.000000 0.000000 0.000000 0.068484 0.000000
# 6 0.000000 0.000000 0.000000 0.000000 0.000000 0.058227
#
#
# Mechanical properties :
#
#
# Convention : Reuss Voigt Hill
#
# Bulk Modulus (GPa) = 48.91307 60.99423 54.95365
# Shear Modulus (GPa) = 20.23302 23.20817 21.72059
#
# Velocity S-wave (km/s) = 3.37005 3.60933 3.49174
# Velocity P-wave (km/s) = 6.52678 7.18380 6.86316
#
# Compressibility (1/GPa) = 0.02044443
#
# Stress axis : x y z
#
# Youngs Moduli (GPa) = 44.49163 63.69498 67.92769
#
# Poissons Ratio (x) = 0.17667 0.35514
# Poissons Ratio (y) = 0.12341 0.55867
# Poissons Ratio (z) = 0.23261 0.52386
#
# Static dielectric constant tensor:
#      x y z
#    x 1.612330 0.000000 0.000000 
#    y 0.000000 1.642510 0.000000 
#    z 0.000000 0.000000 1.627210 
# 
# From -- ./inp_files/39834.got.cif
#   From: 2010.05.17/outbox.cif.g08.bks.cpg/sg65_20_cif.got.tgz:39834.got - 2010.06.03 17:01:31.
