data_PCOD9486238
_publ_section_title
;
Structure prediction by ZEFSAII (Michael W. Deem and Ramdas Pophale) SiO2 
 PCOD9486238
Probable space group: C M M M
;
_chemical_formula_sum "Si O2"
_cell_formula_units_Z 80
_cell_length_a 22.437037
_cell_length_b 22.525683
_cell_length_c 7.304140
_cell_angle_alpha 90.000000
_cell_angle_beta 90.000000
_cell_angle_gamma 90.000000
_cell_volume 3691.582351
_symmetry_space_group_name_H-M "C M M M"
_symmetry_group_IT_number 65
_symmetry_cell_setting 'orthorhombic'
loop_
_space_group_symop_operation_xyz
x,y,z
-x,-y,z
x,-y,-z
-x,y,-z
-x,-y,-z
x,y,-z
-x,y,z
x,-y,z
1/2+x,1/2+y,z
1/2-x,1/2-y,z
1/2+x,1/2-y,-z
1/2-x,1/2+y,-z
1/2-x,1/2-y,-z
1/2+x,1/2+y,-z
1/2-x,1/2+y,z
1/2+x,1/2-y,z
loop_
_atom_site_type_symbol
_atom_site_label
_atom_site_fract_x
_atom_site_fract_y
_atom_site_fract_z
Si Si1 0.430612 0.232212 0.776033
Si Si2 0.882405 0.142284 0.788465
Si Si3 0.769040 0.069112 0.223715
Si Si4 0.000000 0.932145 0.280299
Si Si5 0.640944 0.884356 0.222793
Si Si6 0.568026 0.000000 0.223151
O O1 0.500000 0.228073 0.719945
O O2 0.401013 0.293724 0.712109
O O3 0.391111 0.176044 0.718786
O O4 0.431569 0.232986 0.000000
O O5 0.826996 0.105164 0.712156
O O6 0.941136 0.101873 0.781808
O O7 0.866630 0.153627 0.000000
O O8 0.708730 0.102924 0.278830
O O9 0.768816 0.000000 0.281470
O O10 0.769869 0.067476 0.000000
O O11 0.000000 0.931786 0.500000
O O12 0.000000 0.000000 0.217303
O O13 0.602178 0.940961 0.280394
O O14 0.641021 0.883369 0.000000
O O15 0.500000 0.000000 0.282599
O O16 0.568304 0.000000 0.000000
#
# Coordination Sequence:
#
# PCOD9486238 Si02
#       6
#    16  16  16   8  16   8
#     4   9  16  26  40  62  93 127 165 203 239 286
#     4  10  19  32  51  72  99 132 162 197 245 296
#     4   9  16  26  40  62  92 127 166 203 241 289
#     4  11  23  37  53  75  99 124 163 208 246 285
#     4   9  15  23  36  57  91 130 166 204 239 284
#     4   9  14  20  32  52  84 133 174 193 235 294
#
# _framework density 21.670922999999998
#
# number of rings (size 3 to 8) (size 9 to 14) (size 15 to 20)
#    0.000    2.600    2.000    1.500    0.000    4.800 
#    0.000    4.000    0.000    0.000    0.000    2.800 
#    0.000    0.000    0.000    1.100    0.000    1.200 
#
# Total GULP energy -223487.301821 kJ/mol
# GULP energy per Si atom -5587.182546 kJ/mol
# Density = 2.162160 g / cm^3
# Si number density = 21.670923 Si / 1000 Ang^3
#
#
#
# Elastic Constant Matrix: (Units=GPa)
#
#
# Indices 1 2 3 4 5 6 
#
# 1 238.9309 143.6727 -1.2069 0.0000 0.0000 0.0000
# 2 143.6727 249.3603 1.7125 0.0000 0.0000 0.0000
# 3 -1.2069 1.7125 88.4212 0.0000 0.0000 0.0000
# 4 0.0000 0.0000 0.0000 -8.5598 0.0000 0.0000
# 5 0.0000 0.0000 0.0000 0.0000 -40.8122 0.0000
# 6 0.0000 0.0000 0.0000 0.0000 0.0000 43.8671
#
#
#
# Elastic Compliance Matrix: (Units=1/GPa)
#
#
# Indices 1 2 3 4 5 6 
#
# 1 0.006406 -0.003692 0.000159 0.000000 0.000000 0.000000
# 2 -0.003692 0.006139 -0.000169 0.000000 0.000000 0.000000
# 3 0.000159 -0.000169 0.011315 0.000000 0.000000 0.000000
# 4 0.000000 0.000000 0.000000 -0.116825 0.000000 0.000000
# 5 0.000000 0.000000 0.000000 0.000000 -0.024502 0.000000
# 6 0.000000 0.000000 0.000000 0.000000 0.000000 0.022796
#
#
# Mechanical properties :
#
#
# Convention : Reuss Voigt Hill
#
# Bulk Modulus (GPa) = 60.77203 96.11878 78.44541
# Shear Modulus (GPa) = -61.13874 27.73462 -16.70206
#
# Velocity S-wave (km/s) = -5.31729 3.58132 -2.77918
# Velocity P-wave (km/s) = 3.09744 7.84546 5.09692
#
# Compressibility (1/GPa) = 0.01645494
#
# Stress axis : x y z
#
# Youngs Moduli (GPa) = 156.09726 162.90047 88.37868
#
# Poissons Ratio (x) = 0.60145 -0.01405
# Poissons Ratio (y) = 0.57634 0.01496
# Poissons Ratio (z) = -0.02481 0.02758
#
# Static dielectric constant tensor:
#      x y z
#    x 1.728060 0.000000 0.000000 
#    y 0.000000 1.736180 0.000000 
#    z 0.000000 0.000000 1.834920 
# 
# From -- ./inp_files/13841.got.cif
#   From: 2010.05.17/outbox.cif.g08.bks.cpg/sg65_7_cif.got.tgz:13841.got - 2010.06.03 17:01:31.
