data_PCOD9486032
_publ_section_title
;
Structure prediction by ZEFSAII (Michael W. Deem and Ramdas Pophale) SiO2 
 PCOD9486032
Probable space group: C M M M
;
_chemical_formula_sum "Si O2"
_cell_formula_units_Z 108
_cell_length_a 14.031927
_cell_length_b 14.304699
_cell_length_c 26.637465
_cell_angle_alpha 90.000000
_cell_angle_beta 90.000000
_cell_angle_gamma 90.000000
_cell_volume 5346.738359
_symmetry_space_group_name_H-M "C M M M"
_symmetry_group_IT_number 65
_symmetry_cell_setting 'orthorhombic'
loop_
_space_group_symop_operation_xyz
x,y,z
-x,-y,z
x,-y,-z
-x,y,-z
-x,-y,-z
x,y,-z
-x,y,z
x,-y,z
1/2+x,1/2+y,z
1/2-x,1/2-y,z
1/2+x,1/2-y,-z
1/2-x,1/2+y,-z
1/2-x,1/2-y,-z
1/2+x,1/2+y,-z
1/2-x,1/2+y,z
1/2+x,1/2-y,z
loop_
_atom_site_type_symbol
_atom_site_label
_atom_site_fract_x
_atom_site_fract_y
_atom_site_fract_z
Si Si1 0.884932 0.288337 0.592915
Si Si2 0.360931 0.268028 0.942876
Si Si3 0.500000 0.894245 0.060755
Si Si4 0.616053 0.105429 0.694970
Si Si5 0.884986 0.896822 0.345465
Si Si6 0.383418 0.712533 0.753117
Si Si7 0.887196 0.895506 0.150798
Si Si8 0.750000 0.250000 0.500000
O O1 0.860130 0.358383 0.638794
O O2 0.865504 0.184560 0.615136
O O3 0.820999 0.294419 0.543947
O O4 0.000000 0.295988 0.583687
O O5 0.250000 0.250000 0.944260
O O6 0.411522 0.171990 0.925627
O O7 0.379412 0.349941 0.903810
O O8 0.392529 0.289186 0.000000
O O9 0.500000 0.000000 0.080732
O O10 0.500000 0.901693 0.000000
O O11 0.500000 0.104775 0.696504
O O12 0.647122 0.184908 0.734499
O O13 0.648893 0.000000 0.704537
O O14 0.855908 0.860276 0.290695
O O15 0.000000 0.902250 0.343793
O O16 0.848377 0.000000 0.357507
O O17 0.500000 0.715704 0.753754
O O18 0.349468 0.674616 0.806551
O O19 0.000000 0.903609 0.161099
O O20 0.845872 0.000000 0.153435
#
# Coordination Sequence:
#
# PCOD9486032 Si02
#       8
#    16  16   8  16  16  16  16   4
#     4   9  19  34  52  75 102 136 177 218 261 317
#     4  10  21  37  57  81 112 154 203 253 297 348
#     4   9  18  36  59  79 105 149 204 252 297 352
#     4   8  14  29  54  79 104 139 182 226 270 321
#     4   8  13  26  50  75  98 130 172 213 258 314
#     4   8  14  25  47  80 111 138 176 219 269 334
#     4  10  19  31  52  84 120 150 181 230 292 355
#     4  12  22  36  54  74 108 146 170 216 276 310
#
# _framework density 20.19923
#
# number of rings (size 3 to 8) (size 9 to 14) (size 15 to 20)
#    0.000    3.037    0.741    2.444    0.000    2.667 
#    0.000    5.185    6.519    3.556    0.000    0.000 
#    0.000    0.000    0.000    0.000    0.000    0.000 
#
# Total GULP energy -300608.582588 kJ/mol
# GULP energy per Si atom -5566.825603 kJ/mol
# Density = 2.015326 g / cm^3
# Si number density = 20.199230 Si / 1000 Ang^3
#
#
#
# Elastic Constant Matrix: (Units=GPa)
#
#
# Indices 1 2 3 4 5 6 
#
# 1 67.9603 14.0100 10.1145 0.0000 0.0000 0.0000
# 2 14.0100 174.5209 77.1257 0.0000 0.0000 0.0000
# 3 10.1145 77.1257 129.6387 0.0000 0.0000 0.0000
# 4 0.0000 0.0000 0.0000 7.0578 0.0000 0.0000
# 5 0.0000 0.0000 0.0000 0.0000 14.0709 0.0000
# 6 0.0000 0.0000 0.0000 0.0000 0.0000 2.3318
#
#
#
# Elastic Compliance Matrix: (Units=1/GPa)
#
#
# Indices 1 2 3 4 5 6 
#
# 1 0.014998 -0.000932 -0.000616 0.000000 0.000000 0.000000
# 2 -0.000932 0.007832 -0.004587 0.000000 0.000000 0.000000
# 3 -0.000616 -0.004587 0.010490 0.000000 0.000000 0.000000
# 4 0.000000 0.000000 0.000000 0.141686 0.000000 0.000000
# 5 0.000000 0.000000 0.000000 0.000000 0.071069 0.000000
# 6 0.000000 0.000000 0.000000 0.000000 0.000000 0.428845
#
#
# Mechanical properties :
#
#
# Convention : Reuss Voigt Hill
#
# Bulk Modulus (GPa) = 47.50157 63.84669 55.67413
# Shear Modulus (GPa) = 7.20247 22.75009 14.97628
#
# Velocity S-wave (km/s) = 1.89036 3.35966 2.72587
# Velocity P-wave (km/s) = 5.32280 6.83570 6.12613
#
# Compressibility (1/GPa) = 0.02105193
#
# Stress axis : x y z
#
# Youngs Moduli (GPa) = 66.67452 127.68564 95.32438
#
# Poissons Ratio (x) = 0.11899 0.05870
# Poissons Ratio (y) = 0.06213 0.43722
# Poissons Ratio (z) = 0.04106 0.58564
#
# Static dielectric constant tensor:
#      x y z
#    x 1.786780 0.000000 0.000000 
#    y 0.000000 1.713910 0.000000 
#    z 0.000000 0.000000 1.696130 
# 
# From -- ./inp_files/70080.got.cif
#   From: 2010.05.17/outbox.cif.g08.bks.cpg/sg65_36_cif.got.tgz:70080.got - 2010.06.03 17:01:31.
