data_PCOD9486163
_publ_section_title
;
Structure prediction by ZEFSAII (Michael W. Deem and Ramdas Pophale) SiO2 
 PCOD9486163
Probable space group: C M M M
;
_chemical_formula_sum "Si O2"
_cell_formula_units_Z 88
_cell_length_a 7.747796
_cell_length_b 29.077950
_cell_length_c 19.248744
_cell_angle_alpha 90.000000
_cell_angle_beta 90.000000
_cell_angle_gamma 90.000000
_cell_volume 4336.550011
_symmetry_space_group_name_H-M "C M M M"
_symmetry_group_IT_number 65
_symmetry_cell_setting 'orthorhombic'
loop_
_space_group_symop_operation_xyz
x,y,z
-x,-y,z
x,-y,-z
-x,y,-z
-x,-y,-z
x,y,-z
-x,y,z
x,-y,z
1/2+x,1/2+y,z
1/2-x,1/2-y,z
1/2+x,1/2-y,-z
1/2-x,1/2+y,-z
1/2-x,1/2-y,-z
1/2+x,1/2+y,-z
1/2-x,1/2+y,z
1/2+x,1/2-y,z
loop_
_atom_site_type_symbol
_atom_site_label
_atom_site_fract_x
_atom_site_fract_y
_atom_site_fract_z
Si Si1 0.707805 0.695330 0.000000
Si Si2 0.293791 0.304147 0.151768
Si Si3 0.795967 0.055699 0.925598
Si Si4 0.294426 0.858569 0.290579
Si Si5 0.791959 0.303460 0.422691
Si Si6 0.796610 0.551550 0.772948
O O1 0.750000 0.750000 0.000000
O O2 0.770259 0.678333 0.075712
O O3 0.500000 0.689745 0.000000
O O4 0.500000 0.309093 0.151665
O O5 0.250000 0.250000 0.156260
O O6 0.227967 0.329369 0.220203
O O7 0.719144 0.069415 0.852238
O O8 0.000000 0.065974 0.923377
O O9 0.777063 0.000000 0.927204
O O10 0.728174 0.073049 0.000000
O O11 0.500000 0.863278 0.300971
O O12 0.223811 0.833023 0.358321
O O13 0.221101 0.909312 0.276169
O O14 0.728760 0.316407 0.500000
O O15 0.750000 0.250000 0.411441
O O16 0.000000 0.307359 0.423500
O O17 0.721552 0.500000 0.768510
O O18 0.000000 0.547715 0.758638
#
# Coordination Sequence:
#
# PCOD9486163 Si02
#       6
#     8  16  16  16  16  16
#     4   8  16  30  46  64  89 124 161 195 232 277
#     4  10  19  32  50  71  97 128 162 199 241 288
#     4   8  14  26  44  64  86 115 154 202 252 294
#     4  10  20  33  49  72  99 127 163 202 243 291
#     4   9  18  33  53  76 102 129 154 187 235 292
#     4   9  18  32  48  66  92 127 165 205 248 291
#
# _framework density 20.292629000000002
#
# number of rings (size 3 to 8) (size 9 to 14) (size 15 to 20)
#    0.000    2.909    0.000    1.636    0.000    4.000 
#    1.636    1.818    0.000    0.545    0.000    3.818 
#    0.000    0.000    0.000   10.727    0.000   11.273 
#
# Total GULP energy -245347.132487 kJ/mol
# GULP energy per Si atom -5576.071193 kJ/mol
# Density = 2.024644 g / cm^3
# Si number density = 20.292629 Si / 1000 Ang^3
#
#
#
# Elastic Constant Matrix: (Units=GPa)
#
#
# Indices 1 2 3 4 5 6 
#
# 1 26.4935 -0.9397 8.1144 0.0000 0.0000 0.0000
# 2 -0.9397 97.9329 99.2776 0.0000 0.0000 0.0000
# 3 8.1144 99.2776 187.7822 0.0000 0.0000 0.0000
# 4 0.0000 0.0000 0.0000 29.0059 0.0000 0.0000
# 5 0.0000 0.0000 0.0000 0.0000 -28.2890 0.0000
# 6 0.0000 0.0000 0.0000 0.0000 0.0000 6.0010
#
#
#
# Elastic Compliance Matrix: (Units=1/GPa)
#
#
# Indices 1 2 3 4 5 6 
#
# 1 0.039153 0.004505 -0.004074 0.000000 0.000000 0.000000
# 2 0.004505 0.022522 -0.012102 0.000000 0.000000 0.000000
# 3 -0.004074 -0.012102 0.011899 0.000000 0.000000 0.000000
# 4 0.000000 0.000000 0.000000 0.034476 0.000000 0.000000
# 5 0.000000 0.000000 0.000000 0.000000 -0.035349 0.000000
# 6 0.000000 0.000000 0.000000 0.000000 0.000000 0.166638
#
#
# Mechanical properties :
#
#
# Convention : Reuss Voigt Hill
#
# Bulk Modulus (GPa) = 19.90690 58.34593 39.12642
# Shear Modulus (GPa) = 17.89392 15.06067 16.47729
#
# Velocity S-wave (km/s) = 2.97272 2.72724 2.85262
# Velocity P-wave (km/s) = 4.64909 6.22349 5.49299
#
# Compressibility (1/GPa) = 0.05023383
#
# Stress axis : x y z
#
# Youngs Moduli (GPa) = 25.54108 44.40022 84.03737
#
# Poissons Ratio (x) = -0.20004 0.34235
# Poissons Ratio (y) = -0.11507 1.01702
# Poissons Ratio (z) = 0.10405 0.53733
#
# Static dielectric constant tensor:
#      x y z
#    x 1.780710 0.000000 0.000000 
#    y 0.000000 1.763240 0.000000 
#    z 0.000000 0.000000 1.736760 
# 
# From -- ./inp_files/50417.got.cif
#   From: 2010.05.17/outbox.cif.g08.bks.cpg/sg65_26_cif.got.tgz:50417.got - 2010.06.03 17:01:31.
