data_PCOD9486717
_publ_section_title
;
Structure prediction by ZEFSAII (Michael W. Deem and Ramdas Pophale) SiO2 
 PCOD9486717
Probable space group: C M M M
;
_chemical_formula_sum "Si O2"
_cell_formula_units_Z 66
_cell_length_a 15.568988
_cell_length_b 25.941442
_cell_length_c 7.384009
_cell_angle_alpha 90.000000
_cell_angle_beta 90.000000
_cell_angle_gamma 90.000000
_cell_volume 2982.268317
_symmetry_space_group_name_H-M "C M M M"
_symmetry_group_IT_number 65
_symmetry_cell_setting 'orthorhombic'
loop_
_space_group_symop_operation_xyz
x,y,z
-x,-y,z
x,-y,-z
-x,y,-z
-x,-y,-z
x,y,-z
-x,y,z
x,-y,z
1/2+x,1/2+y,z
1/2-x,1/2-y,z
1/2+x,1/2-y,-z
1/2-x,1/2+y,-z
1/2-x,1/2-y,-z
1/2+x,1/2+y,-z
1/2-x,1/2+y,z
1/2+x,1/2-y,z
loop_
_atom_site_type_symbol
_atom_site_label
_atom_site_fract_x
_atom_site_fract_y
_atom_site_fract_z
Si Si1 0.000000 0.728596 0.779556
Si Si2 0.136244 0.354726 0.220796
Si Si3 0.500000 0.940563 0.220521
Si Si4 0.500000 0.347346 0.221823
Si Si5 0.815861 0.111018 0.217949
Si Si6 0.500000 0.500000 0.000000
Si Si7 0.849944 0.000000 0.701673
O O1 0.917465 0.695348 0.722544
O O2 0.000000 0.787687 0.723539
O O3 0.000000 0.729382 0.000000
O O4 0.082315 0.405714 0.274336
O O5 0.234717 0.355981 0.280853
O O6 0.136384 0.354620 0.000000
O O7 0.500000 0.000000 0.281738
O O8 0.500000 0.941768 0.000000
O O9 0.588859 0.373610 0.282272
O O10 0.500000 0.350825 0.000000
O O11 0.797695 0.052132 0.268186
O O12 0.819204 0.114763 0.000000
O O13 0.425684 0.500000 0.154986
O O14 0.884728 0.000000 0.500000
#
# Coordination Sequence:
#
# PCOD9486717 Si02
#       7
#     8  16   8   8  16   2   8
#     4   8  14  28  43  73 113 141 194 250 290 343
#     4   8  15  25  43  70 105 149 186 238 292 344
#     4   8  13  21  35  61  97 132 190 239 283 341
#     4   9  18  28  46  70 106 148 185 247 292 348
#     4  10  19  33  52  78 113 153 193 233 295 351
#     4  12  22  44  60  82 116 158 202 248 276 338
#     4  12  25  39  61  87 118 160 195 239 296 345
#
# _framework density 22.130804000000001
#
# number of rings (size 3 to 8) (size 9 to 14) (size 15 to 20)
#    0.000    2.788    1.212    2.364    3.394    0.970 
#    0.000    4.848    0.000    0.000    0.000   11.879 
#    0.000    0.000    0.000    0.000    0.000    0.000 
#
# Total GULP energy -183989.421581 kJ/mol
# GULP energy per Si atom -5575.437018 kJ/mol
# Density = 2.208043 g / cm^3
# Si number density = 22.130804 Si / 1000 Ang^3
#
#
#
# Elastic Constant Matrix: (Units=GPa)
#
#
# Indices 1 2 3 4 5 6 
#
# 1 166.6513 61.3363 5.5392 0.0000 0.0000 0.0000
# 2 61.3363 124.1064 -22.3751 0.0000 0.0000 0.0000
# 3 5.5392 -22.3751 92.1212 0.0000 0.0000 0.0000
# 4 0.0000 0.0000 0.0000 10.7388 0.0000 0.0000
# 5 0.0000 0.0000 0.0000 0.0000 -10.2949 0.0000
# 6 0.0000 0.0000 0.0000 0.0000 0.0000 9.5892
#
#
#
# Elastic Compliance Matrix: (Units=1/GPa)
#
#
# Indices 1 2 3 4 5 6 
#
# 1 0.007507 -0.003965 -0.001414 0.000000 0.000000 0.000000
# 2 -0.003965 0.010521 0.002794 0.000000 0.000000 0.000000
# 3 -0.001414 0.002794 0.011619 0.000000 0.000000 0.000000
# 4 0.000000 0.000000 0.000000 0.093120 0.000000 0.000000
# 5 0.000000 0.000000 0.000000 0.000000 -0.097135 0.000000
# 6 0.000000 0.000000 0.000000 0.000000 0.000000 0.104284
#
#
# Mechanical properties :
#
#
# Convention : Reuss Voigt Hill
#
# Bulk Modulus (GPa) = 40.85753 52.43107 46.64430
# Shear Modulus (GPa) = 34.90527 24.56520 29.73524
#
# Velocity S-wave (km/s) = 3.97574 3.33528 3.66951
# Velocity P-wave (km/s) = 6.29104 6.21088 6.25109
#
# Compressibility (1/GPa) = 0.02447529
#
# Stress axis : x y z
#
# Youngs Moduli (GPa) = 133.21018 95.04844 86.06665
#
# Poissons Ratio (x) = 0.37688 0.12174
# Poissons Ratio (y) = 0.52819 -0.24046
# Poissons Ratio (z) = 0.18842 -0.26555
#
# Static dielectric constant tensor:
#      x y z
#    x 1.781820 0.000000 0.000000 
#    y 0.000000 1.800330 0.000000 
#    z 0.000000 0.000000 1.833130 
# 
# From -- ./inp_files/7179.got.cif
#   From: 2010.05.17/outbox.cif.g08.bks.cpg/sg65_4_cif.got.tgz:7179.got - 2010.06.03 17:01:31.
