data_PCOD9486465
_publ_section_title
;
Structure prediction by ZEFSAII (Michael W. Deem and Ramdas Pophale) SiO2 
 PCOD9486465
Probable space group: C M M M
;
_chemical_formula_sum "Si O2"
_cell_formula_units_Z 88
_cell_length_a 15.855313
_cell_length_b 7.591232
_cell_length_c 33.402838
_cell_angle_alpha 90.000000
_cell_angle_beta 90.000000
_cell_angle_gamma 90.000000
_cell_volume 4020.410990
_symmetry_space_group_name_H-M "C M M M"
_symmetry_group_IT_number 65
_symmetry_cell_setting 'orthorhombic'
loop_
_space_group_symop_operation_xyz
x,y,z
-x,-y,z
x,-y,-z
-x,y,-z
-x,-y,-z
x,y,-z
-x,y,z
x,-y,z
1/2+x,1/2+y,z
1/2-x,1/2-y,z
1/2+x,1/2-y,-z
1/2-x,1/2+y,-z
1/2-x,1/2-y,-z
1/2+x,1/2+y,-z
1/2-x,1/2+y,z
1/2+x,1/2-y,z
loop_
_atom_site_type_symbol
_atom_site_label
_atom_site_fract_x
_atom_site_fract_y
_atom_site_fract_z
Si Si1 0.500000 0.783951 0.232261
Si Si2 0.500000 0.215989 0.859684
Si Si3 0.401576 0.711186 0.542838
Si Si4 0.843518 0.289140 0.285491
Si Si5 0.096862 0.710247 0.370432
Si Si6 0.655647 0.789161 0.086401
Si Si7 0.401112 0.214700 0.000000
O O1 0.500000 0.727131 0.186293
O O2 0.417513 0.724998 0.256594
O O3 0.500000 0.000000 0.232185
O O4 0.582735 0.274613 0.883944
O O5 0.500000 0.000000 0.859524
O O6 0.365623 0.774410 0.500000
O O7 0.500000 0.771747 0.543977
O O8 0.402762 0.500000 0.541480
O O9 0.363888 0.757274 0.585868
O O10 0.852098 0.500000 0.286978
O O11 0.750000 0.250000 0.271014
O O12 0.856474 0.221318 0.330989
O O13 0.091745 0.500000 0.366691
O O14 0.000000 0.778812 0.370127
O O15 0.750000 0.750000 0.099973
O O16 0.646225 0.000000 0.084531
O O17 0.640913 0.721947 0.041110
O O18 0.500000 0.260829 0.000000
O O19 0.396936 0.000000 0.000000
#
# Coordination Sequence:
#
# PCOD9486465 Si02
#       7
#     8   8  16  16  16  16   8
#     4   9  18  36  58  77 103 137 172 211 259 314
#     4   9  18  33  55  78 100 137 181 212 251 320
#     4   8  14  24  39  64  98 131 161 196 242 293
#     4  10  20  35  55  78 103 132 167 210 258 307
#     4   9  16  28  47  69  94 127 165 202 242 292
#     4  10  19  32  52  78 106 139 180 221 263 310
#     4   9  15  28  51  74 101 140 185 225 256 302
#
# _framework density 21.888307999999999
#
# number of rings (size 3 to 8) (size 9 to 14) (size 15 to 20)
#    0.000    2.818    1.818    0.818    0.000    1.818 
#    0.000    2.727    0.000    2.182    0.000    0.000 
#    0.000    0.000    0.000    0.000    0.000    0.000 
#
# Total GULP energy -245515.179076 kJ/mol
# GULP energy per Si atom -5579.890434 kJ/mol
# Density = 2.183849 g / cm^3
# Si number density = 21.888308 Si / 1000 Ang^3
#
#
#
# Elastic Constant Matrix: (Units=GPa)
#
#
# Indices 1 2 3 4 5 6 
#
# 1 152.2935 -1.7723 99.8130 0.0000 0.0000 0.0000
# 2 -1.7723 45.0864 11.2132 0.0000 0.0000 0.0000
# 3 99.8130 11.2132 209.6597 0.0000 0.0000 0.0000
# 4 0.0000 0.0000 0.0000 -60.5267 0.0000 0.0000
# 5 0.0000 0.0000 0.0000 0.0000 -13.9791 0.0000
# 6 0.0000 0.0000 0.0000 0.0000 0.0000 12.8338
#
#
#
# Elastic Compliance Matrix: (Units=1/GPa)
#
#
# Indices 1 2 3 4 5 6 
#
# 1 0.009649 0.001542 -0.004676 0.000000 0.000000 0.000000
# 2 0.001542 0.022725 -0.001950 0.000000 0.000000 0.000000
# 3 -0.004676 -0.001950 0.007100 0.000000 0.000000 0.000000
# 4 0.000000 0.000000 0.000000 -0.016522 0.000000 0.000000
# 5 0.000000 0.000000 0.000000 0.000000 -0.071535 0.000000
# 6 0.000000 0.000000 0.000000 0.000000 0.000000 0.077919
#
#
# Mechanical properties :
#
#
# Convention : Reuss Voigt Hill
#
# Bulk Modulus (GPa) = 34.12129 69.50526 51.81328
# Shear Modulus (GPa) = 101.47678 7.51799 54.49738
#
# Velocity S-wave (km/s) = 6.81629 1.85531 4.99520
# Velocity P-wave (km/s) = 8.80748 6.03432 7.54933
#
# Compressibility (1/GPa) = 0.02930721
#
# Stress axis : x y z
#
# Youngs Moduli (GPa) = 103.63890 44.00415 140.84440
#
# Poissons Ratio (x) = -0.06787 0.65859
# Poissons Ratio (y) = -0.15984 0.27459
# Poissons Ratio (z) = 0.48462 0.08579
#
# Static dielectric constant tensor:
#      x y z
#    x 1.782680 0.000000 0.000000 
#    y 0.000000 1.830380 0.000000 
#    z 0.000000 0.000000 1.815430 
# 
# From -- ./inp_files/74782.got.cif
#   From: 2010.05.17/outbox.cif.g08.bks.cpg/sg65_38_cif.got.tgz:74782.got - 2010.06.03 17:01:31.
