data_PCOD9486368
_publ_section_title
;
Structure prediction by ZEFSAII (Michael W. Deem and Ramdas Pophale) SiO2 
 PCOD9486368
Probable space group: C M M M
;
_chemical_formula_sum "Si O2"
_cell_formula_units_Z 96
_cell_length_a 23.706697
_cell_length_b 23.810047
_cell_length_c 7.591551
_cell_angle_alpha 90.000000
_cell_angle_beta 90.000000
_cell_angle_gamma 90.000000
_cell_volume 4285.108428
_symmetry_space_group_name_H-M "C M M M"
_symmetry_group_IT_number 65
_symmetry_cell_setting 'orthorhombic'
loop_
_space_group_symop_operation_xyz
x,y,z
-x,-y,z
x,-y,-z
-x,y,-z
-x,-y,-z
x,y,-z
-x,y,z
x,-y,z
1/2+x,1/2+y,z
1/2-x,1/2-y,z
1/2+x,1/2-y,-z
1/2-x,1/2+y,-z
1/2-x,1/2-y,-z
1/2+x,1/2+y,-z
1/2-x,1/2+y,z
1/2+x,1/2-y,z
loop_
_atom_site_type_symbol
_atom_site_label
_atom_site_fract_x
_atom_site_fract_y
_atom_site_fract_z
Si Si1 0.255853 0.337738 0.800211
Si Si2 0.316150 0.935189 0.216059
Si Si3 0.560628 0.067743 0.788807
Si Si4 0.063814 0.816060 0.710112
Si Si5 0.838600 0.743731 0.700420
Si Si6 0.434057 0.439468 0.788241
O O1 0.235722 0.396958 0.725875
O O2 0.197858 0.301578 0.803168
O O3 0.299738 0.299727 0.697618
O O4 0.277068 0.344002 0.000000
O O5 0.377961 0.913300 0.276229
O O6 0.310489 0.000000 0.266944
O O7 0.316350 0.933234 0.000000
O O8 0.500000 0.088897 0.719291
O O9 0.560869 0.000000 0.763902
O O10 0.560213 0.076947 0.000000
O O11 0.061336 0.808167 0.500000
O O12 0.103037 0.766130 0.778691
O O13 0.089050 0.878631 0.736955
O O14 0.000000 0.815264 0.781001
O O15 0.845693 0.723704 0.500000
O O16 0.500000 0.438687 0.730749
O O17 0.410088 0.500000 0.727894
O O18 0.433436 0.440450 0.000000
#
# Coordination Sequence:
#
# PCOD9486368 Si02
#       6
#    16  16  16  16  16  16
#     4  10  19  32  52  74  95 122 160 198 229 274
#     4   8  14  25  42  66  95 123 150 185 230 274
#     4   7   9  15  30  53  83 119 151 174 205 257
#     4   9  18  32  50  71  93 121 159 200 241 286
#     4  10  20  35  53  69  91 124 160 198 238 279
#     4   8  14  25  42  66  96 127 155 185 229 285
#
# _framework density 22.403165999999999
#
# number of rings (size 3 to 8) (size 9 to 14) (size 15 to 20)
#    0.000    3.333    0.000    4.000    0.000    1.667 
#    0.000    3.333    0.000    6.000    0.000    0.000 
#    0.000    0.000    0.000   20.833    0.000   13.333 
#
# Total GULP energy -267365.062757 kJ/mol
# GULP energy per Si atom -5570.105474 kJ/mol
# Density = 2.235218 g / cm^3
# Si number density = 22.403166 Si / 1000 Ang^3
#
#
#
# Elastic Constant Matrix: (Units=GPa)
#
#
# Indices 1 2 3 4 5 6 
#
# 1 24.9608 13.2955 -2.8210 0.0000 0.0000 0.0000
# 2 13.2955 30.8312 -5.2928 0.0000 0.0000 0.0000
# 3 -2.8210 -5.2928 53.8762 0.0000 0.0000 0.0000
# 4 0.0000 0.0000 0.0000 13.9754 0.0000 0.0000
# 5 0.0000 0.0000 0.0000 0.0000 8.6370 0.0000
# 6 0.0000 0.0000 0.0000 0.0000 0.0000 30.6330
#
#
#
# Elastic Compliance Matrix: (Units=1/GPa)
#
#
# Indices 1 2 3 4 5 6 
#
# 1 0.052024 -0.022344 0.000529 0.000000 0.000000 0.000000
# 2 -0.022344 0.042588 0.003014 0.000000 0.000000 0.000000
# 3 0.000529 0.003014 0.018885 0.000000 0.000000 0.000000
# 4 0.000000 0.000000 0.000000 0.071554 0.000000 0.000000
# 5 0.000000 0.000000 0.000000 0.000000 0.115781 0.000000
# 6 0.000000 0.000000 0.000000 0.000000 0.000000 0.032645
#
#
# Mechanical properties :
#
#
# Convention : Reuss Voigt Hill
#
# Bulk Modulus (GPa) = 13.17620 13.33685 13.25652
# Shear Modulus (GPa) = 12.61425 17.61483 15.11454
#
# Velocity S-wave (km/s) = 2.37546 2.80708 2.60024
# Velocity P-wave (km/s) = 3.66304 4.05861 3.86589
#
# Compressibility (1/GPa) = 0.07589443
#
# Stress axis : x y z
#
# Youngs Moduli (GPa) = 19.22182 23.48104 52.95245
#
# Poissons Ratio (x) = 0.52466 -0.02801
# Poissons Ratio (y) = 0.42949 -0.15959
# Poissons Ratio (z) = -0.01017 -0.07077
#
# Static dielectric constant tensor:
#      x y z
#    x 1.887290 0.000000 0.000000 
#    y 0.000000 1.857840 0.000000 
#    z 0.000000 0.000000 1.811830 
# 
# From -- ./inp_files/16658.got.cif
#   From: 2010.05.17/outbox.cif.g08.bks.cpg/sg65_9_cif.got.tgz:16658.got - 2010.06.03 17:01:31.
