data_PCOD9486896
_publ_section_title
;
Structure prediction by ZEFSAII (Michael W. Deem and Ramdas Pophale) SiO2 
 PCOD9486896
Probable space group: C M M M
;
_chemical_formula_sum "Si O2"
_cell_formula_units_Z 72
_cell_length_a 16.399055
_cell_length_b 25.343029
_cell_length_c 7.320743
_cell_angle_alpha 90.000000
_cell_angle_beta 90.000000
_cell_angle_gamma 90.000000
_cell_volume 3042.513430
_symmetry_space_group_name_H-M "C M M M"
_symmetry_group_IT_number 65
_symmetry_cell_setting 'orthorhombic'
loop_
_space_group_symop_operation_xyz
x,y,z
-x,-y,z
x,-y,-z
-x,y,-z
-x,-y,-z
x,y,-z
-x,y,z
x,-y,z
1/2+x,1/2+y,z
1/2-x,1/2-y,z
1/2+x,1/2-y,-z
1/2-x,1/2+y,-z
1/2-x,1/2-y,-z
1/2+x,1/2+y,-z
1/2-x,1/2+y,z
1/2+x,1/2-y,z
loop_
_atom_site_type_symbol
_atom_site_label
_atom_site_fract_x
_atom_site_fract_y
_atom_site_fract_z
Si Si1 0.177194 0.058796 0.220968
Si Si2 0.663219 0.110457 0.707553
Si Si3 0.500000 0.414893 0.790889
Si Si4 0.338911 0.228225 0.723306
Si Si5 0.500000 0.292207 0.721016
Si Si6 0.096376 0.500000 0.281147
O O1 0.239444 0.101854 0.293593
O O2 0.085370 0.066207 0.288167
O O3 0.205592 0.000000 0.271393
O O4 0.177469 0.062734 0.000000
O O5 0.630992 0.111847 0.500000
O O6 0.647150 0.167963 0.786497
O O7 0.630093 0.055897 0.791539
O O8 0.500000 0.351936 0.787643
O O9 0.500000 0.434359 0.000000
O O10 0.337234 0.227254 0.500000
O O11 0.250000 0.250000 0.780402
O O12 0.416521 0.263249 0.777973
O O13 0.500000 0.293212 0.500000
O O14 0.114194 0.500000 0.500000
O O15 0.000000 0.500000 0.255817
#
# Coordination Sequence:
#
# PCOD9486896 Si02
#       6
#    16  16   8  16   8   8
#     4  10  20  35  54  76 105 139 175 213 261 316
#     4  10  19  33  54  78 106 136 174 217 258 309
#     4  10  21  36  54  76 103 139 177 216 261 314
#     4   9  18  31  49  75 104 133 167 210 259 307
#     4  10  20  35  55  78 104 137 175 217 264 308
#     4   9  18  30  49  78 105 132 166 211 261 305
#
# _framework density 23.664645
#
# number of rings (size 3 to 8) (size 9 to 14) (size 15 to 20)
#    0.000    2.333    1.111    1.667    1.556    4.000 
#    0.000    1.111    0.000    7.333    0.000    0.000 
#    0.000    0.000    0.000    0.000    0.000    0.000 
#
# Total GULP energy -201188.635401 kJ/mol
# GULP energy per Si atom -5588.573206 kJ/mol
# Density = 2.361078 g / cm^3
# Si number density = 23.664645 Si / 1000 Ang^3
#
#
#
# Elastic Constant Matrix: (Units=GPa)
#
#
# Indices 1 2 3 4 5 6 
#
# 1 102.5434 33.1597 2.1264 0.0000 0.0000 0.0000
# 2 33.1597 154.8518 2.8992 0.0000 0.0000 0.0000
# 3 2.1264 2.8992 96.9564 0.0000 0.0000 0.0000
# 4 0.0000 0.0000 0.0000 0.9447 0.0000 0.0000
# 5 0.0000 0.0000 0.0000 0.0000 6.1181 0.0000
# 6 0.0000 0.0000 0.0000 0.0000 0.0000 45.9863
#
#
#
# Elastic Compliance Matrix: (Units=1/GPa)
#
#
# Indices 1 2 3 4 5 6 
#
# 1 0.010480 -0.002241 -0.000163 0.000000 0.000000 0.000000
# 2 -0.002241 0.006941 -0.000158 0.000000 0.000000 0.000000
# 3 -0.000163 -0.000158 0.010322 0.000000 0.000000 0.000000
# 4 0.000000 0.000000 0.000000 1.058491 0.000000 0.000000
# 5 0.000000 0.000000 0.000000 0.000000 0.163449 0.000000
# 6 0.000000 0.000000 0.000000 0.000000 0.000000 0.021746
#
#
# Mechanical properties :
#
#
# Convention : Reuss Voigt Hill
#
# Bulk Modulus (GPa) = 44.21209 47.85803 46.03506
# Shear Modulus (GPa) = 3.89380 31.68757 17.79069
#
# Velocity S-wave (km/s) = 1.28413 3.66324 2.74484
# Velocity P-wave (km/s) = 4.57405 6.17736 5.43515
#
# Compressibility (1/GPa) = 0.02261825
#
# Stress axis : x y z
#
# Youngs Moduli (GPa) = 95.41920 144.07836 96.87832
#
# Poissons Ratio (x) = 0.32290 0.01577
# Poissons Ratio (y) = 0.21385 0.01534
# Poissons Ratio (z) = 0.01554 0.02282
#
# Static dielectric constant tensor:
#      x y z
#    x 1.862960 0.000000 0.000000 
#    y 0.000000 1.850590 0.000000 
#    z 0.000000 0.000000 1.894700 
# 
# From -- ./inp_files/7368.got.cif
#   From: 2010.05.17/outbox.cif.g08.bks.cpg/sg65_4_cif.got.tgz:7368.got - 2010.06.03 17:01:31.
