data_PCOD9486587
_publ_section_title
;
Structure prediction by ZEFSAII (Michael W. Deem and Ramdas Pophale) SiO2 
 PCOD9486587
Probable space group: C M M M
;
_chemical_formula_sum "Si O2"
_cell_formula_units_Z 72
_cell_length_a 12.739272
_cell_length_b 18.703520
_cell_length_c 12.776077
_cell_angle_alpha 90.000000
_cell_angle_beta 90.000000
_cell_angle_gamma 90.000000
_cell_volume 3044.146012
_symmetry_space_group_name_H-M "C M M M"
_symmetry_group_IT_number 65
_symmetry_cell_setting 'orthorhombic'
loop_
_space_group_symop_operation_xyz
x,y,z
-x,-y,z
x,-y,-z
-x,y,-z
-x,-y,-z
x,y,-z
-x,y,z
x,-y,z
1/2+x,1/2+y,z
1/2-x,1/2-y,z
1/2+x,1/2-y,-z
1/2-x,1/2+y,-z
1/2-x,1/2-y,-z
1/2+x,1/2+y,-z
1/2-x,1/2+y,z
1/2+x,1/2-y,z
loop_
_atom_site_type_symbol
_atom_site_label
_atom_site_fract_x
_atom_site_fract_y
_atom_site_fract_z
Si Si1 0.750000 0.750000 0.694480
Si Si2 0.385141 0.103432 0.156925
Si Si3 0.618219 0.725464 0.882654
Si Si4 0.200564 0.000000 0.109502
Si Si5 0.123213 0.000000 0.661205
Si Si6 0.189250 0.395035 0.385890
O O1 0.678632 0.705279 0.777218
O O2 0.803424 0.690614 0.624451
O O3 0.500000 0.078811 0.121374
O O4 0.382945 0.187778 0.129553
O O5 0.375294 0.087278 0.281290
O O6 0.282550 0.065814 0.112755
O O7 0.500000 0.698791 0.876208
O O8 0.656470 0.707572 0.000000
O O9 0.131323 0.000000 0.212672
O O10 0.141619 0.000000 0.000000
O O11 0.196099 0.933034 0.624199
O O12 0.000000 0.000000 0.629942
O O13 0.146576 0.414456 0.500000
#
# Coordination Sequence:
#
# PCOD9486587 Si02
#       6
#     8  16  16   8   8  16
#     4  10  20  34  54  80 110 138 180 240 290 332
#     4   9  18  31  49  77 110 140 174 217 268 333
#     4   9  17  30  48  71 102 139 175 215 271 337
#     4  10  19  32  54  82 110 142 179 220 268 322
#     4  10  23  42  60  80 110 150 197 238 274 330
#     4  10  21  37  57  80 107 144 190 238 288 335
#
# _framework density 23.651954
#
# number of rings (size 3 to 8) (size 9 to 14) (size 15 to 20)
#    0.000    2.444    0.000    2.000    0.000    4.222 
#    0.000    1.111    0.000    8.000    0.000    0.000 
#    0.000    0.000    0.000    0.000    0.000    0.000 
#
# Total GULP energy -200773.970556 kJ/mol
# GULP energy per Si atom -5577.054738 kJ/mol
# Density = 2.359812 g / cm^3
# Si number density = 23.651954 Si / 1000 Ang^3
#
#
#
# Elastic Constant Matrix: (Units=GPa)
#
#
# Indices 1 2 3 4 5 6 
#
# 1 88.6739 -18.8871 6.7413 0.0000 0.0000 0.0000
# 2 -18.8871 62.4416 -2.6557 0.0000 0.0000 0.0000
# 3 6.7413 -2.6557 200.2015 0.0000 0.0000 0.0000
# 4 0.0000 0.0000 0.0000 5.8744 0.0000 0.0000
# 5 0.0000 0.0000 0.0000 0.0000 2.6228 0.0000
# 6 0.0000 0.0000 0.0000 0.0000 0.0000 12.3795
#
#
#
# Elastic Compliance Matrix: (Units=1/GPa)
#
#
# Indices 1 2 3 4 5 6 
#
# 1 0.012080 0.003639 -0.000358 0.000000 0.000000 0.000000
# 2 0.003639 0.017120 0.000105 0.000000 0.000000 0.000000
# 3 -0.000358 0.000105 0.005008 0.000000 0.000000 0.000000
# 4 0.000000 0.000000 0.000000 0.170229 0.000000 0.000000
# 5 0.000000 0.000000 0.000000 0.000000 0.381274 0.000000
# 6 0.000000 0.000000 0.000000 0.000000 0.000000 0.080779
#
#
# Mechanical properties :
#
#
# Convention : Reuss Voigt Hill
#
# Bulk Modulus (GPa) = 24.40385 35.74601 30.07493
# Shear Modulus (GPa) = 7.42523 28.58324 18.00424
#
# Velocity S-wave (km/s) = 1.77375 3.48011 2.76201
# Velocity P-wave (km/s) = 3.81251 5.59414 4.78694
#
# Compressibility (1/GPa) = 0.04097714
#
# Stress axis : x y z
#
# Youngs Moduli (GPa) = 82.78475 58.41130 199.66354
#
# Poissons Ratio (x) = -0.21253 0.07158
# Poissons Ratio (y) = -0.30121 -0.02088
# Poissons Ratio (z) = 0.02968 -0.00611
#
# Static dielectric constant tensor:
#      x y z
#    x 1.903170 0.000000 0.000000 
#    y 0.000000 1.931620 0.000000 
#    z 0.000000 0.000000 1.901360 
# 
# From -- ./inp_files/24537.got.cif
#   From: 2010.05.17/outbox.cif.g08.bks.cpg/sg65_13_cif.got.tgz:24537.got - 2010.06.03 17:01:31.
