data_PCOD9486195
_publ_section_title
;
Structure prediction by ZEFSAII (Michael W. Deem and Ramdas Pophale) SiO2 
 PCOD9486195
Probable space group: C M M M
;
_chemical_formula_sum "Si O2"
_cell_formula_units_Z 64
_cell_length_a 34.793221
_cell_length_b 8.804101
_cell_length_c 12.743935
_cell_angle_alpha 90.000000
_cell_angle_beta 90.000000
_cell_angle_gamma 90.000000
_cell_volume 3903.760806
_symmetry_space_group_name_H-M "C M M M"
_symmetry_group_IT_number 65
_symmetry_cell_setting 'orthorhombic'
loop_
_space_group_symop_operation_xyz
x,y,z
-x,-y,z
x,-y,-z
-x,y,-z
-x,-y,-z
x,y,-z
-x,y,z
x,-y,z
1/2+x,1/2+y,z
1/2-x,1/2-y,z
1/2+x,1/2-y,-z
1/2-x,1/2+y,-z
1/2-x,1/2-y,-z
1/2+x,1/2+y,-z
1/2-x,1/2+y,z
1/2+x,1/2-y,z
loop_
_atom_site_type_symbol
_atom_site_label
_atom_site_fract_x
_atom_site_fract_y
_atom_site_fract_z
Si Si1 0.000000 0.824520 0.127494
Si Si2 0.340332 0.319210 0.194205
Si Si3 0.791843 0.680630 0.623852
Si Si4 0.580805 0.179408 0.126268
Si Si5 0.207211 0.317784 0.000000
O O1 0.039150 0.741218 0.159805
O O2 0.000000 0.000000 0.160570
O O3 0.000000 0.822087 0.000000
O O4 0.336972 0.500000 0.185349
O O5 0.322952 0.260777 0.303285
O O6 0.384199 0.267608 0.179026
O O7 0.315620 0.241081 0.101772
O O8 0.798848 0.705409 0.500000
O O9 0.791399 0.500000 0.643527
O O10 0.750000 0.750000 0.648851
O O11 0.583910 0.000000 0.146574
O O12 0.584080 0.201367 0.000000
O O13 0.250000 0.250000 0.000000
O O14 0.208492 0.500000 0.000000
#
# Coordination Sequence:
#
# PCOD9486195 Si02
#       5
#     8  16  16  16   8
#     4   9  17  29  47  71 102 137 174 213 254 305
#     4  12  23  35  53  77 106 138 174 216 262 311
#     4  10  21  38  58  78 102 134 175 221 266 311
#     4  10  19  32  50  73 104 140 176 214 255 308
#     4  12  24  38  52  71 102 139 176 212 256 314
#
# _framework density 16.394447
#
# number of rings (size 3 to 8) (size 9 to 14) (size 15 to 20)
#    0.000    1.375    1.250    6.000    0.000    4.000 
#    0.000    0.000    0.000    0.000    0.000    0.875 
#    0.000    7.000    0.000    0.000    0.000    0.000 
#
# Total GULP energy -178819.155672 kJ/mol
# GULP energy per Si atom -5588.098615 kJ/mol
# Density = 1.635713 g / cm^3
# Si number density = 16.394447 Si / 1000 Ang^3
#
#
#
# Elastic Constant Matrix: (Units=GPa)
#
#
# Indices 1 2 3 4 5 6 
#
# 1 149.1648 78.9444 48.8142 0.0000 0.0000 0.0000
# 2 78.9444 153.3958 51.2507 0.0000 0.0000 0.0000
# 3 48.8142 51.2507 43.3012 0.0000 0.0000 0.0000
# 4 0.0000 0.0000 0.0000 22.9018 0.0000 0.0000
# 5 0.0000 0.0000 0.0000 0.0000 7.2489 0.0000
# 6 0.0000 0.0000 0.0000 0.0000 0.0000 35.4299
#
#
#
# Elastic Compliance Matrix: (Units=1/GPa)
#
#
# Indices 1 2 3 4 5 6 
#
# 1 0.011198 -0.002556 -0.009598 0.000000 0.000000 0.000000
# 2 -0.002556 0.011367 -0.010572 0.000000 0.000000 0.000000
# 3 -0.009598 -0.010572 0.046427 0.000000 0.000000 0.000000
# 4 0.000000 0.000000 0.000000 0.043665 0.000000 0.000000
# 5 0.000000 0.000000 0.000000 0.000000 0.137952 0.000000
# 6 0.000000 0.000000 0.000000 0.000000 0.000000 0.028225
#
#
# Mechanical properties :
#
#
# Convention : Reuss Voigt Hill
#
# Bulk Modulus (GPa) = 42.48240 78.20895 60.34567
# Shear Modulus (GPa) = 15.05426 24.23962 19.64694
#
# Velocity S-wave (km/s) = 3.03356 3.84933 3.46553
# Velocity P-wave (km/s) = 6.18376 8.21977 7.27336
#
# Compressibility (1/GPa) = 0.02353916
#
# Stress axis : x y z
#
# Youngs Moduli (GPa) = 89.30358 87.97599 21.53919
#
# Poissons Ratio (x) = 0.22487 0.20674
# Poissons Ratio (y) = 0.22827 0.22771
# Poissons Ratio (z) = 0.85714 0.93008
#
# Static dielectric constant tensor:
#      x y z
#    x 1.535080 0.000000 0.000000 
#    y 0.000000 1.545010 0.000000 
#    z 0.000000 0.000000 1.531480 
# 
# From -- ./inp_files/21038.got.cif
#   From: 2010.05.17/outbox.cif.g08.bks.cpg/sg65_11_cif.got.tgz:21038.got - 2010.06.03 17:01:31.
