data_PCOD9486140
_publ_section_title
;
Structure prediction by ZEFSAII (Michael W. Deem and Ramdas Pophale) SiO2 
 PCOD9486140
Probable space group: C M M M
;
_chemical_formula_sum "Si O2"
_cell_formula_units_Z 88
_cell_length_a 15.421624
_cell_length_b 26.105631
_cell_length_c 13.568672
_cell_angle_alpha 90.000000
_cell_angle_beta 90.000000
_cell_angle_gamma 90.000000
_cell_volume 5462.628290
_symmetry_space_group_name_H-M "C M M M"
_symmetry_group_IT_number 65
_symmetry_cell_setting 'orthorhombic'
loop_
_space_group_symop_operation_xyz
x,y,z
-x,-y,z
x,-y,-z
-x,y,-z
-x,-y,-z
x,y,-z
-x,y,z
x,-y,z
1/2+x,1/2+y,z
1/2-x,1/2-y,z
1/2+x,1/2-y,-z
1/2-x,1/2+y,-z
1/2-x,1/2-y,-z
1/2+x,1/2+y,-z
1/2-x,1/2+y,z
1/2+x,1/2-y,z
loop_
_atom_site_type_symbol
_atom_site_label
_atom_site_fract_x
_atom_site_fract_y
_atom_site_fract_z
Si Si1 0.500000 0.709969 0.881504
Si Si2 0.776934 0.561408 0.613809
Si Si3 0.163671 0.608275 0.807759
Si Si4 0.852423 0.129594 0.882326
Si Si5 0.905590 0.060976 0.706486
Si Si6 0.400365 0.000000 0.882880
Si Si7 0.500000 0.172217 0.119680
O O1 0.413452 0.677993 0.855446
O O2 0.500000 0.768502 0.848015
O O3 0.500000 0.712094 0.000000
O O4 0.797319 0.570750 0.500000
O O5 0.790275 0.500000 0.632807
O O6 0.828148 0.596213 0.691588
O O7 0.675817 0.573161 0.637091
O O8 0.252016 0.632730 0.850524
O O9 0.148775 0.551477 0.852068
O O10 0.083811 0.643047 0.839440
O O11 0.888574 0.083940 0.814525
O O12 0.858936 0.121131 0.000000
O O13 0.000000 0.078730 0.670554
O O14 0.907095 0.000000 0.713656
O O15 0.500000 0.000000 0.843320
O O16 0.406264 0.000000 0.000000
O O17 0.500000 0.169183 0.000000
#
# Coordination Sequence:
#
# PCOD9486140 Si02
#       7
#     8  16  16  16  16   8   8
#     4   9  20  36  52  73 104 141 179 219 260 306
#     4   9  18  33  50  72 105 139 170 213 260 311
#     4  11  21  34  52  79 104 140 178 214 260 315
#     4  10  19  32  49  74 111 143 171 209 258 315
#     4   9  17  28  45  73 105 138 177 211 248 311
#     4  11  20  32  51  76 112 143 169 208 254 309
#     4  11  22  37  55  76 102 135 182 226 258 305
#
# _framework density 16.109462000000001
#
# number of rings (size 3 to 8) (size 9 to 14) (size 15 to 20)
#    0.000    2.091    2.727    1.636    1.273    1.455 
#    0.000    5.909    0.000    1.636    0.000   15.273 
#    0.000    0.000    0.000    0.000    0.000    0.000 
#
# Total GULP energy -245115.342791 kJ/mol
# GULP energy per Si atom -5570.803245 kJ/mol
# Density = 1.607280 g / cm^3
# Si number density = 16.109462 Si / 1000 Ang^3
#
#
#
# Elastic Constant Matrix: (Units=GPa)
#
#
# Indices 1 2 3 4 5 6 
#
# 1 115.3393 49.4124 24.7985 0.0000 0.0000 0.0000
# 2 49.4124 60.2195 23.5275 0.0000 0.0000 0.0000
# 3 24.7985 23.5275 84.5286 0.0000 0.0000 0.0000
# 4 0.0000 0.0000 0.0000 7.9647 0.0000 0.0000
# 5 0.0000 0.0000 0.0000 0.0000 8.5761 0.0000
# 6 0.0000 0.0000 0.0000 0.0000 0.0000 -12.8898
#
#
#
# Elastic Compliance Matrix: (Units=1/GPa)
#
#
# Indices 1 2 3 4 5 6 
#
# 1 0.013442 -0.010647 -0.000980 0.000000 0.000000 0.000000
# 2 -0.010647 0.027065 -0.004410 0.000000 0.000000 0.000000
# 3 -0.000980 -0.004410 0.013345 0.000000 0.000000 0.000000
# 4 0.000000 0.000000 0.000000 0.125555 0.000000 0.000000
# 5 0.000000 0.000000 0.000000 0.000000 0.116603 0.000000
# 6 0.000000 0.000000 0.000000 0.000000 0.000000 -0.077581
#
#
# Mechanical properties :
#
#
# Convention : Reuss Voigt Hill
#
# Bulk Modulus (GPa) = 45.91596 50.61826 48.26711
# Shear Modulus (GPa) = 19.39777 11.55345 15.47561
#
# Velocity S-wave (km/s) = 3.47381 2.68094 3.10280
# Velocity P-wave (km/s) = 6.68238 6.40881 6.54702
#
# Compressibility (1/GPa) = 0.02177892
#
# Stress axis : x y z
#
# Youngs Moduli (GPa) = 74.39390 36.94836 74.93302
#
# Poissons Ratio (x) = 0.39338 0.07344
# Poissons Ratio (y) = 0.79205 0.33043
# Poissons Ratio (z) = 0.07292 0.16293
#
# Static dielectric constant tensor:
#      x y z
#    x 1.583600 0.000000 0.000000 
#    y 0.000000 1.523430 0.000000 
#    z 0.000000 0.000000 1.528310 
# 
# From -- ./inp_files/40635.got.cif
#   From: 2010.05.17/outbox.cif.g08.bks.cpg/sg65_21_cif.got.tgz:40635.got - 2010.06.03 17:01:31.
