data_PCOD9486357
_publ_section_title
;
Structure prediction by ZEFSAII (Michael W. Deem and Ramdas Pophale) SiO2 
 PCOD9486357
Probable space group: C M M M
;
_chemical_formula_sum "Si O2"
_cell_formula_units_Z 88
_cell_length_a 14.649076
_cell_length_b 17.920135
_cell_length_c 17.509839
_cell_angle_alpha 90.000000
_cell_angle_beta 90.000000
_cell_angle_gamma 90.000000
_cell_volume 4596.567712
_symmetry_space_group_name_H-M "C M M M"
_symmetry_group_IT_number 65
_symmetry_cell_setting 'orthorhombic'
loop_
_space_group_symop_operation_xyz
x,y,z
-x,-y,z
x,-y,-z
-x,y,-z
-x,-y,-z
x,y,-z
-x,y,z
x,-y,z
1/2+x,1/2+y,z
1/2-x,1/2-y,z
1/2+x,1/2-y,-z
1/2-x,1/2+y,-z
1/2-x,1/2-y,-z
1/2+x,1/2+y,-z
1/2-x,1/2+y,z
1/2+x,1/2-y,z
loop_
_atom_site_type_symbol
_atom_site_label
_atom_site_fract_x
_atom_site_fract_y
_atom_site_fract_z
Si Si1 0.713639 0.670321 0.864928
Si Si2 0.708245 0.588040 0.412928
Si Si3 0.897941 0.413788 0.186064
Si Si4 0.903061 0.364367 0.358193
Si Si5 0.608101 0.589255 0.000000
Si Si6 0.847883 0.790330 0.298920
O O1 0.750000 0.750000 0.894097
O O2 0.807550 0.628050 0.842085
O O3 0.657122 0.624826 0.926580
O O4 0.650610 0.685592 0.789703
O O5 0.677747 0.600266 0.500000
O O6 0.703777 0.500000 0.395893
O O7 0.813327 0.615428 0.405281
O O8 0.652301 0.637893 0.353052
O O9 0.893195 0.500000 0.162634
O O10 0.894972 0.407954 0.277897
O O11 0.000000 0.384713 0.163419
O O12 0.906103 0.277609 0.331925
O O13 0.000000 0.383626 0.395097
O O14 0.619629 0.500000 0.000000
O O15 0.500000 0.605705 0.000000
O O16 0.750000 0.750000 0.303729
#
# Coordination Sequence:
#
# PCOD9486357 Si02
#       6
#    16  16  16  16   8  16
#     4  11  20  39  63  86 112 149 195 234 284 342
#     4  10  20  33  51  78 111 147 188 231 278 332
#     4  10  19  32  55  86 116 145 180 226 280 339
#     4  10  19  32  51  79 112 143 181 228 279 332
#     4  11  27  44  59  85 119 153 188 237 290 336
#     4   9  18  34  55  80 106 144 190 229 271 329
#
# _framework density 19.144718999999998
#
# number of rings (size 3 to 8) (size 9 to 14) (size 15 to 20)
#    0.000    1.909    5.455    1.364    0.000    6.909 
#    0.000    1.364    0.000    2.182    0.000    1.273 
#    0.000    0.000    0.000    0.000    0.000    0.000 
#
# Total GULP energy -245162.114924 kJ/mol
# GULP energy per Si atom -5571.866248 kJ/mol
# Density = 1.910114 g / cm^3
# Si number density = 19.144719 Si / 1000 Ang^3
#
#
#
# Elastic Constant Matrix: (Units=GPa)
#
#
# Indices 1 2 3 4 5 6 
#
# 1 32.2383 13.9202 10.1220 0.0000 0.0000 0.0000
# 2 13.9202 107.5089 47.7704 0.0000 0.0000 0.0000
# 3 10.1220 47.7704 74.0651 0.0000 0.0000 0.0000
# 4 0.0000 0.0000 0.0000 14.5639 0.0000 0.0000
# 5 0.0000 0.0000 0.0000 0.0000 -105.8622 0.0000
# 6 0.0000 0.0000 0.0000 0.0000 0.0000 12.4684
#
#
#
# Elastic Compliance Matrix: (Units=1/GPa)
#
#
# Indices 1 2 3 4 5 6 
#
# 1 0.033176 -0.003197 -0.002472 0.000000 0.000000 0.000000
# 2 -0.003197 0.013346 -0.008171 0.000000 0.000000 0.000000
# 3 -0.002472 -0.008171 0.019110 0.000000 0.000000 0.000000
# 4 0.000000 0.000000 0.000000 0.068663 0.000000 0.000000
# 5 0.000000 0.000000 0.000000 0.000000 -0.009446 0.000000
# 6 0.000000 0.000000 0.000000 0.000000 0.000000 0.080203
#
#
# Mechanical properties :
#
#
# Convention : Reuss Voigt Hill
#
# Bulk Modulus (GPa) = 26.34958 39.71529 33.03243
# Shear Modulus (GPa) = 20.37643 -6.29934 7.03855
#
# Velocity S-wave (km/s) = 3.26596 -1.81591 1.91950
# Velocity P-wave (km/s) = 5.29294 4.04884 4.71213
#
# Compressibility (1/GPa) = 0.03795127
#
# Stress axis : x y z
#
# Youngs Moduli (GPa) = 30.14265 74.92727 52.32971
#
# Poissons Ratio (x) = 0.23956 0.12934
# Poissons Ratio (y) = 0.09637 0.42759
# Poissons Ratio (z) = 0.07450 0.61224
#
# Static dielectric constant tensor:
#      x y z
#    x 1.713780 0.000000 0.000000 
#    y 0.000000 1.687080 0.000000 
#    z 0.000000 0.000000 1.667030 
# 
# From -- ./inp_files/53054.got.cif
#   From: 2010.05.17/outbox.cif.g08.bks.cpg/sg65_27_cif.got.tgz:53054.got - 2010.06.03 17:01:31.
