data_PCOD9486696
_publ_section_title
;
Structure prediction by ZEFSAII (Michael W. Deem and Ramdas Pophale) SiO2 
 PCOD9486696
Probable space group: C M M M
;
_chemical_formula_sum "Si O2"
_cell_formula_units_Z 120
_cell_length_a 8.573658
_cell_length_b 28.352645
_cell_length_c 26.667262
_cell_angle_alpha 90.000000
_cell_angle_beta 90.000000
_cell_angle_gamma 90.000000
_cell_volume 6482.434894
_symmetry_space_group_name_H-M "C M M M"
_symmetry_group_IT_number 65
_symmetry_cell_setting 'orthorhombic'
loop_
_space_group_symop_operation_xyz
x,y,z
-x,-y,z
x,-y,-z
-x,y,-z
-x,-y,-z
x,y,-z
-x,y,z
x,-y,z
1/2+x,1/2+y,z
1/2-x,1/2-y,z
1/2+x,1/2-y,-z
1/2-x,1/2+y,-z
1/2-x,1/2-y,-z
1/2+x,1/2+y,-z
1/2-x,1/2+y,z
1/2+x,1/2-y,z
loop_
_atom_site_type_symbol
_atom_site_label
_atom_site_fract_x
_atom_site_fract_y
_atom_site_fract_z
Si Si1 0.684339 0.105917 0.746168
Si Si2 0.812083 0.946255 0.158018
Si Si3 0.817225 0.299619 0.191986
Si Si4 0.188942 0.302724 0.443235
Si Si5 0.815028 0.696287 0.000000
Si Si6 0.814358 0.146169 0.098582
Si Si7 0.180024 0.943691 0.444033
Si Si8 0.683494 0.879779 0.635066
O O1 0.500000 0.093787 0.745183
O O2 0.763030 0.071520 0.786658
O O3 0.699395 0.158786 0.767800
O O4 0.749304 0.107856 0.689756
O O5 0.758661 0.905402 0.118867
O O6 0.000000 0.946461 0.155812
O O7 0.757547 0.000000 0.148521
O O8 0.750000 0.250000 0.209515
O O9 0.726490 0.317452 0.142980
O O10 0.000000 0.294880 0.179805
O O11 0.236713 0.317560 0.500000
O O12 0.250000 0.250000 0.436034
O O13 0.246138 0.336204 0.398229
O O14 0.000000 0.303136 0.442453
O O15 0.750000 0.750000 0.000000
O O16 0.760456 0.666845 0.951478
O O17 0.000000 0.700080 0.000000
O O18 0.000000 0.143658 0.091682
O O19 0.228940 0.929069 0.500000
O O20 0.289590 0.923219 0.401820
O O21 0.000000 0.928355 0.436164
O O22 0.180586 0.000000 0.442757
O O23 0.500000 0.870623 0.643133
#
# Coordination Sequence:
#
# PCOD9486696 Si02
#       8
#    16  16  16  16   8  16  16  16
#     4   9  20  35  50  73 104 135 169 211 258 310
#     4   9  19  37  60  82 105 138 180 223 264 307
#     4  10  19  33  52  74 103 139 177 215 258 306
#     4   9  18  32  49  69  94 126 165 208 253 305
#     4  12  24  38  57  84 119 153 184 219 263 310
#     4  10  20  36  57  82 111 143 182 222 261 308
#     4   9  19  35  52  71  96 125 158 198 247 304
#     4  10  20  34  51  73 101 131 165 207 255 306
#
# _framework density 18.511562000000001
#
# number of rings (size 3 to 8) (size 9 to 14) (size 15 to 20)
#    0.000    2.400    0.000    2.600    0.000    4.533 
#    0.000    5.000    0.000    2.000    0.000    0.000 
#    0.000    0.000    0.000    0.000    0.000    0.000 
#
# Total GULP energy -334512.236559 kJ/mol
# GULP energy per Si atom -5575.203943 kJ/mol
# Density = 1.846943 g / cm^3
# Si number density = 18.511562 Si / 1000 Ang^3
#
#
#
# Elastic Constant Matrix: (Units=GPa)
#
#
# Indices 1 2 3 4 5 6 
#
# 1 26.7330 22.1477 24.5772 0.0000 0.0000 0.0000
# 2 22.1477 104.9724 40.4860 0.0000 0.0000 0.0000
# 3 24.5772 40.4860 122.2067 0.0000 0.0000 0.0000
# 4 0.0000 0.0000 0.0000 14.3577 0.0000 0.0000
# 5 0.0000 0.0000 0.0000 0.0000 18.6870 0.0000
# 6 0.0000 0.0000 0.0000 0.0000 0.0000 26.5746
#
#
#
# Elastic Compliance Matrix: (Units=1/GPa)
#
#
# Indices 1 2 3 4 5 6 
#
# 1 0.050896 -0.007785 -0.007657 0.000000 0.000000 0.000000
# 2 -0.007785 0.012113 -0.002447 0.000000 0.000000 0.000000
# 3 -0.007657 -0.002447 0.010533 0.000000 0.000000 0.000000
# 4 0.000000 0.000000 0.000000 0.069649 0.000000 0.000000
# 5 0.000000 0.000000 0.000000 0.000000 0.053513 0.000000
# 6 0.000000 0.000000 0.000000 0.000000 0.000000 0.037630
#
#
# Mechanical properties :
#
#
# Convention : Reuss Voigt Hill
#
# Bulk Modulus (GPa) = 26.48021 47.59266 37.03644
# Shear Modulus (GPa) = 17.68659 23.03727 20.36193
#
# Velocity S-wave (km/s) = 3.09436 3.53155 3.32016
# Velocity P-wave (km/s) = 5.20601 6.51111 5.89479
#
# Compressibility (1/GPa) = 0.03776405
#
# Stress axis : x y z
#
# Youngs Moduli (GPa) = 19.64794 82.55788 94.93629
#
# Poissons Ratio (x) = 0.64274 0.72688
# Poissons Ratio (y) = 0.15297 0.23232
# Poissons Ratio (z) = 0.15044 0.20203
#
# Static dielectric constant tensor:
#      x y z
#    x 1.651130 0.000000 0.000000 
#    y 0.000000 1.644330 0.000000 
#    z 0.000000 0.000000 1.635470 
# 
# From -- ./inp_files/73895.got.cif
#   From: 2010.05.17/outbox.cif.g08.bks.cpg/sg65_37_cif.got.tgz:73895.got - 2010.06.03 17:01:31.
