data_PCOD9486542
_publ_section_title
;
Structure prediction by ZEFSAII (Michael W. Deem and Ramdas Pophale) SiO2 
 PCOD9486542
Probable space group: C M M M
;
_chemical_formula_sum "Si O2"
_cell_formula_units_Z 112
_cell_length_a 14.215279
_cell_length_b 17.968239
_cell_length_c 20.031557
_cell_angle_alpha 90.000000
_cell_angle_beta 90.000000
_cell_angle_gamma 90.000000
_cell_volume 5116.531011
_symmetry_space_group_name_H-M "C M M M"
_symmetry_group_IT_number 65
_symmetry_cell_setting 'orthorhombic'
loop_
_space_group_symop_operation_xyz
x,y,z
-x,-y,z
x,-y,-z
-x,y,-z
-x,-y,-z
x,y,-z
-x,y,z
x,-y,z
1/2+x,1/2+y,z
1/2-x,1/2-y,z
1/2+x,1/2-y,-z
1/2-x,1/2+y,-z
1/2-x,1/2-y,-z
1/2+x,1/2+y,-z
1/2-x,1/2+y,z
1/2+x,1/2-y,z
loop_
_atom_site_type_symbol
_atom_site_label
_atom_site_fract_x
_atom_site_fract_y
_atom_site_fract_z
Si Si1 0.355501 0.342071 0.289169
Si Si2 0.861014 0.767124 0.924632
Si Si3 0.365752 0.085901 0.575115
Si Si4 0.101726 0.619794 0.154971
Si Si5 0.630450 0.174117 0.703179
Si Si6 0.637666 0.586357 0.427064
Si Si7 0.324212 0.584569 0.851539
O O1 0.395312 0.259175 0.281865
O O2 0.243506 0.330548 0.297030
O O3 0.392339 0.375692 0.358415
O O4 0.358941 0.393259 0.223343
O O5 0.750000 0.750000 0.926340
O O6 0.898036 0.703098 0.875843
O O7 0.868403 0.850718 0.897188
O O8 0.896473 0.759740 0.000000
O O9 0.395969 0.104191 0.500000
O O10 0.398643 0.141543 0.632156
O O11 0.251719 0.088129 0.574147
O O12 0.391110 0.000000 0.589767
O O13 0.099573 0.624479 0.234879
O O14 0.208403 0.589529 0.141128
O O15 0.000000 0.586275 0.132761
O O16 0.609406 0.617621 0.500000
O O17 0.610190 0.500000 0.425456
O O18 0.350932 0.500000 0.866899
#
# Coordination Sequence:
#
# PCOD9486542 Si02
#       7
#    16  16  16  16  16  16  16
#     4   9  15  25  41  64  94 129 168 214 258 308
#     4   9  18  35  57  78 102 135 174 209 249 310
#     4   8  14  24  38  59  91 132 174 216 264 312
#     4  10  20  34  52  77 109 142 177 216 257 308
#     4   9  16  26  43  64  92 128 174 220 257 302
#     4   8  13  20  31  53  87 121 153 196 255 314
#     4  10  19  32  53  80 109 139 172 216 265 311
#
# _framework density 21.889831000000001
#
# number of rings (size 3 to 8) (size 9 to 14) (size 15 to 20)
#    0.000    3.000    1.429    1.286    0.000    4.857 
#    0.000    2.857    0.000    0.857    0.000    6.000 
#    0.000    0.000    0.000    1.571    0.000    6.286 
#
# Total GULP energy -312064.905445 kJ/mol
# GULP energy per Si atom -5572.587597 kJ/mol
# Density = 2.184001 g / cm^3
# Si number density = 21.889831 Si / 1000 Ang^3
#
#
#
# Elastic Constant Matrix: (Units=GPa)
#
#
# Indices 1 2 3 4 5 6 
#
# 1 99.3374 -10.0385 0.1770 0.0000 0.0000 0.0000
# 2 -10.0385 101.4092 38.6527 0.0000 0.0000 0.0000
# 3 0.1770 38.6527 111.5456 0.0000 0.0000 0.0000
# 4 0.0000 0.0000 0.0000 18.0390 0.0000 0.0000
# 5 0.0000 0.0000 0.0000 0.0000 -33.6625 0.0000
# 6 0.0000 0.0000 0.0000 0.0000 0.0000 -26.1375
#
#
#
# Elastic Compliance Matrix: (Units=1/GPa)
#
#
# Indices 1 2 3 4 5 6 
#
# 1 0.010186 0.001169 -0.000421 0.000000 0.000000 0.000000
# 2 0.001169 0.011496 -0.003985 0.000000 0.000000 0.000000
# 3 -0.000421 -0.003985 0.010347 0.000000 0.000000 0.000000
# 4 0.000000 0.000000 0.000000 0.055436 0.000000 0.000000
# 5 0.000000 0.000000 0.000000 0.000000 -0.029707 0.000000
# 6 0.000000 0.000000 0.000000 0.000000 0.000000 -0.038259
#
#
# Mechanical properties :
#
#
# Convention : Reuss Voigt Hill
#
# Bulk Modulus (GPa) = 39.13510 41.09715 40.11613
# Shear Modulus (GPa) = 144.96686 10.54786 77.75736
#
# Velocity S-wave (km/s) = 8.14674 2.19752 5.96651
# Velocity P-wave (km/s) = 10.31550 5.02534 8.11368
#
# Compressibility (1/GPa) = 0.02555251
#
# Stress axis : x y z
#
# Youngs Moduli (GPa) = 98.17811 86.98840 96.64993
#
# Poissons Ratio (x) = -0.10167 0.04071
# Poissons Ratio (y) = -0.11475 0.38519
# Poissons Ratio (z) = 0.04135 0.34668
#
# Static dielectric constant tensor:
#      x y z
#    x 1.923950 0.000000 0.000000 
#    y 0.000000 1.755280 0.000000 
#    z 0.000000 0.000000 1.775880 
# 
# From -- ./inp_files/63921.got.cif
#   From: 2010.05.17/outbox.cif.g08.bks.cpg/sg65_32_cif.got.tgz:63921.got - 2010.06.03 17:01:31.
