data_PCOD9486033
_publ_section_title
;
Structure prediction by ZEFSAII (Michael W. Deem and Ramdas Pophale) SiO2 
 PCOD9486033
Probable space group: C M M M
;
_chemical_formula_sum "Si O2"
_cell_formula_units_Z 96
_cell_length_a 22.039795
_cell_length_b 18.894661
_cell_length_c 12.366277
_cell_angle_alpha 90.000000
_cell_angle_beta 90.000000
_cell_angle_gamma 90.000000
_cell_volume 5149.743823
_symmetry_space_group_name_H-M "C M M M"
_symmetry_group_IT_number 65
_symmetry_cell_setting 'orthorhombic'
loop_
_space_group_symop_operation_xyz
x,y,z
-x,-y,z
x,-y,-z
-x,y,-z
-x,-y,-z
x,y,-z
-x,y,z
x,-y,z
1/2+x,1/2+y,z
1/2-x,1/2-y,z
1/2+x,1/2-y,-z
1/2-x,1/2+y,-z
1/2-x,1/2-y,-z
1/2+x,1/2+y,-z
1/2-x,1/2+y,z
1/2+x,1/2-y,z
loop_
_atom_site_type_symbol
_atom_site_label
_atom_site_fract_x
_atom_site_fract_y
_atom_site_fract_z
Si Si1 0.277796 0.421183 0.120454
Si Si2 0.885873 0.680128 0.304314
Si Si3 0.720087 0.916839 0.344070
Si Si4 0.206744 0.178177 0.500000
Si Si5 0.427799 0.078534 0.119026
Si Si6 0.067956 0.766058 0.500000
Si Si7 0.821103 0.228867 0.122322
O O1 0.304672 0.500000 0.130871
O O2 0.229126 0.413984 0.214908
O O3 0.323477 0.356161 0.131446
O O4 0.250972 0.415361 0.000000
O O5 0.839331 0.628881 0.367744
O O6 0.916780 0.630359 0.216692
O O7 0.926930 0.719002 0.391577
O O8 0.851355 0.735957 0.226458
O O9 0.773721 0.871683 0.399367
O O10 0.718755 0.000000 0.374643
O O11 0.250000 0.250000 0.500000
O O12 0.134676 0.194627 0.500000
O O13 0.500000 0.072669 0.110268
O O14 0.402652 0.000000 0.141633
O O15 0.405062 0.100807 0.000000
O O16 0.000000 0.800556 0.500000
O O17 0.750000 0.250000 0.125068
O O18 0.843097 0.247639 0.000000
#
# Coordination Sequence:
#
# PCOD9486033 Si02
#       7
#    16  16  16   8  16   8  16
#     4   9  18  31  47  76 122 161 188 227 288 355
#     4  12  21  36  58  83 123 157 202 247 305 354
#     4  11  22  35  59  92 119 154 198 245 300 363
#     4  12  23  44  65  85 111 155 193 258 309 353
#     4   9  19  36  56  79 113 161 208 245 288 349
#     4  12  28  42  60  86 116 158 208 254 312 366
#     4  10  19  31  52  85 122 159 195 238 295 352
#
# _framework density 18.641703
#
# number of rings (size 3 to 8) (size 9 to 14) (size 15 to 20)
#    0.000    1.500    3.333    3.250    0.000    0.667 
#    0.000    2.917    0.000    4.000    0.000    0.000 
#    0.000    2.000    0.000   41.667    0.000    0.167 
#
# Total GULP energy -267494.262212 kJ/mol
# GULP energy per Si atom -5572.797129 kJ/mol
# Density = 1.859927 g / cm^3
# Si number density = 18.641703 Si / 1000 Ang^3
#
#
#
# Elastic Constant Matrix: (Units=GPa)
#
#
# Indices 1 2 3 4 5 6 
#
# 1 76.5654 34.3315 19.9214 0.0000 0.0000 0.0000
# 2 34.3315 120.1190 28.5131 0.0000 0.0000 0.0000
# 3 19.9214 28.5131 111.5005 0.0000 0.0000 0.0000
# 4 0.0000 0.0000 0.0000 24.4302 0.0000 0.0000
# 5 0.0000 0.0000 0.0000 0.0000 17.0455 0.0000
# 6 0.0000 0.0000 0.0000 0.0000 0.0000 23.3009
#
#
#
# Elastic Compliance Matrix: (Units=1/GPa)
#
#
# Indices 1 2 3 4 5 6 
#
# 1 0.015284 -0.003960 -0.001718 0.000000 0.000000 0.000000
# 2 -0.003960 0.009889 -0.001821 0.000000 0.000000 0.000000
# 3 -0.001718 -0.001821 0.009741 0.000000 0.000000 0.000000
# 4 0.000000 0.000000 0.000000 0.040933 0.000000 0.000000
# 5 0.000000 0.000000 0.000000 0.000000 0.058666 0.000000
# 6 0.000000 0.000000 0.000000 0.000000 0.000000 0.042917
#
#
# Mechanical properties :
#
#
# Convention : Reuss Voigt Hill
#
# Bulk Modulus (GPa) = 50.21381 52.63522 51.42451
# Shear Modulus (GPa) = 25.11707 27.98326 26.55016
#
# Velocity S-wave (km/s) = 3.67462 3.87862 3.77800
# Velocity P-wave (km/s) = 6.70810 6.95376 6.83203
#
# Compressibility (1/GPa) = 0.01991484
#
# Stress axis : x y z
#
# Youngs Moduli (GPa) = 65.42990 101.11886 102.65619
#
# Poissons Ratio (x) = 0.40047 0.17635
# Poissons Ratio (y) = 0.25913 0.18697
# Poissons Ratio (z) = 0.11240 0.18417
#
# Static dielectric constant tensor:
#      x y z
#    x 1.664690 0.000000 0.000000 
#    y 0.000000 1.692630 0.000000 
#    z 0.000000 0.000000 1.694780 
# 
# From -- ./inp_files/29102.got.cif
#   From: 2010.05.17/outbox.cif.g08.bks.cpg/sg65_15_cif.got.tgz:29102.got - 2010.06.03 17:01:31.
