data_PCOD9486559
_publ_section_title
;
Structure prediction by ZEFSAII (Michael W. Deem and Ramdas Pophale) SiO2 
 PCOD9486559
Probable space group: C M M M
;
_chemical_formula_sum "Si O2"
_cell_formula_units_Z 88
_cell_length_a 18.948188
_cell_length_b 14.009442
_cell_length_c 18.223635
_cell_angle_alpha 90.000000
_cell_angle_beta 90.000000
_cell_angle_gamma 90.000000
_cell_volume 4837.528437
_symmetry_space_group_name_H-M "C M M M"
_symmetry_group_IT_number 65
_symmetry_cell_setting 'orthorhombic'
loop_
_space_group_symop_operation_xyz
x,y,z
-x,-y,z
x,-y,-z
-x,y,-z
-x,-y,-z
x,y,-z
-x,y,z
x,-y,z
1/2+x,1/2+y,z
1/2-x,1/2-y,z
1/2+x,1/2-y,-z
1/2-x,1/2+y,-z
1/2-x,1/2-y,-z
1/2+x,1/2+y,-z
1/2-x,1/2+y,z
1/2+x,1/2-y,z
loop_
_atom_site_type_symbol
_atom_site_label
_atom_site_fract_x
_atom_site_fract_y
_atom_site_fract_z
Si Si1 0.414992 0.796706 0.914819
Si Si2 0.636133 0.389273 0.660721
Si Si3 0.000000 0.389581 0.683268
Si Si4 0.750000 0.250000 0.695135
Si Si5 0.856434 0.609522 0.223263
Si Si6 0.500000 0.702987 0.587171
Si Si7 0.415533 0.393554 0.172482
O O1 0.500000 0.810503 0.908055
O O2 0.374890 0.868310 0.860956
O O3 0.398371 0.691230 0.883027
O O4 0.396661 0.805462 0.000000
O O5 0.650082 0.500000 0.644659
O O6 0.701120 0.319283 0.647353
O O7 0.568123 0.352278 0.617780
O O8 0.619774 0.380989 0.748166
O O9 0.069977 0.375769 0.732678
O O10 0.000000 0.309330 0.621227
O O11 0.000000 0.500000 0.657591
O O12 0.799085 0.318162 0.744736
O O13 0.833872 0.500000 0.233079
O O14 0.500000 0.705535 0.500000
O O15 0.500000 0.389684 0.184931
O O16 0.398329 0.500000 0.144859
#
# Coordination Sequence:
#
# PCOD9486559 Si02
#       7
#    16  16   8   8  16   8  16
#     4  10  19  32  53  83 118 150 194 256 308 349
#     4  11  22  38  62  92 119 154 202 246 293 353
#     4  10  20  40  68  90 117 157 209 252 278 337
#     4  12  22  38  64  88 122 154 198 250 294 352
#     4  11  22  38  62  88 113 155 205 250 296 346
#     4  12  23  41  68  96 127 155 190 243 297 347
#     4   9  16  30  55  80 108 149 197 246 289 338
#
# _framework density 18.191106999999999
#
# number of rings (size 3 to 8) (size 9 to 14) (size 15 to 20)
#    0.000    1.455    5.455    0.818    0.000    1.636 
#    0.000    3.636    0.000    0.000    0.000    0.000 
#    0.000    0.000    0.000    0.000    0.000    0.000 
#
# Total GULP energy -245734.904104 kJ/mol
# GULP energy per Si atom -5584.884184 kJ/mol
# Density = 1.814970 g / cm^3
# Si number density = 18.191107 Si / 1000 Ang^3
#
#
#
# Elastic Constant Matrix: (Units=GPa)
#
#
# Indices 1 2 3 4 5 6 
#
# 1 87.6933 72.3459 35.7554 0.0000 0.0000 0.0000
# 2 72.3459 145.0012 48.5873 0.0000 0.0000 0.0000
# 3 35.7554 48.5873 71.2122 0.0000 0.0000 0.0000
# 4 0.0000 0.0000 0.0000 10.9735 0.0000 0.0000
# 5 0.0000 0.0000 0.0000 0.0000 -3.0958 0.0000
# 6 0.0000 0.0000 0.0000 0.0000 0.0000 27.2954
#
#
#
# Elastic Compliance Matrix: (Units=1/GPa)
#
#
# Indices 1 2 3 4 5 6 
#
# 1 0.020332 -0.008716 -0.004262 0.000000 0.000000 0.000000
# 2 -0.008716 0.012677 -0.004273 0.000000 0.000000 0.000000
# 3 -0.004262 -0.004273 0.019098 0.000000 0.000000 0.000000
# 4 0.000000 0.000000 0.000000 0.091129 0.000000 0.000000
# 5 0.000000 0.000000 0.000000 0.000000 -0.323017 0.000000
# 6 0.000000 0.000000 0.000000 0.000000 0.000000 0.036636
#
#
# Mechanical properties :
#
#
# Convention : Reuss Voigt Hill
#
# Bulk Modulus (GPa) = 56.80224 68.58710 62.69467
# Shear Modulus (GPa) = -48.64966 16.84914 -15.90026
#
# Velocity S-wave (km/s) = -5.17704 3.04670 -2.95967
# Velocity P-wave (km/s) = 2.10773 7.08252 4.78119
#
# Compressibility (1/GPa) = 0.01760494
#
# Stress axis : x y z
#
# Youngs Moduli (GPa) = 49.18428 78.88219 52.36226
#
# Poissons Ratio (x) = 0.68755 0.22314
# Poissons Ratio (y) = 0.42870 0.22375
# Poissons Ratio (z) = 0.20960 0.33707
#
# Static dielectric constant tensor:
#      x y z
#    x 1.630970 0.000000 0.000000 
#    y 0.000000 1.646540 0.000000 
#    z 0.000000 0.000000 1.579520 
# 
# From -- ./inp_files/54378.got.cif
#   From: 2010.05.17/outbox.cif.g08.bks.cpg/sg65_28_cif.got.tgz:54378.got - 2010.06.03 17:01:31.
