data_PCOD9486027
_publ_section_title
;
Structure prediction by ZEFSAII (Michael W. Deem and Ramdas Pophale) SiO2 
 PCOD9486027
Probable space group: C M M M
;
_chemical_formula_sum "Si O2"
_cell_formula_units_Z 104
_cell_length_a 19.407991
_cell_length_b 21.552455
_cell_length_c 14.412702
_cell_angle_alpha 90.000000
_cell_angle_beta 90.000000
_cell_angle_gamma 90.000000
_cell_volume 6028.686996
_symmetry_space_group_name_H-M "C M M M"
_symmetry_group_IT_number 65
_symmetry_cell_setting 'orthorhombic'
loop_
_space_group_symop_operation_xyz
x,y,z
-x,-y,z
x,-y,-z
-x,y,-z
-x,-y,-z
x,y,-z
-x,y,z
x,-y,z
1/2+x,1/2+y,z
1/2-x,1/2-y,z
1/2+x,1/2-y,-z
1/2-x,1/2+y,-z
1/2-x,1/2-y,-z
1/2+x,1/2+y,-z
1/2-x,1/2+y,z
1/2+x,1/2-y,z
loop_
_atom_site_type_symbol
_atom_site_label
_atom_site_fract_x
_atom_site_fract_y
_atom_site_fract_z
Si Si1 0.240473 0.932275 0.891944
Si Si2 0.423840 0.698059 0.608719
Si Si3 0.314219 0.295046 0.890000
Si Si4 0.161164 0.398791 0.268021
Si Si5 0.922439 0.718616 0.779250
Si Si6 0.082827 0.500000 0.389334
Si Si7 0.768976 0.177495 0.609668
O O1 0.200237 0.867812 0.872877
O O2 0.301035 0.932519 0.816818
O O3 0.204270 0.000000 0.884202
O O4 0.263452 0.927146 0.000000
O O5 0.420861 0.713642 0.500000
O O6 0.500000 0.667782 0.625297
O O7 0.423201 0.758390 0.672812
O O8 0.350416 0.665600 0.629020
O O9 0.250000 0.250000 0.863420
O O10 0.378983 0.269109 0.835120
O O11 0.324066 0.287200 0.000000
O O12 0.114111 0.346931 0.220391
O O13 0.116730 0.441652 0.336296
O O14 0.219815 0.364641 0.328806
O O15 0.000000 0.715516 0.813920
O O16 0.098211 0.500000 0.500000
O O17 0.000000 0.500000 0.379086
O O18 0.757262 0.166812 0.500000
O O19 0.750000 0.250000 0.627658
#
# Coordination Sequence:
#
# PCOD9486027 Si02
#       7
#    16  16  16  16  16   8  16
#     4  10  21  37  59  85 110 144 192 241 289 347
#     4   9  18  31  46  73 112 147 177 218 280 344
#     4  10  20  36  59  84 113 147 184 235 298 353
#     4  12  21  36  58  82 110 154 196 246 288 343
#     4  11  22  33  53  84 115 147 185 233 291 351
#     4  11  26  44  57  77 116 164 209 246 289 347
#     4  10  19  31  52  81 110 144 190 240 286 342
#
# _framework density 17.250854
#
# number of rings (size 3 to 8) (size 9 to 14) (size 15 to 20)
#    0.000    1.615    3.846    1.846    0.000    0.923 
#    0.000    1.538    0.000    2.308    0.000    2.692 
#    0.000    3.077    0.000    0.154    0.000    0.154 
#
# Total GULP energy -289751.260132 kJ/mol
# GULP energy per Si atom -5572.139618 kJ/mol
# Density = 1.721159 g / cm^3
# Si number density = 17.250854 Si / 1000 Ang^3
#
#
#
# Elastic Constant Matrix: (Units=GPa)
#
#
# Indices 1 2 3 4 5 6 
#
# 1 130.5953 59.2722 42.9633 0.0000 0.0000 0.0000
# 2 59.2722 123.3362 44.9146 0.0000 0.0000 0.0000
# 3 42.9633 44.9146 66.9756 0.0000 0.0000 0.0000
# 4 0.0000 0.0000 0.0000 14.3328 0.0000 0.0000
# 5 0.0000 0.0000 0.0000 0.0000 14.6115 0.0000
# 6 0.0000 0.0000 0.0000 0.0000 0.0000 10.5747
#
#
#
# Elastic Compliance Matrix: (Units=1/GPa)
#
#
# Indices 1 2 3 4 5 6 
#
# 1 0.010743 -0.003511 -0.004537 0.000000 0.000000 0.000000
# 2 -0.003511 0.011875 -0.005711 0.000000 0.000000 0.000000
# 3 -0.004537 -0.005711 0.021672 0.000000 0.000000 0.000000
# 4 0.000000 0.000000 0.000000 0.069770 0.000000 0.000000
# 5 0.000000 0.000000 0.000000 0.000000 0.068439 0.000000
# 6 0.000000 0.000000 0.000000 0.000000 0.000000 0.094565
#
#
# Mechanical properties :
#
#
# Convention : Reuss Voigt Hill
#
# Bulk Modulus (GPa) = 59.62684 68.35637 63.99160
# Shear Modulus (GPa) = 16.12001 19.48760 17.80381
#
# Velocity S-wave (km/s) = 3.06019 3.36469 3.21604
# Velocity P-wave (km/s) = 6.86483 7.40309 7.13904
#
# Compressibility (1/GPa) = 0.01677097
#
# Stress axis : x y z
#
# Youngs Moduli (GPa) = 93.08162 84.21093 46.14337
#
# Poissons Ratio (x) = 0.29563 0.20937
# Poissons Ratio (y) = 0.32677 0.26355
# Poissons Ratio (z) = 0.42234 0.48097
#
# Static dielectric constant tensor:
#      x y z
#    x 1.607840 0.000000 0.000000 
#    y 0.000000 1.632630 0.000000 
#    z 0.000000 0.000000 1.595950 
# 
# From -- ./inp_files/42845.got.cif
#   From: 2010.05.17/outbox.cif.g08.bks.cpg/sg65_22_cif.got.tgz:42845.got - 2010.06.03 17:01:31.
