data_PCOD9486075
_publ_section_title
;
Structure prediction by ZEFSAII (Michael W. Deem and Ramdas Pophale) SiO2 
 PCOD9486075
Probable space group: C M M M
;
_chemical_formula_sum "Si O2"
_cell_formula_units_Z 112
_cell_length_a 35.079264
_cell_length_b 14.337757
_cell_length_c 14.161427
_cell_angle_alpha 90.000000
_cell_angle_beta 90.000000
_cell_angle_gamma 90.000000
_cell_volume 7122.602477
_symmetry_space_group_name_H-M "C M M M"
_symmetry_group_IT_number 65
_symmetry_cell_setting 'orthorhombic'
loop_
_space_group_symop_operation_xyz
x,y,z
-x,-y,z
x,-y,-z
-x,y,-z
-x,-y,-z
x,y,-z
-x,y,z
x,-y,z
1/2+x,1/2+y,z
1/2-x,1/2-y,z
1/2+x,1/2-y,-z
1/2-x,1/2+y,-z
1/2-x,1/2-y,-z
1/2+x,1/2+y,-z
1/2-x,1/2+y,z
1/2+x,1/2-y,z
loop_
_atom_site_type_symbol
_atom_site_label
_atom_site_fract_x
_atom_site_fract_y
_atom_site_fract_z
Si Si1 0.144812 0.892907 0.814908
Si Si2 0.727716 0.612950 0.891720
Si Si3 0.042138 0.609187 0.885426
Si Si4 0.692948 0.111870 0.795063
Si Si5 0.880804 0.294843 0.889084
Si Si6 0.792645 0.715290 0.605261
Si Si7 0.654003 0.604391 0.603640
O O1 0.189864 0.867448 0.830036
O O2 0.122163 0.815408 0.871628
O O3 0.133325 0.888244 0.704444
O O4 0.140333 0.000000 0.847084
O O5 0.729872 0.500000 0.894950
O O6 0.768011 0.643924 0.847821
O O7 0.722605 0.646069 0.000000
O O8 0.046410 0.500000 0.861364
O O9 0.078989 0.665447 0.852399
O O10 0.000000 0.640612 0.853120
O O11 0.041840 0.614593 0.000000
O O12 0.655395 0.156651 0.840437
O O13 0.695514 0.145998 0.687564
O O14 0.690981 0.000000 0.801556
O O15 0.878244 0.315076 0.000000
O O16 0.795180 0.673542 0.500000
O O17 0.750000 0.750000 0.621598
O O18 0.817482 0.809360 0.605575
O O19 0.634253 0.608608 0.500000
O O20 0.672213 0.500000 0.607438
#
# Coordination Sequence:
#
# PCOD9486075 Si02
#       7
#    16  16  16  16  16  16  16
#     4  10  19  32  48  68  95 125 161 200 239 284
#     4   9  18  31  44  58  84 127 168 197 228 273
#     4   8  15  30  51  72  95 125 161 199 236 277
#     4  11  22  33  46  67  95 125 162 208 252 286
#     4  11  21  31  48  73  99 129 163 200 241 286
#     4  10  20  33  48  65  87 119 161 203 248 297
#     4   9  17  31  50  66  82 110 153 202 242 277
#
# _framework density 15.724589
#
# number of rings (size 3 to 8) (size 9 to 14) (size 15 to 20)
#    0.000    2.286    1.429    2.571    0.000    4.286 
#    0.000    2.857    0.000    0.429    0.000    2.000 
#    0.000    2.286    0.000   11.429    0.000    0.571 
#
# Total GULP energy -311925.100361 kJ/mol
# GULP energy per Si atom -5570.091078 kJ/mol
# Density = 1.568880 g / cm^3
# Si number density = 15.724589 Si / 1000 Ang^3
#
#
#
# Elastic Constant Matrix: (Units=GPa)
#
#
# Indices 1 2 3 4 5 6 
#
# 1 88.5219 35.8336 25.7453 0.0000 0.0000 0.0000
# 2 35.8336 58.5432 15.1918 0.0000 0.0000 0.0000
# 3 25.7453 15.1918 81.5530 0.0000 0.0000 0.0000
# 4 0.0000 0.0000 0.0000 -12.0693 0.0000 0.0000
# 5 0.0000 0.0000 0.0000 0.0000 2.0702 0.0000
# 6 0.0000 0.0000 0.0000 0.0000 0.0000 18.7234
#
#
#
# Elastic Compliance Matrix: (Units=1/GPa)
#
#
# Indices 1 2 3 4 5 6 
#
# 1 0.015847 -0.008828 -0.003358 0.000000 0.000000 0.000000
# 2 -0.008828 0.022867 -0.001473 0.000000 0.000000 0.000000
# 3 -0.003358 -0.001473 0.013596 0.000000 0.000000 0.000000
# 4 0.000000 0.000000 0.000000 -0.082855 0.000000 0.000000
# 5 0.000000 0.000000 0.000000 0.000000 0.483054 0.000000
# 6 0.000000 0.000000 0.000000 0.000000 0.000000 0.053409
#
#
# Mechanical properties :
#
#
# Convention : Reuss Voigt Hill
#
# Bulk Modulus (GPa) = 40.01237 42.46215 41.23726
# Shear Modulus (GPa) = 9.23245 11.86803 10.55024
#
# Velocity S-wave (km/s) = 2.42571 2.75024 2.59306
# Velocity P-wave (km/s) = 5.77464 6.09487 5.93691
#
# Compressibility (1/GPa) = 0.02499227
#
# Stress axis : x y z
#
# Youngs Moduli (GPa) = 63.10337 43.73053 73.54872
#
# Poissons Ratio (x) = 0.38607 0.24699
# Poissons Ratio (y) = 0.55710 0.10832
# Poissons Ratio (z) = 0.21191 0.06440
#
# Static dielectric constant tensor:
#      x y z
#    x 1.574660 0.000000 0.000000 
#    y 0.000000 1.529230 0.000000 
#    z 0.000000 0.000000 1.559980 
# 
# From -- ./inp_files/41354.got.cif
#   From: 2010.05.17/outbox.cif.g08.bks.cpg/sg65_21_cif.got.tgz:41354.got - 2010.06.03 17:01:31.
