data_PCOD9486903
_publ_section_title
;
Structure prediction by ZEFSAII (Michael W. Deem and Ramdas Pophale) SiO2 
 PCOD9486903
Probable space group: C M M M
;
_chemical_formula_sum "Si O2"
_cell_formula_units_Z 112
_cell_length_a 17.661985
_cell_length_b 19.430763
_cell_length_c 17.471211
_cell_angle_alpha 90.000000
_cell_angle_beta 90.000000
_cell_angle_gamma 90.000000
_cell_volume 5995.872304
_symmetry_space_group_name_H-M "C M M M"
_symmetry_group_IT_number 65
_symmetry_cell_setting 'orthorhombic'
loop_
_space_group_symop_operation_xyz
x,y,z
-x,-y,z
x,-y,-z
-x,y,-z
-x,-y,-z
x,y,-z
-x,y,z
x,-y,z
1/2+x,1/2+y,z
1/2-x,1/2-y,z
1/2+x,1/2-y,-z
1/2-x,1/2+y,-z
1/2-x,1/2-y,-z
1/2+x,1/2+y,-z
1/2-x,1/2+y,z
1/2+x,1/2-y,z
loop_
_atom_site_type_symbol
_atom_site_label
_atom_site_fract_x
_atom_site_fract_y
_atom_site_fract_z
Si Si1 0.666570 0.423041 0.737865
Si Si2 0.910913 0.575713 0.357201
Si Si3 0.411253 0.709335 0.203485
Si Si4 0.090845 0.126227 0.414848
Si Si5 0.326450 0.205599 0.090190
Si Si6 0.908326 0.276246 0.362053
Si Si7 0.666914 0.922580 0.202695
O O1 0.644934 0.500000 0.762164
O O2 0.629584 0.363509 0.788648
O O3 0.636625 0.410257 0.652245
O O4 0.756585 0.416892 0.746785
O O5 0.878807 0.500000 0.378606
O O6 0.879645 0.648736 0.387923
O O7 0.899857 0.583013 0.265218
O O8 0.000000 0.573286 0.375808
O O9 0.500000 0.698964 0.213989
O O10 0.392328 0.747413 0.125487
O O11 0.383975 0.756557 0.275297
O O12 0.106292 0.100459 0.500000
O O13 0.109431 0.207891 0.409701
O O14 0.000000 0.119684 0.400426
O O15 0.250000 0.250000 0.104810
O O16 0.329133 0.135127 0.138138
O O17 0.332759 0.193728 0.000000
O O18 0.000000 0.281532 0.361661
O O19 0.664641 0.000000 0.170046
#
# Coordination Sequence:
#
# PCOD9486903 Si02
#       7
#    16  16  16  16  16  16  16
#     4  10  20  34  53  79 110 144 180 217 262 321
#     4   9  16  27  48  77 103 130 175 228 268 306
#     4  10  19  33  54  79 104 136 179 222 262 313
#     4   9  18  32  51  78 110 140 171 213 267 321
#     4  11  22  36  54  77 104 140 179 221 275 323
#     4   8  14  26  47  72  98 131 169 208 254 307
#     4  10  20  34  54  80 108 144 181 220 270 321
#
# _framework density 18.679517000000001
#
# number of rings (size 3 to 8) (size 9 to 14) (size 15 to 20)
#    0.000    2.429    2.857    1.286    0.000    2.000 
#    0.000    0.714    0.000    2.571    0.000    9.000 
#    0.000    0.000    0.000    0.000    0.000    0.000 
#
# Total GULP energy -311955.738395 kJ/mol
# GULP energy per Si atom -5570.638186 kJ/mol
# Density = 1.863700 g / cm^3
# Si number density = 18.679517 Si / 1000 Ang^3
#
#
#
# Elastic Constant Matrix: (Units=GPa)
#
#
# Indices 1 2 3 4 5 6 
#
# 1 15.1195 9.7070 -1.2888 0.0000 0.0000 0.0000
# 2 9.7070 110.9861 0.8025 0.0000 0.0000 0.0000
# 3 -1.2888 0.8025 38.5356 0.0000 0.0000 0.0000
# 4 0.0000 0.0000 0.0000 7.9897 0.0000 0.0000
# 5 0.0000 0.0000 0.0000 0.0000 15.8804 0.0000
# 6 0.0000 0.0000 0.0000 0.0000 0.0000 19.8879
#
#
#
# Elastic Compliance Matrix: (Units=1/GPa)
#
#
# Indices 1 2 3 4 5 6 
#
# 1 0.070311 -0.006167 0.002480 0.000000 0.000000 0.000000
# 2 -0.006167 0.009552 -0.000405 0.000000 0.000000 0.000000
# 3 0.002480 -0.000405 0.026041 0.000000 0.000000 0.000000
# 4 0.000000 0.000000 0.000000 0.125162 0.000000 0.000000
# 5 0.000000 0.000000 0.000000 0.000000 0.062971 0.000000
# 6 0.000000 0.000000 0.000000 0.000000 0.000000 0.050282
#
#
# Mechanical properties :
#
#
# Convention : Reuss Voigt Hill
#
# Bulk Modulus (GPa) = 10.23341 20.34251 15.28796
# Shear Modulus (GPa) = 12.98441 19.11295 16.04868
#
# Velocity S-wave (km/s) = 2.63936 3.20223 2.93432
# Velocity P-wave (km/s) = 3.84430 4.95845 4.43649
#
# Compressibility (1/GPa) = 0.09771910
#
# Stress axis : x y z
#
# Youngs Moduli (GPa) = 14.22261 104.68494 38.40035
#
# Poissons Ratio (x) = 0.64563 -0.09523
# Poissons Ratio (y) = 0.08772 0.01556
# Poissons Ratio (z) = -0.03527 0.04242
#
# Static dielectric constant tensor:
#      x y z
#    x 1.652820 0.000000 0.000000 
#    y 0.000000 1.694990 0.000000 
#    z 0.000000 0.000000 1.626720 
# 
# From -- ./inp_files/54872.got.cif
#   From: 2010.05.17/outbox.cif.g08.bks.cpg/sg65_28_cif.got.tgz:54872.got - 2010.06.03 17:01:31.
