data_PCOD9486852
_publ_section_title
;
Structure prediction by ZEFSAII (Michael W. Deem and Ramdas Pophale) SiO2 
 PCOD9486852
Probable space group: C M M M
;
_chemical_formula_sum "Si O2"
_cell_formula_units_Z 88
_cell_length_a 7.327726
_cell_length_b 16.479994
_cell_length_c 31.847364
_cell_angle_alpha 90.000000
_cell_angle_beta 90.000000
_cell_angle_gamma 90.000000
_cell_volume 3845.915719
_symmetry_space_group_name_H-M "C M M M"
_symmetry_group_IT_number 65
_symmetry_cell_setting 'orthorhombic'
loop_
_space_group_symop_operation_xyz
x,y,z
-x,-y,z
x,-y,-z
-x,y,-z
-x,-y,-z
x,y,-z
-x,y,z
x,-y,z
1/2+x,1/2+y,z
1/2-x,1/2-y,z
1/2+x,1/2-y,-z
1/2-x,1/2+y,-z
1/2-x,1/2-y,-z
1/2+x,1/2+y,-z
1/2-x,1/2+y,z
1/2+x,1/2-y,z
loop_
_atom_site_type_symbol
_atom_site_label
_atom_site_fract_x
_atom_site_fract_y
_atom_site_fract_z
Si Si1 0.718903 0.596455 0.454972
Si Si2 0.276831 0.500000 0.048480
Si Si3 0.717359 0.654148 0.634492
Si Si4 0.221833 0.907197 0.814520
Si Si5 0.717424 0.341082 0.900916
Si Si6 0.717882 0.346605 0.725073
O O1 0.787385 0.629538 0.500000
O O2 0.500000 0.611177 0.454793
O O3 0.745978 0.500000 0.455655
O O4 0.791867 0.626154 0.410371
O O5 0.500000 0.500000 0.049437
O O6 0.216288 0.417336 0.071666
O O7 0.221882 0.500000 0.000000
O O8 0.500000 0.637282 0.633826
O O9 0.750000 0.750000 0.636036
O O10 0.786860 0.622527 0.679650
O O11 0.285206 0.851458 0.852956
O O12 0.288599 0.884431 0.768163
O O13 0.000000 0.902016 0.812934
O O14 0.267879 0.000000 0.824629
O O15 0.500000 0.350629 0.899251
O O16 0.750000 0.250000 0.916808
O O17 0.500000 0.359941 0.724410
O O18 0.750000 0.250000 0.727268
#
# Coordination Sequence:
#
# PCOD9486852 Si02
#       6
#    16   8  16  16  16  16
#     4   8  14  25  41  60  81 105 136 176 218 258
#     4   9  18  34  55  77 103 137 175 209 244 298
#     4   9  17  28  42  62  86 111 140 177 220 265
#     4   9  16  28  47  70  94 122 159 198 234 278
#     4  10  19  33  54  77 102 134 170 208 250 296
#     4   9  17  28  43  63  88 116 146 182 224 270
#
# _framework density 22.881416999999999
#
# number of rings (size 3 to 8) (size 9 to 14) (size 15 to 20)
#    0.000    3.000    0.909    1.091    0.000    1.455 
#    0.000    4.091    0.000    2.727    0.000    6.364 
#    0.000    0.000    0.000    0.000    0.000    0.000 
#
# Total GULP energy -245400.582935 kJ/mol
# GULP energy per Si atom -5577.285976 kJ/mol
# Density = 2.282934 g / cm^3
# Si number density = 22.881417 Si / 1000 Ang^3
#
#
#
# Elastic Constant Matrix: (Units=GPa)
#
#
# Indices 1 2 3 4 5 6 
#
# 1 91.6941 -2.8732 13.2640 0.0000 0.0000 0.0000
# 2 -2.8732 93.3167 79.0792 0.0000 0.0000 0.0000
# 3 13.2640 79.0792 213.6967 0.0000 0.0000 0.0000
# 4 0.0000 0.0000 0.0000 34.7553 0.0000 0.0000
# 5 0.0000 0.0000 0.0000 0.0000 -12.6913 0.0000
# 6 0.0000 0.0000 0.0000 0.0000 0.0000 9.8247
#
#
#
# Elastic Compliance Matrix: (Units=1/GPa)
#
#
# Indices 1 2 3 4 5 6 
#
# 1 0.011120 0.001351 -0.001190 0.000000 0.000000 0.000000
# 2 0.001351 0.015776 -0.005922 0.000000 0.000000 0.000000
# 3 -0.001190 -0.005922 0.006945 0.000000 0.000000 0.000000
# 4 0.000000 0.000000 0.000000 0.028773 0.000000 0.000000
# 5 0.000000 0.000000 0.000000 0.000000 -0.078794 0.000000
# 6 0.000000 0.000000 0.000000 0.000000 0.000000 0.101784
#
#
# Mechanical properties :
#
#
# Convention : Reuss Voigt Hill
#
# Bulk Modulus (GPa) = 44.80454 64.18306 54.49380
# Shear Modulus (GPa) = 47.81677 26.99359 37.40518
#
# Velocity S-wave (km/s) = 4.57635 3.43843 4.04758
# Velocity P-wave (km/s) = 6.89549 6.62381 6.76101
#
# Compressibility (1/GPa) = 0.02231917
#
# Stress axis : x y z
#
# Youngs Moduli (GPa) = 89.92540 63.38680 143.99237
#
# Poissons Ratio (x) = -0.08563 0.17137
# Poissons Ratio (y) = -0.12149 0.85271
# Poissons Ratio (z) = 0.10703 0.37537
#
# Static dielectric constant tensor:
#      x y z
#    x 1.813920 0.000000 0.000000 
#    y 0.000000 1.801040 0.000000 
#    z 0.000000 0.000000 1.896560 
# 
# From -- ./inp_files/76660.got.cif
#   From: 2010.05.17/outbox.cif.g08.bks.cpg/sg65_39_cif.got.tgz:76660.got - 2010.06.03 17:01:31.
