data_PCOD9486798
_publ_section_title
;
Structure prediction by ZEFSAII (Michael W. Deem and Ramdas Pophale) SiO2 
 PCOD9486798
Probable space group: C M M M
;
_chemical_formula_sum "Si O2"
_cell_formula_units_Z 80
_cell_length_a 28.514628
_cell_length_b 9.836934
_cell_length_c 17.698578
_cell_angle_alpha 90.000000
_cell_angle_beta 90.000000
_cell_angle_gamma 90.000000
_cell_volume 4964.389426
_symmetry_space_group_name_H-M "C M M M"
_symmetry_group_IT_number 65
_symmetry_cell_setting 'orthorhombic'
loop_
_space_group_symop_operation_xyz
x,y,z
-x,-y,z
x,-y,-z
-x,y,-z
-x,-y,-z
x,y,-z
-x,y,z
x,-y,z
1/2+x,1/2+y,z
1/2-x,1/2-y,z
1/2+x,1/2-y,-z
1/2-x,1/2+y,-z
1/2-x,1/2-y,-z
1/2+x,1/2+y,-z
1/2-x,1/2+y,z
1/2+x,1/2-y,z
loop_
_atom_site_type_symbol
_atom_site_label
_atom_site_fract_x
_atom_site_fract_y
_atom_site_fract_z
Si Si1 0.202146 0.663720 0.165102
Si Si2 0.796319 0.341575 0.000000
Si Si3 0.795118 0.500000 0.590257
Si Si4 0.817625 0.000000 0.592123
Si Si5 0.847990 0.266077 0.682144
Si Si6 0.444019 0.652798 0.500000
Si Si7 0.946015 0.659010 0.641954
O O1 0.209064 0.500000 0.177212
O O2 0.250000 0.750000 0.162870
O O3 0.174610 0.725722 0.235382
O O4 0.179519 0.680643 0.081300
O O5 0.750000 0.250000 0.000000
O O6 0.781780 0.500000 0.000000
O O7 0.802371 0.500000 0.500000
O O8 0.739063 0.500000 0.604222
O O9 0.820450 0.373401 0.629439
O O10 0.839984 0.127660 0.635916
O O11 0.823399 0.000000 0.500000
O O12 0.902122 0.309310 0.694729
O O13 0.424521 0.500000 0.500000
O O14 0.500000 0.639016 0.500000
O O15 0.433764 0.743975 0.427972
O O16 0.944531 0.500000 0.620246
O O17 0.000000 0.686724 0.666420
#
# Coordination Sequence:
#
# PCOD9486798 Si02
#       7
#    16   8   8   8  16   8  16
#     4  10  19  33  53  78 107 136 170 208 256 312
#     4   8  16  30  50  76 105 135 162 202 255 310
#     4  11  22  38  53  70 100 138 176 216 251 301
#     4  11  26  40  51  72 104 140 180 220 261 303
#     4  12  23  35  55  76  99 137 180 216 261 306
#     4   9  19  33  51  71  94 123 162 218 272 310
#     4  10  21  36  52  72  97 129 171 219 266 310
#
# _framework density 16.11477
#
# number of rings (size 3 to 8) (size 9 to 14) (size 15 to 20)
#    0.000    1.700    2.000    2.700    5.600    2.800 
#    0.000    0.000    0.000    0.000    0.000    0.700 
#    0.000    4.000    0.000    1.800    0.000    0.800 
#
# Total GULP energy -222707.036841 kJ/mol
# GULP energy per Si atom -5567.675921 kJ/mol
# Density = 1.607809 g / cm^3
# Si number density = 16.114770 Si / 1000 Ang^3
#
#
#
# Elastic Constant Matrix: (Units=GPa)
#
#
# Indices 1 2 3 4 5 6 
#
# 1 101.5071 29.8728 43.5854 0.0000 0.0000 0.0000
# 2 29.8728 110.0314 42.0602 0.0000 0.0000 0.0000
# 3 43.5854 42.0602 125.1332 0.0000 0.0000 0.0000
# 4 0.0000 0.0000 0.0000 15.3113 0.0000 0.0000
# 5 0.0000 0.0000 0.0000 0.0000 5.0941 0.0000
# 6 0.0000 0.0000 0.0000 0.0000 0.0000 15.5065
#
#
#
# Elastic Compliance Matrix: (Units=1/GPa)
#
#
# Indices 1 2 3 4 5 6 
#
# 1 0.011918 -0.001892 -0.003515 0.000000 0.000000 0.000000
# 2 -0.001892 0.010729 -0.002947 0.000000 0.000000 0.000000
# 3 -0.003515 -0.002947 0.010206 0.000000 0.000000 0.000000
# 4 0.000000 0.000000 0.000000 0.065311 0.000000 0.000000
# 5 0.000000 0.000000 0.000000 0.000000 0.196304 0.000000
# 6 0.000000 0.000000 0.000000 0.000000 0.000000 0.064489
#
#
# Mechanical properties :
#
#
# Convention : Reuss Voigt Hill
#
# Bulk Modulus (GPa) = 61.94146 63.07871 62.51009
# Shear Modulus (GPa) = 13.12176 21.92594 17.52385
#
# Velocity S-wave (km/s) = 2.85664 3.69265 3.30121
# Velocity P-wave (km/s) = 7.02863 7.57689 7.30790
#
# Compressibility (1/GPa) = 0.01614428
#
# Stress axis : x y z
#
# Youngs Moduli (GPa) = 83.90922 93.20957 97.97721
#
# Poissons Ratio (x) = 0.17634 0.34441
# Poissons Ratio (y) = 0.15875 0.28875
# Poissons Ratio (z) = 0.29495 0.27470
#
# Static dielectric constant tensor:
#      x y z
#    x 1.556620 0.000000 0.000000 
#    y 0.000000 1.581670 0.000000 
#    z 0.000000 0.000000 1.525090 
# 
# From -- ./inp_files/57355.got.cif
#   From: 2010.05.17/outbox.cif.g08.bks.cpg/sg65_29_cif.got.tgz:57355.got - 2010.06.03 17:01:31.
