data_PCOD9486331
_publ_section_title
;
Structure prediction by ZEFSAII (Michael W. Deem and Ramdas Pophale) SiO2 
 PCOD9486331
Probable space group: C M M M
;
_chemical_formula_sum "Si O2"
_cell_formula_units_Z 96
_cell_length_a 16.959302
_cell_length_b 23.906623
_cell_length_c 11.244334
_cell_angle_alpha 90.000000
_cell_angle_beta 90.000000
_cell_angle_gamma 90.000000
_cell_volume 4558.898721
_symmetry_space_group_name_H-M "C M M M"
_symmetry_group_IT_number 65
_symmetry_cell_setting 'orthorhombic'
loop_
_space_group_symop_operation_xyz
x,y,z
-x,-y,z
x,-y,-z
-x,y,-z
-x,-y,-z
x,y,-z
-x,y,z
x,-y,z
1/2+x,1/2+y,z
1/2-x,1/2-y,z
1/2+x,1/2-y,-z
1/2-x,1/2+y,-z
1/2-x,1/2-y,-z
1/2+x,1/2+y,-z
1/2-x,1/2+y,z
1/2+x,1/2-y,z
loop_
_atom_site_type_symbol
_atom_site_label
_atom_site_fract_x
_atom_site_fract_y
_atom_site_fract_z
Si Si1 0.876905 0.640030 0.634216
Si Si2 0.090762 0.733448 0.000000
Si Si3 0.811047 0.847228 0.365789
Si Si4 0.816475 0.063791 0.191353
Si Si5 0.909328 0.132186 0.000000
Si Si6 0.870456 0.565561 0.136829
Si Si7 0.090252 0.250703 0.749195
O O1 0.892565 0.617834 0.500000
O O2 0.783614 0.654580 0.641375
O O3 0.898904 0.600244 0.746750
O O4 0.914388 0.700588 0.653135
O O5 0.123177 0.719530 0.129823
O O6 0.095762 0.801051 0.000000
O O7 0.000000 0.713833 0.000000
O O8 0.836641 0.838232 0.500000
O O9 0.827457 0.909902 0.320968
O O10 0.853638 0.799492 0.289323
O O11 0.724996 0.066870 0.150843
O O12 0.841606 0.000000 0.180736
O O13 0.866131 0.104757 0.110258
O O14 0.000000 0.116492 0.000000
O O15 0.894104 0.500000 0.145394
O O16 0.890172 0.584660 0.000000
O O17 0.000000 0.230601 0.772904
#
# Coordination Sequence:
#
# PCOD9486331 Si02
#       7
#    16   8  16  16   8  16  16
#     4  10  22  37  56  85 115 145 183 225 271 327
#     4   9  20  35  52  76 105 140 181 226 273 323
#     4  10  21  37  54  76 110 146 181 227 275 319
#     4  10  19  32  51  76 105 139 182 227 270 320
#     4  11  19  32  50  72 105 142 181 226 278 325
#     4   9  18  34  57  83 111 142 179 225 272 322
#     4  11  22  38  58  80 109 144 183 226 276 331
#
# _framework density 21.057718000000001
#
# number of rings (size 3 to 8) (size 9 to 14) (size 15 to 20)
#    0.000    2.000    2.500    1.250    1.167    4.000 
#    0.000    4.167    0.000    0.500    0.000    4.667 
#    0.000    0.000    0.000    0.000    0.000    0.000 
#
# Total GULP energy -267626.529985 kJ/mol
# GULP energy per Si atom -5575.552708 kJ/mol
# Density = 2.100979 g / cm^3
# Si number density = 21.057718 Si / 1000 Ang^3
#
#
#
# Elastic Constant Matrix: (Units=GPa)
#
#
# Indices 1 2 3 4 5 6 
#
# 1 27.6422 5.8711 7.5060 0.0000 0.0000 0.0000
# 2 5.8711 70.3536 39.8223 0.0000 0.0000 0.0000
# 3 7.5060 39.8223 158.1604 0.0000 0.0000 0.0000
# 4 0.0000 0.0000 0.0000 27.8223 0.0000 0.0000
# 5 0.0000 0.0000 0.0000 0.0000 12.4664 0.0000
# 6 0.0000 0.0000 0.0000 0.0000 0.0000 -10.2204
#
#
#
# Elastic Compliance Matrix: (Units=1/GPa)
#
#
# Indices 1 2 3 4 5 6 
#
# 1 0.037005 -0.002442 -0.001141 0.000000 0.000000 0.000000
# 2 -0.002442 0.016737 -0.004098 0.000000 0.000000 0.000000
# 3 -0.001141 -0.004098 0.007409 0.000000 0.000000 0.000000
# 4 0.000000 0.000000 0.000000 0.035942 0.000000 0.000000
# 5 0.000000 0.000000 0.000000 0.000000 0.080216 0.000000
# 6 0.000000 0.000000 0.000000 0.000000 0.000000 -0.097843
#
#
# Mechanical properties :
#
#
# Convention : Reuss Voigt Hill
#
# Bulk Modulus (GPa) = 21.83984 40.28387 31.06186
# Shear Modulus (GPa) = 45.41635 19.54411 32.48023
#
# Velocity S-wave (km/s) = 4.64913 3.04981 3.93165
# Velocity P-wave (km/s) = 6.26204 5.61904 5.94923
#
# Compressibility (1/GPa) = 0.04578789
#
# Stress axis : x y z
#
# Youngs Moduli (GPa) = 27.02329 59.74609 134.97541
#
# Poissons Ratio (x) = 0.14591 0.15405
# Poissons Ratio (y) = 0.06599 0.55318
# Poissons Ratio (z) = 0.03084 0.24486
#
# Static dielectric constant tensor:
#      x y z
#    x 1.757920 0.000000 0.000000 
#    y 0.000000 1.718490 0.000000 
#    z 0.000000 0.000000 1.827200 
# 
# From -- ./inp_files/29072.got.cif
#   From: 2010.05.17/outbox.cif.g08.bks.cpg/sg65_15_cif.got.tgz:29072.got - 2010.06.03 17:01:31.
