data_PCOD9486631
_publ_section_title
;
Structure prediction by ZEFSAII (Michael W. Deem and Ramdas Pophale) SiO2 
 PCOD9486631
Probable space group: C M M M
;
_chemical_formula_sum "Si O2"
_cell_formula_units_Z 72
_cell_length_a 7.594613
_cell_length_b 24.085424
_cell_length_c 21.932025
_cell_angle_alpha 90.000000
_cell_angle_beta 90.000000
_cell_angle_gamma 90.000000
_cell_volume 4011.794482
_symmetry_space_group_name_H-M "C M M M"
_symmetry_group_IT_number 65
_symmetry_cell_setting 'orthorhombic'
loop_
_space_group_symop_operation_xyz
x,y,z
-x,-y,z
x,-y,-z
-x,y,-z
-x,-y,-z
x,y,-z
-x,y,z
x,-y,z
1/2+x,1/2+y,z
1/2-x,1/2-y,z
1/2+x,1/2-y,-z
1/2-x,1/2+y,-z
1/2-x,1/2-y,-z
1/2+x,1/2+y,-z
1/2-x,1/2+y,z
1/2+x,1/2-y,z
loop_
_atom_site_type_symbol
_atom_site_label
_atom_site_fract_x
_atom_site_fract_y
_atom_site_fract_z
Si Si1 0.288228 0.683861 0.000000
Si Si2 0.291916 0.184952 0.500000
Si Si3 0.716286 0.500000 0.429014
Si Si4 0.788751 0.184103 0.131189
Si Si5 0.292994 0.616902 0.620279
Si Si6 0.212295 0.184486 0.735559
O O1 0.250000 0.750000 0.000000
O O2 0.221798 0.662142 0.934345
O O3 0.500000 0.677389 0.000000
O O4 0.500000 0.177736 0.500000
O O5 0.250000 0.250000 0.500000
O O6 0.221831 0.155345 0.439375
O O7 0.500000 0.500000 0.429053
O O8 0.768748 0.500000 0.500000
O O9 0.778301 0.556248 0.396587
O O10 0.750000 0.250000 0.130955
O O11 0.722554 0.165175 0.197494
O O12 0.000000 0.176770 0.130972
O O13 0.500000 0.608807 0.632455
O O14 0.218402 0.648649 0.679057
O O15 0.250000 0.250000 0.727417
O O16 0.000000 0.180105 0.736342
#
# Coordination Sequence:
#
# PCOD9486631 Si02
#       6
#     8   8   8  16  16  16
#     4   8  12  18  30  46  70 101 133 161 189 226
#     4  12  24  35  48  67  89 112 138 170 205 250
#     4   9  16  30  52  68  80 103 137 175 216 257
#     4   8  13  21  32  50  74 103 133 162 193 231
#     4  10  19  33  50  66  84 109 140 175 213 254
#     4   9  17  27  41  60  84 109 136 167 203 246
#
# _framework density 17.94708
#
# number of rings (size 3 to 8) (size 9 to 14) (size 15 to 20)
#    0.000    2.778    1.111    1.667    0.000    2.667 
#    0.000    1.111    0.000    0.000    0.000    0.000 
#    0.000    0.889    0.000   12.444    0.000    1.111 
#
# Total GULP energy -200454.692781 kJ/mol
# GULP energy per Si atom -5568.185911 kJ/mol
# Density = 1.790623 g / cm^3
# Si number density = 17.947080 Si / 1000 Ang^3
#
#
#
# Elastic Constant Matrix: (Units=GPa)
#
#
# Indices 1 2 3 4 5 6 
#
# 1 42.4242 -1.9352 1.0739 0.0000 0.0000 0.0000
# 2 -1.9352 97.0178 77.4113 0.0000 0.0000 0.0000
# 3 1.0739 77.4113 228.3256 0.0000 0.0000 0.0000
# 4 0.0000 0.0000 0.0000 1.9197 0.0000 0.0000
# 5 0.0000 0.0000 0.0000 0.0000 -37.0290 0.0000
# 6 0.0000 0.0000 0.0000 0.0000 0.0000 6.6350
#
#
#
# Elastic Compliance Matrix: (Units=1/GPa)
#
#
# Indices 1 2 3 4 5 6 
#
# 1 0.023616 0.000767 -0.000371 0.000000 0.000000 0.000000
# 2 0.000767 0.014155 -0.004803 0.000000 0.000000 0.000000
# 3 -0.000371 -0.004803 0.006010 0.000000 0.000000 0.000000
# 4 0.000000 0.000000 0.000000 0.520926 0.000000 0.000000
# 5 0.000000 0.000000 0.000000 0.000000 -0.027006 0.000000
# 6 0.000000 0.000000 0.000000 0.000000 0.000000 0.150717
#
#
# Mechanical properties :
#
#
# Convention : Reuss Voigt Hill
#
# Bulk Modulus (GPa) = 28.59827 57.87420 43.23624
# Shear Modulus (GPa) = 7.05332 13.71964 10.38648
#
# Velocity S-wave (km/s) = 1.98459 2.76787 2.40829
# Velocity P-wave (km/s) = 4.60661 6.52165 5.64592
#
# Compressibility (1/GPa) = 0.03496715
#
# Stress axis : x y z
#
# Youngs Moduli (GPa) = 42.34446 70.64776 166.39686
#
# Poissons Ratio (x) = -0.05420 0.06177
# Poissons Ratio (y) = -0.03249 0.79914
# Poissons Ratio (z) = 0.01572 0.33929
#
# Static dielectric constant tensor:
#      x y z
#    x 1.685390 0.000000 0.000000 
#    y 0.000000 1.568690 0.000000 
#    z 0.000000 0.000000 1.627470 
# 
# From -- ./inp_files/65033.got.cif
#   From: 2010.05.17/outbox.cif.g08.bks.cpg/sg65_33_cif.got.tgz:65033.got - 2010.06.03 17:01:31.
