data_PCOD9486600
_publ_section_title
;
Structure prediction by ZEFSAII (Michael W. Deem and Ramdas Pophale) SiO2 
 PCOD9486600
Probable space group: C M M M
;
_chemical_formula_sum "Si O2"
_cell_formula_units_Z 68
_cell_length_a 16.816023
_cell_length_b 22.303654
_cell_length_c 9.747935
_cell_angle_alpha 90.000000
_cell_angle_beta 90.000000
_cell_angle_gamma 90.000000
_cell_volume 3656.048400
_symmetry_space_group_name_H-M "C M M M"
_symmetry_group_IT_number 65
_symmetry_cell_setting 'orthorhombic'
loop_
_space_group_symop_operation_xyz
x,y,z
-x,-y,z
x,-y,-z
-x,y,-z
-x,-y,-z
x,y,-z
-x,y,z
x,-y,z
1/2+x,1/2+y,z
1/2-x,1/2-y,z
1/2+x,1/2-y,-z
1/2-x,1/2+y,-z
1/2-x,1/2-y,-z
1/2+x,1/2+y,-z
1/2-x,1/2+y,z
1/2+x,1/2-y,z
loop_
_atom_site_type_symbol
_atom_site_label
_atom_site_fract_x
_atom_site_fract_y
_atom_site_fract_z
Si Si1 0.000000 0.500000 0.244468
Si Si2 0.406978 0.662642 0.841634
Si Si3 0.131057 0.592338 0.338966
Si Si4 0.683564 0.568399 0.342894
Si Si5 0.156381 0.733045 0.660610
O O1 0.930317 0.447242 0.254035
O O2 0.500000 0.647798 0.836957
O O3 0.357722 0.611899 0.763491
O O4 0.391527 0.723965 0.760518
O O5 0.382320 0.668083 0.000000
O O6 0.108046 0.584039 0.500000
O O7 0.221475 0.570136 0.324435
O O8 0.136506 0.663497 0.311088
O O9 0.668204 0.588863 0.500000
O O10 0.655987 0.500000 0.329187
O O11 0.137697 0.744055 0.500000
O O12 0.250000 0.750000 0.677694
#
# Coordination Sequence:
#
# PCOD9486600 Si02
#       5
#     4  16  16  16  16
#     4  12  21  32  56  96 139 166 195 242 317 392
#     4  11  25  42  59  85 122 162 206 257 313 372
#     4  10  19  32  54  90 129 161 193 242 304 369
#     4  10  20  38  63  89 120 157 200 252 307 365
#     4  10  20  37  62  90 121 158 205 259 309 361
#
# _framework density 18.599315000000001
#
# number of rings (size 3 to 8) (size 9 to 14) (size 15 to 20)
#    0.000    1.647    3.529    1.765    1.647    3.294 
#    0.000    2.353    0.000    0.000    0.000    3.294 
#    0.000    0.000    0.000    0.000    0.000    0.000 
#
# Total GULP energy -189314.912056 kJ/mol
# GULP energy per Si atom -5568.085649 kJ/mol
# Density = 1.855698 g / cm^3
# Si number density = 18.599315 Si / 1000 Ang^3
#
#
#
# Elastic Constant Matrix: (Units=GPa)
#
#
# Indices 1 2 3 4 5 6 
#
# 1 60.3070 41.0972 46.9689 0.0000 0.0000 0.0000
# 2 41.0972 131.6842 59.7456 0.0000 0.0000 0.0000
# 3 46.9689 59.7456 79.2799 0.0000 0.0000 0.0000
# 4 0.0000 0.0000 0.0000 -16.4329 0.0000 0.0000
# 5 0.0000 0.0000 0.0000 0.0000 17.6877 0.0000
# 6 0.0000 0.0000 0.0000 0.0000 0.0000 -23.5449
#
#
#
# Elastic Compliance Matrix: (Units=1/GPa)
#
#
# Indices 1 2 3 4 5 6 
#
# 1 0.031147 -0.002049 -0.016909 0.000000 0.000000 0.000000
# 2 -0.002049 0.011674 -0.007584 0.000000 0.000000 0.000000
# 3 -0.016909 -0.007584 0.028346 0.000000 0.000000 0.000000
# 4 0.000000 0.000000 0.000000 -0.060854 0.000000 0.000000
# 5 0.000000 0.000000 0.000000 0.000000 0.056536 0.000000
# 6 0.000000 0.000000 0.000000 0.000000 0.000000 -0.042472
#
#
# Mechanical properties :
#
#
# Convention : Reuss Voigt Hill
#
# Bulk Modulus (GPa) = 55.29636 62.98828 59.14232
# Shear Modulus (GPa) = 59.88772 3.77262 31.83017
#
# Velocity S-wave (km/s) = 5.68056 1.42575 4.14135
# Velocity P-wave (km/s) = 8.53346 6.05391 7.39830
#
# Compressibility (1/GPa) = 0.01808437
#
# Stress axis : x y z
#
# Youngs Moduli (GPa) = 32.10549 85.65899 35.27824
#
# Poissons Ratio (x) = 0.17553 0.59651
# Poissons Ratio (y) = 0.06579 0.26754
# Poissons Ratio (z) = 0.54286 0.64961
#
# Static dielectric constant tensor:
#      x y z
#    x 1.633700 0.000000 0.000000 
#    y 0.000000 1.664720 0.000000 
#    z 0.000000 0.000000 1.629600 
# 
# From -- ./inp_files/8924.got.cif
#   From: 2010.05.17/outbox.cif.g08.bks.cpg/sg65_5_cif.got.tgz:8924.got - 2010.06.03 17:01:31.
