data_PCOD9486908
_publ_section_title
;
Structure prediction by ZEFSAII (Michael W. Deem and Ramdas Pophale) SiO2 
 PCOD9486908
Probable space group: C M M M
;
_chemical_formula_sum "Si O2"
_cell_formula_units_Z 88
_cell_length_a 15.991079
_cell_length_b 8.895908
_cell_length_c 30.070226
_cell_angle_alpha 90.000000
_cell_angle_beta 90.000000
_cell_angle_gamma 90.000000
_cell_volume 4277.645040
_symmetry_space_group_name_H-M "C M M M"
_symmetry_group_IT_number 65
_symmetry_cell_setting 'orthorhombic'
loop_
_space_group_symop_operation_xyz
x,y,z
-x,-y,z
x,-y,-z
-x,y,-z
-x,-y,-z
x,y,-z
-x,y,z
x,-y,z
1/2+x,1/2+y,z
1/2-x,1/2-y,z
1/2+x,1/2-y,-z
1/2-x,1/2+y,-z
1/2-x,1/2-y,-z
1/2+x,1/2+y,-z
1/2-x,1/2+y,z
1/2+x,1/2-y,z
loop_
_atom_site_type_symbol
_atom_site_label
_atom_site_fract_x
_atom_site_fract_y
_atom_site_fract_z
Si Si1 0.657414 0.178791 0.637415
Si Si2 0.599875 0.331346 0.726043
Si Si3 0.656258 0.319846 0.451178
Si Si4 0.599661 0.831049 0.185863
Si Si5 0.843150 0.819155 0.000000
Si Si6 0.157191 0.180453 0.903607
O O1 0.750000 0.250000 0.639390
O O2 0.615632 0.230204 0.683070
O O3 0.616264 0.247694 0.592720
O O4 0.661295 0.000000 0.633761
O O5 0.500000 0.343544 0.731132
O O6 0.633936 0.500000 0.719197
O O7 0.633742 0.257962 0.771388
O O8 0.618078 0.289012 0.500000
O O9 0.661680 0.500000 0.445918
O O10 0.750000 0.250000 0.452781
O O11 0.500000 0.842481 0.192154
O O12 0.613796 0.746531 0.139687
O O13 0.634724 0.000000 0.183724
O O14 0.750000 0.750000 0.000000
O O15 0.881754 0.778479 0.047940
O O16 0.835648 0.000000 0.000000
O O17 0.250000 0.250000 0.903510
O O18 0.160419 0.000000 0.900532
#
# Coordination Sequence:
#
# PCOD9486908 Si02
#       6
#    16  16  16  16   8  16
#     4  11  21  33  52  78 108 137 170 213 256 300
#     4  10  21  38  58  77 100 133 171 210 257 312
#     4   9  16  27  45  70 101 135 170 208 252 301
#     4  10  21  37  55  76 103 134 170 211 255 304
#     4   8  16  30  49  74 103 135 169 207 249 298
#     4  10  19  33  54  79 106 136 172 211 254 301
#
# _framework density 20.572068000000002
#
# number of rings (size 3 to 8) (size 9 to 14) (size 15 to 20)
#    0.000    2.182    0.000    4.909    0.000    4.727 
#    0.000    4.091    0.000    3.273    0.000    3.818 
#    0.000    0.000    0.000    0.000    0.000    0.000 
#
# Total GULP energy -245391.649794 kJ/mol
# GULP energy per Si atom -5577.082950 kJ/mol
# Density = 2.052525 g / cm^3
# Si number density = 20.572068 Si / 1000 Ang^3
#
#
#
# Elastic Constant Matrix: (Units=GPa)
#
#
# Indices 1 2 3 4 5 6 
#
# 1 7.9411 7.0260 7.9394 0.0000 0.0000 0.0000
# 2 7.0260 146.9323 86.0638 0.0000 0.0000 0.0000
# 3 7.9394 86.0638 213.7849 0.0000 0.0000 0.0000
# 4 0.0000 0.0000 0.0000 -118.6034 0.0000 0.0000
# 5 0.0000 0.0000 0.0000 0.0000 9.3407 0.0000
# 6 0.0000 0.0000 0.0000 0.0000 0.0000 17.3821
#
#
#
# Elastic Compliance Matrix: (Units=1/GPa)
#
#
# Indices 1 2 3 4 5 6 
#
# 1 0.133056 -0.004538 -0.003114 0.000000 0.000000 0.000000
# 2 -0.004538 0.009061 -0.003479 0.000000 0.000000 0.000000
# 3 -0.003114 -0.003479 0.006194 0.000000 0.000000 0.000000
# 4 0.000000 0.000000 0.000000 -0.008431 0.000000 0.000000
# 5 0.000000 0.000000 0.000000 0.000000 0.107058 0.000000
# 6 0.000000 0.000000 0.000000 0.000000 0.000000 0.057530
#
#
# Mechanical properties :
#
#
# Convention : Reuss Voigt Hill
#
# Bulk Modulus (GPa) = 7.93354 63.41297 35.67326
# Shear Modulus (GPa) = 13.55945 -0.53418 6.51264
#
# Velocity S-wave (km/s) = 2.57012 -0.51012 1.78119
# Velocity P-wave (km/s) = 3.55980 5.52673 4.64849
#
# Compressibility (1/GPa) = 0.12604710
#
# Stress axis : x y z
#
# Youngs Moduli (GPa) = 7.51564 110.36712 161.45131
#
# Poissons Ratio (x) = 0.50088 0.50282
# Poissons Ratio (y) = 0.03411 0.56169
# Poissons Ratio (z) = 0.02341 0.38397
#
# Static dielectric constant tensor:
#      x y z
#    x 1.731980 0.000000 0.000000 
#    y 0.000000 1.711470 0.000000 
#    z 0.000000 0.000000 1.790300 
# 
# From -- ./inp_files/77825.got.cif
#   From: 2010.05.17/outbox.cif.g08.bks.cpg/sg65_39_cif.got.tgz:77825.got - 2010.06.03 17:01:31.
