data_PCOD9486562
_publ_section_title
;
Structure prediction by ZEFSAII (Michael W. Deem and Ramdas Pophale) SiO2 
 PCOD9486562
Probable space group: C M M M
;
_chemical_formula_sum "Si O2"
_cell_formula_units_Z 66
_cell_length_a 9.663997
_cell_length_b 24.801846
_cell_length_c 15.307232
_cell_angle_alpha 90.000000
_cell_angle_beta 90.000000
_cell_angle_gamma 90.000000
_cell_volume 3668.913371
_symmetry_space_group_name_H-M "C M M M"
_symmetry_group_IT_number 65
_symmetry_cell_setting 'orthorhombic'
loop_
_space_group_symop_operation_xyz
x,y,z
-x,-y,z
x,-y,-z
-x,y,-z
-x,-y,-z
x,y,-z
-x,y,z
x,-y,z
1/2+x,1/2+y,z
1/2-x,1/2-y,z
1/2+x,1/2-y,-z
1/2-x,1/2+y,-z
1/2-x,1/2-y,-z
1/2+x,1/2+y,-z
1/2-x,1/2+y,z
1/2+x,1/2-y,z
loop_
_atom_site_type_symbol
_atom_site_label
_atom_site_fract_x
_atom_site_fract_y
_atom_site_fract_z
Si Si1 0.341149 0.500000 0.650182
Si Si2 0.834063 0.305845 0.000000
Si Si3 0.737439 0.500000 0.147234
Si Si4 0.163855 0.196082 0.500000
Si Si5 0.500000 0.500000 0.000000
Si Si6 0.160543 0.381164 0.833983
Si Si7 0.167053 0.117039 0.340836
O O1 0.500000 0.500000 0.620641
O O2 0.329207 0.500000 0.755678
O O3 0.282847 0.558164 0.625021
O O4 0.750000 0.250000 0.000000
O O5 0.802300 0.342239 0.914712
O O6 0.000000 0.295474 0.000000
O O7 0.820987 0.444065 0.140118
O O8 0.619694 0.500000 0.075668
O O9 0.250000 0.250000 0.500000
O O10 0.194475 0.161054 0.414047
O O11 0.000000 0.207392 0.500000
O O12 0.257477 0.371318 0.750318
O O13 0.000000 0.371796 0.811622
O O14 0.000000 0.113667 0.327142
#
# Coordination Sequence:
#
# PCOD9486562 Si02
#       7
#     8   8   8   8   2  16  16
#     4   8  14  30  51  78 113 136 170 222 272 331
#     4  10  23  41  54  75 105 145 191 235 276 330
#     4  10  19  32  53  86 117 143 184 227 284 336
#     4  10  22  39  57  83 115 150 193 243 287 341
#     4  12  20  28  50  88 120 150 194 236 272 326
#     4  10  21  38  59  82 116 150 186 231 291 347
#     4   9  19  35  58  85 113 145 186 231 287 343
#
# _framework density 17.988976999999998
#
# number of rings (size 3 to 8) (size 9 to 14) (size 15 to 20)
#    0.000    2.424    0.606    1.091    1.697    3.394 
#    2.182    9.697    0.000    0.000    0.000    5.939 
#    0.000    0.000    0.000    0.000    0.000    0.000 
#
# Total GULP energy -183710.718697 kJ/mol
# GULP energy per Si atom -5566.991476 kJ/mol
# Density = 1.794803 g / cm^3
# Si number density = 17.988977 Si / 1000 Ang^3
#
#
#
# Elastic Constant Matrix: (Units=GPa)
#
#
# Indices 1 2 3 4 5 6 
#
# 1 55.8350 59.1678 59.1812 0.0000 0.0000 0.0000
# 2 59.1678 173.1092 94.7994 0.0000 0.0000 0.0000
# 3 59.1812 94.7994 111.7027 0.0000 0.0000 0.0000
# 4 0.0000 0.0000 0.0000 23.7679 0.0000 0.0000
# 5 0.0000 0.0000 0.0000 0.0000 26.4535 0.0000
# 6 0.0000 0.0000 0.0000 0.0000 0.0000 12.4362
#
#
#
# Elastic Compliance Matrix: (Units=1/GPa)
#
#
# Indices 1 2 3 4 5 6 
#
# 1 0.042342 -0.004086 -0.018965 0.000000 0.000000 0.000000
# 2 -0.004086 0.011187 -0.007329 0.000000 0.000000 0.000000
# 3 -0.018965 -0.007329 0.025220 0.000000 0.000000 0.000000
# 4 0.000000 0.000000 0.000000 0.042073 0.000000 0.000000
# 5 0.000000 0.000000 0.000000 0.000000 0.037802 0.000000
# 6 0.000000 0.000000 0.000000 0.000000 0.000000 0.080410
#
#
# Mechanical properties :
#
#
# Convention : Reuss Voigt Hill
#
# Bulk Modulus (GPa) = 55.59289 85.21599 70.40444
# Shear Modulus (GPa) = 16.35095 21.03144 18.69119
#
# Velocity S-wave (km/s) = 3.01814 3.42296 3.22690
# Velocity P-wave (km/s) = 6.56632 7.94332 7.28741
#
# Compressibility (1/GPa) = 0.01798791
#
# Stress axis : x y z
#
# Youngs Moduli (GPa) = 23.61721 89.38888 39.65053
#
# Poissons Ratio (x) = 0.36528 0.75198
# Poissons Ratio (y) = 0.09651 0.29061
# Poissons Ratio (z) = 0.44790 0.65515
#
# Static dielectric constant tensor:
#      x y z
#    x 1.601420 0.000000 0.000000 
#    y 0.000000 1.632460 0.000000 
#    z 0.000000 0.000000 1.596220 
# 
# From -- ./inp_files/36134.got.cif
#   From: 2010.05.17/outbox.cif.g08.bks.cpg/sg65_19_cif.got.tgz:36134.got - 2010.06.03 17:01:31.
