data_PCOD9486386
_publ_section_title
;
Structure prediction by ZEFSAII (Michael W. Deem and Ramdas Pophale) SiO2 
 PCOD9486386
Probable space group: C M M M
;
_chemical_formula_sum "Si O2"
_cell_formula_units_Z 120
_cell_length_a 18.672339
_cell_length_b 20.799347
_cell_length_c 19.019972
_cell_angle_alpha 90.000000
_cell_angle_beta 90.000000
_cell_angle_gamma 90.000000
_cell_volume 7386.833280
_symmetry_space_group_name_H-M "C M M M"
_symmetry_group_IT_number 65
_symmetry_cell_setting 'orthorhombic'
loop_
_space_group_symop_operation_xyz
x,y,z
-x,-y,z
x,-y,-z
-x,y,-z
-x,-y,-z
x,y,-z
-x,y,z
x,-y,z
1/2+x,1/2+y,z
1/2-x,1/2-y,z
1/2+x,1/2-y,-z
1/2-x,1/2+y,-z
1/2-x,1/2-y,-z
1/2+x,1/2+y,-z
1/2-x,1/2+y,z
1/2+x,1/2-y,z
loop_
_atom_site_type_symbol
_atom_site_label
_atom_site_fract_x
_atom_site_fract_y
_atom_site_fract_z
Si Si1 0.916901 0.123658 0.306021
Si Si2 0.203793 0.315235 0.417741
Si Si3 0.852126 0.873633 0.845519
Si Si4 0.781510 0.322586 0.079871
Si Si5 0.081792 0.724528 0.314702
Si Si6 0.684393 0.427418 0.581638
Si Si7 0.083995 0.732118 0.148337
Si Si8 0.916558 0.000000 0.083967
O O1 0.868835 0.115720 0.236502
O O2 0.913713 0.198699 0.327674
O O3 0.883318 0.083135 0.368559
O O4 0.000000 0.108580 0.290143
O O5 0.181823 0.319742 0.500000
O O6 0.250000 0.250000 0.410177
O O7 0.137848 0.310322 0.364638
O O8 0.255334 0.374965 0.400954
O O9 0.769906 0.861346 0.867433
O O10 0.894063 0.806994 0.863977
O O11 0.881166 0.935319 0.886357
O O12 0.750000 0.250000 0.079873
O O13 0.862852 0.313178 0.104814
O O14 0.776402 0.347398 0.000000
O O15 0.096317 0.718197 0.231271
O O16 0.000000 0.704165 0.327828
O O17 0.664623 0.417329 0.500000
O O18 0.711556 0.500000 0.589408
O O19 0.000000 0.724208 0.133174
O O20 0.000000 0.000000 0.104461
O O21 0.911469 0.000000 0.000000
#
# Coordination Sequence:
#
# PCOD9486386 Si02
#       8
#    16  16  16  16  16  16  16   8
#     4  10  20  33  51  74 101 137 175 209 252 308
#     4  10  19  32  52  75 101 135 176 216 255 302
#     4  10  20  34  49  70 104 135 170 214 249 298
#     4   9  18  31  49  72  96 129 168 204 249 304
#     4   9  18  31  50  76 104 131 167 213 261 306
#     4  10  22  37  51  73 106 141 174 212 258 306
#     4   9  18  32  50  75 105 133 162 208 263 308
#     4  11  22  34  50  70  98 140 178 210 251 298
#
# _framework density 16.245121000000001
#
# number of rings (size 3 to 8) (size 9 to 14) (size 15 to 20)
#    0.000    2.333    1.333    2.400    2.800    2.133 
#    0.000    2.000    0.000    0.400    0.000    2.333 
#    0.000    1.600    0.000    0.000    0.000    0.000 
#
# Total GULP energy -334500.769400 kJ/mol
# GULP energy per Si atom -5575.012823 kJ/mol
# Density = 1.620815 g / cm^3
# Si number density = 16.245121 Si / 1000 Ang^3
#
#
#
# Elastic Constant Matrix: (Units=GPa)
#
#
# Indices 1 2 3 4 5 6 
#
# 1 105.2555 37.6717 61.2829 0.0000 0.0000 0.0000
# 2 37.6717 58.0491 38.8794 0.0000 0.0000 0.0000
# 3 61.2829 38.8794 64.9402 0.0000 0.0000 0.0000
# 4 0.0000 0.0000 0.0000 17.3874 0.0000 0.0000
# 5 0.0000 0.0000 0.0000 0.0000 30.0770 0.0000
# 6 0.0000 0.0000 0.0000 0.0000 0.0000 18.0866
#
#
#
# Elastic Compliance Matrix: (Units=1/GPa)
#
#
# Indices 1 2 3 4 5 6 
#
# 1 0.021099 -0.000596 -0.019554 0.000000 0.000000 0.000000
# 2 -0.000596 0.028775 -0.016665 0.000000 0.000000 0.000000
# 3 -0.019554 -0.016665 0.043829 0.000000 0.000000 0.000000
# 4 0.000000 0.000000 0.000000 0.057513 0.000000 0.000000
# 5 0.000000 0.000000 0.000000 0.000000 0.033248 0.000000
# 6 0.000000 0.000000 0.000000 0.000000 0.000000 0.055290
#
#
# Mechanical properties :
#
#
# Convention : Reuss Voigt Hill
#
# Bulk Modulus (GPa) = 49.81835 55.99033 52.90434
# Shear Modulus (GPa) = 15.62138 19.13759 17.37948
#
# Velocity S-wave (km/s) = 3.10434 3.43600 3.27437
# Velocity P-wave (km/s) = 6.60170 7.09099 6.85072
#
# Compressibility (1/GPa) = 0.02007293
#
# Stress axis : x y z
#
# Youngs Moduli (GPa) = 47.39623 34.75192 22.81606
#
# Poissons Ratio (x) = 0.02071 0.44614
# Poissons Ratio (y) = 0.02824 0.38024
# Poissons Ratio (z) = 0.92677 0.57915
#
# Static dielectric constant tensor:
#      x y z
#    x 1.535870 0.000000 0.000000 
#    y 0.000000 1.528260 0.000000 
#    z 0.000000 0.000000 1.555750 
# 
# From -- ./inp_files/54983.got.cif
#   From: 2010.05.17/outbox.cif.g08.bks.cpg/sg65_28_cif.got.tgz:54983.got - 2010.06.03 17:01:31.
