data_PCOD9486619
_publ_section_title
;
Structure prediction by ZEFSAII (Michael W. Deem and Ramdas Pophale) SiO2 
 PCOD9486619
Probable space group: C M M M
;
_chemical_formula_sum "Si O2"
_cell_formula_units_Z 68
_cell_length_a 22.889090
_cell_length_b 7.421671
_cell_length_c 17.198919
_cell_angle_alpha 90.000000
_cell_angle_beta 90.000000
_cell_angle_gamma 90.000000
_cell_volume 2921.671447
_symmetry_space_group_name_H-M "C M M M"
_symmetry_group_IT_number 65
_symmetry_cell_setting 'orthorhombic'
loop_
_space_group_symop_operation_xyz
x,y,z
-x,-y,z
x,-y,-z
-x,y,-z
-x,-y,-z
x,y,-z
-x,y,z
x,-y,z
1/2+x,1/2+y,z
1/2-x,1/2-y,z
1/2+x,1/2-y,-z
1/2-x,1/2+y,-z
1/2-x,1/2-y,-z
1/2+x,1/2+y,-z
1/2-x,1/2+y,z
1/2+x,1/2-y,z
loop_
_atom_site_type_symbol
_atom_site_label
_atom_site_fract_x
_atom_site_fract_y
_atom_site_fract_z
Si Si1 0.395785 0.208301 0.913168
Si Si2 0.000000 0.280293 0.804807
Si Si3 0.677571 0.000000 0.500000
Si Si4 0.183070 0.211496 0.781488
Si Si5 0.500000 0.293939 0.376775
Si Si6 0.630143 0.279379 0.380833
O O1 0.444421 0.283428 0.854724
O O2 0.336369 0.211958 0.864239
O O3 0.412670 0.000000 0.921891
O O4 0.393078 0.285897 0.000000
O O5 0.000000 0.210963 0.717112
O O6 0.000000 0.500000 0.798058
O O7 0.672506 0.160446 0.433044
O O8 0.250000 0.250000 0.762866
O O9 0.143120 0.268561 0.708926
O O10 0.175442 0.000000 0.788517
O O11 0.500000 0.500000 0.403003
O O12 0.563369 0.222444 0.401580
O O13 0.635908 0.500000 0.389816
#
# Coordination Sequence:
#
# PCOD9486619 Si02
#       6
#    16   8   4  16   8  16
#     4  10  21  37  60  95 133 168 214 267 316 375
#     4  10  19  32  60  93 129 170 215 255 313 388
#     4  12  26  41  76  94 136 168 208 267 340 384
#     4  11  24  42  67  89 123 169 217 269 323 386
#     4  10  20  37  62  91 131 166 208 262 316 390
#     4  10  24  43  65  99 132 167 214 265 324 399
#
# _framework density 23.274349000000001
#
# number of rings (size 3 to 8) (size 9 to 14) (size 15 to 20)
#    0.000    1.647    2.353    1.412    4.941    3.294 
#    0.000    2.353    0.000    2.118    0.000    0.000 
#    0.000    0.000    0.000    0.000    0.000    0.000 
#
# Total GULP energy -189381.367133 kJ/mol
# GULP energy per Si atom -5570.040210 kJ/mol
# Density = 2.322138 g / cm^3
# Si number density = 23.274349 Si / 1000 Ang^3
#
#
#
# Elastic Constant Matrix: (Units=GPa)
#
#
# Indices 1 2 3 4 5 6 
#
# 1 62.5907 -7.8433 -5.7822 0.0000 0.0000 0.0000
# 2 -7.8433 93.0227 14.7175 0.0000 0.0000 0.0000
# 3 -5.7822 14.7175 131.7050 0.0000 0.0000 0.0000
# 4 0.0000 0.0000 0.0000 1.9923 0.0000 0.0000
# 5 0.0000 0.0000 0.0000 0.0000 115.9670 0.0000
# 6 0.0000 0.0000 0.0000 0.0000 0.0000 -37.4091
#
#
#
# Elastic Compliance Matrix: (Units=1/GPa)
#
#
# Indices 1 2 3 4 5 6 
#
# 1 0.016189 0.001275 0.000568 0.000000 0.000000 0.000000
# 2 0.001275 0.011044 -0.001178 0.000000 0.000000 0.000000
# 3 0.000568 -0.001178 0.007749 0.000000 0.000000 0.000000
# 4 0.000000 0.000000 0.000000 0.501932 0.000000 0.000000
# 5 0.000000 0.000000 0.000000 0.000000 0.008623 0.000000
# 6 0.000000 0.000000 0.000000 0.000000 0.000000 -0.026731
#
#
# Mechanical properties :
#
#
# Convention : Reuss Voigt Hill
#
# Bulk Modulus (GPa) = 27.53847 32.16692 29.85270
# Shear Modulus (GPa) = 9.44144 35.19179 22.31661
#
# Velocity S-wave (km/s) = 2.01628 3.89272 3.09989
# Velocity P-wave (km/s) = 4.15672 5.83567 5.06623
#
# Compressibility (1/GPa) = 0.03631283
#
# Stress axis : x y z
#
# Youngs Moduli (GPa) = 61.76999 90.54707 129.04343
#
# Poissons Ratio (x) = -0.11546 -0.07333
# Poissons Ratio (y) = -0.07876 0.15203
# Poissons Ratio (z) = -0.03510 0.10668
#
# Static dielectric constant tensor:
#      x y z
#    x 1.830820 0.000000 0.000000 
#    y 0.000000 1.894470 0.000000 
#    z 0.000000 0.000000 1.865180 
# 
# From -- ./inp_files/55426.got.cif
#   From: 2010.05.17/outbox.cif.g08.bks.cpg/sg65_28_cif.got.tgz:55426.got - 2010.06.03 17:01:31.
