data_PCOD9486156
_publ_section_title
;
Structure prediction by ZEFSAII (Michael W. Deem and Ramdas Pophale) SiO2 
 PCOD9486156
Probable space group: C M M M
;
_chemical_formula_sum "Si O2"
_cell_formula_units_Z 116
_cell_length_a 33.009772
_cell_length_b 7.762685
_cell_length_c 22.439243
_cell_angle_alpha 90.000000
_cell_angle_beta 90.000000
_cell_angle_gamma 90.000000
_cell_volume 5749.931749
_symmetry_space_group_name_H-M "C M M M"
_symmetry_group_IT_number 65
_symmetry_cell_setting 'orthorhombic'
loop_
_space_group_symop_operation_xyz
x,y,z
-x,-y,z
x,-y,-z
-x,y,-z
-x,-y,-z
x,y,-z
-x,y,z
x,-y,z
1/2+x,1/2+y,z
1/2-x,1/2-y,z
1/2+x,1/2-y,-z
1/2-x,1/2+y,-z
1/2-x,1/2-y,-z
1/2+x,1/2+y,-z
1/2-x,1/2+y,z
1/2+x,1/2-y,z
loop_
_atom_site_type_symbol
_atom_site_label
_atom_site_fract_x
_atom_site_fract_y
_atom_site_fract_z
Si Si1 0.046417 0.791516 0.661259
Si Si2 0.000000 0.500000 0.161750
Si Si3 0.203840 0.205693 0.932000
Si Si4 0.206410 0.705642 0.725701
Si Si5 0.854401 0.701422 0.173796
Si Si6 0.114254 0.210184 0.566954
Si Si7 0.704437 0.695065 0.589754
Si Si8 0.058567 0.802755 0.198997
O O1 0.081929 0.729416 0.616681
O O2 0.056678 0.754524 0.730357
O O3 0.000000 0.731014 0.649142
O O4 0.045606 0.000000 0.655814
O O5 0.034350 0.653905 0.165838
O O6 0.250000 0.250000 0.915194
O O7 0.172227 0.279621 0.885239
O O8 0.199771 0.000000 0.931565
O O9 0.197578 0.267798 0.000000
O O10 0.203891 0.500000 0.716900
O O11 0.250000 0.750000 0.752687
O O12 0.171987 0.764330 0.770252
O O13 0.204364 0.792449 0.661425
O O14 0.862815 0.500000 0.183681
O O15 0.896220 0.799277 0.174336
O O16 0.099912 0.249356 0.500000
O O17 0.160896 0.276386 0.572487
O O18 0.116017 0.000000 0.572805
O O19 0.701706 0.500000 0.569448
O O20 0.750000 0.750000 0.571225
O O21 0.043616 0.000000 0.194403
#
# Coordination Sequence:
#
# PCOD9486156 Si02
#       8
#    16   4  16  16  16  16  16  16
#     4   9  17  31  53  80 108 141 178 219 280 350
#     4  12  22  40  60  90 122 152 194 242 298 366
#     4  10  21  37  57  83 119 166 213 254 296 341
#     4  10  20  32  49  75 109 145 182 228 281 340
#     4  11  22  35  54  86 120 154 198 243 292 349
#     4   9  18  31  48  74 103 132 174 227 278 337
#     4  10  19  32  50  70  95 134 178 223 278 336
#     4  11  22  38  61  89 121 155 192 241 298 357
#
# _framework density 20.174150999999998
#
# number of rings (size 3 to 8) (size 9 to 14) (size 15 to 20)
#    0.000    1.931    1.379    3.931    0.000    5.793 
#    0.000    1.379    0.000    1.241    0.000    1.448 
#    0.000    2.207    0.000    0.000    0.000    0.000 
#
# Total GULP energy -323123.795751 kJ/mol
# GULP energy per Si atom -5571.099927 kJ/mol
# Density = 2.012823 g / cm^3
# Si number density = 20.174151 Si / 1000 Ang^3
#
#
#
# Elastic Constant Matrix: (Units=GPa)
#
#
# Indices 1 2 3 4 5 6 
#
# 1 147.6576 16.6023 44.4587 0.0000 0.0000 0.0000
# 2 16.6023 63.0757 4.2880 0.0000 0.0000 0.0000
# 3 44.4587 4.2880 56.4512 0.0000 0.0000 0.0000
# 4 0.0000 0.0000 0.0000 -1.2094 0.0000 0.0000
# 5 0.0000 0.0000 0.0000 0.0000 17.1131 0.0000
# 6 0.0000 0.0000 0.0000 0.0000 0.0000 11.3908
#
#
#
# Elastic Compliance Matrix: (Units=1/GPa)
#
#
# Indices 1 2 3 4 5 6 
#
# 1 0.009103 -0.001919 -0.007023 0.000000 0.000000 0.000000
# 2 -0.001919 0.016341 0.000270 0.000000 0.000000 0.000000
# 3 -0.007023 0.000270 0.023225 0.000000 0.000000 0.000000
# 4 0.000000 0.000000 0.000000 -0.826836 0.000000 0.000000
# 5 0.000000 0.000000 0.000000 0.000000 0.058435 0.000000
# 6 0.000000 0.000000 0.000000 0.000000 0.000000 0.087790
#
#
# Mechanical properties :
#
#
# Convention : Reuss Voigt Hill
#
# Bulk Modulus (GPa) = 31.92396 44.20920 38.06658
# Shear Modulus (GPa) = -8.27599 18.91459 5.31930
#
# Velocity S-wave (km/s) = -2.02760 3.06529 1.62555
# Velocity P-wave (km/s) = 3.22133 5.87277 4.73637
#
# Compressibility (1/GPa) = 0.03132443
#
# Stress axis : x y z
#
# Youngs Moduli (GPa) = 109.85628 61.19725 43.05671
#
# Poissons Ratio (x) = 0.11741 0.30240
# Poissons Ratio (y) = 0.21076 -0.01161
# Poissons Ratio (z) = 0.77155 -0.01651
#
# Static dielectric constant tensor:
#      x y z
#    x 1.745110 0.000000 0.000000 
#    y 0.000000 1.743040 0.000000 
#    z 0.000000 0.000000 1.693040 
# 
# From -- ./inp_files/72243.got.cif
#   From: 2010.05.17/outbox.cif.g08.bks.cpg/sg65_37_cif.got.tgz:72243.got - 2010.06.03 17:01:31.
