data_PCOD9486558
_publ_section_title
;
Structure prediction by ZEFSAII (Michael W. Deem and Ramdas Pophale) SiO2 
 PCOD9486558
Probable space group: C M M M
;
_chemical_formula_sum "Si O2"
_cell_formula_units_Z 104
_cell_length_a 9.847561
_cell_length_b 31.688713
_cell_length_c 17.470035
_cell_angle_alpha 90.000000
_cell_angle_beta 90.000000
_cell_angle_gamma 90.000000
_cell_volume 5451.638576
_symmetry_space_group_name_H-M "C M M M"
_symmetry_group_IT_number 65
_symmetry_cell_setting 'orthorhombic'
loop_
_space_group_symop_operation_xyz
x,y,z
-x,-y,z
x,-y,-z
-x,y,-z
-x,-y,-z
x,y,-z
-x,y,z
x,-y,z
1/2+x,1/2+y,z
1/2-x,1/2-y,z
1/2+x,1/2-y,-z
1/2-x,1/2+y,-z
1/2-x,1/2-y,-z
1/2+x,1/2+y,-z
1/2-x,1/2+y,z
1/2+x,1/2-y,z
loop_
_atom_site_type_symbol
_atom_site_label
_atom_site_fract_x
_atom_site_fract_y
_atom_site_fract_z
Si Si1 0.000000 0.550602 0.407329
Si Si2 0.716752 0.575737 0.343232
Si Si3 0.855597 0.083033 0.500000
Si Si4 0.838081 0.954024 0.826115
Si Si5 0.835057 0.664641 0.500000
Si Si6 0.656856 0.674841 0.641825
Si Si7 0.165436 0.129169 0.912068
Si Si8 0.661517 0.290253 0.189575
O O1 0.126688 0.570834 0.364095
O O2 0.000000 0.500000 0.397106
O O3 0.000000 0.557298 0.500000
O O4 0.652166 0.557717 0.421534
O O5 0.682481 0.553972 0.264067
O O6 0.670490 0.624590 0.339857
O O7 0.735471 0.117800 0.500000
O O8 0.000000 0.106408 0.500000
O O9 0.784544 0.914140 0.873336
O O10 0.000000 0.955052 0.839251
O O11 0.781967 0.000000 0.847339
O O12 0.500000 0.836128 0.500000
O O13 0.767088 0.684565 0.576042
O O14 0.500000 0.682940 0.618212
O O15 0.682435 0.698756 0.721026
O O16 0.202757 0.169262 0.860725
O O17 0.000000 0.127888 0.911314
O O18 0.208665 0.132920 0.000000
O O19 0.500000 0.283082 0.178477
O O20 0.750000 0.250000 0.168382
#
# Coordination Sequence:
#
# PCOD9486558 Si02
#       8
#     8  16   8  16   8  16  16  16
#     4  11  24  38  48  72 115 157 197 251 302 344
#     4  11  19  33  54  73 106 149 202 236 289 339
#     4  10  20  30  48  74 107 149 196 245 298 342
#     4  10  19  32  53  83 116 149 191 237 280 341
#     4  10  20  30  51  83 117 146 196 243 283 336
#     4  10  20  35  57  81 115 155 194 242 296 345
#     4   9  18  35  59  86 117 151 183 227 293 354
#     4  10  21  39  61  89 121 155 193 238 292 353
#
# _framework density 19.076832
#
# number of rings (size 3 to 8) (size 9 to 14) (size 15 to 20)
#    0.000    1.923    2.308    3.462    4.308    1.231 
#    0.000    1.923    0.000    1.846    0.000    0.000 
#    0.000    1.846    0.000    0.000    0.000    0.000 
#
# Total GULP energy -289923.893045 kJ/mol
# GULP energy per Si atom -5575.459482 kJ/mol
# Density = 1.903341 g / cm^3
# Si number density = 19.076832 Si / 1000 Ang^3
#
#
#
# Elastic Constant Matrix: (Units=GPa)
#
#
# Indices 1 2 3 4 5 6 
#
# 1 86.0935 32.6021 35.3430 0.0000 0.0000 0.0000
# 2 32.6021 107.6284 62.7736 0.0000 0.0000 0.0000
# 3 35.3430 62.7736 121.9728 0.0000 0.0000 0.0000
# 4 0.0000 0.0000 0.0000 1.5889 0.0000 0.0000
# 5 0.0000 0.0000 0.0000 0.0000 2.2519 0.0000
# 6 0.0000 0.0000 0.0000 0.0000 0.0000 14.8093
#
#
#
# Elastic Compliance Matrix: (Units=1/GPa)
#
#
# Indices 1 2 3 4 5 6 
#
# 1 0.013681 -0.002618 -0.002617 0.000000 0.000000 0.000000
# 2 -0.002618 0.013777 -0.006332 0.000000 0.000000 0.000000
# 3 -0.002617 -0.006332 0.012216 0.000000 0.000000 0.000000
# 4 0.000000 0.000000 0.000000 0.629378 0.000000 0.000000
# 5 0.000000 0.000000 0.000000 0.000000 0.444066 0.000000
# 6 0.000000 0.000000 0.000000 0.000000 0.000000 0.067525
#
#
# Mechanical properties :
#
#
# Convention : Reuss Voigt Hill
#
# Bulk Modulus (GPa) = 60.45824 64.12579 62.29201
# Shear Modulus (GPa) = 4.13466 16.06175 10.09820
#
# Velocity S-wave (km/s) = 1.47380 2.90479 2.30324
# Velocity P-wave (km/s) = 5.88701 6.70357 6.30851
#
# Compressibility (1/GPa) = 0.01654034
#
# Stress axis : x y z
#
# Youngs Moduli (GPa) = 73.09463 72.58327 81.86263
#
# Poissons Ratio (x) = 0.19001 0.21423
# Poissons Ratio (y) = 0.19135 0.51835
# Poissons Ratio (z) = 0.19128 0.45959
#
# Static dielectric constant tensor:
#      x y z
#    x 1.752310 0.000000 0.000000 
#    y 0.000000 1.690460 0.000000 
#    z 0.000000 0.000000 1.682810 
# 
# From -- ./inp_files/51998.got.cif
#   From: 2010.05.17/outbox.cif.g08.bks.cpg/sg65_26_cif.got.tgz:51998.got - 2010.06.03 17:01:31.
