data_PCOD9486641
_publ_section_title
;
Structure prediction by ZEFSAII (Michael W. Deem and Ramdas Pophale) SiO2 
 PCOD9486641
Probable space group: C M M M
;
_chemical_formula_sum "Si O2"
_cell_formula_units_Z 104
_cell_length_a 24.134283
_cell_length_b 17.069976
_cell_length_c 13.462016
_cell_angle_alpha 90.000000
_cell_angle_beta 90.000000
_cell_angle_gamma 90.000000
_cell_volume 5545.968696
_symmetry_space_group_name_H-M "C M M M"
_symmetry_group_IT_number 65
_symmetry_cell_setting 'orthorhombic'
loop_
_space_group_symop_operation_xyz
x,y,z
-x,-y,z
x,-y,-z
-x,y,-z
-x,-y,-z
x,y,-z
-x,y,z
x,-y,z
1/2+x,1/2+y,z
1/2-x,1/2-y,z
1/2+x,1/2-y,-z
1/2-x,1/2+y,-z
1/2-x,1/2-y,-z
1/2+x,1/2+y,-z
1/2-x,1/2+y,z
1/2+x,1/2-y,z
loop_
_atom_site_type_symbol
_atom_site_label
_atom_site_fract_x
_atom_site_fract_y
_atom_site_fract_z
Si Si1 0.661900 0.407975 0.294042
Si Si2 0.169496 0.592901 0.800976
Si Si3 0.225778 0.836664 0.887922
Si Si4 0.564328 0.848717 0.743691
Si Si5 0.433940 0.000000 0.391153
Si Si6 0.267415 0.841016 0.611562
Si Si7 0.935351 0.190776 0.383676
O O1 0.658109 0.500000 0.274428
O O2 0.681564 0.362723 0.194437
O O3 0.711544 0.390556 0.371271
O O4 0.606016 0.372874 0.339014
O O5 0.161543 0.500000 0.793098
O O6 0.220264 0.608734 0.874836
O O7 0.112304 0.638005 0.824829
O O8 0.191467 0.630282 0.697147
O O9 0.250000 0.750000 0.868409
O O10 0.204200 0.839947 0.000000
O O11 0.500000 0.853663 0.776822
O O12 0.571113 0.769458 0.681230
O O13 0.576291 0.921428 0.669969
O O14 0.500000 0.000000 0.403271
O O15 0.407390 0.000000 0.500000
O O16 0.289198 0.850720 0.500000
O O17 0.250000 0.750000 0.624354
O O18 0.922598 0.205901 0.500000
O O19 0.000000 0.167405 0.377794
#
# Coordination Sequence:
#
# PCOD9486641 Si02
#       7
#    16  16  16  16   8  16  16
#     4  11  22  36  56  80 109 142 180 225 274 330
#     4  11  21  32  49  78 109 138 176 220 269 326
#     4  10  21  39  63  85 106 135 174 224 281 339
#     4  10  19  33  50  72 107 149 189 227 268 318
#     4   9  16  26  42  66  97 137 183 223 257 302
#     4  10  20  33  49  70 101 141 180 221 268 317
#     4  10  21  36  55  79 110 152 195 232 270 315
#
# _framework density 18.752358999999998
#
# number of rings (size 3 to 8) (size 9 to 14) (size 15 to 20)
#    0.000    1.769    0.769    6.462    0.000    8.000 
#    0.000    0.769    0.000    0.923    0.000    6.462 
#    0.000    0.000    0.000    0.000    0.000    0.000 
#
# Total GULP energy -290203.280509 kJ/mol
# GULP energy per Si atom -5580.832317 kJ/mol
# Density = 1.870968 g / cm^3
# Si number density = 18.752359 Si / 1000 Ang^3
#
#
#
# Elastic Constant Matrix: (Units=GPa)
#
#
# Indices 1 2 3 4 5 6 
#
# 1 86.4251 32.4781 5.4430 0.0000 0.0000 0.0000
# 2 32.4781 93.2867 8.0322 0.0000 0.0000 0.0000
# 3 5.4430 8.0322 41.6081 0.0000 0.0000 0.0000
# 4 0.0000 0.0000 0.0000 11.9788 0.0000 0.0000
# 5 0.0000 0.0000 0.0000 0.0000 12.3032 0.0000
# 6 0.0000 0.0000 0.0000 0.0000 0.0000 29.9501
#
#
#
# Elastic Compliance Matrix: (Units=1/GPa)
#
#
# Indices 1 2 3 4 5 6 
#
# 1 0.013343 -0.004571 -0.000863 0.000000 0.000000 0.000000
# 2 -0.004571 0.012467 -0.001809 0.000000 0.000000 0.000000
# 3 -0.000863 -0.001809 0.024496 0.000000 0.000000 0.000000
# 4 0.000000 0.000000 0.000000 0.083481 0.000000 0.000000
# 5 0.000000 0.000000 0.000000 0.000000 0.081280 0.000000
# 6 0.000000 0.000000 0.000000 0.000000 0.000000 0.033389
#
#
# Mechanical properties :
#
#
# Convention : Reuss Voigt Hill
#
# Bulk Modulus (GPa) = 27.91741 34.80296 31.36018
# Shear Modulus (GPa) = 18.18972 22.53751 20.36362
#
# Velocity S-wave (km/s) = 3.11786 3.47053 3.29891
# Velocity P-wave (km/s) = 5.28025 5.88719 5.59196
#
# Compressibility (1/GPa) = 0.03581995
#
# Stress axis : x y z
#
# Youngs Moduli (GPa) = 74.94654 80.21300 40.82323
#
# Poissons Ratio (x) = 0.36666 0.03523
# Poissons Ratio (y) = 0.34258 0.07384
# Poissons Ratio (z) = 0.06468 0.14508
#
# Static dielectric constant tensor:
#      x y z
#    x 1.684430 0.000000 0.000000 
#    y 0.000000 1.649730 0.000000 
#    z 0.000000 0.000000 1.665390 
# 
# From -- ./inp_files/45779.got.cif
#   From: 2010.05.17/outbox.cif.g08.bks.cpg/sg65_23_cif.got.tgz:45779.got - 2010.06.03 17:01:31.
