data_PCOD9486034
_publ_section_title
;
Structure prediction by ZEFSAII (Michael W. Deem and Ramdas Pophale) SiO2 
 PCOD9486034
Probable space group: C M M M
;
_chemical_formula_sum "Si O2"
_cell_formula_units_Z 96
_cell_length_a 14.542289
_cell_length_b 23.566087
_cell_length_c 14.358945
_cell_angle_alpha 90.000000
_cell_angle_beta 90.000000
_cell_angle_gamma 90.000000
_cell_volume 4920.880060
_symmetry_space_group_name_H-M "C M M M"
_symmetry_group_IT_number 65
_symmetry_cell_setting 'orthorhombic'
loop_
_space_group_symop_operation_xyz
x,y,z
-x,-y,z
x,-y,-z
-x,y,-z
-x,-y,-z
x,y,-z
-x,y,z
x,-y,z
1/2+x,1/2+y,z
1/2-x,1/2-y,z
1/2+x,1/2-y,-z
1/2-x,1/2+y,-z
1/2-x,1/2-y,-z
1/2+x,1/2+y,-z
1/2-x,1/2+y,z
1/2+x,1/2-y,z
loop_
_atom_site_type_symbol
_atom_site_label
_atom_site_fract_x
_atom_site_fract_y
_atom_site_fract_z
Si Si1 0.389358 0.606776 0.799996
Si Si2 0.782968 0.435148 0.108562
Si Si3 0.856222 0.267833 0.394371
Si Si4 0.109298 0.337855 0.213372
Si Si5 0.104825 0.139067 0.397320
Si Si6 0.388705 0.726542 0.105033
O O1 0.500000 0.596571 0.806203
O O2 0.324366 0.568188 0.862468
O O3 0.357180 0.606759 0.692168
O O4 0.370269 0.670428 0.836415
O O5 0.814836 0.500000 0.118318
O O6 0.837195 0.392500 0.176352
O O7 0.793902 0.418267 0.000000
O O8 0.880334 0.284785 0.500000
O O9 0.750000 0.250000 0.391253
O O10 0.876630 0.315907 0.319059
O O11 0.901096 0.206370 0.375151
O O12 0.143914 0.284019 0.152827
O O13 0.000000 0.345627 0.198770
O O14 0.149074 0.133398 0.500000
O O15 0.000000 0.118981 0.404673
O O16 0.500000 0.730849 0.101955
O O17 0.354786 0.720290 0.000000
#
# Coordination Sequence:
#
# PCOD9486034 Si02
#       6
#    16  16  16  16  16  16
#     4  10  19  35  59  87 121 153 182 231 297 365
#     4  11  26  44  60  80 106 147 206 258 298 346
#     4  10  19  31  52  86 125 158 187 223 276 346
#     4  11  22  37  59  86 117 154 194 240 292 345
#     4   9  16  28  50  82 119 153 181 212 263 340
#     4   9  17  29  49  82 116 145 179 221 283 356
#
# _framework density 19.508704999999999
#
# number of rings (size 3 to 8) (size 9 to 14) (size 15 to 20)
#    0.000    2.000    1.667    2.500    0.000    3.667 
#    0.000    3.333    0.000    2.000    0.000    3.500 
#    0.000    0.000    0.000    0.000    0.000    0.000 
#
# Total GULP energy -267770.640515 kJ/mol
# GULP energy per Si atom -5578.555011 kJ/mol
# Density = 1.946430 g / cm^3
# Si number density = 19.508705 Si / 1000 Ang^3
#
#
#
# Elastic Constant Matrix: (Units=GPa)
#
#
# Indices 1 2 3 4 5 6 
#
# 1 59.5652 6.2642 6.2131 0.0000 0.0000 0.0000
# 2 6.2642 45.9422 19.4262 0.0000 0.0000 0.0000
# 3 6.2131 19.4262 123.4598 0.0000 0.0000 0.0000
# 4 0.0000 0.0000 0.0000 18.7035 0.0000 0.0000
# 5 0.0000 0.0000 0.0000 0.0000 18.0183 0.0000
# 6 0.0000 0.0000 0.0000 0.0000 0.0000 15.0362
#
#
#
# Elastic Compliance Matrix: (Units=1/GPa)
#
#
# Indices 1 2 3 4 5 6 
#
# 1 0.017065 -0.002104 -0.000528 0.000000 0.000000 0.000000
# 2 -0.002104 0.023577 -0.003604 0.000000 0.000000 0.000000
# 3 -0.000528 -0.003604 0.008693 0.000000 0.000000 0.000000
# 4 0.000000 0.000000 0.000000 0.053466 0.000000 0.000000
# 5 0.000000 0.000000 0.000000 0.000000 0.055499 0.000000
# 6 0.000000 0.000000 0.000000 0.000000 0.000000 0.066506
#
#
# Mechanical properties :
#
#
# Convention : Reuss Voigt Hill
#
# Bulk Modulus (GPa) = 27.12628 32.53045 29.82837
# Shear Modulus (GPa) = 20.03481 23.48916 21.76199
#
# Velocity S-wave (km/s) = 3.20811 3.47369 3.34354
# Velocity P-wave (km/s) = 5.25904 5.72710 5.49805
#
# Compressibility (1/GPa) = 0.03686461
#
# Stress axis : x y z
#
# Youngs Moduli (GPa) = 58.60080 42.41380 115.02923
#
# Poissons Ratio (x) = 0.08922 0.06071
# Poissons Ratio (y) = 0.12327 0.41456
# Poissons Ratio (z) = 0.03093 0.15286
#
# Static dielectric constant tensor:
#      x y z
#    x 1.651480 0.000000 0.000000 
#    y 0.000000 1.654890 0.000000 
#    z 0.000000 0.000000 1.734130 
# 
# From -- ./inp_files/40337.got.cif
#   From: 2010.05.17/outbox.cif.g08.bks.cpg/sg65_21_cif.got.tgz:40337.got - 2010.06.03 17:01:31.
