data_PCOD9486035
_publ_section_title
;
Structure prediction by ZEFSAII (Michael W. Deem and Ramdas Pophale) SiO2 
 PCOD9486035
Probable space group: C M M M
;
_chemical_formula_sum "Si O2"
_cell_formula_units_Z 72
_cell_length_a 14.929347
_cell_length_b 18.679815
_cell_length_c 14.233671
_cell_angle_alpha 90.000000
_cell_angle_beta 90.000000
_cell_angle_gamma 90.000000
_cell_volume 3969.449731
_symmetry_space_group_name_H-M "C M M M"
_symmetry_group_IT_number 65
_symmetry_cell_setting 'orthorhombic'
loop_
_space_group_symop_operation_xyz
x,y,z
-x,-y,z
x,-y,-z
-x,y,-z
-x,-y,-z
x,y,-z
-x,y,z
x,-y,z
1/2+x,1/2+y,z
1/2-x,1/2-y,z
1/2+x,1/2-y,-z
1/2-x,1/2+y,-z
1/2-x,1/2-y,-z
1/2+x,1/2+y,-z
1/2-x,1/2+y,z
1/2+x,1/2-y,z
loop_
_atom_site_type_symbol
_atom_site_label
_atom_site_fract_x
_atom_site_fract_y
_atom_site_fract_z
Si Si1 0.392269 0.000000 0.393294
Si Si2 0.000000 0.135647 0.887762
Si Si3 0.351545 0.582911 0.250000
Si Si4 0.892269 0.500000 0.893294
Si Si5 0.000000 0.266282 0.750000
Si Si6 0.340538 0.878843 0.750000
Si Si7 0.000000 0.864353 0.387762
O O1 0.360338 0.929626 0.339116
O O2 0.500000 0.000000 0.390063
O O3 0.361451 0.000000 0.500000
O O4 0.913848 0.097579 0.840460
O O5 0.000000 0.214652 0.840996
O O6 0.000000 0.134884 0.000000
O O7 0.322122 0.500000 0.250000
O O8 0.265542 0.634443 0.250000
O O9 0.413848 0.597579 0.340460
O O10 0.860338 0.429626 0.839116
O O11 0.000000 0.500000 0.890063
O O12 0.861451 0.500000 0.000000
O O13 0.910929 0.314614 0.750000
O O14 0.000000 0.214652 0.659004
O O15 0.000000 0.865116 0.500000
#
# Coordination Sequence:
#
# PCOD9486035 Si02
#       7
#     8   8  16   8   8  16   8
#     4  10  19  31  52  87 121 153 190 227 287 351
#     4  10  24  42  58  82 115 156 204 245 279 332
#     4  10  21  39  64  89 111 147 196 241 303 343
#     4  10  19  31  52  87 121 153 190 227 287 351
#     4  10  22  39  61  82 120 164 186 228 286 354
#     4  11  19  37  59  87 122 152 184 237 293 344
#     4  10  24  42  58  82 115 156 204 245 279 332
#
# _framework density 18.138534
#
# number of rings (size 3 to 8) (size 9 to 14) (size 15 to 20)
#    0.000    2.000    4.444    2.000    0.000    8.889 
#    0.000    2.222    0.000    0.000    0.000    0.000 
#    0.000    0.000    0.000    0.000    0.000    0.000 
#
# Total GULP energy -200844.134086 kJ/mol
# GULP energy per Si atom -5579.003725 kJ/mol
# Density = 1.809725 g / cm^3
# Si number density = 18.138534 Si / 1000 Ang^3
#
#
#
# Elastic Constant Matrix: (Units=GPa)
#
#
# Indices 1 2 3 4 5 6 
#
# 1 116.0197 24.5801 27.5089 0.0000 0.0000 0.0000
# 2 24.5801 74.2765 23.8184 0.0000 0.0000 0.0000
# 3 27.5089 23.8184 170.7660 0.0000 0.0000 0.0000
# 4 0.0000 0.0000 0.0000 -14.7564 0.0000 0.0000
# 5 0.0000 0.0000 0.0000 0.0000 26.7166 0.0000
# 6 0.0000 0.0000 0.0000 0.0000 0.0000 27.4648
#
#
#
# Elastic Compliance Matrix: (Units=1/GPa)
#
#
# Indices 1 2 3 4 5 6 
#
# 1 0.009477 -0.002770 -0.001140 0.000000 0.000000 0.000000
# 2 -0.002770 0.014903 -0.001632 0.000000 0.000000 0.000000
# 3 -0.001140 -0.001632 0.006267 0.000000 0.000000 0.000000
# 4 0.000000 0.000000 0.000000 -0.067767 0.000000 0.000000
# 5 0.000000 0.000000 0.000000 0.000000 0.037430 0.000000
# 6 0.000000 0.000000 0.000000 0.000000 0.000000 0.036410
#
#
# Mechanical properties :
#
#
# Convention : Reuss Voigt Hill
#
# Bulk Modulus (GPa) = 51.12138 56.98632 54.05385
# Shear Modulus (GPa) = 92.03570 26.89531 59.46551
#
# Velocity S-wave (km/s) = 7.13096 3.85486 5.73195
# Velocity P-wave (km/s) = 9.80030 7.16231 8.58325
#
# Compressibility (1/GPa) = 0.01956129
#
# Stress axis : x y z
#
# Youngs Moduli (GPa) = 105.52406 67.09837 159.55760
#
# Poissons Ratio (x) = 0.18589 0.18192
# Poissons Ratio (y) = 0.29235 0.26047
# Poissons Ratio (z) = 0.12031 0.10953
#
# Static dielectric constant tensor:
#      x y z
#    x 1.657260 0.000000 0.000000 
#    y 0.000000 1.618690 0.000000 
#    z 0.000000 0.000000 1.595080 
# 
# From -- ./inp_files/39904.got.cif
#   From: 2010.05.17/outbox.cif.g08.bks.cpg/sg65_20_cif.got.tgz:39904.got - 2010.06.03 17:01:31.
