data_PCOD9486741
_publ_section_title
;
Structure prediction by ZEFSAII (Michael W. Deem and Ramdas Pophale) SiO2 
 PCOD9486741
Probable space group: C M M M
;
_chemical_formula_sum "Si O2"
_cell_formula_units_Z 72
_cell_length_a 27.353409
_cell_length_b 7.655778
_cell_length_c 16.370370
_cell_angle_alpha 90.000000
_cell_angle_beta 90.000000
_cell_angle_gamma 90.000000
_cell_volume 3428.145814
_symmetry_space_group_name_H-M "C M M M"
_symmetry_group_IT_number 65
_symmetry_cell_setting 'orthorhombic'
loop_
_space_group_symop_operation_xyz
x,y,z
-x,-y,z
x,-y,-z
-x,y,-z
-x,-y,-z
x,y,-z
-x,y,z
x,-y,z
1/2+x,1/2+y,z
1/2-x,1/2-y,z
1/2+x,1/2-y,-z
1/2-x,1/2+y,-z
1/2-x,1/2-y,-z
1/2+x,1/2+y,-z
1/2-x,1/2+y,z
1/2+x,1/2-y,z
loop_
_atom_site_type_symbol
_atom_site_label
_atom_site_fract_x
_atom_site_fract_y
_atom_site_fract_z
Si Si1 0.157567 0.713630 0.410642
Si Si2 0.407023 0.702306 0.826426
Si Si3 0.695890 0.207830 0.761319
Si Si4 0.053772 0.296406 0.651981
Si Si5 0.442663 0.711766 0.000000
O O1 0.174253 0.770939 0.500000
O O2 0.157262 0.500000 0.410157
O O3 0.189067 0.769761 0.332656
O O4 0.101763 0.774514 0.393515
O O5 0.422449 0.500000 0.824344
O O6 0.349074 0.714074 0.811344
O O7 0.433323 0.787460 0.748387
O O8 0.420355 0.776613 0.914863
O O9 0.750000 0.250000 0.790726
O O10 0.688975 0.000000 0.762379
O O11 0.051366 0.500000 0.628787
O O12 0.000000 0.219244 0.636732
O O13 0.435833 0.500000 0.000000
O O14 0.500000 0.747955 0.000000
#
# Coordination Sequence:
#
# PCOD9486741 Si02
#       5
#    16  16  16  16   8
#     4   8  15  28  46  70  99 129 163 204 246 290
#     4  10  19  33  53  75 100 130 165 204 246 292
#     4  10  20  35  54  75  99 128 164 204 248 297
#     4   9  17  29  46  70 101 135 169 204 243 290
#     4   9  18  32  52  79 106 131 162 199 238 285
#
# _framework density 21.002607999999999
#
# number of rings (size 3 to 8) (size 9 to 14) (size 15 to 20)
#    0.000    2.778    0.000    3.333    0.000    2.222 
#    0.000    5.000    0.000   20.000    0.000    6.222 
#    0.000    0.000    0.000    0.000    0.000    0.000 
#
# Total GULP energy -200850.428268 kJ/mol
# GULP energy per Si atom -5579.178563 kJ/mol
# Density = 2.095480 g / cm^3
# Si number density = 21.002608 Si / 1000 Ang^3
#
#
#
# Elastic Constant Matrix: (Units=GPa)
#
#
# Indices 1 2 3 4 5 6 
#
# 1 57.0517 -17.1140 -7.4495 0.0000 0.0000 0.0000
# 2 -17.1140 43.5639 -10.2787 0.0000 0.0000 0.0000
# 3 -7.4495 -10.2787 87.7729 0.0000 0.0000 0.0000
# 4 0.0000 0.0000 0.0000 15.2191 0.0000 0.0000
# 5 0.0000 0.0000 0.0000 0.0000 3.9492 0.0000
# 6 0.0000 0.0000 0.0000 0.0000 0.0000 12.0351
#
#
#
# Elastic Compliance Matrix: (Units=1/GPa)
#
#
# Indices 1 2 3 4 5 6 
#
# 1 0.020499 0.008704 0.002759 0.000000 0.000000 0.000000
# 2 0.008704 0.027303 0.003936 0.000000 0.000000 0.000000
# 3 0.002759 0.003936 0.012088 0.000000 0.000000 0.000000
# 4 0.000000 0.000000 0.000000 0.065707 0.000000 0.000000
# 5 0.000000 0.000000 0.000000 0.000000 0.253214 0.000000
# 6 0.000000 0.000000 0.000000 0.000000 0.000000 0.083090
#
#
# Mechanical properties :
#
#
# Convention : Reuss Voigt Hill
#
# Bulk Modulus (GPa) = 11.02673 13.18934 12.10804
# Shear Modulus (GPa) = 10.83816 21.12273 15.98045
#
# Velocity S-wave (km/s) = 2.27411 3.17475 2.76140
# Velocity P-wave (km/s) = 3.48669 4.44209 3.99307
#
# Compressibility (1/GPa) = 0.09068872
#
# Stress axis : x y z
#
# Youngs Moduli (GPa) = 48.78233 36.62621 82.72567
#
# Poissons Ratio (x) = -0.31880 -0.22825
# Poissons Ratio (y) = -0.42460 -0.32561
# Poissons Ratio (z) = -0.13460 -0.14416
#
# Static dielectric constant tensor:
#      x y z
#    x 1.746840 0.000000 0.000000 
#    y 0.000000 1.810780 0.000000 
#    z 0.000000 0.000000 1.751660 
# 
# From -- ./inp_files/36545.got.cif
#   From: 2010.05.17/outbox.cif.g08.bks.cpg/sg65_19_cif.got.tgz:36545.got - 2010.06.03 17:01:31.
