data_PCOD9486512
_publ_section_title
;
Structure prediction by ZEFSAII (Michael W. Deem and Ramdas Pophale) SiO2 
 PCOD9486512
Probable space group: C M M M
;
_chemical_formula_sum "Si O2"
_cell_formula_units_Z 104
_cell_length_a 23.894758
_cell_length_b 27.203898
_cell_length_c 7.538958
_cell_angle_alpha 90.000000
_cell_angle_beta 90.000000
_cell_angle_gamma 90.000000
_cell_volume 4900.553086
_symmetry_space_group_name_H-M "C M M M"
_symmetry_group_IT_number 65
_symmetry_cell_setting 'orthorhombic'
loop_
_space_group_symop_operation_xyz
x,y,z
-x,-y,z
x,-y,-z
-x,y,-z
-x,-y,-z
x,y,-z
-x,y,z
x,-y,z
1/2+x,1/2+y,z
1/2-x,1/2-y,z
1/2+x,1/2-y,-z
1/2-x,1/2+y,-z
1/2-x,1/2-y,-z
1/2+x,1/2+y,-z
1/2-x,1/2+y,z
1/2+x,1/2-y,z
loop_
_atom_site_type_symbol
_atom_site_label
_atom_site_fract_x
_atom_site_fract_y
_atom_site_fract_z
Si Si1 0.437115 0.712578 0.216779
Si Si2 0.063133 0.500000 0.717017
Si Si3 0.234148 0.056253 0.794239
Si Si4 0.142409 0.413302 0.707547
Si Si5 0.934439 0.053939 0.712866
Si Si6 0.351670 0.365362 0.198624
Si Si7 0.437913 0.173245 0.786389
O O1 0.500000 0.695393 0.271937
O O2 0.383611 0.681448 0.281045
O O3 0.432262 0.769792 0.266800
O O4 0.436457 0.709801 0.000000
O O5 0.061724 0.500000 0.500000
O O6 0.097065 0.452323 0.775488
O O7 0.000000 0.500000 0.780095
O O8 0.297802 0.075132 0.790693
O O9 0.196101 0.100226 0.714567
O O10 0.230637 0.000000 0.721304
O O11 0.216296 0.052875 0.000000
O O12 0.150972 0.422743 0.500000
O O13 0.113338 0.360580 0.728319
O O14 0.927968 0.059609 0.500000
O O15 0.902619 0.096409 0.809739
O O16 0.000000 0.055072 0.751213
O O17 0.912186 0.000000 0.761028
O O18 0.332188 0.351041 0.000000
O O19 0.500000 0.155678 0.725310
O O20 0.438601 0.172336 0.000000
#
# Coordination Sequence:
#
# PCOD9486512 Si02
#       7
#    16   8  16  16  16  16  16
#     4   8  15  30  53  80 108 136 170 215 265 316
#     4   9  18  32  51  77 105 127 156 205 258 307
#     4  10  21  36  52  73 106 142 177 221 267 312
#     4  11  21  35  55  78 105 139 176 214 259 309
#     4   9  18  31  45  66 100 137 169 210 269 328
#     4  10  19  32  53  78 100 132 180 227 266 303
#     4   9  18  34  56  81 109 139 168 205 260 320
#
# _framework density 21.222093999999998
#
# number of rings (size 3 to 8) (size 9 to 14) (size 15 to 20)
#    0.000    2.538    0.769    3.231    0.000    3.385 
#    0.000    2.308    0.000    7.385    0.000    0.000 
#    0.000    0.000    0.000    0.000    0.000    0.000 
#
# Total GULP energy -289994.802581 kJ/mol
# GULP energy per Si atom -5576.823127 kJ/mol
# Density = 2.117379 g / cm^3
# Si number density = 21.222094 Si / 1000 Ang^3
#
#
#
# Elastic Constant Matrix: (Units=GPa)
#
#
# Indices 1 2 3 4 5 6 
#
# 1 131.5561 65.8280 1.3826 0.0000 0.0000 0.0000
# 2 65.8280 98.6415 -2.6452 0.0000 0.0000 0.0000
# 3 1.3826 -2.6452 50.0993 0.0000 0.0000 0.0000
# 4 0.0000 0.0000 0.0000 7.6693 0.0000 0.0000
# 5 0.0000 0.0000 0.0000 0.0000 34.2839 0.0000
# 6 0.0000 0.0000 0.0000 0.0000 0.0000 34.6155
#
#
#
# Elastic Compliance Matrix: (Units=1/GPa)
#
#
# Indices 1 2 3 4 5 6 
#
# 1 0.011438 -0.007652 -0.000720 0.000000 0.000000 0.000000
# 2 -0.007652 0.015272 0.001018 0.000000 0.000000 0.000000
# 3 -0.000720 0.001018 0.020034 0.000000 0.000000 0.000000
# 4 0.000000 0.000000 0.000000 0.130390 0.000000 0.000000
# 5 0.000000 0.000000 0.000000 0.000000 0.029168 0.000000
# 6 0.000000 0.000000 0.000000 0.000000 0.000000 0.028889
#
#
# Mechanical properties :
#
#
# Convention : Reuss Voigt Hill
#
# Bulk Modulus (GPa) = 31.21625 45.49196 38.35411
# Shear Modulus (GPa) = 19.18811 29.69585 24.44198
#
# Velocity S-wave (km/s) = 3.01018 3.74477 3.39739
# Velocity P-wave (km/s) = 5.17908 6.33880 5.78806
#
# Compressibility (1/GPa) = 0.03203459
#
# Stress axis : x y z
#
# Youngs Moduli (GPa) = 87.42810 65.48026 49.91530
#
# Poissons Ratio (x) = 0.50108 0.03592
# Poissons Ratio (y) = 0.66903 -0.05079
# Poissons Ratio (z) = 0.06292 -0.06663
#
# Static dielectric constant tensor:
#      x y z
#    x 1.763160 0.000000 0.000000 
#    y 0.000000 1.786770 0.000000 
#    z 0.000000 0.000000 1.816670 
# 
# From -- ./inp_files/12762.got.cif
#   From: 2010.05.17/outbox.cif.g08.bks.cpg/sg65_7_cif.got.tgz:12762.got - 2010.06.03 17:01:31.
