data_PCOD9486072
_publ_section_title
;
Structure prediction by ZEFSAII (Michael W. Deem and Ramdas Pophale) SiO2 
 PCOD9486072
Probable space group: C M M M
;
_chemical_formula_sum "Si O2"
_cell_formula_units_Z 88
_cell_length_a 9.097508
_cell_length_b 32.677494
_cell_length_c 16.914750
_cell_angle_alpha 90.000000
_cell_angle_beta 90.000000
_cell_angle_gamma 90.000000
_cell_volume 5028.480532
_symmetry_space_group_name_H-M "C M M M"
_symmetry_group_IT_number 65
_symmetry_cell_setting 'orthorhombic'
loop_
_space_group_symop_operation_xyz
x,y,z
-x,-y,z
x,-y,-z
-x,y,-z
-x,-y,-z
x,y,-z
-x,y,z
x,-y,z
1/2+x,1/2+y,z
1/2-x,1/2-y,z
1/2+x,1/2-y,-z
1/2-x,1/2+y,-z
1/2-x,1/2-y,-z
1/2+x,1/2+y,-z
1/2-x,1/2+y,z
1/2+x,1/2-y,z
loop_
_atom_site_type_symbol
_atom_site_label
_atom_site_fract_x
_atom_site_fract_y
_atom_site_fract_z
Si Si1 0.324012 0.792689 0.906150
Si Si2 0.825814 0.629904 0.803365
Si Si3 0.326506 0.706791 0.500000
Si Si4 0.328596 0.150113 0.621137
Si Si5 0.673398 0.566895 0.586361
Si Si6 0.675855 0.455152 0.765391
O O1 0.500000 0.789366 0.893933
O O2 0.250000 0.750000 0.879203
O O3 0.273851 0.834324 0.862582
O O4 0.296338 0.796569 0.000000
O O5 0.807513 0.647984 0.715120
O O6 0.748540 0.585419 0.802507
O O7 0.000000 0.623379 0.816850
O O8 0.500000 0.709856 0.500000
O O9 0.250000 0.750000 0.500000
O O10 0.270228 0.682724 0.423188
O O11 0.500000 0.157285 0.604207
O O12 0.276013 0.106392 0.589164
O O13 0.694236 0.546643 0.500000
O O14 0.500000 0.578670 0.589438
O O15 0.702472 0.545289 0.670080
O O16 0.500000 0.452356 0.776176
O O17 0.725236 0.500000 0.795285
#
# Coordination Sequence:
#
# PCOD9486072 Si02
#       6
#    16  16   8  16  16  16
#     4   9  18  34  56  82 110 135 162 201 250 307
#     4   9  19  34  53  77 104 136 170 205 253 307
#     4  12  24  36  48  64  89 124 167 210 254 299
#     4  10  19  32  48  67  93 125 163 206 249 294
#     4   9  16  27  45  66  90 124 164 206 254 303
#     4   9  18  31  47  71 102 136 176 218 258 301
#
# _framework density 17.500316000000002
#
# number of rings (size 3 to 8) (size 9 to 14) (size 15 to 20)
#    0.000    2.545    0.909    1.364    0.000    2.909 
#    0.000    3.636    0.000    0.545    0.000    8.909 
#    0.000    0.000    0.000    0.000    0.000    0.000 
#
# Total GULP energy -245048.764894 kJ/mol
# GULP energy per Si atom -5569.290111 kJ/mol
# Density = 1.746048 g / cm^3
# Si number density = 17.500316 Si / 1000 Ang^3
#
#
#
# Elastic Constant Matrix: (Units=GPa)
#
#
# Indices 1 2 3 4 5 6 
#
# 1 66.9903 69.7300 26.5401 0.0000 0.0000 0.0000
# 2 69.7300 164.6175 51.8171 0.0000 0.0000 0.0000
# 3 26.5401 51.8171 49.7724 0.0000 0.0000 0.0000
# 4 0.0000 0.0000 0.0000 -8.5367 0.0000 0.0000
# 5 0.0000 0.0000 0.0000 0.0000 13.8837 0.0000
# 6 0.0000 0.0000 0.0000 0.0000 0.0000 22.8396
#
#
#
# Elastic Compliance Matrix: (Units=1/GPa)
#
#
# Indices 1 2 3 4 5 6 
#
# 1 0.027157 -0.010330 -0.003726 0.000000 0.000000 0.000000
# 2 -0.010330 0.012965 -0.007990 0.000000 0.000000 0.000000
# 3 -0.003726 -0.007990 0.030396 0.000000 0.000000 0.000000
# 4 0.000000 0.000000 0.000000 -0.117142 0.000000 0.000000
# 5 0.000000 0.000000 0.000000 0.000000 0.072027 0.000000
# 6 0.000000 0.000000 0.000000 0.000000 0.000000 0.043784
#
#
# Mechanical properties :
#
#
# Convention : Reuss Voigt Hill
#
# Bulk Modulus (GPa) = 37.84120 64.17273 51.00697
# Shear Modulus (GPa) = 40.95443 14.52353 27.73898
#
# Velocity S-wave (km/s) = 4.84282 2.88393 3.98560
# Velocity P-wave (km/s) = 7.27603 6.91653 7.09856
#
# Compressibility (1/GPa) = 0.02642622
#
# Stress axis : x y z
#
# Youngs Moduli (GPa) = 36.82359 77.12836 32.89899
#
# Poissons Ratio (x) = 0.79676 0.12258
# Poissons Ratio (y) = 0.38040 0.26285
# Poissons Ratio (z) = 0.13720 0.61622
#
# Static dielectric constant tensor:
#      x y z
#    x 1.583410 0.000000 0.000000 
#    y 0.000000 1.561350 0.000000 
#    z 0.000000 0.000000 1.652890 
# 
# From -- ./inp_files/50350.got.cif
#   From: 2010.05.17/outbox.cif.g08.bks.cpg/sg65_26_cif.got.tgz:50350.got - 2010.06.03 17:01:31.
