data_PCOD9486448
_publ_section_title
;
Structure prediction by ZEFSAII (Michael W. Deem and Ramdas Pophale) SiO2 
 PCOD9486448
Probable space group: C M M M
;
_chemical_formula_sum "Si O2"
_cell_formula_units_Z 88
_cell_length_a 22.217208
_cell_length_b 16.210839
_cell_length_c 13.705903
_cell_angle_alpha 90.000000
_cell_angle_beta 90.000000
_cell_angle_gamma 90.000000
_cell_volume 4936.312294
_symmetry_space_group_name_H-M "C M M M"
_symmetry_group_IT_number 65
_symmetry_cell_setting 'orthorhombic'
loop_
_space_group_symop_operation_xyz
x,y,z
-x,-y,z
x,-y,-z
-x,y,-z
-x,-y,-z
x,y,-z
-x,y,z
x,-y,z
1/2+x,1/2+y,z
1/2-x,1/2-y,z
1/2+x,1/2-y,-z
1/2-x,1/2+y,-z
1/2-x,1/2-y,-z
1/2+x,1/2+y,-z
1/2-x,1/2+y,z
1/2+x,1/2-y,z
loop_
_atom_site_type_symbol
_atom_site_label
_atom_site_fract_x
_atom_site_fract_y
_atom_site_fract_z
Si Si1 0.071003 0.410325 0.308479
Si Si2 0.746471 0.598703 0.887329
Si Si3 0.616279 0.159755 0.111611
Si Si4 0.427689 0.735554 0.612616
Si Si5 0.870004 0.837313 0.201173
Si Si6 0.428219 0.500000 0.887589
O O1 0.097802 0.500000 0.332247
O O2 0.081020 0.390233 0.194410
O O3 0.092337 0.330294 0.367479
O O4 0.000000 0.414641 0.327628
O O5 0.745640 0.500000 0.871146
O O6 0.814083 0.632114 0.878975
O O7 0.700343 0.644654 0.816514
O O8 0.726974 0.613669 0.000000
O O9 0.612095 0.256166 0.139260
O O10 0.597263 0.145185 0.000000
O O11 0.418749 0.713973 0.500000
O O12 0.500000 0.730123 0.633595
O O13 0.390962 0.681058 0.689115
O O14 0.903189 0.918181 0.162282
O O15 0.500000 0.500000 0.884023
O O16 0.408234 0.500000 0.000000
#
# Coordination Sequence:
#
# PCOD9486448 Si02
#       6
#    16  16  16  16  16   8
#     4   9  18  32  51  77 107 138 172 212 261 317
#     4  10  19  32  52  77 106 140 179 217 256 309
#     4  10  20  32  50  77 109 144 179 213 256 314
#     4   9  19  36  56  77 101 131 173 224 273 322
#     4  11  20  34  53  74 102 138 175 223 267 313
#     4  11  22  34  51  77 109 143 177 215 262 317
#
# _framework density 17.827072000000001
#
# number of rings (size 3 to 8) (size 9 to 14) (size 15 to 20)
#    0.000    2.091    0.909    3.273    0.000    4.000 
#    0.000    3.182    0.000   10.364    0.000    0.000 
#    0.000    0.000    0.000    0.000    0.000    0.000 
#
# Total GULP energy -245494.057543 kJ/mol
# GULP energy per Si atom -5579.410399 kJ/mol
# Density = 1.778650 g / cm^3
# Si number density = 17.827072 Si / 1000 Ang^3
#
#
#
# Elastic Constant Matrix: (Units=GPa)
#
#
# Indices 1 2 3 4 5 6 
#
# 1 15.3598 13.1295 12.0472 0.0000 0.0000 0.0000
# 2 13.1295 99.9787 30.0097 0.0000 0.0000 0.0000
# 3 12.0472 30.0097 88.0705 0.0000 0.0000 0.0000
# 4 0.0000 0.0000 0.0000 8.1207 0.0000 0.0000
# 5 0.0000 0.0000 0.0000 0.0000 23.2530 0.0000
# 6 0.0000 0.0000 0.0000 0.0000 0.0000 14.3308
#
#
#
# Elastic Compliance Matrix: (Units=1/GPa)
#
#
# Indices 1 2 3 4 5 6 
#
# 1 0.078098 -0.007853 -0.008007 0.000000 0.000000 0.000000
# 2 -0.007853 0.011931 -0.002991 0.000000 0.000000 0.000000
# 3 -0.008007 -0.002991 0.013469 0.000000 0.000000 0.000000
# 4 0.000000 0.000000 0.000000 0.123143 0.000000 0.000000
# 5 0.000000 0.000000 0.000000 0.000000 0.043005 0.000000
# 6 0.000000 0.000000 0.000000 0.000000 0.000000 0.069780
#
#
# Mechanical properties :
#
#
# Convention : Reuss Voigt Hill
#
# Bulk Modulus (GPa) = 15.19852 34.86465 25.03159
# Shear Modulus (GPa) = 12.52943 19.02240 15.77592
#
# Velocity S-wave (km/s) = 2.65397 3.27012 2.97802
# Velocity P-wave (km/s) = 4.23503 5.81875 5.08888
#
# Compressibility (1/GPa) = 0.06579586
#
# Stress axis : x y z
#
# Youngs Moduli (GPa) = 12.80442 83.81363 74.24355
#
# Poissons Ratio (x) = 0.65815 0.59450
# Poissons Ratio (y) = 0.10055 0.22209
# Poissons Ratio (z) = 0.10253 0.25072
#
# Static dielectric constant tensor:
#      x y z
#    x 1.610710 0.000000 0.000000 
#    y 0.000000 1.683320 0.000000 
#    z 0.000000 0.000000 1.593460 
# 
# From -- ./inp_files/30545.got.cif
#   From: 2010.05.17/outbox.cif.g08.bks.cpg/sg65_16_cif.got.tgz:30545.got - 2010.06.03 17:01:31.
