data_PCOD9486886
_publ_section_title
;
Structure prediction by ZEFSAII (Michael W. Deem and Ramdas Pophale) SiO2 
 PCOD9486886
Probable space group: C M M M
;
_chemical_formula_sum "Si O2"
_cell_formula_units_Z 88
_cell_length_a 15.025736
_cell_length_b 7.401230
_cell_length_c 32.957041
_cell_angle_alpha 90.000000
_cell_angle_beta 90.000000
_cell_angle_gamma 90.000000
_cell_volume 3665.117201
_symmetry_space_group_name_H-M "C M M M"
_symmetry_group_IT_number 65
_symmetry_cell_setting 'orthorhombic'
loop_
_space_group_symop_operation_xyz
x,y,z
-x,-y,z
x,-y,-z
-x,y,-z
-x,-y,-z
x,y,-z
-x,y,z
x,-y,z
1/2+x,1/2+y,z
1/2-x,1/2-y,z
1/2+x,1/2-y,-z
1/2-x,1/2+y,-z
1/2-x,1/2-y,-z
1/2+x,1/2+y,-z
1/2-x,1/2+y,z
1/2+x,1/2-y,z
loop_
_atom_site_type_symbol
_atom_site_label
_atom_site_fract_x
_atom_site_fract_y
_atom_site_fract_z
Si Si1 0.107768 0.287551 0.804286
Si Si2 0.500000 0.778664 0.953651
Si Si3 0.397597 0.215940 0.717829
Si Si4 0.650628 0.214964 0.107149
Si Si5 0.607984 0.283968 0.543495
Si Si6 0.897339 0.215977 0.370034
O O1 0.131892 0.500000 0.804941
O O2 0.140052 0.213725 0.760682
O O3 0.138591 0.209523 0.847183
O O4 0.000000 0.276124 0.803849
O O5 0.583461 0.718344 0.926786
O O6 0.500000 0.000000 0.954995
O O7 0.500000 0.717443 0.000000
O O8 0.500000 0.284725 0.715382
O O9 0.355412 0.249097 0.673892
O O10 0.402097 0.000000 0.721933
O O11 0.750000 0.250000 0.093922
O O12 0.633837 0.000000 0.110461
O O13 0.639893 0.210202 0.500000
O O14 0.500000 0.260195 0.544309
O O15 0.623309 0.500000 0.542482
O O16 0.641461 0.214780 0.587172
O O17 0.000000 0.284091 0.367881
O O18 0.901475 0.000000 0.373774
#
# Coordination Sequence:
#
# PCOD9486886 Si02
#       6
#    16   8  16  16  16  16
#     4   8  13  25  45  64  83 117 161 194 224 277
#     4   9  18  34  57  81 105 139 179 211 244 297
#     4   8  13  20  32  49  67  91 129 173 213 257
#     4  10  19  33  54  78 104 134 171 212 251 295
#     4   7   9  13  21  32  47  73 112 155 197 248
#     4   8  12  17  25  39  60  84 115 160 214 264
#
# _framework density 24.010147
#
# number of rings (size 3 to 8) (size 9 to 14) (size 15 to 20)
#    0.000    3.727    0.909    2.727    0.000    0.364 
#    0.000    1.364    0.000    2.182    0.000    3.818 
#    0.000    0.000    0.000    0.000    0.000    0.909 
#
# Total GULP energy -245210.830632 kJ/mol
# GULP energy per Si atom -5572.973423 kJ/mol
# Density = 2.395550 g / cm^3
# Si number density = 24.010147 Si / 1000 Ang^3
#
#
#
# Elastic Constant Matrix: (Units=GPa)
#
#
# Indices 1 2 3 4 5 6 
#
# 1 71.5099 -6.2706 81.7503 0.0000 0.0000 0.0000
# 2 -6.2706 84.1278 16.0498 0.0000 0.0000 0.0000
# 3 81.7503 16.0498 317.2015 0.0000 0.0000 0.0000
# 4 0.0000 0.0000 0.0000 3.4065 0.0000 0.0000
# 5 0.0000 0.0000 0.0000 0.0000 -23.6075 0.0000
# 6 0.0000 0.0000 0.0000 0.0000 0.0000 -1.9928
#
#
#
# Elastic Compliance Matrix: (Units=1/GPa)
#
#
# Indices 1 2 3 4 5 6 
#
# 1 0.020350 0.002542 -0.005373 0.000000 0.000000 0.000000
# 2 0.002542 0.012320 -0.001278 0.000000 0.000000 0.000000
# 3 -0.005373 -0.001278 0.004602 0.000000 0.000000 0.000000
# 4 0.000000 0.000000 0.000000 0.293556 0.000000 0.000000
# 5 0.000000 0.000000 0.000000 0.000000 -0.042359 0.000000
# 6 0.000000 0.000000 0.000000 0.000000 0.000000 -0.501801
#
#
# Mechanical properties :
#
#
# Convention : Reuss Voigt Hill
#
# Bulk Modulus (GPa) = 34.42087 72.87758 53.64923
# Shear Modulus (GPa) = -25.58482 20.98188 -2.30147
#
# Velocity S-wave (km/s) = -3.26787 2.95935 -0.98011
# Velocity P-wave (km/s) = 0.35842 6.48812 4.59479
#
# Compressibility (1/GPa) = 0.02905214
#
# Stress axis : x y z
#
# Youngs Moduli (GPa) = 49.14097 81.16857 217.29418
#
# Poissons Ratio (x) = -0.20632 1.16756
# Poissons Ratio (y) = -0.12491 0.27780
# Poissons Ratio (z) = 0.26404 0.10377
#
# Static dielectric constant tensor:
#      x y z
#    x 3.047840 0.000000 0.000000 
#    y 0.000000 2.017940 0.000000 
#    z 0.000000 0.000000 1.992270 
# 
# From -- ./inp_files/77592.got.cif
#   From: 2010.05.17/outbox.cif.g08.bks.cpg/sg65_39_cif.got.tgz:77592.got - 2010.06.03 17:01:31.
