data_PCOD9486087
_publ_section_title
;
Structure prediction by ZEFSAII (Michael W. Deem and Ramdas Pophale) SiO2 
 PCOD9486087
Probable space group: C M M M
;
_chemical_formula_sum "Si O2"
_cell_formula_units_Z 104
_cell_length_a 28.846461
_cell_length_b 7.640991
_cell_length_c 25.107691
_cell_angle_alpha 90.000000
_cell_angle_beta 90.000000
_cell_angle_gamma 90.000000
_cell_volume 5534.125493
_symmetry_space_group_name_H-M "C M M M"
_symmetry_group_IT_number 65
_symmetry_cell_setting 'orthorhombic'
loop_
_space_group_symop_operation_xyz
x,y,z
-x,-y,z
x,-y,-z
-x,y,-z
-x,-y,-z
x,y,-z
-x,y,z
x,-y,z
1/2+x,1/2+y,z
1/2-x,1/2-y,z
1/2+x,1/2-y,-z
1/2-x,1/2+y,-z
1/2-x,1/2-y,-z
1/2+x,1/2+y,-z
1/2-x,1/2+y,z
1/2+x,1/2-y,z
loop_
_atom_site_type_symbol
_atom_site_label
_atom_site_fract_x
_atom_site_fract_y
_atom_site_fract_z
Si Si1 0.857994 0.292560 0.724036
Si Si2 0.555748 0.708729 0.556931
Si Si3 0.305007 0.789740 0.942729
Si Si4 0.194672 0.789478 0.500000
Si Si5 0.304525 0.210947 0.173179
Si Si6 0.695263 0.291311 0.383676
Si Si7 0.447975 0.793827 0.674277
O O1 0.863327 0.500000 0.733191
O O2 0.831724 0.219986 0.775493
O O3 0.829009 0.274808 0.669574
O O4 0.908970 0.217259 0.712543
O O5 0.574207 0.774768 0.500000
O O6 0.500000 0.739283 0.555959
O O7 0.563209 0.500000 0.557917
O O8 0.570765 0.778940 0.613725
O O9 0.250000 0.750000 0.942706
O O10 0.321558 0.724307 0.884974
O O11 0.310633 0.000000 0.942949
O O12 0.323349 0.723380 0.000000
O O13 0.250000 0.750000 0.500000
O O14 0.177816 0.725367 0.441923
O O15 0.188295 0.000000 0.500000
O O16 0.250000 0.250000 0.178626
O O17 0.308538 0.000000 0.172524
O O18 0.689332 0.500000 0.383975
O O19 0.750000 0.250000 0.380656
O O20 0.500000 0.718049 0.676911
O O21 0.451936 0.000000 0.685215
#
# Coordination Sequence:
#
# PCOD9486087 Si02
#       7
#    16  16  16   8  16  16  16
#     4  10  20  32  44  62  86 111 142 176 213 255
#     4   8  14  26  44  63  80  98 122 157 206 261
#     4   8  13  22  37  57  81 110 141 167 194 231
#     4   8  16  30  46  62  79 102 133 169 206 243
#     4   9  17  28  42  61  87 115 140 170 203 240
#     4  10  19  32  49  66  85 109 138 172 211 252
#     4   9  18  32  47  61  80 107 139 176 215 255
#
# _framework density 18.792490999999998
#
# number of rings (size 3 to 8) (size 9 to 14) (size 15 to 20)
#    0.000    3.077    0.000    1.385    0.000    3.385 
#    1.385    1.538    0.000    0.000    0.000    0.000 
#    0.000    0.615    0.000    8.615    0.000    0.000 
#
# Total GULP energy -289663.945796 kJ/mol
# GULP energy per Si atom -5570.460496 kJ/mol
# Density = 1.874972 g / cm^3
# Si number density = 18.792491 Si / 1000 Ang^3
#
#
#
# Elastic Constant Matrix: (Units=GPa)
#
#
# Indices 1 2 3 4 5 6 
#
# 1 67.6800 -2.5299 73.7020 0.0000 0.0000 0.0000
# 2 -2.5299 32.2499 8.0431 0.0000 0.0000 0.0000
# 3 73.7020 8.0431 199.9574 0.0000 0.0000 0.0000
# 4 0.0000 0.0000 0.0000 6.0025 0.0000 0.0000
# 5 0.0000 0.0000 0.0000 0.0000 13.2362 0.0000
# 6 0.0000 0.0000 0.0000 0.0000 0.0000 3.2500
#
#
#
# Elastic Compliance Matrix: (Units=1/GPa)
#
#
# Indices 1 2 3 4 5 6 
#
# 1 0.025273 0.004349 -0.009490 0.000000 0.000000 0.000000
# 2 0.004349 0.032071 -0.002893 0.000000 0.000000 0.000000
# 3 -0.009490 -0.002893 0.008615 0.000000 0.000000 0.000000
# 4 0.000000 0.000000 0.000000 0.166597 0.000000 0.000000
# 5 0.000000 0.000000 0.000000 0.000000 0.075551 0.000000
# 6 0.000000 0.000000 0.000000 0.000000 0.000000 0.307689
#
#
# Mechanical properties :
#
#
# Convention : Reuss Voigt Hill
#
# Bulk Modulus (GPa) = 20.04383 50.92419 35.48401
# Shear Modulus (GPa) = 7.71018 19.20921 13.45970
#
# Velocity S-wave (km/s) = 2.02773 3.20062 2.67915
# Velocity P-wave (km/s) = 4.02136 6.38871 5.33792
#
# Compressibility (1/GPa) = 0.04989066
#
# Stress axis : x y z
#
# Youngs Moduli (GPa) = 39.56869 31.18125 116.07155
#
# Poissons Ratio (x) = -0.13562 1.10153
# Poissons Ratio (y) = -0.17210 0.33581
# Poissons Ratio (z) = 0.37551 0.09021
#
# Static dielectric constant tensor:
#      x y z
#    x 1.683280 0.000000 0.000000 
#    y 0.000000 1.735620 0.000000 
#    z 0.000000 0.000000 1.711410 
# 
# From -- ./inp_files/72106.got.cif
#   From: 2010.05.17/outbox.cif.g08.bks.cpg/sg65_37_cif.got.tgz:72106.got - 2010.06.03 17:01:31.
