data_PCOD9486673
_publ_section_title
;
Structure prediction by ZEFSAII (Michael W. Deem and Ramdas Pophale) SiO2 
 PCOD9486673
Probable space group: C M M M
;
_chemical_formula_sum "Si O2"
_cell_formula_units_Z 88
_cell_length_a 13.653228
_cell_length_b 29.495828
_cell_length_c 13.644434
_cell_angle_alpha 90.000000
_cell_angle_beta 90.000000
_cell_angle_gamma 90.000000
_cell_volume 5494.794562
_symmetry_space_group_name_H-M "C M M M"
_symmetry_group_IT_number 65
_symmetry_cell_setting 'orthorhombic'
loop_
_space_group_symop_operation_xyz
x,y,z
-x,-y,z
x,-y,-z
-x,y,-z
-x,-y,-z
x,y,-z
-x,y,z
x,-y,z
1/2+x,1/2+y,z
1/2-x,1/2-y,z
1/2+x,1/2-y,-z
1/2-x,1/2+y,-z
1/2-x,1/2-y,-z
1/2+x,1/2+y,-z
1/2-x,1/2+y,z
1/2+x,1/2-y,z
loop_
_atom_site_type_symbol
_atom_site_label
_atom_site_fract_x
_atom_site_fract_y
_atom_site_fract_z
Si Si1 0.884489 0.591655 0.723632
Si Si2 0.750000 0.750000 0.748729
Si Si3 0.222365 0.092117 0.115844
Si Si4 0.615279 0.687059 0.884484
Si Si5 0.611749 0.500000 0.118971
Si Si6 0.881104 0.500000 0.388200
Si Si7 0.384807 0.813756 0.615238
O O1 0.818802 0.598267 0.819341
O O2 0.853528 0.545546 0.668983
O O3 0.872218 0.634661 0.652367
O O4 0.000000 0.588217 0.747842
O O5 0.680263 0.719530 0.817280
O O6 0.683036 0.781748 0.680451
O O7 0.152064 0.135437 0.129272
O O8 0.168201 0.045794 0.146529
O O9 0.245428 0.088983 0.000000
O O10 0.500000 0.690833 0.862160
O O11 0.628821 0.698038 0.000000
O O12 0.500000 0.500000 0.154797
O O13 0.607927 0.500000 0.000000
O O14 0.845199 0.500000 0.500000
O O15 0.000000 0.500000 0.392262
O O16 0.362090 0.810187 0.500000
O O17 0.500000 0.802314 0.628636
#
# Coordination Sequence:
#
# PCOD9486673 Si02
#       7
#    16   8  16  16   8   8  16
#     4  10  19  33  51  76 107 137 171 211 257 310
#     4  12  20  36  56  78 104 132 180 220 264 318
#     4  10  19  33  51  76 107 137 172 211 254 309
#     4  10  21  36  54  77 107 140 173 215 261 308
#     4   9  17  30  51  75  99 131 169 207 247 297
#     4   9  17  30  51  75  99 131 169 209 251 301
#     4  10  21  36  54  77 105 136 173 221 269 312
#
# _framework density 16.015158
#
# number of rings (size 3 to 8) (size 9 to 14) (size 15 to 20)
#    0.000    2.000    1.818    2.727    0.000    4.727 
#    0.000    0.000    0.000    3.273    0.000    0.000 
#    0.000    2.909    0.000    0.000    0.000    0.000 
#
# Total GULP energy -245448.283964 kJ/mol
# GULP energy per Si atom -5578.370090 kJ/mol
# Density = 1.597871 g / cm^3
# Si number density = 16.015158 Si / 1000 Ang^3
#
#
#
# Elastic Constant Matrix: (Units=GPa)
#
#
# Indices 1 2 3 4 5 6 
#
# 1 105.6612 71.5085 81.2039 0.0000 0.0000 0.0000
# 2 71.5085 126.3402 70.0930 0.0000 0.0000 0.0000
# 3 81.2039 70.0930 103.9170 0.0000 0.0000 0.0000
# 4 0.0000 0.0000 0.0000 24.0039 0.0000 0.0000
# 5 0.0000 0.0000 0.0000 0.0000 24.7346 0.0000
# 6 0.0000 0.0000 0.0000 0.0000 0.0000 28.4911
#
#
#
# Elastic Compliance Matrix: (Units=1/GPa)
#
#
# Indices 1 2 3 4 5 6 
#
# 1 0.025864 -0.005475 -0.016518 0.000000 0.000000 0.000000
# 2 -0.005475 0.013807 -0.005035 0.000000 0.000000 0.000000
# 3 -0.016518 -0.005035 0.025927 0.000000 0.000000 0.000000
# 4 0.000000 0.000000 0.000000 0.041660 0.000000 0.000000
# 5 0.000000 0.000000 0.000000 0.000000 0.040429 0.000000
# 6 0.000000 0.000000 0.000000 0.000000 0.000000 0.035099
#
#
# Mechanical properties :
#
#
# Convention : Reuss Voigt Hill
#
# Bulk Modulus (GPa) = 86.63658 86.83658 86.73658
# Shear Modulus (GPa) = 20.77362 22.98677 21.88020
#
# Velocity S-wave (km/s) = 3.60547 3.79266 3.70025
# Velocity P-wave (km/s) = 8.45852 8.57428 8.51660
#
# Compressibility (1/GPa) = 0.01154247
#
# Stress axis : x y z
#
# Youngs Moduli (GPa) = 38.66338 72.42570 38.56984
#
# Poissons Ratio (x) = 0.39652 0.63711
# Poissons Ratio (y) = 0.21168 0.19419
# Poissons Ratio (z) = 0.63865 0.36465
#
# Static dielectric constant tensor:
#      x y z
#    x 1.512830 0.000000 0.000000 
#    y 0.000000 1.529880 0.000000 
#    z 0.000000 0.000000 1.510960 
# 
# From -- ./inp_files/25195.got.cif
#   From: 2010.05.17/outbox.cif.g08.bks.cpg/sg65_13_cif.got.tgz:25195.got - 2010.06.03 17:01:31.
