data_PCOD9486113
_publ_section_title
;
Structure prediction by ZEFSAII (Michael W. Deem and Ramdas Pophale) SiO2 
 PCOD9486113
Probable space group: C M M M
;
_chemical_formula_sum "Si O2"
_cell_formula_units_Z 128
_cell_length_a 14.157013
_cell_length_b 23.546615
_cell_length_c 17.053513
_cell_angle_alpha 90.000000
_cell_angle_beta 90.000000
_cell_angle_gamma 90.000000
_cell_volume 5684.784034
_symmetry_space_group_name_H-M "C M M M"
_symmetry_group_IT_number 65
_symmetry_cell_setting 'orthorhombic'
loop_
_space_group_symop_operation_xyz
x,y,z
-x,-y,z
x,-y,-z
-x,y,-z
-x,-y,-z
x,y,-z
-x,y,z
x,-y,z
1/2+x,1/2+y,z
1/2-x,1/2-y,z
1/2+x,1/2-y,-z
1/2-x,1/2+y,-z
1/2-x,1/2-y,-z
1/2+x,1/2+y,-z
1/2-x,1/2+y,z
1/2+x,1/2-y,z
loop_
_atom_site_type_symbol
_atom_site_label
_atom_site_fract_x
_atom_site_fract_y
_atom_site_fract_z
Si Si1 0.113243 0.062821 0.247683
Si Si2 0.139360 0.740553 0.587991
Si Si3 0.387028 0.061462 0.257871
Si Si4 0.111161 0.815811 0.742269
Si Si5 0.112890 0.771986 0.911655
Si Si6 0.291152 0.434116 0.081151
Si Si7 0.111809 0.393631 0.584424
Si Si8 0.110821 0.361899 0.882504
O O1 0.147056 0.122106 0.285154
O O2 0.144986 0.072117 0.157545
O O3 0.000000 0.060665 0.253513
O O4 0.147275 0.000000 0.272756
O O5 0.102156 0.757265 0.500000
O O6 0.250000 0.750000 0.582581
O O7 0.114961 0.773062 0.668665
O O8 0.117991 0.673914 0.597732
O O9 0.500000 0.057648 0.262837
O O10 0.347363 0.071644 0.343703
O O11 0.373344 0.117856 0.206959
O O12 0.355496 0.000000 0.225112
O O13 0.151491 0.797725 0.828663
O O14 0.000000 0.821740 0.758201
O O15 0.122549 0.704048 0.900582
O O16 0.000000 0.783448 0.914276
O O17 0.150094 0.786882 0.000000
O O18 0.264036 0.500000 0.079966
O O19 0.195590 0.397808 0.081018
O O20 0.344643 0.421505 0.000000
O O21 0.154827 0.406567 0.500000
O O22 0.000000 0.406937 0.580960
O O23 0.000000 0.376419 0.902060
#
# Coordination Sequence:
#
# PCOD9486113 Si02
#       8
#    16  16  16  16  16  16  16  16
#     4   9  20  39  59  79 105 136 172 222 285 344
#     4  10  21  36  54  79 112 145 176 216 267 323
#     4   9  17  28  44  69 100 135 175 214 252 299
#     4  10  20  35  59  86 108 138 181 226 276 335
#     4   9  18  32  51  78 112 147 181 220 269 326
#     4  10  21  35  52  76 102 133 181 231 272 324
#     4   9  17  30  49  71  96 128 165 207 255 305
#     4  10  19  32  49  70 105 149 185 220 266 318
#
# _framework density 22.516247
#
# number of rings (size 3 to 8) (size 9 to 14) (size 15 to 20)
#    0.000    2.500    0.000    1.875    0.000    7.250 
#    0.000    4.375    0.000    2.250    0.000    3.500 
#    0.000    0.000    0.000    0.000    0.000    0.000 
#
# Total GULP energy -356418.174201 kJ/mol
# GULP energy per Si atom -5569.033972 kJ/mol
# Density = 2.246500 g / cm^3
# Si number density = 22.516247 Si / 1000 Ang^3
#
#
#
# Elastic Constant Matrix: (Units=GPa)
#
#
# Indices 1 2 3 4 5 6 
#
# 1 48.6858 -10.0097 -16.4801 0.0000 0.0000 0.0000
# 2 -10.0097 82.7395 43.0208 0.0000 0.0000 0.0000
# 3 -16.4801 43.0208 128.3564 0.0000 0.0000 0.0000
# 4 0.0000 0.0000 0.0000 22.0435 0.0000 0.0000
# 5 0.0000 0.0000 0.0000 0.0000 17.4232 0.0000
# 6 0.0000 0.0000 0.0000 0.0000 0.0000 8.1042
#
#
#
# Elastic Compliance Matrix: (Units=1/GPa)
#
#
# Indices 1 2 3 4 5 6 
#
# 1 0.021610 0.001419 0.002299 0.000000 0.000000 0.000000
# 2 0.001419 0.014730 -0.004755 0.000000 0.000000 0.000000
# 3 0.002299 -0.004755 0.009680 0.000000 0.000000 0.000000
# 4 0.000000 0.000000 0.000000 0.045365 0.000000 0.000000
# 5 0.000000 0.000000 0.000000 0.000000 0.057395 0.000000
# 6 0.000000 0.000000 0.000000 0.000000 0.000000 0.123393
#
#
# Mechanical properties :
#
#
# Convention : Reuss Voigt Hill
#
# Bulk Modulus (GPa) = 22.75533 32.53818 27.64675
# Shear Modulus (GPa) = 17.30732 25.73088 21.51910
#
# Velocity S-wave (km/s) = 2.77548 3.38415 3.09482
# Velocity P-wave (km/s) = 4.51654 5.45457 5.00757
#
# Compressibility (1/GPa) = 0.04394575
#
# Stress axis : x y z
#
# Youngs Moduli (GPa) = 46.27525 67.88814 103.30950
#
# Poissons Ratio (x) = -0.09633 -0.23750
# Poissons Ratio (y) = -0.06566 0.49122
# Poissons Ratio (z) = -0.10639 0.32280
#
# Static dielectric constant tensor:
#      x y z
#    x 1.834760 0.000000 0.000000 
#    y 0.000000 1.867890 0.000000 
#    z 0.000000 0.000000 1.934020 
# 
# From -- ./inp_files/55122.got.cif
#   From: 2010.05.17/outbox.cif.g08.bks.cpg/sg65_28_cif.got.tgz:55122.got - 2010.06.03 17:01:31.
