data_PCOD9486645
_publ_section_title
;
Structure prediction by ZEFSAII (Michael W. Deem and Ramdas Pophale) SiO2 
 PCOD9486645
Probable space group: C M M M
;
_chemical_formula_sum "Si O2"
_cell_formula_units_Z 104
_cell_length_a 8.678032
_cell_length_b 32.016980
_cell_length_c 23.133629
_cell_angle_alpha 90.000000
_cell_angle_beta 90.000000
_cell_angle_gamma 90.000000
_cell_volume 6427.548737
_symmetry_space_group_name_H-M "C M M M"
_symmetry_group_IT_number 65
_symmetry_cell_setting 'orthorhombic'
loop_
_space_group_symop_operation_xyz
x,y,z
-x,-y,z
x,-y,-z
-x,y,-z
-x,-y,-z
x,y,-z
-x,y,z
x,-y,z
1/2+x,1/2+y,z
1/2-x,1/2-y,z
1/2+x,1/2-y,-z
1/2-x,1/2+y,-z
1/2-x,1/2-y,-z
1/2+x,1/2+y,-z
1/2-x,1/2+y,z
1/2+x,1/2-y,z
loop_
_atom_site_type_symbol
_atom_site_label
_atom_site_fract_x
_atom_site_fract_y
_atom_site_fract_z
Si Si1 0.327741 0.950863 0.500000
Si Si2 0.319334 0.690882 0.562695
Si Si3 0.814242 0.793264 0.691988
Si Si4 0.177622 0.903528 0.398285
Si Si5 0.316874 0.118001 0.722360
Si Si6 0.685033 0.048328 0.185972
Si Si7 0.679954 0.449477 0.936824
O O1 0.500000 0.931965 0.500000
O O2 0.238656 0.936837 0.443107
O O3 0.340076 0.000000 0.500000
O O4 0.250338 0.702573 0.500000
O O5 0.500000 0.703364 0.561759
O O6 0.254959 0.705004 0.624788
O O7 0.315106 0.640852 0.568781
O O8 0.750000 0.750000 0.717187
O O9 0.759509 0.835919 0.722691
O O10 0.000000 0.793215 0.690890
O O11 0.277965 0.900119 0.340839
O O12 0.000000 0.910402 0.381927
O O13 0.500000 0.123150 0.729124
O O14 0.260950 0.083575 0.768822
O O15 0.500000 0.046713 0.190083
O O16 0.731362 0.061985 0.121238
O O17 0.740633 0.000000 0.195857
O O18 0.500000 0.437806 0.931733
O O19 0.685940 0.500000 0.938418
O O20 0.737381 0.434764 0.000000
#
# Coordination Sequence:
#
# PCOD9486645 Si02
#       7
#     8  16  16  16  16  16  16
#     4  11  23  35  47  65  88 115 150 195 247 299
#     4   8  14  27  47  67  86 109 135 173 225 281
#     4  10  20  33  50  70  94 123 158 198 245 298
#     4  10  19  33  51  67  86 114 151 194 240 290
#     4  10  20  34  51  71  98 129 162 201 246 292
#     4   9  18  31  47  69  98 133 169 203 239 281
#     4   8  14  25  42  66  97 131 164 199 237 275
#
# _framework density 16.180351999999999
#
# number of rings (size 3 to 8) (size 9 to 14) (size 15 to 20)
#    0.000    2.692    0.769    3.000    0.000    3.077 
#    0.000    3.077    0.000    0.000    0.000    0.000 
#    0.000    0.615    0.000    2.000    0.000    2.923 
#
# Total GULP energy -289480.918735 kJ/mol
# GULP energy per Si atom -5566.940745 kJ/mol
# Density = 1.614352 g / cm^3
# Si number density = 16.180352 Si / 1000 Ang^3
#
#
#
# Elastic Constant Matrix: (Units=GPa)
#
#
# Indices 1 2 3 4 5 6 
#
# 1 26.0023 24.3227 12.1021 0.0000 0.0000 0.0000
# 2 24.3227 93.4403 51.5692 0.0000 0.0000 0.0000
# 3 12.1021 51.5692 94.4951 0.0000 0.0000 0.0000
# 4 0.0000 0.0000 0.0000 -2.0407 0.0000 0.0000
# 5 0.0000 0.0000 0.0000 0.0000 21.6601 0.0000
# 6 0.0000 0.0000 0.0000 0.0000 0.0000 17.8098
#
#
#
# Elastic Compliance Matrix: (Units=1/GPa)
#
#
# Indices 1 2 3 4 5 6 
#
# 1 0.050905 -0.013813 0.001019 0.000000 0.000000 0.000000
# 2 -0.013813 0.019063 -0.008634 0.000000 0.000000 0.000000
# 3 0.001019 -0.008634 0.015164 0.000000 0.000000 0.000000
# 4 0.000000 0.000000 0.000000 -0.490035 0.000000 0.000000
# 5 0.000000 0.000000 0.000000 0.000000 0.046168 0.000000
# 6 0.000000 0.000000 0.000000 0.000000 0.000000 0.056149
#
#
# Mechanical properties :
#
#
# Convention : Reuss Voigt Hill
#
# Bulk Modulus (GPa) = 23.65473 43.32508 33.48991
# Shear Modulus (GPa) = -20.35507 15.88210 -2.23648
#
# Velocity S-wave (km/s) = -3.55069 3.13640 -1.17695
# Velocity P-wave (km/s) = 1.46927 6.32064 4.34694
#
# Compressibility (1/GPa) = 0.04227484
#
# Stress axis : x y z
#
# Youngs Moduli (GPa) = 19.64460 52.45858 65.94557
#
# Poissons Ratio (x) = 0.72460 -0.06718
# Poissons Ratio (y) = 0.27135 0.56938
# Poissons Ratio (z) = -0.02001 0.45293
#
# Static dielectric constant tensor:
#      x y z
#    x 1.558660 0.000000 0.000000 
#    y 0.000000 1.552090 0.000000 
#    z 0.000000 0.000000 0.970820 
# 
# From -- ./inp_files/60928.got.cif
#   From: 2010.05.17/outbox.cif.g08.bks.cpg/sg65_31_cif.got.tgz:60928.got - 2010.06.03 17:01:31.
