data_PCOD9486392
_publ_section_title
;
Structure prediction by ZEFSAII (Michael W. Deem and Ramdas Pophale) SiO2 
 PCOD9486392
Probable space group: C M M M
;
_chemical_formula_sum "Si O2"
_cell_formula_units_Z 96
_cell_length_a 7.489822
_cell_length_b 24.771727
_cell_length_c 26.244649
_cell_angle_alpha 90.000000
_cell_angle_beta 90.000000
_cell_angle_gamma 90.000000
_cell_volume 4869.322627
_symmetry_space_group_name_H-M "C M M M"
_symmetry_group_IT_number 65
_symmetry_cell_setting 'orthorhombic'
loop_
_space_group_symop_operation_xyz
x,y,z
-x,-y,z
x,-y,-z
-x,y,-z
-x,-y,-z
x,y,-z
-x,y,z
x,-y,z
1/2+x,1/2+y,z
1/2-x,1/2-y,z
1/2+x,1/2-y,-z
1/2-x,1/2+y,-z
1/2-x,1/2-y,-z
1/2+x,1/2+y,-z
1/2-x,1/2+y,z
1/2+x,1/2-y,z
loop_
_atom_site_type_symbol
_atom_site_label
_atom_site_fract_x
_atom_site_fract_y
_atom_site_fract_z
Si Si1 0.782487 0.937543 0.557488
Si Si2 0.784653 0.000000 0.165600
Si Si3 0.718251 0.610269 0.339296
Si Si4 0.212170 0.313179 0.943282
Si Si5 0.785812 0.813380 0.250846
Si Si6 0.708260 0.382097 0.845401
Si Si7 0.284890 0.500000 0.714575
O O1 0.724107 0.924582 0.500000
O O2 0.724133 0.897383 0.602220
O O3 0.000000 0.937387 0.557352
O O4 0.731237 0.000000 0.568783
O O5 0.715620 0.057846 0.146546
O O6 0.747644 0.000000 0.225861
O O7 0.000000 0.000000 0.156767
O O8 0.500000 0.611405 0.339790
O O9 0.777826 0.659761 0.303827
O O10 0.775912 0.555052 0.311380
O O11 0.250000 0.250000 0.934697
O O12 0.282896 0.347999 0.896845
O O13 0.000000 0.320301 0.943783
O O14 0.281330 0.326997 0.000000
O O15 0.750000 0.750000 0.246169
O O16 0.716695 0.847829 0.202299
O O17 0.000000 0.818652 0.250679
O O18 0.500000 0.390229 0.832215
O O19 0.500000 0.500000 0.709202
#
# Coordination Sequence:
#
# PCOD9486392 Si02
#       7
#    16   8  16  16  16  16   8
#     4   8  12  17  29  54  87 117 143 179 231 282
#     4   9  16  28  46  71  99 125 156 190 229 284
#     4   9  14  22  38  60  88 119 150 186 232 281
#     4  10  21  37  56  76  98 127 163 200 237 277
#     4  10  20  31  45  67  93 123 157 192 232 276
#     4  10  19  32  52  76 100 125 156 195 237 283
#     4   9  12  20  39  62  87 117 150 185 228 279
#
# _framework density 19.715267999999998
#
# number of rings (size 3 to 8) (size 9 to 14) (size 15 to 20)
#    0.000    2.667    2.500    1.500    0.000    3.000 
#    0.000    0.833    0.000    3.000    0.000    0.583 
#    0.000    0.000    0.000    1.833    0.000    1.667 
#
# Total GULP energy -267650.501435 kJ/mol
# GULP energy per Si atom -5576.052113 kJ/mol
# Density = 1.967039 g / cm^3
# Si number density = 19.715268 Si / 1000 Ang^3
#
#
#
# Elastic Constant Matrix: (Units=GPa)
#
#
# Indices 1 2 3 4 5 6 
#
# 1 51.7659 1.1820 -2.7156 0.0000 0.0000 0.0000
# 2 1.1820 143.0591 94.1499 0.0000 0.0000 0.0000
# 3 -2.7156 94.1499 127.1381 0.0000 0.0000 0.0000
# 4 0.0000 0.0000 0.0000 24.1121 0.0000 0.0000
# 5 0.0000 0.0000 0.0000 0.0000 -344.1447 0.0000
# 6 0.0000 0.0000 0.0000 0.0000 0.0000 5.7720
#
#
#
# Elastic Compliance Matrix: (Units=1/GPa)
#
#
# Indices 1 2 3 4 5 6 
#
# 1 0.019392 -0.000844 0.001039 0.000000 0.000000 0.000000
# 2 -0.000844 0.013672 -0.010143 0.000000 0.000000 0.000000
# 3 0.001039 -0.010143 0.015399 0.000000 0.000000 0.000000
# 4 0.000000 0.000000 0.000000 0.041473 0.000000 0.000000
# 5 0.000000 0.000000 0.000000 0.000000 -0.002906 0.000000
# 6 0.000000 0.000000 0.000000 0.000000 0.000000 0.173250
#
#
# Mechanical properties :
#
#
# Convention : Reuss Voigt Hill
#
# Bulk Modulus (GPa) = 35.00513 56.35507 45.68010
# Shear Modulus (GPa) = 17.25939 -47.56233 -15.15147
#
# Velocity S-wave (km/s) = 2.96198 -4.91701 -2.77522
# Velocity P-wave (km/s) = 5.43062 1.89458 3.59876
#
# Compressibility (1/GPa) = 0.02856724
#
# Stress axis : x y z
#
# Youngs Moduli (GPa) = 51.56884 73.14090 64.94049
#
# Poissons Ratio (x) = 0.06175 -0.06750
# Poissons Ratio (y) = 0.04354 0.65868
# Poissons Ratio (z) = -0.05360 0.74185
#
# Static dielectric constant tensor:
#      x y z
#    x 1.811800 0.000000 0.000000 
#    y 0.000000 1.669200 0.000000 
#    z 0.000000 0.000000 1.695910 
# 
# From -- ./inp_files/73526.got.cif
#   From: 2010.05.17/outbox.cif.g08.bks.cpg/sg65_37_cif.got.tgz:73526.got - 2010.06.03 17:01:31.
