data_PCOD9486847
_publ_section_title
;
Structure prediction by ZEFSAII (Michael W. Deem and Ramdas Pophale) SiO2 
 PCOD9486847
Probable space group: C M M M
;
_chemical_formula_sum "Si O2"
_cell_formula_units_Z 80
_cell_length_a 7.325910
_cell_length_b 15.953317
_cell_length_c 29.379130
_cell_angle_alpha 90.000000
_cell_angle_beta 90.000000
_cell_angle_gamma 90.000000
_cell_volume 3433.614267
_symmetry_space_group_name_H-M "C M M M"
_symmetry_group_IT_number 65
_symmetry_cell_setting 'orthorhombic'
loop_
_space_group_symop_operation_xyz
x,y,z
-x,-y,z
x,-y,-z
-x,y,-z
-x,-y,-z
x,y,-z
-x,y,z
x,-y,z
1/2+x,1/2+y,z
1/2-x,1/2-y,z
1/2+x,1/2-y,-z
1/2-x,1/2+y,-z
1/2-x,1/2-y,-z
1/2+x,1/2+y,-z
1/2-x,1/2+y,z
1/2+x,1/2-y,z
loop_
_atom_site_type_symbol
_atom_site_label
_atom_site_fract_x
_atom_site_fract_y
_atom_site_fract_z
Si Si1 0.779642 0.096283 0.794324
Si Si2 0.782237 0.150310 0.303852
Si Si3 0.281763 0.350865 0.500000
Si Si4 0.282830 0.657518 0.888838
Si Si5 0.781834 0.850834 0.597978
Si Si6 0.276514 0.500000 0.947661
O O1 0.709831 0.115495 0.743761
O O2 0.711807 0.150089 0.836938
O O3 0.000000 0.106748 0.791652
O O4 0.743125 0.000000 0.805899
O O5 0.750000 0.250000 0.302699
O O6 0.712261 0.118341 0.352944
O O7 0.000000 0.134866 0.304384
O O8 0.500000 0.364178 0.500000
O O9 0.250000 0.250000 0.500000
O O10 0.212065 0.382431 0.548995
O O11 0.500000 0.645599 0.885662
O O12 0.250000 0.750000 0.907259
O O13 0.215619 0.582638 0.920551
O O14 0.750000 0.750000 0.598096
O O15 0.000000 0.864231 0.597824
O O16 0.500000 0.500000 0.947712
O O17 0.218975 0.500000 0.000000
#
# Coordination Sequence:
#
# PCOD9486847 Si02
#       6
#    16  16   8  16  16   8
#     4   9  16  28  46  66  88 118 155 190 224 273
#     4   9  16  25  39  59  82 106 137 177 220 265
#     4   8  12  18  28  42  65  95 125 157 201 254
#     4  10  19  33  54  77 101 131 167 204 243 286
#     4   8  13  20  30  47  70  97 127 163 207 255
#     4   9  18  34  55  77 103 137 173 202 234 288
#
# _framework density 23.299064999999999
#
# number of rings (size 3 to 8) (size 9 to 14) (size 15 to 20)
#    0.000    3.100    1.000    0.600    0.000    0.400 
#    0.000    0.500    0.000    2.400    0.000    0.700 
#    0.000    5.600    0.000    0.000    0.000  190.200 
#
# Total GULP energy -223082.806482 kJ/mol
# GULP energy per Si atom -5577.070162 kJ/mol
# Density = 2.324604 g / cm^3
# Si number density = 23.299065 Si / 1000 Ang^3
#
#
#
# Elastic Constant Matrix: (Units=GPa)
#
#
# Indices 1 2 3 4 5 6 
#
# 1 97.9390 -5.6337 13.1530 0.0000 0.0000 0.0000
# 2 -5.6337 85.3967 77.5004 0.0000 0.0000 0.0000
# 3 13.1530 77.5004 221.9575 0.0000 0.0000 0.0000
# 4 0.0000 0.0000 0.0000 31.7846 0.0000 0.0000
# 5 0.0000 0.0000 0.0000 0.0000 -1.9744 0.0000
# 6 0.0000 0.0000 0.0000 0.0000 0.0000 4.0907
#
#
#
# Elastic Compliance Matrix: (Units=1/GPa)
#
#
# Indices 1 2 3 4 5 6 
#
# 1 0.010486 0.001838 -0.001263 0.000000 0.000000 0.000000
# 2 0.001838 0.017464 -0.006207 0.000000 0.000000 0.000000
# 3 -0.001263 -0.006207 0.006747 0.000000 0.000000 0.000000
# 4 0.000000 0.000000 0.000000 0.031462 0.000000 0.000000
# 5 0.000000 0.000000 0.000000 0.000000 -0.506494 0.000000
# 6 0.000000 0.000000 0.000000 0.000000 0.000000 0.244455
#
#
# Mechanical properties :
#
#
# Convention : Reuss Voigt Hill
#
# Bulk Modulus (GPa) = 42.67359 63.92585 53.29972
# Shear Modulus (GPa) = -28.27982 28.13176 -0.07403
#
# Velocity S-wave (km/s) = -3.48771 3.47856 -0.17845
# Velocity P-wave (km/s) = 1.46169 6.60534 4.78367
#
# Compressibility (1/GPa) = 0.02343370
#
# Stress axis : x y z
#
# Youngs Moduli (GPa) = 95.36685 57.25972 148.20371
#
# Poissons Ratio (x) = -0.10525 0.18721
# Poissons Ratio (y) = -0.17530 0.91988
# Poissons Ratio (z) = 0.12047 0.35540
#
# Static dielectric constant tensor:
#      x y z
#    x 1.862190 0.000000 0.000000 
#    y 0.000000 1.827780 0.000000 
#    z 0.000000 0.000000 1.922440 
# 
# From -- ./inp_files/77225.got.cif
#   From: 2010.05.17/outbox.cif.g08.bks.cpg/sg65_39_cif.got.tgz:77225.got - 2010.06.03 17:01:31.
