data_PCOD9486765
_publ_section_title
;
Structure prediction by ZEFSAII (Michael W. Deem and Ramdas Pophale) SiO2 
 PCOD9486765
Probable space group: C M M M
;
_chemical_formula_sum "Si O2"
_cell_formula_units_Z 88
_cell_length_a 19.182756
_cell_length_b 8.986871
_cell_length_c 29.630502
_cell_angle_alpha 90.000000
_cell_angle_beta 90.000000
_cell_angle_gamma 90.000000
_cell_volume 5108.089756
_symmetry_space_group_name_H-M "C M M M"
_symmetry_group_IT_number 65
_symmetry_cell_setting 'orthorhombic'
loop_
_space_group_symop_operation_xyz
x,y,z
-x,-y,z
x,-y,-z
-x,y,-z
-x,-y,-z
x,y,-z
-x,y,z
x,-y,z
1/2+x,1/2+y,z
1/2-x,1/2-y,z
1/2+x,1/2-y,-z
1/2-x,1/2+y,-z
1/2-x,1/2-y,-z
1/2+x,1/2+y,-z
1/2-x,1/2+y,z
1/2+x,1/2-y,z
loop_
_atom_site_type_symbol
_atom_site_label
_atom_site_fract_x
_atom_site_fract_y
_atom_site_fract_z
Si Si1 0.915215 0.171492 0.728512
Si Si2 0.326342 0.678137 0.000000
Si Si3 0.826016 0.679334 0.550552
Si Si4 0.172732 0.820993 0.900914
Si Si5 0.418047 0.821352 0.635596
Si Si6 0.083116 0.676667 0.178015
O O1 0.892245 0.244849 0.681551
O O2 0.894103 0.260398 0.773233
O O3 0.000000 0.175661 0.727748
O O4 0.893490 0.000000 0.731471
O O5 0.250000 0.750000 0.000000
O O6 0.357278 0.717691 0.048934
O O7 0.319123 0.500000 0.000000
O O8 0.851630 0.718823 0.500000
O O9 0.820252 0.500000 0.552184
O O10 0.750000 0.750000 0.556138
O O11 0.875996 0.725821 0.591267
O O12 0.250000 0.750000 0.897656
O O13 0.124702 0.756776 0.861702
O O14 0.177788 0.000000 0.897394
O O15 0.500000 0.786983 0.629912
O O16 0.412072 0.000000 0.640587
O O17 0.094393 0.500000 0.176263
O O18 0.000000 0.704476 0.173472
#
# Coordination Sequence:
#
# PCOD9486765 Si02
#       6
#    16   8  16  16  16  16
#     4   9  17  30  49  72  97 126 160 198 243 294
#     4   8  16  30  49  72  97 129 165 201 243 292
#     4   9  18  32  49  69  95 128 161 192 232 283
#     4  10  19  33  53  76 102 131 166 206 248 294
#     4   9  17  30  49  72  96 122 156 199 241 281
#     4  10  20  34  52  74 101 133 168 205 247 295
#
# _framework density 17.227575000000002
#
# number of rings (size 3 to 8) (size 9 to 14) (size 15 to 20)
#    0.000    2.727    0.000    1.636    0.000    5.091 
#    0.000    3.182    0.000    4.909    0.000    5.091 
#    0.000    0.000    0.000    0.000    0.000    0.000 
#
# Total GULP energy -245154.460086 kJ/mol
# GULP energy per Si atom -5571.692275 kJ/mol
# Density = 1.718836 g / cm^3
# Si number density = 17.227575 Si / 1000 Ang^3
#
#
#
# Elastic Constant Matrix: (Units=GPa)
#
#
# Indices 1 2 3 4 5 6 
#
# 1 36.8168 36.4644 68.5104 0.0000 0.0000 0.0000
# 2 36.4644 57.9630 75.4118 0.0000 0.0000 0.0000
# 3 68.5104 75.4118 217.0574 0.0000 0.0000 0.0000
# 4 0.0000 0.0000 0.0000 29.7110 0.0000 0.0000
# 5 0.0000 0.0000 0.0000 0.0000 42.2977 0.0000
# 6 0.0000 0.0000 0.0000 0.0000 0.0000 22.5123
#
#
#
# Elastic Compliance Matrix: (Units=1/GPa)
#
#
# Indices 1 2 3 4 5 6 
#
# 1 0.098570 -0.039294 -0.017460 0.000000 0.000000 0.000000
# 2 -0.039294 0.047148 -0.003978 0.000000 0.000000 0.000000
# 3 -0.017460 -0.003978 0.011500 0.000000 0.000000 0.000000
# 4 0.000000 0.000000 0.000000 0.033658 0.000000 0.000000
# 5 0.000000 0.000000 0.000000 0.000000 0.023642 0.000000
# 6 0.000000 0.000000 0.000000 0.000000 0.000000 0.044420
#
#
# Mechanical properties :
#
#
# Convention : Reuss Voigt Hill
#
# Bulk Modulus (GPa) = 27.96926 74.73449 51.35188
# Shear Modulus (GPa) = 12.74470 27.66756 20.20613
#
# Velocity S-wave (km/s) = 2.72285 4.01185 3.42847
# Velocity P-wave (km/s) = 5.11426 8.05821 6.74872
#
# Compressibility (1/GPa) = 0.03575354
#
# Stress axis : x y z
#
# Youngs Moduli (GPa) = 10.14507 21.20991 86.95615
#
# Poissons Ratio (x) = 0.83343 1.51825
# Poissons Ratio (y) = 0.39864 0.34590
# Poissons Ratio (z) = 0.17713 0.08437
#
# Static dielectric constant tensor:
#      x y z
#    x 1.554980 0.000000 0.000000 
#    y 0.000000 1.579580 0.000000 
#    z 0.000000 0.000000 1.601630 
# 
# From -- ./inp_files/67539.got.cif
#   From: 2010.05.17/outbox.cif.g08.bks.cpg/sg65_34_cif.got.tgz:67539.got - 2010.06.03 17:01:31.
