data_PCOD9486191
_publ_section_title
;
Structure prediction by ZEFSAII (Michael W. Deem and Ramdas Pophale) SiO2 
 PCOD9486191
Probable space group: C M M M
;
_chemical_formula_sum "Si O2"
_cell_formula_units_Z 72
_cell_length_a 7.764248
_cell_length_b 19.964908
_cell_length_c 25.579671
_cell_angle_alpha 90.000000
_cell_angle_beta 90.000000
_cell_angle_gamma 90.000000
_cell_volume 3965.168674
_symmetry_space_group_name_H-M "C M M M"
_symmetry_group_IT_number 65
_symmetry_cell_setting 'orthorhombic'
loop_
_space_group_symop_operation_xyz
x,y,z
-x,-y,z
x,-y,-z
-x,y,-z
-x,-y,-z
x,y,-z
-x,y,z
x,-y,z
1/2+x,1/2+y,z
1/2-x,1/2-y,z
1/2+x,1/2-y,-z
1/2-x,1/2+y,-z
1/2-x,1/2-y,-z
1/2+x,1/2+y,-z
1/2-x,1/2+y,z
1/2+x,1/2-y,z
loop_
_atom_site_type_symbol
_atom_site_label
_atom_site_fract_x
_atom_site_fract_y
_atom_site_fract_z
Si Si1 0.695438 0.578722 0.863478
Si Si2 0.206414 0.672323 0.231273
Si Si3 0.500000 0.918703 0.940543
Si Si4 0.292830 0.172917 0.349362
Si Si5 0.210354 0.577373 0.558555
O O1 0.500000 0.584376 0.882821
O O2 0.728105 0.500000 0.851377
O O3 0.717534 0.623203 0.811897
O O4 0.832532 0.600564 0.907085
O O5 0.250000 0.750000 0.220432
O O6 0.268824 0.657533 0.290444
O O7 0.000000 0.664890 0.230001
O O8 0.500000 0.000000 0.943015
O O9 0.500000 0.893752 0.000000
O O10 0.500000 0.166798 0.348074
O O11 0.250000 0.250000 0.360685
O O12 0.227395 0.124526 0.394878
O O13 0.264277 0.598194 0.500000
O O14 0.260591 0.500000 0.566363
O O15 0.000000 0.578905 0.558945
#
# Coordination Sequence:
#
# PCOD9486191 Si02
#       5
#    16  16   8  16  16
#     4  10  20  34  54  82 111 140 179 221 262 314
#     4  10  19  32  50  73 102 138 176 217 268 322
#     4   9  18  34  56  82 112 144 178 218 262 307
#     4   9  18  30  46  69  96 125 163 208 254 307
#     4   8  14  26  44  66  92 124 165 209 253 303
#
# _framework density 18.158117000000001
#
# number of rings (size 3 to 8) (size 9 to 14) (size 15 to 20)
#    0.000    2.778    1.111    1.333    0.000    2.667 
#    0.000    4.444    0.000    1.333    0.000    1.556 
#    0.000    0.000    0.000    0.000    0.000    0.000 
#
# Total GULP energy -200738.112329 kJ/mol
# GULP energy per Si atom -5576.058676 kJ/mol
# Density = 1.811679 g / cm^3
# Si number density = 18.158117 Si / 1000 Ang^3
#
#
#
# Elastic Constant Matrix: (Units=GPa)
#
#
# Indices 1 2 3 4 5 6 
#
# 1 66.6770 27.4939 46.7637 0.0000 0.0000 0.0000
# 2 27.4939 65.9052 92.0482 0.0000 0.0000 0.0000
# 3 46.7637 92.0482 176.0807 0.0000 0.0000 0.0000
# 4 0.0000 0.0000 0.0000 -194.9691 0.0000 0.0000
# 5 0.0000 0.0000 0.0000 0.0000 4.4419 0.0000
# 6 0.0000 0.0000 0.0000 0.0000 0.0000 20.8770
#
#
#
# Elastic Compliance Matrix: (Units=1/GPa)
#
#
# Indices 1 2 3 4 5 6 
#
# 1 0.018610 -0.003189 -0.003275 0.000000 0.000000 0.000000
# 2 -0.003189 0.056771 -0.028831 0.000000 0.000000 0.000000
# 3 -0.003275 -0.028831 0.021621 0.000000 0.000000 0.000000
# 4 0.000000 0.000000 0.000000 -0.005129 0.000000 0.000000
# 5 0.000000 0.000000 0.000000 0.000000 0.225130 0.000000
# 6 0.000000 0.000000 0.000000 0.000000 0.000000 0.047900
#
#
# Mechanical properties :
#
#
# Convention : Reuss Voigt Hill
#
# Bulk Modulus (GPa) = 37.86251 71.25271 54.55761
# Shear Modulus (GPa) = 11.25379 -24.43956 -6.59288
#
# Velocity S-wave (km/s) = 2.49221 -3.67267 -1.90754
# Velocity P-wave (km/s) = 5.40170 4.61959 5.02588
#
# Compressibility (1/GPa) = 0.02641135
#
# Stress axis : x y z
#
# Youngs Moduli (GPa) = 53.73520 17.61477 46.25220
#
# Poissons Ratio (x) = 0.05617 0.15149
# Poissons Ratio (y) = 0.17135 1.33348
# Poissons Ratio (z) = 0.17600 0.50784
#
# Static dielectric constant tensor:
#      x y z
#    x 1.657090 0.000000 0.000000 
#    y 0.000000 1.587870 0.000000 
#    z 0.000000 0.000000 1.615240 
# 
# From -- ./inp_files/67205.got.cif
#   From: 2010.05.17/outbox.cif.g08.bks.cpg/sg65_34_cif.got.tgz:67205.got - 2010.06.03 17:01:31.
