data_PCOD9486577
_publ_section_title
;
Structure prediction by ZEFSAII (Michael W. Deem and Ramdas Pophale) SiO2 
 PCOD9486577
Probable space group: C M M M
;
_chemical_formula_sum "Si O2"
_cell_formula_units_Z 88
_cell_length_a 31.463593
_cell_length_b 8.432515
_cell_length_c 18.159718
_cell_angle_alpha 90.000000
_cell_angle_beta 90.000000
_cell_angle_gamma 90.000000
_cell_volume 4818.085894
_symmetry_space_group_name_H-M "C M M M"
_symmetry_group_IT_number 65
_symmetry_cell_setting 'orthorhombic'
loop_
_space_group_symop_operation_xyz
x,y,z
-x,-y,z
x,-y,-z
-x,y,-z
-x,-y,-z
x,y,-z
-x,y,z
x,-y,z
1/2+x,1/2+y,z
1/2-x,1/2-y,z
1/2+x,1/2-y,-z
1/2-x,1/2+y,-z
1/2-x,1/2-y,-z
1/2+x,1/2+y,-z
1/2-x,1/2+y,z
1/2+x,1/2-y,z
loop_
_atom_site_type_symbol
_atom_site_label
_atom_site_fract_x
_atom_site_fract_y
_atom_site_fract_z
Si Si1 0.176509 0.808262 0.080335
Si Si2 0.912699 0.812695 0.852811
Si Si3 0.204873 0.811023 0.759310
Si Si4 0.047765 0.693379 0.585535
Si Si5 0.618033 0.813120 0.300108
Si Si6 0.500000 0.181989 0.912187
O O1 0.126354 0.775771 0.092314
O O2 0.197907 0.749518 0.156124
O O3 0.181573 0.000000 0.079298
O O4 0.190689 0.747457 0.000000
O O5 0.904752 0.719119 0.777665
O O6 0.957814 0.768637 0.885333
O O7 0.909823 0.000000 0.836694
O O8 0.250000 0.750000 0.731822
O O9 0.164642 0.760983 0.710312
O O10 0.205317 0.000000 0.763030
O O11 0.053316 0.737903 0.500000
O O12 0.047872 0.500000 0.588516
O O13 0.086298 0.749642 0.636781
O O14 0.000000 0.743609 0.609197
O O15 0.623549 0.000000 0.311590
O O16 0.500000 0.000000 0.885309
O O17 0.500000 0.180284 0.000000
#
# Coordination Sequence:
#
# PCOD9486577 Si02
#       6
#    16  16  16  16  16   8
#     4   8  15  29  48  68  92 124 163 208 258 309
#     4  10  20  33  49  70  98 136 176 214 256 311
#     4  10  20  34  52  74 102 134 174 220 268 319
#     4   8  15  29  51  81 113 142 172 206 249 306
#     4  10  19  32  54  80 107 138 172 213 259 307
#     4  11  23  35  47  67  96 131 176 227 271 312
#
# _framework density 18.264513999999998
#
# number of rings (size 3 to 8) (size 9 to 14) (size 15 to 20)
#    0.000    2.636    0.000    4.091    1.273    1.818 
#    0.000    0.000    0.000   13.091    0.000    5.091 
#    0.000    0.000    0.000    0.000    0.000    0.000 
#
# Total GULP energy -245295.641465 kJ/mol
# GULP energy per Si atom -5574.900942 kJ/mol
# Density = 1.822294 g / cm^3
# Si number density = 18.264514 Si / 1000 Ang^3
#
#
#
# Elastic Constant Matrix: (Units=GPa)
#
#
# Indices 1 2 3 4 5 6 
#
# 1 145.8493 19.0994 55.7095 0.0000 0.0000 0.0000
# 2 19.0994 23.1342 8.0851 0.0000 0.0000 0.0000
# 3 55.7095 8.0851 75.6208 0.0000 0.0000 0.0000
# 4 0.0000 0.0000 0.0000 10.2615 0.0000 0.0000
# 5 0.0000 0.0000 0.0000 0.0000 5.9669 0.0000
# 6 0.0000 0.0000 0.0000 0.0000 0.0000 22.0401
#
#
#
# Elastic Compliance Matrix: (Units=1/GPa)
#
#
# Indices 1 2 3 4 5 6 
#
# 1 0.010304 -0.006081 -0.006941 0.000000 0.000000 0.000000
# 2 -0.006081 0.048493 -0.000705 0.000000 0.000000 0.000000
# 3 -0.006941 -0.000705 0.018412 0.000000 0.000000 0.000000
# 4 0.000000 0.000000 0.000000 0.097452 0.000000 0.000000
# 5 0.000000 0.000000 0.000000 0.000000 0.167593 0.000000
# 6 0.000000 0.000000 0.000000 0.000000 0.000000 0.045372
#
#
# Mechanical properties :
#
#
# Convention : Reuss Voigt Hill
#
# Bulk Modulus (GPa) = 20.09805 45.59914 32.84859
# Shear Modulus (GPa) = 11.58309 18.43437 15.00873
#
# Velocity S-wave (km/s) = 2.52104 3.18039 2.86972
# Velocity P-wave (km/s) = 4.41610 6.20538 5.38557
#
# Compressibility (1/GPa) = 0.04975608
#
# Stress axis : x y z
#
# Youngs Moduli (GPa) = 97.05166 20.62158 54.31142
#
# Poissons Ratio (x) = 0.12540 0.37695
# Poissons Ratio (y) = 0.59018 0.03828
# Poissons Ratio (z) = 0.67360 0.01453
#
# Static dielectric constant tensor:
#      x y z
#    x 1.627660 0.000000 0.000000 
#    y 0.000000 1.637400 0.000000 
#    z 0.000000 0.000000 1.625160 
# 
# From -- ./inp_files/50450.got.cif
#   From: 2010.05.17/outbox.cif.g08.bks.cpg/sg65_26_cif.got.tgz:50450.got - 2010.06.03 17:01:31.
