data_PCOD9486187
_publ_section_title
;
Structure prediction by ZEFSAII (Michael W. Deem and Ramdas Pophale) SiO2 
 PCOD9486187
Probable space group: C M M M
;
_chemical_formula_sum "Si O2"
_cell_formula_units_Z 88
_cell_length_a 26.272913
_cell_length_b 9.122588
_cell_length_c 21.553701
_cell_angle_alpha 90.000000
_cell_angle_beta 90.000000
_cell_angle_gamma 90.000000
_cell_volume 5165.925551
_symmetry_space_group_name_H-M "C M M M"
_symmetry_group_IT_number 65
_symmetry_cell_setting 'orthorhombic'
loop_
_space_group_symop_operation_xyz
x,y,z
-x,-y,z
x,-y,-z
-x,y,-z
-x,-y,-z
x,y,-z
-x,y,z
x,-y,z
1/2+x,1/2+y,z
1/2-x,1/2-y,z
1/2+x,1/2-y,-z
1/2-x,1/2+y,-z
1/2-x,1/2-y,-z
1/2+x,1/2+y,-z
1/2-x,1/2+y,z
1/2+x,1/2-y,z
loop_
_atom_site_type_symbol
_atom_site_label
_atom_site_fract_x
_atom_site_fract_y
_atom_site_fract_z
Si Si1 0.693781 0.323138 0.137709
Si Si2 0.195408 0.825720 0.000000
Si Si3 0.500000 0.669602 0.212873
Si Si4 0.000000 0.168296 0.363860
Si Si5 0.105014 0.672289 0.213916
Si Si6 0.396927 0.829021 0.636518
Si Si7 0.302151 0.670789 0.574582
O O1 0.697890 0.500000 0.144788
O O2 0.750000 0.250000 0.144109
O O3 0.653269 0.254922 0.184865
O O4 0.673168 0.289708 0.067594
O O5 0.250000 0.750000 0.000000
O O6 0.202536 0.000000 0.000000
O O7 0.500000 0.500000 0.192501
O O8 0.500000 0.669068 0.288351
O O9 0.448237 0.752394 0.193935
O O10 0.050813 0.251751 0.383459
O O11 0.000000 0.000000 0.384427
O O12 0.105515 0.500000 0.197488
O O13 0.107102 0.682411 0.288760
O O14 0.349558 0.748995 0.605874
O O15 0.397625 0.000000 0.620178
O O16 0.306550 0.681631 0.500000
O O17 0.300405 0.500000 0.591417
O O18 0.250000 0.750000 0.593220
#
# Coordination Sequence:
#
# PCOD9486187 Si02
#       7
#    16   8   8   8  16  16  16
#     4  10  19  32  50  73 101 132 166 205 249 296
#     4   8  16  30  48  69  94 127 166 204 244 292
#     4   9  17  31  51  73  97 131 169 202 243 294
#     4   9  17  31  52  76 102 130 163 203 246 294
#     4  10  20  33  50  75 104 133 165 203 246 293
#     4  10  20  34  53  76 103 133 165 203 247 294
#     4  10  21  37  56  76  99 130 168 207 247 295
#
# _framework density 17.034700999999998
#
# number of rings (size 3 to 8) (size 9 to 14) (size 15 to 20)
#    0.000    2.364    0.000    2.727    0.000    6.909 
#    0.000    0.455    0.000    3.273    0.000    3.818 
#    0.000    0.000    0.000    0.000    0.000    0.000 
#
# Total GULP energy -245317.573641 kJ/mol
# GULP energy per Si atom -5575.399401 kJ/mol
# Density = 1.699593 g / cm^3
# Si number density = 17.034701 Si / 1000 Ang^3
#
#
#
# Elastic Constant Matrix: (Units=GPa)
#
#
# Indices 1 2 3 4 5 6 
#
# 1 170.9704 106.4698 42.0197 0.0000 0.0000 0.0000
# 2 106.4698 162.7544 46.0769 0.0000 0.0000 0.0000
# 3 42.0197 46.0769 8.6751 0.0000 0.0000 0.0000
# 4 0.0000 0.0000 0.0000 21.6972 0.0000 0.0000
# 5 0.0000 0.0000 0.0000 0.0000 -89.7422 0.0000
# 6 0.0000 0.0000 0.0000 0.0000 0.0000 37.0260
#
#
#
# Elastic Compliance Matrix: (Units=1/GPa)
#
#
# Indices 1 2 3 4 5 6 
#
# 1 0.007485 -0.010656 0.020345 0.000000 0.000000 0.000000
# 2 -0.010656 0.002973 0.035825 0.000000 0.000000 0.000000
# 3 0.020345 0.035825 -0.173554 0.000000 0.000000 0.000000
# 4 0.000000 0.000000 0.000000 0.046089 0.000000 0.000000
# 5 0.000000 0.000000 0.000000 0.000000 -0.011143 0.000000
# 6 0.000000 0.000000 0.000000 0.000000 0.000000 0.027008
#
#
# Mechanical properties :
#
#
# Convention : Reuss Voigt Hill
#
# Bulk Modulus (GPa) = -13.87573 81.28143 33.70285
# Shear Modulus (GPa) = -23.12745 3.65179 -9.73783
#
# Velocity S-wave (km/s) = -3.68865 1.46574 -2.39351
# Velocity P-wave (km/s) = 5.12882 7.11922 3.49131
#
# Compressibility (1/GPa) = -0.07206827
#
# Stress axis : x y z
#
# Youngs Moduli (GPa) = 133.60579 336.38039 -5.76190
#
# Poissons Ratio (x) = 3.58451 0.11723
# Poissons Ratio (y) = 1.42372 0.20642
# Poissons Ratio (z) = -2.71821 -12.05088
#
# Static dielectric constant tensor:
#      x y z
#    x 1.537590 0.000000 0.000000 
#    y 0.000000 1.569020 0.000000 
#    z 0.000000 0.000000 1.589580 
# 
# From -- ./inp_files/65263.got.cif
#   From: 2010.05.17/outbox.cif.g08.bks.cpg/sg65_33_cif.got.tgz:65263.got - 2010.06.03 17:01:31.
