data_PCOD9486554
_publ_section_title
;
Structure prediction by ZEFSAII (Michael W. Deem and Ramdas Pophale) SiO2 
 PCOD9486554
Probable space group: C M M M
;
_chemical_formula_sum "Si O2"
_cell_formula_units_Z 104
_cell_length_a 23.283375
_cell_length_b 25.734774
_cell_length_c 7.531467
_cell_angle_alpha 90.000000
_cell_angle_beta 90.000000
_cell_angle_gamma 90.000000
_cell_volume 4512.797739
_symmetry_space_group_name_H-M "C M M M"
_symmetry_group_IT_number 65
_symmetry_cell_setting 'orthorhombic'
loop_
_space_group_symop_operation_xyz
x,y,z
-x,-y,z
x,-y,-z
-x,y,-z
-x,-y,-z
x,y,-z
-x,y,z
x,-y,z
1/2+x,1/2+y,z
1/2-x,1/2-y,z
1/2+x,1/2-y,-z
1/2-x,1/2+y,-z
1/2-x,1/2-y,-z
1/2+x,1/2+y,-z
1/2-x,1/2+y,z
1/2+x,1/2-y,z
loop_
_atom_site_type_symbol
_atom_site_label
_atom_site_fract_x
_atom_site_fract_y
_atom_site_fract_z
Si Si1 0.000000 0.357302 0.743834
Si Si2 0.934215 0.149711 0.216357
Si Si3 0.585910 0.232171 0.790861
Si Si4 0.354375 0.556657 0.207521
Si Si5 0.273377 0.083633 0.299284
Si Si6 0.782461 0.700272 0.208399
Si Si7 0.401739 0.059424 0.716486
O O1 0.048725 0.312566 0.705078
O O2 0.050987 0.400249 0.781835
O O3 0.921863 0.208956 0.274728
O O4 0.888908 0.106452 0.280590
O O5 0.000000 0.136201 0.261975
O O6 0.930217 0.151671 0.000000
O O7 0.651211 0.214691 0.781569
O O8 0.568018 0.231219 0.000000
O O9 0.368931 0.500000 0.285393
O O10 0.285624 0.563808 0.216243
O O11 0.370020 0.554928 0.000000
O O12 0.273833 0.063551 0.500000
O O13 0.269951 0.145868 0.297321
O O14 0.336138 0.069918 0.222096
O O15 0.750000 0.750000 0.281956
O O16 0.765883 0.694132 0.000000
O O17 0.402979 0.064982 0.500000
O O18 0.416512 0.000000 0.758406
#
# Coordination Sequence:
#
# PCOD9486554 Si02
#       7
#     8  16  16  16  16  16  16
#     4  12  19  33  56  79 109 147 192 243 286 339
#     4   9  17  32  56  86 117 150 188 231 284 341
#     4  10  19  32  53  82 115 148 184 229 283 349
#     4  10  21  37  59  88 119 151 194 244 291 346
#     4  11  22  38  59  85 116 151 195 244 294 349
#     4  10  20  36  59  85 115 153 194 237 288 346
#     4  10  22  39  58  80 107 146 197 245 289 343
#
# _framework density 23.045572
#
# number of rings (size 3 to 8) (size 9 to 14) (size 15 to 20)
#    0.000    1.846    2.308    2.538    0.000    4.615 
#    0.000    1.538    0.000    7.846    0.000    1.077 
#    0.000    0.000    0.000    0.000    0.000    0.000 
#
# Total GULP energy -289577.070201 kJ/mol
# GULP energy per Si atom -5568.789812 kJ/mol
# Density = 2.299312 g / cm^3
# Si number density = 23.045572 Si / 1000 Ang^3
#
#
#
# Elastic Constant Matrix: (Units=GPa)
#
#
# Indices 1 2 3 4 5 6 
#
# 1 58.4265 71.1064 6.4426 0.0000 0.0000 0.0000
# 2 71.1064 220.1033 11.3167 0.0000 0.0000 0.0000
# 3 6.4426 11.3167 56.3244 0.0000 0.0000 0.0000
# 4 0.0000 0.0000 0.0000 -10.5287 0.0000 0.0000
# 5 0.0000 0.0000 0.0000 0.0000 96.5890 0.0000
# 6 0.0000 0.0000 0.0000 0.0000 0.0000 2.7955
#
#
#
# Elastic Compliance Matrix: (Units=1/GPa)
#
#
# Indices 1 2 3 4 5 6 
#
# 1 0.028316 -0.009075 -0.001416 0.000000 0.000000 0.000000
# 2 -0.009075 0.007499 -0.000469 0.000000 0.000000 0.000000
# 3 -0.001416 -0.000469 0.018010 0.000000 0.000000 0.000000
# 4 0.000000 0.000000 0.000000 -0.094979 0.000000 0.000000
# 5 0.000000 0.000000 0.000000 0.000000 0.010353 0.000000
# 6 0.000000 0.000000 0.000000 0.000000 0.000000 0.357719
#
#
# Mechanical properties :
#
#
# Convention : Reuss Voigt Hill
#
# Bulk Modulus (GPa) = 31.34093 56.95396 44.14744
# Shear Modulus (GPa) = 13.90924 34.17040 24.03982
#
# Velocity S-wave (km/s) = 2.45940 3.85480 3.23328
# Velocity P-wave (km/s) = 4.65767 6.67682 5.75647
#
# Compressibility (1/GPa) = 0.03190716
#
# Stress axis : x y z
#
# Youngs Moduli (GPa) = 35.31566 133.34803 55.52351
#
# Poissons Ratio (x) = 1.21013 0.07860
# Poissons Ratio (y) = 0.32049 0.02602
# Poissons Ratio (z) = 0.04999 0.06250
#
# Static dielectric constant tensor:
#      x y z
#    x 1.814820 0.000000 0.000000 
#    y 0.000000 1.834870 0.000000 
#    z 0.000000 0.000000 1.965780 
# 
# From -- ./inp_files/12439.got.cif
#   From: 2010.05.17/outbox.cif.g08.bks.cpg/sg65_7_cif.got.tgz:12439.got - 2010.06.03 17:01:31.
