data_PCOD9486875
_publ_section_title
;
Structure prediction by ZEFSAII (Michael W. Deem and Ramdas Pophale) SiO2 
 PCOD9486875
Probable space group: C M M M
;
_chemical_formula_sum "Si O2"
_cell_formula_units_Z 104
_cell_length_a 20.140312
_cell_length_b 8.742503
_cell_length_c 34.223944
_cell_angle_alpha 90.000000
_cell_angle_beta 90.000000
_cell_angle_gamma 90.000000
_cell_volume 6026.040424
_symmetry_space_group_name_H-M "C M M M"
_symmetry_group_IT_number 65
_symmetry_cell_setting 'orthorhombic'
loop_
_space_group_symop_operation_xyz
x,y,z
-x,-y,z
x,-y,-z
-x,y,-z
-x,-y,-z
x,y,-z
-x,y,z
x,-y,z
1/2+x,1/2+y,z
1/2-x,1/2-y,z
1/2+x,1/2-y,-z
1/2-x,1/2+y,-z
1/2-x,1/2-y,-z
1/2+x,1/2+y,-z
1/2-x,1/2+y,z
1/2+x,1/2-y,z
loop_
_atom_site_type_symbol
_atom_site_label
_atom_site_fract_x
_atom_site_fract_y
_atom_site_fract_z
Si Si1 0.822954 0.316883 0.392305
Si Si2 0.423114 0.815585 0.235605
Si Si3 0.322789 0.184501 0.696803
Si Si4 0.675162 0.815928 0.085949
Si Si5 0.922718 0.816831 0.150760
Si Si6 0.922877 0.184316 0.455432
Si Si7 0.824085 0.683756 0.000000
O O1 0.819974 0.500000 0.393857
O O2 0.750000 0.250000 0.400416
O O3 0.840898 0.270944 0.347678
O O4 0.875256 0.256561 0.423523
O O5 0.500000 0.777234 0.243965
O O6 0.375524 0.765642 0.270740
O O7 0.405162 0.742019 0.194104
O O8 0.418610 0.000000 0.231993
O O9 0.250000 0.250000 0.705205
O O10 0.319646 0.000000 0.697783
O O11 0.750000 0.750000 0.090035
O O12 0.626604 0.753304 0.119011
O O13 0.678687 0.000000 0.088164
O O14 0.648161 0.771346 0.042469
O O15 0.000000 0.772443 0.143578
O O16 0.918576 0.000000 0.149670
O O17 0.905262 0.229198 0.500000
O O18 0.000000 0.226169 0.448915
O O19 0.918462 0.000000 0.453321
O O20 0.750000 0.750000 0.000000
O O21 0.821174 0.500000 0.000000
#
# Coordination Sequence:
#
# PCOD9486875 Si02
#       7
#    16  16  16  16  16  16   8
#     4  10  20  34  53  77 105 136 170 208 251 300
#     4   9  18  34  54  73  96 130 169 206 249 300
#     4   9  19  34  52  75 102 131 163 204 251 298
#     4  10  19  33  54  78 103 132 168 208 252 301
#     4  10  21  36  52  73 103 136 171 211 252 296
#     4   9  19  36  55  75 102 135 170 210 255 301
#     4   8  16  30  49  74 101 129 163 205 249 296
#
# _framework density 17.258430000000001
#
# number of rings (size 3 to 8) (size 9 to 14) (size 15 to 20)
#    0.000    2.615    0.000    1.846    0.000    4.923 
#    0.000    4.231    0.000    4.154    0.000    0.000 
#    0.000    0.000    0.000    0.000    0.000    0.000 
#
# Total GULP energy -289911.902926 kJ/mol
# GULP energy per Si atom -5575.228902 kJ/mol
# Density = 1.721915 g / cm^3
# Si number density = 17.258430 Si / 1000 Ang^3
#
#
#
# Elastic Constant Matrix: (Units=GPa)
#
#
# Indices 1 2 3 4 5 6 
#
# 1 103.2022 39.4057 125.7508 0.0000 0.0000 0.0000
# 2 39.4057 31.3919 52.3593 0.0000 0.0000 0.0000
# 3 125.7508 52.3593 191.4895 0.0000 0.0000 0.0000
# 4 0.0000 0.0000 0.0000 21.3005 0.0000 0.0000
# 5 0.0000 0.0000 0.0000 0.0000 67.8053 0.0000
# 6 0.0000 0.0000 0.0000 0.0000 0.0000 28.5290
#
#
#
# Elastic Compliance Matrix: (Units=1/GPa)
#
#
# Indices 1 2 3 4 5 6 
#
# 1 0.052232 -0.015360 -0.030101 0.000000 0.000000 0.000000
# 2 -0.015360 0.063082 -0.007162 0.000000 0.000000 0.000000
# 3 -0.030101 -0.007162 0.026948 0.000000 0.000000 0.000000
# 4 0.000000 0.000000 0.000000 0.046947 0.000000 0.000000
# 5 0.000000 0.000000 0.000000 0.000000 0.014748 0.000000
# 6 0.000000 0.000000 0.000000 0.000000 0.000000 0.035052
#
#
# Mechanical properties :
#
#
# Convention : Reuss Voigt Hill
#
# Bulk Modulus (GPa) = 27.01510 84.56835 55.79173
# Shear Modulus (GPa) = 14.02159 30.76481 22.39320
#
# Velocity S-wave (km/s) = 2.85344 4.22666 3.60602
# Velocity P-wave (km/s) = 5.15203 8.53974 7.05232
#
# Compressibility (1/GPa) = 0.03701634
#
# Stress axis : x y z
#
# Youngs Moduli (GPa) = 19.14525 15.85247 37.10906
#
# Poissons Ratio (x) = 0.24350 1.11702
# Poissons Ratio (y) = 0.29407 0.26576
# Poissons Ratio (z) = 0.57629 0.11353
#
# Static dielectric constant tensor:
#      x y z
#    x 1.552140 0.000000 0.000000 
#    y 0.000000 1.578850 0.000000 
#    z 0.000000 0.000000 1.590930 
# 
# From -- ./inp_files/75488.got.cif
#   From: 2010.05.17/outbox.cif.g08.bks.cpg/sg65_38_cif.got.tgz:75488.got - 2010.06.03 17:01:31.
