data_PCOD9486531
_publ_section_title
;
Structure prediction by ZEFSAII (Michael W. Deem and Ramdas Pophale) SiO2 
 PCOD9486531
Probable space group: C M M M
;
_chemical_formula_sum "Si O2"
_cell_formula_units_Z 56
_cell_length_a 15.592587
_cell_length_b 8.393027
_cell_length_c 21.144847
_cell_angle_alpha 90.000000
_cell_angle_beta 90.000000
_cell_angle_gamma 90.000000
_cell_volume 2767.205060
_symmetry_space_group_name_H-M "C M M M"
_symmetry_group_IT_number 65
_symmetry_cell_setting 'orthorhombic'
loop_
_space_group_symop_operation_xyz
x,y,z
-x,-y,z
x,-y,-z
-x,y,-z
-x,-y,-z
x,y,-z
-x,y,z
x,-y,z
1/2+x,1/2+y,z
1/2-x,1/2-y,z
1/2+x,1/2-y,-z
1/2-x,1/2+y,-z
1/2-x,1/2-y,-z
1/2+x,1/2+y,-z
1/2-x,1/2+y,z
1/2+x,1/2-y,z
loop_
_atom_site_type_symbol
_atom_site_label
_atom_site_fract_x
_atom_site_fract_y
_atom_site_fract_z
Si Si1 0.000000 0.191192 0.926866
Si Si2 0.653101 0.308393 0.295360
Si Si3 0.651436 0.810598 0.838620
Si Si4 0.897319 0.814250 0.432557
O O1 0.914639 0.251674 0.891465
O O2 0.000000 0.000000 0.924392
O O3 0.000000 0.242300 0.000000
O O4 0.645054 0.500000 0.295521
O O5 0.750000 0.250000 0.290827
O O6 0.614847 0.246704 0.229667
O O7 0.624095 0.245114 0.364007
O O8 0.750000 0.750000 0.847122
O O9 0.655103 0.000000 0.838146
O O10 0.866411 0.743320 0.500000
O O11 0.000000 0.815526 0.435080
O O12 0.868641 0.000000 0.431862
#
# Coordination Sequence:
#
# PCOD9486531 Si02
#       4
#     8  16  16  16
#     4  11  25  45  69  97 126 159 200 243 295 362
#     4  10  19  32  53  79 109 147 192 242 294 350
#     4  11  23  41  64  92 127 165 204 251 300 356
#     4   8  15  28  46  71 102 140 189 240 290 345
#
# _framework density 20.237026
#
# number of rings (size 3 to 8) (size 9 to 14) (size 15 to 20)
#    0.000    2.143    0.000    6.429    2.000    2.286 
#    0.000    0.000    0.000    2.571    0.000    8.000 
#    0.000    0.000    0.000    0.000    0.000    0.000 
#
# Total GULP energy -156022.073171 kJ/mol
# GULP energy per Si atom -5572.216899 kJ/mol
# Density = 2.019097 g / cm^3
# Si number density = 20.237026 Si / 1000 Ang^3
#
#
#
# Elastic Constant Matrix: (Units=GPa)
#
#
# Indices 1 2 3 4 5 6 
#
# 1 70.9461 20.0030 74.8501 0.0000 0.0000 0.0000
# 2 20.0030 79.7505 51.9582 0.0000 0.0000 0.0000
# 3 74.8501 51.9582 248.5180 0.0000 0.0000 0.0000
# 4 0.0000 0.0000 0.0000 2.6780 0.0000 0.0000
# 5 0.0000 0.0000 0.0000 0.0000 51.3585 0.0000
# 6 0.0000 0.0000 0.0000 0.0000 0.0000 22.2315
#
#
#
# Elastic Compliance Matrix: (Units=1/GPa)
#
#
# Indices 1 2 3 4 5 6 
#
# 1 0.020778 -0.001313 -0.005984 0.000000 0.000000 0.000000
# 2 -0.001313 0.014599 -0.002657 0.000000 0.000000 0.000000
# 3 -0.005984 -0.002657 0.006381 0.000000 0.000000 0.000000
# 4 0.000000 0.000000 0.000000 0.373418 0.000000 0.000000
# 5 0.000000 0.000000 0.000000 0.000000 0.019471 0.000000
# 6 0.000000 0.000000 0.000000 0.000000 0.000000 0.044981
#
#
# Mechanical properties :
#
#
# Convention : Reuss Voigt Hill
#
# Bulk Modulus (GPa) = 45.76246 76.98191 61.37219
# Shear Modulus (GPa) = 9.86542 32.08046 20.97294
#
# Velocity S-wave (km/s) = 2.21032 3.98582 3.22275
# Velocity P-wave (km/s) = 5.40151 7.70098 6.65137
#
# Compressibility (1/GPa) = 0.02185197
#
# Stress axis : x y z
#
# Youngs Moduli (GPa) = 48.12709 68.49579 156.70343
#
# Poissons Ratio (x) = 0.08995 0.93765
# Poissons Ratio (y) = 0.06320 0.41633
# Poissons Ratio (z) = 0.28797 0.18198
#
# Static dielectric constant tensor:
#      x y z
#    x 1.706450 0.000000 0.000000 
#    y 0.000000 1.695020 0.000000 
#    z 0.000000 0.000000 1.821580 
# 
# From -- ./inp_files/58560.got.cif
#   From: 2010.05.17/outbox.cif.g08.bks.cpg/sg65_30_cif.got.tgz:58560.got - 2010.06.03 17:01:31.
