data_PCOD9486939
_publ_section_title
;
Structure prediction by ZEFSAII (Michael W. Deem and Ramdas Pophale) SiO2 
 PCOD9486939
Probable space group: C M M M
;
_chemical_formula_sum "Si O2"
_cell_formula_units_Z 66
_cell_length_a 16.125983
_cell_length_b 8.401417
_cell_length_c 26.383860
_cell_angle_alpha 90.000000
_cell_angle_beta 90.000000
_cell_angle_gamma 90.000000
_cell_volume 3574.514579
_symmetry_space_group_name_H-M "C M M M"
_symmetry_group_IT_number 65
_symmetry_cell_setting 'orthorhombic'
loop_
_space_group_symop_operation_xyz
x,y,z
-x,-y,z
x,-y,-z
-x,y,-z
-x,-y,-z
x,y,-z
-x,y,z
x,-y,z
1/2+x,1/2+y,z
1/2-x,1/2-y,z
1/2+x,1/2-y,-z
1/2-x,1/2+y,-z
1/2-x,1/2-y,-z
1/2+x,1/2+y,-z
1/2-x,1/2+y,z
1/2+x,1/2-y,z
loop_
_atom_site_type_symbol
_atom_site_label
_atom_site_fract_x
_atom_site_fract_y
_atom_site_fract_z
Si Si1 0.000000 0.500000 0.000000
Si Si2 0.500000 0.821708 0.895430
Si Si3 0.659102 0.307808 0.623493
Si Si4 0.160466 0.310830 0.159174
Si Si5 0.500000 0.305467 0.558353
Si Si6 0.597601 0.692238 0.266097
O O1 0.000000 0.362909 0.045380
O O2 0.415593 0.745979 0.874900
O O3 0.500000 0.000000 0.870525
O O4 0.658900 0.500000 0.623154
O O5 0.750000 0.250000 0.608011
O O6 0.583209 0.254551 0.587773
O O7 0.638769 0.255936 0.681087
O O8 0.164068 0.500000 0.154720
O O9 0.250000 0.250000 0.143280
O O10 0.141273 0.263471 0.216981
O O11 0.500000 0.500000 0.559157
O O12 0.500000 0.254639 0.500000
O O13 0.500000 0.734606 0.266143
O O14 0.602795 0.500000 0.263391
#
# Coordination Sequence:
#
# PCOD9486939 Si02
#       6
#     2   8  16  16   8  16
#     4   8  16  40  64  76 106 154 188 224 276 320
#     4   8  18  35  58  76 106 142 185 217 267 317
#     4  10  20  35  54  78 107 140 180 221 269 329
#     4  11  21  35  54  85 115 145 182 224 268 326
#     4   9  18  35  57  76  99 138 183 226 272 327
#     4  10  19  33  54  80 111 149 181 220 272 329
#
# _framework density 18.464044999999999
#
# number of rings (size 3 to 8) (size 9 to 14) (size 15 to 20)
#    0.364    1.818    2.424    1.455    0.000    3.394 
#    0.000    1.212    0.000    0.727    0.000    3.394 
#    0.000    0.000    0.000    0.000    0.000    0.000 
#
# Total GULP energy -183726.401177 kJ/mol
# GULP energy per Si atom -5567.466702 kJ/mol
# Density = 1.842202 g / cm^3
# Si number density = 18.464045 Si / 1000 Ang^3
#
#
#
# Elastic Constant Matrix: (Units=GPa)
#
#
# Indices 1 2 3 4 5 6 
#
# 1 193.0247 23.0391 83.9776 0.0000 0.0000 0.0000
# 2 23.0391 11.2364 12.1818 0.0000 0.0000 0.0000
# 3 83.9776 12.1818 142.2969 0.0000 0.0000 0.0000
# 4 0.0000 0.0000 0.0000 18.4382 0.0000 0.0000
# 5 0.0000 0.0000 0.0000 0.0000 1.1331 0.0000
# 6 0.0000 0.0000 0.0000 0.0000 0.0000 20.2458
#
#
#
# Elastic Compliance Matrix: (Units=1/GPa)
#
#
# Indices 1 2 3 4 5 6 
#
# 1 0.008416 -0.013086 -0.003847 0.000000 0.000000 0.000000
# 2 -0.013086 0.118449 -0.002417 0.000000 0.000000 0.000000
# 3 -0.003847 -0.002417 0.009505 0.000000 0.000000 0.000000
# 4 0.000000 0.000000 0.000000 0.054235 0.000000 0.000000
# 5 0.000000 0.000000 0.000000 0.000000 0.882524 0.000000
# 6 0.000000 0.000000 0.000000 0.000000 0.000000 0.049393
#
#
# Mechanical properties :
#
#
# Convention : Reuss Voigt Hill
#
# Bulk Modulus (GPa) = 10.23859 64.99499 37.61679
# Shear Modulus (GPa) = 4.18838 23.12073 13.65456
#
# Velocity S-wave (km/s) = 1.50775 3.54249 2.72236
# Velocity P-wave (km/s) = 2.93058 7.21176 5.50444
#
# Compressibility (1/GPa) = 0.09766971
#
# Stress axis : x y z
#
# Youngs Moduli (GPa) = 118.81953 8.44244 105.21259
#
# Poissons Ratio (x) = 0.11048 0.40471
# Poissons Ratio (y) = 1.55490 0.25432
# Poissons Ratio (z) = 0.45705 0.02041
#
# Static dielectric constant tensor:
#      x y z
#    x 1.679930 0.000000 0.000000 
#    y 0.000000 1.648110 0.000000 
#    z 0.000000 0.000000 1.610960 
# 
# From -- ./inp_files/74552.got.cif
#   From: 2010.05.17/outbox.cif.g08.bks.cpg/sg65_38_cif.got.tgz:74552.got - 2010.06.03 17:01:31.
