data_PCOD9486942
_publ_section_title
;
Structure prediction by ZEFSAII (Michael W. Deem and Ramdas Pophale) SiO2 
 PCOD9486942
Probable space group: C M M M
;
_chemical_formula_sum "Si O2"
_cell_formula_units_Z 104
_cell_length_a 29.890027
_cell_length_b 19.466207
_cell_length_c 7.860316
_cell_angle_alpha 90.000000
_cell_angle_beta 90.000000
_cell_angle_gamma 90.000000
_cell_volume 4573.489122
_symmetry_space_group_name_H-M "C M M M"
_symmetry_group_IT_number 65
_symmetry_cell_setting 'orthorhombic'
loop_
_space_group_symop_operation_xyz
x,y,z
-x,-y,z
x,-y,-z
-x,y,-z
-x,-y,-z
x,y,-z
-x,y,z
x,-y,z
1/2+x,1/2+y,z
1/2-x,1/2-y,z
1/2+x,1/2-y,-z
1/2-x,1/2+y,-z
1/2-x,1/2-y,-z
1/2+x,1/2+y,-z
1/2-x,1/2+y,z
1/2+x,1/2-y,z
loop_
_atom_site_type_symbol
_atom_site_label
_atom_site_fract_x
_atom_site_fract_y
_atom_site_fract_z
Si Si1 0.779348 0.814189 0.808213
Si Si2 0.793105 0.580595 0.294078
Si Si3 0.949157 0.500000 0.708458
Si Si4 0.451403 0.750558 0.198379
Si Si5 0.049046 0.901965 0.303681
Si Si6 0.648563 0.575802 0.295017
Si Si7 0.109372 0.371599 0.295078
O O1 0.750000 0.750000 0.728536
O O2 0.745168 0.877370 0.796511
O O3 0.824358 0.853843 0.745759
O O4 0.789389 0.791567 0.000000
O O5 0.787538 0.587801 0.500000
O O6 0.792982 0.500000 0.256891
O O7 0.840386 0.612878 0.242567
O O8 0.948968 0.500000 0.500000
O O9 0.922625 0.432837 0.765038
O O10 0.000000 0.500000 0.765643
O O11 0.500000 0.784416 0.236197
O O12 0.449317 0.680483 0.300163
O O13 0.411096 0.800616 0.236581
O O14 0.450904 0.732219 0.000000
O O15 0.048549 0.924553 0.500000
O O16 0.097157 0.922788 0.229606
O O17 0.000000 0.920834 0.228733
O O18 0.647214 0.574770 0.500000
O O19 0.667966 0.500000 0.242940
O O20 0.109069 0.372724 0.500000
#
# Coordination Sequence:
#
# PCOD9486942 Si02
#       7
#    16  16   8  16  16  16  16
#     4  11  26  44  62  89 122 159 203 249 299 357
#     4  10  21  39  62  88 118 150 193 248 304 362
#     4   9  16  28  49  77 109 145 189 239 288 343
#     4  10  21  35  51  76 114 157 198 244 295 345
#     4   9  19  37  62  92 124 158 197 240 292 358
#     4  10  22  41  66  96 127 160 200 248 305 364
#     4  10  19  33  54  81 109 145 193 243 296 351
#
# _framework density 22.739750999999998
#
# number of rings (size 3 to 8) (size 9 to 14) (size 15 to 20)
#    0.000    2.077    0.769    1.846    2.154    6.769 
#    0.000    1.923    0.000    1.385    0.000    3.231 
#    0.000    0.000    0.000    0.000    0.000    0.000 
#
# Total GULP energy -290109.656329 kJ/mol
# GULP energy per Si atom -5579.031852 kJ/mol
# Density = 2.268799 g / cm^3
# Si number density = 22.739751 Si / 1000 Ang^3
#
#
#
# Elastic Constant Matrix: (Units=GPa)
#
#
# Indices 1 2 3 4 5 6 
#
# 1 127.7084 44.8544 18.0489 0.0000 0.0000 0.0000
# 2 44.8544 117.5337 8.3622 0.0000 0.0000 0.0000
# 3 18.0489 8.3622 18.2997 0.0000 0.0000 0.0000
# 4 0.0000 0.0000 0.0000 20.1087 0.0000 0.0000
# 5 0.0000 0.0000 0.0000 0.0000 5.6405 0.0000
# 6 0.0000 0.0000 0.0000 0.0000 0.0000 37.4386
#
#
#
# Elastic Compliance Matrix: (Units=1/GPa)
#
#
# Indices 1 2 3 4 5 6 
#
# 1 0.010191 -0.003281 -0.008552 0.000000 0.000000 0.000000
# 2 -0.003281 0.009850 -0.001265 0.000000 0.000000 0.000000
# 3 -0.008552 -0.001265 0.063659 0.000000 0.000000 0.000000
# 4 0.000000 0.000000 0.000000 0.049730 0.000000 0.000000
# 5 0.000000 0.000000 0.000000 0.000000 0.177288 0.000000
# 6 0.000000 0.000000 0.000000 0.000000 0.000000 0.026710
#
#
# Mechanical properties :
#
#
# Convention : Reuss Voigt Hill
#
# Bulk Modulus (GPa) = 17.39023 45.11921 31.25472
# Shear Modulus (GPa) = 13.06185 25.45599 19.25892
#
# Velocity S-wave (km/s) = 2.39928 3.34945 2.91336
# Velocity P-wave (km/s) = 3.91656 5.90280 5.00912
#
# Compressibility (1/GPa) = 0.05750356
#
# Stress axis : x y z
#
# Youngs Moduli (GPa) = 98.12226 101.51985 15.70867
#
# Poissons Ratio (x) = 0.33307 0.13435
# Poissons Ratio (y) = 0.32192 0.01988
# Poissons Ratio (z) = 0.83919 0.12845
#
# Static dielectric constant tensor:
#      x y z
#    x 2.033040 0.000000 0.000000 
#    y 0.000000 1.966290 0.000000 
#    z 0.000000 0.000000 1.859930 
# 
# From -- ./inp_files/16455.got.cif
#   From: 2010.05.17/outbox.cif.g08.bks.cpg/sg65_9_cif.got.tgz:16455.got - 2010.06.03 17:01:31.
