data_PCOD9486135
_publ_section_title
;
Structure prediction by ZEFSAII (Michael W. Deem and Ramdas Pophale) SiO2 
 PCOD9486135
Probable space group: C M M M
;
_chemical_formula_sum "Si O2"
_cell_formula_units_Z 72
_cell_length_a 21.084514
_cell_length_b 13.173239
_cell_length_c 13.124424
_cell_angle_alpha 90.000000
_cell_angle_beta 90.000000
_cell_angle_gamma 90.000000
_cell_volume 3645.326381
_symmetry_space_group_name_H-M "C M M M"
_symmetry_group_IT_number 65
_symmetry_cell_setting 'orthorhombic'
loop_
_space_group_symop_operation_xyz
x,y,z
-x,-y,z
x,-y,-z
-x,y,-z
-x,-y,-z
x,y,-z
-x,y,z
x,-y,z
1/2+x,1/2+y,z
1/2-x,1/2-y,z
1/2+x,1/2-y,-z
1/2-x,1/2+y,-z
1/2-x,1/2-y,-z
1/2+x,1/2+y,-z
1/2-x,1/2+y,z
1/2+x,1/2-y,z
loop_
_atom_site_type_symbol
_atom_site_label
_atom_site_fract_x
_atom_site_fract_y
_atom_site_fract_z
Si Si1 0.612770 0.883609 0.774762
Si Si2 0.000000 0.621388 0.615951
Si Si3 0.575228 0.383325 0.666309
Si Si4 0.924434 0.806893 0.888887
Si Si5 0.677970 0.214136 0.608969
O O1 0.559021 0.856994 0.689839
O O2 0.606015 0.802444 0.863907
O O3 0.673184 0.859732 0.705734
O O4 0.606471 0.000000 0.805621
O O5 0.000000 0.500000 0.604678
O O6 0.000000 0.662889 0.500000
O O7 0.500000 0.356014 0.646675
O O8 0.583015 0.500000 0.633727
O O9 0.585756 0.374682 0.788810
O O10 0.628637 0.308682 0.620721
O O11 0.000000 0.791159 0.892573
O O12 0.904233 0.845883 0.000000
O O13 0.662205 0.163289 0.500000
O O14 0.750000 0.250000 0.605388
#
# Coordination Sequence:
#
# PCOD9486135 Si02
#       5
#    16   8  16  16  16
#     4  10  19  32  49  73 105 139 174 211 256 312
#     4   9  16  26  43  69  98 129 165 203 245 295
#     4   9  19  36  57  81 108 139 180 227 273 320
#     4   9  17  30  50  78 111 141 171 216 271 320
#     4  10  22  37  53  77 108 142 179 220 268 321
#
# _framework density 19.751318000000001
#
# number of rings (size 3 to 8) (size 9 to 14) (size 15 to 20)
#    0.000    2.556    1.111    0.667    1.556    4.000 
#    0.000    6.667    0.000   10.667    0.000   12.444 
#    0.000    0.000    0.000    0.000    0.000    0.000 
#
# Total GULP energy -200467.452196 kJ/mol
# GULP energy per Si atom -5568.540339 kJ/mol
# Density = 1.970636 g / cm^3
# Si number density = 19.751318 Si / 1000 Ang^3
#
#
#
# Elastic Constant Matrix: (Units=GPa)
#
#
# Indices 1 2 3 4 5 6 
#
# 1 61.8493 14.7554 3.3150 0.0000 0.0000 0.0000
# 2 14.7554 69.4591 -16.7466 0.0000 0.0000 0.0000
# 3 3.3150 -16.7466 79.6837 0.0000 0.0000 0.0000
# 4 0.0000 0.0000 0.0000 11.0040 0.0000 0.0000
# 5 0.0000 0.0000 0.0000 0.0000 8.0493 0.0000
# 6 0.0000 0.0000 0.0000 0.0000 0.0000 14.8041
#
#
#
# Elastic Compliance Matrix: (Units=1/GPa)
#
#
# Indices 1 2 3 4 5 6 
#
# 1 0.017215 -0.004034 -0.001564 0.000000 0.000000 0.000000
# 2 -0.004034 0.016111 0.003554 0.000000 0.000000 0.000000
# 3 -0.001564 0.003554 0.013362 0.000000 0.000000 0.000000
# 4 0.000000 0.000000 0.000000 0.090876 0.000000 0.000000
# 5 0.000000 0.000000 0.000000 0.000000 0.124235 0.000000
# 6 0.000000 0.000000 0.000000 0.000000 0.000000 0.067549
#
#
# Mechanical properties :
#
#
# Convention : Reuss Voigt Hill
#
# Bulk Modulus (GPa) = 23.47512 23.73774 23.60643
# Shear Modulus (GPa) = 14.38293 20.74936 17.56614
#
# Velocity S-wave (km/s) = 2.70145 3.24470 2.98546
# Velocity P-wave (km/s) = 4.65205 5.10704 4.88485
#
# Compressibility (1/GPa) = 0.04259830
#
# Stress axis : x y z
#
# Youngs Moduli (GPa) = 58.09037 62.07050 74.84168
#
# Poissons Ratio (x) = 0.25039 0.11705
# Poissons Ratio (y) = 0.23434 -0.26597
# Poissons Ratio (z) = 0.09085 -0.22058
#
# Static dielectric constant tensor:
#      x y z
#    x 1.802430 0.000000 0.000000 
#    y 0.000000 1.711940 0.000000 
#    z 0.000000 0.000000 1.723440 
# 
# From -- ./inp_files/39781.got.cif
#   From: 2010.05.17/outbox.cif.g08.bks.cpg/sg65_20_cif.got.tgz:39781.got - 2010.06.03 17:01:31.
