data_PCOD9486491
_publ_section_title
;
Structure prediction by ZEFSAII (Michael W. Deem and Ramdas Pophale) SiO2 
 PCOD9486491
Probable space group: C M M M
;
_chemical_formula_sum "Si O2"
_cell_formula_units_Z 104
_cell_length_a 28.315523
_cell_length_b 9.664955
_cell_length_c 22.245699
_cell_angle_alpha 90.000000
_cell_angle_beta 90.000000
_cell_angle_gamma 90.000000
_cell_volume 6087.941640
_symmetry_space_group_name_H-M "C M M M"
_symmetry_group_IT_number 65
_symmetry_cell_setting 'orthorhombic'
loop_
_space_group_symop_operation_xyz
x,y,z
-x,-y,z
x,-y,-z
-x,y,-z
-x,-y,-z
x,y,-z
-x,y,z
x,-y,z
1/2+x,1/2+y,z
1/2-x,1/2-y,z
1/2+x,1/2-y,-z
1/2-x,1/2+y,-z
1/2-x,1/2-y,-z
1/2+x,1/2+y,-z
1/2-x,1/2+y,z
1/2+x,1/2-y,z
loop_
_atom_site_type_symbol
_atom_site_label
_atom_site_fract_x
_atom_site_fract_y
_atom_site_fract_z
Si Si1 0.943168 0.335889 0.500000
Si Si2 0.599770 0.333261 0.387842
Si Si3 0.056714 0.662064 0.721173
Si Si4 0.823432 0.500000 0.072776
Si Si5 0.294715 0.662360 0.570731
Si Si6 0.135460 0.210441 0.072019
Si Si7 0.054568 0.155165 0.835882
Si Si8 0.783602 0.000000 0.072560
O O1 0.928856 0.500000 0.500000
O O2 0.924236 0.251124 0.442521
O O3 0.000000 0.333946 0.500000
O O4 0.589954 0.500000 0.390258
O O5 0.581358 0.259309 0.327906
O O6 0.656165 0.315305 0.395280
O O7 0.070551 0.500000 0.717221
O O8 0.065945 0.729456 0.786293
O O9 0.000000 0.668383 0.711514
O O10 0.852952 0.633539 0.088619
O O11 0.769612 0.500000 0.096225
O O12 0.819483 0.500000 0.000000
O O13 0.302898 0.696361 0.500000
O O14 0.283195 0.500000 0.574012
O O15 0.250000 0.750000 0.592076
O O16 0.090379 0.162064 0.108797
O O17 0.183351 0.128795 0.088380
O O18 0.128588 0.195103 0.000000
O O19 0.000000 0.174042 0.854852
O O20 0.058178 0.000000 0.808907
O O21 0.779787 0.000000 0.000000
#
# Coordination Sequence:
#
# PCOD9486491 Si02
#       8
#     8  16  16   8  16  16  16   8
#     4  11  23  35  50  79 118 149 178 221 270 321
#     4  11  21  36  57  83 112 143 181 223 272 321
#     4  10  22  39  58  80 106 140 183 226 268 323
#     4   9  18  30  49  77 111 145 178 217 269 330
#     4   9  18  33  52  79 111 142 179 217 257 312
#     4  10  19  32  52  82 113 142 179 223 274 327
#     4  10  21  37  56  78 105 143 187 225 268 324
#     4   9  16  30  51  77 109 143 178 219 267 322
#
# _framework density 17.082948999999999
#
# number of rings (size 3 to 8) (size 9 to 14) (size 15 to 20)
#    0.000    2.077    1.538    2.077    1.077    6.769 
#    0.000    0.769    0.000    3.231    0.000    0.000 
#    0.000    0.000    0.000    0.000    0.000    0.000 
#
# Total GULP energy -289838.578341 kJ/mol
# GULP energy per Si atom -5573.818814 kJ/mol
# Density = 1.704407 g / cm^3
# Si number density = 17.082949 Si / 1000 Ang^3
#
#
#
# Elastic Constant Matrix: (Units=GPa)
#
#
# Indices 1 2 3 4 5 6 
#
# 1 84.0105 51.4746 44.5623 0.0000 0.0000 0.0000
# 2 51.4746 132.2483 37.4136 0.0000 0.0000 0.0000
# 3 44.5623 37.4136 57.9617 0.0000 0.0000 0.0000
# 4 0.0000 0.0000 0.0000 8.2366 0.0000 0.0000
# 5 0.0000 0.0000 0.0000 0.0000 -45.8089 0.0000
# 6 0.0000 0.0000 0.0000 0.0000 0.0000 29.7247
#
#
#
# Elastic Compliance Matrix: (Units=1/GPa)
#
#
# Indices 1 2 3 4 5 6 
#
# 1 0.022233 -0.004671 -0.014078 0.000000 0.000000 0.000000
# 2 -0.004671 0.010232 -0.003014 0.000000 0.000000 0.000000
# 3 -0.014078 -0.003014 0.030022 0.000000 0.000000 0.000000
# 4 0.000000 0.000000 0.000000 0.121409 0.000000 0.000000
# 5 0.000000 0.000000 0.000000 0.000000 -0.021830 0.000000
# 6 0.000000 0.000000 0.000000 0.000000 0.000000 0.033642
#
#
# Mechanical properties :
#
#
# Convention : Reuss Voigt Hill
#
# Bulk Modulus (GPa) = 52.73897 60.12462 56.43179
# Shear Modulus (GPa) = 20.36222 7.81516 14.08869
#
# Velocity S-wave (km/s) = 3.45623 2.14121 2.87491
# Velocity P-wave (km/s) = 6.84592 6.43313 6.64273
#
# Compressibility (1/GPa) = 0.01896131
#
# Stress axis : x y z
#
# Youngs Moduli (GPa) = 44.97882 97.73130 33.30936
#
# Poissons Ratio (x) = 0.45649 0.46893
# Poissons Ratio (y) = 0.21009 0.10038
# Poissons Ratio (z) = 0.63321 0.29453
#
# Static dielectric constant tensor:
#      x y z
#    x 1.559580 0.000000 0.000000 
#    y 0.000000 1.626010 0.000000 
#    z 0.000000 0.000000 1.562940 
# 
# From -- ./inp_files/71924.got.cif
#   From: 2010.05.17/outbox.cif.g08.bks.cpg/sg65_36_cif.got.tgz:71924.got - 2010.06.03 17:01:31.
