data_PCOD9486506
_publ_section_title
;
Structure prediction by ZEFSAII (Michael W. Deem and Ramdas Pophale) SiO2 
 PCOD9486506
Probable space group: C M M M
;
_chemical_formula_sum "Si O2"
_cell_formula_units_Z 56
_cell_length_a 21.443030
_cell_length_b 14.621387
_cell_length_c 8.059569
_cell_angle_alpha 90.000000
_cell_angle_beta 90.000000
_cell_angle_gamma 90.000000
_cell_volume 2526.891201
_symmetry_space_group_name_H-M "C M M M"
_symmetry_group_IT_number 65
_symmetry_cell_setting 'orthorhombic'
loop_
_space_group_symop_operation_xyz
x,y,z
-x,-y,z
x,-y,-z
-x,y,-z
-x,-y,-z
x,y,-z
-x,y,z
x,-y,z
1/2+x,1/2+y,z
1/2-x,1/2-y,z
1/2+x,1/2-y,-z
1/2-x,1/2+y,-z
1/2-x,1/2-y,-z
1/2+x,1/2+y,-z
1/2-x,1/2+y,z
1/2+x,1/2-y,z
loop_
_atom_site_type_symbol
_atom_site_label
_atom_site_fract_x
_atom_site_fract_y
_atom_site_fract_z
Si Si1 0.865429 0.110883 0.316085
Si Si2 0.143140 0.602851 0.000000
Si Si3 0.780406 0.848443 0.000000
Si Si4 0.072341 0.611648 0.314979
Si Si5 0.000000 0.111789 0.193046
O O1 0.844942 0.140698 0.500000
O O2 0.936351 0.141890 0.280377
O O3 0.866610 0.000000 0.316555
O O4 0.821548 0.137032 0.163371
O O5 0.116643 0.646302 0.168404
O O6 0.116122 0.500000 0.000000
O O7 0.216978 0.594161 0.000000
O O8 0.750000 0.750000 0.000000
O O9 0.088603 0.644305 0.500000
O O10 0.076444 0.500000 0.322075
O O11 0.000000 0.633437 0.279741
O O12 0.000000 0.000000 0.195967
O O13 0.000000 0.139207 0.000000
#
# Coordination Sequence:
#
# PCOD9486506 Si02
#       5
#    16   8   8  16   8
#     4  10  20  37  64  94 119 148 194 250 305 358
#     4  10  19  32  53  76  99 134 187 233 271 318
#     4  12  26  40  53  76 119 171 200 231 279 350
#     4   8  14  26  48  78 104 124 157 217 283 324
#     4   9  15  29  61  98 125 141 174 245 318 366
#
# _framework density 22.161619999999999
#
# number of rings (size 3 to 8) (size 9 to 14) (size 15 to 20)
#    0.000    2.429    1.429    3.000    0.000    5.143 
#    0.000    2.857    6.286    0.000    0.000    0.000 
#    0.000    0.000    0.000    0.000    0.000    0.000 
#
# Total GULP energy -156405.428698 kJ/mol
# GULP energy per Si atom -5585.908168 kJ/mol
# Density = 2.211118 g / cm^3
# Si number density = 22.161620 Si / 1000 Ang^3
#
#
#
# Elastic Constant Matrix: (Units=GPa)
#
#
# Indices 1 2 3 4 5 6 
#
# 1 151.9715 10.2975 138.5462 0.0000 0.0000 0.0000
# 2 10.2975 48.1577 14.3183 0.0000 0.0000 0.0000
# 3 138.5462 14.3183 252.2355 0.0000 0.0000 0.0000
# 4 0.0000 0.0000 0.0000 -8.0250 0.0000 0.0000
# 5 0.0000 0.0000 0.0000 0.0000 -4.2246 0.0000
# 6 0.0000 0.0000 0.0000 0.0000 0.0000 18.9104
#
#
#
# Elastic Compliance Matrix: (Units=1/GPa)
#
#
# Indices 1 2 3 4 5 6 
#
# 1 0.013202 -0.000678 -0.007213 0.000000 0.000000 0.000000
# 2 -0.000678 0.021156 -0.000828 0.000000 0.000000 0.000000
# 3 -0.007213 -0.000828 0.007973 0.000000 0.000000 0.000000
# 4 0.000000 0.000000 0.000000 -0.124611 0.000000 0.000000
# 5 0.000000 0.000000 0.000000 0.000000 -0.236710 0.000000
# 6 0.000000 0.000000 0.000000 0.000000 0.000000 0.052881
#
#
# Mechanical properties :
#
#
# Convention : Reuss Voigt Hill
#
# Bulk Modulus (GPa) = 40.17278 86.52096 63.34687
# Shear Modulus (GPa) = -20.80119 20.61234 -0.09442
#
# Velocity S-wave (km/s) = -3.06700 3.05305 -0.20664
# Velocity P-wave (km/s) = 2.37161 7.18010 5.34688
#
# Compressibility (1/GPa) = 0.02489248
#
# Stress axis : x y z
#
# Youngs Moduli (GPa) = 75.74671 47.26689 125.41628
#
# Poissons Ratio (x) = 0.03206 0.90462
# Poissons Ratio (y) = 0.05138 0.10389
# Poissons Ratio (z) = 0.54636 0.03915
#
# Static dielectric constant tensor:
#      x y z
#    x 1.770230 0.000000 0.000000 
#    y 0.000000 1.599040 0.000000 
#    z 0.000000 0.000000 1.822210 
# 
# From -- ./inp_files/8551.got.cif
#   From: 2010.05.17/outbox.cif.g08.bks.cpg/sg65_5_cif.got.tgz:8551.got - 2010.06.03 17:01:31.
