data_PCOD9486697
_publ_section_title
;
Structure prediction by ZEFSAII (Michael W. Deem and Ramdas Pophale) SiO2 
 PCOD9486697
Probable space group: C M M M
;
_chemical_formula_sum "Si O2"
_cell_formula_units_Z 88
_cell_length_a 18.412043
_cell_length_b 25.002182
_cell_length_c 10.586379
_cell_angle_alpha 90.000000
_cell_angle_beta 90.000000
_cell_angle_gamma 90.000000
_cell_volume 4873.346943
_symmetry_space_group_name_H-M "C M M M"
_symmetry_group_IT_number 65
_symmetry_cell_setting 'orthorhombic'
loop_
_space_group_symop_operation_xyz
x,y,z
-x,-y,z
x,-y,-z
-x,y,-z
-x,-y,-z
x,y,-z
-x,y,z
x,-y,z
1/2+x,1/2+y,z
1/2-x,1/2-y,z
1/2+x,1/2-y,-z
1/2-x,1/2+y,-z
1/2-x,1/2-y,-z
1/2+x,1/2+y,-z
1/2-x,1/2+y,z
1/2+x,1/2-y,z
loop_
_atom_site_type_symbol
_atom_site_label
_atom_site_fract_x
_atom_site_fract_y
_atom_site_fract_z
Si Si1 0.413970 0.636517 0.646633
Si Si2 0.676366 0.936679 0.758077
Si Si3 0.667039 0.252531 0.653095
Si Si4 0.918098 0.350082 0.647734
Si Si5 0.340545 0.563935 0.148589
Si Si6 0.080679 0.564458 0.000000
O O1 0.395748 0.620712 0.500000
O O2 0.500000 0.646795 0.649469
O O3 0.370511 0.690741 0.677435
O O4 0.392860 0.593547 0.752989
O O5 0.639719 0.898241 0.656914
O O6 0.759154 0.926401 0.797645
O O7 0.626887 0.922448 0.878191
O O8 0.669408 0.000000 0.729063
O O9 0.670142 0.247661 0.500000
O O10 0.750000 0.250000 0.699460
O O11 0.618913 0.203242 0.703589
O O12 0.926990 0.339144 0.500000
O O13 0.000000 0.361854 0.696959
O O14 0.352482 0.500000 0.151687
O O15 0.345794 0.580210 0.000000
O O16 0.075210 0.500000 0.000000
O O17 0.000000 0.586977 0.000000
#
# Coordination Sequence:
#
# PCOD9486697 Si02
#       6
#    16  16  16  16  16   8
#     4  10  21  37  59  86 114 145 184 231 279 329
#     4  10  19  33  52  74 104 143 184 226 270 322
#     4   9  17  32  55  80 106 141 183 223 270 329
#     4  10  20  32  49  77 112 145 178 222 275 331
#     4  10  21  38  59  82 111 147 186 228 278 336
#     4   9  16  28  48  70  92 129 179 221 259 309
#
# _framework density 18.057404999999999
#
# number of rings (size 3 to 8) (size 9 to 14) (size 15 to 20)
#    0.000    2.273    0.909    2.182    0.000    6.909 
#    0.000    4.545    2.000    1.636    0.000    0.000 
#    0.000    0.000    0.000    0.000    0.000    0.000 
#
# Total GULP energy -245033.564233 kJ/mol
# GULP energy per Si atom -5568.944642 kJ/mol
# Density = 1.801631 g / cm^3
# Si number density = 18.057405 Si / 1000 Ang^3
#
#
#
# Elastic Constant Matrix: (Units=GPa)
#
#
# Indices 1 2 3 4 5 6 
#
# 1 101.0097 43.8299 42.3573 0.0000 0.0000 0.0000
# 2 43.8299 60.8426 34.4880 0.0000 0.0000 0.0000
# 3 42.3573 34.4880 53.6766 0.0000 0.0000 0.0000
# 4 0.0000 0.0000 0.0000 -9.7808 0.0000 0.0000
# 5 0.0000 0.0000 0.0000 0.0000 33.9597 0.0000
# 6 0.0000 0.0000 0.0000 0.0000 0.0000 30.9735
#
#
#
# Elastic Compliance Matrix: (Units=1/GPa)
#
#
# Indices 1 2 3 4 5 6 
#
# 1 0.016543 -0.007105 -0.008489 0.000000 0.000000 0.000000
# 2 -0.007105 0.028903 -0.012963 0.000000 0.000000 0.000000
# 3 -0.008489 -0.012963 0.033658 0.000000 0.000000 0.000000
# 4 0.000000 0.000000 0.000000 -0.102241 0.000000 0.000000
# 5 0.000000 0.000000 0.000000 0.000000 0.029447 0.000000
# 6 0.000000 0.000000 0.000000 0.000000 0.000000 0.032286
#
#
# Mechanical properties :
#
#
# Convention : Reuss Voigt Hill
#
# Bulk Modulus (GPa) = 45.47913 50.76436 48.12174
# Shear Modulus (GPa) = 48.52495 17.35406 32.93950
#
# Velocity S-wave (km/s) = 5.18950 3.10344 4.27565
# Velocity P-wave (km/s) = 7.81975 6.40434 7.14717
#
# Compressibility (1/GPa) = 0.02198811
#
# Stress axis : x y z
#
# Youngs Moduli (GPa) = 60.44855 34.59902 29.71042
#
# Poissons Ratio (x) = 0.24584 0.25222
# Poissons Ratio (y) = 0.42951 0.38515
# Poissons Ratio (z) = 0.51316 0.44852
#
# Static dielectric constant tensor:
#      x y z
#    x 1.638890 0.000000 0.000000 
#    y 0.000000 1.611290 0.000000 
#    z 0.000000 0.000000 1.783360 
# 
# From -- ./inp_files/26830.got.cif
#   From: 2010.05.17/outbox.cif.g08.bks.cpg/sg65_14_cif.got.tgz:26830.got - 2010.06.03 17:01:31.
