data_PCOD9486897
_publ_section_title
;
Structure prediction by ZEFSAII (Michael W. Deem and Ramdas Pophale) SiO2 
 PCOD9486897
Probable space group: C M M M
;
_chemical_formula_sum "Si O2"
_cell_formula_units_Z 96
_cell_length_a 25.977883
_cell_length_b 24.376001
_cell_length_c 8.501572
_cell_angle_alpha 90.000000
_cell_angle_beta 90.000000
_cell_angle_gamma 90.000000
_cell_volume 5383.509115
_symmetry_space_group_name_H-M "C M M M"
_symmetry_group_IT_number 65
_symmetry_cell_setting 'orthorhombic'
loop_
_space_group_symop_operation_xyz
x,y,z
-x,-y,z
x,-y,-z
-x,y,-z
-x,-y,-z
x,y,-z
-x,y,z
x,-y,z
1/2+x,1/2+y,z
1/2-x,1/2-y,z
1/2+x,1/2-y,-z
1/2-x,1/2+y,-z
1/2-x,1/2-y,-z
1/2+x,1/2+y,-z
1/2-x,1/2+y,z
1/2+x,1/2-y,z
loop_
_atom_site_type_symbol
_atom_site_label
_atom_site_fract_x
_atom_site_fract_y
_atom_site_fract_z
Si Si1 0.308746 0.000000 0.686692
Si Si2 0.440297 0.813849 0.689815
Si Si3 0.348036 0.885335 0.188294
Si Si4 0.059032 0.188909 0.689667
Si Si5 0.651391 0.617472 0.189883
Si Si6 0.750550 0.687245 0.808171
Si Si7 0.191552 0.000000 0.190440
O O1 0.337701 0.945378 0.743517
O O2 0.305492 0.000000 0.500000
O O3 0.250716 0.000000 0.754983
O O4 0.437217 0.815847 0.500000
O O5 0.500000 0.823586 0.733116
O O6 0.401037 0.857309 0.760218
O O7 0.426924 0.751266 0.739509
O O8 0.301218 0.845746 0.241770
O O9 0.345980 0.888873 0.000000
O O10 0.059842 0.188386 0.500000
O O11 0.099116 0.144814 0.751812
O O12 0.000000 0.178621 0.739521
O O13 0.699520 0.654963 0.241854
O O14 0.662961 0.555424 0.242568
O O15 0.650840 0.617456 0.000000
O O16 0.750000 0.750000 0.754008
O O17 0.750711 0.687806 0.000000
O O18 0.192617 0.000000 0.000000
#
# Coordination Sequence:
#
# PCOD9486897 Si02
#       7
#     8  16  16  16  16  16   8
#     4  12  24  38  57  80 111 150 190 225 270 331
#     4   9  19  37  58  81 113 149 182 222 275 331
#     4  11  21  36  58  82 112 145 184 230 274 325
#     4   9  19  36  56  79 112 150 183 222 276 332
#     4  10  19  33  54  78 107 142 184 230 276 326
#     4   9  17  29  49  79 110 137 168 216 276 326
#     4  10  20  38  57  76 107 149 188 227 280 330
#
# _framework density 17.832235000000001
#
# number of rings (size 3 to 8) (size 9 to 14) (size 15 to 20)
#    0.000    2.167    1.667    3.250    0.000    3.333 
#    0.000    2.500    0.000    8.500    0.000    0.000 
#    0.000    0.000    0.000    0.000    0.000    0.000 
#
# Total GULP energy -267939.019082 kJ/mol
# GULP energy per Si atom -5582.062898 kJ/mol
# Density = 1.779165 g / cm^3
# Si number density = 17.832235 Si / 1000 Ang^3
#
#
#
# Elastic Constant Matrix: (Units=GPa)
#
#
# Indices 1 2 3 4 5 6 
#
# 1 120.7811 103.4841 22.7119 0.0000 0.0000 0.0000
# 2 103.4841 197.4441 31.9144 0.0000 0.0000 0.0000
# 3 22.7119 31.9144 18.1266 0.0000 0.0000 0.0000
# 4 0.0000 0.0000 0.0000 13.4138 0.0000 0.0000
# 5 0.0000 0.0000 0.0000 0.0000 38.6198 0.0000
# 6 0.0000 0.0000 0.0000 0.0000 0.0000 21.4442
#
#
#
# Elastic Compliance Matrix: (Units=1/GPa)
#
#
# Indices 1 2 3 4 5 6 
#
# 1 0.015679 -0.007048 -0.007236 0.000000 0.000000 0.000000
# 2 -0.007048 0.010248 -0.009212 0.000000 0.000000 0.000000
# 3 -0.007236 -0.009212 0.080452 0.000000 0.000000 0.000000
# 4 0.000000 0.000000 0.000000 0.074550 0.000000 0.000000
# 5 0.000000 0.000000 0.000000 0.000000 0.025893 0.000000
# 6 0.000000 0.000000 0.000000 0.000000 0.000000 0.046633
#
#
# Mechanical properties :
#
#
# Convention : Reuss Voigt Hill
#
# Bulk Modulus (GPa) = 16.83853 72.50807 44.67330
# Shear Modulus (GPa) = 15.61321 26.57831 21.09576
#
# Velocity S-wave (km/s) = 2.96220 3.86484 3.44323
# Velocity P-wave (km/s) = 4.60030 7.78881 6.39641
#
# Compressibility (1/GPa) = 0.05938762
#
# Stress axis : x y z
#
# Youngs Moduli (GPa) = 63.78099 97.58390 12.42973
#
# Poissons Ratio (x) = 0.68776 0.08994
# Poissons Ratio (y) = 0.44952 0.11450
# Poissons Ratio (z) = 0.46152 0.89891
#
# Static dielectric constant tensor:
#      x y z
#    x 1.584420 0.000000 0.000000 
#    y 0.000000 1.598100 0.000000 
#    z 0.000000 0.000000 1.609710 
# 
# From -- ./inp_files/14410.got.cif
#   From: 2010.05.17/outbox.cif.g08.bks.cpg/sg65_8_cif.got.tgz:14410.got - 2010.06.03 17:01:31.
