data_PCOD9486648
_publ_section_title
;
Structure prediction by ZEFSAII (Michael W. Deem and Ramdas Pophale) SiO2 
 PCOD9486648
Probable space group: C M M M
;
_chemical_formula_sum "Si O2"
_cell_formula_units_Z 64
_cell_length_a 26.211553
_cell_length_b 9.351204
_cell_length_c 17.262357
_cell_angle_alpha 90.000000
_cell_angle_beta 90.000000
_cell_angle_gamma 90.000000
_cell_volume 4231.169061
_symmetry_space_group_name_H-M "C M M M"
_symmetry_group_IT_number 65
_symmetry_cell_setting 'orthorhombic'
loop_
_space_group_symop_operation_xyz
x,y,z
-x,-y,z
x,-y,-z
-x,y,-z
-x,-y,-z
x,y,-z
-x,y,z
x,-y,z
1/2+x,1/2+y,z
1/2-x,1/2-y,z
1/2+x,1/2-y,-z
1/2-x,1/2+y,-z
1/2-x,1/2-y,-z
1/2+x,1/2+y,-z
1/2-x,1/2+y,z
1/2+x,1/2-y,z
loop_
_atom_site_type_symbol
_atom_site_label
_atom_site_fract_x
_atom_site_fract_y
_atom_site_fract_z
Si Si1 0.439322 0.330829 0.153471
Si Si2 0.801666 0.829302 0.409247
Si Si3 0.500000 0.169784 0.592597
Si Si4 0.906497 0.827964 0.675075
Si Si5 0.437905 0.835269 0.000000
O O1 0.500000 0.304071 0.165347
O O2 0.433638 0.500000 0.138410
O O3 0.411689 0.295327 0.233783
O O4 0.421700 0.243827 0.078524
O O5 0.811274 0.794904 0.500000
O O6 0.750000 0.750000 0.385332
O O7 0.851331 0.791479 0.359568
O O8 0.794229 0.000000 0.403689
O O9 0.500000 0.189486 0.500000
O O10 0.450517 0.244683 0.629507
O O11 0.500000 0.000000 0.608964
O O12 0.914399 0.000000 0.666073
O O13 0.500000 0.829559 0.000000
O O14 0.422409 0.000000 0.000000
#
# Coordination Sequence:
#
# PCOD9486648 Si02
#       5
#    16  16   8  16   8
#     4   9  16  28  45  66  91 120 155 192 227 270
#     4   9  18  32  50  70  92 121 159 201 240 278
#     4  11  23  33  43  66  99 130 157 191 238 285
#     4  10  19  33  51  70  92 125 164 197 233 281
#     4   9  17  27  41  63  92 125 154 181 224 278
#
# _framework density 15.125844000000001
#
# number of rings (size 3 to 8) (size 9 to 14) (size 15 to 20)
#    0.000    2.500    1.250    1.500    0.000    5.500 
#    0.000    2.500    0.000    0.000    0.000    0.875 
#    0.000    0.000    0.000    0.000    0.000    0.000 
#
# Total GULP energy -178408.158450 kJ/mol
# GULP energy per Si atom -5575.254952 kJ/mol
# Density = 1.509142 g / cm^3
# Si number density = 15.125844 Si / 1000 Ang^3
#
#
#
# Elastic Constant Matrix: (Units=GPa)
#
#
# Indices 1 2 3 4 5 6 
#
# 1 111.9142 56.8958 81.4242 0.0000 0.0000 0.0000
# 2 56.8958 53.3469 71.3486 0.0000 0.0000 0.0000
# 3 81.4242 71.3486 136.3501 0.0000 0.0000 0.0000
# 4 0.0000 0.0000 0.0000 20.0159 0.0000 0.0000
# 5 0.0000 0.0000 0.0000 0.0000 13.9895 0.0000
# 6 0.0000 0.0000 0.0000 0.0000 0.0000 22.5365
#
#
#
# Elastic Compliance Matrix: (Units=1/GPa)
#
#
# Indices 1 2 3 4 5 6 
#
# 1 0.019787 -0.017657 -0.002577 0.000000 0.000000 0.000000
# 2 -0.017657 0.078210 -0.030381 0.000000 0.000000 0.000000
# 3 -0.002577 -0.030381 0.024770 0.000000 0.000000 0.000000
# 4 0.000000 0.000000 0.000000 0.049960 0.000000 0.000000
# 5 0.000000 0.000000 0.000000 0.000000 0.071482 0.000000
# 6 0.000000 0.000000 0.000000 0.000000 0.000000 0.044372
#
#
# Mechanical properties :
#
#
# Convention : Reuss Voigt Hill
#
# Bulk Modulus (GPa) = 46.43014 80.10539 63.26776
# Shear Modulus (GPa) = 12.59478 17.43789 15.01634
#
# Velocity S-wave (km/s) = 2.88873 3.39905 3.15423
# Velocity P-wave (km/s) = 6.47216 8.27520 7.42859
#
# Compressibility (1/GPa) = 0.02153773
#
# Stress axis : x y z
#
# Youngs Moduli (GPa) = 50.53946 12.78611 40.37084
#
# Poissons Ratio (x) = 0.22576 0.10402
# Poissons Ratio (y) = 0.89237 1.22651
# Poissons Ratio (z) = 0.13022 0.38846
#
# Static dielectric constant tensor:
#      x y z
#    x 1.470970 0.000000 0.000000 
#    y 0.000000 1.503920 0.000000 
#    z 0.000000 0.000000 1.496470 
# 
# From -- ./inp_files/36362.got.cif
#   From: 2010.05.17/outbox.cif.g08.bks.cpg/sg65_19_cif.got.tgz:36362.got - 2010.06.03 17:01:31.
