data_PCOD9486549
_publ_section_title
;
Structure prediction by ZEFSAII (Michael W. Deem and Ramdas Pophale) SiO2 
 PCOD9486549
Probable space group: C M M M
;
_chemical_formula_sum "Si O2"
_cell_formula_units_Z 104
_cell_length_a 28.196264
_cell_length_b 20.263312
_cell_length_c 7.510641
_cell_angle_alpha 90.000000
_cell_angle_beta 90.000000
_cell_angle_gamma 90.000000
_cell_volume 4291.202442
_symmetry_space_group_name_H-M "C M M M"
_symmetry_group_IT_number 65
_symmetry_cell_setting 'orthorhombic'
loop_
_space_group_symop_operation_xyz
x,y,z
-x,-y,z
x,-y,-z
-x,y,-z
-x,-y,-z
x,y,-z
-x,y,z
x,-y,z
1/2+x,1/2+y,z
1/2-x,1/2-y,z
1/2+x,1/2-y,-z
1/2-x,1/2+y,-z
1/2-x,1/2-y,-z
1/2+x,1/2+y,-z
1/2-x,1/2+y,z
1/2+x,1/2-y,z
loop_
_atom_site_type_symbol
_atom_site_label
_atom_site_fract_x
_atom_site_fract_y
_atom_site_fract_z
Si Si1 0.775503 0.815879 0.797203
Si Si2 0.800265 0.575083 0.283020
Si Si3 0.000000 0.578181 0.708227
Si Si4 0.446847 0.749655 0.213237
Si Si5 0.052298 0.903159 0.705531
Si Si6 0.658443 0.571779 0.207229
Si Si7 0.098840 0.376502 0.293519
O O1 0.750000 0.750000 0.718555
O O2 0.735241 0.871730 0.794351
O O3 0.819222 0.859777 0.717779
O O4 0.789487 0.796701 0.000000
O O5 0.798262 0.580129 0.500000
O O6 0.789244 0.500000 0.234340
O O7 0.853068 0.594099 0.221309
O O8 0.049674 0.600039 0.791358
O O9 0.000000 0.500000 0.706674
O O10 0.000000 0.600505 0.500000
O O11 0.500000 0.774613 0.262352
O O12 0.444520 0.675993 0.283843
O O13 0.406071 0.797655 0.282562
O O14 0.443977 0.746994 0.000000
O O15 0.052609 0.923412 0.500000
O O16 0.101388 0.926873 0.787272
O O17 0.000000 0.921035 0.780516
O O18 0.673530 0.500000 0.284798
O O19 0.672763 0.571659 0.000000
O O20 0.098011 0.397732 0.500000
#
# Coordination Sequence:
#
# PCOD9486549 Si02
#       7
#    16  16   8  16  16  16  16
#     4  10  23  43  66  93 123 159 204 254 307 365
#     4  10  22  39  59  87 122 157 199 253 309 365
#     4   9  16  28  49  75 107 151 198 241 290 351
#     4  10  20  34  53  79 115 158 201 247 300 355
#     4  10  22  39  61  91 127 163 202 248 303 366
#     4  10  22  41  65  93 127 167 208 251 305 370
#     4  10  19  32  53  81 113 152 200 250 301 357
#
# _framework density 24.235631999999999
#
# number of rings (size 3 to 8) (size 9 to 14) (size 15 to 20)
#    0.000    2.077    0.769    1.846    2.154    6.462 
#    0.000    1.538    0.000    1.846    0.000    0.000 
#    0.000    0.000    0.000    0.000    0.000    0.000 
#
# Total GULP energy -290332.715933 kJ/mol
# GULP energy per Si atom -5583.321460 kJ/mol
# Density = 2.418047 g / cm^3
# Si number density = 24.235632 Si / 1000 Ang^3
#
#
#
# Elastic Constant Matrix: (Units=GPa)
#
#
# Indices 1 2 3 4 5 6 
#
# 1 147.5372 54.3072 1.1583 0.0000 0.0000 0.0000
# 2 54.3072 151.8288 2.4793 0.0000 0.0000 0.0000
# 3 1.1583 2.4793 74.4018 0.0000 0.0000 0.0000
# 4 0.0000 0.0000 0.0000 1.8519 0.0000 0.0000
# 5 0.0000 0.0000 0.0000 0.0000 18.3782 0.0000
# 6 0.0000 0.0000 0.0000 0.0000 0.0000 2.2575
#
#
#
# Elastic Compliance Matrix: (Units=1/GPa)
#
#
# Indices 1 2 3 4 5 6 
#
# 1 0.007806 -0.002792 -0.000029 0.000000 0.000000 0.000000
# 2 -0.002792 0.007588 -0.000209 0.000000 0.000000 0.000000
# 3 -0.000029 -0.000209 0.013448 0.000000 0.000000 0.000000
# 4 0.000000 0.000000 0.000000 0.539977 0.000000 0.000000
# 5 0.000000 0.000000 0.000000 0.000000 0.054412 0.000000
# 6 0.000000 0.000000 0.000000 0.000000 0.000000 0.442977
#
#
# Mechanical properties :
#
#
# Convention : Reuss Voigt Hill
#
# Bulk Modulus (GPa) = 43.89225 54.40639 49.14932
# Shear Modulus (GPa) = 4.63022 25.55239 15.09131
#
# Velocity S-wave (km/s) = 1.38371 3.25057 2.49808
# Velocity P-wave (km/s) = 4.55003 6.04863 5.35204
#
# Compressibility (1/GPa) = 0.02278307
#
# Stress axis : x y z
#
# Youngs Moduli (GPa) = 128.11118 131.78212 74.36076
#
# Poissons Ratio (x) = 0.36788 0.00212
# Poissons Ratio (y) = 0.35763 0.01557
# Poissons Ratio (z) = 0.00365 0.02760
#
# Static dielectric constant tensor:
#      x y z
#    x 1.960140 0.000000 0.000000 
#    y 0.000000 1.955150 0.000000 
#    z 0.000000 0.000000 1.902560 
# 
# From -- ./inp_files/16457.got.cif
#   From: 2010.05.17/outbox.cif.g08.bks.cpg/sg65_9_cif.got.tgz:16457.got - 2010.06.03 17:01:31.
