data_PCOD9486787
_publ_section_title
;
Structure prediction by ZEFSAII (Michael W. Deem and Ramdas Pophale) SiO2 
 PCOD9486787
Probable space group: C M M M
;
_chemical_formula_sum "Si O2"
_cell_formula_units_Z 104
_cell_length_a 18.351365
_cell_length_b 31.727605
_cell_length_c 7.265351
_cell_angle_alpha 90.000000
_cell_angle_beta 90.000000
_cell_angle_gamma 90.000000
_cell_volume 4230.213275
_symmetry_space_group_name_H-M "C M M M"
_symmetry_group_IT_number 65
_symmetry_cell_setting 'orthorhombic'
loop_
_space_group_symop_operation_xyz
x,y,z
-x,-y,z
x,-y,-z
-x,y,-z
-x,-y,-z
x,y,-z
-x,y,z
x,-y,z
1/2+x,1/2+y,z
1/2-x,1/2-y,z
1/2+x,1/2-y,-z
1/2-x,1/2+y,-z
1/2-x,1/2-y,-z
1/2+x,1/2+y,-z
1/2-x,1/2+y,z
1/2+x,1/2-y,z
loop_
_atom_site_type_symbol
_atom_site_label
_atom_site_fract_x
_atom_site_fract_y
_atom_site_fract_z
Si Si1 0.000000 0.876633 0.249316
Si Si2 0.732295 0.831100 0.722596
Si Si3 0.387885 0.301009 0.723362
Si Si4 0.890471 0.046698 0.224660
Si Si5 0.265607 0.072291 0.790046
Si Si6 0.421291 0.206256 0.723914
Si Si7 0.922130 0.550483 0.781133
O O1 0.936500 0.840442 0.216133
O O2 0.937566 0.913338 0.282703
O O3 0.730829 0.831038 0.500000
O O4 0.803073 0.804259 0.776213
O O5 0.747151 0.878077 0.788337
O O6 0.652908 0.815977 0.786077
O O7 0.392731 0.303071 0.500000
O O8 0.416901 0.255336 0.777548
O O9 0.806936 0.051476 0.287309
O O10 0.916596 0.000000 0.276047
O O11 0.892875 0.048804 0.000000
O O12 0.345205 0.065738 0.704984
O O13 0.270581 0.056102 0.000000
O O14 0.420053 0.205024 0.500000
O O15 0.500000 0.188562 0.782207
O O16 0.922226 0.500000 0.761134
O O17 0.000000 0.566532 0.708080
O O18 0.922349 0.560018 0.000000
#
# Coordination Sequence:
#
# PCOD9486787 Si02
#       7
#     8  16  16  16  16  16  16
#     4  12  19  31  54  79 102 134 168 230 277 308
#     4  10  20  34  53  78 107 138 174 217 263 313
#     4  10  19  33  53  77 105 137 177 220 261 313
#     4  10  21  36  54  77 105 139 183 228 267 318
#     4  10  19  33  53  77 105 139 174 214 265 316
#     4   9  17  31  53  80 104 133 178 225 260 303
#     4   8  14  26  47  74  98 124 167 216 254 298
#
# _framework density 24.585048
#
# number of rings (size 3 to 8) (size 9 to 14) (size 15 to 20)
#    0.000    2.308    2.308    2.077    0.000    4.923 
#    0.000    0.000    0.000   11.077    0.000    1.077 
#    0.000    0.000    0.000    0.000    0.000    0.000 
#
# Total GULP energy -289545.139820 kJ/mol
# GULP energy per Si atom -5568.175766 kJ/mol
# Density = 2.452909 g / cm^3
# Si number density = 24.585048 Si / 1000 Ang^3
#
#
#
# Elastic Constant Matrix: (Units=GPa)
#
#
# Indices 1 2 3 4 5 6 
#
# 1 221.8673 23.4168 8.0678 0.0000 0.0000 0.0000
# 2 23.4168 74.6123 -7.1325 0.0000 0.0000 0.0000
# 3 8.0678 -7.1325 102.6736 0.0000 0.0000 0.0000
# 4 0.0000 0.0000 0.0000 37.2715 0.0000 0.0000
# 5 0.0000 0.0000 0.0000 0.0000 78.2752 0.0000
# 6 0.0000 0.0000 0.0000 0.0000 0.0000 68.4142
#
#
#
# Elastic Compliance Matrix: (Units=1/GPa)
#
#
# Indices 1 2 3 4 5 6 
#
# 1 0.004684 -0.001515 -0.000473 0.000000 0.000000 0.000000
# 2 -0.001515 0.013982 0.001090 0.000000 0.000000 0.000000
# 3 -0.000473 0.001090 0.009853 0.000000 0.000000 0.000000
# 4 0.000000 0.000000 0.000000 0.026830 0.000000 0.000000
# 5 0.000000 0.000000 0.000000 0.000000 0.012775 0.000000
# 6 0.000000 0.000000 0.000000 0.000000 0.000000 0.014617
#
#
# Mechanical properties :
#
#
# Convention : Reuss Voigt Hill
#
# Bulk Modulus (GPa) = 37.42147 49.76193 43.59170
# Shear Modulus (GPa) = 53.50679 61.77891 57.64285
#
# Velocity S-wave (km/s) = 4.67025 5.01829 4.84739
# Velocity P-wave (km/s) = 6.65852 7.33909 7.00707
#
# Compressibility (1/GPa) = 0.02672262
#
# Stress axis : x y z
#
# Youngs Moduli (GPa) = 213.47658 71.51817 101.49659
#
# Poissons Ratio (x) = 0.10838 0.04804
# Poissons Ratio (y) = 0.32351 -0.11067
# Poissons Ratio (z) = 0.10105 -0.07798
#
# Static dielectric constant tensor:
#      x y z
#    x 1.976890 0.000000 0.000000 
#    y 0.000000 1.864860 0.000000 
#    z 0.000000 0.000000 2.049660 
# 
# From -- ./inp_files/27485.got.cif
#   From: 2010.05.17/outbox.cif.g08.bks.cpg/sg65_14_cif.got.tgz:27485.got - 2010.06.03 17:01:31.
