data_PCOD9486799
_publ_section_title
;
Structure prediction by ZEFSAII (Michael W. Deem and Ramdas Pophale) SiO2 
 PCOD9486799
Probable space group: C M M M
;
_chemical_formula_sum "Si O2"
_cell_formula_units_Z 72
_cell_length_a 10.721418
_cell_length_b 19.629759
_cell_length_c 19.359460
_cell_angle_alpha 90.000000
_cell_angle_beta 90.000000
_cell_angle_gamma 90.000000
_cell_volume 4074.369717
_symmetry_space_group_name_H-M "C M M M"
_symmetry_group_IT_number 65
_symmetry_cell_setting 'orthorhombic'
loop_
_space_group_symop_operation_xyz
x,y,z
-x,-y,z
x,-y,-z
-x,y,-z
-x,-y,-z
x,y,-z
-x,y,z
x,-y,z
1/2+x,1/2+y,z
1/2-x,1/2-y,z
1/2+x,1/2-y,-z
1/2-x,1/2+y,-z
1/2-x,1/2-y,-z
1/2+x,1/2+y,-z
1/2-x,1/2+y,z
1/2+x,1/2-y,z
loop_
_atom_site_type_symbol
_atom_site_label
_atom_site_fract_x
_atom_site_fract_y
_atom_site_fract_z
Si Si1 0.500000 0.417647 0.422312
Si Si2 0.136966 0.299189 0.582019
Si Si3 0.355787 0.693753 0.080930
Si Si4 0.753715 0.580753 0.341790
Si Si5 0.853739 0.921641 0.193654
O O1 0.500000 0.500000 0.427194
O O2 0.500000 0.389072 0.500000
O O3 0.374809 0.401240 0.381521
O O4 0.150232 0.313330 0.500000
O O5 0.250000 0.250000 0.602686
O O6 0.147575 0.368919 0.624520
O O7 0.000000 0.267842 0.592903
O O8 0.500000 0.717579 0.091837
O O9 0.250000 0.750000 0.094481
O O10 0.334458 0.630342 0.131502
O O11 0.346144 0.674492 0.000000
O O12 0.778589 0.500000 0.351595
O O13 0.729334 0.592816 0.260836
O O14 0.000000 0.917083 0.214904
O O15 0.832153 0.000000 0.172531
#
# Coordination Sequence:
#
# PCOD9486799 Si02
#       5
#     8  16  16  16  16
#     4   9  16  26  46  76 101 129 170 212 255 304
#     4  10  23  40  56  76 104 139 177 222 274 323
#     4   9  18  33  54  79 106 139 177 217 261 311
#     4  10  19  33  53  78 107 138 174 218 266 317
#     4   9  17  31  51  78 111 141 172 216 265 310
#
# _framework density 17.671446
#
# number of rings (size 3 to 8) (size 9 to 14) (size 15 to 20)
#    0.000    2.556    1.111    0.667    1.556    3.111 
#    0.000    6.667    0.000    2.000    0.000    3.111 
#    0.000    0.000    0.000    0.000    0.000    0.000 
#
# Total GULP energy -200732.422454 kJ/mol
# GULP energy per Si atom -5575.900624 kJ/mol
# Density = 1.763122 g / cm^3
# Si number density = 17.671446 Si / 1000 Ang^3
#
#
#
# Elastic Constant Matrix: (Units=GPa)
#
#
# Indices 1 2 3 4 5 6 
#
# 1 95.5733 54.1848 44.9812 0.0000 0.0000 0.0000
# 2 54.1848 82.8285 57.1919 0.0000 0.0000 0.0000
# 3 44.9812 57.1919 72.0787 0.0000 0.0000 0.0000
# 4 0.0000 0.0000 0.0000 29.5288 0.0000 0.0000
# 5 0.0000 0.0000 0.0000 0.0000 20.8178 0.0000
# 6 0.0000 0.0000 0.0000 0.0000 0.0000 28.6205
#
#
#
# Elastic Compliance Matrix: (Units=1/GPa)
#
#
# Indices 1 2 3 4 5 6 
#
# 1 0.017132 -0.008461 -0.003978 0.000000 0.000000 0.000000
# 2 -0.008461 0.030881 -0.019223 0.000000 0.000000 0.000000
# 3 -0.003978 -0.019223 0.031609 0.000000 0.000000 0.000000
# 4 0.000000 0.000000 0.000000 0.033865 0.000000 0.000000
# 5 0.000000 0.000000 0.000000 0.000000 0.048036 0.000000
# 6 0.000000 0.000000 0.000000 0.000000 0.000000 0.034940
#
#
# Mechanical properties :
#
#
# Convention : Reuss Voigt Hill
#
# Bulk Modulus (GPa) = 61.35528 62.57739 61.96633
# Shear Modulus (GPa) = 18.85215 22.06824 20.46019
#
# Velocity S-wave (km/s) = 3.26976 3.53768 3.40635
# Velocity P-wave (km/s) = 7.00360 7.22325 7.11428
#
# Compressibility (1/GPa) = 0.01629852
#
# Stress axis : x y z
#
# Youngs Moduli (GPa) = 58.36937 32.38193 31.63611
#
# Poissons Ratio (x) = 0.27397 0.12586
# Poissons Ratio (y) = 0.49384 0.60815
# Poissons Ratio (z) = 0.23221 0.62249
#
# Static dielectric constant tensor:
#      x y z
#    x 1.628730 0.000000 0.000000 
#    y 0.000000 1.598310 0.000000 
#    z 0.000000 0.000000 1.579420 
# 
# From -- ./inp_files/51138.got.cif
#   From: 2010.05.17/outbox.cif.g08.bks.cpg/sg65_26_cif.got.tgz:51138.got - 2010.06.03 17:01:31.
