data_PCOD9486342
_publ_section_title
;
Structure prediction by ZEFSAII (Michael W. Deem and Ramdas Pophale) SiO2 
 PCOD9486342
Probable space group: C M M M
;
_chemical_formula_sum "Si O2"
_cell_formula_units_Z 72
_cell_length_a 10.478277
_cell_length_b 14.992608
_cell_length_c 21.973377
_cell_angle_alpha 90.000000
_cell_angle_beta 90.000000
_cell_angle_gamma 90.000000
_cell_volume 3451.945005
_symmetry_space_group_name_H-M "C M M M"
_symmetry_group_IT_number 65
_symmetry_cell_setting 'orthorhombic'
loop_
_space_group_symop_operation_xyz
x,y,z
-x,-y,z
x,-y,-z
-x,y,-z
-x,-y,-z
x,y,-z
-x,y,z
x,-y,z
1/2+x,1/2+y,z
1/2-x,1/2-y,z
1/2+x,1/2-y,-z
1/2-x,1/2+y,-z
1/2-x,1/2-y,-z
1/2+x,1/2+y,-z
1/2-x,1/2+y,z
1/2+x,1/2-y,z
loop_
_atom_site_type_symbol
_atom_site_label
_atom_site_fract_x
_atom_site_fract_y
_atom_site_fract_z
Si Si1 0.645754 0.605894 0.275151
Si Si2 0.000000 0.639378 0.928879
Si Si3 0.355891 0.175022 0.500000
Si Si4 0.247375 0.142412 0.857724
Si Si5 0.141290 0.605951 0.634371
Si Si6 0.000000 0.142439 0.930679
O O1 0.500000 0.642450 0.271989
O O2 0.632606 0.500000 0.285366
O O3 0.720761 0.617420 0.211769
O O4 0.738382 0.642452 0.327954
O O5 0.124494 0.611129 0.891005
O O6 0.000000 0.748474 0.930122
O O7 0.000000 0.611542 0.000000
O O8 0.500000 0.212799 0.500000
O O9 0.250000 0.250000 0.500000
O O10 0.342629 0.120473 0.437617
O O11 0.250000 0.250000 0.859662
O O12 0.125510 0.111889 0.896024
O O13 0.137368 0.500000 0.645924
O O14 0.000000 0.642098 0.651715
O O15 0.000000 0.113778 0.000000
#
# Coordination Sequence:
#
# PCOD9486342 Si02
#       6
#    16   8   8  16  16   8
#     4  10  21  37  55  77 107 142 180 221 265 315
#     4   9  18  30  49  77 103 132 175 224 269 317
#     4  10  21  37  57  87 119 146 174 216 268 312
#     4  10  19  32  51  77 105 136 175 221 270 318
#     4   9  19  37  60  81 104 142 187 222 256 307
#     4   9  16  30  51  73 101 136 175 218 265 319
#
# _framework density 20.857807999999999
#
# number of rings (size 3 to 8) (size 9 to 14) (size 15 to 20)
#    0.000    2.444    1.111    1.000    1.556    5.778 
#    0.000    2.222    0.000    7.333    0.000    0.000 
#    0.000    0.000    0.000    0.000    0.000    0.000 
#
# Total GULP energy -200904.541524 kJ/mol
# GULP energy per Si atom -5580.681709 kJ/mol
# Density = 2.081033 g / cm^3
# Si number density = 20.857808 Si / 1000 Ang^3
#
#
#
# Elastic Constant Matrix: (Units=GPa)
#
#
# Indices 1 2 3 4 5 6 
#
# 1 211.4265 11.4594 110.6115 0.0000 0.0000 0.0000
# 2 11.4594 39.8901 -6.7300 0.0000 0.0000 0.0000
# 3 110.6115 -6.7300 156.7682 0.0000 0.0000 0.0000
# 4 0.0000 0.0000 0.0000 23.0154 0.0000 0.0000
# 5 0.0000 0.0000 0.0000 0.0000 40.5886 0.0000
# 6 0.0000 0.0000 0.0000 0.0000 0.0000 3.2162
#
#
#
# Elastic Compliance Matrix: (Units=1/GPa)
#
#
# Indices 1 2 3 4 5 6 
#
# 1 0.007890 -0.003229 -0.005705 0.000000 0.000000 0.000000
# 2 -0.003229 0.026573 0.003419 0.000000 0.000000 0.000000
# 3 -0.005705 0.003419 0.010551 0.000000 0.000000 0.000000
# 4 0.000000 0.000000 0.000000 0.043449 0.000000 0.000000
# 5 0.000000 0.000000 0.000000 0.000000 0.024637 0.000000
# 6 0.000000 0.000000 0.000000 0.000000 0.000000 0.310927
#
#
# Mechanical properties :
#
#
# Convention : Reuss Voigt Hill
#
# Bulk Modulus (GPa) = 29.42597 70.97407 50.20002
# Shear Modulus (GPa) = 11.20107 32.88031 22.04069
#
# Velocity S-wave (km/s) = 2.31988 3.97470 3.25424
# Velocity P-wave (km/s) = 4.61675 7.42737 6.18385
#
# Compressibility (1/GPa) = 0.03398359
#
# Stress axis : x y z
#
# Youngs Moduli (GPa) = 126.74845 37.63170 94.77630
#
# Poissons Ratio (x) = 0.12152 0.54073
# Poissons Ratio (y) = 0.40928 -0.32405
# Poissons Ratio (z) = 0.72314 -0.12867
#
# Static dielectric constant tensor:
#      x y z
#    x 1.759360 0.000000 0.000000 
#    y 0.000000 1.769860 0.000000 
#    z 0.000000 0.000000 1.716820 
# 
# From -- ./inp_files/59337.got.cif
#   From: 2010.05.17/outbox.cif.g08.bks.cpg/sg65_30_cif.got.tgz:59337.got - 2010.06.03 17:01:31.
