data_PCOD9486435
_publ_section_title
;
Structure prediction by ZEFSAII (Michael W. Deem and Ramdas Pophale) SiO2 
 PCOD9486435
Probable space group: C M M M
;
_chemical_formula_sum "Si O2"
_cell_formula_units_Z 80
_cell_length_a 26.855484
_cell_length_b 8.714889
_cell_length_c 19.502244
_cell_angle_alpha 90.000000
_cell_angle_beta 90.000000
_cell_angle_gamma 90.000000
_cell_volume 4564.355152
_symmetry_space_group_name_H-M "C M M M"
_symmetry_group_IT_number 65
_symmetry_cell_setting 'orthorhombic'
loop_
_space_group_symop_operation_xyz
x,y,z
-x,-y,z
x,-y,-z
-x,y,-z
-x,-y,-z
x,y,-z
-x,y,z
x,-y,z
1/2+x,1/2+y,z
1/2-x,1/2-y,z
1/2+x,1/2-y,-z
1/2-x,1/2+y,-z
1/2-x,1/2-y,-z
1/2+x,1/2+y,-z
1/2-x,1/2+y,z
1/2+x,1/2-y,z
loop_
_atom_site_type_symbol
_atom_site_label
_atom_site_fract_x
_atom_site_fract_y
_atom_site_fract_z
Si Si1 0.803830 0.183220 0.080747
Si Si2 0.000000 0.676985 0.669622
Si Si3 0.894841 0.184294 0.324846
Si Si4 0.303112 0.684944 0.420633
Si Si5 0.392047 0.185357 0.828147
Si Si6 0.500000 0.177032 0.836522
O O1 0.750000 0.250000 0.100675
O O2 0.847396 0.256984 0.125175
O O3 0.803709 0.000000 0.089412
O O4 0.811163 0.217825 0.000000
O O5 0.051319 0.758223 0.649076
O O6 0.000000 0.500000 0.648021
O O7 0.000000 0.678551 0.753213
O O8 0.849671 0.232415 0.374196
O O9 0.886576 0.253047 0.249167
O O10 0.895658 0.000000 0.320415
O O11 0.310051 0.732894 0.500000
O O12 0.300659 0.500000 0.419085
O O13 0.250000 0.750000 0.396701
O O14 0.446164 0.242839 0.855739
O O15 0.393375 0.000000 0.826014
O O16 0.500000 0.000000 0.859635
#
# Coordination Sequence:
#
# PCOD9486435 Si02
#       6
#    16   8  16  16  16   8
#     4  10  21  37  55  75 101 134 172 213 258 306
#     4   9  17  31  50  73 102 134 169 208 254 304
#     4  10  19  32  52  77 104 134 170 211 255 302
#     4   9  19  35  53  73  99 133 171 210 255 306
#     4  10  19  33  54  78 105 135 169 209 252 301
#     4   7  14  29  48  71  98 130 163 197 240 289
#
# _framework density 17.52712
#
# number of rings (size 3 to 8) (size 9 to 14) (size 15 to 20)
#    0.000    2.600    0.000    3.300    0.000    3.600 
#    0.000    4.500    0.000    6.000    0.000    0.000 
#    0.000    0.000    0.000    0.000    0.000    0.000 
#
# Total GULP energy -222978.554907 kJ/mol
# GULP energy per Si atom -5574.463873 kJ/mol
# Density = 1.748723 g / cm^3
# Si number density = 17.527120 Si / 1000 Ang^3
#
#
#
# Elastic Constant Matrix: (Units=GPa)
#
#
# Indices 1 2 3 4 5 6 
#
# 1 222.7643 57.9680 86.3426 0.0000 0.0000 0.0000
# 2 57.9680 52.3583 31.5390 0.0000 0.0000 0.0000
# 3 86.3426 31.5390 52.5524 0.0000 0.0000 0.0000
# 4 0.0000 0.0000 0.0000 16.8488 0.0000 0.0000
# 5 0.0000 0.0000 0.0000 0.0000 -65.5361 0.0000
# 6 0.0000 0.0000 0.0000 0.0000 0.0000 33.4156
#
#
#
# Elastic Compliance Matrix: (Units=1/GPa)
#
#
# Indices 1 2 3 4 5 6 
#
# 1 0.012535 -0.002306 -0.019211 0.000000 0.000000 0.000000
# 2 -0.002306 0.030337 -0.014418 0.000000 0.000000 0.000000
# 3 -0.019211 -0.014418 0.059245 0.000000 0.000000 0.000000
# 4 0.000000 0.000000 0.000000 0.059352 0.000000 0.000000
# 5 0.000000 0.000000 0.000000 0.000000 -0.015259 0.000000
# 6 0.000000 0.000000 0.000000 0.000000 0.000000 0.029926
#
#
# Mechanical properties :
#
#
# Convention : Reuss Voigt Hill
#
# Bulk Modulus (GPa) = 33.06083 75.48603 54.27343
# Shear Modulus (GPa) = 19.37308 7.06734 13.22021
#
# Velocity S-wave (km/s) = 3.32824 2.01022 2.74938
# Velocity P-wave (km/s) = 5.80286 6.96775 6.41182
#
# Compressibility (1/GPa) = 0.03024727
#
# Stress axis : x y z
#
# Youngs Moduli (GPa) = 79.77388 32.96289 16.87894
#
# Poissons Ratio (x) = 0.07602 0.32427
# Poissons Ratio (y) = 0.18397 0.24336
# Poissons Ratio (z) = 1.53257 0.47525
#
# Static dielectric constant tensor:
#      x y z
#    x 1.608230 0.000000 0.000000 
#    y 0.000000 1.592480 0.000000 
#    z 0.000000 0.000000 1.572750 
# 
# From -- ./inp_files/57298.got.cif
#   From: 2010.05.17/outbox.cif.g08.bks.cpg/sg65_29_cif.got.tgz:57298.got - 2010.06.03 17:01:31.
