data_PCOD9486178
_publ_section_title
;
Structure prediction by ZEFSAII (Michael W. Deem and Ramdas Pophale) SiO2 
 PCOD9486178
Probable space group: C M M M
;
_chemical_formula_sum "Si O2"
_cell_formula_units_Z 104
_cell_length_a 8.408447
_cell_length_b 26.488445
_cell_length_c 27.142278
_cell_angle_alpha 90.000000
_cell_angle_beta 90.000000
_cell_angle_gamma 90.000000
_cell_volume 6045.309627
_symmetry_space_group_name_H-M "C M M M"
_symmetry_group_IT_number 65
_symmetry_cell_setting 'orthorhombic'
loop_
_space_group_symop_operation_xyz
x,y,z
-x,-y,z
x,-y,-z
-x,y,-z
-x,-y,-z
x,y,-z
-x,y,z
x,-y,z
1/2+x,1/2+y,z
1/2-x,1/2-y,z
1/2+x,1/2-y,-z
1/2-x,1/2+y,-z
1/2-x,1/2-y,-z
1/2+x,1/2+y,-z
1/2-x,1/2+y,z
1/2+x,1/2-y,z
loop_
_atom_site_type_symbol
_atom_site_label
_atom_site_fract_x
_atom_site_fract_y
_atom_site_fract_z
Si Si1 0.690794 0.805421 0.269758
Si Si2 0.307525 0.597928 0.443309
Si Si3 0.805704 0.402165 0.208975
Si Si4 0.190698 0.500000 0.615093
Si Si5 0.810432 0.941312 0.000000
Si Si6 0.309352 0.694563 0.381035
Si Si7 0.805943 0.500000 0.728529
Si Si8 0.191659 0.441173 0.895753
O O1 0.500000 0.805136 0.270548
O O2 0.750000 0.750000 0.254910
O O3 0.746273 0.850094 0.233909
O O4 0.749423 0.814855 0.325471
O O5 0.253936 0.595690 0.500000
O O6 0.500000 0.597392 0.443230
O O7 0.249253 0.549675 0.413073
O O8 0.255432 0.649515 0.416601
O O9 0.755790 0.449869 0.242248
O O10 0.754406 0.411480 0.152793
O O11 0.000000 0.402174 0.208889
O O12 0.246821 0.500000 0.671899
O O13 0.000000 0.500000 0.615547
O O14 0.749690 0.920127 0.948136
O O15 0.000000 0.940805 0.000000
O O16 0.753964 0.000000 0.000000
O O17 0.500000 0.695423 0.380246
O O18 0.250000 0.750000 0.396285
O O19 0.000000 0.500000 0.728551
O O20 0.243944 0.500000 0.891078
O O21 0.000000 0.441478 0.896160
#
# Coordination Sequence:
#
# PCOD9486178 Si02
#       8
#    16  16  16   8   8  16   8  16
#     4  10  19  32  50  72  99 130 162 196 239 288
#     4  10  22  39  55  71  97 132 164 197 244 298
#     4   9  16  27  46  71  97 124 156 198 240 278
#     4  11  22  34  53  78 101 129 166 204 239 282
#     4   9  17  27  39  59  94 133 160 187 232 282
#     4  10  20  35  55  76  98 125 160 201 248 299
#     4   9  16  28  46  72 101 122 147 192 245 284
#     4   9  15  26  45  67  90 120 162 200 231 273
#
# _framework density 17.203420999999999
#
# number of rings (size 3 to 8) (size 9 to 14) (size 15 to 20)
#    0.000    2.385    0.769    3.462    0.000    4.923 
#    0.000    1.538    0.000    1.846    0.000    0.538 
#    0.000    0.000    0.000    0.000    0.000    0.000 
#
# Total GULP energy -290077.395582 kJ/mol
# GULP energy per Si atom -5578.411453 kJ/mol
# Density = 1.716427 g / cm^3
# Si number density = 17.203421 Si / 1000 Ang^3
#
#
#
# Elastic Constant Matrix: (Units=GPa)
#
#
# Indices 1 2 3 4 5 6 
#
# 1 17.3039 18.9522 21.8522 0.0000 0.0000 0.0000
# 2 18.9522 125.8893 105.5847 0.0000 0.0000 0.0000
# 3 21.8522 105.5847 177.3347 0.0000 0.0000 0.0000
# 4 0.0000 0.0000 0.0000 8.5346 0.0000 0.0000
# 5 0.0000 0.0000 0.0000 0.0000 13.3784 0.0000
# 6 0.0000 0.0000 0.0000 0.0000 0.0000 17.8135
#
#
#
# Elastic Compliance Matrix: (Units=1/GPa)
#
#
# Indices 1 2 3 4 5 6 
#
# 1 0.071169 -0.006709 -0.004775 0.000000 0.000000 0.000000
# 2 -0.006709 0.016499 -0.008997 0.000000 0.000000 0.000000
# 3 -0.004775 -0.008997 0.011584 0.000000 0.000000 0.000000
# 4 0.000000 0.000000 0.000000 0.117170 0.000000 0.000000
# 5 0.000000 0.000000 0.000000 0.000000 0.074747 0.000000
# 6 0.000000 0.000000 0.000000 0.000000 0.000000 0.056137
#
#
# Mechanical properties :
#
#
# Convention : Reuss Voigt Hill
#
# Bulk Modulus (GPa) = 17.15559 68.14514 42.65036
# Shear Modulus (GPa) = 12.26390 19.55455 15.90922
#
# Velocity S-wave (km/s) = 2.67287 3.37511 3.04430
# Velocity P-wave (km/s) = 4.41809 7.40850 6.09940
#
# Compressibility (1/GPa) = 0.05829006
#
# Stress axis : x y z
#
# Youngs Moduli (GPa) = 14.05100 60.60828 86.32416
#
# Poissons Ratio (x) = 0.40664 0.41221
# Poissons Ratio (y) = 0.09427 0.77665
# Poissons Ratio (z) = 0.06710 0.54529
#
# Static dielectric constant tensor:
#      x y z
#    x 1.595990 0.000000 0.000000 
#    y 0.000000 1.564390 0.000000 
#    z 0.000000 0.000000 1.586060 
# 
# From -- ./inp_files/73834.got.cif
#   From: 2010.05.17/outbox.cif.g08.bks.cpg/sg65_37_cif.got.tgz:73834.got - 2010.06.03 17:01:31.
