data_PCOD9486779
_publ_section_title
;
Structure prediction by ZEFSAII (Michael W. Deem and Ramdas Pophale) SiO2 
 PCOD9486779
Probable space group: C M M M
;
_chemical_formula_sum "Si O2"
_cell_formula_units_Z 128
_cell_length_a 19.644208
_cell_length_b 16.991281
_cell_length_c 21.856889
_cell_angle_alpha 90.000000
_cell_angle_beta 90.000000
_cell_angle_gamma 90.000000
_cell_volume 7295.398053
_symmetry_space_group_name_H-M "C M M M"
_symmetry_group_IT_number 65
_symmetry_cell_setting 'orthorhombic'
loop_
_space_group_symop_operation_xyz
x,y,z
-x,-y,z
x,-y,-z
-x,y,-z
-x,-y,-z
x,y,-z
-x,y,z
x,-y,z
1/2+x,1/2+y,z
1/2-x,1/2-y,z
1/2+x,1/2-y,-z
1/2-x,1/2+y,-z
1/2-x,1/2-y,-z
1/2+x,1/2+y,-z
1/2-x,1/2+y,z
1/2+x,1/2-y,z
loop_
_atom_site_type_symbol
_atom_site_label
_atom_site_fract_x
_atom_site_fract_y
_atom_site_fract_z
Si Si1 0.670565 0.239238 0.573420
Si Si2 0.421181 0.315140 0.667543
Si Si3 0.184349 0.694234 0.067452
Si Si4 0.923736 0.206444 0.869913
Si Si5 0.426386 0.170203 0.242944
Si Si6 0.352309 0.406167 0.221699
Si Si7 0.421978 0.090004 0.425840
Si Si8 0.200744 0.407001 0.189565
O O1 0.666327 0.247852 0.500000
O O2 0.750000 0.250000 0.590998
O O3 0.624784 0.303908 0.607922
O O4 0.635681 0.154473 0.589086
O O5 0.500000 0.335409 0.655266
O O6 0.420586 0.230064 0.700997
O O7 0.388300 0.373365 0.717427
O O8 0.250000 0.750000 0.070203
O O9 0.121018 0.752417 0.078619
O O10 0.189587 0.634430 0.123978
O O11 0.180542 0.657234 0.000000
O O12 0.926879 0.271645 0.815749
O O13 0.888331 0.132545 0.837267
O O14 0.000000 0.187603 0.889355
O O15 0.500000 0.129151 0.245481
O O16 0.361438 0.116044 0.233635
O O17 0.356540 0.500000 0.220094
O O18 0.273145 0.381017 0.217652
O O19 0.423532 0.087579 0.500000
O O20 0.500000 0.111968 0.406762
O O21 0.408566 0.000000 0.404651
O O22 0.203006 0.500000 0.181053
#
# Coordination Sequence:
#
# PCOD9486779 Si02
#       8
#    16  16  16  16  16  16  16  16
#     4  10  21  35  53  81 114 148 181 217 268 329
#     4  10  21  35  56  81 103 138 180 223 270 319
#     4  10  19  33  53  76 105 143 181 218 259 310
#     4   9  17  31  52  76 102 136 177 221 265 311
#     4   8  17  32  51  76 104 136 174 216 265 316
#     4  10  20  34  54  81 106 135 180 231 278 325
#     4   8  14  28  52  77 101 134 176 218 256 301
#     4  10  20  33  53  81 109 142 179 215 268 323
#
# _framework density 17.545307999999999
#
# number of rings (size 3 to 8) (size 9 to 14) (size 15 to 20)
#    0.000    2.625    1.250    1.875    1.750    2.500 
#    0.000    1.250    0.000    2.250    0.000    5.250 
#    0.000    0.000    0.000    0.000    0.000    0.000 
#
# Total GULP energy -356555.056859 kJ/mol
# GULP energy per Si atom -5571.172763 kJ/mol
# Density = 1.750537 g / cm^3
# Si number density = 17.545308 Si / 1000 Ang^3
#
#
#
# Elastic Constant Matrix: (Units=GPa)
#
#
# Indices 1 2 3 4 5 6 
#
# 1 167.5677 50.4816 31.0198 0.0000 0.0000 0.0000
# 2 50.4816 59.9833 13.2381 0.0000 0.0000 0.0000
# 3 31.0198 13.2381 32.7485 0.0000 0.0000 0.0000
# 4 0.0000 0.0000 0.0000 15.8610 0.0000 0.0000
# 5 0.0000 0.0000 0.0000 0.0000 -76.8503 0.0000
# 6 0.0000 0.0000 0.0000 0.0000 0.0000 24.9878
#
#
#
# Elastic Compliance Matrix: (Units=1/GPa)
#
#
# Indices 1 2 3 4 5 6 
#
# 1 0.008942 -0.006210 -0.005959 0.000000 0.000000 0.000000
# 2 -0.006210 0.022617 -0.003260 0.000000 0.000000 0.000000
# 3 -0.005959 -0.003260 0.037499 0.000000 0.000000 0.000000
# 4 0.000000 0.000000 0.000000 0.063048 0.000000 0.000000
# 5 0.000000 0.000000 0.000000 0.000000 -0.013012 0.000000
# 6 0.000000 0.000000 0.000000 0.000000 0.000000 0.040019
#
#
# Mechanical properties :
#
#
# Convention : Reuss Voigt Hill
#
# Bulk Modulus (GPa) = 26.17956 49.97539 38.07747
# Shear Modulus (GPa) = 24.66635 3.83702 14.25169
#
# Velocity S-wave (km/s) = 3.75356 1.48043 2.85314
# Velocity P-wave (km/s) = 5.80854 5.60961 5.70994
#
# Compressibility (1/GPa) = 0.03819775
#
# Stress axis : x y z
#
# Youngs Moduli (GPa) = 111.83411 44.21397 26.66764
#
# Poissons Ratio (x) = 0.27458 0.15892
# Poissons Ratio (y) = 0.69451 0.08695
# Poissons Ratio (z) = 0.66647 0.14416
#
# Static dielectric constant tensor:
#      x y z
#    x 1.627770 0.000000 0.000000 
#    y 0.000000 1.580250 0.000000 
#    z 0.000000 0.000000 1.607650 
# 
# From -- ./inp_files/70681.got.cif
#   From: 2010.05.17/outbox.cif.g08.bks.cpg/sg65_36_cif.got.tgz:70681.got - 2010.06.03 17:01:31.
