data_PCOD9486683
_publ_section_title
;
Structure prediction by ZEFSAII (Michael W. Deem and Ramdas Pophale) SiO2 
 PCOD9486683
Probable space group: C M M M
;
_chemical_formula_sum "Si O2"
_cell_formula_units_Z 72
_cell_length_a 8.561996
_cell_length_b 24.030116
_cell_length_c 21.684619
_cell_angle_alpha 90.000000
_cell_angle_beta 90.000000
_cell_angle_gamma 90.000000
_cell_volume 4461.518353
_symmetry_space_group_name_H-M "C M M M"
_symmetry_group_IT_number 65
_symmetry_cell_setting 'orthorhombic'
loop_
_space_group_symop_operation_xyz
x,y,z
-x,-y,z
x,-y,-z
-x,y,-z
-x,-y,-z
x,y,-z
-x,y,z
x,-y,z
1/2+x,1/2+y,z
1/2-x,1/2-y,z
1/2+x,1/2-y,-z
1/2-x,1/2+y,-z
1/2-x,1/2-y,-z
1/2+x,1/2+y,-z
1/2-x,1/2+y,z
1/2+x,1/2-y,z
loop_
_atom_site_type_symbol
_atom_site_label
_atom_site_fract_x
_atom_site_fract_y
_atom_site_fract_z
Si Si1 0.311694 0.313384 0.000000
Si Si2 0.689208 0.380528 0.379003
Si Si3 0.311912 0.687885 0.500000
Si Si4 0.685650 0.813246 0.736964
Si Si5 0.312276 0.686561 0.866620
Si Si6 0.809582 0.000000 0.571937
O O1 0.250000 0.250000 0.000000
O O2 0.265364 0.338453 0.066527
O O3 0.500000 0.311158 0.000000
O O4 0.500000 0.379399 0.375191
O O5 0.737487 0.344548 0.438613
O O6 0.756513 0.352124 0.318218
O O7 0.738193 0.443849 0.393110
O O8 0.500000 0.688636 0.500000
O O9 0.250000 0.750000 0.500000
O O10 0.500000 0.809714 0.737417
O O11 0.750000 0.750000 0.729128
O O12 0.744049 0.836389 0.803065
O O13 0.500000 0.686933 0.862429
O O14 0.250000 0.750000 0.868023
O O15 0.759141 0.000000 0.500000
O O16 0.000000 0.000000 0.570108
#
# Coordination Sequence:
#
# PCOD9486683 Si02
#       6
#     8  16   8  16  16   8
#     4   8  14  22  36  58  84 115 152 189 224 264
#     4  10  19  33  52  72  92 118 151 191 233 280
#     4  10  20  31  47  69  93 118 149 184 223 270
#     4  11  21  32  45  65  94 128 161 194 232 276
#     4   9  15  25  40  60  87 120 155 190 227 270
#     4   9  16  32  57  77  91 112 149 192 237 283
#
# _framework density 16.138005
#
# number of rings (size 3 to 8) (size 9 to 14) (size 15 to 20)
#    0.000    2.333    1.111    4.667    0.000    3.556 
#    0.000    0.556    0.000    0.667    0.000    0.000 
#    0.000    0.889    0.000   10.222    0.000    5.111 
#
# Total GULP energy -200541.720469 kJ/mol
# GULP energy per Si atom -5570.603346 kJ/mol
# Density = 1.610127 g / cm^3
# Si number density = 16.138005 Si / 1000 Ang^3
#
#
#
# Elastic Constant Matrix: (Units=GPa)
#
#
# Indices 1 2 3 4 5 6 
#
# 1 48.7006 24.0480 45.5451 0.0000 0.0000 0.0000
# 2 24.0480 91.0996 70.3436 0.0000 0.0000 0.0000
# 3 45.5451 70.3436 204.5029 0.0000 0.0000 0.0000
# 4 0.0000 0.0000 0.0000 0.1246 0.0000 0.0000
# 5 0.0000 0.0000 0.0000 0.0000 20.8396 0.0000
# 6 0.0000 0.0000 0.0000 0.0000 0.0000 13.1116
#
#
#
# Elastic Compliance Matrix: (Units=1/GPa)
#
#
# Indices 1 2 3 4 5 6 
#
# 1 0.026662 -0.003340 -0.004789 0.000000 0.000000 0.000000
# 2 -0.003340 0.015365 -0.004541 0.000000 0.000000 0.000000
# 3 -0.004789 -0.004541 0.007519 0.000000 0.000000 0.000000
# 4 0.000000 0.000000 0.000000 8.028572 0.000000 0.000000
# 5 0.000000 0.000000 0.000000 0.000000 0.047986 0.000000
# 6 0.000000 0.000000 0.000000 0.000000 0.000000 0.076268
#
#
# Mechanical properties :
#
#
# Convention : Reuss Voigt Hill
#
# Bulk Modulus (GPa) = 41.31445 69.35295 55.33370
# Shear Modulus (GPa) = 0.60711 20.43956 10.52333
#
# Velocity S-wave (km/s) = 0.61401 3.56272 2.55636
# Velocity P-wave (km/s) = 5.11458 7.74546 6.56320
#
# Compressibility (1/GPa) = 0.02420461
#
# Stress axis : x y z
#
# Youngs Moduli (GPa) = 37.50710 65.08121 133.00399
#
# Poissons Ratio (x) = 0.21738 0.63694
# Poissons Ratio (y) = 0.12528 0.60402
# Poissons Ratio (z) = 0.17962 0.29556
#
# Static dielectric constant tensor:
#      x y z
#    x 1.548250 0.000000 0.000000 
#    y 0.000000 1.496900 0.000000 
#    z 0.000000 0.000000 1.592430 
# 
# From -- ./inp_files/59585.got.cif
#   From: 2010.05.17/outbox.cif.g08.bks.cpg/sg65_30_cif.got.tgz:59585.got - 2010.06.03 17:01:31.
