data_PCOD9486803
_publ_section_title
;
Structure prediction by ZEFSAII (Michael W. Deem and Ramdas Pophale) SiO2 
 PCOD9486803
Probable space group: C M M M
;
_chemical_formula_sum "Si O2"
_cell_formula_units_Z 112
_cell_length_a 31.674492
_cell_length_b 14.354240
_cell_length_c 13.810820
_cell_angle_alpha 90.000000
_cell_angle_beta 90.000000
_cell_angle_gamma 90.000000
_cell_volume 6279.272445
_symmetry_space_group_name_H-M "C M M M"
_symmetry_group_IT_number 65
_symmetry_cell_setting 'orthorhombic'
loop_
_space_group_symop_operation_xyz
x,y,z
-x,-y,z
x,-y,-z
-x,y,-z
-x,-y,-z
x,y,-z
-x,y,z
x,-y,z
1/2+x,1/2+y,z
1/2-x,1/2-y,z
1/2+x,1/2-y,-z
1/2-x,1/2+y,-z
1/2-x,1/2-y,-z
1/2+x,1/2+y,-z
1/2-x,1/2+y,z
1/2+x,1/2-y,z
loop_
_atom_site_type_symbol
_atom_site_label
_atom_site_fract_x
_atom_site_fract_y
_atom_site_fract_z
Si Si1 0.187846 0.612306 0.608928
Si Si2 0.826973 0.896840 0.194332
Si Si3 0.452695 0.257926 0.615293
Si Si4 0.873754 0.889822 0.390172
Si Si5 0.766379 0.350062 0.196775
Si Si6 0.148210 0.695843 0.111854
Si Si7 0.099877 0.389045 0.713854
O O1 0.195525 0.645530 0.500000
O O2 0.192573 0.500000 0.610351
O O3 0.218539 0.649935 0.691817
O O4 0.139895 0.631800 0.642753
O O5 0.839224 0.875782 0.306446
O O6 0.776551 0.905658 0.184807
O O7 0.842779 0.805192 0.137081
O O8 0.845038 0.000000 0.169294
O O9 0.451664 0.241583 0.500000
O O10 0.500000 0.289244 0.640847
O O11 0.415874 0.332719 0.635615
O O12 0.439892 0.164019 0.670124
O O13 0.860373 0.863901 0.500000
O O14 0.883192 0.000000 0.391273
O O15 0.750000 0.250000 0.166256
O O16 0.809291 0.364097 0.136967
O O17 0.113176 0.655700 0.184089
O O18 0.137813 0.686810 0.000000
O O19 0.095231 0.500000 0.720115
#
# Coordination Sequence:
#
# PCOD9486803 Si02
#       7
#    16  16  16  16  16  16  16
#     4   9  17  29  45  65  94 134 173 207 247 301
#     4  10  19  33  53  78 108 141 177 222 273 317
#     4  10  20  34  56  86 116 144 174 210 258 318
#     4   9  18  33  54  81 114 150 182 212 254 314
#     4   9  19  31  45  71 103 136 175 218 258 307
#     4  10  21  38  56  75 102 140 184 229 274 320
#     4  10  20  36  54  75 105 140 177 220 267 319
#
# _framework density 17.836462000000001
#
# number of rings (size 3 to 8) (size 9 to 14) (size 15 to 20)
#    0.000    2.429    1.429    0.857    0.000    6.000 
#    0.000    3.571    0.000    0.429    0.000    1.000 
#    0.000    2.286    0.000    0.000    0.000    0.000 
#
# Total GULP energy -311970.214661 kJ/mol
# GULP energy per Si atom -5570.896690 kJ/mol
# Density = 1.779587 g / cm^3
# Si number density = 17.836462 Si / 1000 Ang^3
#
#
#
# Elastic Constant Matrix: (Units=GPa)
#
#
# Indices 1 2 3 4 5 6 
#
# 1 30.6265 14.8305 -4.8303 0.0000 0.0000 0.0000
# 2 14.8305 58.0801 4.2138 0.0000 0.0000 0.0000
# 3 -4.8303 4.2138 35.2280 0.0000 0.0000 0.0000
# 4 0.0000 0.0000 0.0000 8.7593 0.0000 0.0000
# 5 0.0000 0.0000 0.0000 0.0000 8.0973 0.0000
# 6 0.0000 0.0000 0.0000 0.0000 0.0000 12.2533
#
#
#
# Elastic Compliance Matrix: (Units=1/GPa)
#
#
# Indices 1 2 3 4 5 6 
#
# 1 0.038699 -0.010356 0.006545 0.000000 0.000000 0.000000
# 2 -0.010356 0.020140 -0.003829 0.000000 0.000000 0.000000
# 3 0.006545 -0.003829 0.029742 0.000000 0.000000 0.000000
# 4 0.000000 0.000000 0.000000 0.114164 0.000000 0.000000
# 5 0.000000 0.000000 0.000000 0.000000 0.123499 0.000000
# 6 0.000000 0.000000 0.000000 0.000000 0.000000 0.081611
#
#
# Mechanical properties :
#
#
# Convention : Reuss Voigt Hill
#
# Bulk Modulus (GPa) = 13.64265 16.92917 15.28591
# Shear Modulus (GPa) = 11.17149 13.13668 12.15408
#
# Velocity S-wave (km/s) = 2.50537 2.71681 2.61323
# Velocity P-wave (km/s) = 4.00431 4.39924 4.20642
#
# Compressibility (1/GPa) = 0.07329953
#
# Stress axis : x y z
#
# Youngs Moduli (GPa) = 25.84070 49.65280 33.62253
#
# Poissons Ratio (x) = 0.51422 -0.22006
# Poissons Ratio (y) = 0.26762 0.12874
# Poissons Ratio (z) = -0.16913 0.19012
#
# Static dielectric constant tensor:
#      x y z
#    x 1.606830 0.000000 0.000000 
#    y 0.000000 1.662140 0.000000 
#    z 0.000000 0.000000 1.607240 
# 
# From -- ./inp_files/33970.got.cif
#   From: 2010.05.17/outbox.cif.g08.bks.cpg/sg65_17_cif.got.tgz:33970.got - 2010.06.03 17:01:31.
