data_PCOD9486189
_publ_section_title
;
Structure prediction by ZEFSAII (Michael W. Deem and Ramdas Pophale) SiO2 
 PCOD9486189
Probable space group: C M M M
;
_chemical_formula_sum "Si O2"
_cell_formula_units_Z 96
_cell_length_a 14.395811
_cell_length_b 27.840267
_cell_length_c 15.896589
_cell_angle_alpha 90.000000
_cell_angle_beta 90.000000
_cell_angle_gamma 90.000000
_cell_volume 6371.086157
_symmetry_space_group_name_H-M "C M M M"
_symmetry_group_IT_number 65
_symmetry_cell_setting 'orthorhombic'
loop_
_space_group_symop_operation_xyz
x,y,z
-x,-y,z
x,-y,-z
-x,y,-z
-x,-y,-z
x,y,-z
-x,y,z
x,-y,z
1/2+x,1/2+y,z
1/2-x,1/2-y,z
1/2+x,1/2-y,-z
1/2-x,1/2+y,-z
1/2-x,1/2-y,-z
1/2+x,1/2+y,-z
1/2-x,1/2+y,z
1/2+x,1/2-y,z
loop_
_atom_site_type_symbol
_atom_site_label
_atom_site_fract_x
_atom_site_fract_y
_atom_site_fract_z
Si Si1 0.700035 0.557836 0.175482
Si Si2 0.728734 0.304327 0.598513
Si Si3 0.606624 0.558263 0.000000
Si Si4 0.111464 0.886576 0.332543
Si Si5 0.613063 0.444957 0.500000
Si Si6 0.604284 0.942936 0.243450
Si Si7 0.107875 0.379699 0.406662
O O1 0.685876 0.500000 0.186562
O O2 0.650500 0.586285 0.250962
O O3 0.810197 0.567643 0.181983
O O4 0.658150 0.572310 0.085707
O O5 0.698267 0.303377 0.500000
O O6 0.750000 0.250000 0.624694
O O7 0.654692 0.333928 0.653190
O O8 0.823101 0.335248 0.602566
O O9 0.605453 0.500000 0.000000
O O10 0.500000 0.574824 0.000000
O O11 0.140972 0.916754 0.415856
O O12 0.000000 0.885093 0.329424
O O13 0.645583 0.500000 0.500000
O O14 0.500000 0.445887 0.500000
O O15 0.500000 0.929229 0.214860
O O16 0.623488 0.916777 0.331619
O O17 0.604316 0.000000 0.257186
O O18 0.123322 0.400919 0.500000
O O19 0.000000 0.364593 0.402383
#
# Coordination Sequence:
#
# PCOD9486189 Si02
#       7
#    16  16   8  16   8  16  16
#     4  10  19  32  50  73 101 134 165 198 242 293
#     4  10  20  33  47  65  92 127 167 207 246 286
#     4   9  18  32  49  71 100 133 168 200 233 287
#     4  11  20  31  47  70  99 129 165 203 244 294
#     4   9  18  30  43  64  97 133 162 189 230 288
#     4   9  17  29  46  69  97 126 158 199 241 283
#     4   9  17  30  46  64  89 123 163 200 236 282
#
# _framework density 15.068075
#
# number of rings (size 3 to 8) (size 9 to 14) (size 15 to 20)
#    0.000    2.333    2.500    1.000    0.000    2.667 
#    0.000    3.750    0.000    2.500    0.000    0.583 
#    0.000    0.000    0.000    0.000    0.000    0.000 
#
# Total GULP energy -267504.463041 kJ/mol
# GULP energy per Si atom -5573.009647 kJ/mol
# Density = 1.503378 g / cm^3
# Si number density = 15.068075 Si / 1000 Ang^3
#
#
#
# Elastic Constant Matrix: (Units=GPa)
#
#
# Indices 1 2 3 4 5 6 
#
# 1 106.8969 37.9898 65.6053 0.0000 0.0000 0.0000
# 2 37.9898 56.4773 40.5740 0.0000 0.0000 0.0000
# 3 65.6053 40.5740 113.4370 0.0000 0.0000 0.0000
# 4 0.0000 0.0000 0.0000 2.9767 0.0000 0.0000
# 5 0.0000 0.0000 0.0000 0.0000 24.7100 0.0000
# 6 0.0000 0.0000 0.0000 0.0000 0.0000 14.8486
#
#
#
# Elastic Compliance Matrix: (Units=1/GPa)
#
#
# Indices 1 2 3 4 5 6 
#
# 1 0.015643 -0.005414 -0.007110 0.000000 0.000000 0.000000
# 2 -0.005414 0.025703 -0.006062 0.000000 0.000000 0.000000
# 3 -0.007110 -0.006062 0.015096 0.000000 0.000000 0.000000
# 4 0.000000 0.000000 0.000000 0.335944 0.000000 0.000000
# 5 0.000000 0.000000 0.000000 0.000000 0.040469 0.000000
# 6 0.000000 0.000000 0.000000 0.000000 0.000000 0.067346
#
#
# Mechanical properties :
#
#
# Convention : Reuss Voigt Hill
#
# Bulk Modulus (GPa) = 51.89796 62.79438 57.34617
# Shear Modulus (GPa) = 9.19459 17.34987 13.27223
#
# Velocity S-wave (km/s) = 2.47291 3.39696 2.97108
# Velocity P-wave (km/s) = 6.53229 7.55976 7.06473
#
# Compressibility (1/GPa) = 0.01926858
#
# Stress axis : x y z
#
# Youngs Moduli (GPa) = 63.92782 38.90561 66.24248
#
# Poissons Ratio (x) = 0.21063 0.47101
# Poissons Ratio (y) = 0.34610 0.40159
# Poissons Ratio (z) = 0.45455 0.23586
#
# Static dielectric constant tensor:
#      x y z
#    x 1.534820 0.000000 0.000000 
#    y 0.000000 1.475370 0.000000 
#    z 0.000000 0.000000 1.480350 
# 
# From -- ./inp_files/40665.got.cif
#   From: 2010.05.17/outbox.cif.g08.bks.cpg/sg65_21_cif.got.tgz:40665.got - 2010.06.03 17:01:31.
