data_PCOD9486398
_publ_section_title
;
Structure prediction by ZEFSAII (Michael W. Deem and Ramdas Pophale) SiO2 
 PCOD9486398
Probable space group: C M M M
;
_chemical_formula_sum "Si O2"
_cell_formula_units_Z 104
_cell_length_a 8.918700
_cell_length_b 28.384923
_cell_length_c 24.286738
_cell_angle_alpha 90.000000
_cell_angle_beta 90.000000
_cell_angle_gamma 90.000000
_cell_volume 6148.348327
_symmetry_space_group_name_H-M "C M M M"
_symmetry_group_IT_number 65
_symmetry_cell_setting 'orthorhombic'
loop_
_space_group_symop_operation_xyz
x,y,z
-x,-y,z
x,-y,-z
-x,y,-z
-x,-y,-z
x,y,-z
-x,y,z
x,-y,z
1/2+x,1/2+y,z
1/2-x,1/2-y,z
1/2+x,1/2-y,-z
1/2-x,1/2+y,-z
1/2-x,1/2-y,-z
1/2+x,1/2+y,-z
1/2-x,1/2+y,z
1/2+x,1/2-y,z
loop_
_atom_site_type_symbol
_atom_site_label
_atom_site_fract_x
_atom_site_fract_y
_atom_site_fract_z
Si Si1 0.828072 0.298178 0.757683
Si Si2 0.832279 0.000000 0.433715
Si Si3 0.828626 0.619045 0.329574
Si Si4 0.321355 0.636597 0.153121
Si Si5 0.818258 0.103046 0.437142
Si Si6 0.322009 0.800263 0.934580
Si Si7 0.680980 0.555017 0.236895
O O1 0.750000 0.250000 0.741947
O O2 0.829963 0.334531 0.707663
O O3 0.730386 0.323055 0.804553
O O4 0.000000 0.291087 0.776401
O O5 0.761403 0.949915 0.422221
O O6 0.848839 0.000000 0.500000
O O7 0.000000 0.000000 0.408789
O O8 0.745141 0.631445 0.386293
O O9 0.748686 0.579470 0.291528
O O10 0.000000 0.604863 0.340566
O O11 0.500000 0.635680 0.146439
O O12 0.245294 0.654670 0.097136
O O13 0.275988 0.587631 0.183938
O O14 0.773834 0.114757 0.500000
O O15 0.000000 0.101986 0.436632
O O16 0.500000 0.797981 0.925217
O O17 0.250000 0.750000 0.916583
O O18 0.294205 0.804496 0.000000
O O19 0.500000 0.557168 0.241140
O O20 0.724284 0.500000 0.231997
#
# Coordination Sequence:
#
# PCOD9486398 Si02
#       7
#    16   8  16  16  16  16  16
#     4  10  20  34  51  71  97 127 160 199 243 291
#     4   7  12  24  41  61  83 111 149 185 216 257
#     4  10  21  33  47  72 101 126 154 196 249 294
#     4  10  19  32  52  76 101 130 165 203 244 288
#     4   9  17  30  48  68  92 125 162 196 233 285
#     4  10  20  33  50  74 105 138 169 202 243 291
#     4   9  19  35  53  72  96 130 169 204 238 283
#
# _framework density 16.915112000000001
#
# number of rings (size 3 to 8) (size 9 to 14) (size 15 to 20)
#    0.000    2.538    0.000    3.231    1.077    4.000 
#    0.000    0.000    0.000    2.308    0.000    3.231 
#    0.000    0.000    0.000    0.000    0.000    0.000 
#
# Total GULP energy -289567.808668 kJ/mol
# GULP energy per Si atom -5568.611705 kJ/mol
# Density = 1.687661 g / cm^3
# Si number density = 16.915112 Si / 1000 Ang^3
#
#
#
# Elastic Constant Matrix: (Units=GPa)
#
#
# Indices 1 2 3 4 5 6 
#
# 1 42.0491 35.2805 36.2388 0.0000 0.0000 0.0000
# 2 35.2805 82.5984 37.7661 0.0000 0.0000 0.0000
# 3 36.2388 37.7661 92.0430 0.0000 0.0000 0.0000
# 4 0.0000 0.0000 0.0000 11.2680 0.0000 0.0000
# 5 0.0000 0.0000 0.0000 0.0000 24.7898 0.0000
# 6 0.0000 0.0000 0.0000 0.0000 0.0000 20.9119
#
#
#
# Elastic Compliance Matrix: (Units=1/GPa)
#
#
# Indices 1 2 3 4 5 6 
#
# 1 0.046355 -0.014100 -0.012465 0.000000 0.000000 0.000000
# 2 -0.014100 0.019192 -0.002323 0.000000 0.000000 0.000000
# 3 -0.012465 -0.002323 0.016725 0.000000 0.000000 0.000000
# 4 0.000000 0.000000 0.000000 0.088747 0.000000 0.000000
# 5 0.000000 0.000000 0.000000 0.000000 0.040339 0.000000
# 6 0.000000 0.000000 0.000000 0.000000 0.000000 0.047820
#
#
# Mechanical properties :
#
#
# Convention : Reuss Voigt Hill
#
# Bulk Modulus (GPa) = 40.82466 48.36236 44.59351
# Shear Modulus (GPa) = 15.37892 18.55427 16.96659
#
# Velocity S-wave (km/s) = 3.01854 3.31555 3.17052
# Velocity P-wave (km/s) = 6.02795 6.58107 6.31057
#
# Compressibility (1/GPa) = 0.02449500
#
# Stress axis : x y z
#
# Youngs Moduli (GPa) = 21.57255 52.10610 59.78929
#
# Poissons Ratio (x) = 0.73472 0.74529
# Poissons Ratio (y) = 0.30418 0.13889
# Poissons Ratio (z) = 0.26891 0.12104
#
# Static dielectric constant tensor:
#      x y z
#    x 1.583970 0.000000 0.000000 
#    y 0.000000 1.596770 0.000000 
#    z 0.000000 0.000000 1.590830 
# 
# From -- ./inp_files/68185.got.cif
#   From: 2010.05.17/outbox.cif.g08.bks.cpg/sg65_35_cif.got.tgz:68185.got - 2010.06.03 17:01:31.
