data_PCOD9486780
_publ_section_title
;
Structure prediction by ZEFSAII (Michael W. Deem and Ramdas Pophale) SiO2 
 PCOD9486780
Probable space group: C M M M
;
_chemical_formula_sum "Si O2"
_cell_formula_units_Z 82
_cell_length_a 7.648709
_cell_length_b 24.835940
_cell_length_c 26.455782
_cell_angle_alpha 90.000000
_cell_angle_beta 90.000000
_cell_angle_gamma 90.000000
_cell_volume 5025.616483
_symmetry_space_group_name_H-M "C M M M"
_symmetry_group_IT_number 65
_symmetry_cell_setting 'orthorhombic'
loop_
_space_group_symop_operation_xyz
x,y,z
-x,-y,z
x,-y,-z
-x,y,-z
-x,-y,-z
x,y,-z
-x,y,z
x,-y,z
1/2+x,1/2+y,z
1/2-x,1/2-y,z
1/2+x,1/2-y,-z
1/2-x,1/2+y,-z
1/2-x,1/2-y,-z
1/2+x,1/2+y,-z
1/2-x,1/2+y,z
1/2+x,1/2-y,z
loop_
_atom_site_type_symbol
_atom_site_label
_atom_site_fract_x
_atom_site_fract_y
_atom_site_fract_z
Si Si1 0.799400 0.565442 0.943014
Si Si2 0.000000 0.000000 0.500000
Si Si3 0.709282 0.686383 0.500000
Si Si4 0.709327 0.000000 0.590778
Si Si5 0.500000 0.434241 0.132848
Si Si6 0.500000 0.564648 0.751358
Si Si7 0.709557 0.313339 0.609883
Si Si8 0.803206 0.409618 0.674665
O O1 0.797136 0.500000 0.942813
O O2 0.668542 0.583222 0.899406
O O3 0.000000 0.582020 0.934849
O O4 0.745501 0.581606 0.000000
O O5 0.155711 0.000000 0.544518
O O6 0.500000 0.678934 0.500000
O O7 0.750000 0.750000 0.500000
O O8 0.773760 0.666579 0.445733
O O9 0.741959 0.948750 0.627542
O O10 0.500000 0.000000 0.577121
O O11 0.500000 0.500000 0.133546
O O12 0.500000 0.416163 0.190774
O O13 0.500000 0.500000 0.751913
O O14 0.331679 0.582750 0.719720
O O15 0.500000 0.319946 0.611512
O O16 0.750000 0.250000 0.613985
O O17 0.791817 0.349477 0.652898
O O18 0.000000 0.423095 0.690468
#
# Coordination Sequence:
#
# PCOD9486780 Si02
#       8
#    16   2   8   8   8   8  16  16
#     4   8  13  22  36  56  86 122 157 197 245 289
#     4  12  22  36  60  74 104 120 158 196 238 296
#     4   8  16  29  46  69  95 117 136 171 226 284
#     4  10  23  39  55  76  97 125 162 198 244 296
#     4   9  17  25  39  62  87 114 164 212 245 278
#     4  11  21  35  52  71  92 131 174 215 254 283
#     4  10  19  33  53  77 101 123 153 190 241 302
#     4  11  22  38  55  71  96 128 164 203 246 292
#
# _framework density 16.316405
#
# number of rings (size 3 to 8) (size 9 to 14) (size 15 to 20)
#    0.000    2.341    1.951    2.195    0.000    3.512 
#    1.756    2.927    0.000    0.000    0.000    0.000 
#    0.000    0.000    0.000    0.000    0.000    3.902 
#
# Total GULP energy -228272.530785 kJ/mol
# GULP energy per Si atom -5567.622702 kJ/mol
# Density = 1.627927 g / cm^3
# Si number density = 16.316405 Si / 1000 Ang^3
#
#
#
# Elastic Constant Matrix: (Units=GPa)
#
#
# Indices 1 2 3 4 5 6 
#
# 1 113.1972 8.3946 91.1255 0.0000 0.0000 0.0000
# 2 8.3946 34.9454 25.3673 0.0000 0.0000 0.0000
# 3 91.1255 25.3673 159.2136 0.0000 0.0000 0.0000
# 4 0.0000 0.0000 0.0000 0.5815 0.0000 0.0000
# 5 0.0000 0.0000 0.0000 0.0000 -15.3141 0.0000
# 6 0.0000 0.0000 0.0000 0.0000 0.0000 10.8252
#
#
#
# Elastic Compliance Matrix: (Units=1/GPa)
#
#
# Indices 1 2 3 4 5 6 
#
# 1 0.016715 0.003312 -0.010094 0.000000 0.000000 0.000000
# 2 0.003312 0.033015 -0.007156 0.000000 0.000000 0.000000
# 3 -0.010094 -0.007156 0.013198 0.000000 0.000000 0.000000
# 4 0.000000 0.000000 0.000000 1.719787 0.000000 0.000000
# 5 0.000000 0.000000 0.000000 0.000000 -0.065299 0.000000
# 6 0.000000 0.000000 0.000000 0.000000 0.000000 0.092377
#
#
# Mechanical properties :
#
#
# Convention : Reuss Voigt Hill
#
# Bulk Modulus (GPa) = 28.52895 61.90343 45.21619
# Shear Modulus (GPa) = 2.70365 11.38309 7.04337
#
# Velocity S-wave (km/s) = 1.28865 2.64417 2.07993
# Velocity P-wave (km/s) = 4.44263 6.88069 5.79141
#
# Compressibility (1/GPa) = 0.03505211
#
# Stress axis : x y z
#
# Youngs Moduli (GPa) = 59.82809 30.28923 75.76631
#
# Poissons Ratio (x) = -0.10033 0.76481
# Poissons Ratio (y) = -0.19817 0.54219
# Poissons Ratio (z) = 0.60392 0.21675
#
# Static dielectric constant tensor:
#      x y z
#    x 0.204810 0.000000 0.000000 
#    y 0.000000 1.544970 0.000000 
#    z 0.000000 0.000000 1.543810 
# 
# From -- ./inp_files/67996.got.cif
#   From: 2010.05.17/outbox.cif.g08.bks.cpg/sg65_34_cif.got.tgz:67996.got - 2010.06.03 17:01:31.
