data_PCOD9486966
_publ_section_title
;
Structure prediction by ZEFSAII (Michael W. Deem and Ramdas Pophale) SiO2 
 PCOD9486966
Probable space group: C M M M
;
_chemical_formula_sum "Si O2"
_cell_formula_units_Z 96
_cell_length_a 20.172544
_cell_length_b 14.173746
_cell_length_c 16.028805
_cell_angle_alpha 90.000000
_cell_angle_beta 90.000000
_cell_angle_gamma 90.000000
_cell_volume 4582.964178
_symmetry_space_group_name_H-M "C M M M"
_symmetry_group_IT_number 65
_symmetry_cell_setting 'orthorhombic'
loop_
_space_group_symop_operation_xyz
x,y,z
-x,-y,z
x,-y,-z
-x,y,-z
-x,-y,-z
x,y,-z
-x,y,z
x,-y,z
1/2+x,1/2+y,z
1/2-x,1/2-y,z
1/2+x,1/2-y,-z
1/2-x,1/2+y,-z
1/2-x,1/2-y,-z
1/2+x,1/2+y,-z
1/2-x,1/2+y,z
1/2+x,1/2-y,z
loop_
_atom_site_type_symbol
_atom_site_label
_atom_site_fract_x
_atom_site_fract_y
_atom_site_fract_z
Si Si1 0.426586 0.387547 0.306936
Si Si2 0.703911 0.106613 0.739244
Si Si3 0.722239 0.356482 0.089757
Si Si4 0.074023 0.188945 0.120337
Si Si5 0.924449 0.609815 0.167448
Si Si6 0.796809 0.884481 0.594592
O O1 0.500000 0.375019 0.343539
O O2 0.418201 0.500000 0.288830
O O3 0.424620 0.333676 0.219161
O O4 0.368218 0.357683 0.368135
O O5 0.749200 0.105686 0.822996
O O6 0.631927 0.139883 0.767246
O O7 0.742504 0.148841 0.661603
O O8 0.691545 0.000000 0.713899
O O9 0.750000 0.250000 0.090933
O O10 0.642319 0.356907 0.089989
O O11 0.744740 0.396640 0.000000
O O12 0.078588 0.302039 0.103969
O O13 0.000000 0.157574 0.092716
O O14 0.911343 0.500000 0.140109
O O15 0.000000 0.610587 0.199575
O O16 0.786639 0.853269 0.500000
O O17 0.796310 0.000000 0.594002
#
# Coordination Sequence:
#
# PCOD9486966 Si02
#       6
#    16  16  16  16  16  16
#     4   9  17  29  48  76 109 145 182 216 259 315
#     4  10  19  34  56  78 107 143 177 225 273 313
#     4  11  22  35  52  77 106 140 181 222 266 322
#     4  10  19  33  55  78 106 145 181 220 269 319
#     4   9  18  33  55  80 102 135 182 224 272 327
#     4   9  17  29  49  79 110 141 178 217 264 320
#
# _framework density 20.947141999999999
#
# number of rings (size 3 to 8) (size 9 to 14) (size 15 to 20)
#    0.000    2.333    3.333    0.000    0.000    1.000 
#    0.000    1.667    0.000    6.000    0.000   14.000 
#    0.000    0.000    0.000    0.000    0.000    0.000 
#
# Total GULP energy -267279.152684 kJ/mol
# GULP energy per Si atom -5568.315681 kJ/mol
# Density = 2.089947 g / cm^3
# Si number density = 20.947142 Si / 1000 Ang^3
#
#
#
# Elastic Constant Matrix: (Units=GPa)
#
#
# Indices 1 2 3 4 5 6 
#
# 1 130.8145 2.9340 44.6723 0.0000 0.0000 0.0000
# 2 2.9340 52.5270 -1.7809 0.0000 0.0000 0.0000
# 3 44.6723 -1.7809 123.7620 0.0000 0.0000 0.0000
# 4 0.0000 0.0000 0.0000 -534.5975 0.0000 0.0000
# 5 0.0000 0.0000 0.0000 0.0000 -40.8776 0.0000
# 6 0.0000 0.0000 0.0000 0.0000 0.0000 18.8999
#
#
#
# Elastic Compliance Matrix: (Units=1/GPa)
#
#
# Indices 1 2 3 4 5 6 
#
# 1 0.008738 -0.000595 -0.003162 0.000000 0.000000 0.000000
# 2 -0.000595 0.019088 0.000490 0.000000 0.000000 0.000000
# 3 -0.003162 0.000490 0.009229 0.000000 0.000000 0.000000
# 4 0.000000 0.000000 0.000000 -0.001871 0.000000 0.000000
# 5 0.000000 0.000000 0.000000 0.000000 -0.024463 0.000000
# 6 0.000000 0.000000 0.000000 0.000000 0.000000 0.052910
#
#
# Mechanical properties :
#
#
# Convention : Reuss Voigt Hill
#
# Bulk Modulus (GPa) = 32.76805 44.30603 38.53704
# Shear Modulus (GPa) = 62.23602 -93.89649 -15.83023
#
# Velocity S-wave (km/s) = 5.45669 -6.70244 -2.75202
# Velocity P-wave (km/s) = 7.44163 6.22091 2.88774
#
# Compressibility (1/GPa) = 0.03051753
#
# Stress axis : x y z
#
# Youngs Moduli (GPa) = 114.44619 52.38982 108.35912
#
# Poissons Ratio (x) = 0.03119 0.34268
# Poissons Ratio (y) = 0.06813 -0.05305
# Poissons Ratio (z) = 0.36193 -0.02565
#
# Static dielectric constant tensor:
#      x y z
#    x 1.783460 0.000000 0.000000 
#    y 0.000000 1.819950 0.000000 
#    z 0.000000 0.000000 1.754180 
# 
# From -- ./inp_files/44117.got.cif
#   From: 2010.05.17/outbox.cif.g08.bks.cpg/sg65_23_cif.got.tgz:44117.got - 2010.06.03 17:01:31.
