data_PCOD9486329
_publ_section_title
;
Structure prediction by ZEFSAII (Michael W. Deem and Ramdas Pophale) SiO2 
 PCOD9486329
Probable space group: C M M M
;
_chemical_formula_sum "Si O2"
_cell_formula_units_Z 104
_cell_length_a 30.225100
_cell_length_b 8.489417
_cell_length_c 20.565219
_cell_angle_alpha 90.000000
_cell_angle_beta 90.000000
_cell_angle_gamma 90.000000
_cell_volume 5276.901064
_symmetry_space_group_name_H-M "C M M M"
_symmetry_group_IT_number 65
_symmetry_cell_setting 'orthorhombic'
loop_
_space_group_symop_operation_xyz
x,y,z
-x,-y,z
x,-y,-z
-x,y,-z
-x,-y,-z
x,y,-z
-x,y,z
x,-y,z
1/2+x,1/2+y,z
1/2-x,1/2-y,z
1/2+x,1/2-y,-z
1/2-x,1/2+y,-z
1/2-x,1/2-y,-z
1/2+x,1/2+y,-z
1/2-x,1/2+y,z
1/2+x,1/2-y,z
loop_
_atom_site_type_symbol
_atom_site_label
_atom_site_fract_x
_atom_site_fract_y
_atom_site_fract_z
Si Si1 0.448051 0.685715 0.694377
Si Si2 0.300010 0.313479 0.000000
Si Si3 0.298081 0.310949 0.232517
Si Si4 0.549439 0.188919 0.161553
Si Si5 0.892211 0.192619 0.570866
Si Si6 0.202787 0.811032 0.384300
Si Si7 0.857538 0.311481 0.880546
O O1 0.500000 0.698306 0.678083
O O2 0.437718 0.500000 0.704100
O O3 0.441251 0.770304 0.763044
O O4 0.419427 0.745612 0.633845
O O5 0.250000 0.250000 0.000000
O O6 0.327302 0.257365 0.937235
O O7 0.297502 0.500000 0.000000
O O8 0.299688 0.500000 0.228089
O O9 0.250000 0.250000 0.210236
O O10 0.302575 0.265193 0.308274
O O11 0.335469 0.237556 0.187550
O O12 0.500000 0.250674 0.145842
O O13 0.591428 0.245152 0.119970
O O14 0.547985 0.000000 0.155335
O O15 0.909299 0.242191 0.500000
O O16 0.841092 0.240896 0.578611
O O17 0.893552 0.000000 0.572178
O O18 0.250000 0.750000 0.408110
O O19 0.204147 0.000000 0.386614
O O20 0.857332 0.500000 0.886314
#
# Coordination Sequence:
#
# PCOD9486329 Si02
#       7
#    16   8  16  16  16  16  16
#     4   9  17  30  51  78 104 131 168 216 265 313
#     4  12  26  44  63  84 115 151 184 215 253 302
#     4  10  19  32  51  76 105 135 172 218 269 321
#     4   9  19  36  58  83 110 141 176 216 264 315
#     4   9  17  29  45  67  97 132 169 210 260 316
#     4   9  18  31  47  67  93 127 167 213 262 311
#     4  11  22  37  58  83 111 143 180 218 258 306
#
# _framework density 19.708537
#
# number of rings (size 3 to 8) (size 9 to 14) (size 15 to 20)
#    0.000    2.308    0.000    3.000    0.000    3.692 
#    0.000    2.692    0.000    3.692    0.000    2.154 
#    0.000    0.000    0.000    0.000    0.000    0.000 
#
# Total GULP energy -290233.225895 kJ/mol
# GULP energy per Si atom -5581.408190 kJ/mol
# Density = 1.966368 g / cm^3
# Si number density = 19.708537 Si / 1000 Ang^3
#
#
#
# Elastic Constant Matrix: (Units=GPa)
#
#
# Indices 1 2 3 4 5 6 
#
# 1 129.8243 25.2589 51.9798 0.0000 0.0000 0.0000
# 2 25.2589 26.3239 13.0169 0.0000 0.0000 0.0000
# 3 51.9798 13.0169 50.2060 0.0000 0.0000 0.0000
# 4 0.0000 0.0000 0.0000 12.0796 0.0000 0.0000
# 5 0.0000 0.0000 0.0000 0.0000 17.8911 0.0000
# 6 0.0000 0.0000 0.0000 0.0000 0.0000 21.7637
#
#
#
# Elastic Compliance Matrix: (Units=1/GPa)
#
#
# Indices 1 2 3 4 5 6 
#
# 1 0.014294 -0.007339 -0.012896 0.000000 0.000000 0.000000
# 2 -0.007339 0.047342 -0.004677 0.000000 0.000000 0.000000
# 3 -0.012896 -0.004677 0.034482 0.000000 0.000000 0.000000
# 4 0.000000 0.000000 0.000000 0.082784 0.000000 0.000000
# 5 0.000000 0.000000 0.000000 0.000000 0.055894 0.000000
# 6 0.000000 0.000000 0.000000 0.000000 0.000000 0.045948
#
#
# Mechanical properties :
#
#
# Convention : Reuss Voigt Hill
#
# Bulk Modulus (GPa) = 21.60021 42.98502 32.29262
# Shear Modulus (GPa) = 14.45085 18.08677 16.26881
#
# Velocity S-wave (km/s) = 2.71076 3.03266 2.87622
# Velocity P-wave (km/s) = 4.55864 5.84127 5.23935
#
# Compressibility (1/GPa) = 0.04629584
#
# Stress axis : x y z
#
# Youngs Moduli (GPa) = 69.95910 21.12269 29.00023
#
# Poissons Ratio (x) = 0.15501 0.37400
# Poissons Ratio (y) = 0.51340 0.13562
# Poissons Ratio (z) = 0.90222 0.09878
#
# Static dielectric constant tensor:
#      x y z
#    x 1.675080 0.000000 0.000000 
#    y 0.000000 1.681630 0.000000 
#    z 0.000000 0.000000 1.687780 
# 
# From -- ./inp_files/65907.got.cif
#   From: 2010.05.17/outbox.cif.g08.bks.cpg/sg65_33_cif.got.tgz:65907.got - 2010.06.03 17:01:31.
