data_PCOD9486474
_publ_section_title
;
Structure prediction by ZEFSAII (Michael W. Deem and Ramdas Pophale) SiO2 
 PCOD9486474
Probable space group: C M M M
;
_chemical_formula_sum "Si O2"
_cell_formula_units_Z 68
_cell_length_a 15.067828
_cell_length_b 21.370426
_cell_length_c 11.394479
_cell_angle_alpha 90.000000
_cell_angle_beta 90.000000
_cell_angle_gamma 90.000000
_cell_volume 3669.089503
_symmetry_space_group_name_H-M "C M M M"
_symmetry_group_IT_number 65
_symmetry_cell_setting 'orthorhombic'
loop_
_space_group_symop_operation_xyz
x,y,z
-x,-y,z
x,-y,-z
-x,y,-z
-x,-y,-z
x,y,-z
-x,y,z
x,-y,z
1/2+x,1/2+y,z
1/2-x,1/2-y,z
1/2+x,1/2-y,-z
1/2-x,1/2+y,-z
1/2-x,1/2-y,-z
1/2+x,1/2+y,-z
1/2-x,1/2+y,z
1/2+x,1/2-y,z
loop_
_atom_site_type_symbol
_atom_site_label
_atom_site_fract_x
_atom_site_fract_y
_atom_site_fract_z
Si Si1 0.097631 0.500000 0.735910
Si Si2 0.893219 0.640270 0.000000
Si Si3 0.399891 0.658578 0.360438
Si Si4 0.897324 0.292518 0.248563
Si Si5 0.132150 0.500000 0.000000
Si Si6 0.216409 0.608414 0.636346
O O1 0.087777 0.500000 0.874481
O O2 0.155733 0.559362 0.702689
O O3 0.000000 0.500000 0.680353
O O4 0.877999 0.682123 0.117020
O O5 0.837037 0.575008 0.000000
O O6 0.000000 0.624269 0.000000
O O7 0.389279 0.676170 0.500000
O O8 0.500000 0.633528 0.348385
O O9 0.392140 0.718995 0.276506
O O10 0.319847 0.611947 0.331440
O O11 0.828243 0.325404 0.334856
O O12 0.000000 0.311206 0.274375
O O13 0.210563 0.593460 0.500000
#
# Coordination Sequence:
#
# PCOD9486474 Si02
#       6
#     8   8  16  16   4  16
#     4  12  24  38  58  83 113 144 179 224 272 326
#     4  10  19  32  52  78 111 151 190 224 264 321
#     4   9  19  37  58  78 106 146 187 226 272 325
#     4  10  19  32  53  81 111 145 182 222 270 325
#     4  12  21  38  58  76 111 156 189 216 260 326
#     4  11  22  35  53  81 113 144 180 224 276 330
#
# _framework density 18.533207000000001
#
# number of rings (size 3 to 8) (size 9 to 14) (size 15 to 20)
#    0.000    1.647    2.353    3.529    0.000    5.176 
#    0.000    4.118    0.000    2.824    0.000    0.824 
#    0.000    0.000    0.000    0.000    0.000    0.000 
#
# Total GULP energy -189300.173746 kJ/mol
# GULP energy per Si atom -5567.652169 kJ/mol
# Density = 1.849102 g / cm^3
# Si number density = 18.533207 Si / 1000 Ang^3
#
#
#
# Elastic Constant Matrix: (Units=GPa)
#
#
# Indices 1 2 3 4 5 6 
#
# 1 126.3975 49.1615 41.3505 0.0000 0.0000 0.0000
# 2 49.1615 42.8011 28.2030 0.0000 0.0000 0.0000
# 3 41.3505 28.2030 60.5082 0.0000 0.0000 0.0000
# 4 0.0000 0.0000 0.0000 33.9920 0.0000 0.0000
# 5 0.0000 0.0000 0.0000 0.0000 7.4269 0.0000
# 6 0.0000 0.0000 0.0000 0.0000 0.0000 10.8318
#
#
#
# Elastic Compliance Matrix: (Units=1/GPa)
#
#
# Indices 1 2 3 4 5 6 
#
# 1 0.014702 -0.014817 -0.003141 0.000000 0.000000 0.000000
# 2 -0.014817 0.048654 -0.012552 0.000000 0.000000 0.000000
# 3 -0.003141 -0.012552 0.024523 0.000000 0.000000 0.000000
# 4 0.000000 0.000000 0.000000 0.029419 0.000000 0.000000
# 5 0.000000 0.000000 0.000000 0.000000 0.134646 0.000000
# 6 0.000000 0.000000 0.000000 0.000000 0.000000 0.092321
#
#
# Mechanical properties :
#
#
# Convention : Reuss Voigt Hill
#
# Bulk Modulus (GPa) = 37.23053 51.90411 44.56732
# Shear Modulus (GPa) = 12.07033 17.84958 14.95995
#
# Velocity S-wave (km/s) = 2.55479 3.10677 2.84420
# Velocity P-wave (km/s) = 5.36980 6.39814 5.90639
#
# Compressibility (1/GPa) = 0.02685968
#
# Stress axis : x y z
#
# Youngs Moduli (GPa) = 68.01703 20.55331 40.77724
#
# Poissons Ratio (x) = 0.30455 0.12808
# Poissons Ratio (y) = 1.00784 0.51183
# Poissons Ratio (z) = 0.21363 0.25798
#
# Static dielectric constant tensor:
#      x y z
#    x 1.666250 0.000000 0.000000 
#    y 0.000000 1.740950 0.000000 
#    z 0.000000 0.000000 1.629460 
# 
# From -- ./inp_files/24316.got.cif
#   From: 2010.05.17/outbox.cif.g08.bks.cpg/sg65_13_cif.got.tgz:24316.got - 2010.06.03 17:01:31.
