data_PCOD9486166
_publ_section_title
;
Structure prediction by ZEFSAII (Michael W. Deem and Ramdas Pophale) SiO2 
 PCOD9486166
Probable space group: C M M M
;
_chemical_formula_sum "Si O2"
_cell_formula_units_Z 82
_cell_length_a 19.275858
_cell_length_b 8.202015
_cell_length_c 26.551465
_cell_angle_alpha 90.000000
_cell_angle_beta 90.000000
_cell_angle_gamma 90.000000
_cell_volume 4197.809888
_symmetry_space_group_name_H-M "C M M M"
_symmetry_group_IT_number 65
_symmetry_cell_setting 'orthorhombic'
loop_
_space_group_symop_operation_xyz
x,y,z
-x,-y,z
x,-y,-z
-x,y,-z
-x,-y,-z
x,y,-z
-x,y,z
x,-y,z
1/2+x,1/2+y,z
1/2-x,1/2-y,z
1/2+x,1/2-y,-z
1/2-x,1/2+y,-z
1/2-x,1/2-y,-z
1/2+x,1/2+y,-z
1/2-x,1/2+y,z
1/2+x,1/2-y,z
loop_
_atom_site_type_symbol
_atom_site_label
_atom_site_fract_x
_atom_site_fract_y
_atom_site_fract_z
Si Si1 0.856238 0.323180 0.000000
Si Si2 0.419425 0.699897 0.389967
Si Si3 0.325600 0.692667 0.890181
Si Si4 0.170454 0.196844 0.294705
Si Si5 0.415693 0.688318 0.500000
Si Si6 0.579447 0.699747 0.199020
Si Si7 0.000000 0.500000 0.000000
O O1 0.836967 0.239421 0.051996
O O2 0.819435 0.500000 0.000000
O O3 0.938023 0.361556 0.000000
O O4 0.500000 0.746172 0.381015
O O5 0.418998 0.500000 0.391503
O O6 0.369419 0.752785 0.345114
O O7 0.396603 0.759518 0.445581
O O8 0.327115 0.500000 0.886346
O O9 0.250000 0.750000 0.873129
O O10 0.385076 0.757215 0.852838
O O11 0.250000 0.250000 0.292986
O O12 0.126977 0.251381 0.245867
O O13 0.168838 0.000000 0.294851
O O14 0.391788 0.500000 0.500000
O O15 0.500000 0.685196 0.500000
O O16 0.500000 0.753662 0.203739
O O17 0.578470 0.500000 0.199042
#
# Coordination Sequence:
#
# PCOD9486166 Si02
#       7
#     8  16  16  16   8  16   2
#     4  10  22  40  60  82 112 141 176 210 260 302
#     4   8  13  23  43  68  93 124 164 207 249 290
#     4  11  22  37  58  84 111 143 176 213 257 311
#     4  10  19  32  50  71  99 131 165 204 252 303
#     4   7  10  18  35  64  95 119 154 207 252 286
#     4   9  19  34  54  78 102 129 170 218 258 299
#     4   8  24  40  62  84 112 144 172 224 264 294
#
# _framework density 19.533994
#
# number of rings (size 3 to 8) (size 9 to 14) (size 15 to 20)
#    0.293    2.439    0.000    3.512    1.366    2.341 
#    0.000    1.951    0.000    4.683    0.000    0.000 
#    0.000    2.341    0.000    0.000    0.000    0.000 
#
# Total GULP energy -228298.841445 kJ/mol
# GULP energy per Si atom -5568.264425 kJ/mol
# Density = 1.948953 g / cm^3
# Si number density = 19.533994 Si / 1000 Ang^3
#
#
#
# Elastic Constant Matrix: (Units=GPa)
#
#
# Indices 1 2 3 4 5 6 
#
# 1 155.5972 11.1853 94.4878 0.0000 0.0000 0.0000
# 2 11.1853 13.7092 14.8257 0.0000 0.0000 0.0000
# 3 94.4878 14.8257 183.5519 0.0000 0.0000 0.0000
# 4 0.0000 0.0000 0.0000 -0.3586 0.0000 0.0000
# 5 0.0000 0.0000 0.0000 0.0000 14.3977 0.0000
# 6 0.0000 0.0000 0.0000 0.0000 0.0000 22.6261
#
#
#
# Elastic Compliance Matrix: (Units=1/GPa)
#
#
# Indices 1 2 3 4 5 6 
#
# 1 0.009439 -0.002681 -0.004642 0.000000 0.000000 0.000000
# 2 -0.002681 0.080686 -0.005137 0.000000 0.000000 0.000000
# 3 -0.004642 -0.005137 0.008253 0.000000 0.000000 0.000000
# 4 0.000000 0.000000 0.000000 -2.788321 0.000000 0.000000
# 5 0.000000 0.000000 0.000000 0.000000 0.069455 0.000000
# 6 0.000000 0.000000 0.000000 0.000000 0.000000 0.044197
#
#
# Mechanical properties :
#
#
# Convention : Reuss Voigt Hill
#
# Bulk Modulus (GPa) = 13.61334 65.98400 39.79867
# Shear Modulus (GPa) = -1.97872 22.82368 10.42248
#
# Velocity S-wave (km/s) = -1.00755 3.42191 2.31239
# Velocity P-wave (km/s) = 2.37290 7.03314 5.24860
#
# Compressibility (1/GPa) = 0.07345735
#
# Stress axis : x y z
#
# Youngs Moduli (GPa) = 105.94816 12.39370 121.17255
#
# Poissons Ratio (x) = 0.03322 0.56251
# Poissons Ratio (y) = 0.28400 0.62249
# Poissons Ratio (z) = 0.49184 0.06367
#
# Static dielectric constant tensor:
#      x y z
#    x 1.653080 0.000000 0.000000 
#    y 0.000000 1.722010 0.000000 
#    z 0.000000 0.000000 1.740360 
# 
# From -- ./inp_files/70889.got.cif
#   From: 2010.05.17/outbox.cif.g08.bks.cpg/sg65_36_cif.got.tgz:70889.got - 2010.06.03 17:01:31.
