data_PCOD9486049
_publ_section_title
;
Structure prediction by ZEFSAII (Michael W. Deem and Ramdas Pophale) SiO2 
 PCOD9486049
Probable space group: C M M M
;
_chemical_formula_sum "Si O2"
_cell_formula_units_Z 96
_cell_length_a 23.809875
_cell_length_b 24.915903
_cell_length_c 7.684519
_cell_angle_alpha 90.000000
_cell_angle_beta 90.000000
_cell_angle_gamma 90.000000
_cell_volume 4558.798908
_symmetry_space_group_name_H-M "C M M M"
_symmetry_group_IT_number 65
_symmetry_cell_setting 'orthorhombic'
loop_
_space_group_symop_operation_xyz
x,y,z
-x,-y,z
x,-y,-z
-x,y,-z
-x,-y,-z
x,y,-z
-x,y,z
x,-y,z
1/2+x,1/2+y,z
1/2-x,1/2-y,z
1/2+x,1/2-y,-z
1/2-x,1/2+y,-z
1/2-x,1/2-y,-z
1/2+x,1/2+y,-z
1/2-x,1/2+y,z
1/2+x,1/2-y,z
loop_
_atom_site_type_symbol
_atom_site_label
_atom_site_fract_x
_atom_site_fract_y
_atom_site_fract_z
Si Si1 0.876187 0.279290 0.212721
Si Si2 0.736268 0.833026 0.200538
Si Si3 0.063898 0.059718 0.708719
Si Si4 0.362380 0.662808 0.790617
Si Si5 0.936968 0.387106 0.211053
Si Si6 0.323144 0.940522 0.295556
O O1 0.813165 0.295329 0.273848
O O2 0.890558 0.218931 0.266655
O O3 0.917320 0.327297 0.266458
O O4 0.875440 0.280820 0.000000
O O5 0.798347 0.835330 0.277828
O O6 0.710326 0.892635 0.205693
O O7 0.742828 0.815961 0.000000
O O8 0.061283 0.056949 0.500000
O O9 0.104716 0.108750 0.748784
O O10 0.000000 0.069539 0.772218
O O11 0.081612 0.000000 0.770825
O O12 0.359664 0.664305 0.000000
O O13 0.888984 0.427342 0.273972
O O14 0.000000 0.398925 0.269211
O O15 0.936124 0.388332 0.000000
O O16 0.309466 0.938352 0.500000
O O17 0.310569 0.000000 0.229165
#
# Coordination Sequence:
#
# PCOD9486049 Si02
#       6
#    16  16  16  16  16  16
#     4   8  15  30  51  75 104 133 160 196 244 295
#     4   9  18  33  52  74 102 134 165 199 243 296
#     4   9  20  39  56  69  95 136 172 201 241 295
#     4  10  19  31  54  84 104 124 161 206 248 291
#     4   9  18  33  53  75  99 131 169 205 245 296
#     4  10  21  35  50  70  98 133 171 210 252 293
#
# _framework density 21.058177000000001
#
# number of rings (size 3 to 8) (size 9 to 14) (size 15 to 20)
#    0.000    2.833    0.000    2.500    0.000    6.667 
#    0.000   10.833    0.000    5.000    0.000    0.000 
#    0.000    0.000    0.000    0.000    0.000    0.000 
#
# Total GULP energy -267732.424746 kJ/mol
# GULP energy per Si atom -5577.758849 kJ/mol
# Density = 2.101025 g / cm^3
# Si number density = 21.058177 Si / 1000 Ang^3
#
#
#
# Elastic Constant Matrix: (Units=GPa)
#
#
# Indices 1 2 3 4 5 6 
#
# 1 21.4341 8.0375 -2.1028 0.0000 0.0000 0.0000
# 2 8.0375 132.4175 0.2212 0.0000 0.0000 0.0000
# 3 -2.1028 0.2212 38.1802 0.0000 0.0000 0.0000
# 4 0.0000 0.0000 0.0000 25.8438 0.0000 0.0000
# 5 0.0000 0.0000 0.0000 0.0000 16.2602 0.0000
# 6 0.0000 0.0000 0.0000 0.0000 0.0000 10.1024
#
#
#
# Elastic Compliance Matrix: (Units=1/GPa)
#
#
# Indices 1 2 3 4 5 6 
#
# 1 0.048010 -0.002919 0.002661 0.000000 0.000000 0.000000
# 2 -0.002919 0.007729 -0.000206 0.000000 0.000000 0.000000
# 3 0.002661 -0.000206 0.026339 0.000000 0.000000 0.000000
# 4 0.000000 0.000000 0.000000 0.038694 0.000000 0.000000
# 5 0.000000 0.000000 0.000000 0.000000 0.061500 0.000000
# 6 0.000000 0.000000 0.000000 0.000000 0.000000 0.098987
#
#
# Mechanical properties :
#
#
# Convention : Reuss Voigt Hill
#
# Bulk Modulus (GPa) = 12.32240 22.70483 17.51362
# Shear Modulus (GPa) = 16.16886 22.83300 19.50093
#
# Velocity S-wave (km/s) = 2.77396 3.29642 3.04641
# Velocity P-wave (km/s) = 4.01548 5.02930 4.55071
#
# Compressibility (1/GPa) = 0.08115304
#
# Stress axis : x y z
#
# Youngs Moduli (GPa) = 20.82889 129.37666 37.96603
#
# Poissons Ratio (x) = 0.37760 -0.10103
# Poissons Ratio (y) = 0.06079 0.00780
# Poissons Ratio (z) = -0.05543 0.02659
#
# Static dielectric constant tensor:
#      x y z
#    x 1.750780 0.000000 0.000000 
#    y 0.000000 1.753920 0.000000 
#    z 0.000000 0.000000 1.812240 
# 
# From -- ./inp_files/12200.got.cif
#   From: 2010.05.17/outbox.cif.g08.bks.cpg/sg65_7_cif.got.tgz:12200.got - 2010.06.03 17:01:31.
