data_PCOD9486266
_publ_section_title
;
Structure prediction by ZEFSAII (Michael W. Deem and Ramdas Pophale) SiO2 
 PCOD9486266
Probable space group: C M M M
;
_chemical_formula_sum "Si O2"
_cell_formula_units_Z 104
_cell_length_a 9.196553
_cell_length_b 29.386617
_cell_length_c 23.703065
_cell_angle_alpha 90.000000
_cell_angle_beta 90.000000
_cell_angle_gamma 90.000000
_cell_volume 6405.885597
_symmetry_space_group_name_H-M "C M M M"
_symmetry_group_IT_number 65
_symmetry_cell_setting 'orthorhombic'
loop_
_space_group_symop_operation_xyz
x,y,z
-x,-y,z
x,-y,-z
-x,y,-z
-x,-y,-z
x,y,-z
-x,y,z
x,-y,z
1/2+x,1/2+y,z
1/2-x,1/2-y,z
1/2+x,1/2-y,-z
1/2-x,1/2+y,-z
1/2-x,1/2-y,-z
1/2+x,1/2+y,-z
1/2-x,1/2+y,z
1/2+x,1/2-y,z
loop_
_atom_site_type_symbol
_atom_site_label
_atom_site_fract_x
_atom_site_fract_y
_atom_site_fract_z
Si Si1 0.825027 0.887828 0.724476
Si Si2 0.333019 0.944738 0.500000
Si Si3 0.324739 0.895173 0.063696
Si Si4 0.325704 0.553273 0.614687
Si Si5 0.326917 0.202911 0.239040
Si Si6 0.674491 0.447143 0.165269
Si Si7 0.672369 0.203725 0.895680
O O1 0.787571 0.915865 0.668222
O O2 0.743354 0.840118 0.730146
O O3 0.787475 0.918268 0.779147
O O4 0.000000 0.880743 0.724971
O O5 0.500000 0.929796 0.500000
O O6 0.251774 0.931194 0.557318
O O7 0.330716 0.000000 0.500000
O O8 0.500000 0.897095 0.069962
O O9 0.251369 0.925869 0.111013
O O10 0.280890 0.842541 0.073841
O O11 0.287605 0.909034 0.000000
O O12 0.500000 0.555183 0.606996
O O13 0.288602 0.500000 0.625346
O O14 0.500000 0.205168 0.247707
O O15 0.250000 0.250000 0.255786
O O16 0.301113 0.197341 0.171473
O O17 0.500000 0.444354 0.158374
O O18 0.713266 0.500000 0.172686
O O19 0.500000 0.209125 0.903917
O O20 0.750000 0.250000 0.914028
#
# Coordination Sequence:
#
# PCOD9486266 Si02
#       7
#    16   8  16  16  16  16  16
#     4  10  19  32  52  77 103 131 166 207 251 296
#     4   9  17  29  45  69 104 141 176 213 249 285
#     4  10  21  37  53  70  95 127 164 204 248 302
#     4   9  17  30  49  73 103 140 177 209 245 292
#     4  10  19  32  51  74 101 130 162 201 249 301
#     4  10  21  36  53  73  98 127 162 207 253 295
#     4   9  18  32  50  72  96 122 154 195 245 300
#
# _framework density 16.235068999999999
#
# number of rings (size 3 to 8) (size 9 to 14) (size 15 to 20)
#    0.000    2.385    1.538    1.154    0.000    5.846 
#    0.000    1.538    0.000    2.769    0.000    0.538 
#    0.000    0.000    0.000    0.000    0.000    0.000 
#
# Total GULP energy -290084.625790 kJ/mol
# GULP energy per Si atom -5578.550496 kJ/mol
# Density = 1.619812 g / cm^3
# Si number density = 16.235069 Si / 1000 Ang^3
#
#
#
# Elastic Constant Matrix: (Units=GPa)
#
#
# Indices 1 2 3 4 5 6 
#
# 1 34.6230 47.7378 55.1711 0.0000 0.0000 0.0000
# 2 47.7378 117.4721 73.3188 0.0000 0.0000 0.0000
# 3 55.1711 73.3188 129.7839 0.0000 0.0000 0.0000
# 4 0.0000 0.0000 0.0000 21.3079 0.0000 0.0000
# 5 0.0000 0.0000 0.0000 0.0000 19.4445 0.0000
# 6 0.0000 0.0000 0.0000 0.0000 0.0000 29.6321
#
#
#
# Elastic Compliance Matrix: (Units=1/GPa)
#
#
# Indices 1 2 3 4 5 6 
#
# 1 0.132282 -0.028821 -0.039951 0.000000 0.000000 0.000000
# 2 -0.028821 0.019428 0.001276 0.000000 0.000000 0.000000
# 3 -0.039951 0.001276 0.023967 0.000000 0.000000 0.000000
# 4 0.000000 0.000000 0.000000 0.046931 0.000000 0.000000
# 5 0.000000 0.000000 0.000000 0.000000 0.051428 0.000000
# 6 0.000000 0.000000 0.000000 0.000000 0.000000 0.033747
#
#
# Mechanical properties :
#
#
# Convention : Reuss Voigt Hill
#
# Bulk Modulus (GPa) = 24.57878 70.48159 47.53019
# Shear Modulus (GPa) = 10.95681 21.12034 16.03857
#
# Velocity S-wave (km/s) = 2.60067 3.61072 3.14649
# Velocity P-wave (km/s) = 4.91835 7.80324 6.52230
#
# Compressibility (1/GPa) = 0.04068551
#
# Stress axis : x y z
#
# Youngs Moduli (GPa) = 7.55963 51.47116 41.72359
#
# Poissons Ratio (x) = 1.48346 1.66690
# Poissons Ratio (y) = 0.21788 -0.05325
# Poissons Ratio (z) = 0.30201 -0.06569
#
# Static dielectric constant tensor:
#      x y z
#    x 1.541780 0.000000 0.000000 
#    y 0.000000 1.527830 0.000000 
#    z 0.000000 0.000000 1.529400 
# 
# From -- ./inp_files/60806.got.cif
#   From: 2010.05.17/outbox.cif.g08.bks.cpg/sg65_31_cif.got.tgz:60806.got - 2010.06.03 17:01:31.
