data_PCOD9486750
_publ_section_title
;
Structure prediction by ZEFSAII (Michael W. Deem and Ramdas Pophale) SiO2 
 PCOD9486750
Probable space group: C M M M
;
_chemical_formula_sum "Si O2"
_cell_formula_units_Z 96
_cell_length_a 20.684409
_cell_length_b 8.653428
_cell_length_c 30.620450
_cell_angle_alpha 90.000000
_cell_angle_beta 90.000000
_cell_angle_gamma 90.000000
_cell_volume 5480.786313
_symmetry_space_group_name_H-M "C M M M"
_symmetry_group_IT_number 65
_symmetry_cell_setting 'orthorhombic'
loop_
_space_group_symop_operation_xyz
x,y,z
-x,-y,z
x,-y,-z
-x,y,-z
-x,-y,-z
x,y,-z
-x,y,z
x,-y,z
1/2+x,1/2+y,z
1/2-x,1/2-y,z
1/2+x,1/2-y,-z
1/2-x,1/2+y,-z
1/2-x,1/2-y,-z
1/2+x,1/2+y,-z
1/2-x,1/2+y,z
1/2+x,1/2-y,z
loop_
_atom_site_type_symbol
_atom_site_label
_atom_site_fract_x
_atom_site_fract_y
_atom_site_fract_z
Si Si1 0.573482 0.188136 0.716382
Si Si2 0.074575 0.313560 0.383509
Si Si3 0.820543 0.816045 0.883055
Si Si4 0.820885 0.313803 0.213143
Si Si5 0.425447 0.814012 0.050984
Si Si6 0.679708 0.315163 0.449657
O O1 0.500000 0.237749 0.726561
O O2 0.588891 0.234415 0.666572
O O3 0.625833 0.238191 0.751775
O O4 0.573271 0.000000 0.716727
O O5 0.078358 0.500000 0.385203
O O6 0.124524 0.244380 0.417567
O O7 0.000000 0.270347 0.392915
O O8 0.750000 0.750000 0.895529
O O9 0.836285 0.746748 0.835352
O O10 0.874428 0.765969 0.917596
O O11 0.816286 0.000000 0.879830
O O12 0.818884 0.500000 0.212252
O O13 0.750000 0.250000 0.224624
O O14 0.500000 0.772866 0.061344
O O15 0.419759 0.000000 0.055328
O O16 0.414050 0.775984 0.000000
O O17 0.667291 0.266436 0.500000
O O18 0.682021 0.500000 0.448435
O O19 0.750000 0.250000 0.437087
#
# Coordination Sequence:
#
# PCOD9486750 Si02
#       6
#    16  16  16  16  16  16
#     4   8  16  32  53  76 101 132 170 209 250 300
#     4   9  18  34  55  78 105 136 171 210 253 305
#     4  11  22  36  54  77 107 140 176 217 259 305
#     4  10  19  33  53  75 102 135 171 212 257 305
#     4   9  19  37  59  81 106 137 173 212 256 309
#     4  10  21  36  53  74 102 135 172 214 258 306
#
# _framework density 17.515736
#
# number of rings (size 3 to 8) (size 9 to 14) (size 15 to 20)
#    0.000    2.500    0.000    5.000    0.000    4.000 
#    0.000    7.500    0.000    3.500    0.000    0.000 
#    0.000    0.000    0.000    0.000    0.000    0.000 
#
# Total GULP energy -267811.817329 kJ/mol
# GULP energy per Si atom -5579.412861 kJ/mol
# Density = 1.747587 g / cm^3
# Si number density = 17.515736 Si / 1000 Ang^3
#
#
#
# Elastic Constant Matrix: (Units=GPa)
#
#
# Indices 1 2 3 4 5 6 
#
# 1 157.2111 53.8009 128.1767 0.0000 0.0000 0.0000
# 2 53.8009 56.2350 46.9523 0.0000 0.0000 0.0000
# 3 128.1767 46.9523 122.0911 0.0000 0.0000 0.0000
# 4 0.0000 0.0000 0.0000 25.5434 0.0000 0.0000
# 5 0.0000 0.0000 0.0000 0.0000 43.5711 0.0000
# 6 0.0000 0.0000 0.0000 0.0000 0.0000 32.4027
#
#
#
# Elastic Compliance Matrix: (Units=1/GPa)
#
#
# Indices 1 2 3 4 5 6 
#
# 1 0.045222 -0.005340 -0.045423 0.000000 0.000000 0.000000
# 2 -0.005340 0.026823 -0.004709 0.000000 0.000000 0.000000
# 3 -0.045423 -0.004709 0.057689 0.000000 0.000000 0.000000
# 4 0.000000 0.000000 0.000000 0.039149 0.000000 0.000000
# 5 0.000000 0.000000 0.000000 0.000000 0.022951 0.000000
# 6 0.000000 0.000000 0.000000 0.000000 0.000000 0.030862
#
#
# Mechanical properties :
#
#
# Convention : Reuss Voigt Hill
#
# Bulk Modulus (GPa) = 53.21961 88.15522 70.68742
# Shear Modulus (GPa) = 14.71008 27.41060 21.06034
#
# Velocity S-wave (km/s) = 2.90111 3.96019 3.47128
# Velocity P-wave (km/s) = 6.45537 8.44685 7.51735
#
# Compressibility (1/GPa) = 0.01879006
#
# Stress axis : x y z
#
# Youngs Moduli (GPa) = 22.11299 37.28119 17.33447
#
# Poissons Ratio (x) = 0.19908 0.78738
# Poissons Ratio (y) = 0.11808 0.08163
# Poissons Ratio (z) = 1.00443 0.17556
#
# Static dielectric constant tensor:
#      x y z
#    x 1.574190 0.000000 0.000000 
#    y 0.000000 1.595890 0.000000 
#    z 0.000000 0.000000 1.580960 
# 
# From -- ./inp_files/75354.got.cif
#   From: 2010.05.17/outbox.cif.g08.bks.cpg/sg65_38_cif.got.tgz:75354.got - 2010.06.03 17:01:31.
