data_PCOD9486083
_publ_section_title
;
Structure prediction by ZEFSAII (Michael W. Deem and Ramdas Pophale) SiO2 
 PCOD9486083
Probable space group: C M M M
;
_chemical_formula_sum "Si O2"
_cell_formula_units_Z 116
_cell_length_a 7.589547
_cell_length_b 28.988445
_cell_length_c 28.788855
_cell_angle_alpha 90.000000
_cell_angle_beta 90.000000
_cell_angle_gamma 90.000000
_cell_volume 6333.811972
_symmetry_space_group_name_H-M "C M M M"
_symmetry_group_IT_number 65
_symmetry_cell_setting 'orthorhombic'
loop_
_space_group_symop_operation_xyz
x,y,z
-x,-y,z
x,-y,-z
-x,y,-z
-x,-y,-z
x,y,-z
-x,y,z
x,-y,z
1/2+x,1/2+y,z
1/2-x,1/2-y,z
1/2+x,1/2-y,-z
1/2-x,1/2+y,-z
1/2-x,1/2-y,-z
1/2+x,1/2+y,-z
1/2-x,1/2+y,z
1/2+x,1/2-y,z
loop_
_atom_site_type_symbol
_atom_site_label
_atom_site_fract_x
_atom_site_fract_y
_atom_site_fract_z
Si Si1 0.211541 0.304118 0.236519
Si Si2 0.699691 0.697289 0.576960
Si Si3 0.794348 0.647968 0.330534
Si Si4 0.287496 0.448300 0.816090
Si Si5 0.500000 0.821405 0.500000
Si Si6 0.713020 0.447831 0.290634
Si Si7 0.291858 0.147260 0.856657
Si Si8 0.288224 0.196071 0.948311
O O1 0.250000 0.250000 0.236744
O O2 0.278119 0.328319 0.283502
O O3 0.281681 0.327630 0.189404
O O4 0.000000 0.310632 0.236674
O O5 0.500000 0.697688 0.558045
O O6 0.750000 0.750000 0.589239
O O7 0.705220 0.666732 0.623315
O O8 0.844471 0.680616 0.540381
O O9 0.778133 0.593244 0.322800
O O10 0.000000 0.660360 0.334617
O O11 0.500000 0.448473 0.815483
O O12 0.228893 0.500000 0.828814
O O13 0.229258 0.439153 0.762807
O O14 0.229084 0.407112 0.848893
O O15 0.500000 0.446929 0.290990
O O16 0.767727 0.500000 0.303140
O O17 0.500000 0.157797 0.857349
O O18 0.218948 0.166510 0.905060
O O19 0.500000 0.190652 0.949939
O O20 0.250000 0.250000 0.939943
O O21 0.220227 0.184315 0.000000
#
# Coordination Sequence:
#
# PCOD9486083 Si02
#       8
#    16  16  16  16   4  16  16  16
#     4  10  21  32  46  68 104 143 175 213 255 320
#     4  12  24  39  62  87 117 156 192 241 288 328
#     4  11  21  36  52  80 116 147 186 225 273 333
#     4   9  18  32  50  74 102 134 175 220 267 321
#     4  12  24  44  62  90 117 152 199 248 276 338
#     4   9  18  33  53  77 107 143 182 225 273 329
#     4  10  19  32  48  72  99 133 174 217 267 322
#     4   9  18  32  50  71  98 130 172 225 271 317
#
# _framework density 18.314404
#
# number of rings (size 3 to 8) (size 9 to 14) (size 15 to 20)
#    0.000    1.931    2.759    2.483    0.000    3.862 
#    0.000    1.379    0.000    0.414    0.000    3.862 
#    0.000    2.207    0.000    0.000    0.000    0.000 
#
# Total GULP energy -323242.856229 kJ/mol
# GULP energy per Si atom -5573.152694 kJ/mol
# Density = 1.827272 g / cm^3
# Si number density = 18.314404 Si / 1000 Ang^3
#
#
#
# Elastic Constant Matrix: (Units=GPa)
#
#
# Indices 1 2 3 4 5 6 
#
# 1 77.6745 10.0163 26.8060 0.0000 0.0000 0.0000
# 2 10.0163 80.5603 81.4756 0.0000 0.0000 0.0000
# 3 26.8060 81.4756 150.8204 0.0000 0.0000 0.0000
# 4 0.0000 0.0000 0.0000 11.7200 0.0000 0.0000
# 5 0.0000 0.0000 0.0000 0.0000 -9.3046 0.0000
# 6 0.0000 0.0000 0.0000 0.0000 0.0000 23.5220
#
#
#
# Elastic Compliance Matrix: (Units=1/GPa)
#
#
# Indices 1 2 3 4 5 6 
#
# 1 0.013819 0.001688 -0.003368 0.000000 0.000000 0.000000
# 2 0.001688 0.027569 -0.015193 0.000000 0.000000 0.000000
# 3 -0.003368 -0.015193 0.015437 0.000000 0.000000 0.000000
# 4 0.000000 0.000000 0.000000 0.085324 0.000000 0.000000
# 5 0.000000 0.000000 0.000000 0.000000 -0.107474 0.000000
# 6 0.000000 0.000000 0.000000 0.000000 0.000000 0.042513
#
#
# Mechanical properties :
#
#
# Convention : Reuss Voigt Hill
#
# Bulk Modulus (GPa) = 43.33077 60.62792 51.97934
# Shear Modulus (GPa) = 42.14864 17.90464 30.02664
#
# Velocity S-wave (km/s) = 4.80249 3.13009 4.05348
# Velocity P-wave (km/s) = 7.37988 6.79994 7.09583
#
# Compressibility (1/GPa) = 0.02307829
#
# Stress axis : x y z
#
# Youngs Moduli (GPa) = 72.36471 36.27249 64.78062
#
# Poissons Ratio (x) = -0.06124 0.21819
# Poissons Ratio (y) = -0.12217 0.98423
# Poissons Ratio (z) = 0.24373 0.55110
#
# Static dielectric constant tensor:
#      x y z
#    x 1.679250 0.000000 0.000000 
#    y 0.000000 1.612120 0.000000 
#    z 0.000000 0.000000 1.626620 
# 
# From -- ./inp_files/77143.got.cif
#   From: 2010.05.17/outbox.cif.g08.bks.cpg/sg65_39_cif.got.tgz:77143.got - 2010.06.03 17:01:31.
