data_PCOD9486016
_publ_section_title
;
Structure prediction by ZEFSAII (Michael W. Deem and Ramdas Pophale) SiO2 
 PCOD9486016
Probable space group: C M M M
;
_chemical_formula_sum "Si O2"
_cell_formula_units_Z 64
_cell_length_a 7.475341
_cell_length_b 27.848198
_cell_length_c 13.878698
_cell_angle_alpha 90.000000
_cell_angle_beta 90.000000
_cell_angle_gamma 90.000000
_cell_volume 2889.194851
_symmetry_space_group_name_H-M "C M M M"
_symmetry_group_IT_number 65
_symmetry_cell_setting 'orthorhombic'
loop_
_space_group_symop_operation_xyz
x,y,z
-x,-y,z
x,-y,-z
-x,y,-z
-x,-y,-z
x,y,-z
-x,y,z
x,-y,z
1/2+x,1/2+y,z
1/2-x,1/2-y,z
1/2+x,1/2-y,-z
1/2-x,1/2+y,-z
1/2-x,1/2-y,-z
1/2+x,1/2+y,-z
1/2-x,1/2+y,z
1/2+x,1/2-y,z
loop_
_atom_site_type_symbol
_atom_site_label
_atom_site_fract_x
_atom_site_fract_y
_atom_site_fract_z
Si Si1 0.292652 0.899004 0.197595
Si Si2 0.283190 0.056856 0.604705
Si Si3 0.718796 0.944046 0.000000
Si Si4 0.786351 0.192708 0.500000
Si Si5 0.212568 0.193705 0.710063
O O1 0.500000 0.914343 0.198228
O O2 0.213315 0.919509 0.297353
O O3 0.284266 0.841741 0.208995
O O4 0.216952 0.918839 0.098055
O O5 0.218601 0.075484 0.500000
O O6 0.500000 0.061648 0.603566
O O7 0.244639 0.000000 0.608380
O O8 0.500000 0.941033 0.000000
O O9 0.766127 0.000000 0.000000
O O10 0.750000 0.250000 0.500000
O O11 0.714851 0.177196 0.395604
O O12 0.000000 0.185573 0.500000
O O13 0.250000 0.250000 0.723338
O O14 0.000000 0.188389 0.707965
#
# Coordination Sequence:
#
# PCOD9486016 Si02
#       5
#    16  16   8   8  16
#     4  10  19  31  52  79 105 137 178 219 263 311
#     4   8  14  25  43  71 104 133 165 209 258 308
#     4   9  18  34  56  81 108 139 178 223 264 307
#     4   8  16  30  48  70  99 136 171 207 252 305
#     4  10  20  35  53  76 107 141 177 217 262 314
#
# _framework density 22.151501
#
# number of rings (size 3 to 8) (size 9 to 14) (size 15 to 20)
#    0.000    2.875    0.000    2.250    1.750    4.000 
#    0.000    1.250    0.000    3.750    0.000    1.750 
#    0.000    0.000    0.000    0.000    0.000    0.000 
#
# Total GULP energy -178607.457447 kJ/mol
# GULP energy per Si atom -5581.483045 kJ/mol
# Density = 2.210108 g / cm^3
# Si number density = 22.151501 Si / 1000 Ang^3
#
#
#
# Elastic Constant Matrix: (Units=GPa)
#
#
# Indices 1 2 3 4 5 6 
#
# 1 73.1845 -6.5452 10.5541 0.0000 0.0000 0.0000
# 2 -6.5452 107.2932 106.1183 0.0000 0.0000 0.0000
# 3 10.5541 106.1183 220.4210 0.0000 0.0000 0.0000
# 4 0.0000 0.0000 0.0000 43.4448 0.0000 0.0000
# 5 0.0000 0.0000 0.0000 0.0000 -0.5750 0.0000
# 6 0.0000 0.0000 0.0000 0.0000 0.0000 5.0491
#
#
#
# Elastic Compliance Matrix: (Units=1/GPa)
#
#
# Indices 1 2 3 4 5 6 
#
# 1 0.014230 0.002944 -0.002098 0.000000 0.000000 0.000000
# 2 0.002944 0.018401 -0.009000 0.000000 0.000000 0.000000
# 3 -0.002098 -0.009000 0.008970 0.000000 0.000000 0.000000
# 4 0.000000 0.000000 0.000000 0.023018 0.000000 0.000000
# 5 0.000000 0.000000 0.000000 0.000000 -1.739233 0.000000
# 6 0.000000 0.000000 0.000000 0.000000 0.000000 0.198055
#
#
# Mechanical properties :
#
#
# Convention : Reuss Voigt Hill
#
# Bulk Modulus (GPa) = 39.53878 69.01701 54.27790
# Shear Modulus (GPa) = -3.44396 28.96856 12.76230
#
# Velocity S-wave (km/s) = -1.24824 3.62020 2.40289
# Velocity P-wave (km/s) = 3.97625 6.97846 5.67933
#
# Compressibility (1/GPa) = 0.02529162
#
# Stress axis : x y z
#
# Youngs Moduli (GPa) = 70.27420 54.34440 111.48131
#
# Poissons Ratio (x) = -0.15997 0.23394
# Poissons Ratio (y) = -0.20686 1.00332
# Poissons Ratio (z) = 0.14747 0.48909
#
# Static dielectric constant tensor:
#      x y z
#    x 1.836670 0.000000 0.000000 
#    y 0.000000 1.802880 0.000000 
#    z 0.000000 0.000000 1.835740 
# 
# From -- ./inp_files/21035.got.cif
#   From: 2010.05.17/outbox.cif.g08.bks.cpg/sg65_11_cif.got.tgz:21035.got - 2010.06.03 17:01:31.
