data_PCOD9486835
_publ_section_title
;
Structure prediction by ZEFSAII (Michael W. Deem and Ramdas Pophale) SiO2 
 PCOD9486835
Probable space group: C M M M
;
_chemical_formula_sum "Si O2"
_cell_formula_units_Z 48
_cell_length_a 15.915091
_cell_length_b 8.168367
_cell_length_c 18.277903
_cell_angle_alpha 90.000000
_cell_angle_beta 90.000000
_cell_angle_gamma 90.000000
_cell_volume 2376.132949
_symmetry_space_group_name_H-M "C M M M"
_symmetry_group_IT_number 65
_symmetry_cell_setting 'orthorhombic'
loop_
_space_group_symop_operation_xyz
x,y,z
-x,-y,z
x,-y,-z
-x,y,-z
-x,-y,-z
x,y,-z
-x,y,z
x,-y,z
1/2+x,1/2+y,z
1/2-x,1/2-y,z
1/2+x,1/2-y,-z
1/2-x,1/2+y,-z
1/2-x,1/2-y,-z
1/2+x,1/2+y,-z
1/2-x,1/2+y,z
1/2+x,1/2-y,z
loop_
_atom_site_type_symbol
_atom_site_label
_atom_site_fract_x
_atom_site_fract_y
_atom_site_fract_z
Si Si1 0.099075 0.185668 0.000000
Si Si2 0.347483 0.194754 0.685676
Si Si3 0.500000 0.200623 0.415589
Si Si4 0.153809 0.803714 0.156197
O O1 0.122304 0.262336 0.922028
O O2 0.000000 0.170827 0.000000
O O3 0.136720 0.000000 0.000000
O O4 0.250000 0.250000 0.676371
O O5 0.415320 0.255265 0.626469
O O6 0.381050 0.241954 0.766611
O O7 0.345048 0.000000 0.681761
O O8 0.500000 0.251313 0.500000
O O9 0.500000 0.000000 0.413898
O O10 0.250000 0.750000 0.159078
O O11 0.143986 0.000000 0.155871
#
# Coordination Sequence:
#
# PCOD9486835 Si02
#       4
#     8  16   8  16
#     4   9  19  32  47  73 104 139 178 218 263 310
#     4  10  20  36  58  83 111 143 182 223 270 324
#     4   9  20  38  59  82 111 146 178 217 273 331
#     4  10  19  33  54  75 103 140 179 220 264 313
#
# _framework density 20.200890000000001
#
# number of rings (size 3 to 8) (size 9 to 14) (size 15 to 20)
#    0.000    2.333    0.000    4.500    2.333    0.667 
#    0.000    5.000    0.000   11.000    0.000    0.000 
#    0.000    0.000    0.000    0.000    0.000    0.000 
#
# Total GULP energy -133716.484496 kJ/mol
# GULP energy per Si atom -5571.520187 kJ/mol
# Density = 2.015491 g / cm^3
# Si number density = 20.200890 Si / 1000 Ang^3
#
#
#
# Elastic Constant Matrix: (Units=GPa)
#
#
# Indices 1 2 3 4 5 6 
#
# 1 86.3533 11.7583 95.0608 0.0000 0.0000 0.0000
# 2 11.7583 32.4662 16.5907 0.0000 0.0000 0.0000
# 3 95.0608 16.5907 232.5001 0.0000 0.0000 0.0000
# 4 0.0000 0.0000 0.0000 22.2339 0.0000 0.0000
# 5 0.0000 0.0000 0.0000 0.0000 44.7072 0.0000
# 6 0.0000 0.0000 0.0000 0.0000 0.0000 12.2566
#
#
#
# Elastic Compliance Matrix: (Units=1/GPa)
#
#
# Indices 1 2 3 4 5 6 
#
# 1 0.021415 -0.003406 -0.008513 0.000000 0.000000 0.000000
# 2 -0.003406 0.032509 -0.000927 0.000000 0.000000 0.000000
# 3 -0.008513 -0.000927 0.007848 0.000000 0.000000 0.000000
# 4 0.000000 0.000000 0.000000 0.044976 0.000000 0.000000
# 5 0.000000 0.000000 0.000000 0.000000 0.022368 0.000000
# 6 0.000000 0.000000 0.000000 0.000000 0.000000 0.081588
#
#
# Mechanical properties :
#
#
# Convention : Reuss Voigt Hill
#
# Bulk Modulus (GPa) = 27.71626 66.45992 47.08809
# Shear Modulus (GPa) = 20.12694 31.03352 25.58023
#
# Velocity S-wave (km/s) = 3.15991 3.92375 3.56236
# Velocity P-wave (km/s) = 5.20226 7.31428 6.34674
#
# Compressibility (1/GPa) = 0.03607990
#
# Stress axis : x y z
#
# Youngs Moduli (GPa) = 46.69522 30.76113 127.42282
#
# Poissons Ratio (x) = 0.10477 1.08475
# Poissons Ratio (y) = 0.15903 0.11815
# Poissons Ratio (z) = 0.39752 0.02852
#
# Static dielectric constant tensor:
#      x y z
#    x 1.701550 0.000000 0.000000 
#    y 0.000000 1.746230 0.000000 
#    z 0.000000 0.000000 1.790360 
# 
# From -- ./inp_files/41652.got.cif
#   From: 2010.05.17/outbox.cif.g08.bks.cpg/sg65_21_cif.got.tgz:41652.got - 2010.06.03 17:01:31.
