data_PCOD9486423
_publ_section_title
;
Structure prediction by ZEFSAII (Michael W. Deem and Ramdas Pophale) SiO2 
 PCOD9486423
Probable space group: C M M M
;
_chemical_formula_sum "Si O2"
_cell_formula_units_Z 96
_cell_length_a 9.143802
_cell_length_b 18.177008
_cell_length_c 32.647664
_cell_angle_alpha 90.000000
_cell_angle_beta 90.000000
_cell_angle_gamma 90.000000
_cell_volume 5426.269053
_symmetry_space_group_name_H-M "C M M M"
_symmetry_group_IT_number 65
_symmetry_cell_setting 'orthorhombic'
loop_
_space_group_symop_operation_xyz
x,y,z
-x,-y,z
x,-y,-z
-x,y,-z
-x,-y,-z
x,y,-z
-x,y,z
x,-y,z
1/2+x,1/2+y,z
1/2-x,1/2-y,z
1/2+x,1/2-y,-z
1/2-x,1/2+y,-z
1/2-x,1/2-y,-z
1/2+x,1/2+y,-z
1/2-x,1/2+y,z
1/2+x,1/2-y,z
loop_
_atom_site_type_symbol
_atom_site_label
_atom_site_fract_x
_atom_site_fract_y
_atom_site_fract_z
Si Si1 0.828511 0.588346 0.953981
Si Si2 0.169254 0.588810 0.372410
Si Si3 0.674852 0.670320 0.208902
Si Si4 0.175479 0.169609 0.298580
Si Si5 0.829613 0.910538 0.545519
Si Si6 0.825000 0.830041 0.880440
O O1 0.817745 0.500000 0.952486
O O2 0.735430 0.623362 0.917999
O O3 0.000000 0.607524 0.948804
O O4 0.783831 0.611863 0.000000
O O5 0.177439 0.500000 0.371474
O O6 0.261593 0.621440 0.335222
O O7 0.234201 0.614219 0.416086
O O8 0.000000 0.610428 0.368566
O O9 0.500000 0.680342 0.208906
O O10 0.750000 0.750000 0.208852
O O11 0.711430 0.636631 0.253251
O O12 0.711835 0.636100 0.164654
O O13 0.250000 0.250000 0.300715
O O14 0.000000 0.176380 0.301905
O O15 0.781818 0.886239 0.500000
O O16 0.000000 0.890338 0.551066
O O17 0.824418 0.000000 0.545297
O O18 0.750000 0.750000 0.882171
O O19 0.000000 0.822659 0.883185
#
# Coordination Sequence:
#
# PCOD9486423 Si02
#       6
#    16  16  16  16  16  16
#     4   9  19  36  54  71  96 131 167 201 240 288
#     4  10  20  32  47  71 102 131 162 202 243 283
#     4   8  16  30  48  71  96 124 158 197 240 285
#     4  10  19  33  53  73  96 128 165 201 240 290
#     4   8  14  26  45  68  93 123 160 199 240 288
#     4  10  19  32  52  77 102 126 158 201 245 288
#
# _framework density 17.691713
#
# number of rings (size 3 to 8) (size 9 to 14) (size 15 to 20)
#    0.000    2.833    0.000    2.500    0.000    3.667 
#    0.000    3.333    0.000    5.500    0.000    0.000 
#    0.000    0.000    0.000    0.000    0.000    0.000 
#
# Total GULP energy -267278.385989 kJ/mol
# GULP energy per Si atom -5568.299708 kJ/mol
# Density = 1.765145 g / cm^3
# Si number density = 17.691713 Si / 1000 Ang^3
#
#
#
# Elastic Constant Matrix: (Units=GPa)
#
#
# Indices 1 2 3 4 5 6 
#
# 1 76.3202 20.9430 84.7848 0.0000 0.0000 0.0000
# 2 20.9430 10.3538 32.9908 0.0000 0.0000 0.0000
# 3 84.7848 32.9908 202.2079 0.0000 0.0000 0.0000
# 4 0.0000 0.0000 0.0000 23.8516 0.0000 0.0000
# 5 0.0000 0.0000 0.0000 0.0000 26.8092 0.0000
# 6 0.0000 0.0000 0.0000 0.0000 0.0000 23.1881
#
#
#
# Elastic Compliance Matrix: (Units=1/GPa)
#
#
# Indices 1 2 3 4 5 6 
#
# 1 0.032678 -0.046738 -0.006077 0.000000 0.000000 0.000000
# 2 -0.046738 0.268002 -0.024128 0.000000 0.000000 0.000000
# 3 -0.006077 -0.024128 0.011430 0.000000 0.000000 0.000000
# 4 0.000000 0.000000 0.000000 0.041926 0.000000 0.000000
# 5 0.000000 0.000000 0.000000 0.000000 0.037301 0.000000
# 6 0.000000 0.000000 0.000000 0.000000 0.000000 0.043126
#
#
# Mechanical properties :
#
#
# Convention : Reuss Voigt Hill
#
# Bulk Modulus (GPa) = 6.32012 62.92433 34.62222
# Shear Modulus (GPa) = 7.79923 24.78066 16.28995
#
# Velocity S-wave (km/s) = 2.10190 3.74664 3.03771
# Velocity P-wave (km/s) = 3.07746 7.37298 5.64940
#
# Compressibility (1/GPa) = 0.15822486
#
# Stress axis : x y z
#
# Youngs Moduli (GPa) = 30.60126 3.73132 87.49014
#
# Poissons Ratio (x) = 0.17439 0.53163
# Poissons Ratio (y) = 1.43023 2.11099
# Poissons Ratio (z) = 0.18595 0.09003
#
# Static dielectric constant tensor:
#      x y z
#    x 1.587670 0.000000 0.000000 
#    y 0.000000 1.583790 0.000000 
#    z 0.000000 0.000000 1.646790 
# 
# From -- ./inp_files/73201.got.cif
#   From: 2010.05.17/outbox.cif.g08.bks.cpg/sg65_37_cif.got.tgz:73201.got - 2010.06.03 17:01:31.
