data_PCOD9486396
_publ_section_title
;
Structure prediction by ZEFSAII (Michael W. Deem and Ramdas Pophale) SiO2 
 PCOD9486396
Probable space group: C M M M
;
_chemical_formula_sum "Si O2"
_cell_formula_units_Z 80
_cell_length_a 27.140291
_cell_length_b 8.453888
_cell_length_c 19.605237
_cell_angle_alpha 90.000000
_cell_angle_beta 90.000000
_cell_angle_gamma 90.000000
_cell_volume 4498.244798
_symmetry_space_group_name_H-M "C M M M"
_symmetry_group_IT_number 65
_symmetry_cell_setting 'orthorhombic'
loop_
_space_group_symop_operation_xyz
x,y,z
-x,-y,z
x,-y,-z
-x,y,-z
-x,-y,-z
x,y,-z
-x,y,z
x,-y,z
1/2+x,1/2+y,z
1/2-x,1/2-y,z
1/2+x,1/2-y,-z
1/2-x,1/2+y,-z
1/2-x,1/2-y,-z
1/2+x,1/2+y,-z
1/2-x,1/2+y,z
1/2+x,1/2-y,z
loop_
_atom_site_type_symbol
_atom_site_label
_atom_site_fract_x
_atom_site_fract_y
_atom_site_fract_z
Si Si1 0.803097 0.188836 0.078330
Si Si2 0.000000 0.812914 0.667919
Si Si3 0.892909 0.192403 0.325880
Si Si4 0.303587 0.690944 0.421424
Si Si5 0.391548 0.188794 0.829473
Si Si6 0.500000 0.190738 0.821393
O O1 0.750000 0.250000 0.103404
O O2 0.848441 0.242816 0.124292
O O3 0.801551 0.000000 0.077634
O O4 0.809122 0.246239 0.000000
O O5 0.946337 0.752025 0.645564
O O6 0.000000 0.779845 0.749028
O O7 0.000000 0.000000 0.654246
O O8 0.847734 0.244744 0.372850
O O9 0.887315 0.251111 0.248385
O O10 0.893448 0.000000 0.324489
O O11 0.310836 0.742814 0.500000
O O12 0.303309 0.500000 0.420918
O O13 0.250000 0.750000 0.398676
O O14 0.447285 0.229765 0.854573
O O15 0.387447 0.000000 0.829324
O O16 0.500000 0.000000 0.808934
#
# Coordination Sequence:
#
# PCOD9486396 Si02
#       6
#    16   8  16  16  16   8
#     4  10  21  37  55  74  98 129 163 199 242 290
#     4   8  14  26  45  67  91 122 155 191 239 286
#     4   9  17  30  48  70  96 124 158 199 240 284
#     4   9  18  32  48  66  91 124 159 195 237 285
#     4  10  19  32  52  76 101 129 163 201 240 284
#     4   8  16  30  47  70  99 130 161 194 235 282
#
# _framework density 17.784714999999998
#
# number of rings (size 3 to 8) (size 9 to 14) (size 15 to 20)
#    0.000    2.800    0.000    1.200    0.000    3.600 
#    0.000    3.000    0.000    6.000    0.000    0.000 
#    0.000   11.200    0.000    0.000    0.000    0.000 
#
# Total GULP energy -222779.828175 kJ/mol
# GULP energy per Si atom -5569.495704 kJ/mol
# Density = 1.774424 g / cm^3
# Si number density = 17.784715 Si / 1000 Ang^3
#
#
#
# Elastic Constant Matrix: (Units=GPa)
#
#
# Indices 1 2 3 4 5 6 
#
# 1 224.4801 31.4819 85.0960 0.0000 0.0000 0.0000
# 2 31.4819 19.2520 12.4599 0.0000 0.0000 0.0000
# 3 85.0960 12.4599 53.0052 0.0000 0.0000 0.0000
# 4 0.0000 0.0000 0.0000 13.8030 0.0000 0.0000
# 5 0.0000 0.0000 0.0000 0.0000 -36.6191 0.0000
# 6 0.0000 0.0000 0.0000 0.0000 0.0000 22.9680
#
#
#
# Elastic Compliance Matrix: (Units=1/GPa)
#
#
# Indices 1 2 3 4 5 6 
#
# 1 0.012532 -0.008813 -0.018048 0.000000 0.000000 0.000000
# 2 -0.008813 0.067460 -0.001709 0.000000 0.000000 0.000000
# 3 -0.018048 -0.001709 0.048243 0.000000 0.000000 0.000000
# 4 0.000000 0.000000 0.000000 0.072448 0.000000 0.000000
# 5 0.000000 0.000000 0.000000 0.000000 -0.027308 0.000000
# 6 0.000000 0.000000 0.000000 0.000000 0.000000 0.043539
#
#
# Mechanical properties :
#
#
# Convention : Reuss Voigt Hill
#
# Bulk Modulus (GPa) = 14.06577 61.64588 37.85583
# Shear Modulus (GPa) = 16.79242 11.21037 14.00139
#
# Velocity S-wave (km/s) = 3.07613 2.51338 2.80888
# Velocity P-wave (km/s) = 4.53242 6.56965 5.64372
#
# Compressibility (1/GPa) = 0.07109459
#
# Stress axis : x y z
#
# Youngs Moduli (GPa) = 79.79305 14.82355 20.72837
#
# Poissons Ratio (x) = 0.13064 0.37411
# Poissons Ratio (y) = 0.70320 0.03543
# Poissons Ratio (z) = 1.44012 0.02534
#
# Static dielectric constant tensor:
#      x y z
#    x 1.643620 0.000000 0.000000 
#    y 0.000000 1.619820 0.000000 
#    z 0.000000 0.000000 1.578740 
# 
# From -- ./inp_files/57299.got.cif
#   From: 2010.05.17/outbox.cif.g08.bks.cpg/sg65_29_cif.got.tgz:57299.got - 2010.06.03 17:01:31.
