data_PCOD9486841
_publ_section_title
;
Structure prediction by ZEFSAII (Michael W. Deem and Ramdas Pophale) SiO2 
 PCOD9486841
Probable space group: C M M M
;
_chemical_formula_sum "Si O2"
_cell_formula_units_Z 96
_cell_length_a 24.506746
_cell_length_b 25.791071
_cell_length_c 7.965915
_cell_angle_alpha 90.000000
_cell_angle_beta 90.000000
_cell_angle_gamma 90.000000
_cell_volume 5034.898206
_symmetry_space_group_name_H-M "C M M M"
_symmetry_group_IT_number 65
_symmetry_cell_setting 'orthorhombic'
loop_
_space_group_symop_operation_xyz
x,y,z
-x,-y,z
x,-y,-z
-x,y,-z
-x,-y,-z
x,y,-z
-x,y,z
x,-y,z
1/2+x,1/2+y,z
1/2-x,1/2-y,z
1/2+x,1/2-y,-z
1/2-x,1/2+y,-z
1/2-x,1/2-y,-z
1/2+x,1/2+y,-z
1/2-x,1/2+y,z
1/2+x,1/2-y,z
loop_
_atom_site_type_symbol
_atom_site_label
_atom_site_fract_x
_atom_site_fract_y
_atom_site_fract_z
Si Si1 0.806168 0.559262 0.296569
Si Si2 0.618242 0.658075 0.697883
Si Si3 0.500000 0.691723 0.295615
Si Si4 0.616183 0.149397 0.698387
Si Si5 0.000000 0.687474 0.293892
Si Si6 0.188444 0.745593 0.803665
Si Si7 0.182556 0.059137 0.799859
O O1 0.806648 0.559940 0.500000
O O2 0.816496 0.500000 0.241711
O O3 0.850351 0.600430 0.232721
O O4 0.745046 0.573811 0.241561
O O5 0.619012 0.670440 0.500000
O O6 0.556281 0.665350 0.759958
O O7 0.657451 0.700044 0.783840
O O8 0.641761 0.600982 0.724578
O O9 0.500000 0.690242 0.500000
O O10 0.500000 0.752054 0.245110
O O11 0.609417 0.139987 0.500000
O O12 0.555719 0.160708 0.765951
O O13 0.652784 0.200694 0.719637
O O14 0.000000 0.687062 0.500000
O O15 0.250000 0.750000 0.735479
O O16 0.192342 0.732026 0.000000
O O17 0.174359 0.000000 0.738657
O O18 0.176172 0.059482 0.000000
#
# Coordination Sequence:
#
# PCOD9486841 Si02
#       7
#    16  16   8  16   8  16  16
#     4   9  18  33  54  81 109 139 179 222 263 312
#     4  11  21  36  58  80 104 137 178 219 262 313
#     4   9  18  34  55  78 104 137 176 218 263 313
#     4  10  19  33  54  76 103 141 180 218 262 313
#     4   9  16  32  53  75 104 140 179 217 261 312
#     4  11  23  35  49  75 110 139 169 217 270 319
#     4  10  21  37  56  79 109 143 175 213 266 318
#
# _framework density 19.066918999999999
#
# number of rings (size 3 to 8) (size 9 to 14) (size 15 to 20)
#    0.000    2.000    1.667    2.500    0.000    5.667 
#    0.000    3.750    0.000    5.000    0.000    0.000 
#    0.000    4.000    0.000    0.000    0.000    0.000 
#
# Total GULP energy -268010.809172 kJ/mol
# GULP energy per Si atom -5583.558524 kJ/mol
# Density = 1.902352 g / cm^3
# Si number density = 19.066919 Si / 1000 Ang^3
#
#
#
# Elastic Constant Matrix: (Units=GPa)
#
#
# Indices 1 2 3 4 5 6 
#
# 1 180.6016 83.4760 -0.3561 0.0000 0.0000 0.0000
# 2 83.4760 98.7846 -6.2115 0.0000 0.0000 0.0000
# 3 -0.3561 -6.2115 15.4434 0.0000 0.0000 0.0000
# 4 0.0000 0.0000 0.0000 13.9887 0.0000 0.0000
# 5 0.0000 0.0000 0.0000 0.0000 -181.4918 0.0000
# 6 0.0000 0.0000 0.0000 0.0000 0.0000 22.0068
#
#
#
# Elastic Compliance Matrix: (Units=1/GPa)
#
#
# Indices 1 2 3 4 5 6 
#
# 1 0.009219 -0.007979 -0.002997 0.000000 0.000000 0.000000
# 2 -0.007979 0.017291 0.006771 0.000000 0.000000 0.000000
# 3 -0.002997 0.006771 0.067407 0.000000 0.000000 0.000000
# 4 0.000000 0.000000 0.000000 0.071486 0.000000 0.000000
# 5 0.000000 0.000000 0.000000 0.000000 -0.005510 0.000000
# 6 0.000000 0.000000 0.000000 0.000000 0.000000 0.045440
#
#
# Mechanical properties :
#
#
# Convention : Reuss Voigt Hill
#
# Bulk Modulus (GPa) = 11.69488 49.84961 30.77224
# Shear Modulus (GPa) = 20.64020 -14.57118 3.03451
#
# Velocity S-wave (km/s) = 3.29373 -2.76744 1.26292
# Velocity P-wave (km/s) = 4.54002 3.99871 4.27793
#
# Compressibility (1/GPa) = 0.08550751
#
# Stress axis : x y z
#
# Youngs Moduli (GPa) = 108.47146 57.83333 14.83530
#
# Poissons Ratio (x) = 0.46144 0.04445
# Poissons Ratio (y) = 0.86547 -0.10044
# Poissons Ratio (z) = 0.32504 -0.39157
#
# Static dielectric constant tensor:
#      x y z
#    x 1.656090 0.000000 0.000000 
#    y 0.000000 1.643740 0.000000 
#    z 0.000000 0.000000 1.682280 
# 
# From -- ./inp_files/14422.got.cif
#   From: 2010.05.17/outbox.cif.g08.bks.cpg/sg65_8_cif.got.tgz:14422.got - 2010.06.03 17:01:31.
