data_PCOD9486420
_publ_section_title
;
Structure prediction by ZEFSAII (Michael W. Deem and Ramdas Pophale) SiO2 
 PCOD9486420
Probable space group: C M M M
;
_chemical_formula_sum "Si O2"
_cell_formula_units_Z 104
_cell_length_a 32.205639
_cell_length_b 19.599549
_cell_length_c 7.397718
_cell_angle_alpha 90.000000
_cell_angle_beta 90.000000
_cell_angle_gamma 90.000000
_cell_volume 4669.557963
_symmetry_space_group_name_H-M "C M M M"
_symmetry_group_IT_number 65
_symmetry_cell_setting 'orthorhombic'
loop_
_space_group_symop_operation_xyz
x,y,z
-x,-y,z
x,-y,-z
-x,y,-z
-x,-y,-z
x,y,-z
-x,y,z
x,-y,z
1/2+x,1/2+y,z
1/2-x,1/2-y,z
1/2+x,1/2-y,-z
1/2-x,1/2+y,-z
1/2-x,1/2-y,-z
1/2+x,1/2+y,-z
1/2-x,1/2+y,z
1/2+x,1/2-y,z
loop_
_atom_site_type_symbol
_atom_site_label
_atom_site_fract_x
_atom_site_fract_y
_atom_site_fract_z
Si Si1 0.755743 0.325111 0.209067
Si Si2 0.500000 0.920697 0.220474
Si Si3 0.084820 0.354233 0.787510
Si Si4 0.181799 0.923676 0.281834
Si Si5 0.046374 0.784427 0.717715
Si Si6 0.329641 0.921180 0.221644
Si Si7 0.085684 0.075848 0.279682
O O1 0.750000 0.250000 0.290551
O O2 0.712864 0.366410 0.215333
O O3 0.791482 0.374299 0.284903
O O4 0.767938 0.314142 0.000000
O O5 0.457790 0.885878 0.287467
O O6 0.500000 0.000000 0.266260
O O7 0.500000 0.915391 0.000000
O O8 0.079596 0.273133 0.768042
O O9 0.127071 0.387195 0.717391
O O10 0.084980 0.370284 0.000000
O O11 0.182600 0.922143 0.500000
O O12 0.133875 0.914495 0.227250
O O13 0.195111 0.000000 0.224641
O O14 0.045208 0.786024 0.500000
O O15 0.059115 0.859685 0.780889
O O16 0.000000 0.765883 0.782518
O O17 0.326253 0.000000 0.278250
O O18 0.329058 0.921882 0.000000
O O19 0.084639 0.075628 0.500000
O O20 0.072227 0.000000 0.221797
#
# Coordination Sequence:
#
# PCOD9486420 Si02
#       7
#    16   8  16  16  16  16  16
#     4  10  21  34  50  77 109 138 169 207 255 309
#     4   9  16  28  49  75  96 119 164 212 241 283
#     4  10  19  32  52  76  99 129 168 209 251 294
#     4   9  18  34  55  76  99 131 172 214 253 296
#     4  10  20  33  51  76 106 136 164 202 254 307
#     4   9  18  33  52  73 100 135 172 211 252 293
#     4   8  16  32  53  76 101 132 172 212 248 294
#
# _framework density 22.271913999999999
#
# number of rings (size 3 to 8) (size 9 to 14) (size 15 to 20)
#    0.000    2.692    0.769    1.846    2.154    3.385 
#    0.000    2.308    0.000    4.615    0.000    1.077 
#    0.000    0.000    0.000    0.000    0.000    0.000 
#
# Total GULP energy -290428.980825 kJ/mol
# GULP energy per Si atom -5585.172708 kJ/mol
# Density = 2.222122 g / cm^3
# Si number density = 22.271914 Si / 1000 Ang^3
#
#
#
# Elastic Constant Matrix: (Units=GPa)
#
#
# Indices 1 2 3 4 5 6 
#
# 1 73.5832 66.9721 4.7353 0.0000 0.0000 0.0000
# 2 66.9721 172.4626 -1.2850 0.0000 0.0000 0.0000
# 3 4.7353 -1.2850 73.3486 0.0000 0.0000 0.0000
# 4 0.0000 0.0000 0.0000 0.7099 0.0000 0.0000
# 5 0.0000 0.0000 0.0000 0.0000 4.8866 0.0000
# 6 0.0000 0.0000 0.0000 0.0000 0.0000 44.2978
#
#
#
# Elastic Compliance Matrix: (Units=1/GPa)
#
#
# Indices 1 2 3 4 5 6 
#
# 1 0.021185 -0.008238 -0.001512 0.000000 0.000000 0.000000
# 2 -0.008238 0.009003 0.000690 0.000000 0.000000 0.000000
# 3 -0.001512 0.000690 0.013743 0.000000 0.000000 0.000000
# 4 0.000000 0.000000 0.000000 1.408717 0.000000 0.000000
# 5 0.000000 0.000000 0.000000 0.000000 0.204643 0.000000
# 6 0.000000 0.000000 0.000000 0.000000 0.000000 0.022574
#
#
# Mechanical properties :
#
#
# Convention : Reuss Voigt Hill
#
# Bulk Modulus (GPa) = 38.74474 51.13770 44.94122
# Shear Modulus (GPa) = 2.92982 26.57698 14.75340
#
# Velocity S-wave (km/s) = 1.14819 3.45816 2.57655
# Velocity P-wave (km/s) = 4.38084 6.24144 5.39200
#
# Compressibility (1/GPa) = 0.02580995
#
# Stress axis : x y z
#
# Youngs Moduli (GPa) = 47.20250 111.07911 72.76316
#
# Poissons Ratio (x) = 0.91508 0.11002
# Poissons Ratio (y) = 0.38886 -0.05017
# Poissons Ratio (z) = 0.07137 -0.07660
#
# Static dielectric constant tensor:
#      x y z
#    x 1.779280 0.000000 0.000000 
#    y 0.000000 1.794930 0.000000 
#    z 0.000000 0.000000 1.875870 
# 
# From -- ./inp_files/32550.got.cif
#   From: 2010.05.17/outbox.cif.g08.bks.cpg/sg65_17_cif.got.tgz:32550.got - 2010.06.03 17:01:31.
