data_PCOD9486085
_publ_section_title
;
Structure prediction by ZEFSAII (Michael W. Deem and Ramdas Pophale) SiO2 
 PCOD9486085
Probable space group: C M M M
;
_chemical_formula_sum "Si O2"
_cell_formula_units_Z 88
_cell_length_a 7.364598
_cell_length_b 30.646876
_cell_length_c 19.864640
_cell_angle_alpha 90.000000
_cell_angle_beta 90.000000
_cell_angle_gamma 90.000000
_cell_volume 4483.487422
_symmetry_space_group_name_H-M "C M M M"
_symmetry_group_IT_number 65
_symmetry_cell_setting 'orthorhombic'
loop_
_space_group_symop_operation_xyz
x,y,z
-x,-y,z
x,-y,-z
-x,y,-z
-x,-y,-z
x,y,-z
-x,y,z
x,-y,z
1/2+x,1/2+y,z
1/2-x,1/2-y,z
1/2+x,1/2-y,-z
1/2-x,1/2+y,-z
1/2-x,1/2-y,-z
1/2+x,1/2+y,-z
1/2-x,1/2+y,z
1/2+x,1/2-y,z
loop_
_atom_site_type_symbol
_atom_site_label
_atom_site_fract_x
_atom_site_fract_y
_atom_site_fract_z
Si Si1 0.783373 0.199697 0.149586
Si Si2 0.283547 0.075402 0.000000
Si Si3 0.207953 0.176798 0.000000
Si Si4 0.220668 0.879431 0.237664
Si Si5 0.289355 0.545706 0.145014
Si Si6 0.277857 0.449041 0.351077
Si Si7 0.294170 0.552580 0.500000
O O1 0.750000 0.250000 0.165452
O O2 0.718481 0.167876 0.210098
O O3 0.000000 0.191553 0.144803
O O4 0.712556 0.190678 0.072954
O O5 0.208706 0.124359 0.000000
O O6 0.221778 0.050408 0.065849
O O7 0.500000 0.077891 0.000000
O O8 0.000000 0.193428 0.000000
O O9 0.282033 0.910534 0.176592
O O10 0.277195 0.909778 0.301082
O O11 0.000000 0.876511 0.243810
O O12 0.500000 0.544617 0.165797
O O13 0.206509 0.500000 0.167116
O O14 0.500000 0.450108 0.351285
O O15 0.224830 0.500000 0.335296
O O16 0.214836 0.437421 0.426850
O O17 0.305229 0.500000 0.500000
O O18 0.500000 0.570346 0.500000
#
# Coordination Sequence:
#
# PCOD9486085 Si02
#       7
#    16   8   8  16  16  16   8
#     4  10  20  33  50  67  86 109 140 187 233 274
#     4  12  23  32  45  64  89 117 146 183 223 266
#     4  10  19  36  54  65  82 108 144 189 231 275
#     4   9  16  27  43  63  85 111 147 186 219 259
#     4  10  19  32  49  64  83 116 154 186 218 261
#     4   8  12  19  34  59  90 121 150 177 210 253
#     4   7  10  16  28  52  89 124 147 173 209 249
#
# _framework density 19.627579999999998
#
# number of rings (size 3 to 8) (size 9 to 14) (size 15 to 20)
#    0.000    2.636    1.818    3.000    0.000    4.364 
#    0.000    0.000    0.000    0.000    0.000    0.636 
#    0.000    0.000    0.000    2.455    0.000   29.545 
#
# Total GULP energy -244968.331491 kJ/mol
# GULP energy per Si atom -5567.462079 kJ/mol
# Density = 1.958291 g / cm^3
# Si number density = 19.627580 Si / 1000 Ang^3
#
#
#
# Elastic Constant Matrix: (Units=GPa)
#
#
# Indices 1 2 3 4 5 6 
#
# 1 68.8179 -3.2658 -4.2282 0.0000 0.0000 0.0000
# 2 -3.2658 155.6814 75.3791 0.0000 0.0000 0.0000
# 3 -4.2282 75.3791 146.1066 0.0000 0.0000 0.0000
# 4 0.0000 0.0000 0.0000 0.7294 0.0000 0.0000
# 5 0.0000 0.0000 0.0000 0.0000 179.0432 0.0000
# 6 0.0000 0.0000 0.0000 0.0000 0.0000 -9.6655
#
#
#
# Elastic Compliance Matrix: (Units=1/GPa)
#
#
# Indices 1 2 3 4 5 6 
#
# 1 0.014559 0.000135 0.000352 0.000000 0.000000 0.000000
# 2 0.000135 0.008563 -0.004414 0.000000 0.000000 0.000000
# 3 0.000352 -0.004414 0.009132 0.000000 0.000000 0.000000
# 4 0.000000 0.000000 0.000000 1.370938 0.000000 0.000000
# 5 0.000000 0.000000 0.000000 0.000000 0.005585 0.000000
# 6 0.000000 0.000000 0.000000 0.000000 0.000000 -0.103461
#
#
# Mechanical properties :
#
#
# Convention : Reuss Voigt Hill
#
# Bulk Modulus (GPa) = 40.98414 56.26399 48.62407
# Shear Modulus (GPa) = 3.78414 54.20281 28.99348
#
# Velocity S-wave (km/s) = 1.39002 5.26076 3.84758
# Velocity P-wave (km/s) = 4.84793 8.10116 6.67575
#
# Compressibility (1/GPa) = 0.02439968
#
# Stress axis : x y z
#
# Youngs Moduli (GPa) = 68.68544 116.77479 109.50702
#
# Poissons Ratio (x) = -0.01579 -0.03850
# Poissons Ratio (y) = -0.00929 0.48338
# Poissons Ratio (z) = -0.02415 0.51546
#
# Static dielectric constant tensor:
#      x y z
#    x 1.795400 0.000000 0.000000 
#    y 0.000000 1.676200 0.000000 
#    z 0.000000 0.000000 1.730190 
# 
# From -- ./inp_files/60755.got.cif
#   From: 2010.05.17/outbox.cif.g08.bks.cpg/sg65_31_cif.got.tgz:60755.got - 2010.06.03 17:01:31.
