data_PCOD9486092
_publ_section_title
;
Structure prediction by ZEFSAII (Michael W. Deem and Ramdas Pophale) SiO2 
 PCOD9486092
Probable space group: C M M M
;
_chemical_formula_sum "Si O2"
_cell_formula_units_Z 64
_cell_length_a 7.845041
_cell_length_b 38.874945
_cell_length_c 12.928863
_cell_angle_alpha 90.000000
_cell_angle_beta 90.000000
_cell_angle_gamma 90.000000
_cell_volume 3942.986941
_symmetry_space_group_name_H-M "C M M M"
_symmetry_group_IT_number 65
_symmetry_cell_setting 'orthorhombic'
loop_
_space_group_symop_operation_xyz
x,y,z
-x,-y,z
x,-y,-z
-x,y,-z
-x,-y,-z
x,y,-z
-x,y,z
x,-y,z
1/2+x,1/2+y,z
1/2-x,1/2-y,z
1/2+x,1/2-y,-z
1/2-x,1/2+y,-z
1/2-x,1/2-y,-z
1/2+x,1/2+y,-z
1/2-x,1/2+y,z
1/2+x,1/2-y,z
loop_
_atom_site_type_symbol
_atom_site_label
_atom_site_fract_x
_atom_site_fract_y
_atom_site_fract_z
Si Si1 0.203010 0.334550 0.807368
Si Si2 0.205854 0.710071 0.000000
Si Si3 0.703051 0.288619 0.617238
Si Si4 0.000000 0.960767 0.125453
Si Si5 0.799561 0.409285 0.124866
O O1 0.270566 0.309746 0.898201
O O2 0.236572 0.316998 0.697828
O O3 0.261222 0.373645 0.823347
O O4 0.000000 0.336459 0.822054
O O5 0.250000 0.750000 0.000000
O O6 0.000000 0.708075 0.000000
O O7 0.771121 0.292885 0.500000
O O8 0.500000 0.290438 0.612988
O O9 0.750000 0.250000 0.652563
O O10 0.829750 0.939668 0.154315
O O11 0.000000 0.000000 0.163267
O O12 0.000000 0.961918 0.000000
O O13 0.000000 0.415914 0.149321
O O14 0.790852 0.404447 0.000000
#
# Coordination Sequence:
#
# PCOD9486092 Si02
#       5
#    16   8  16   8  16
#     4  10  19  32  49  67  93 126 162 202 244 296
#     4  10  20  32  42  64  94 121 159 200 240 289
#     4  10  21  35  49  66  90 123 164 210 257 297
#     4   9  18  30  46  72 101 131 171 203 234 297
#     4   9  17  31  48  69  99 133 164 199 247 291
#
# _framework density 16.231349000000002
#
# number of rings (size 3 to 8) (size 9 to 14) (size 15 to 20)
#    0.000    2.375    1.250    1.500    1.750    5.000 
#    0.000    2.500    0.000    0.000    0.000    0.000 
#    0.000    2.000    0.000    5.500    0.000    0.250 
#
# Total GULP energy -178411.617523 kJ/mol
# GULP energy per Si atom -5575.363048 kJ/mol
# Density = 1.619441 g / cm^3
# Si number density = 16.231349 Si / 1000 Ang^3
#
#
#
# Elastic Constant Matrix: (Units=GPa)
#
#
# Indices 1 2 3 4 5 6 
#
# 1 51.6047 52.8500 13.2316 0.0000 0.0000 0.0000
# 2 52.8500 168.0809 49.9173 0.0000 0.0000 0.0000
# 3 13.2316 49.9173 48.1036 0.0000 0.0000 0.0000
# 4 0.0000 0.0000 0.0000 16.0350 0.0000 0.0000
# 5 0.0000 0.0000 0.0000 0.0000 82.7962 0.0000
# 6 0.0000 0.0000 0.0000 0.0000 0.0000 27.1446
#
#
#
# Elastic Compliance Matrix: (Units=1/GPa)
#
#
# Indices 1 2 3 4 5 6 
#
# 1 0.028732 -0.009666 0.002127 0.000000 0.000000 0.000000
# 2 -0.009666 0.011852 -0.009640 0.000000 0.000000 0.000000
# 3 0.002127 -0.009640 0.030206 0.000000 0.000000 0.000000
# 4 0.000000 0.000000 0.000000 0.062363 0.000000 0.000000
# 5 0.000000 0.000000 0.000000 0.000000 0.012078 0.000000
# 6 0.000000 0.000000 0.000000 0.000000 0.000000 0.036840
#
#
# Mechanical properties :
#
#
# Convention : Reuss Voigt Hill
#
# Bulk Modulus (GPa) = 27.44749 55.53188 41.48968
# Shear Modulus (GPa) = 21.87492 35.31453 28.59473
#
# Velocity S-wave (km/s) = 3.67508 4.66950 4.20181
# Velocity P-wave (km/s) = 5.91229 7.95986 7.01122
#
# Compressibility (1/GPa) = 0.03643320
#
# Stress axis : x y z
#
# Youngs Moduli (GPa) = 34.80457 84.37642 33.10547
#
# Poissons Ratio (x) = 0.81558 -0.07043
# Poissons Ratio (y) = 0.33642 0.31913
# Poissons Ratio (z) = -0.07404 0.81337
#
# Static dielectric constant tensor:
#      x y z
#    x 1.571850 0.000000 0.000000 
#    y 0.000000 1.570530 0.000000 
#    z 0.000000 0.000000 1.547170 
# 
# From -- ./inp_files/21040.got.cif
#   From: 2010.05.17/outbox.cif.g08.bks.cpg/sg65_11_cif.got.tgz:21040.got - 2010.06.03 17:01:31.
