data_PCOD9486864
_publ_section_title
;
Structure prediction by ZEFSAII (Michael W. Deem and Ramdas Pophale) SiO2 
 PCOD9486864
Probable space group: C M M M
;
_chemical_formula_sum "Si O2"
_cell_formula_units_Z 64
_cell_length_a 18.917641
_cell_length_b 7.823321
_cell_length_c 21.935410
_cell_angle_alpha 90.000000
_cell_angle_beta 90.000000
_cell_angle_gamma 90.000000
_cell_volume 3246.413877
_symmetry_space_group_name_H-M "C M M M"
_symmetry_group_IT_number 65
_symmetry_cell_setting 'orthorhombic'
loop_
_space_group_symop_operation_xyz
x,y,z
-x,-y,z
x,-y,-z
-x,y,-z
-x,-y,-z
x,y,-z
-x,y,z
x,-y,z
1/2+x,1/2+y,z
1/2-x,1/2-y,z
1/2+x,1/2-y,-z
1/2-x,1/2+y,-z
1/2-x,1/2-y,-z
1/2+x,1/2+y,-z
1/2-x,1/2+y,z
1/2+x,1/2-y,z
loop_
_atom_site_type_symbol
_atom_site_label
_atom_site_fract_x
_atom_site_fract_y
_atom_site_fract_z
Si Si1 0.833204 0.705483 0.000000
Si Si2 0.832772 0.204125 0.367442
Si Si3 0.666797 0.705699 0.500000
Si Si4 0.079749 0.295606 0.248429
Si Si5 0.332822 0.206541 0.867231
O O1 0.750000 0.750000 0.000000
O O2 0.859225 0.768227 0.933966
O O3 0.841116 0.500000 0.000000
O O4 0.750000 0.250000 0.360305
O O5 0.859029 0.269373 0.433996
O O6 0.877789 0.265576 0.310511
O O7 0.837090 0.000000 0.368581
O O8 0.658810 0.500000 0.500000
O O9 0.750000 0.750000 0.500000
O O10 0.075407 0.500000 0.240541
O O11 0.122729 0.227682 0.190016
O O12 0.000000 0.227466 0.251684
O O13 0.250000 0.250000 0.860429
O O14 0.337256 0.000000 0.867731
#
# Coordination Sequence:
#
# PCOD9486864 Si02
#       5
#     8  16   8  16  16
#     4   8  14  26  45  69  93 117 151 194 239 284
#     4  10  19  33  54  77  99 125 159 198 241 289
#     4   8  16  30  49  74  99 121 151 195 241 284
#     4  10  21  35  48  67  99 134 166 202 242 283
#     4   9  17  30  49  71  94 122 157 198 241 285
#
# _framework density 19.714061000000001
#
# number of rings (size 3 to 8) (size 9 to 14) (size 15 to 20)
#    0.000    2.750    0.000    1.500    0.000    4.500 
#    0.000    1.250    0.000    7.500    0.000    0.000 
#    0.000   12.000    0.000    0.000    0.000    0.000 
#
# Total GULP energy -178279.300732 kJ/mol
# GULP energy per Si atom -5571.228148 kJ/mol
# Density = 1.966919 g / cm^3
# Si number density = 19.714061 Si / 1000 Ang^3
#
#
#
# Elastic Constant Matrix: (Units=GPa)
#
#
# Indices 1 2 3 4 5 6 
#
# 1 87.3145 2.4341 98.0917 0.0000 0.0000 0.0000
# 2 2.4341 26.5526 6.8233 0.0000 0.0000 0.0000
# 3 98.0917 6.8233 256.1081 0.0000 0.0000 0.0000
# 4 0.0000 0.0000 0.0000 18.8911 0.0000 0.0000
# 5 0.0000 0.0000 0.0000 0.0000 -6.2248 0.0000
# 6 0.0000 0.0000 0.0000 0.0000 0.0000 14.1257
#
#
#
# Elastic Compliance Matrix: (Units=1/GPa)
#
#
# Indices 1 2 3 4 5 6 
#
# 1 0.020103 0.000137 -0.007703 0.000000 0.000000 0.000000
# 2 0.000137 0.037922 -0.001063 0.000000 0.000000 0.000000
# 3 -0.007703 -0.001063 0.006883 0.000000 0.000000 0.000000
# 4 0.000000 0.000000 0.000000 0.052935 0.000000 0.000000
# 5 0.000000 0.000000 0.000000 0.000000 -0.160649 0.000000
# 6 0.000000 0.000000 0.000000 0.000000 0.000000 0.070793
#
#
# Mechanical properties :
#
#
# Convention : Reuss Voigt Hill
#
# Bulk Modulus (GPa) = 20.98654 64.96372 42.97513
# Shear Modulus (GPa) = 81.79421 22.86681 52.33051
#
# Velocity S-wave (km/s) = 6.44828 3.40946 5.15775
# Velocity P-wave (km/s) = 8.13075 6.96590 7.57076
#
# Compressibility (1/GPa) = 0.04764958
#
# Stress axis : x y z
#
# Youngs Moduli (GPa) = 49.74321 26.37015 145.27757
#
# Poissons Ratio (x) = -0.00360 1.11913
# Poissons Ratio (y) = -0.00680 0.15438
# Poissons Ratio (z) = 0.38319 0.02802
#
# Static dielectric constant tensor:
#      x y z
#    x 1.640580 0.000000 0.000000 
#    y 0.000000 1.719650 0.000000 
#    z 0.000000 0.000000 1.762080 
# 
# From -- ./inp_files/58884.got.cif
#   From: 2010.05.17/outbox.cif.g08.bks.cpg/sg65_30_cif.got.tgz:58884.got - 2010.06.03 17:01:31.
