data_PCOD9486813
_publ_section_title
;
Structure prediction by ZEFSAII (Michael W. Deem and Ramdas Pophale) SiO2 
 PCOD9486813
Probable space group: C M M M
;
_chemical_formula_sum "Si O2"
_cell_formula_units_Z 88
_cell_length_a 30.032478
_cell_length_b 8.176026
_cell_length_c 19.702796
_cell_angle_alpha 90.000000
_cell_angle_beta 90.000000
_cell_angle_gamma 90.000000
_cell_volume 4837.949071
_symmetry_space_group_name_H-M "C M M M"
_symmetry_group_IT_number 65
_symmetry_cell_setting 'orthorhombic'
loop_
_space_group_symop_operation_xyz
x,y,z
-x,-y,z
x,-y,-z
-x,y,-z
-x,-y,-z
x,y,-z
-x,y,z
x,-y,z
1/2+x,1/2+y,z
1/2-x,1/2-y,z
1/2+x,1/2-y,-z
1/2-x,1/2+y,-z
1/2-x,1/2-y,-z
1/2+x,1/2+y,-z
1/2-x,1/2+y,z
1/2+x,1/2-y,z
loop_
_atom_site_type_symbol
_atom_site_label
_atom_site_fract_x
_atom_site_fract_y
_atom_site_fract_z
Si Si1 0.687023 0.809446 0.000000
Si Si2 0.369745 0.186022 0.763306
Si Si3 0.051246 0.301786 0.855269
Si Si4 0.801311 0.197118 0.500000
Si Si5 0.698436 0.694743 0.648971
Si Si6 0.703046 0.689083 0.145975
Si Si7 0.411467 0.307669 0.000000
O O1 0.703276 0.714770 0.065997
O O2 0.633636 0.796345 0.000000
O O3 0.700499 0.000000 0.000000
O O4 0.415071 0.257732 0.795884
O O5 0.339183 0.260580 0.703846
O O6 0.336052 0.198310 0.826531
O O7 0.379055 0.000000 0.743684
O O8 0.056117 0.500000 0.859229
O O9 0.000000 0.263737 0.839715
O O10 0.063222 0.232494 0.929809
O O11 0.750000 0.250000 0.500000
O O12 0.817119 0.255857 0.425957
O O13 0.805365 0.000000 0.500000
O O14 0.701137 0.500000 0.647008
O O15 0.750000 0.750000 0.661819
O O16 0.695264 0.500000 0.163634
O O17 0.750000 0.750000 0.174379
O O18 0.399987 0.500000 0.000000
#
# Coordination Sequence:
#
# PCOD9486813 Si02
#       7
#     8  16  16   8  16  16   8
#     4  12  23  38  55  73  99 134 173 216 262 312
#     4  11  22  36  54  77 106 138 174 215 263 315
#     4  10  22  40  60  78 101 136 175 219 275 331
#     4   8  16  30  50  76 107 144 179 215 252 297
#     4  10  19  33  53  79 112 146 181 215 255 303
#     4  12  24  38  54  74 101 136 176 216 259 309
#     4  12  23  36  57  82 104 131 170 222 276 326
#
# _framework density 18.189526000000001
#
# number of rings (size 3 to 8) (size 9 to 14) (size 15 to 20)
#    0.000    1.273    1.818    5.455    0.000    2.909 
#    0.000    0.000    0.000    0.000    0.000    0.636 
#    0.000    5.091    0.000    0.000    0.000    0.000 
#
# Total GULP energy -245406.481870 kJ/mol
# GULP energy per Si atom -5577.420042 kJ/mol
# Density = 1.814813 g / cm^3
# Si number density = 18.189526 Si / 1000 Ang^3
#
#
#
# Elastic Constant Matrix: (Units=GPa)
#
#
# Indices 1 2 3 4 5 6 
#
# 1 121.1954 9.2444 49.3408 0.0000 0.0000 0.0000
# 2 9.2444 49.7181 10.0948 0.0000 0.0000 0.0000
# 3 49.3408 10.0948 137.9178 0.0000 0.0000 0.0000
# 4 0.0000 0.0000 0.0000 -27.8321 0.0000 0.0000
# 5 0.0000 0.0000 0.0000 0.0000 11.0407 0.0000
# 6 0.0000 0.0000 0.0000 0.0000 0.0000 15.4575
#
#
#
# Elastic Compliance Matrix: (Units=1/GPa)
#
#
# Indices 1 2 3 4 5 6 
#
# 1 0.009719 -0.001118 -0.003395 0.000000 0.000000 0.000000
# 2 -0.001118 0.020545 -0.001104 0.000000 0.000000 0.000000
# 3 -0.003395 -0.001104 0.008546 0.000000 0.000000 0.000000
# 4 0.000000 0.000000 0.000000 -0.035930 0.000000 0.000000
# 5 0.000000 0.000000 0.000000 0.000000 0.090574 0.000000
# 6 0.000000 0.000000 0.000000 0.000000 0.000000 0.064693
#
#
# Mechanical properties :
#
#
# Convention : Reuss Voigt Hill
#
# Bulk Modulus (GPa) = 36.26260 49.57682 42.91971
# Shear Modulus (GPa) = 27.99965 15.74331 21.87148
#
# Velocity S-wave (km/s) = 3.92768 2.94516 3.47136
# Velocity P-wave (km/s) = 6.36775 6.23539 6.30192
#
# Compressibility (1/GPa) = 0.02757662
#
# Stress axis : x y z
#
# Youngs Moduli (GPa) = 102.89567 48.67281 117.01246
#
# Poissons Ratio (x) = 0.05440 0.39726
# Poissons Ratio (y) = 0.11501 0.12917
# Poissons Ratio (z) = 0.34934 0.05373
#
# Static dielectric constant tensor:
#      x y z
#    x 1.631010 0.000000 0.000000 
#    y 0.000000 1.643330 0.000000 
#    z 0.000000 0.000000 1.683630 
# 
# From -- ./inp_files/66284.got.cif
#   From: 2010.05.17/outbox.cif.g08.bks.cpg/sg65_34_cif.got.tgz:66284.got - 2010.06.03 17:01:31.
