data_PCOD9486791
_publ_section_title
;
Structure prediction by ZEFSAII (Michael W. Deem and Ramdas Pophale) SiO2 
 PCOD9486791
Probable space group: C M M M
;
_chemical_formula_sum "Si O2"
_cell_formula_units_Z 96
_cell_length_a 19.306622
_cell_length_b 21.364333
_cell_length_c 13.937437
_cell_angle_alpha 90.000000
_cell_angle_beta 90.000000
_cell_angle_gamma 90.000000
_cell_volume 5748.817867
_symmetry_space_group_name_H-M "C M M M"
_symmetry_group_IT_number 65
_symmetry_cell_setting 'orthorhombic'
loop_
_space_group_symop_operation_xyz
x,y,z
-x,-y,z
x,-y,-z
-x,y,-z
-x,-y,-z
x,y,-z
-x,y,z
x,-y,z
1/2+x,1/2+y,z
1/2-x,1/2-y,z
1/2+x,1/2-y,-z
1/2-x,1/2+y,-z
1/2-x,1/2-y,-z
1/2+x,1/2+y,-z
1/2-x,1/2+y,z
1/2+x,1/2-y,z
loop_
_atom_site_type_symbol
_atom_site_label
_atom_site_fract_x
_atom_site_fract_y
_atom_site_fract_z
Si Si1 0.212291 0.312954 0.113550
Si Si2 0.287608 0.429278 0.793034
Si Si3 0.420637 0.761699 0.804892
Si Si4 0.418772 0.621566 0.885899
Si Si5 0.801395 0.572361 0.389095
Si Si6 0.419354 0.175653 0.610794
O O1 0.250000 0.250000 0.152286
O O2 0.247699 0.375394 0.150290
O O3 0.133308 0.307492 0.145452
O O4 0.217505 0.311352 0.000000
O O5 0.267137 0.500000 0.819424
O O6 0.367473 0.419929 0.822230
O O7 0.262825 0.419479 0.683340
O O8 0.500000 0.778196 0.825886
O O9 0.409364 0.692448 0.847108
O O10 0.410132 0.770364 0.690510
O O11 0.500000 0.605443 0.876325
O O12 0.401381 0.618820 0.000000
O O13 0.781007 0.581582 0.500000
O O14 0.825159 0.500000 0.378905
O O15 0.864035 0.620587 0.368702
O O16 0.409077 0.195689 0.500000
O O17 0.500000 0.154378 0.618636
#
# Coordination Sequence:
#
# PCOD9486791 Si02
#       6
#    16  16  16  16  16  16
#     4  11  21  34  54  78 105 141 183 222 261 320
#     4  11  22  36  55  80 110 140 172 223 279 317
#     4  10  19  33  53  77 107 141 176 218 264 313
#     4  10  21  37  57  79 103 138 183 224 266 320
#     4   9  18  33  52  74 102 139 181 218 258 317
#     4   9  17  30  50  77 107 138 175 222 271 311
#
# _framework density 16.699085
#
# number of rings (size 3 to 8) (size 9 to 14) (size 15 to 20)
#    0.000    2.000    3.333    1.000    0.000    3.000 
#    0.000    3.333    0.000    5.000    0.000    3.500 
#    0.000    0.000    0.000    0.000    0.000    0.000 
#
# Total GULP energy -267368.810647 kJ/mol
# GULP energy per Si atom -5570.183555 kJ/mol
# Density = 1.666108 g / cm^3
# Si number density = 16.699085 Si / 1000 Ang^3
#
#
#
# Elastic Constant Matrix: (Units=GPa)
#
#
# Indices 1 2 3 4 5 6 
#
# 1 71.0694 42.2025 36.5597 0.0000 0.0000 0.0000
# 2 42.2025 63.8898 42.5868 0.0000 0.0000 0.0000
# 3 36.5597 42.5868 80.4711 0.0000 0.0000 0.0000
# 4 0.0000 0.0000 0.0000 25.2551 0.0000 0.0000
# 5 0.0000 0.0000 0.0000 0.0000 29.7603 0.0000
# 6 0.0000 0.0000 0.0000 0.0000 0.0000 25.0584
#
#
#
# Elastic Compliance Matrix: (Units=1/GPa)
#
#
# Indices 1 2 3 4 5 6 
#
# 1 0.023907 -0.013213 -0.003869 0.000000 0.000000 0.000000
# 2 -0.013213 0.031485 -0.010660 0.000000 0.000000 0.000000
# 3 -0.003869 -0.010660 0.019826 0.000000 0.000000 0.000000
# 4 0.000000 0.000000 0.000000 0.039596 0.000000 0.000000
# 5 0.000000 0.000000 0.000000 0.000000 0.033602 0.000000
# 6 0.000000 0.000000 0.000000 0.000000 0.000000 0.039907
#
#
# Mechanical properties :
#
#
# Convention : Reuss Voigt Hill
#
# Bulk Modulus (GPa) = 50.67126 50.90315 50.78720
# Shear Modulus (GPa) = 19.96932 22.28684 21.12808
#
# Velocity S-wave (km/s) = 3.46183 3.65720 3.56086
# Velocity P-wave (km/s) = 6.81092 6.95574 6.88371
#
# Compressibility (1/GPa) = 0.01973505
#
# Stress axis : x y z
#
# Youngs Moduli (GPa) = 41.82847 31.76107 50.43931
#
# Poissons Ratio (x) = 0.41966 0.19515
# Poissons Ratio (y) = 0.55268 0.53766
# Poissons Ratio (z) = 0.16183 0.33856
#
# Static dielectric constant tensor:
#      x y z
#    x 1.582830 0.000000 0.000000 
#    y 0.000000 1.557110 0.000000 
#    z 0.000000 0.000000 1.572040 
# 
# From -- ./inp_files/29021.got.cif
#   From: 2010.05.17/outbox.cif.g08.bks.cpg/sg65_15_cif.got.tgz:29021.got - 2010.06.03 17:01:31.
