data_PCOD9486457
_publ_section_title
;
Structure prediction by ZEFSAII (Michael W. Deem and Ramdas Pophale) SiO2 
 PCOD9486457
Probable space group: C M M M
;
_chemical_formula_sum "Si O2"
_cell_formula_units_Z 96
_cell_length_a 23.412903
_cell_length_b 13.627514
_cell_length_c 12.049517
_cell_angle_alpha 90.000000
_cell_angle_beta 90.000000
_cell_angle_gamma 90.000000
_cell_volume 3844.514838
_symmetry_space_group_name_H-M "C M M M"
_symmetry_group_IT_number 65
_symmetry_cell_setting 'orthorhombic'
loop_
_space_group_symop_operation_xyz
x,y,z
-x,-y,z
x,-y,-z
-x,y,-z
-x,-y,-z
x,y,-z
-x,y,z
x,-y,z
1/2+x,1/2+y,z
1/2-x,1/2-y,z
1/2+x,1/2-y,-z
1/2-x,1/2+y,-z
1/2-x,1/2-y,-z
1/2+x,1/2+y,-z
1/2-x,1/2+y,z
1/2+x,1/2-y,z
loop_
_atom_site_type_symbol
_atom_site_label
_atom_site_fract_x
_atom_site_fract_y
_atom_site_fract_z
Si Si1 0.637241 0.886121 0.329401
Si Si2 0.562891 0.613989 0.847841
Si Si3 0.934909 0.200845 0.386670
Si Si4 0.936623 0.617026 0.876207
Si Si5 0.272001 0.615211 0.627617
Si Si6 0.689255 0.620009 0.877531
O O1 0.603770 0.796830 0.383768
O O2 0.617413 0.867227 0.202337
O O3 0.703434 0.878650 0.358761
O O4 0.620085 0.000000 0.355394
O O5 0.500000 0.652389 0.879570
O O6 0.561928 0.500000 0.874812
O O7 0.569447 0.630764 0.717094
O O8 0.623299 0.651844 0.888408
O O9 0.923397 0.144694 0.500000
O O10 0.000000 0.236006 0.386878
O O11 0.939207 0.500000 0.885549
O O12 0.000000 0.645097 0.830505
O O13 0.931107 0.657302 0.000000
O O14 0.286049 0.652418 0.500000
O O15 0.288014 0.500000 0.625873
O O16 0.292913 0.653149 0.750900
O O17 0.693088 0.500000 0.873019
O O18 0.716361 0.646094 0.000000
#
# Coordination Sequence:
#
# PCOD9486457 Si02
#       6
#    16  16  16  16  16  16
#     4  10  19  32  52  77 110 154 199 239 280 328
#     4   9  19  37  60  84 110 141 177 223 286 354
#     4  10  21  35  52  79 113 146 187 239 287 336
#     4   8  14  25  42  66  97 136 185 237 284 329
#     4   9  18  32  51  78 114 156 197 233 275 335
#     4   9  18  34  59  90 118 144 182 236 293 345
#
# _framework density 24.97064
#
# number of rings (size 3 to 8) (size 9 to 14) (size 15 to 20)
#    0.000    2.833    0.000    1.500    0.000    4.000 
#    0.000   10.833    0.000    4.000    0.000    0.000 
#    0.000    0.000    0.000    0.000    0.000    0.000 
#
# Total GULP energy -267272.772760 kJ/mol
# GULP energy per Si atom -5568.182766 kJ/mol
# Density = 2.491381 g / cm^3
# Si number density = 24.970640 Si / 1000 Ang^3
#
#
#
# Elastic Constant Matrix: (Units=GPa)
#
#
# Indices 1 2 3 4 5 6 
#
# 1 89.9781 6.6360 43.0037 0.0000 0.0000 0.0000
# 2 6.6360 87.8126 16.0379 0.0000 0.0000 0.0000
# 3 43.0037 16.0379 260.4747 0.0000 0.0000 0.0000
# 4 0.0000 0.0000 0.0000 1.0671 0.0000 0.0000
# 5 0.0000 0.0000 0.0000 0.0000 16.8405 0.0000
# 6 0.0000 0.0000 0.0000 0.0000 0.0000 2.8170
#
#
#
# Elastic Compliance Matrix: (Units=1/GPa)
#
#
# Indices 1 2 3 4 5 6 
#
# 1 0.012093 -0.000555 -0.001962 0.000000 0.000000 0.000000
# 2 -0.000555 0.011543 -0.000619 0.000000 0.000000 0.000000
# 3 -0.001962 -0.000619 0.004201 0.000000 0.000000 0.000000
# 4 0.000000 0.000000 0.000000 0.937076 0.000000 0.000000
# 5 0.000000 0.000000 0.000000 0.000000 0.059381 0.000000
# 6 0.000000 0.000000 0.000000 0.000000 0.000000 0.354990
#
#
# Mechanical properties :
#
#
# Convention : Reuss Voigt Hill
#
# Bulk Modulus (GPa) = 46.37514 63.29120 54.83317
# Shear Modulus (GPa) = 3.59003 28.98411 16.28707
#
# Velocity S-wave (km/s) = 1.20034 3.41064 2.55669
# Velocity P-wave (km/s) = 4.53137 6.39619 5.54277
#
# Compressibility (1/GPa) = 0.02156328
#
# Stress axis : x y z
#
# Youngs Moduli (GPa) = 82.69514 86.63323 238.02594
#
# Poissons Ratio (x) = 0.04812 0.46707
# Poissons Ratio (y) = 0.04593 0.14734
# Poissons Ratio (z) = 0.16227 0.05363
#
# Static dielectric constant tensor:
#      x y z
#    x 1.953740 0.000000 0.000000 
#    y 0.000000 1.950410 0.000000 
#    z 0.000000 0.000000 2.049950 
# 
# From -- ./inp_files/30774.got.cif
#   From: 2010.05.17/outbox.cif.g08.bks.cpg/sg65_16_cif.got.tgz:30774.got - 2010.06.03 17:01:31.
