data_PCOD9486369
_publ_section_title
;
Structure prediction by ZEFSAII (Michael W. Deem and Ramdas Pophale) SiO2 
 PCOD9486369
Probable space group: C M M M
;
_chemical_formula_sum "Si O2"
_cell_formula_units_Z 96
_cell_length_a 29.853879
_cell_length_b 13.525062
_cell_length_c 13.084762
_cell_angle_alpha 90.000000
_cell_angle_beta 90.000000
_cell_angle_gamma 90.000000
_cell_volume 5283.307162
_symmetry_space_group_name_H-M "C M M M"
_symmetry_group_IT_number 65
_symmetry_cell_setting 'orthorhombic'
loop_
_space_group_symop_operation_xyz
x,y,z
-x,-y,z
x,-y,-z
-x,y,-z
-x,-y,-z
x,y,-z
-x,y,z
x,-y,z
1/2+x,1/2+y,z
1/2-x,1/2-y,z
1/2+x,1/2-y,-z
1/2-x,1/2+y,-z
1/2-x,1/2-y,-z
1/2+x,1/2+y,-z
1/2-x,1/2+y,z
1/2+x,1/2-y,z
loop_
_atom_site_type_symbol
_atom_site_label
_atom_site_fract_x
_atom_site_fract_y
_atom_site_fract_z
Si Si1 0.682624 0.762647 0.793810
Si Si2 0.671677 0.388409 0.620579
Si Si3 0.929934 0.888293 0.700039
Si Si4 0.500000 0.764513 0.384327
Si Si5 0.000000 0.382408 0.818880
Si Si6 0.246020 0.888526 0.884786
Si Si7 0.085077 0.252265 0.879694
O O1 0.688657 0.703595 0.687693
O O2 0.715259 0.855385 0.807155
O O3 0.703991 0.683489 0.872523
O O4 0.631723 0.784835 0.825442
O O5 0.676911 0.373003 0.500000
O O6 0.689380 0.500000 0.644546
O O7 0.619439 0.390939 0.652131
O O8 0.958408 0.808151 0.638244
O O9 0.927988 0.846058 0.815594
O O10 0.947622 0.000000 0.696316
O O11 0.500000 0.799787 0.500000
O O12 0.500000 0.851030 0.300676
O O13 0.044593 0.330292 0.864422
O O14 0.000000 0.500000 0.833889
O O15 0.231652 0.000000 0.868511
O O16 0.264153 0.879980 0.000000
O O17 0.091864 0.235788 0.000000
#
# Coordination Sequence:
#
# PCOD9486369 Si02
#       7
#    16  16  16   8   8  16  16
#     4  10  19  34  54  77 105 134 173 220 260 306
#     4   9  17  30  49  73 102 138 176 212 255 306
#     4   9  18  30  46  73 105 134 168 211 258 309
#     4  10  19  32  52  74  96 128 171 218 266 308
#     4  10  23  40  54  74 106 140 177 218 254 296
#     4  10  20  34  53  78 107 136 168 213 268 318
#     4  10  20  34  53  77 105 140 179 213 251 302
#
# _framework density 18.170437
#
# number of rings (size 3 to 8) (size 9 to 14) (size 15 to 20)
#    0.000    2.333    0.000    3.500    0.000    3.833 
#    0.000    1.667    0.000    4.500    0.000    0.000 
#    0.000    0.000    0.000    0.000    0.000    0.000 
#
# Total GULP energy -267419.348245 kJ/mol
# GULP energy per Si atom -5571.236422 kJ/mol
# Density = 1.812908 g / cm^3
# Si number density = 18.170437 Si / 1000 Ang^3
#
#
#
# Elastic Constant Matrix: (Units=GPa)
#
#
# Indices 1 2 3 4 5 6 
#
# 1 64.9525 10.6489 0.2231 0.0000 0.0000 0.0000
# 2 10.6489 42.2032 2.4768 0.0000 0.0000 0.0000
# 3 0.2231 2.4768 117.1687 0.0000 0.0000 0.0000
# 4 0.0000 0.0000 0.0000 18.9589 0.0000 0.0000
# 5 0.0000 0.0000 0.0000 0.0000 14.9242 0.0000
# 6 0.0000 0.0000 0.0000 0.0000 0.0000 8.5828
#
#
#
# Elastic Compliance Matrix: (Units=1/GPa)
#
#
# Indices 1 2 3 4 5 6 
#
# 1 0.016061 -0.004056 0.000055 0.000000 0.000000 0.000000
# 2 -0.004056 0.024749 -0.000515 0.000000 0.000000 0.000000
# 3 0.000055 -0.000515 0.008545 0.000000 0.000000 0.000000
# 4 0.000000 0.000000 0.000000 0.052746 0.000000 0.000000
# 5 0.000000 0.000000 0.000000 0.000000 0.067005 0.000000
# 6 0.000000 0.000000 0.000000 0.000000 0.000000 0.116513
#
#
# Mechanical properties :
#
#
# Convention : Reuss Voigt Hill
#
# Bulk Modulus (GPa) = 24.79999 27.89135 26.34567
# Shear Modulus (GPa) = 16.22897 22.55821 19.39359
#
# Velocity S-wave (km/s) = 2.99181 3.52728 3.27052
# Velocity P-wave (km/s) = 5.06090 5.65439 5.36586
#
# Compressibility (1/GPa) = 0.04032259
#
# Stress axis : x y z
#
# Youngs Moduli (GPa) = 62.26419 40.40648 117.02075
#
# Poissons Ratio (x) = 0.16388 -0.00645
# Poissons Ratio (y) = 0.25253 0.06032
# Poissons Ratio (z) = -0.00343 0.02083
#
# Static dielectric constant tensor:
#      x y z
#    x 1.640050 0.000000 0.000000 
#    y 0.000000 1.609800 0.000000 
#    z 0.000000 0.000000 1.635400 
# 
# From -- ./inp_files/33925.got.cif
#   From: 2010.05.17/outbox.cif.g08.bks.cpg/sg65_17_cif.got.tgz:33925.got - 2010.06.03 17:01:31.
