data_PCOD9486321
_publ_section_title
;
Structure prediction by ZEFSAII (Michael W. Deem and Ramdas Pophale) SiO2 
 PCOD9486321
Probable space group: C M M M
;
_chemical_formula_sum "Si O2"
_cell_formula_units_Z 104
_cell_length_a 18.156189
_cell_length_b 15.511369
_cell_length_c 18.587416
_cell_angle_alpha 90.000000
_cell_angle_beta 90.000000
_cell_angle_gamma 90.000000
_cell_volume 5234.724660
_symmetry_space_group_name_H-M "C M M M"
_symmetry_group_IT_number 65
_symmetry_cell_setting 'orthorhombic'
loop_
_space_group_symop_operation_xyz
x,y,z
-x,-y,z
x,-y,-z
-x,y,-z
-x,-y,-z
x,y,-z
-x,y,z
x,-y,z
1/2+x,1/2+y,z
1/2-x,1/2-y,z
1/2+x,1/2-y,-z
1/2-x,1/2+y,-z
1/2-x,1/2-y,-z
1/2+x,1/2+y,-z
1/2-x,1/2+y,z
1/2+x,1/2-y,z
loop_
_atom_site_type_symbol
_atom_site_label
_atom_site_fract_x
_atom_site_fract_y
_atom_site_fract_z
Si Si1 0.192871 0.904165 0.704214
Si Si2 0.919591 0.780368 0.912783
Si Si3 0.703827 0.160466 0.581936
Si Si4 0.912170 0.904233 0.500000
Si Si5 0.287376 0.597707 0.867454
Si Si6 0.623263 0.904697 0.084204
Si Si7 0.412611 0.719005 0.364805
O O1 0.252769 0.894496 0.640955
O O2 0.229158 0.896594 0.782408
O O3 0.132665 0.828117 0.698008
O O4 0.158506 0.000000 0.698782
O O5 0.850962 0.835922 0.886762
O O6 0.913179 0.681608 0.885936
O O7 0.000000 0.815458 0.891807
O O8 0.916241 0.778705 0.000000
O O9 0.700774 0.126596 0.500000
O O10 0.750000 0.250000 0.579095
O O11 0.624607 0.191329 0.611707
O O12 0.895890 0.847452 0.569446
O O13 0.000000 0.913815 0.500000
O O14 0.878765 0.000000 0.500000
O O15 0.313298 0.500000 0.882560
O O16 0.211048 0.609894 0.909000
O O17 0.606740 0.000000 0.115371
O O18 0.603422 0.908587 0.000000
O O19 0.500000 0.724225 0.353996
#
# Coordination Sequence:
#
# PCOD9486321 Si02
#       7
#    16  16  16   8  16  16  16
#     4  10  22  36  52  76 105 139 177 219 267 316
#     4  10  21  35  54  83 115 145 178 219 271 328
#     4   9  18  33  51  73 102 133 168 211 262 317
#     4   9  16  26  43  68  97 127 157 197 250 305
#     4  10  21  37  54  75 107 146 188 229 268 318
#     4   9  18  34  58  83 106 139 183 229 272 315
#     4  10  19  32  51  76 103 132 168 212 262 319
#
# _framework density 19.867329000000002
#
# number of rings (size 3 to 8) (size 9 to 14) (size 15 to 20)
#    0.000    2.385    0.769    1.385    1.077    8.308 
#    0.000    3.846    0.000    0.462    0.000    3.231 
#    0.000    0.000    0.000    0.000    0.000    0.000 
#
# Total GULP energy -289928.538144 kJ/mol
# GULP energy per Si atom -5575.548810 kJ/mol
# Density = 1.982211 g / cm^3
# Si number density = 19.867329 Si / 1000 Ang^3
#
#
#
# Elastic Constant Matrix: (Units=GPa)
#
#
# Indices 1 2 3 4 5 6 
#
# 1 73.1449 29.8703 5.8519 0.0000 0.0000 0.0000
# 2 29.8703 57.9474 9.4314 0.0000 0.0000 0.0000
# 3 5.8519 9.4314 32.7673 0.0000 0.0000 0.0000
# 4 0.0000 0.0000 0.0000 29.3722 0.0000 0.0000
# 5 0.0000 0.0000 0.0000 0.0000 3.1615 0.0000
# 6 0.0000 0.0000 0.0000 0.0000 0.0000 10.3470
#
#
#
# Elastic Compliance Matrix: (Units=1/GPa)
#
#
# Indices 1 2 3 4 5 6 
#
# 1 0.017326 -0.008842 -0.000549 0.000000 0.000000 0.000000
# 2 -0.008842 0.022617 -0.004931 0.000000 0.000000 0.000000
# 3 -0.000549 -0.004931 0.032036 0.000000 0.000000 0.000000
# 4 0.000000 0.000000 0.000000 0.034046 0.000000 0.000000
# 5 0.000000 0.000000 0.000000 0.000000 0.316306 0.000000
# 6 0.000000 0.000000 0.000000 0.000000 0.000000 0.096646
#
#
# Mechanical properties :
#
#
# Convention : Reuss Voigt Hill
#
# Bulk Modulus (GPa) = 23.07601 28.24076 25.65838
# Shear Modulus (GPa) = 8.89575 16.48986 12.69281
#
# Velocity S-wave (km/s) = 2.11832 2.88410 2.53035
# Velocity P-wave (km/s) = 4.19802 5.03351 4.63463
#
# Compressibility (1/GPa) = 0.04333505
#
# Stress axis : x y z
#
# Youngs Moduli (GPa) = 57.71614 44.21404 31.21524
#
# Poissons Ratio (x) = 0.39093 0.01715
# Poissons Ratio (y) = 0.51031 0.15392
# Poissons Ratio (z) = 0.03171 0.21801
#
# Static dielectric constant tensor:
#      x y z
#    x 1.694540 0.000000 0.000000 
#    y 0.000000 1.729780 0.000000 
#    z 0.000000 0.000000 1.732910 
# 
# From -- ./inp_files/63807.got.cif
#   From: 2010.05.17/outbox.cif.g08.bks.cpg/sg65_32_cif.got.tgz:63807.got - 2010.06.03 17:01:31.
