data_PCOD9486438
_publ_section_title
;
Structure prediction by ZEFSAII (Michael W. Deem and Ramdas Pophale) SiO2 
 PCOD9486438
Probable space group: C M M M
;
_chemical_formula_sum "Si O2"
_cell_formula_units_Z 72
_cell_length_a 22.808182
_cell_length_b 20.049947
_cell_length_c 7.606412
_cell_angle_alpha 90.000000
_cell_angle_beta 90.000000
_cell_angle_gamma 90.000000
_cell_volume 3478.433812
_symmetry_space_group_name_H-M "C M M M"
_symmetry_group_IT_number 65
_symmetry_cell_setting 'orthorhombic'
loop_
_space_group_symop_operation_xyz
x,y,z
-x,-y,z
x,-y,-z
-x,y,-z
-x,-y,-z
x,y,-z
-x,y,z
x,-y,z
1/2+x,1/2+y,z
1/2-x,1/2-y,z
1/2+x,1/2-y,-z
1/2-x,1/2+y,-z
1/2-x,1/2-y,-z
1/2+x,1/2+y,-z
1/2-x,1/2+y,z
1/2+x,1/2-y,z
loop_
_atom_site_type_symbol
_atom_site_label
_atom_site_fract_x
_atom_site_fract_y
_atom_site_fract_z
Si Si1 0.000000 0.577081 0.284777
Si Si2 0.433398 0.699377 0.211366
Si Si3 0.359853 0.575070 0.209187
Si Si4 0.114513 0.342507 0.710893
Si Si5 0.725687 0.076282 0.712362
O O1 0.058191 0.615697 0.224997
O O2 0.000000 0.500000 0.231197
O O3 0.000000 0.577992 0.500000
O O4 0.500000 0.707312 0.277713
O O5 0.402094 0.632599 0.279697
O O6 0.396162 0.765281 0.250433
O O7 0.436440 0.694130 0.000000
O O8 0.368360 0.500000 0.281207
O O9 0.291799 0.593780 0.235052
O O10 0.369960 0.571289 0.000000
O O11 0.115152 0.349719 0.500000
O O12 0.175133 0.374232 0.776730
O O13 0.724368 0.076122 0.500000
O O14 0.714048 0.000000 0.770763
#
# Coordination Sequence:
#
# PCOD9486438 Si02
#       5
#     8  16  16  16  16
#     4   9  16  28  49  75 100 131 172 210 241 283
#     4  10  21  36  53  74 103 135 168 213 261 303
#     4   9  19  36  56  76  98 130 172 213 257 308
#     4  10  19  32  52  77 104 136 171 207 249 301
#     4   9  18  33  53  78 106 134 168 211 254 296
#
# _framework density 20.698972000000001
#
# number of rings (size 3 to 8) (size 9 to 14) (size 15 to 20)
#    0.000    2.556    1.111    0.667    0.000    5.778 
#    0.000    6.667    0.000    2.667    0.000    4.667 
#    0.000    0.000    0.000    0.000    0.000    0.000 
#
# Total GULP energy -200972.411971 kJ/mol
# GULP energy per Si atom -5582.566999 kJ/mol
# Density = 2.065186 g / cm^3
# Si number density = 20.698972 Si / 1000 Ang^3
#
#
#
# Elastic Constant Matrix: (Units=GPa)
#
#
# Indices 1 2 3 4 5 6 
#
# 1 63.3843 62.4173 -5.8199 0.0000 0.0000 0.0000
# 2 62.4173 127.5254 -3.5231 0.0000 0.0000 0.0000
# 3 -5.8199 -3.5231 42.0522 0.0000 0.0000 0.0000
# 4 0.0000 0.0000 0.0000 20.4915 0.0000 0.0000
# 5 0.0000 0.0000 0.0000 0.0000 19.4414 0.0000
# 6 0.0000 0.0000 0.0000 0.0000 0.0000 41.3166
#
#
#
# Elastic Compliance Matrix: (Units=1/GPa)
#
#
# Indices 1 2 3 4 5 6 
#
# 1 0.030832 -0.015007 0.003010 0.000000 0.000000 0.000000
# 2 -0.015007 0.015165 -0.000806 0.000000 0.000000 0.000000
# 3 0.003010 -0.000806 0.024129 0.000000 0.000000 0.000000
# 4 0.000000 0.000000 0.000000 0.048801 0.000000 0.000000
# 5 0.000000 0.000000 0.000000 0.000000 0.051437 0.000000
# 6 0.000000 0.000000 0.000000 0.000000 0.000000 0.024203
#
#
# Mechanical properties :
#
#
# Convention : Reuss Voigt Hill
#
# Bulk Modulus (GPa) = 22.46340 37.67891 30.07115
# Shear Modulus (GPa) = 21.27543 28.24241 24.75892
#
# Velocity S-wave (km/s) = 3.20949 3.69783 3.46228
# Velocity P-wave (km/s) = 4.96089 6.03943 5.52653
#
# Compressibility (1/GPa) = 0.04451686
#
# Stress axis : x y z
#
# Youngs Moduli (GPa) = 32.43435 65.94292 41.44401
#
# Poissons Ratio (x) = 0.98963 -0.12473
# Poissons Ratio (y) = 0.48675 0.03342
# Poissons Ratio (z) = -0.09762 0.05318
#
# Static dielectric constant tensor:
#      x y z
#    x 1.716530 0.000000 0.000000 
#    y 0.000000 1.720120 0.000000 
#    z 0.000000 0.000000 1.791200 
# 
# From -- ./inp_files/9212.got.cif
#   From: 2010.05.17/outbox.cif.g08.bks.cpg/sg65_5_cif.got.tgz:9212.got - 2010.06.03 17:01:31.
