data_PCOD9486422
_publ_section_title
;
Structure prediction by ZEFSAII (Michael W. Deem and Ramdas Pophale) SiO2 
 PCOD9486422
Probable space group: C M M M
;
_chemical_formula_sum "Si O2"
_cell_formula_units_Z 72
_cell_length_a 15.969986
_cell_length_b 7.309304
_cell_length_c 26.626084
_cell_angle_alpha 90.000000
_cell_angle_beta 90.000000
_cell_angle_gamma 90.000000
_cell_volume 3108.049008
_symmetry_space_group_name_H-M "C M M M"
_symmetry_group_IT_number 65
_symmetry_cell_setting 'orthorhombic'
loop_
_space_group_symop_operation_xyz
x,y,z
-x,-y,z
x,-y,-z
-x,y,-z
-x,-y,-z
x,y,-z
-x,y,z
x,-y,z
1/2+x,1/2+y,z
1/2-x,1/2-y,z
1/2+x,1/2-y,-z
1/2-x,1/2+y,-z
1/2-x,1/2-y,-z
1/2+x,1/2+y,-z
1/2-x,1/2+y,z
1/2+x,1/2-y,z
loop_
_atom_site_type_symbol
_atom_site_label
_atom_site_fract_x
_atom_site_fract_y
_atom_site_fract_z
Si Si1 0.650622 0.781868 0.554055
Si Si2 0.843512 0.717467 0.876364
Si Si3 0.899521 0.289682 0.338317
Si Si4 0.098246 0.277002 0.230355
Si Si5 0.500000 0.776101 0.942266
O O1 0.617743 0.712605 0.500000
O O2 0.750000 0.750000 0.553490
O O3 0.620308 0.706976 0.607466
O O4 0.632950 0.000000 0.554232
O O5 0.855459 0.500000 0.873165
O O6 0.750000 0.750000 0.895164
O O7 0.854102 0.786635 0.819239
O O8 0.917368 0.784661 0.912273
O O9 0.868485 0.500000 0.340391
O O10 0.870015 0.211389 0.284872
O O11 0.000000 0.293822 0.334015
O O12 0.101054 0.500000 0.232519
O O13 0.000000 0.228802 0.224167
O O14 0.500000 0.000000 0.942412
O O15 0.500000 0.718148 0.000000
#
# Coordination Sequence:
#
# PCOD9486422 Si02
#       5
#    16  16  16  16   8
#     4   9  17  28  41  58  82 112 143 178 223 271
#     4  10  19  32  52  77 101 129 166 204 242 287
#     4   8  14  24  41  65  87 109 144 189 227 261
#     4   8  13  25  45  66  90 121 155 189 229 280
#     4   9  18  34  55  75  99 135 172 202 236 285
#
# _framework density 23.165656999999999
#
# number of rings (size 3 to 8) (size 9 to 14) (size 15 to 20)
#    0.000    3.222    1.111    1.333    0.000    1.778 
#    0.000    2.778    0.000    1.333    0.000    6.222 
#    0.000    0.000    0.000    0.000    0.000    0.000 
#
# Total GULP energy -200781.193531 kJ/mol
# GULP energy per Si atom -5577.255376 kJ/mol
# Density = 2.311293 g / cm^3
# Si number density = 23.165657 Si / 1000 Ang^3
#
#
#
# Elastic Constant Matrix: (Units=GPa)
#
#
# Indices 1 2 3 4 5 6 
#
# 1 94.2192 -5.7040 84.6354 0.0000 0.0000 0.0000
# 2 -5.7040 97.5987 14.9415 0.0000 0.0000 0.0000
# 3 84.6354 14.9415 245.8642 0.0000 0.0000 0.0000
# 4 0.0000 0.0000 0.0000 -22.7207 0.0000 0.0000
# 5 0.0000 0.0000 0.0000 0.0000 -40.1154 0.0000
# 6 0.0000 0.0000 0.0000 0.0000 0.0000 3.7052
#
#
#
# Elastic Compliance Matrix: (Units=1/GPa)
#
#
# Indices 1 2 3 4 5 6 
#
# 1 0.015657 0.001757 -0.005497 0.000000 0.000000 0.000000
# 2 0.001757 0.010539 -0.001245 0.000000 0.000000 0.000000
# 3 -0.005497 -0.001245 0.006035 0.000000 0.000000 0.000000
# 4 0.000000 0.000000 0.000000 -0.044013 0.000000 0.000000
# 5 0.000000 0.000000 0.000000 0.000000 -0.024928 0.000000
# 6 0.000000 0.000000 0.000000 0.000000 0.000000 0.269889
#
#
# Mechanical properties :
#
#
# Convention : Reuss Voigt Hill
#
# Bulk Modulus (GPa) = 44.92082 69.49198 57.20640
# Shear Modulus (GPa) = 19.95444 11.09444 15.52444
#
# Velocity S-wave (km/s) = 2.93811 2.19079 2.59153
# Velocity P-wave (km/s) = 5.56266 6.03841 5.80541
#
# Compressibility (1/GPa) = 0.02226139
#
# Stress axis : x y z
#
# Youngs Moduli (GPa) = 63.86773 94.88274 165.69797
#
# Poissons Ratio (x) = -0.16667 0.91077
# Poissons Ratio (y) = -0.11219 0.20632
# Poissons Ratio (z) = 0.35105 0.11814
#
# Static dielectric constant tensor:
#      x y z
#    x 1.820640 0.000000 0.000000 
#    y 0.000000 1.854670 0.000000 
#    z 0.000000 0.000000 1.905620 
# 
# From -- ./inp_files/74133.got.cif
#   From: 2010.05.17/outbox.cif.g08.bks.cpg/sg65_38_cif.got.tgz:74133.got - 2010.06.03 17:01:31.
