data_PCOD9486482
_publ_section_title
;
Structure prediction by ZEFSAII (Michael W. Deem and Ramdas Pophale) SiO2 
 PCOD9486482
Probable space group: C M M M
;
_chemical_formula_sum "Si O2"
_cell_formula_units_Z 88
_cell_length_a 24.437329
_cell_length_b 20.709889
_cell_length_c 8.735942
_cell_angle_alpha 90.000000
_cell_angle_beta 90.000000
_cell_angle_gamma 90.000000
_cell_volume 4421.211072
_symmetry_space_group_name_H-M "C M M M"
_symmetry_group_IT_number 65
_symmetry_cell_setting 'orthorhombic'
loop_
_space_group_symop_operation_xyz
x,y,z
-x,-y,z
x,-y,-z
-x,y,-z
-x,-y,-z
x,y,-z
-x,y,z
x,-y,z
1/2+x,1/2+y,z
1/2-x,1/2-y,z
1/2+x,1/2-y,-z
1/2-x,1/2+y,-z
1/2-x,1/2-y,-z
1/2+x,1/2+y,-z
1/2-x,1/2+y,z
1/2+x,1/2-y,z
loop_
_atom_site_type_symbol
_atom_site_label
_atom_site_fract_x
_atom_site_fract_y
_atom_site_fract_z
Si Si1 0.439147 0.258683 0.816838
Si Si2 0.359624 0.500000 0.670800
Si Si3 0.887554 0.361699 0.317877
Si Si4 0.650295 0.362579 0.815147
Si Si5 0.271244 0.000000 0.673267
Si Si6 0.936139 0.500000 0.313583
Si Si7 0.224742 0.362839 0.818702
O O1 0.500000 0.284642 0.788154
O O2 0.431665 0.190165 0.736311
O O3 0.392448 0.308409 0.765766
O O4 0.433036 0.249591 0.000000
O O5 0.383590 0.500000 0.500000
O O6 0.369663 0.567362 0.756822
O O7 0.293874 0.500000 0.656022
O O8 0.883607 0.364323 0.500000
O O9 0.905726 0.433747 0.264997
O O10 0.829731 0.333881 0.254667
O O11 0.713224 0.347359 0.765221
O O12 0.651886 0.365094 0.000000
O O13 0.283825 0.937062 0.769755
O O14 0.295325 0.000000 0.500000
O O15 0.936327 0.500000 0.500000
O O16 0.000000 0.500000 0.265183
O O17 0.222919 0.352899 0.000000
#
# Coordination Sequence:
#
# PCOD9486482 Si02
#       7
#    16   8  16  16   8   8  16
#     4  10  22  41  61  80 106 143 188 236 284 336
#     4   9  17  30  53  84 113 141 176 222 271 322
#     4  11  22  36  57  83 112 146 185 232 283 335
#     4   9  19  36  58  82 111 149 187 225 276 338
#     4   9  16  28  47  75 112 146 176 215 269 326
#     4   9  19  36  56  78 106 143 185 224 264 316
#     4  10  19  32  52  79 111 146 185 226 273 332
#
# _framework density 19.904048
#
# number of rings (size 3 to 8) (size 9 to 14) (size 15 to 20)
#    0.000    2.273    0.000    2.727    0.000    6.182 
#    0.000    5.455    0.000    6.000    0.000    0.000 
#    0.000    0.000    0.000    0.000    0.000    0.000 
#
# Total GULP energy -245286.522238 kJ/mol
# GULP energy per Si atom -5574.693687 kJ/mol
# Density = 1.985875 g / cm^3
# Si number density = 19.904048 Si / 1000 Ang^3
#
#
#
# Elastic Constant Matrix: (Units=GPa)
#
#
# Indices 1 2 3 4 5 6 
#
# 1 136.2060 57.9116 33.1660 0.0000 0.0000 0.0000
# 2 57.9116 88.0804 16.0649 0.0000 0.0000 0.0000
# 3 33.1660 16.0649 23.3097 0.0000 0.0000 0.0000
# 4 0.0000 0.0000 0.0000 18.5752 0.0000 0.0000
# 5 0.0000 0.0000 0.0000 0.0000 11.9440 0.0000
# 6 0.0000 0.0000 0.0000 0.0000 0.0000 31.8819
#
#
#
# Elastic Compliance Matrix: (Units=1/GPa)
#
#
# Indices 1 2 3 4 5 6 
#
# 1 0.013687 -0.006230 -0.015181 0.000000 0.000000 0.000000
# 2 -0.006230 0.015822 -0.002039 0.000000 0.000000 0.000000
# 3 -0.015181 -0.002039 0.065906 0.000000 0.000000 0.000000
# 4 0.000000 0.000000 0.000000 0.053835 0.000000 0.000000
# 5 0.000000 0.000000 0.000000 0.000000 0.083724 0.000000
# 6 0.000000 0.000000 0.000000 0.000000 0.000000 0.031366
#
#
# Mechanical properties :
#
#
# Convention : Reuss Voigt Hill
#
# Bulk Modulus (GPa) = 20.61265 51.32012 35.96638
# Shear Modulus (GPa) = 15.27123 21.84380 18.55752
#
# Velocity S-wave (km/s) = 2.77292 3.31638 3.05675
# Velocity P-wave (km/s) = 4.54209 6.36429 5.52878
#
# Compressibility (1/GPa) = 0.04851391
#
# Stress axis : x y z
#
# Youngs Moduli (GPa) = 73.05965 63.20463 15.17305
#
# Poissons Ratio (x) = 0.39379 0.23034
# Poissons Ratio (y) = 0.45519 0.03094
# Poissons Ratio (z) = 1.10913 0.12889
#
# Static dielectric constant tensor:
#      x y z
#    x 1.740660 0.000000 0.000000 
#    y 0.000000 1.658630 0.000000 
#    z 0.000000 0.000000 1.690180 
# 
# From -- ./inp_files/14033.got.cif
#   From: 2010.05.17/outbox.cif.g08.bks.cpg/sg65_8_cif.got.tgz:14033.got - 2010.06.03 17:01:31.
