data_PCOD9486800
_publ_section_title
;
Structure prediction by ZEFSAII (Michael W. Deem and Ramdas Pophale) SiO2 
 PCOD9486800
Probable space group: C M M M
;
_chemical_formula_sum "Si O2"
_cell_formula_units_Z 104
_cell_length_a 13.026013
_cell_length_b 19.777186
_cell_length_c 18.390816
_cell_angle_alpha 90.000000
_cell_angle_beta 90.000000
_cell_angle_gamma 90.000000
_cell_volume 4737.803065
_symmetry_space_group_name_H-M "C M M M"
_symmetry_group_IT_number 65
_symmetry_cell_setting 'orthorhombic'
loop_
_space_group_symop_operation_xyz
x,y,z
-x,-y,z
x,-y,-z
-x,y,-z
-x,-y,-z
x,y,-z
-x,y,z
x,-y,z
1/2+x,1/2+y,z
1/2-x,1/2-y,z
1/2+x,1/2-y,-z
1/2-x,1/2+y,-z
1/2-x,1/2-y,-z
1/2+x,1/2+y,-z
1/2-x,1/2+y,z
1/2+x,1/2-y,z
loop_
_atom_site_type_symbol
_atom_site_label
_atom_site_fract_x
_atom_site_fract_y
_atom_site_fract_z
Si Si1 0.374826 0.210252 0.582126
Si Si2 0.618533 0.133183 0.729563
Si Si3 0.117677 0.000000 0.585809
Si Si4 0.880598 0.857656 0.633338
Si Si5 0.826960 0.075591 0.772208
Si Si6 0.612973 0.203636 0.122535
Si Si7 0.326774 0.354203 0.918726
O O1 0.343539 0.190922 0.500000
O O2 0.500000 0.211616 0.581722
O O3 0.351916 0.161813 0.650474
O O4 0.342045 0.287304 0.601240
O O5 0.500000 0.109319 0.728022
O O6 0.704619 0.081427 0.757090
O O7 0.623492 0.192664 0.790413
O O8 0.167261 0.928686 0.607241
O O9 0.111701 0.000000 0.500000
O O10 0.000000 0.000000 0.614714
O O11 0.873505 0.866471 0.720123
O O12 0.000000 0.859778 0.610628
O O13 0.850722 0.093533 0.855081
O O14 0.862526 0.000000 0.753762
O O15 0.500000 0.179107 0.101811
O O16 0.624366 0.281535 0.100723
O O17 0.704895 0.162077 0.086496
O O18 0.354957 0.374588 0.000000
#
# Coordination Sequence:
#
# PCOD9486800 Si02
#       7
#    16  16   8  16  16  16  16
#     4   9  17  31  54  82 110 138 167 210 270 320
#     4   9  19  36  57  79 103 134 177 225 268 314
#     4   9  16  28  48  74 106 140 172 209 248 292
#     4  10  19  33  53  78 107 141 177 211 254 311
#     4  11  23  38  55  73 100 141 185 222 260 312
#     4   9  17  33  57  83 109 137 169 210 264 321
#     4  10  21  34  52  81 109 135 171 215 265 320
#
# _framework density 21.951101000000001
#
# number of rings (size 3 to 8) (size 9 to 14) (size 15 to 20)
#    0.000    2.385    0.769    2.308    0.000    7.385 
#    0.000    2.308    0.000    0.000    0.000    8.615 
#    0.000    0.000    0.000    0.000    0.000    0.000 
#
# Total GULP energy -290294.725244 kJ/mol
# GULP energy per Si atom -5582.590870 kJ/mol
# Density = 2.190114 g / cm^3
# Si number density = 21.951101 Si / 1000 Ang^3
#
#
#
# Elastic Constant Matrix: (Units=GPa)
#
#
# Indices 1 2 3 4 5 6 
#
# 1 48.6080 -1.1011 -1.6632 0.0000 0.0000 0.0000
# 2 -1.1011 70.2067 35.8160 0.0000 0.0000 0.0000
# 3 -1.6632 35.8160 158.2614 0.0000 0.0000 0.0000
# 4 0.0000 0.0000 0.0000 20.7614 0.0000 0.0000
# 5 0.0000 0.0000 0.0000 0.0000 19.0561 0.0000
# 6 0.0000 0.0000 0.0000 0.0000 0.0000 10.6552
#
#
#
# Elastic Compliance Matrix: (Units=1/GPa)
#
#
# Indices 1 2 3 4 5 6 
#
# 1 0.020584 0.000240 0.000162 0.000000 0.000000 0.000000
# 2 0.000240 0.016106 -0.003642 0.000000 0.000000 0.000000
# 3 0.000162 -0.003642 0.007145 0.000000 0.000000 0.000000
# 4 0.000000 0.000000 0.000000 0.048166 0.000000 0.000000
# 5 0.000000 0.000000 0.000000 0.000000 0.052477 0.000000
# 6 0.000000 0.000000 0.000000 0.000000 0.000000 0.093851
#
#
# Mechanical properties :
#
#
# Convention : Reuss Voigt Hill
#
# Bulk Modulus (GPa) = 26.77114 38.13105 32.45109
# Shear Modulus (GPa) = 19.43563 26.36283 22.89923
#
# Velocity S-wave (km/s) = 2.97880 3.46928 3.23335
# Velocity P-wave (km/s) = 4.90442 5.78415 5.36236
#
# Compressibility (1/GPa) = 0.03735366
#
# Stress axis : x y z
#
# Youngs Moduli (GPa) = 48.58206 62.09035 139.96484
#
# Poissons Ratio (x) = -0.01492 -0.02267
# Poissons Ratio (y) = -0.01167 0.50980
# Poissons Ratio (z) = -0.00787 0.22615
#
# Static dielectric constant tensor:
#      x y z
#    x 1.886840 0.000000 0.000000 
#    y 0.000000 1.763840 0.000000 
#    z 0.000000 0.000000 1.827500 
# 
# From -- ./inp_files/53322.got.cif
#   From: 2010.05.17/outbox.cif.g08.bks.cpg/sg65_27_cif.got.tgz:53322.got - 2010.06.03 17:01:31.
