data_PCOD9486003
_publ_section_title
;
Structure prediction by ZEFSAII (Michael W. Deem and Ramdas Pophale) SiO2 
 PCOD9486003
Probable space group: C M M M
;
_chemical_formula_sum "Si O2"
_cell_formula_units_Z 58
_cell_length_a 14.036622
_cell_length_b 14.756990
_cell_length_c 10.057966
_cell_angle_alpha 90.000000
_cell_angle_beta 90.000000
_cell_angle_gamma 90.000000
_cell_volume 2083.389883
_symmetry_space_group_name_H-M "C M M M"
_symmetry_group_IT_number 65
_symmetry_cell_setting 'orthorhombic'
loop_
_space_group_symop_operation_xyz
x,y,z
-x,-y,z
x,-y,-z
-x,y,-z
-x,-y,-z
x,y,-z
-x,y,z
x,-y,z
1/2+x,1/2+y,z
1/2-x,1/2-y,z
1/2+x,1/2-y,-z
1/2-x,1/2+y,-z
1/2-x,1/2-y,-z
1/2+x,1/2+y,-z
1/2-x,1/2+y,z
1/2+x,1/2-y,z
loop_
_atom_site_type_symbol
_atom_site_label
_atom_site_fract_x
_atom_site_fract_y
_atom_site_fract_z
Si Si1 0.108644 0.500000 0.658179
Si Si2 0.500000 0.000000 0.000000
Si Si3 0.890606 0.296232 0.705064
Si Si4 0.389765 0.599525 0.698172
Si Si5 0.837574 0.903187 0.000000
Si Si6 0.636595 0.827759 0.000000
O O1 0.099873 0.500000 0.500000
O O2 0.150564 0.600608 0.690006
O O3 0.000000 0.500000 0.722704
O O4 0.417832 0.078114 0.000000
O O5 0.849607 0.198967 0.655766
O O6 0.000000 0.303748 0.654800
O O7 0.893250 0.283108 0.862960
O O8 0.500000 0.600182 0.655301
O O9 0.348861 0.500000 0.657365
O O10 0.389917 0.598637 0.859331
O O11 0.749044 0.838108 0.000000
O O12 0.787635 0.000000 0.000000
#
# Coordination Sequence:
#
# PCOD9486003 Si02
#       6
#     8   2  16  16   8   8
#     4   9  19  34  53  79 107 136 180 233 280 328
#     4  12  20  32  44  68 114 152 176 212 256 328
#     4  10  19  31  52  75 105 146 178 218 276 330
#     4   9  18  33  49  69 103 147 187 222 261 309
#     4  10  20  30  46  74 111 146 186 214 255 321
#     4  12  21  30  49  78 115 148 176 208 267 333
#
# _framework density 27.839244999999998
#
# number of rings (size 3 to 8) (size 9 to 14) (size 15 to 20)
#    0.000    2.069    2.069    2.069    1.931    6.069 
#    0.000    0.000    0.000    0.828    0.000    9.655 
#    0.000    0.000    0.000    0.000    0.000    1.103 
#
# Total GULP energy -161590.184718 kJ/mol
# GULP energy per Si atom -5572.075335 kJ/mol
# Density = 2.777588 g / cm^3
# Si number density = 27.839245 Si / 1000 Ang^3
#
#
#
# Elastic Constant Matrix: (Units=GPa)
#
#
# Indices 1 2 3 4 5 6 
#
# 1 87.6954 37.2622 4.5413 0.0000 0.0000 0.0000
# 2 37.2622 407.8356 14.6218 0.0000 0.0000 0.0000
# 3 4.5413 14.6218 139.6433 0.0000 0.0000 0.0000
# 4 0.0000 0.0000 0.0000 1717.1077 0.0000 0.0000
# 5 0.0000 0.0000 0.0000 0.0000 -26.4033 0.0000
# 6 0.0000 0.0000 0.0000 0.0000 0.0000 28.0508
#
#
#
# Elastic Compliance Matrix: (Units=1/GPa)
#
#
# Indices 1 2 3 4 5 6 
#
# 1 0.011874 -0.001075 -0.000274 0.000000 0.000000 0.000000
# 2 -0.001075 0.002559 -0.000233 0.000000 0.000000 0.000000
# 3 -0.000274 -0.000233 0.007194 0.000000 0.000000 0.000000
# 4 0.000000 0.000000 0.000000 0.000582 0.000000 0.000000
# 5 0.000000 0.000000 0.000000 0.000000 -0.037874 0.000000
# 6 0.000000 0.000000 0.000000 0.000000 0.000000 0.035650
#
#
# Mechanical properties :
#
#
# Convention : Reuss Voigt Hill
#
# Bulk Modulus (GPa) = 54.16000 83.11388 68.63694
# Shear Modulus (GPa) = 170.63289 382.33432 276.48361
#
# Velocity S-wave (km/s) = 7.83743 11.73178 9.97647
# Velocity P-wave (km/s) = 10.06962 14.60933 12.54651
#
# Compressibility (1/GPa) = 0.01846381
#
# Stress axis : x y z
#
# Youngs Moduli (GPa) = 84.21706 390.84713 138.99721
#
# Poissons Ratio (x) = 0.42019 0.03803
# Poissons Ratio (y) = 0.09054 0.03238
# Poissons Ratio (z) = 0.02304 0.09104
#
# Static dielectric constant tensor:
#      x y z
#    x 2.095060 0.000000 0.000000 
#    y 0.000000 2.285140 0.000000 
#    z 0.000000 0.000000 1.462480 
# 
# From -- ./inp_files/26063.got.cif
#   From: 2010.05.17/outbox.cif.g08.bks.cpg/sg65_14_cif.got.tgz:26063.got - 2010.06.03 17:01:31.
