data_PCOD9486485
_publ_section_title
;
Structure prediction by ZEFSAII (Michael W. Deem and Ramdas Pophale) SiO2 
 PCOD9486485
Probable space group: C M M M
;
_chemical_formula_sum "Si O2"
_cell_formula_units_Z 88
_cell_length_a 16.702035
_cell_length_b 30.216577
_cell_length_c 8.049683
_cell_angle_alpha 90.000000
_cell_angle_beta 90.000000
_cell_angle_gamma 90.000000
_cell_volume 4062.500546
_symmetry_space_group_name_H-M "C M M M"
_symmetry_group_IT_number 65
_symmetry_cell_setting 'orthorhombic'
loop_
_space_group_symop_operation_xyz
x,y,z
-x,-y,z
x,-y,-z
-x,y,-z
-x,-y,-z
x,y,-z
-x,y,z
x,-y,z
1/2+x,1/2+y,z
1/2-x,1/2-y,z
1/2+x,1/2-y,-z
1/2-x,1/2+y,-z
1/2-x,1/2-y,-z
1/2+x,1/2+y,-z
1/2-x,1/2+y,z
1/2+x,1/2-y,z
loop_
_atom_site_type_symbol
_atom_site_label
_atom_site_fract_x
_atom_site_fract_y
_atom_site_fract_z
Si Si1 0.822211 0.144061 0.698603
Si Si2 0.648717 0.180044 0.305168
Si Si3 0.908563 0.231164 0.803332
Si Si4 0.115977 0.550044 0.695099
Si Si5 0.500000 0.125667 0.801244
Si Si6 0.701187 0.450991 0.801573
O O1 0.823482 0.146528 0.500000
O O2 0.731452 0.157690 0.751000
O O3 0.879669 0.181549 0.769375
O O4 0.842656 0.094046 0.751215
O O5 0.635881 0.168249 0.500000
O O6 0.647971 0.232850 0.284719
O O7 0.571154 0.162707 0.208758
O O8 0.000000 0.236459 0.744328
O O9 0.905153 0.239326 0.000000
O O10 0.097310 0.557384 0.500000
O O11 0.093041 0.500000 0.739173
O O12 0.210869 0.552909 0.720414
O O13 0.068895 0.586734 0.794553
O O14 0.668793 0.500000 0.754620
O O15 0.710874 0.450795 0.000000
#
# Coordination Sequence:
#
# PCOD9486485 Si02
#       6
#    16  16  16  16   8  16
#     4  11  23  40  64  91 117 152 198 243 292 346
#     4  11  22  37  58  85 119 159 203 246 289 339
#     4  11  25  43  62  87 118 152 192 239 297 359
#     4  10  19  32  52  79 113 158 210 253 289 334
#     4  12  20  33  55  83 121 163 206 253 293 329
#     4  10  21  37  57  83 118 157 194 238 293 349
#
# _framework density 21.661536000000002
#
# number of rings (size 3 to 8) (size 9 to 14) (size 15 to 20)
#    0.000    1.273    2.727    4.091    0.000    6.545 
#    0.000    1.364    0.000    2.727    0.000    3.818 
#    0.000    0.000    0.000    0.000    0.000    0.000 
#
# Total GULP energy -244985.588733 kJ/mol
# GULP energy per Si atom -5567.854289 kJ/mol
# Density = 2.161223 g / cm^3
# Si number density = 21.661536 Si / 1000 Ang^3
#
#
#
# Elastic Constant Matrix: (Units=GPa)
#
#
# Indices 1 2 3 4 5 6 
#
# 1 28.4401 19.8125 7.6288 0.0000 0.0000 0.0000
# 2 19.8125 177.4468 3.4117 0.0000 0.0000 0.0000
# 3 7.6288 3.4117 38.6218 0.0000 0.0000 0.0000
# 4 0.0000 0.0000 0.0000 -11.0023 0.0000 0.0000
# 5 0.0000 0.0000 0.0000 0.0000 12.4868 0.0000
# 6 0.0000 0.0000 0.0000 0.0000 0.0000 55.1845
#
#
#
# Elastic Compliance Matrix: (Units=1/GPa)
#
#
# Indices 1 2 3 4 5 6 
#
# 1 0.040216 -0.004345 -0.007560 0.000000 0.000000 0.000000
# 2 -0.004345 0.006114 0.000318 0.000000 0.000000 0.000000
# 3 -0.007560 0.000318 0.027357 0.000000 0.000000 0.000000
# 4 0.000000 0.000000 0.000000 -0.090890 0.000000 0.000000
# 5 0.000000 0.000000 0.000000 0.000000 0.080085 0.000000
# 6 0.000000 0.000000 0.000000 0.000000 0.000000 0.018121
#
#
# Mechanical properties :
#
#
# Convention : Reuss Voigt Hill
#
# Bulk Modulus (GPa) = 19.79626 34.02385 26.91005
# Shear Modulus (GPa) = 41.31705 25.57752 33.44728
#
# Velocity S-wave (km/s) = 4.37211 3.43998 3.93375
# Velocity P-wave (km/s) = 5.88607 5.61418 5.75173
#
# Compressibility (1/GPa) = 0.05051460
#
# Stress axis : x y z
#
# Youngs Moduli (GPa) = 24.86557 163.54573 36.55332
#
# Poissons Ratio (x) = 0.71059 0.27634
# Poissons Ratio (y) = 0.10804 -0.01163
# Poissons Ratio (z) = 0.18798 -0.05202
#
# Static dielectric constant tensor:
#      x y z
#    x 1.762410 0.000000 0.000000 
#    y 0.000000 1.815890 0.000000 
#    z 0.000000 0.000000 1.841100 
# 
# From -- ./inp_files/10051.got.cif
#   From: 2010.05.17/outbox.cif.g08.bks.cpg/sg65_6_cif.got.tgz:10051.got - 2010.06.03 17:01:31.
