data_PCOD9486153
_publ_section_title
;
Structure prediction by ZEFSAII (Michael W. Deem and Ramdas Pophale) SiO2 
 PCOD9486153
Probable space group: C M M M
;
_chemical_formula_sum "Si O2"
_cell_formula_units_Z 104
_cell_length_a 21.179620
_cell_length_b 33.568783
_cell_length_c 7.416998
_cell_angle_alpha 90.000000
_cell_angle_beta 90.000000
_cell_angle_gamma 90.000000
_cell_volume 5273.293239
_symmetry_space_group_name_H-M "C M M M"
_symmetry_group_IT_number 65
_symmetry_cell_setting 'orthorhombic'
loop_
_space_group_symop_operation_xyz
x,y,z
-x,-y,z
x,-y,-z
-x,y,-z
-x,-y,-z
x,y,-z
-x,y,z
x,-y,z
1/2+x,1/2+y,z
1/2-x,1/2-y,z
1/2+x,1/2-y,-z
1/2-x,1/2+y,-z
1/2-x,1/2-y,-z
1/2+x,1/2+y,-z
1/2-x,1/2+y,z
1/2+x,1/2-y,z
loop_
_atom_site_type_symbol
_atom_site_label
_atom_site_fract_x
_atom_site_fract_y
_atom_site_fract_z
Si Si1 0.929413 0.702790 0.712063
Si Si2 0.156551 0.630151 0.217345
Si Si3 0.180746 0.758352 0.709736
Si Si4 0.927826 0.000000 0.220608
Si Si5 0.310379 0.956377 0.219579
Si Si6 0.668369 0.566869 0.780750
Si Si7 0.297547 0.653315 0.217721
O O1 0.934564 0.712069 0.500000
O O2 0.899912 0.658761 0.727398
O O3 0.876791 0.733019 0.789080
O O4 0.000000 0.705393 0.788369
O O5 0.154875 0.584102 0.278311
O O6 0.224123 0.648802 0.276067
O O7 0.158011 0.629672 0.000000
O O8 0.184852 0.746127 0.500000
O O9 0.250000 0.750000 0.791159
O O10 0.172335 0.805687 0.719163
O O11 0.888182 0.038694 0.278720
O O12 0.000000 0.000000 0.279838
O O13 0.927993 0.000000 0.000000
O O14 0.236780 0.950696 0.270602
O O15 0.332684 0.000000 0.279798
O O16 0.312182 0.956437 0.000000
O O17 0.667680 0.612880 0.723955
O O18 0.667862 0.566661 0.000000
O O19 0.297305 0.654002 0.000000
#
# Coordination Sequence:
#
# PCOD9486153 Si02
#       7
#    16  16  16   8  16  16  16
#     4  10  21  36  51  67  91 123 155 188 231 281
#     4   9  17  28  46  73  97 119 151 190 229 271
#     4  10  19  32  50  70  90 117 156 196 228 269
#     4   9  14  20  34  56  87 129 164 185 214 264
#     4   8  12  21  40  64  90 116 144 184 229 266
#     4   8  13  22  35  57  89 120 151 186 223 264
#     4   9  17  28  45  70  97 121 148 189 238 275
#
# _framework density 19.722021000000002
#
# number of rings (size 3 to 8) (size 9 to 14) (size 15 to 20)
#    0.000    3.000    2.308    1.846    0.000    1.231 
#    0.000    0.769    0.000    1.846    0.000    3.769 
#    0.000    0.615    0.000    0.000    0.000    0.000 
#
# Total GULP energy -289946.075241 kJ/mol
# GULP energy per Si atom -5575.886062 kJ/mol
# Density = 1.967713 g / cm^3
# Si number density = 19.722021 Si / 1000 Ang^3
#
#
#
# Elastic Constant Matrix: (Units=GPa)
#
#
# Indices 1 2 3 4 5 6 
#
# 1 143.5988 88.3304 9.0350 0.0000 0.0000 0.0000
# 2 88.3304 168.9714 -4.1732 0.0000 0.0000 0.0000
# 3 9.0350 -4.1732 62.8388 0.0000 0.0000 0.0000
# 4 0.0000 0.0000 0.0000 25.4029 0.0000 0.0000
# 5 0.0000 0.0000 0.0000 0.0000 -2.4936 0.0000
# 6 0.0000 0.0000 0.0000 0.0000 0.0000 20.3828
#
#
#
# Elastic Compliance Matrix: (Units=1/GPa)
#
#
# Indices 1 2 3 4 5 6 
#
# 1 0.010480 -0.005525 -0.001874 0.000000 0.000000 0.000000
# 2 -0.005525 0.008840 0.001381 0.000000 0.000000 0.000000
# 3 -0.001874 0.001381 0.016275 0.000000 0.000000 0.000000
# 4 0.000000 0.000000 0.000000 0.039366 0.000000 0.000000
# 5 0.000000 0.000000 0.000000 0.000000 -0.401023 0.000000
# 6 0.000000 0.000000 0.000000 0.000000 0.000000 0.049061
#
#
# Mechanical properties :
#
#
# Convention : Reuss Voigt Hill
#
# Bulk Modulus (GPa) = 42.44264 62.42151 52.43207
# Shear Modulus (GPa) = -19.44673 27.47287 4.01307
#
# Velocity S-wave (km/s) = -3.14354 3.73635 1.42802
# Velocity P-wave (km/s) = 2.89679 7.09458 5.41869
#
# Compressibility (1/GPa) = 0.02356121
#
# Stress axis : x y z
#
# Youngs Moduli (GPa) = 95.41839 113.11705 61.44438
#
# Poissons Ratio (x) = 0.62495 0.11513
# Poissons Ratio (y) = 0.52717 -0.08488
# Poissons Ratio (z) = 0.17879 -0.15627
#
# Static dielectric constant tensor:
#      x y z
#    x 1.670420 0.000000 0.000000 
#    y 0.000000 1.710680 0.000000 
#    z 0.000000 0.000000 2.050530 
# 
# From -- ./inp_files/27696.got.cif
#   From: 2010.05.17/outbox.cif.g08.bks.cpg/sg65_14_cif.got.tgz:27696.got - 2010.06.03 17:01:31.
