data_PCOD9486381
_publ_section_title
;
Structure prediction by ZEFSAII (Michael W. Deem and Ramdas Pophale) SiO2 
 PCOD9486381
Probable space group: C M M M
;
_chemical_formula_sum "Si O2"
_cell_formula_units_Z 104
_cell_length_a 15.393537
_cell_length_b 18.742551
_cell_length_c 19.866617
_cell_angle_alpha 90.000000
_cell_angle_beta 90.000000
_cell_angle_gamma 90.000000
_cell_volume 5731.800163
_symmetry_space_group_name_H-M "C M M M"
_symmetry_group_IT_number 65
_symmetry_cell_setting 'orthorhombic'
loop_
_space_group_symop_operation_xyz
x,y,z
-x,-y,z
x,-y,-z
-x,y,-z
-x,-y,-z
x,y,-z
-x,y,z
x,-y,z
1/2+x,1/2+y,z
1/2-x,1/2-y,z
1/2+x,1/2-y,-z
1/2-x,1/2+y,-z
1/2-x,1/2-y,-z
1/2+x,1/2+y,-z
1/2-x,1/2+y,z
1/2+x,1/2-y,z
loop_
_atom_site_type_symbol
_atom_site_label
_atom_site_fract_x
_atom_site_fract_y
_atom_site_fract_z
Si Si1 0.904286 0.641120 0.920058
Si Si2 0.249790 0.919394 0.291135
Si Si3 0.602669 0.159158 0.638405
Si Si4 0.725892 0.578704 0.130182
Si Si5 0.598791 0.314523 0.689564
Si Si6 0.894583 0.582395 0.500000
Si Si7 0.152028 0.221452 0.159547
O O1 0.821557 0.594185 0.898870
O O2 0.893978 0.716622 0.882165
O O3 0.000000 0.610707 0.903954
O O4 0.899621 0.652243 0.000000
O O5 0.339255 0.879468 0.306077
O O6 0.234638 0.921544 0.211194
O O7 0.171045 0.874213 0.322286
O O8 0.253047 0.000000 0.316796
O O9 0.500000 0.145916 0.648308
O O10 0.615952 0.243701 0.645909
O O11 0.629948 0.125349 0.567124
O O12 0.695437 0.500000 0.108570
O O13 0.664574 0.647419 0.118505
O O14 0.500000 0.338584 0.677867
O O15 0.608293 0.292279 0.768340
O O16 0.864315 0.500000 0.500000
O O17 0.000000 0.580115 0.500000
O O18 0.250000 0.250000 0.173236
#
# Coordination Sequence:
#
# PCOD9486381 Si02
#       7
#    16  16  16  16  16   8  16
#     4  10  20  32  47  68  94 125 159 195 240 296
#     4  10  20  34  51  73 103 133 164 203 246 297
#     4  10  19  32  53  78 102 130 164 204 249 292
#     4   9  19  33  48  69  95 123 156 196 242 289
#     4  10  19  32  52  75 100 131 166 205 247 291
#     4   9  18  32  49  74 108 138 165 201 248 300
#     4   9  17  31  51  71  94 123 160 204 245 288
#
# _framework density 18.144386999999998
#
# number of rings (size 3 to 8) (size 9 to 14) (size 15 to 20)
#    0.000    2.385    0.000    4.154    0.000    6.462 
#    0.000    3.846    0.000    1.385    0.000    1.077 
#    0.000    4.923    0.000    0.000    0.000    0.000 
#
# Total GULP energy -289946.572475 kJ/mol
# GULP energy per Si atom -5575.895625 kJ/mol
# Density = 1.810309 g / cm^3
# Si number density = 18.144387 Si / 1000 Ang^3
#
#
#
# Elastic Constant Matrix: (Units=GPa)
#
#
# Indices 1 2 3 4 5 6 
#
# 1 49.5443 14.9802 1.4547 0.0000 0.0000 0.0000
# 2 14.9802 60.4230 -6.2265 0.0000 0.0000 0.0000
# 3 1.4547 -6.2265 13.1783 0.0000 0.0000 0.0000
# 4 0.0000 0.0000 0.0000 -2.2053 0.0000 0.0000
# 5 0.0000 0.0000 0.0000 0.0000 12.5745 0.0000
# 6 0.0000 0.0000 0.0000 0.0000 0.0000 14.0311
#
#
#
# Elastic Compliance Matrix: (Units=1/GPa)
#
#
# Indices 1 2 3 4 5 6 
#
# 1 0.022166 -0.006042 -0.005302 0.000000 0.000000 0.000000
# 2 -0.006042 0.019044 0.009665 0.000000 0.000000 0.000000
# 3 -0.005302 0.009665 0.081034 0.000000 0.000000 0.000000
# 4 0.000000 0.000000 0.000000 -0.453459 0.000000 0.000000
# 5 0.000000 0.000000 0.000000 0.000000 0.079526 0.000000
# 6 0.000000 0.000000 0.000000 0.000000 0.000000 0.071270
#
#
# Mechanical properties :
#
#
# Convention : Reuss Voigt Hill
#
# Bulk Modulus (GPa) = 8.41137 15.95139 12.18138
# Shear Modulus (GPa) = -36.38140 12.40922 -11.98609
#
# Velocity S-wave (km/s) = -4.48270 2.61801 -2.57299
# Velocity P-wave (km/s) = 4.70605 4.23664 1.44876
#
# Compressibility (1/GPa) = 0.11888667
#
# Stress axis : x y z
#
# Youngs Moduli (GPa) = 45.11325 52.51039 12.34055
#
# Poissons Ratio (x) = 0.31726 0.06542
# Poissons Ratio (y) = 0.27257 -0.11927
# Poissons Ratio (z) = 0.23917 -0.50750
#
# Static dielectric constant tensor:
#      x y z
#    x 1.619370 0.000000 0.000000 
#    y 0.000000 1.653460 0.000000 
#    z 0.000000 0.000000 1.613400 
# 
# From -- ./inp_files/62889.got.cif
#   From: 2010.05.17/outbox.cif.g08.bks.cpg/sg65_32_cif.got.tgz:62889.got - 2010.06.03 17:01:31.
