data_PCOD9486127
_publ_section_title
;
Structure prediction by ZEFSAII (Michael W. Deem and Ramdas Pophale) SiO2 
 PCOD9486127
Probable space group: C M M M
;
_chemical_formula_sum "Si O2"
_cell_formula_units_Z 120
_cell_length_a 30.356448
_cell_length_b 8.603209
_cell_length_c 26.434963
_cell_angle_alpha 90.000000
_cell_angle_beta 90.000000
_cell_angle_gamma 90.000000
_cell_volume 6903.830717
_symmetry_space_group_name_H-M "C M M M"
_symmetry_group_IT_number 65
_symmetry_cell_setting 'orthorhombic'
loop_
_space_group_symop_operation_xyz
x,y,z
-x,-y,z
x,-y,-z
-x,y,-z
-x,-y,-z
x,y,-z
-x,y,z
x,-y,z
1/2+x,1/2+y,z
1/2-x,1/2-y,z
1/2+x,1/2-y,-z
1/2-x,1/2+y,-z
1/2-x,1/2-y,-z
1/2+x,1/2+y,-z
1/2-x,1/2+y,z
1/2+x,1/2-y,z
loop_
_atom_site_type_symbol
_atom_site_label
_atom_site_fract_x
_atom_site_fract_y
_atom_site_fract_z
Si Si1 0.799540 0.813203 0.500000
Si Si2 0.050575 0.812290 0.261012
Si Si3 0.203129 0.312946 0.093905
Si Si4 0.550678 0.686959 0.854723
Si Si5 0.199894 0.812882 0.388448
Si Si6 0.638594 0.813683 0.700403
Si Si7 0.297368 0.187277 0.210815
Si Si8 0.890230 0.687619 0.944702
O O1 0.750000 0.750000 0.500000
O O2 0.817148 0.765953 0.555161
O O3 0.798873 0.000000 0.500000
O O4 0.060367 0.762112 0.202892
O O5 0.088763 0.746705 0.296353
O O6 0.000000 0.765976 0.272712
O O7 0.051891 0.000000 0.262166
O O8 0.205001 0.500000 0.093317
O O9 0.250000 0.250000 0.076090
O O10 0.196560 0.262396 0.152582
O O11 0.160511 0.263431 0.062807
O O12 0.500000 0.730358 0.865396
O O13 0.553500 0.500000 0.855335
O O14 0.581993 0.753581 0.897464
O O15 0.250000 0.750000 0.381997
O O16 0.167258 0.748929 0.346099
O O17 0.201687 0.000000 0.385523
O O18 0.664308 0.761664 0.751462
O O19 0.638526 0.000000 0.699160
O O20 0.250000 0.250000 0.228366
O O21 0.296019 0.000000 0.211216
O O22 0.891172 0.500000 0.943724
O O23 0.906476 0.739507 0.000000
#
# Coordination Sequence:
#
# PCOD9486127 Si02
#       8
#     8  16  16  16  16  16  16  16
#     4   8  16  30  48  68  95 136 181 220 254 289
#     4   9  19  36  55  74  97 126 160 199 246 298
#     4   9  18  33  49  65  88 120 157 194 231 274
#     4   9  19  36  56  76  97 122 154 193 239 292
#     4  10  19  32  49  72 104 141 180 218 254 292
#     4  11  21  31  47  74 104 134 167 202 245 296
#     4   9  18  30  44  64  92 124 156 190 230 280
#     4  10  21  35  50  70  96 124 155 194 240 289
#
# _framework density 17.381654999999999
#
# number of rings (size 3 to 8) (size 9 to 14) (size 15 to 20)
#    0.000    2.533    0.000    2.800    0.000    6.133 
#    0.000    5.333    0.000    0.000    0.000    0.467 
#    0.000    3.733    0.000    0.000    0.000    0.000 
#
# Total GULP energy -334574.511069 kJ/mol
# GULP energy per Si atom -5576.241851 kJ/mol
# Density = 1.734209 g / cm^3
# Si number density = 17.381655 Si / 1000 Ang^3
#
#
#
# Elastic Constant Matrix: (Units=GPa)
#
#
# Indices 1 2 3 4 5 6 
#
# 1 106.3233 24.1816 62.6401 0.0000 0.0000 0.0000
# 2 24.1816 16.3138 21.9933 0.0000 0.0000 0.0000
# 3 62.6401 21.9933 76.3153 0.0000 0.0000 0.0000
# 4 0.0000 0.0000 0.0000 15.5071 0.0000 0.0000
# 5 0.0000 0.0000 0.0000 0.0000 19.4675 0.0000
# 6 0.0000 0.0000 0.0000 0.0000 0.0000 26.7757
#
#
#
# Elastic Compliance Matrix: (Units=1/GPa)
#
#
# Indices 1 2 3 4 5 6 
#
# 1 0.019554 -0.012014 -0.012587 0.000000 0.000000 0.000000
# 2 -0.012014 0.107627 -0.021156 0.000000 0.000000 0.000000
# 3 -0.012587 -0.021156 0.029532 0.000000 0.000000 0.000000
# 4 0.000000 0.000000 0.000000 0.064487 0.000000 0.000000
# 5 0.000000 0.000000 0.000000 0.000000 0.051368 0.000000
# 6 0.000000 0.000000 0.000000 0.000000 0.000000 0.037347
#
#
# Mechanical properties :
#
#
# Convention : Reuss Voigt Hill
#
# Bulk Modulus (GPa) = 15.33784 46.28695 30.81239
# Shear Modulus (GPa) = 11.81583 18.35922 15.08752
#
# Velocity S-wave (km/s) = 2.61010 3.25351 2.94940
# Velocity P-wave (km/s) = 4.23401 6.38759 5.41886
#
# Compressibility (1/GPa) = 0.06519824
#
# Stress axis : x y z
#
# Youngs Moduli (GPa) = 51.14172 9.29135 33.86147
#
# Poissons Ratio (x) = 0.11163 0.42622
# Poissons Ratio (y) = 0.61443 0.71636
# Poissons Ratio (z) = 0.64373 0.19656
#
# Static dielectric constant tensor:
#      x y z
#    x 1.575780 0.000000 0.000000 
#    y 0.000000 1.597190 0.000000 
#    z 0.000000 0.000000 1.612420 
# 
# From -- ./inp_files/76187.got.cif
#   From: 2010.05.17/outbox.cif.g08.bks.cpg/sg65_39_cif.got.tgz:76187.got - 2010.06.03 17:01:31.
