data_PCOD9486522
_publ_section_title
;
Structure prediction by ZEFSAII (Michael W. Deem and Ramdas Pophale) SiO2 
 PCOD9486522
Probable space group: C M M M
;
_chemical_formula_sum "Si O2"
_cell_formula_units_Z 116
_cell_length_a 28.880968
_cell_length_b 28.178701
_cell_length_c 7.749341
_cell_angle_alpha 90.000000
_cell_angle_beta 90.000000
_cell_angle_gamma 90.000000
_cell_volume 6306.631942
_symmetry_space_group_name_H-M "C M M M"
_symmetry_group_IT_number 65
_symmetry_cell_setting 'orthorhombic'
loop_
_space_group_symop_operation_xyz
x,y,z
-x,-y,z
x,-y,-z
-x,y,-z
-x,-y,-z
x,y,-z
-x,y,z
x,-y,z
1/2+x,1/2+y,z
1/2-x,1/2-y,z
1/2+x,1/2-y,-z
1/2-x,1/2+y,-z
1/2-x,1/2-y,-z
1/2+x,1/2+y,-z
1/2-x,1/2+y,z
1/2+x,1/2-y,z
loop_
_atom_site_type_symbol
_atom_site_label
_atom_site_fract_x
_atom_site_fract_y
_atom_site_fract_z
Si Si1 0.448253 0.187914 0.705871
Si Si2 0.839833 0.000000 0.500000
Si Si3 0.853318 0.357319 0.792119
Si Si4 0.552049 0.297199 0.202551
Si Si5 0.811874 0.071952 0.200006
Si Si6 0.200516 0.265189 0.203156
Si Si7 0.148755 0.828646 0.301412
Si Si8 0.295968 0.946494 0.208880
O O1 0.448820 0.192690 0.500000
O O2 0.500000 0.173396 0.763562
O O3 0.406786 0.152915 0.752509
O O4 0.439207 0.240714 0.777919
O O5 0.837072 0.958980 0.654296
O O6 0.823559 0.312377 0.724664
O O7 0.831284 0.406384 0.727710
O O8 0.849336 0.357598 0.000000
O O9 0.500000 0.305908 0.269841
O O10 0.593245 0.326033 0.288931
O O11 0.552823 0.308360 0.000000
O O12 0.829600 0.125763 0.211009
O O13 0.757123 0.068090 0.243661
O O14 0.817305 0.055904 0.000000
O O15 0.250000 0.250000 0.278802
O O16 0.167292 0.220156 0.221134
O O17 0.207992 0.274931 0.000000
O O18 0.163079 0.829657 0.500000
O O19 0.303681 0.000000 0.274213
O O20 0.300005 0.948109 0.000000
#
# Coordination Sequence:
#
# PCOD9486522 Si02
#       8
#    16   4  16  16  16  16  16  16
#     4  10  20  34  51  75 107 142 181 231 288 344
#     4  12  22  40  60  94 115 150 207 244 282 350
#     4  10  19  32  53  79 105 144 191 229 279 346
#     4  10  20  35  56  80 109 148 190 230 281 344
#     4  11  22  40  62  85 120 156 192 246 293 336
#     4  10  20  34  50  73 111 154 190 224 278 349
#     4  12  23  35  54  85 119 150 192 233 283 350
#     4   9  18  35  58  81 109 146 189 239 292 335
#
# _framework density 18.393336000000001
#
# number of rings (size 3 to 8) (size 9 to 14) (size 15 to 20)
#    0.000    1.655    2.759    3.103    0.000    4.138 
#    1.241    0.000    0.000    0.414    0.000    3.862 
#    0.000    2.207    0.000    0.000    0.000    0.000 
#
# Total GULP energy -323207.083928 kJ/mol
# GULP energy per Si atom -5572.535930 kJ/mol
# Density = 1.835147 g / cm^3
# Si number density = 18.393336 Si / 1000 Ang^3
#
#
#
# Elastic Constant Matrix: (Units=GPa)
#
#
# Indices 1 2 3 4 5 6 
#
# 1 102.6294 67.2907 6.0112 0.0000 0.0000 0.0000
# 2 67.2907 133.2113 4.9611 0.0000 0.0000 0.0000
# 3 6.0112 4.9611 52.8569 0.0000 0.0000 0.0000
# 4 0.0000 0.0000 0.0000 12.7832 0.0000 0.0000
# 5 0.0000 0.0000 0.0000 0.0000 44.2943 0.0000
# 6 0.0000 0.0000 0.0000 0.0000 0.0000 -9.9275
#
#
#
# Elastic Compliance Matrix: (Units=1/GPa)
#
#
# Indices 1 2 3 4 5 6 
#
# 1 0.014619 -0.007348 -0.000973 0.000000 0.000000 0.000000
# 2 -0.007348 0.011227 -0.000218 0.000000 0.000000 0.000000
# 3 -0.000973 -0.000218 0.019050 0.000000 0.000000 0.000000
# 4 0.000000 0.000000 0.000000 0.078228 0.000000 0.000000
# 5 0.000000 0.000000 0.000000 0.000000 0.022576 0.000000
# 6 0.000000 0.000000 0.000000 0.000000 0.000000 -0.100730
#
#
# Mechanical properties :
#
#
# Convention : Reuss Voigt Hill
#
# Bulk Modulus (GPa) = 35.94868 49.46927 42.70898
# Shear Modulus (GPa) = 70.10566 23.45896 46.78231
#
# Velocity S-wave (km/s) = 6.18041 3.57516 5.04872
# Velocity P-wave (km/s) = 8.39743 6.63294 7.56679
#
# Compressibility (1/GPa) = 0.02781743
#
# Stress axis : x y z
#
# Youngs Moduli (GPa) = 68.40472 89.07119 52.49310
#
# Poissons Ratio (x) = 0.65453 0.05107
# Poissons Ratio (y) = 0.50266 0.01145
# Poissons Ratio (z) = 0.06655 0.01942
#
# Static dielectric constant tensor:
#      x y z
#    x 1.650170 0.000000 0.000000 
#    y 0.000000 1.626110 0.000000 
#    z 0.000000 0.000000 1.688530 
# 
# From -- ./inp_files/18951.got.cif
#   From: 2010.05.17/outbox.cif.g08.bks.cpg/sg65_10_cif.got.tgz:18951.got - 2010.06.03 17:01:31.
