data_PCOD9486340
_publ_section_title
;
Structure prediction by ZEFSAII (Michael W. Deem and Ramdas Pophale) SiO2 
 PCOD9486340
Probable space group: C M M M
;
_chemical_formula_sum "Si O2"
_cell_formula_units_Z 80
_cell_length_a 15.010010
_cell_length_b 10.432876
_cell_length_c 24.910257
_cell_angle_alpha 90.000000
_cell_angle_beta 90.000000
_cell_angle_gamma 90.000000
_cell_volume 3900.885791
_symmetry_space_group_name_H-M "C M M M"
_symmetry_group_IT_number 65
_symmetry_cell_setting 'orthorhombic'
loop_
_space_group_symop_operation_xyz
x,y,z
-x,-y,z
x,-y,-z
-x,y,-z
-x,-y,-z
x,y,-z
-x,y,z
x,-y,z
1/2+x,1/2+y,z
1/2-x,1/2-y,z
1/2+x,1/2-y,-z
1/2-x,1/2+y,-z
1/2-x,1/2-y,-z
1/2+x,1/2+y,-z
1/2-x,1/2+y,z
1/2+x,1/2-y,z
loop_
_atom_site_type_symbol
_atom_site_label
_atom_site_fract_x
_atom_site_fract_y
_atom_site_fract_z
Si Si1 0.395051 0.357510 0.323809
Si Si2 0.357502 0.247472 0.873918
Si Si3 0.642590 0.000000 0.061133
Si Si4 0.605739 0.853848 0.243258
Si Si5 0.860536 0.000000 0.937331
Si Si6 0.328844 0.352609 0.441317
O O1 0.500000 0.363500 0.311296
O O2 0.357347 0.500000 0.311124
O O3 0.357436 0.238483 0.289989
O O4 0.385196 0.336028 0.387475
O O5 0.250000 0.250000 0.875283
O O6 0.382937 0.221393 0.812664
O O7 0.388684 0.375489 0.903684
O O8 0.387838 0.125510 0.907955
O O9 0.751556 0.000000 0.061423
O O10 0.613749 0.000000 0.000000
O O11 0.500000 0.867399 0.252382
O O12 0.642526 0.000000 0.240295
O O13 0.888550 0.000000 0.000000
O O14 0.373946 0.337736 0.500000
O O15 0.295161 0.500000 0.439592
O O16 0.250000 0.250000 0.439185
#
# Coordination Sequence:
#
# PCOD9486340 Si02
#       6
#    16  16   8  16   8  16
#     4   9  19  35  54  76 100 133 176 215 254 299
#     4  10  19  32  51  77 102 129 168 209 252 304
#     4   9  16  30  51  73 101 131 164 207 250 299
#     4  10  21  37  54  72 100 137 173 211 256 303
#     4   9  18  30  49  77 103 129 162 207 258 301
#     4   9  18  33  53  79 110 141 171 207 254 303
#
# _framework density 20.508163
#
# number of rings (size 3 to 8) (size 9 to 14) (size 15 to 20)
#    0.000    2.600    1.000    0.600    1.400    4.400 
#    0.000    4.000    0.000    3.600    0.000    5.600 
#    0.000    0.000    0.000    0.000    0.000    0.000 
#
# Total GULP energy -223028.724570 kJ/mol
# GULP energy per Si atom -5575.718114 kJ/mol
# Density = 2.046149 g / cm^3
# Si number density = 20.508163 Si / 1000 Ang^3
#
#
#
# Elastic Constant Matrix: (Units=GPa)
#
#
# Indices 1 2 3 4 5 6 
#
# 1 34.1805 11.4612 -1.6475 0.0000 0.0000 0.0000
# 2 11.4612 182.3472 104.6729 0.0000 0.0000 0.0000
# 3 -1.6475 104.6729 161.6512 0.0000 0.0000 0.0000
# 4 0.0000 0.0000 0.0000 38.5079 0.0000 0.0000
# 5 0.0000 0.0000 0.0000 0.0000 27.1070 0.0000
# 6 0.0000 0.0000 0.0000 0.0000 0.0000 1.4878
#
#
#
# Elastic Compliance Matrix: (Units=1/GPa)
#
#
# Indices 1 2 3 4 5 6 
#
# 1 0.030494 -0.003334 0.002470 0.000000 0.000000 0.000000
# 2 -0.003334 0.009093 -0.005922 0.000000 0.000000 0.000000
# 3 0.002470 -0.005922 0.010046 0.000000 0.000000 0.000000
# 4 0.000000 0.000000 0.000000 0.025969 0.000000 0.000000
# 5 0.000000 0.000000 0.000000 0.000000 0.036891 0.000000
# 6 0.000000 0.000000 0.000000 0.000000 0.000000 0.672137
#
#
# Mechanical properties :
#
#
# Convention : Reuss Voigt Hill
#
# Bulk Modulus (GPa) = 27.73183 67.46134 47.59658
# Shear Modulus (GPa) = 6.17115 31.00002 18.58559
#
# Velocity S-wave (km/s) = 1.73656 3.89214 3.01367
# Velocity P-wave (km/s) = 4.19196 7.29141 5.94715
#
# Compressibility (1/GPa) = 0.03605965
#
# Stress axis : x y z
#
# Youngs Moduli (GPa) = 32.79373 109.97495 99.54310
#
# Poissons Ratio (x) = 0.36671 -0.24586
# Poissons Ratio (y) = 0.10935 0.58948
# Poissons Ratio (z) = -0.08100 0.65126
#
# Static dielectric constant tensor:
#      x y z
#    x 1.742530 0.000000 0.000000 
#    y 0.000000 1.727760 0.000000 
#    z 0.000000 0.000000 1.717830 
# 
# From -- ./inp_files/67352.got.cif
#   From: 2010.05.17/outbox.cif.g08.bks.cpg/sg65_34_cif.got.tgz:67352.got - 2010.06.03 17:01:31.
