data_PCOD9486468
_publ_section_title
;
Structure prediction by ZEFSAII (Michael W. Deem and Ramdas Pophale) SiO2 
 PCOD9486468
Probable space group: C M M M
;
_chemical_formula_sum "Si O2"
_cell_formula_units_Z 120
_cell_length_a 27.501087
_cell_length_b 8.516922
_cell_length_c 28.489738
_cell_angle_alpha 90.000000
_cell_angle_beta 90.000000
_cell_angle_gamma 90.000000
_cell_volume 6672.997855
_symmetry_space_group_name_H-M "C M M M"
_symmetry_group_IT_number 65
_symmetry_cell_setting 'orthorhombic'
loop_
_space_group_symop_operation_xyz
x,y,z
-x,-y,z
x,-y,-z
-x,y,-z
-x,-y,-z
x,y,-z
-x,y,z
x,-y,z
1/2+x,1/2+y,z
1/2-x,1/2-y,z
1/2+x,1/2-y,-z
1/2-x,1/2+y,-z
1/2-x,1/2-y,-z
1/2+x,1/2+y,-z
1/2-x,1/2+y,z
1/2+x,1/2-y,z
loop_
_atom_site_type_symbol
_atom_site_label
_atom_site_fract_x
_atom_site_fract_y
_atom_site_fract_z
Si Si1 0.500000 0.308538 0.445677
Si Si2 0.304983 0.311819 0.052954
Si Si3 0.599823 0.312828 0.604168
Si Si4 0.650811 0.811637 0.853246
Si Si5 0.395984 0.187396 0.291823
Si Si6 0.446723 0.809137 0.802704
Si Si7 0.302770 0.812051 0.554710
Si Si8 0.302557 0.686660 0.761026
O O1 0.500000 0.500000 0.443654
O O2 0.500000 0.261815 0.500000
O O3 0.449702 0.255991 0.421345
O O4 0.304764 0.500000 0.056720
O O5 0.250000 0.250000 0.058513
O O6 0.336540 0.240190 0.094568
O O7 0.321022 0.269061 0.000000
O O8 0.602144 0.500000 0.598645
O O9 0.596106 0.268857 0.658722
O O10 0.649815 0.244773 0.582761
O O11 0.596965 0.761313 0.836722
O O12 0.686506 0.734955 0.814901
O O13 0.654758 0.000000 0.848943
O O14 0.433136 0.236236 0.250549
O O15 0.343638 0.232393 0.270610
O O16 0.399109 0.000000 0.297752
O O17 0.500000 0.752130 0.815978
O O18 0.447062 0.000000 0.803275
O O19 0.307773 0.761393 0.500000
O O20 0.250000 0.750000 0.571668
O O21 0.301380 0.000000 0.556227
O O22 0.305384 0.500000 0.756217
O O23 0.250000 0.750000 0.747618
#
# Coordination Sequence:
#
# PCOD9486468 Si02
#       8
#     8  16  16  16  16  16  16  16
#     4   9  20  38  59  83 113 149 185 223 270 325
#     4  10  20  33  50  74 106 142 180 222 269 320
#     4  11  22  37  58  84 114 148 184 223 271 327
#     4  10  19  32  52  78 107 139 179 222 268 320
#     4  10  21  36  54  79 109 139 176 218 267 318
#     4   8  16  32  54  77 101 133 172 217 264 312
#     4  10  21  38  60  85 111 141 180 225 272 324
#     4  11  21  35  54  76 107 143 181 220 264 318
#
# _framework density 17.982921999999999
#
# number of rings (size 3 to 8) (size 9 to 14) (size 15 to 20)
#    0.000    2.067    0.000    4.800    0.933    2.667 
#    0.000    3.667    0.000   10.800    0.000    2.800 
#    0.000    0.000    0.000    0.000    0.000    0.000 
#
# Total GULP energy -334932.710032 kJ/mol
# GULP energy per Si atom -5582.211834 kJ/mol
# Density = 1.794199 g / cm^3
# Si number density = 17.982922 Si / 1000 Ang^3
#
#
#
# Elastic Constant Matrix: (Units=GPa)
#
#
# Indices 1 2 3 4 5 6 
#
# 1 109.1027 8.5672 47.5747 0.0000 0.0000 0.0000
# 2 8.5672 31.1594 2.3042 0.0000 0.0000 0.0000
# 3 47.5747 2.3042 104.7231 0.0000 0.0000 0.0000
# 4 0.0000 0.0000 0.0000 25.6642 0.0000 0.0000
# 5 0.0000 0.0000 0.0000 0.0000 9.3135 0.0000
# 6 0.0000 0.0000 0.0000 0.0000 0.0000 12.6400
#
#
#
# Elastic Compliance Matrix: (Units=1/GPa)
#
#
# Indices 1 2 3 4 5 6 
#
# 1 0.011672 -0.002822 -0.005241 0.000000 0.000000 0.000000
# 2 -0.002822 0.032827 0.000560 0.000000 0.000000 0.000000
# 3 -0.005241 0.000560 0.011917 0.000000 0.000000 0.000000
# 4 0.000000 0.000000 0.000000 0.038965 0.000000 0.000000
# 5 0.000000 0.000000 0.000000 0.000000 0.107371 0.000000
# 6 0.000000 0.000000 0.000000 0.000000 0.000000 0.079114
#
#
# Mechanical properties :
#
#
# Convention : Reuss Voigt Hill
#
# Bulk Modulus (GPa) = 24.14769 40.20862 32.17816
# Shear Modulus (GPa) = 16.09392 21.95949 19.02670
#
# Velocity S-wave (km/s) = 2.99483 3.49826 3.25629
# Velocity P-wave (km/s) = 5.04142 6.22294 5.66308
#
# Compressibility (1/GPa) = 0.04141182
#
# Stress axis : x y z
#
# Youngs Moduli (GPa) = 85.67193 30.46228 83.91069
#
# Poissons Ratio (x) = 0.08596 0.43974
# Poissons Ratio (y) = 0.24175 -0.04696
# Poissons Ratio (z) = 0.44897 -0.01705
#
# Static dielectric constant tensor:
#      x y z
#    x 1.578260 0.000000 0.000000 
#    y 0.000000 1.614880 0.000000 
#    z 0.000000 0.000000 1.601500 
# 
# From -- ./inp_files/76143.got.cif
#   From: 2010.05.17/outbox.cif.g08.bks.cpg/sg65_39_cif.got.tgz:76143.got - 2010.06.03 17:01:31.
