data_PCOD9486242
_publ_section_title
;
Structure prediction by ZEFSAII (Michael W. Deem and Ramdas Pophale) SiO2 
 PCOD9486242
Probable space group: C M M M
;
_chemical_formula_sum "Si O2"
_cell_formula_units_Z 104
_cell_length_a 17.287823
_cell_length_b 18.824820
_cell_length_c 18.568631
_cell_angle_alpha 90.000000
_cell_angle_beta 90.000000
_cell_angle_gamma 90.000000
_cell_volume 6042.978172
_symmetry_space_group_name_H-M "C M M M"
_symmetry_group_IT_number 65
_symmetry_cell_setting 'orthorhombic'
loop_
_space_group_symop_operation_xyz
x,y,z
-x,-y,z
x,-y,-z
-x,y,-z
-x,-y,-z
x,y,-z
-x,y,z
x,-y,z
1/2+x,1/2+y,z
1/2-x,1/2-y,z
1/2+x,1/2-y,-z
1/2-x,1/2+y,-z
1/2-x,1/2-y,-z
1/2+x,1/2+y,-z
1/2-x,1/2+y,z
1/2+x,1/2-y,z
loop_
_atom_site_type_symbol
_atom_site_label
_atom_site_fract_x
_atom_site_fract_y
_atom_site_fract_z
Si Si1 0.093108 0.698061 0.277106
Si Si2 0.000000 0.586196 0.081571
Si Si3 0.905758 0.920534 0.661632
Si Si4 0.647206 0.916435 0.176610
Si Si5 0.905681 0.779642 0.419176
Si Si6 0.802541 0.083248 0.915487
Si Si7 0.408132 0.656572 0.807212
O O1 0.139929 0.631544 0.247098
O O2 0.116258 0.724514 0.356620
O O3 0.106863 0.764728 0.223520
O O4 0.000000 0.684120 0.277277
O O5 0.075757 0.606537 0.125778
O O6 0.000000 0.500000 0.077895
O O7 0.000000 0.613170 0.000000
O O8 0.881391 0.858195 0.607441
O O9 0.883833 0.896616 0.742364
O O10 0.000000 0.920886 0.660297
O O11 0.878950 0.000000 0.645021
O O12 0.724539 0.907378 0.130516
O O13 0.638585 0.000000 0.193209
O O14 0.879287 0.764103 0.500000
O O15 0.000000 0.780041 0.419423
O O16 0.864881 0.134325 0.879098
O O17 0.825932 0.000000 0.908639
O O18 0.789826 0.097035 0.000000
O O19 0.500000 0.649835 0.816396
#
# Coordination Sequence:
#
# PCOD9486242 Si02
#       7
#    16   8  16  16  16  16  16
#     4   9  17  31  50  71  97 128 165 202 238 292
#     4   9  16  28  48  70  91 115 144 189 253 305
#     4   8  13  22  39  64  91 123 164 202 233 273
#     4  10  19  32  51  73  94 121 161 207 252 294
#     4   8  14  24  40  66  99 130 155 191 243 287
#     4  10  21  35  50  71  99 127 161 206 245 285
#     4   9  18  32  49  68  97 134 168 198 233 285
#
# _framework density 17.210056000000002
#
# number of rings (size 3 to 8) (size 9 to 14) (size 15 to 20)
#    0.000    3.000    0.769    2.769    0.000    4.000 
#    0.000    4.615    0.000    0.462    0.000   10.769 
#    0.000    4.923    0.000    0.000    0.000    0.000 
#
# Total GULP energy -289730.792813 kJ/mol
# GULP energy per Si atom -5571.746016 kJ/mol
# Density = 1.717089 g / cm^3
# Si number density = 17.210056 Si / 1000 Ang^3
#
#
#
# Elastic Constant Matrix: (Units=GPa)
#
#
# Indices 1 2 3 4 5 6 
#
# 1 23.3503 30.1441 22.9270 0.0000 0.0000 0.0000
# 2 30.1441 78.2851 78.8302 0.0000 0.0000 0.0000
# 3 22.9270 78.8302 123.1478 0.0000 0.0000 0.0000
# 4 0.0000 0.0000 0.0000 18.2784 0.0000 0.0000
# 5 0.0000 0.0000 0.0000 0.0000 15.0614 0.0000
# 6 0.0000 0.0000 0.0000 0.0000 0.0000 10.9739
#
#
#
# Elastic Compliance Matrix: (Units=1/GPa)
#
#
# Indices 1 2 3 4 5 6 
#
# 1 0.095394 -0.053031 0.016187 0.000000 0.000000 0.000000
# 2 -0.053031 0.065422 -0.032005 0.000000 0.000000 0.000000
# 3 0.016187 -0.032005 0.025594 0.000000 0.000000 0.000000
# 4 0.000000 0.000000 0.000000 0.054709 0.000000 0.000000
# 5 0.000000 0.000000 0.000000 0.000000 0.066395 0.000000
# 6 0.000000 0.000000 0.000000 0.000000 0.000000 0.091126
#
#
# Mechanical properties :
#
#
# Convention : Reuss Voigt Hill
#
# Bulk Modulus (GPa) = 20.52956 54.28728 37.40842
# Shear Modulus (GPa) = 9.04854 15.05485 12.05169
#
# Velocity S-wave (km/s) = 2.29546 2.96086 2.64913
# Velocity P-wave (km/s) = 4.35663 6.58037 5.58039
#
# Compressibility (1/GPa) = 0.04871024
#
# Stress axis : x y z
#
# Youngs Moduli (GPa) = 10.48289 15.28545 39.07163
#
# Poissons Ratio (x) = 0.81061 -0.63245
# Poissons Ratio (y) = 0.55592 1.25049
# Poissons Ratio (z) = -0.16969 0.48921
#
# Static dielectric constant tensor:
#      x y z
#    x 1.587820 0.000000 0.000000 
#    y 0.000000 1.585930 0.000000 
#    z 0.000000 0.000000 1.582330 
# 
# From -- ./inp_files/54568.got.cif
#   From: 2010.05.17/outbox.cif.g08.bks.cpg/sg65_28_cif.got.tgz:54568.got - 2010.06.03 17:01:31.
