data_PCOD9486573
_publ_section_title
;
Structure prediction by ZEFSAII (Michael W. Deem and Ramdas Pophale) SiO2 
 PCOD9486573
Probable space group: C M M M
;
_chemical_formula_sum "Si O2"
_cell_formula_units_Z 88
_cell_length_a 28.117192
_cell_length_b 19.913143
_cell_length_c 7.584370
_cell_angle_alpha 90.000000
_cell_angle_beta 90.000000
_cell_angle_gamma 90.000000
_cell_volume 4246.501391
_symmetry_space_group_name_H-M "C M M M"
_symmetry_group_IT_number 65
_symmetry_cell_setting 'orthorhombic'
loop_
_space_group_symop_operation_xyz
x,y,z
-x,-y,z
x,-y,-z
-x,y,-z
-x,-y,-z
x,y,-z
-x,y,z
x,-y,z
1/2+x,1/2+y,z
1/2-x,1/2-y,z
1/2+x,1/2-y,-z
1/2-x,1/2+y,-z
1/2-x,1/2-y,-z
1/2+x,1/2+y,-z
1/2-x,1/2+y,z
1/2+x,1/2-y,z
loop_
_atom_site_type_symbol
_atom_site_label
_atom_site_fract_x
_atom_site_fract_y
_atom_site_fract_z
Si Si1 0.500000 0.578570 0.215918
Si Si2 0.119221 0.304139 0.712776
Si Si3 0.554940 0.073944 0.715138
Si Si4 0.727113 0.179249 0.284400
Si Si5 0.096837 0.150076 0.208346
Si Si6 0.194743 0.924668 0.709026
O O1 0.500000 0.500000 0.267321
O O2 0.547996 0.616585 0.276915
O O3 0.500000 0.580030 0.000000
O O4 0.120197 0.307079 0.500000
O O5 0.084844 0.362901 0.777765
O O6 0.172678 0.319469 0.774919
O O7 0.101762 0.229400 0.756961
O O8 0.555796 0.074808 0.500000
O O9 0.500000 0.079732 0.767961
O O10 0.572771 0.000000 0.769108
O O11 0.726714 0.176998 0.500000
O O12 0.750000 0.250000 0.233791
O O13 0.761609 0.119986 0.220864
O O14 0.144670 0.113470 0.271898
O O15 0.095970 0.140264 0.000000
O O16 0.203033 0.930038 0.500000
O O17 0.192265 0.000000 0.782489
#
# Coordination Sequence:
#
# PCOD9486573 Si02
#       6
#     8  16  16  16  16  16
#     4   9  20  38  55  71  98 137 174 212 263 321
#     4  10  19  32  54  79 107 141 176 215 258 309
#     4   8  15  28  47  75 107 134 165 211 263 306
#     4   9  16  30  50  73 104 136 165 203 254 304
#     4  11  22  36  55  78 105 138 176 217 264 319
#     4  10  20  35  56  80 105 136 177 220 260 308
#
# _framework density 20.722942
#
# number of rings (size 3 to 8) (size 9 to 14) (size 15 to 20)
#    0.000    2.455    1.818    1.636    1.273    1.818 
#    0.000    6.818    0.000    3.818    0.000    1.273 
#    0.000    0.000    0.000    0.000    0.000    0.000 
#
# Total GULP energy -245620.357431 kJ/mol
# GULP energy per Si atom -5582.280851 kJ/mol
# Density = 2.067578 g / cm^3
# Si number density = 20.722942 Si / 1000 Ang^3
#
#
#
# Elastic Constant Matrix: (Units=GPa)
#
#
# Indices 1 2 3 4 5 6 
#
# 1 154.1364 117.0269 -2.6724 0.0000 0.0000 0.0000
# 2 117.0269 221.0477 -3.4964 0.0000 0.0000 0.0000
# 3 -2.6724 -3.4964 44.4979 0.0000 0.0000 0.0000
# 4 0.0000 0.0000 0.0000 -3.2469 0.0000 0.0000
# 5 0.0000 0.0000 0.0000 0.0000 -0.2219 0.0000
# 6 0.0000 0.0000 0.0000 0.0000 0.0000 -24.3015
#
#
#
# Elastic Compliance Matrix: (Units=1/GPa)
#
#
# Indices 1 2 3 4 5 6 
#
# 1 0.010850 -0.005741 0.000201 0.000000 0.000000 0.000000
# 2 -0.005741 0.007567 0.000250 0.000000 0.000000 0.000000
# 3 0.000201 0.000250 0.022505 0.000000 0.000000 0.000000
# 4 0.000000 0.000000 0.000000 -0.307990 0.000000 0.000000
# 5 0.000000 0.000000 0.000000 0.000000 -4.506740 0.000000
# 6 0.000000 0.000000 0.000000 0.000000 0.000000 -0.041150
#
#
# Mechanical properties :
#
#
# Convention : Reuss Voigt Hill
#
# Bulk Modulus (GPa) = 32.95922 71.26648 52.11285
# Shear Modulus (GPa) = -1.04291 15.03422 6.99565
#
# Velocity S-wave (km/s) = -0.71018 2.69641 1.83933
# Velocity P-wave (km/s) = 3.90727 6.64522 5.45095
#
# Compressibility (1/GPa) = 0.03034052
#
# Stress axis : x y z
#
# Youngs Moduli (GPa) = 92.16499 132.14757 44.43531
#
# Poissons Ratio (x) = 0.75867 -0.00891
# Poissons Ratio (y) = 0.52913 -0.01110
# Poissons Ratio (z) = -0.01848 -0.03301
#
# Static dielectric constant tensor:
#      x y z
#    x 1.752660 0.000000 0.000000 
#    y 0.000000 1.730050 0.000000 
#    z 0.000000 0.000000 1.781350 
# 
# From -- ./inp_files/13958.got.cif
#   From: 2010.05.17/outbox.cif.g08.bks.cpg/sg65_7_cif.got.tgz:13958.got - 2010.06.03 17:01:31.
