data_PCOD9486427
_publ_section_title
;
Structure prediction by ZEFSAII (Michael W. Deem and Ramdas Pophale) SiO2 
 PCOD9486427
Probable space group: C M M M
;
_chemical_formula_sum "Si O2"
_cell_formula_units_Z 80
_cell_length_a 10.085540
_cell_length_b 18.358611
_cell_length_c 22.601543
_cell_angle_alpha 90.000000
_cell_angle_beta 90.000000
_cell_angle_gamma 90.000000
_cell_volume 4184.822723
_symmetry_space_group_name_H-M "C M M M"
_symmetry_group_IT_number 65
_symmetry_cell_setting 'orthorhombic'
loop_
_space_group_symop_operation_xyz
x,y,z
-x,-y,z
x,-y,-z
-x,y,-z
-x,-y,-z
x,y,-z
-x,y,z
x,-y,z
1/2+x,1/2+y,z
1/2-x,1/2-y,z
1/2+x,1/2-y,-z
1/2-x,1/2+y,-z
1/2-x,1/2-y,-z
1/2+x,1/2+y,-z
1/2-x,1/2+y,z
1/2+x,1/2-y,z
loop_
_atom_site_type_symbol
_atom_site_label
_atom_site_fract_x
_atom_site_fract_y
_atom_site_fract_z
Si Si1 0.153001 0.911304 0.782845
Si Si2 0.155818 0.411238 0.889460
Si Si3 0.156626 0.088648 0.000000
Si Si4 0.256316 0.413407 0.348576
Si Si5 0.500000 0.587652 0.565994
Si Si6 0.142553 0.311599 0.566018
O O1 0.263414 0.888462 0.830636
O O2 0.200146 0.890811 0.717043
O O3 0.000000 0.887575 0.794293
O O4 0.149285 0.000000 0.784537
O O5 0.151183 0.500000 0.889959
O O6 0.000000 0.387661 0.893004
O O7 0.253335 0.389686 0.943523
O O8 0.000000 0.112315 0.000000
O O9 0.150897 0.000000 0.000000
O O10 0.231571 0.500000 0.347344
O O11 0.374200 0.396335 0.394186
O O12 0.143429 0.368465 0.380633
O O13 0.500000 0.500000 0.560402
O O14 0.500000 0.618174 0.500000
O O15 0.161747 0.345606 0.500000
O O16 0.250000 0.250000 0.574551
O O17 0.000000 0.274686 0.565309
#
# Coordination Sequence:
#
# PCOD9486427 Si02
#       6
#    16  16   8  16   8  16
#     4   9  16  27  42  62  90 122 158 197 242 297
#     4   9  16  24  35  53  80 115 155 200 246 290
#     4   9  15  23  35  51  73 109 158 203 242 289
#     4  10  19  32  52  77 102 130 167 210 256 306
#     4   9  16  26  44  72  98 121 154 198 248 297
#     4  10  23  40  56  75 100 132 167 207 258 312
#
# _framework density 19.116700000000002
#
# number of rings (size 3 to 8) (size 9 to 14) (size 15 to 20)
#    0.000    2.600    1.000    1.500    1.400    6.000 
#    0.000    3.000    0.000    0.000    0.000    0.000 
#    0.000    0.000    0.000    0.900    0.000    8.700 
#
# Total GULP energy -222671.496325 kJ/mol
# GULP energy per Si atom -5566.787408 kJ/mol
# Density = 1.907319 g / cm^3
# Si number density = 19.116700 Si / 1000 Ang^3
#
#
#
# Elastic Constant Matrix: (Units=GPa)
#
#
# Indices 1 2 3 4 5 6 
#
# 1 192.1041 23.4677 95.8581 0.0000 0.0000 0.0000
# 2 23.4677 13.5343 19.8463 0.0000 0.0000 0.0000
# 3 95.8581 19.8463 176.0341 0.0000 0.0000 0.0000
# 4 0.0000 0.0000 0.0000 4.9069 0.0000 0.0000
# 5 0.0000 0.0000 0.0000 0.0000 42.8448 0.0000
# 6 0.0000 0.0000 0.0000 0.0000 0.0000 14.0765
#
#
#
# Elastic Compliance Matrix: (Units=1/GPa)
#
#
# Indices 1 2 3 4 5 6 
#
# 1 0.007954 -0.008915 -0.003326 0.000000 0.000000 0.000000
# 2 -0.008915 0.098511 -0.006252 0.000000 0.000000 0.000000
# 3 -0.003326 -0.006252 0.008197 0.000000 0.000000 0.000000
# 4 0.000000 0.000000 0.000000 0.203796 0.000000 0.000000
# 5 0.000000 0.000000 0.000000 0.000000 0.023340 0.000000
# 6 0.000000 0.000000 0.000000 0.000000 0.000000 0.071040
#
#
# Mechanical properties :
#
#
# Convention : Reuss Voigt Hill
#
# Bulk Modulus (GPa) = 12.87390 73.33519 43.10455
# Shear Modulus (GPa) = 10.51046 28.53233 19.52140
#
# Velocity S-wave (km/s) = 2.34734 3.86752 3.19904
# Velocity P-wave (km/s) = 3.75442 7.64126 6.02015
#
# Compressibility (1/GPa) = 0.07767653
#
# Stress axis : x y z
#
# Youngs Moduli (GPa) = 125.71645 10.15114 121.99632
#
# Poissons Ratio (x) = 0.09049 0.40582
# Poissons Ratio (y) = 1.12072 0.76271
# Poissons Ratio (z) = 0.41819 0.06346
#
# Static dielectric constant tensor:
#      x y z
#    x 1.786600 0.000000 0.000000 
#    y 0.000000 1.637030 0.000000 
#    z 0.000000 0.000000 1.675760 
# 
# From -- ./inp_files/67391.got.cif
#   From: 2010.05.17/outbox.cif.g08.bks.cpg/sg65_34_cif.got.tgz:67391.got - 2010.06.03 17:01:31.
