data_PCOD9486649
_publ_section_title
;
Structure prediction by ZEFSAII (Michael W. Deem and Ramdas Pophale) SiO2 
 PCOD9486649
Probable space group: C M M M
;
_chemical_formula_sum "Si O2"
_cell_formula_units_Z 112
_cell_length_a 22.233758
_cell_length_b 17.600972
_cell_length_c 12.950974
_cell_angle_alpha 90.000000
_cell_angle_beta 90.000000
_cell_angle_gamma 90.000000
_cell_volume 5068.179150
_symmetry_space_group_name_H-M "C M M M"
_symmetry_group_IT_number 65
_symmetry_cell_setting 'orthorhombic'
loop_
_space_group_symop_operation_xyz
x,y,z
-x,-y,z
x,-y,-z
-x,y,-z
-x,-y,-z
x,y,-z
-x,y,z
x,-y,z
1/2+x,1/2+y,z
1/2-x,1/2-y,z
1/2+x,1/2-y,-z
1/2-x,1/2+y,-z
1/2-x,1/2-y,-z
1/2+x,1/2+y,-z
1/2-x,1/2+y,z
1/2+x,1/2-y,z
loop_
_atom_site_type_symbol
_atom_site_label
_atom_site_fract_x
_atom_site_fract_y
_atom_site_fract_z
Si Si1 0.759717 0.914448 0.172118
Si Si2 0.902072 0.913012 0.880441
Si Si3 0.070240 0.645148 0.385555
Si Si4 0.726312 0.662421 0.385213
Si Si5 0.389207 0.701637 0.714208
Si Si6 0.571928 0.084738 0.171848
Si Si7 0.334877 0.204594 0.108191
O O1 0.829446 0.913927 0.137721
O O2 0.752245 0.890850 0.292231
O O3 0.721903 0.850134 0.115457
O O4 0.737145 0.000000 0.153699
O O5 0.923867 0.855291 0.791053
O O6 0.922539 0.000000 0.864603
O O7 0.915672 0.892676 0.000000
O O8 0.097726 0.638428 0.500000
O O9 0.075825 0.731102 0.342587
O O10 0.093068 0.593694 0.291431
O O11 0.000000 0.626453 0.394694
O O12 0.742490 0.636571 0.500000
O O13 0.750000 0.750000 0.376395
O O14 0.654047 0.662898 0.369038
O O15 0.342479 0.742551 0.793428
O O16 0.500000 0.097090 0.167794
O O17 0.607433 0.149459 0.112974
O O18 0.584073 0.000000 0.134523
O O19 0.334216 0.247260 0.000000
#
# Coordination Sequence:
#
# PCOD9486649 Si02
#       7
#    16  16  16  16  16  16  16
#     4  10  20  33  47  71 102 130 164 205 244 287
#     4   9  18  32  51  74 101 132 163 198 243 292
#     4   9  18  33  54  77  99 126 161 203 250 293
#     4  10  19  33  51  70  95 130 163 196 242 294
#     4  10  19  33  52  76 100 129 163 205 242 292
#     4   9  19  34  49  69  98 130 168 210 248 289
#     4  11  21  32  49  71  97 132 171 207 247 290
#
# _framework density 22.098665
#
# number of rings (size 3 to 8) (size 9 to 14) (size 15 to 20)
#    0.000    2.286    1.429    1.714    0.000    2.571 
#    0.000    4.286    0.000    4.714    0.000    2.000 
#    0.000    0.000    0.000    0.000    0.000    0.000 
#
# Total GULP energy -312520.303219 kJ/mol
# GULP energy per Si atom -5580.719700 kJ/mol
# Density = 2.204837 g / cm^3
# Si number density = 22.098665 Si / 1000 Ang^3
#
#
#
# Elastic Constant Matrix: (Units=GPa)
#
#
# Indices 1 2 3 4 5 6 
#
# 1 39.9128 -3.7811 0.7173 0.0000 0.0000 0.0000
# 2 -3.7811 60.7668 -3.5973 0.0000 0.0000 0.0000
# 3 0.7173 -3.5973 126.8611 0.0000 0.0000 0.0000
# 4 0.0000 0.0000 0.0000 17.5485 0.0000 0.0000
# 5 0.0000 0.0000 0.0000 0.0000 10.1694 0.0000
# 6 0.0000 0.0000 0.0000 0.0000 0.0000 16.1381
#
#
#
# Elastic Compliance Matrix: (Units=1/GPa)
#
#
# Indices 1 2 3 4 5 6 
#
# 1 0.025204 0.001563 -0.000098 0.000000 0.000000 0.000000
# 2 0.001563 0.016581 0.000461 0.000000 0.000000 0.000000
# 3 -0.000098 0.000461 0.007896 0.000000 0.000000 0.000000
# 4 0.000000 0.000000 0.000000 0.056985 0.000000 0.000000
# 5 0.000000 0.000000 0.000000 0.000000 0.098334 0.000000
# 6 0.000000 0.000000 0.000000 0.000000 0.000000 0.061965
#
#
# Mechanical properties :
#
#
# Convention : Reuss Voigt Hill
#
# Bulk Modulus (GPa) = 18.68011 23.80205 21.24108
# Shear Modulus (GPa) = 17.79620 24.38464 21.09042
#
# Velocity S-wave (km/s) = 2.84087 3.32542 3.09265
# Velocity P-wave (km/s) = 4.38545 5.05358 4.73132
#
# Compressibility (1/GPa) = 0.05353286
#
# Stress axis : x y z
#
# Youngs Moduli (GPa) = 39.67556 60.31037 126.64201
#
# Poissons Ratio (x) = -0.09424 0.01244
# Poissons Ratio (y) = -0.06199 -0.05842
# Poissons Ratio (z) = 0.00390 -0.02782
#
# Static dielectric constant tensor:
#      x y z
#    x 1.826900 0.000000 0.000000 
#    y 0.000000 1.805930 0.000000 
#    z 0.000000 0.000000 1.847790 
# 
# From -- ./inp_files/31096.got.cif
#   From: 2010.05.17/outbox.cif.g08.bks.cpg/sg65_16_cif.got.tgz:31096.got - 2010.06.03 17:01:31.
