data_PCOD9486701
_publ_section_title
;
Structure prediction by ZEFSAII (Michael W. Deem and Ramdas Pophale) SiO2 
 PCOD9486701
Probable space group: C M M M
;
_chemical_formula_sum "Si O2"
_cell_formula_units_Z 96
_cell_length_a 8.465776
_cell_length_b 23.822604
_cell_length_c 26.500443
_cell_angle_alpha 90.000000
_cell_angle_beta 90.000000
_cell_angle_gamma 90.000000
_cell_volume 5344.525317
_symmetry_space_group_name_H-M "C M M M"
_symmetry_group_IT_number 65
_symmetry_cell_setting 'orthorhombic'
loop_
_space_group_symop_operation_xyz
x,y,z
-x,-y,z
x,-y,-z
-x,y,-z
-x,-y,-z
x,y,-z
-x,y,z
x,-y,z
1/2+x,1/2+y,z
1/2-x,1/2-y,z
1/2+x,1/2-y,-z
1/2-x,1/2+y,-z
1/2-x,1/2-y,-z
1/2+x,1/2+y,-z
1/2-x,1/2+y,z
1/2+x,1/2-y,z
loop_
_atom_site_type_symbol
_atom_site_label
_atom_site_fract_x
_atom_site_fract_y
_atom_site_fract_z
Si Si1 0.310731 0.500000 0.870579
Si Si2 0.690507 0.618784 0.708567
Si Si3 0.689354 0.187167 0.803623
Si Si4 0.310668 0.881102 0.903208
Si Si5 0.307121 0.500000 0.247370
Si Si6 0.812170 0.186214 0.000000
Si Si7 0.690332 0.686110 0.500000
Si Si8 0.691563 0.314278 0.610713
O O1 0.500000 0.500000 0.870207
O O2 0.250412 0.555644 0.898176
O O3 0.256706 0.500000 0.811534
O O4 0.500000 0.616802 0.706583
O O5 0.741170 0.659867 0.753381
O O6 0.745600 0.556443 0.724069
O O7 0.746246 0.645322 0.655761
O O8 0.500000 0.186924 0.800652
O O9 0.750000 0.250000 0.809618
O O10 0.738657 0.150687 0.851962
O O11 0.500000 0.881396 0.905695
O O12 0.246236 0.847304 0.950894
O O13 0.500000 0.500000 0.246892
O O14 0.750000 0.250000 0.000000
O O15 0.000000 0.188083 0.000000
O O16 0.500000 0.685110 0.500000
O O17 0.750000 0.750000 0.500000
O O18 0.741423 0.664017 0.445066
O O19 0.500000 0.312421 0.611849
O O20 0.750000 0.250000 0.617473
#
# Coordination Sequence:
#
# PCOD9486701 Si02
#       8
#     8  16  16  16   8   8   8  16
#     4  11  21  38  64  89 114 149 190 232 277 330
#     4  10  19  33  52  75 103 139 179 223 271 324
#     4  11  23  36  54  80 110 143 177 218 270 327
#     4  11  24  42  63  88 118 151 187 231 277 326
#     4   9  18  33  54  77 105 142 181 221 268 323
#     4  12  26  45  68  93 120 152 190 230 278 334
#     4   8  14  26  42  65  95 133 173 216 267 320
#     4   9  17  28  46  70 101 135 174 220 270 325
#
# _framework density 17.962306000000002
#
# number of rings (size 3 to 8) (size 9 to 14) (size 15 to 20)
#    0.000    1.833    1.667    3.000    0.000    5.667 
#    0.000    2.083    0.000    0.500    0.000    3.500 
#    0.000    0.000    0.000   13.750    0.000   10.167 
#
# Total GULP energy -267921.650452 kJ/mol
# GULP energy per Si atom -5581.701051 kJ/mol
# Density = 1.792142 g / cm^3
# Si number density = 17.962306 Si / 1000 Ang^3
#
#
#
# Elastic Constant Matrix: (Units=GPa)
#
#
# Indices 1 2 3 4 5 6 
#
# 1 25.5641 26.0740 32.0249 0.0000 0.0000 0.0000
# 2 26.0740 154.9914 83.0809 0.0000 0.0000 0.0000
# 3 32.0249 83.0809 175.0641 0.0000 0.0000 0.0000
# 4 0.0000 0.0000 0.0000 28.2705 0.0000 0.0000
# 5 0.0000 0.0000 0.0000 0.0000 23.2173 0.0000
# 6 0.0000 0.0000 0.0000 0.0000 0.0000 6.9447
#
#
#
# Elastic Compliance Matrix: (Units=1/GPa)
#
#
# Indices 1 2 3 4 5 6 
#
# 1 0.053527 -0.005037 -0.007401 0.000000 0.000000 0.000000
# 2 -0.005037 0.009127 -0.003410 0.000000 0.000000 0.000000
# 3 -0.007401 -0.003410 0.008684 0.000000 0.000000 0.000000
# 4 0.000000 0.000000 0.000000 0.035373 0.000000 0.000000
# 5 0.000000 0.000000 0.000000 0.000000 0.043071 0.000000
# 6 0.000000 0.000000 0.000000 0.000000 0.000000 0.143996
#
#
# Mechanical properties :
#
#
# Convention : Reuss Voigt Hill
#
# Bulk Modulus (GPa) = 25.22621 70.88657 48.05639
# Shear Modulus (GPa) = 14.76279 25.98247 20.37263
#
# Velocity S-wave (km/s) = 2.86995 3.80741 3.37142
# Velocity P-wave (km/s) = 5.00566 7.67322 6.47823
#
# Compressibility (1/GPa) = 0.03964131
#
# Stress axis : x y z
#
# Youngs Moduli (GPa) = 18.68218 109.56093 115.14840
#
# Poissons Ratio (x) = 0.55191 0.85223
# Poissons Ratio (y) = 0.09411 0.39267
# Poissons Ratio (z) = 0.13827 0.37361
#
# Static dielectric constant tensor:
#      x y z
#    x 1.613300 0.000000 0.000000 
#    y 0.000000 1.581470 0.000000 
#    z 0.000000 0.000000 1.631430 
# 
# From -- ./inp_files/67936.got.cif
#   From: 2010.05.17/outbox.cif.g08.bks.cpg/sg65_34_cif.got.tgz:67936.got - 2010.06.03 17:01:31.
