data_PCOD9486079
_publ_section_title
;
Structure prediction by ZEFSAII (Michael W. Deem and Ramdas Pophale) SiO2 
 PCOD9486079
Probable space group: C M M M
;
_chemical_formula_sum "Si O2"
_cell_formula_units_Z 72
_cell_length_a 8.537139
_cell_length_b 23.838134
_cell_length_c 21.748284
_cell_angle_alpha 90.000000
_cell_angle_beta 90.000000
_cell_angle_gamma 90.000000
_cell_volume 4425.981608
_symmetry_space_group_name_H-M "C M M M"
_symmetry_group_IT_number 65
_symmetry_cell_setting 'orthorhombic'
loop_
_space_group_symop_operation_xyz
x,y,z
-x,-y,z
x,-y,-z
-x,y,-z
-x,-y,-z
x,y,-z
-x,y,z
x,-y,z
1/2+x,1/2+y,z
1/2-x,1/2-y,z
1/2+x,1/2-y,-z
1/2-x,1/2+y,-z
1/2-x,1/2-y,-z
1/2+x,1/2+y,-z
1/2-x,1/2+y,z
1/2+x,1/2-y,z
loop_
_atom_site_type_symbol
_atom_site_label
_atom_site_fract_x
_atom_site_fract_y
_atom_site_fract_z
Si Si1 0.686827 0.118263 0.116290
Si Si2 0.188957 0.186185 0.367764
Si Si3 0.311806 0.500000 0.072276
Si Si4 0.311274 0.685936 0.767839
Si Si5 0.310363 0.314280 0.500000
Si Si6 0.312878 0.687057 0.000000
O O1 0.500000 0.118373 0.114777
O O2 0.749190 0.055652 0.105042
O O3 0.745540 0.146577 0.179009
O O4 0.751510 0.155210 0.060013
O O5 0.250000 0.250000 0.368370
O O6 0.236683 0.164349 0.300547
O O7 0.239959 0.160720 0.433760
O O8 0.000000 0.186746 0.367818
O O9 0.500000 0.500000 0.073499
O O10 0.263208 0.500000 0.000000
O O11 0.500000 0.687336 0.771427
O O12 0.250000 0.750000 0.775048
O O13 0.500000 0.313411 0.500000
O O14 0.250000 0.250000 0.500000
O O15 0.250000 0.750000 0.000000
O O16 0.500000 0.686720 0.000000
#
# Coordination Sequence:
#
# PCOD9486079 Si02
#       6
#    16  16   8  16   8   8
#     4  12  24  38  56  77 100 128 162 202 244 292
#     4   8  14  23  38  59  88 125 163 201 239 282
#     4  11  23  41  63  81  98 123 156 199 248 294
#     4  10  19  32  48  70 101 136 170 205 248 295
#     4   8  12  20  34  56  84 119 162 201 236 276
#     4  12  24  39  56  77 102 130 162 200 242 290
#
# _framework density 16.267579000000001
#
# number of rings (size 3 to 8) (size 9 to 14) (size 15 to 20)
#    0.000    1.889    1.111    4.667    0.000    1.333 
#    0.000    0.000    0.000    0.000    0.000    0.000 
#    0.000    0.889    0.000   10.444    0.000    2.667 
#
# Total GULP energy -200636.192138 kJ/mol
# GULP energy per Si atom -5573.227559 kJ/mol
# Density = 1.623055 g / cm^3
# Si number density = 16.267579 Si / 1000 Ang^3
#
#
#
# Elastic Constant Matrix: (Units=GPa)
#
#
# Indices 1 2 3 4 5 6 
#
# 1 79.6647 33.8314 48.8361 0.0000 0.0000 0.0000
# 2 33.8314 95.8312 71.9790 0.0000 0.0000 0.0000
# 3 48.8361 71.9790 208.9465 0.0000 0.0000 0.0000
# 4 0.0000 0.0000 0.0000 -4.5191 0.0000 0.0000
# 5 0.0000 0.0000 0.0000 0.0000 6.6705 0.0000
# 6 0.0000 0.0000 0.0000 0.0000 0.0000 23.4202
#
#
#
# Elastic Compliance Matrix: (Units=1/GPa)
#
#
# Indices 1 2 3 4 5 6 
#
# 1 0.015582 -0.003731 -0.002357 0.000000 0.000000 0.000000
# 2 -0.003731 0.014971 -0.004285 0.000000 0.000000 0.000000
# 3 -0.002357 -0.004285 0.006813 0.000000 0.000000 0.000000
# 4 0.000000 0.000000 0.000000 -0.221283 0.000000 0.000000
# 5 0.000000 0.000000 0.000000 0.000000 0.149915 0.000000
# 6 0.000000 0.000000 0.000000 0.000000 0.000000 0.042698
#
#
# Mechanical properties :
#
#
# Convention : Reuss Voigt Hill
#
# Bulk Modulus (GPa) = 60.16817 77.08169 68.62493
# Shear Modulus (GPa) = 142.93779 20.43405 81.68592
#
# Velocity S-wave (km/s) = 9.38389 3.54803 7.09387
# Velocity P-wave (km/s) = 12.42887 8.01693 10.45820
#
# Compressibility (1/GPa) = 0.01662008
#
# Stress axis : x y z
#
# Youngs Moduli (GPa) = 64.17819 66.79710 146.77997
#
# Poissons Ratio (x) = 0.24920 0.34591
# Poissons Ratio (y) = 0.23943 0.62899
# Poissons Ratio (z) = 0.15125 0.28624
#
# Static dielectric constant tensor:
#      x y z
#    x 1.543320 0.000000 0.000000 
#    y 0.000000 1.493860 0.000000 
#    z 0.000000 0.000000 1.612060 
# 
# From -- ./inp_files/59330.got.cif
#   From: 2010.05.17/outbox.cif.g08.bks.cpg/sg65_30_cif.got.tgz:59330.got - 2010.06.03 17:01:31.
