data_PCOD9486313
_publ_section_title
;
Structure prediction by ZEFSAII (Michael W. Deem and Ramdas Pophale) SiO2 
 PCOD9486313
Probable space group: C M M M
;
_chemical_formula_sum "Si O2"
_cell_formula_units_Z 80
_cell_length_a 31.716031
_cell_length_b 18.007707
_cell_length_c 7.847380
_cell_angle_alpha 90.000000
_cell_angle_beta 90.000000
_cell_angle_gamma 90.000000
_cell_volume 4481.897630
_symmetry_space_group_name_H-M "C M M M"
_symmetry_group_IT_number 65
_symmetry_cell_setting 'orthorhombic'
loop_
_space_group_symop_operation_xyz
x,y,z
-x,-y,z
x,-y,-z
-x,y,-z
-x,-y,-z
x,y,-z
-x,y,z
x,-y,z
1/2+x,1/2+y,z
1/2-x,1/2-y,z
1/2+x,1/2-y,-z
1/2-x,1/2+y,-z
1/2-x,1/2-y,-z
1/2+x,1/2+y,-z
1/2-x,1/2+y,z
1/2+x,1/2-y,z
loop_
_atom_site_type_symbol
_atom_site_label
_atom_site_fract_x
_atom_site_fract_y
_atom_site_fract_z
Si Si1 0.606046 0.285772 0.810712
Si Si2 0.049851 0.737515 0.500000
Si Si3 0.904926 0.418720 0.500000
Si Si4 0.751655 0.664267 0.205869
Si Si5 0.345950 0.131176 0.198228
Si Si6 0.334325 0.415325 0.298671
O O1 0.571696 0.273928 0.665015
O O2 0.639133 0.217367 0.794727
O O3 0.632277 0.360885 0.788328
O O4 0.587541 0.281523 0.000000
O O5 0.063300 0.650618 0.500000
O O6 0.000000 0.745835 0.500000
O O7 0.924974 0.500000 0.500000
O O8 0.875335 0.410107 0.666838
O O9 0.750000 0.750000 0.265182
O O10 0.796947 0.629254 0.248757
O O11 0.712167 0.618212 0.271846
O O12 0.749065 0.665679 0.000000
O O13 0.350524 0.107142 0.000000
O O14 0.343354 0.414520 0.500000
O O15 0.336116 0.500000 0.236736
#
# Coordination Sequence:
#
# PCOD9486313 Si02
#       6
#    16   8   8  16  16  16
#     4  10  19  37  62  84 110 147 186 228 280 335
#     4  10  22  41  64  91 114 135 175 228 280 343
#     4  10  22  37  56  83 114 151 186 222 279 336
#     4  10  19  32  51  75 107 151 199 243 279 316
#     4   9  19  34  54  79 109 151 201 240 271 317
#     4  11  23  35  51  81 117 152 193 239 284 327
#
# _framework density 17.849582999999999
#
# number of rings (size 3 to 8) (size 9 to 14) (size 15 to 20)
#    0.000    2.000    3.000    0.600    1.400    3.800 
#    0.000    2.000    0.000    1.200    0.000    7.000 
#    0.000    0.000    0.000    0.000    0.000    0.000 
#
# Total GULP energy -223322.372313 kJ/mol
# GULP energy per Si atom -5583.059308 kJ/mol
# Density = 1.780896 g / cm^3
# Si number density = 17.849583 Si / 1000 Ang^3
#
#
#
# Elastic Constant Matrix: (Units=GPa)
#
#
# Indices 1 2 3 4 5 6 
#
# 1 111.0904 33.6177 51.3913 0.0000 0.0000 0.0000
# 2 33.6177 102.9007 28.6235 0.0000 0.0000 0.0000
# 3 51.3913 28.6235 88.5439 0.0000 0.0000 0.0000
# 4 0.0000 0.0000 0.0000 7.8835 0.0000 0.0000
# 5 0.0000 0.0000 0.0000 0.0000 -15.2706 0.0000
# 6 0.0000 0.0000 0.0000 0.0000 0.0000 10.6075
#
#
#
# Elastic Compliance Matrix: (Units=1/GPa)
#
#
# Indices 1 2 3 4 5 6 
#
# 1 0.012792 -0.002323 -0.006674 0.000000 0.000000 0.000000
# 2 -0.002323 0.011100 -0.002240 0.000000 0.000000 0.000000
# 3 -0.006674 -0.002240 0.015891 0.000000 0.000000 0.000000
# 4 0.000000 0.000000 0.000000 0.126848 0.000000 0.000000
# 5 0.000000 0.000000 0.000000 0.000000 -0.065485 0.000000
# 6 0.000000 0.000000 0.000000 0.000000 0.000000 0.094273
#
#
# Mechanical properties :
#
#
# Convention : Reuss Voigt Hill
#
# Bulk Modulus (GPa) = 57.76901 58.86667 58.31784
# Shear Modulus (GPa) = 22.35521 13.23757 17.79639
#
# Velocity S-wave (km/s) = 3.54280 2.72622 3.16099
# Velocity P-wave (km/s) = 7.01212 6.55443 6.78714
#
# Compressibility (1/GPa) = 0.01731032
#
# Stress axis : x y z
#
# Youngs Moduli (GPa) = 78.17500 90.08932 62.92720
#
# Poissons Ratio (x) = 0.20925 0.41995
# Poissons Ratio (y) = 0.18158 0.14097
# Poissons Ratio (z) = 0.52171 0.20182
#
# Static dielectric constant tensor:
#      x y z
#    x 1.558050 0.000000 0.000000 
#    y 0.000000 1.614480 0.000000 
#    z 0.000000 0.000000 1.632970 
# 
# From -- ./inp_files/18192.got.cif
#   From: 2010.05.17/outbox.cif.g08.bks.cpg/sg65_10_cif.got.tgz:18192.got - 2010.06.03 17:01:31.
