data_PCOD9486652
_publ_section_title
;
Structure prediction by ZEFSAII (Michael W. Deem and Ramdas Pophale) SiO2 
 PCOD9486652
Probable space group: C M M M
;
_chemical_formula_sum "Si O2"
_cell_formula_units_Z 120
_cell_length_a 28.879327
_cell_length_b 27.623609
_cell_length_c 7.785017
_cell_angle_alpha 90.000000
_cell_angle_beta 90.000000
_cell_angle_gamma 90.000000
_cell_volume 6210.506944
_symmetry_space_group_name_H-M "C M M M"
_symmetry_group_IT_number 65
_symmetry_cell_setting 'orthorhombic'
loop_
_space_group_symop_operation_xyz
x,y,z
-x,-y,z
x,-y,-z
-x,y,-z
-x,-y,-z
x,y,-z
-x,y,z
x,-y,z
1/2+x,1/2+y,z
1/2-x,1/2-y,z
1/2+x,1/2-y,-z
1/2-x,1/2+y,-z
1/2-x,1/2-y,-z
1/2+x,1/2+y,-z
1/2-x,1/2+y,z
1/2+x,1/2-y,z
loop_
_atom_site_type_symbol
_atom_site_label
_atom_site_fract_x
_atom_site_fract_y
_atom_site_fract_z
Si Si1 0.285122 0.442284 0.700249
Si Si2 0.802468 0.745852 0.703700
Si Si3 0.639708 0.848140 0.791400
Si Si4 0.053193 0.000000 0.289117
Si Si5 0.947536 0.288221 0.210133
Si Si6 0.318334 0.054033 0.200986
Si Si7 0.108270 0.804955 0.201091
Si Si8 0.117303 0.087618 0.701397
O O1 0.279164 0.428393 0.500000
O O2 0.293775 0.500000 0.707363
O O3 0.236050 0.433177 0.787287
O O4 0.330844 0.417580 0.775576
O O5 0.801210 0.754632 0.500000
O O6 0.750000 0.750000 0.770613
O O7 0.823412 0.692663 0.737031
O O8 0.839840 0.783772 0.776938
O O9 0.589322 0.828953 0.736984
O O10 0.653133 0.901112 0.725343
O O11 0.640473 0.848899 0.000000
O O12 0.081407 0.952297 0.231761
O O13 0.052041 0.000000 0.500000
O O14 0.000000 0.000000 0.231763
O O15 0.925968 0.236932 0.267480
O O16 0.000000 0.295284 0.267434
O O17 0.947490 0.287580 0.000000
O O18 0.324257 0.000000 0.277091
O O19 0.330390 0.050712 0.000000
O O20 0.101949 0.857227 0.282943
O O21 0.099289 0.810871 0.000000
O O22 0.122868 0.075613 0.500000
#
# Coordination Sequence:
#
# PCOD9486652 Si02
#       8
#    16  16  16   8  16  16  16  16
#     4   9  17  30  47  66  91 128 169 203 238 283
#     4  10  21  35  50  71 100 134 167 204 251 300
#     4   9  18  32  51  75 101 132 167 203 245 294
#     4   9  18  34  55  75  97 133 177 221 270 313
#     4   8  15  31  53  72  92 123 164 204 244 293
#     4   9  18  31  47  72 105 136 165 199 240 287
#     4  10  21  34  50  74 100 129 165 206 254 305
#     4  10  19  33  51  71  98 129 167 214 256 302
#
# _framework density 19.322095000000001
#
# number of rings (size 3 to 8) (size 9 to 14) (size 15 to 20)
#    0.000    2.733    0.667    1.600    1.867    2.667 
#    0.000    0.333    0.000   10.400    0.000    2.800 
#    0.000    0.000    0.000    8.133    0.000    8.800 
#
# Total GULP energy -334592.044803 kJ/mol
# GULP energy per Si atom -5576.534080 kJ/mol
# Density = 1.927812 g / cm^3
# Si number density = 19.322095 Si / 1000 Ang^3
#
#
#
# Elastic Constant Matrix: (Units=GPa)
#
#
# Indices 1 2 3 4 5 6 
#
# 1 148.4950 85.4998 -5.7929 0.0000 0.0000 0.0000
# 2 85.4998 140.2622 -5.9309 0.0000 0.0000 0.0000
# 3 -5.7929 -5.9309 21.3094 0.0000 0.0000 0.0000
# 4 0.0000 0.0000 0.0000 -8.4251 0.0000 0.0000
# 5 0.0000 0.0000 0.0000 0.0000 14.3314 0.0000
# 6 0.0000 0.0000 0.0000 0.0000 0.0000 11.4125
#
#
#
# Elastic Compliance Matrix: (Units=1/GPa)
#
#
# Indices 1 2 3 4 5 6 
#
# 1 0.010400 -0.006294 0.001075 0.000000 0.000000 0.000000
# 2 -0.006294 0.011024 0.001357 0.000000 0.000000 0.000000
# 3 0.001075 0.001357 0.047598 0.000000 0.000000 0.000000
# 4 0.000000 0.000000 0.000000 -0.118693 0.000000 0.000000
# 5 0.000000 0.000000 0.000000 0.000000 0.069777 0.000000
# 6 0.000000 0.000000 0.000000 0.000000 0.000000 0.087623
#
#
# Mechanical properties :
#
#
# Convention : Reuss Voigt Hill
#
# Bulk Modulus (GPa) = 16.31365 50.84649 33.58007
# Shear Modulus (GPa) = 36.79582 19.21646 28.00614
#
# Velocity S-wave (km/s) = 4.36861 3.15704 3.81128
# Velocity P-wave (km/s) = 5.82303 6.29774 6.06503
#
# Compressibility (1/GPa) = 0.06129836
#
# Stress axis : x y z
#
# Youngs Moduli (GPa) = 96.15167 90.71405 21.00937
#
# Poissons Ratio (x) = 0.57097 -0.02259
# Poissons Ratio (y) = 0.60520 -0.02851
# Poissons Ratio (z) = -0.10341 -0.12311
#
# Static dielectric constant tensor:
#      x y z
#    x 1.669760 0.000000 0.000000 
#    y 0.000000 1.670350 0.000000 
#    z 0.000000 0.000000 1.731410 
# 
# From -- ./inp_files/17046.got.cif
#   From: 2010.05.17/outbox.cif.g08.bks.cpg/sg65_9_cif.got.tgz:17046.got - 2010.06.03 17:01:31.
