data_PCOD9486355
_publ_section_title
;
Structure prediction by ZEFSAII (Michael W. Deem and Ramdas Pophale) SiO2 
 PCOD9486355
Probable space group: C M M M
;
_chemical_formula_sum "Si O2"
_cell_formula_units_Z 96
_cell_length_a 29.497753
_cell_length_b 10.105355
_cell_length_c 18.980829
_cell_angle_alpha 90.000000
_cell_angle_beta 90.000000
_cell_angle_gamma 90.000000
_cell_volume 5657.905457
_symmetry_space_group_name_H-M "C M M M"
_symmetry_group_IT_number 65
_symmetry_cell_setting 'orthorhombic'
loop_
_space_group_symop_operation_xyz
x,y,z
-x,-y,z
x,-y,-z
-x,y,-z
-x,-y,-z
x,y,-z
-x,y,z
x,-y,z
1/2+x,1/2+y,z
1/2-x,1/2-y,z
1/2+x,1/2-y,-z
1/2-x,1/2+y,-z
1/2-x,1/2-y,-z
1/2+x,1/2+y,-z
1/2-x,1/2+y,z
1/2+x,1/2-y,z
loop_
_atom_site_type_symbol
_atom_site_label
_atom_site_fract_x
_atom_site_fract_y
_atom_site_fract_z
Si Si1 0.709794 0.000000 0.414424
Si Si2 0.371000 0.651179 0.916943
Si Si3 0.314294 0.500000 0.414114
Si Si4 0.447806 0.156210 0.672135
Si Si5 0.140014 0.272146 0.415075
Si Si6 0.709915 0.152876 0.085572
Si Si7 0.052262 0.150289 0.802272
O O1 0.679565 0.125595 0.393686
O O2 0.712048 0.000000 0.500000
O O3 0.761852 0.000000 0.389753
O O4 0.352477 0.500000 0.907045
O O5 0.335702 0.766266 0.898209
O O6 0.414522 0.665037 0.867917
O O7 0.381578 0.662740 0.000000
O O8 0.312553 0.500000 0.500000
O O9 0.341982 0.370892 0.392623
O O10 0.500000 0.183692 0.648552
O O11 0.408458 0.191235 0.617054
O O12 0.439266 0.243716 0.741381
O O13 0.445139 0.000000 0.687595
O O14 0.136729 0.276365 0.500000
O O15 0.750000 0.250000 0.110415
O O16 0.711479 0.000000 0.110371
O O17 0.713205 0.147130 0.000000
O O18 0.000000 0.163916 0.824651
O O19 0.058095 0.000000 0.774283
#
# Coordination Sequence:
#
# PCOD9486355 Si02
#       7
#     8  16   8  16  16  16  16
#     4   9  16  30  51  75 105 137 169 208 252 304
#     4   9  17  30  50  77 104 129 162 206 254 302
#     4   9  18  30  49  77 107 135 167 210 260 308
#     4  10  21  36  53  73  99 136 178 215 255 306
#     4  10  19  32  51  79 107 135 173 214 257 300
#     4   9  16  26  43  69 100 132 165 200 241 292
#     4   9  19  35  54  75  99 132 169 204 250 307
#
# _framework density 16.967410000000001
#
# number of rings (size 3 to 8) (size 9 to 14) (size 15 to 20)
#    0.000    2.667    0.833    1.000    1.167    5.333 
#    0.000    2.500    0.000    3.500    0.000    4.667 
#    0.000    0.000    0.000    0.000    0.000    0.000 
#
# Total GULP energy -267341.989332 kJ/mol
# GULP energy per Si atom -5569.624778 kJ/mol
# Density = 1.692879 g / cm^3
# Si number density = 16.967410 Si / 1000 Ang^3
#
#
#
# Elastic Constant Matrix: (Units=GPa)
#
#
# Indices 1 2 3 4 5 6 
#
# 1 110.5877 79.3879 43.8097 0.0000 0.0000 0.0000
# 2 79.3879 158.7337 39.0936 0.0000 0.0000 0.0000
# 3 43.8097 39.0936 25.0811 0.0000 0.0000 0.0000
# 4 0.0000 0.0000 0.0000 14.7521 0.0000 0.0000
# 5 0.0000 0.0000 0.0000 0.0000 -22.8106 0.0000
# 6 0.0000 0.0000 0.0000 0.0000 0.0000 25.5575
#
#
#
# Elastic Compliance Matrix: (Units=1/GPa)
#
#
# Indices 1 2 3 4 5 6 
#
# 1 0.030484 -0.003461 -0.047853 0.000000 0.000000 0.000000
# 2 -0.003461 0.010618 -0.010505 0.000000 0.000000 0.000000
# 3 -0.047853 -0.010505 0.139832 0.000000 0.000000 0.000000
# 4 0.000000 0.000000 0.000000 0.067787 0.000000 0.000000
# 5 0.000000 0.000000 0.000000 0.000000 -0.043839 0.000000
# 6 0.000000 0.000000 0.000000 0.000000 0.000000 0.039127
#
#
# Mechanical properties :
#
#
# Convention : Reuss Voigt Hill
#
# Bulk Modulus (GPa) = 17.45344 68.77610 43.11477
# Shear Modulus (GPa) = 12.92837 12.30722 12.61780
#
# Velocity S-wave (km/s) = 2.76334 2.69614 2.72995
# Velocity P-wave (km/s) = 4.52661 7.09327 5.94999
#
# Compressibility (1/GPa) = 0.05729529
#
# Stress axis : x y z
#
# Youngs Moduli (GPa) = 32.80384 94.18052 7.15144
#
# Poissons Ratio (x) = 0.32592 0.34222
# Poissons Ratio (y) = 0.11352 0.07513
# Poissons Ratio (z) = 1.56978 0.98939
#
# Static dielectric constant tensor:
#      x y z
#    x 1.568220 0.000000 0.000000 
#    y 0.000000 1.595670 0.000000 
#    z 0.000000 0.000000 1.538240 
# 
# From -- ./inp_files/71488.got.cif
#   From: 2010.05.17/outbox.cif.g08.bks.cpg/sg65_36_cif.got.tgz:71488.got - 2010.06.03 17:01:31.
