data_PCOD9486185
_publ_section_title
;
Structure prediction by ZEFSAII (Michael W. Deem and Ramdas Pophale) SiO2 
 PCOD9486185
Probable space group: C M M M
;
_chemical_formula_sum "Si O2"
_cell_formula_units_Z 88
_cell_length_a 8.633687
_cell_length_b 28.079312
_cell_length_c 21.814533
_cell_angle_alpha 90.000000
_cell_angle_beta 90.000000
_cell_angle_gamma 90.000000
_cell_volume 5288.453409
_symmetry_space_group_name_H-M "C M M M"
_symmetry_group_IT_number 65
_symmetry_cell_setting 'orthorhombic'
loop_
_space_group_symop_operation_xyz
x,y,z
-x,-y,z
x,-y,-z
-x,y,-z
-x,-y,-z
x,y,-z
-x,y,z
x,-y,z
1/2+x,1/2+y,z
1/2-x,1/2-y,z
1/2+x,1/2-y,-z
1/2-x,1/2+y,-z
1/2-x,1/2-y,-z
1/2+x,1/2+y,-z
1/2-x,1/2+y,z
1/2+x,1/2-y,z
loop_
_atom_site_type_symbol
_atom_site_label
_atom_site_fract_x
_atom_site_fract_y
_atom_site_fract_z
Si Si1 0.185892 0.555582 0.000000
Si Si2 0.313414 0.144376 0.309685
Si Si3 0.312791 0.803362 0.568352
Si Si4 0.686568 0.446109 0.752839
Si Si5 0.814142 0.894229 0.121121
Si Si6 0.185944 0.302758 0.184687
O O1 0.247767 0.582547 0.940053
O O2 0.235976 0.500000 0.000000
O O3 0.000000 0.556570 0.000000
O O4 0.500000 0.143273 0.309880
O O5 0.259297 0.164907 0.374644
O O6 0.251927 0.092074 0.294614
O O7 0.266172 0.178227 0.252551
O O8 0.266813 0.820093 0.500000
O O9 0.500000 0.801735 0.570095
O O10 0.250000 0.750000 0.575986
O O11 0.500000 0.445500 0.749725
O O12 0.740630 0.500000 0.743426
O O13 0.729870 0.427155 0.820543
O O14 0.749685 0.841862 0.137054
O O15 0.000000 0.892246 0.117599
O O16 0.250000 0.250000 0.174437
O O17 0.000000 0.302235 0.182108
#
# Coordination Sequence:
#
# PCOD9486185 Si02
#       6
#     8  16  16  16  16  16
#     4  11  23  37  54  77 104 131 159 195 239 285
#     4   9  18  30  46  70  97 126 160 198 239 284
#     4   9  17  29  45  67  96 127 159 195 235 281
#     4   9  18  32  50  72  96 122 156 199 242 283
#     4  10  20  35  54  75  99 128 162 198 239 286
#     4  10  19  32  50  73 101 130 162 199 240 286
#
# _framework density 16.640025000000001
#
# number of rings (size 3 to 8) (size 9 to 14) (size 15 to 20)
#    0.000    2.455    0.000    2.455    0.000    4.000 
#    0.000    0.455    0.000    0.545    0.000    3.818 
#    0.000    0.000    0.000    0.000    0.000    0.000 
#
# Total GULP energy -245433.967020 kJ/mol
# GULP energy per Si atom -5578.044705 kJ/mol
# Density = 1.660215 g / cm^3
# Si number density = 16.640025 Si / 1000 Ang^3
#
#
#
# Elastic Constant Matrix: (Units=GPa)
#
#
# Indices 1 2 3 4 5 6 
#
# 1 26.0732 35.8251 32.9190 0.0000 0.0000 0.0000
# 2 35.8251 167.5230 96.3809 0.0000 0.0000 0.0000
# 3 32.9190 96.3809 149.7189 0.0000 0.0000 0.0000
# 4 0.0000 0.0000 0.0000 21.6031 0.0000 0.0000
# 5 0.0000 0.0000 0.0000 0.0000 17.9940 0.0000
# 6 0.0000 0.0000 0.0000 0.0000 0.0000 29.5238
#
#
#
# Elastic Compliance Matrix: (Units=1/GPa)
#
#
# Indices 1 2 3 4 5 6 
#
# 1 0.059506 -0.008256 -0.007769 0.000000 0.000000 0.000000
# 2 -0.008256 0.010626 -0.005025 0.000000 0.000000 0.000000
# 3 -0.007769 -0.005025 0.011622 0.000000 0.000000 0.000000
# 4 0.000000 0.000000 0.000000 0.046290 0.000000 0.000000
# 5 0.000000 0.000000 0.000000 0.000000 0.055574 0.000000
# 6 0.000000 0.000000 0.000000 0.000000 0.000000 0.033871
#
#
# Mechanical properties :
#
#
# Convention : Reuss Voigt Hill
#
# Bulk Modulus (GPa) = 25.21800 74.84058 50.02929
# Shear Modulus (GPa) = 18.32797 25.70354 22.01575
#
# Velocity S-wave (km/s) = 3.32239 3.93451 3.64134
# Velocity P-wave (km/s) = 5.46861 8.10644 6.91448
#
# Compressibility (1/GPa) = 0.03965422
#
# Stress axis : x y z
#
# Youngs Moduli (GPa) = 16.80504 94.10889 86.04073
#
# Poissons Ratio (x) = 0.77693 0.66847
# Poissons Ratio (y) = 0.13874 0.43238
# Poissons Ratio (z) = 0.13056 0.47292
#
# Static dielectric constant tensor:
#      x y z
#    x 1.562050 0.000000 0.000000 
#    y 0.000000 1.535560 0.000000 
#    z 0.000000 0.000000 1.558470 
# 
# From -- ./inp_files/59790.got.cif
#   From: 2010.05.17/outbox.cif.g08.bks.cpg/sg65_30_cif.got.tgz:59790.got - 2010.06.03 17:01:31.
