data_PCOD9486503
_publ_section_title
;
Structure prediction by ZEFSAII (Michael W. Deem and Ramdas Pophale) SiO2 
 PCOD9486503
Probable space group: C M M M
;
_chemical_formula_sum "Si O2"
_cell_formula_units_Z 64
_cell_length_a 25.626367
_cell_length_b 15.165320
_cell_length_c 8.540134
_cell_angle_alpha 90.000000
_cell_angle_beta 90.000000
_cell_angle_gamma 90.000000
_cell_volume 3318.969835
_symmetry_space_group_name_H-M "C M M M"
_symmetry_group_IT_number 65
_symmetry_cell_setting 'orthorhombic'
loop_
_space_group_symop_operation_xyz
x,y,z
-x,-y,z
x,-y,-z
-x,y,-z
-x,-y,-z
x,y,-z
-x,y,z
x,-y,z
1/2+x,1/2+y,z
1/2-x,1/2-y,z
1/2+x,1/2-y,-z
1/2-x,1/2+y,-z
1/2-x,1/2-y,-z
1/2+x,1/2+y,-z
1/2-x,1/2+y,z
1/2+x,1/2-y,z
loop_
_atom_site_type_symbol
_atom_site_label
_atom_site_fract_x
_atom_site_fract_y
_atom_site_fract_z
Si Si1 0.440070 0.000000 0.808534
Si Si2 0.638837 0.350494 0.689409
Si Si3 0.136983 0.346943 0.186210
Si Si4 0.247114 0.357308 0.319526
Si Si5 0.059577 0.000000 0.691325
O O1 0.407446 0.914204 0.758327
O O2 0.500000 0.000000 0.756589
O O3 0.440159 0.000000 0.000000
O O4 0.641298 0.351154 0.500000
O O5 0.631015 0.250281 0.742374
O O6 0.696066 0.384261 0.743132
O O7 0.592526 0.414440 0.740235
O O8 0.194736 0.381819 0.229793
O O9 0.133689 0.339461 0.000000
O O10 0.241855 0.385646 0.500000
O O11 0.250000 0.250000 0.318675
O O12 0.058788 0.000000 0.500000
O O13 0.000000 0.000000 0.745565
#
# Coordination Sequence:
#
# PCOD9486503 Si02
#       5
#     8  16  16  16   8
#     4   9  20  37  51  67  97 135 170 201 244 302
#     4   9  18  33  52  75 103 133 162 195 244 299
#     4  10  19  32  53  76  97 127 166 206 245 288
#     4   8  15  29  49  73 102 131 157 193 245 300
#     4   9  18  33  53  75  99 131 170 205 238 286
#
# _framework density 19.283093000000001
#
# number of rings (size 3 to 8) (size 9 to 14) (size 15 to 20)
#    0.000    3.000    0.000    2.250    0.000    6.500 
#    0.000    4.375    0.000    6.000    0.000    0.000 
#    0.000    0.000    0.000    0.000    0.000    0.000 
#
# Total GULP energy -178435.272366 kJ/mol
# GULP energy per Si atom -5576.102261 kJ/mol
# Density = 1.923920 g / cm^3
# Si number density = 19.283093 Si / 1000 Ang^3
#
#
#
# Elastic Constant Matrix: (Units=GPa)
#
#
# Indices 1 2 3 4 5 6 
#
# 1 217.7320 95.4895 20.9254 0.0000 0.0000 0.0000
# 2 95.4895 105.5658 12.1450 0.0000 0.0000 0.0000
# 3 20.9254 12.1450 7.4717 0.0000 0.0000 0.0000
# 4 0.0000 0.0000 0.0000 22.2135 0.0000 0.0000
# 5 0.0000 0.0000 0.0000 0.0000 21.7571 0.0000
# 6 0.0000 0.0000 0.0000 0.0000 0.0000 34.1643
#
#
#
# Elastic Compliance Matrix: (Units=1/GPa)
#
#
# Indices 1 2 3 4 5 6 
#
# 1 0.008689 -0.006224 -0.014217 0.000000 0.000000 0.000000
# 2 -0.006224 0.016110 -0.008756 0.000000 0.000000 0.000000
# 3 -0.014217 -0.008756 0.187888 0.000000 0.000000 0.000000
# 4 0.000000 0.000000 0.000000 0.045018 0.000000 0.000000
# 5 0.000000 0.000000 0.000000 0.000000 0.045962 0.000000
# 6 0.000000 0.000000 0.000000 0.000000 0.000000 0.029270
#
#
# Mechanical properties :
#
#
# Convention : Reuss Voigt Hill
#
# Bulk Modulus (GPa) = 6.48118 65.32104 35.90111
# Shear Modulus (GPa) = 11.29279 29.10761 20.20020
#
# Velocity S-wave (km/s) = 2.42261 3.88943 3.24011
# Velocity P-wave (km/s) = 3.34570 7.35653 5.71455
#
# Compressibility (1/GPa) = 0.15429290
#
# Stress axis : x y z
#
# Youngs Moduli (GPa) = 115.09278 62.07443 5.32233
#
# Poissons Ratio (x) = 0.38633 0.07567
# Poissons Ratio (y) = 0.71630 0.04660
# Poissons Ratio (z) = 1.63630 0.54350
#
# Static dielectric constant tensor:
#      x y z
#    x 1.686840 0.000000 0.000000 
#    y 0.000000 1.678060 0.000000 
#    z 0.000000 0.000000 1.658870 
# 
# From -- ./inp_files/15654.got.cif
#   From: 2010.05.17/outbox.cif.g08.bks.cpg/sg65_8_cif.got.tgz:15654.got - 2010.06.03 17:01:31.
