data_PCOD9486640
_publ_section_title
;
Structure prediction by ZEFSAII (Michael W. Deem and Ramdas Pophale) SiO2 
 PCOD9486640
Probable space group: C M M M
;
_chemical_formula_sum "Si O2"
_cell_formula_units_Z 104
_cell_length_a 23.453901
_cell_length_b 14.092357
_cell_length_c 19.321322
_cell_angle_alpha 90.000000
_cell_angle_beta 90.000000
_cell_angle_gamma 90.000000
_cell_volume 6386.097760
_symmetry_space_group_name_H-M "C M M M"
_symmetry_group_IT_number 65
_symmetry_cell_setting 'orthorhombic'
loop_
_space_group_symop_operation_xyz
x,y,z
-x,-y,z
x,-y,-z
-x,y,-z
-x,-y,-z
x,y,-z
-x,y,z
x,-y,z
1/2+x,1/2+y,z
1/2-x,1/2-y,z
1/2+x,1/2-y,-z
1/2-x,1/2+y,-z
1/2-x,1/2-y,-z
1/2+x,1/2+y,-z
1/2-x,1/2+y,z
1/2+x,1/2-y,z
loop_
_atom_site_type_symbol
_atom_site_label
_atom_site_fract_x
_atom_site_fract_y
_atom_site_fract_z
Si Si1 0.066603 0.262890 0.419436
Si Si2 0.662577 0.386881 0.577593
Si Si3 0.250000 0.750000 0.826377
Si Si4 0.935812 0.385421 0.836650
Si Si5 0.873707 0.612913 0.695542
Si Si6 0.672920 0.111603 0.918451
Si Si7 0.761945 0.887445 0.290245
O O1 0.070211 0.292594 0.500000
O O2 0.102771 0.166328 0.412934
O O3 0.097608 0.336368 0.369211
O O4 0.000000 0.252230 0.401958
O O5 0.684100 0.362312 0.500000
O O6 0.655117 0.500000 0.579983
O O7 0.705428 0.361030 0.639317
O O8 0.288915 0.816989 0.873975
O O9 0.218642 0.823111 0.774034
O O10 0.939493 0.500000 0.832613
O O11 0.905055 0.354262 0.765780
O O12 0.892597 0.365920 0.899110
O O13 0.000000 0.348362 0.843504
O O14 0.881903 0.500000 0.689613
O O15 0.805914 0.628697 0.701007
O O16 0.682994 0.000000 0.898769
O O17 0.683276 0.120780 0.000000
O O18 0.770288 0.000000 0.277527
#
# Coordination Sequence:
#
# PCOD9486640 Si02
#       7
#    16  16   8  16  16  16  16
#     4  10  21  34  48  70  99 132 171 212 252 297
#     4   9  19  35  52  72  98 129 169 216 260 297
#     4  12  19  32  53  74 104 140 166 200 253 300
#     4   9  17  31  51  72  97 132 167 200 242 290
#     4  10  19  33  50  71 100 134 165 200 249 302
#     4  10  21  35  51  76 107 135 168 207 246 298
#     4  10  20  33  53  77 101 131 169 210 252 299
#
# _framework density 16.285374999999998
#
# number of rings (size 3 to 8) (size 9 to 14) (size 15 to 20)
#    0.000    2.154    1.538    2.077    0.000    2.462 
#    0.000    7.308    0.000    0.000    0.000    0.000 
#    0.000    1.846    0.000    7.538    0.000    0.615 
#
# Total GULP energy -289861.782451 kJ/mol
# GULP energy per Si atom -5574.265047 kJ/mol
# Density = 1.624831 g / cm^3
# Si number density = 16.285375 Si / 1000 Ang^3
#
#
#
# Elastic Constant Matrix: (Units=GPa)
#
#
# Indices 1 2 3 4 5 6 
#
# 1 86.2702 42.5007 54.5159 0.0000 0.0000 0.0000
# 2 42.5007 62.5580 51.7721 0.0000 0.0000 0.0000
# 3 54.5159 51.7721 99.5521 0.0000 0.0000 0.0000
# 4 0.0000 0.0000 0.0000 30.8788 0.0000 0.0000
# 5 0.0000 0.0000 0.0000 0.0000 22.5534 0.0000
# 6 0.0000 0.0000 0.0000 0.0000 0.0000 18.3861
#
#
#
# Elastic Compliance Matrix: (Units=1/GPa)
#
#
# Indices 1 2 3 4 5 6 
#
# 1 0.019686 -0.007817 -0.006715 0.000000 0.000000 0.000000
# 2 -0.007817 0.031167 -0.011928 0.000000 0.000000 0.000000
# 3 -0.006715 -0.011928 0.019925 0.000000 0.000000 0.000000
# 4 0.000000 0.000000 0.000000 0.032385 0.000000 0.000000
# 5 0.000000 0.000000 0.000000 0.000000 0.044339 0.000000
# 6 0.000000 0.000000 0.000000 0.000000 0.000000 0.054389
#
#
# Mechanical properties :
#
#
# Convention : Reuss Voigt Hill
#
# Bulk Modulus (GPa) = 55.99504 60.66195 58.32850
# Shear Modulus (GPa) = 19.17446 21.00310 20.08878
#
# Velocity S-wave (km/s) = 3.43505 3.59512 3.51600
# Velocity P-wave (km/s) = 7.08457 7.38671 7.23721
#
# Compressibility (1/GPa) = 0.01785872
#
# Stress axis : x y z
#
# Youngs Moduli (GPa) = 50.79805 32.08505 50.18759
#
# Poissons Ratio (x) = 0.25081 0.33701
# Poissons Ratio (y) = 0.39709 0.59863
# Poissons Ratio (z) = 0.34111 0.38271
#
# Static dielectric constant tensor:
#      x y z
#    x 1.539470 0.000000 0.000000 
#    y 0.000000 1.550060 0.000000 
#    z 0.000000 0.000000 1.558520 
# 
# From -- ./inp_files/55872.got.cif
#   From: 2010.05.17/outbox.cif.g08.bks.cpg/sg65_28_cif.got.tgz:55872.got - 2010.06.03 17:01:31.
