data_PCOD9486204
_publ_section_title
;
Structure prediction by ZEFSAII (Michael W. Deem and Ramdas Pophale) SiO2 
 PCOD9486204
Probable space group: C M M M
;
_chemical_formula_sum "Si O2"
_cell_formula_units_Z 128
_cell_length_a 15.943573
_cell_length_b 24.209083
_cell_length_c 18.210642
_cell_angle_alpha 90.000000
_cell_angle_beta 90.000000
_cell_angle_gamma 90.000000
_cell_volume 7028.930525
_symmetry_space_group_name_H-M "C M M M"
_symmetry_group_IT_number 65
_symmetry_cell_setting 'orthorhombic'
loop_
_space_group_symop_operation_xyz
x,y,z
-x,-y,z
x,-y,-z
-x,y,-z
-x,-y,-z
x,y,-z
-x,y,z
x,-y,z
1/2+x,1/2+y,z
1/2-x,1/2-y,z
1/2+x,1/2-y,-z
1/2-x,1/2+y,-z
1/2-x,1/2-y,-z
1/2+x,1/2+y,-z
1/2-x,1/2+y,z
1/2+x,1/2-y,z
loop_
_atom_site_type_symbol
_atom_site_label
_atom_site_fract_x
_atom_site_fract_y
_atom_site_fract_z
Si Si1 0.092326 0.565353 0.159954
Si Si2 0.829094 0.063286 0.761670
Si Si3 0.230748 0.913161 0.916208
Si Si4 0.406461 0.349120 0.665045
Si Si5 0.905163 0.253370 0.224800
Si Si6 0.742189 0.816329 0.414582
Si Si7 0.667176 0.137614 0.275608
Si Si8 0.668113 0.287946 0.920252
O O1 0.100633 0.500000 0.174494
O O2 0.171851 0.581241 0.109193
O O3 0.098794 0.599312 0.236030
O O4 0.000000 0.575419 0.126854
O O5 0.825638 0.061738 0.850472
O O6 0.899600 0.097454 0.718366
O O7 0.749628 0.101895 0.741603
O O8 0.822333 0.000000 0.736133
O O9 0.202473 0.849784 0.916025
O O10 0.221371 0.933979 0.000000
O O11 0.500000 0.346698 0.633071
O O12 0.393702 0.295249 0.716451
O O13 0.331210 0.344433 0.606825
O O14 0.840330 0.303301 0.235434
O O15 0.892276 0.226690 0.145804
O O16 0.000000 0.275131 0.233340
O O17 0.722866 0.823965 0.500000
O O18 0.750000 0.750000 0.401061
O O19 0.673921 0.844425 0.360472
O O20 0.750000 0.250000 0.915197
O O21 0.628242 0.279160 0.000000
#
# Coordination Sequence:
#
# PCOD9486204 Si02
#       8
#    16  16  16  16  16  16  16  16
#     4  10  21  35  52  77 108 144 186 230 274 318
#     4  10  20  34  55  79 105 144 191 230 267 315
#     4  10  19  32  50  74 104 141 184 232 283 326
#     4  10  21  36  56  83 110 141 178 219 271 325
#     4  11  21  33  54  80 106 143 182 221 272 323
#     4  10  20  35  57  86 116 142 167 206 264 330
#     4  10  19  33  57  81 108 140 177 220 262 320
#     4  10  20  32  49  73 105 143 182 226 274 325
#
# _framework density 18.210450999999999
#
# number of rings (size 3 to 8) (size 9 to 14) (size 15 to 20)
#    0.000    1.875    2.500    3.375    1.750    2.000 
#    0.000    0.625    0.000   16.500    0.000    5.250 
#    0.000    0.000    0.000    0.000    0.000    0.000 
#
# Total GULP energy -356423.564566 kJ/mol
# GULP energy per Si atom -5569.118196 kJ/mol
# Density = 1.816900 g / cm^3
# Si number density = 18.210451 Si / 1000 Ang^3
#
#
#
# Elastic Constant Matrix: (Units=GPa)
#
#
# Indices 1 2 3 4 5 6 
#
# 1 35.0276 14.6166 6.2557 0.0000 0.0000 0.0000
# 2 14.6166 103.2137 24.5147 0.0000 0.0000 0.0000
# 3 6.2557 24.5147 99.1685 0.0000 0.0000 0.0000
# 4 0.0000 0.0000 0.0000 2.5084 0.0000 0.0000
# 5 0.0000 0.0000 0.0000 0.0000 14.8356 0.0000
# 6 0.0000 0.0000 0.0000 0.0000 0.0000 19.8874
#
#
#
# Elastic Compliance Matrix: (Units=1/GPa)
#
#
# Indices 1 2 3 4 5 6 
#
# 1 0.030419 -0.004092 -0.000907 0.000000 0.000000 0.000000
# 2 -0.004092 0.010844 -0.002422 0.000000 0.000000 0.000000
# 3 -0.000907 -0.002422 0.010740 0.000000 0.000000 0.000000
# 4 0.000000 0.000000 0.000000 0.398664 0.000000 0.000000
# 5 0.000000 0.000000 0.000000 0.000000 0.067405 0.000000
# 6 0.000000 0.000000 0.000000 0.000000 0.000000 0.050283
#
#
# Mechanical properties :
#
#
# Convention : Reuss Voigt Hill
#
# Bulk Modulus (GPa) = 26.91194 36.46489 31.68841
# Shear Modulus (GPa) = 8.39512 20.24780 14.32146
#
# Velocity S-wave (km/s) = 2.14943 3.33810 2.80740
# Velocity P-wave (km/s) = 4.57935 5.90972 5.28655
#
# Compressibility (1/GPa) = 0.03715823
#
# Stress axis : x y z
#
# Youngs Moduli (GPa) = 32.87462 92.22102 93.11073
#
# Poissons Ratio (x) = 0.37739 0.08447
# Poissons Ratio (y) = 0.13453 0.22555
# Poissons Ratio (z) = 0.02982 0.22340
#
# Static dielectric constant tensor:
#      x y z
#    x 1.667680 0.000000 0.000000 
#    y 0.000000 1.637250 0.000000 
#    z 0.000000 0.000000 1.639330 
# 
# From -- ./inp_files/55089.got.cif
#   From: 2010.05.17/outbox.cif.g08.bks.cpg/sg65_28_cif.got.tgz:55089.got - 2010.06.03 17:01:31.
