data_PCOD9486182
_publ_section_title
;
Structure prediction by ZEFSAII (Michael W. Deem and Ramdas Pophale) SiO2 
 PCOD9486182
Probable space group: C M M M
;
_chemical_formula_sum "Si O2"
_cell_formula_units_Z 96
_cell_length_a 22.303988
_cell_length_b 13.971339
_cell_length_c 18.930026
_cell_angle_alpha 90.000000
_cell_angle_beta 90.000000
_cell_angle_gamma 90.000000
_cell_volume 5898.909912
_symmetry_space_group_name_H-M "C M M M"
_symmetry_group_IT_number 65
_symmetry_cell_setting 'orthorhombic'
loop_
_space_group_symop_operation_xyz
x,y,z
-x,-y,z
x,-y,-z
-x,y,-z
-x,-y,-z
x,y,-z
-x,y,z
x,-y,z
1/2+x,1/2+y,z
1/2-x,1/2-y,z
1/2+x,1/2-y,-z
1/2-x,1/2+y,-z
1/2-x,1/2-y,-z
1/2+x,1/2+y,-z
1/2-x,1/2+y,z
1/2+x,1/2-y,z
loop_
_atom_site_type_symbol
_atom_site_label
_atom_site_fract_x
_atom_site_fract_y
_atom_site_fract_z
Si Si1 0.658643 0.195642 0.918931
Si Si2 0.714423 0.612933 0.709347
Si Si3 0.352550 0.887148 0.332366
Si Si4 0.179006 0.773817 0.577276
Si Si5 0.429609 0.885297 0.804479
Si Si6 0.787074 0.886037 0.127403
O O1 0.605270 0.167677 0.866862
O O2 0.718274 0.139837 0.891809
O O3 0.673715 0.308889 0.914782
O O4 0.647157 0.168889 0.000000
O O5 0.706814 0.500000 0.703387
O O6 0.785216 0.632444 0.696959
O O7 0.676421 0.660443 0.646859
O O8 0.701325 0.638800 0.790108
O O9 0.356403 0.822056 0.401625
O O10 0.398826 0.861959 0.270623
O O11 0.357062 0.000000 0.347422
O O12 0.161161 0.811863 0.500000
O O13 0.250000 0.750000 0.572067
O O14 0.500000 0.864061 0.803851
O O15 0.421732 0.000000 0.814190
O O16 0.797053 0.000000 0.116347
#
# Coordination Sequence:
#
# PCOD9486182 Si02
#       6
#    16  16  16  16  16  16
#     4  11  22  32  48  74 101 129 160 202 254 304
#     4   9  16  26  44  65  91 127 157 186 227 281
#     4   9  16  28  45  64  88 123 162 194 230 277
#     4   9  17  26  40  66  97 126 153 188 235 284
#     4  10  20  34  52  72  95 128 171 213 247 285
#     4  10  19  32  50  73 100 131 164 197 241 299
#
# _framework density 16.274194000000001
#
# number of rings (size 3 to 8) (size 9 to 14) (size 15 to 20)
#    0.000    2.333    1.667    2.500    4.667    3.333 
#    0.000    4.167    0.000    1.000    0.000    3.500 
#    0.000    0.000    0.000    6.000    0.000    2.000 
#
# Total GULP energy -267387.992323 kJ/mol
# GULP energy per Si atom -5570.583173 kJ/mol
# Density = 1.623715 g / cm^3
# Si number density = 16.274194 Si / 1000 Ang^3
#
#
#
# Elastic Constant Matrix: (Units=GPa)
#
#
# Indices 1 2 3 4 5 6 
#
# 1 59.9126 29.5705 34.2202 0.0000 0.0000 0.0000
# 2 29.5705 49.5458 37.4925 0.0000 0.0000 0.0000
# 3 34.2202 37.4925 108.2723 0.0000 0.0000 0.0000
# 4 0.0000 0.0000 0.0000 8.1862 0.0000 0.0000
# 5 0.0000 0.0000 0.0000 0.0000 0.6648 0.0000
# 6 0.0000 0.0000 0.0000 0.0000 0.0000 14.6524
#
#
#
# Elastic Compliance Matrix: (Units=1/GPa)
#
#
# Indices 1 2 3 4 5 6 
#
# 1 0.024686 -0.011965 -0.003659 0.000000 0.000000 0.000000
# 2 -0.011965 0.033149 -0.007697 0.000000 0.000000 0.000000
# 3 -0.003659 -0.007697 0.013058 0.000000 0.000000 0.000000
# 4 0.000000 0.000000 0.000000 0.122157 0.000000 0.000000
# 5 0.000000 0.000000 0.000000 0.000000 1.504122 0.000000
# 6 0.000000 0.000000 0.000000 0.000000 0.000000 0.068248
#
#
# Mechanical properties :
#
#
# Convention : Reuss Voigt Hill
#
# Bulk Modulus (GPa) = 41.23544 46.69966 43.96755
# Shear Modulus (GPa) = 2.74703 12.46384 7.60544
#
# Velocity S-wave (km/s) = 1.30063 2.77043 2.16413
# Velocity P-wave (km/s) = 5.25818 6.24432 5.77235
#
# Compressibility (1/GPa) = 0.02425099
#
# Stress axis : x y z
#
# Youngs Moduli (GPa) = 40.50849 30.16690 76.58198
#
# Poissons Ratio (x) = 0.36093 0.28023
# Poissons Ratio (y) = 0.48466 0.58948
# Poissons Ratio (z) = 0.14823 0.23220
#
# Static dielectric constant tensor:
#      x y z
#    x 1.513840 0.000000 0.000000 
#    y 0.000000 1.582960 0.000000 
#    z 0.000000 0.000000 1.573210 
# 
# From -- ./inp_files/64649.got.cif
#   From: 2010.05.17/outbox.cif.g08.bks.cpg/sg65_33_cif.got.tgz:64649.got - 2010.06.03 17:01:31.
