data_PCOD9486471
_publ_section_title
;
Structure prediction by ZEFSAII (Michael W. Deem and Ramdas Pophale) SiO2 
 PCOD9486471
Probable space group: C M M M
;
_chemical_formula_sum "Si O2"
_cell_formula_units_Z 104
_cell_length_a 8.370327
_cell_length_b 22.158659
_cell_length_c 29.044452
_cell_angle_alpha 90.000000
_cell_angle_beta 90.000000
_cell_angle_gamma 90.000000
_cell_volume 5387.026174
_symmetry_space_group_name_H-M "C M M M"
_symmetry_group_IT_number 65
_symmetry_cell_setting 'orthorhombic'
loop_
_space_group_symop_operation_xyz
x,y,z
-x,-y,z
x,-y,-z
-x,y,-z
-x,-y,-z
x,y,-z
-x,y,z
x,-y,z
1/2+x,1/2+y,z
1/2-x,1/2-y,z
1/2+x,1/2-y,-z
1/2-x,1/2+y,-z
1/2-x,1/2-y,-z
1/2+x,1/2+y,-z
1/2-x,1/2+y,z
1/2+x,1/2-y,z
loop_
_atom_site_type_symbol
_atom_site_label
_atom_site_fract_x
_atom_site_fract_y
_atom_site_fract_z
Si Si1 0.308120 0.815526 0.110742
Si Si2 0.695235 0.568688 0.724235
Si Si3 0.810838 0.500000 0.550864
Si Si4 0.688825 0.402140 0.379156
Si Si5 0.308793 0.182320 0.550254
Si Si6 0.305461 0.932543 0.946316
Si Si7 0.691847 0.315691 0.215957
O O1 0.500000 0.814940 0.110046
O O2 0.250000 0.750000 0.092967
O O3 0.251099 0.874401 0.082535
O O4 0.250442 0.820645 0.163385
O O5 0.500000 0.568710 0.724913
O O6 0.744926 0.500000 0.737002
O O7 0.748257 0.582694 0.671851
O O8 0.746604 0.624861 0.756052
O O9 0.738922 0.500000 0.500000
O O10 0.760811 0.555582 0.581846
O O11 0.000000 0.500000 0.546654
O O12 0.500000 0.411210 0.377714
O O13 0.731715 0.339096 0.401939
O O14 0.264339 0.152726 0.500000
O O15 0.500000 0.177349 0.553620
O O16 0.250000 0.250000 0.545865
O O17 0.500000 0.932453 0.944628
O O18 0.254137 0.000000 0.930464
O O19 0.260428 0.926374 0.000000
O O20 0.500000 0.314757 0.216512
O O21 0.750000 0.250000 0.233783
#
# Coordination Sequence:
#
# PCOD9486471 Si02
#       7
#    16  16   8  16  16  16  16
#     4  10  19  32  52  78 108 139 178 227 272 322
#     4   9  19  37  58  80 106 138 177 221 269 323
#     4  11  23  37  53  77 109 141 173 211 256 307
#     4  11  21  36  58  80 104 135 173 215 260 315
#     4  10  21  37  55  77 107 139 172 211 255 309
#     4   8  15  29  49  74 106 145 185 225 272 323
#     4  10  20  36  58  79 106 142 179 223 274 329
#
# _framework density 19.305643
#
# number of rings (size 3 to 8) (size 9 to 14) (size 15 to 20)
#    0.000    2.231    0.769    3.923    0.000    4.923 
#    0.000    4.615    0.000    2.769    0.000    4.308 
#    0.000    0.000    0.000    0.000    0.000    0.000 
#
# Total GULP energy -289714.212860 kJ/mol
# GULP energy per Si atom -5571.427170 kJ/mol
# Density = 1.926170 g / cm^3
# Si number density = 19.305643 Si / 1000 Ang^3
#
#
#
# Elastic Constant Matrix: (Units=GPa)
#
#
# Indices 1 2 3 4 5 6 
#
# 1 31.9926 14.8490 13.2546 0.0000 0.0000 0.0000
# 2 14.8490 180.3814 88.5787 0.0000 0.0000 0.0000
# 3 13.2546 88.5787 87.0898 0.0000 0.0000 0.0000
# 4 0.0000 0.0000 0.0000 64.7366 0.0000 0.0000
# 5 0.0000 0.0000 0.0000 0.0000 11.3866 0.0000
# 6 0.0000 0.0000 0.0000 0.0000 0.0000 30.0877
#
#
#
# Elastic Compliance Matrix: (Units=1/GPa)
#
#
# Indices 1 2 3 4 5 6 
#
# 1 0.033384 -0.000506 -0.004566 0.000000 0.000000 0.000000
# 2 -0.000506 0.011083 -0.011196 0.000000 0.000000 0.000000
# 3 -0.004566 -0.011196 0.023565 0.000000 0.000000 0.000000
# 4 0.000000 0.000000 0.000000 0.015447 0.000000 0.000000
# 5 0.000000 0.000000 0.000000 0.000000 0.087822 0.000000
# 6 0.000000 0.000000 0.000000 0.000000 0.000000 0.033236
#
#
# Mechanical properties :
#
#
# Convention : Reuss Voigt Hill
#
# Bulk Modulus (GPa) = 28.17242 59.20315 43.68779
# Shear Modulus (GPa) = 20.08796 33.42761 26.75778
#
# Velocity S-wave (km/s) = 3.22921 4.16564 3.72695
# Velocity P-wave (km/s) = 5.34119 7.33959 6.41864
#
# Compressibility (1/GPa) = 0.03549571
#
# Stress axis : x y z
#
# Youngs Moduli (GPa) = 29.95463 90.22586 42.43647
#
# Poissons Ratio (x) = 0.04563 0.19379
# Poissons Ratio (y) = 0.01515 0.47511
# Poissons Ratio (z) = 0.13679 1.01015
#
# Static dielectric constant tensor:
#      x y z
#    x 1.671410 0.000000 0.000000 
#    y 0.000000 2.078450 0.000000 
#    z 0.000000 0.000000 1.662820 
# 
# From -- ./inp_files/73322.got.cif
#   From: 2010.05.17/outbox.cif.g08.bks.cpg/sg65_37_cif.got.tgz:73322.got - 2010.06.03 17:01:31.
