data_PCOD9486226
_publ_section_title
;
Structure prediction by ZEFSAII (Michael W. Deem and Ramdas Pophale) SiO2 
 PCOD9486226
Probable space group: C M M M
;
_chemical_formula_sum "Si O2"
_cell_formula_units_Z 80
_cell_length_a 20.974616
_cell_length_b 23.950045
_cell_length_c 7.302637
_cell_angle_alpha 90.000000
_cell_angle_beta 90.000000
_cell_angle_gamma 90.000000
_cell_volume 3668.428557
_symmetry_space_group_name_H-M "C M M M"
_symmetry_group_IT_number 65
_symmetry_cell_setting 'orthorhombic'
loop_
_space_group_symop_operation_xyz
x,y,z
-x,-y,z
x,-y,-z
-x,y,-z
-x,-y,-z
x,y,-z
-x,y,z
x,-y,z
1/2+x,1/2+y,z
1/2-x,1/2-y,z
1/2+x,1/2-y,-z
1/2-x,1/2+y,-z
1/2-x,1/2-y,-z
1/2+x,1/2+y,-z
1/2-x,1/2+y,z
1/2+x,1/2-y,z
loop_
_atom_site_type_symbol
_atom_site_label
_atom_site_fract_x
_atom_site_fract_y
_atom_site_fract_z
Si Si1 0.873415 0.867120 0.211551
Si Si2 0.748581 0.435243 0.223947
Si Si3 0.425480 0.249806 0.223795
Si Si4 0.874851 0.369178 0.777163
Si Si5 0.500000 0.563863 0.719740
Si Si6 0.500000 0.936214 0.223183
O O1 0.814713 0.902778 0.287229
O O2 0.892183 0.806685 0.288592
O O3 0.937026 0.904124 0.218172
O O4 0.856400 0.856581 0.000000
O O5 0.750280 0.500000 0.282157
O O6 0.810596 0.400124 0.280769
O O7 0.748090 0.436635 0.000000
O O8 0.500000 0.247288 0.279475
O O9 0.387131 0.194570 0.279399
O O10 0.426667 0.250828 0.000000
O O11 0.936524 0.404333 0.719501
O O12 0.873912 0.368999 0.000000
O O13 0.500000 0.500000 0.782640
O O14 0.500000 0.564210 0.500000
O O15 0.500000 0.000000 0.282312
O O16 0.500000 0.935866 0.000000
#
# Coordination Sequence:
#
# PCOD9486226 Si02
#       6
#    16  16  16  16   8   8
#     4  10  19  32  51  71  96 129 160 195 240 287
#     4   9  17  27  39  61  93 126 161 198 237 285
#     4   9  15  25  41  63  90 118 156 200 236 276
#     4   9  15  23  36  57  89 123 155 198 240 275
#     4  11  23  36  51  73  97 123 162 205 240 282
#     4   9  14  19  30  48  76 122 164 187 226 286
#
# _framework density 21.807703
#
# number of rings (size 3 to 8) (size 9 to 14) (size 15 to 20)
#    0.000    2.600    2.000    1.500    0.000    4.800 
#    0.000    4.000    0.000    0.000    0.000    2.800 
#    0.000    0.000    0.000    0.000    0.000   15.100 
#
# Total GULP energy -223494.584727 kJ/mol
# GULP energy per Si atom -5587.364618 kJ/mol
# Density = 2.175807 g / cm^3
# Si number density = 21.807703 Si / 1000 Ang^3
#
#
#
# Elastic Constant Matrix: (Units=GPa)
#
#
# Indices 1 2 3 4 5 6 
#
# 1 222.5434 145.1078 -3.0881 0.0000 0.0000 0.0000
# 2 145.1078 273.1594 2.2647 0.0000 0.0000 0.0000
# 3 -3.0881 2.2647 89.4399 0.0000 0.0000 0.0000
# 4 0.0000 0.0000 0.0000 41.5812 0.0000 0.0000
# 5 0.0000 0.0000 0.0000 0.0000********** 0.0000
# 6 0.0000 0.0000 0.0000 0.0000 0.0000 37.3743
#
#
#
# Elastic Compliance Matrix: (Units=1/GPa)
#
#
# Indices 1 2 3 4 5 6 
#
# 1 0.006885 -0.003660 0.000330 0.000000 0.000000 0.000000
# 2 -0.003660 0.005607 -0.000268 0.000000 0.000000 0.000000
# 3 0.000330 -0.000268 0.011199 0.000000 0.000000 0.000000
# 4 0.000000 0.000000 0.000000 0.024049 0.000000 0.000000
# 5 0.000000 0.000000 0.000000 0.000000 -0.000023 0.000000
# 6 0.000000 0.000000 0.000000 0.000000 0.000000 0.026756
#
#
# Mechanical properties :
#
#
# Convention : Reuss Voigt Hill
#
# Bulk Modulus (GPa) = 60.62472 97.07907 78.85190
# Shear Modulus (GPa) = 57.36107 -8489.85388 -4216.24641
#
# Velocity S-wave (km/s) = 5.13422 -62.46202 -44.01786
# Velocity P-wave (km/s) = 7.93769 71.81499 50.46972
#
# Compressibility (1/GPa) = 0.01649492
#
# Stress axis : x y z
#
# Youngs Moduli (GPa) = 145.25330 178.33818 89.29450
#
# Poissons Ratio (x) = 0.65271 -0.02950
# Poissons Ratio (y) = 0.53162 0.02396
# Poissons Ratio (z) = -0.04799 0.04786
#
# Static dielectric constant tensor:
#      x y z
#    x 1.725490 0.000000 0.000000 
#    y 0.000000 1.754330 0.000000 
#    z 0.000000 0.000000 1.839970 
# 
# From -- ./inp_files/11547.got.cif
#   From: 2010.05.17/outbox.cif.g08.bks.cpg/sg65_6_cif.got.tgz:11547.got - 2010.06.03 17:01:31.
