data_PCOD9486309
_publ_section_title
;
Structure prediction by ZEFSAII (Michael W. Deem and Ramdas Pophale) SiO2 
 PCOD9486309
Probable space group: C M M M
;
_chemical_formula_sum "Si O2"
_cell_formula_units_Z 120
_cell_length_a 7.745583
_cell_length_b 26.894257
_cell_length_c 28.069721
_cell_angle_alpha 90.000000
_cell_angle_beta 90.000000
_cell_angle_gamma 90.000000
_cell_volume 5847.251295
_symmetry_space_group_name_H-M "C M M M"
_symmetry_group_IT_number 65
_symmetry_cell_setting 'orthorhombic'
loop_
_space_group_symop_operation_xyz
x,y,z
-x,-y,z
x,-y,-z
-x,y,-z
-x,-y,-z
x,y,-z
-x,y,z
x,-y,z
1/2+x,1/2+y,z
1/2-x,1/2-y,z
1/2+x,1/2-y,-z
1/2-x,1/2+y,-z
1/2-x,1/2-y,-z
1/2+x,1/2+y,-z
1/2-x,1/2+y,z
1/2+x,1/2-y,z
loop_
_atom_site_type_symbol
_atom_site_label
_atom_site_fract_x
_atom_site_fract_y
_atom_site_fract_z
Si Si1 0.707578 0.305590 0.054512
Si Si2 0.288528 0.401074 0.112314
Si Si3 0.789203 0.000000 0.055007
Si Si4 0.708133 0.443936 0.209631
Si Si5 0.295160 0.090226 0.315045
Si Si6 0.202488 0.662861 0.551514
Si Si7 0.206923 0.303967 0.347728
Si Si8 0.700713 0.554499 0.416696
O O1 0.500000 0.309529 0.052690
O O2 0.750000 0.250000 0.071432
O O3 0.771128 0.350492 0.087349
O O4 0.772373 0.310534 0.000000
O O5 0.500000 0.400572 0.111996
O O6 0.236027 0.449866 0.082324
O O7 0.232421 0.408392 0.166939
O O8 0.000000 0.000000 0.055215
O O9 0.733767 0.000000 0.000000
O O10 0.500000 0.443862 0.208758
O O11 0.766250 0.500000 0.198733
O O12 0.761265 0.430080 0.262805
O O13 0.500000 0.088317 0.323971
O O14 0.234498 0.147545 0.319010
O O15 0.213023 0.061105 0.359379
O O16 0.279980 0.674881 0.500000
O O17 0.277468 0.689240 0.598323
O O18 0.214753 0.603543 0.561085
O O19 0.000000 0.675532 0.549839
O O20 0.250000 0.250000 0.328313
O O21 0.000000 0.307107 0.350108
O O22 0.500000 0.555870 0.430464
O O23 0.771523 0.500000 0.429634
#
# Coordination Sequence:
#
# PCOD9486309 Si02
#       8
#    16  16   8  16  16  16  16  16
#     4   9  17  30  49  72  98 132 174 215 254 298
#     4   9  16  28  45  71 104 133 164 208 258 305
#     4   9  14  22  42  72 103 133 165 205 254 305
#     4  10  19  32  51  75 104 134 164 203 254 307
#     4  10  21  36  53  74  99 129 167 208 249 301
#     4   9  19  35  52  73 104 138 169 201 243 299
#     4   9  19  35  54  75  98 125 161 207 252 295
#     4  10  20  33  50  74 102 131 168 212 253 294
#
# _framework density 20.522462999999998
#
# number of rings (size 3 to 8) (size 9 to 14) (size 15 to 20)
#    0.000    2.600    0.667    2.400    0.000    8.000 
#    0.000    2.667    0.000    3.200    0.000    0.000 
#    0.000    3.200    0.000    0.000    0.000    0.000 
#
# Total GULP energy -334813.775020 kJ/mol
# GULP energy per Si atom -5580.229584 kJ/mol
# Density = 2.047575 g / cm^3
# Si number density = 20.522463 Si / 1000 Ang^3
#
#
#
# Elastic Constant Matrix: (Units=GPa)
#
#
# Indices 1 2 3 4 5 6 
#
# 1 30.1922 -0.4752 1.7972 0.0000 0.0000 0.0000
# 2 -0.4752 96.2247 7.0441 0.0000 0.0000 0.0000
# 3 1.7972 7.0441 65.2674 0.0000 0.0000 0.0000
# 4 0.0000 0.0000 0.0000 1.7689 0.0000 0.0000
# 5 0.0000 0.0000 0.0000 0.0000 13.2462 0.0000
# 6 0.0000 0.0000 0.0000 0.0000 0.0000 16.7012
#
#
#
# Elastic Compliance Matrix: (Units=1/GPa)
#
#
# Indices 1 2 3 4 5 6 
#
# 1 0.033181 0.000233 -0.000939 0.000000 0.000000 0.000000
# 2 0.000233 0.010477 -0.001137 0.000000 0.000000 0.000000
# 3 -0.000939 -0.001137 0.015470 0.000000 0.000000 0.000000
# 4 0.000000 0.000000 0.000000 0.565321 0.000000 0.000000
# 5 0.000000 0.000000 0.000000 0.000000 0.075493 0.000000
# 6 0.000000 0.000000 0.000000 0.000000 0.000000 0.059876
#
#
# Mechanical properties :
#
#
# Convention : Reuss Voigt Hill
#
# Bulk Modulus (GPa) = 18.03722 23.15739 20.59731
# Shear Modulus (GPa) = 6.39398 18.56446 12.47922
#
# Velocity S-wave (km/s) = 1.76702 3.01091 2.46860
# Velocity P-wave (km/s) = 3.60156 4.83692 4.26422
#
# Compressibility (1/GPa) = 0.05544092
#
# Stress axis : x y z
#
# Youngs Moduli (GPa) = 30.13803 95.44957 64.64059
#
# Poissons Ratio (x) = -0.02220 0.06068
# Poissons Ratio (y) = -0.00701 0.07350
# Poissons Ratio (z) = 0.02829 0.10854
#
# Static dielectric constant tensor:
#      x y z
#    x 1.774050 0.000000 0.000000 
#    y 0.000000 1.729340 0.000000 
#    z 0.000000 0.000000 1.724280 
# 
# From -- ./inp_files/73950.got.cif
#   From: 2010.05.17/outbox.cif.g08.bks.cpg/sg65_37_cif.got.tgz:73950.got - 2010.06.03 17:01:31.
