data_PCOD9486394
_publ_section_title
;
Structure prediction by ZEFSAII (Michael W. Deem and Ramdas Pophale) SiO2 
 PCOD9486394
Probable space group: C M M M
;
_chemical_formula_sum "Si O2"
_cell_formula_units_Z 72
_cell_length_a 15.992387
_cell_length_b 21.896559
_cell_length_c 9.321510
_cell_angle_alpha 90.000000
_cell_angle_beta 90.000000
_cell_angle_gamma 90.000000
_cell_volume 3264.190017
_symmetry_space_group_name_H-M "C M M M"
_symmetry_group_IT_number 65
_symmetry_cell_setting 'orthorhombic'
loop_
_space_group_symop_operation_xyz
x,y,z
-x,-y,z
x,-y,-z
-x,y,-z
-x,-y,-z
x,y,-z
-x,y,z
x,-y,z
1/2+x,1/2+y,z
1/2-x,1/2-y,z
1/2+x,1/2-y,-z
1/2-x,1/2+y,-z
1/2-x,1/2-y,-z
1/2+x,1/2+y,-z
1/2-x,1/2+y,z
1/2+x,1/2-y,z
loop_
_atom_site_type_symbol
_atom_site_label
_atom_site_fract_x
_atom_site_fract_y
_atom_site_fract_z
Si Si1 0.500000 0.906305 0.165372
Si Si2 0.836627 0.596059 0.337303
Si Si3 0.500000 0.425316 0.334690
Si Si4 0.833709 0.073505 0.163862
Si Si5 0.341370 0.241209 0.338381
Si Si6 0.000000 0.743495 0.837430
O O1 0.583310 0.926863 0.248594
O O2 0.500000 0.831381 0.162460
O O3 0.500000 0.925899 0.000000
O O4 0.831315 0.571838 0.500000
O O5 0.750666 0.587415 0.251362
O O6 0.851327 0.668572 0.350182
O O7 0.500000 0.500000 0.337987
O O8 0.500000 0.404345 0.500000
O O9 0.583715 0.406623 0.250148
O O10 0.838729 0.000000 0.155075
O O11 0.830780 0.097216 0.000000
O O12 0.341306 0.267717 0.500000
O O13 0.250000 0.250000 0.272635
O O14 0.417565 0.264154 0.245291
O O15 0.000000 0.764350 0.000000
#
# Coordination Sequence:
#
# PCOD9486394 Si02
#       6
#     8  16   8  16  16   8
#     4   9  17  31  50  71  98 131 164 199 244 297
#     4  10  19  32  52  76 100 128 165 206 244 287
#     4   9  17  31  52  75  98 127 165 205 242 287
#     4  10  20  34  52  74 101 132 164 200 245 295
#     4   9  18  33  52  73  98 130 165 200 241 290
#     4   9  17  29  48  73  98 127 163 202 242 287
#
# _framework density 22.057538999999998
#
# number of rings (size 3 to 8) (size 9 to 14) (size 15 to 20)
#    0.000    2.556    0.000    2.333    0.000    6.667 
#    0.000    1.667    0.000    6.000    0.000    0.000 
#    0.000    0.000    0.000    0.000    0.000    0.000 
#
# Total GULP energy -201149.133403 kJ/mol
# GULP energy per Si atom -5587.475928 kJ/mol
# Density = 2.200733 g / cm^3
# Si number density = 22.057539 Si / 1000 Ang^3
#
#
#
# Elastic Constant Matrix: (Units=GPa)
#
#
# Indices 1 2 3 4 5 6 
#
# 1 268.5266 -6.7980 159.4409 0.0000 0.0000 0.0000
# 2 -6.7980 53.3139 4.5133 0.0000 0.0000 0.0000
# 3 159.4409 4.5133 229.0848 0.0000 0.0000 0.0000
# 4 0.0000 0.0000 0.0000 0.5387 0.0000 0.0000
# 5 0.0000 0.0000 0.0000 0.0000-3350.0819 0.0000
# 6 0.0000 0.0000 0.0000 0.0000 0.0000 23.5766
#
#
#
# Elastic Compliance Matrix: (Units=1/GPa)
#
#
# Indices 1 2 3 4 5 6 
#
# 1 0.006423 0.001199 -0.004494 0.000000 0.000000 0.000000
# 2 0.001199 0.019012 -0.001209 0.000000 0.000000 0.000000
# 3 -0.004494 -0.001209 0.007517 0.000000 0.000000 0.000000
# 4 0.000000 0.000000 0.000000 1.856179 0.000000 0.000000
# 5 0.000000 0.000000 0.000000 0.000000 -0.000299 0.000000
# 6 0.000000 0.000000 0.000000 0.000000 0.000000 0.042415
#
#
# Mechanical properties :
#
#
# Convention : Reuss Voigt Hill
#
# Bulk Modulus (GPa) = 41.76411 96.13752 68.95081
# Shear Modulus (GPa) = 2.56643 -638.94202 -318.18780
#
# Velocity S-wave (km/s) = 1.07983 -17.03818 -12.02359
# Velocity P-wave (km/s) = 4.53100 18.53069 12.70544
#
# Compressibility (1/GPa) = 0.02394401
#
# Stress axis : x y z
#
# Youngs Moduli (GPa) = 155.70126 52.59803 133.03941
#
# Poissons Ratio (x) = -0.06308 0.59783
# Poissons Ratio (y) = -0.18674 0.16088
# Poissons Ratio (z) = 0.69967 0.06361
#
# Static dielectric constant tensor:
#      x y z
#    x 1.764450 0.000000 0.000000 
#    y 0.000000 1.871970 0.000000 
#    z 0.000000 0.000000 1.784520 
# 
# From -- ./inp_files/7393.got.cif
#   From: 2010.05.17/outbox.cif.g08.bks.cpg/sg65_4_cif.got.tgz:7393.got - 2010.06.03 17:01:31.
