data_PCOD9486229
_publ_section_title
;
Structure prediction by ZEFSAII (Michael W. Deem and Ramdas Pophale) SiO2 
 PCOD9486229
Probable space group: C M M M
;
_chemical_formula_sum "Si O2"
_cell_formula_units_Z 104
_cell_length_a 8.160389
_cell_length_b 26.637785
_cell_length_c 27.110075
_cell_angle_alpha 90.000000
_cell_angle_beta 90.000000
_cell_angle_gamma 90.000000
_cell_volume 5893.044087
_symmetry_space_group_name_H-M "C M M M"
_symmetry_group_IT_number 65
_symmetry_cell_setting 'orthorhombic'
loop_
_space_group_symop_operation_xyz
x,y,z
-x,-y,z
x,-y,-z
-x,y,-z
-x,-y,-z
x,y,-z
-x,y,z
x,-y,z
1/2+x,1/2+y,z
1/2-x,1/2-y,z
1/2+x,1/2-y,-z
1/2-x,1/2+y,-z
1/2-x,1/2-y,-z
1/2+x,1/2+y,-z
1/2-x,1/2+y,z
1/2+x,1/2-y,z
loop_
_atom_site_type_symbol
_atom_site_label
_atom_site_fract_x
_atom_site_fract_y
_atom_site_fract_z
Si Si1 0.695778 0.805749 0.270470
Si Si2 0.299382 0.597575 0.443245
Si Si3 0.802114 0.401408 0.209854
Si Si4 0.698035 0.500000 0.617865
Si Si5 0.190097 0.938951 0.000000
Si Si6 0.304435 0.694288 0.383413
Si Si7 0.802372 0.500000 0.731237
Si Si8 0.301667 0.442000 0.892609
O O1 0.500000 0.806768 0.270080
O O2 0.750000 0.750000 0.255438
O O3 0.757664 0.850368 0.235515
O O4 0.750546 0.814003 0.326919
O O5 0.247427 0.593505 0.500000
O O6 0.500000 0.597638 0.443099
O O7 0.246435 0.549840 0.410991
O O8 0.243675 0.649313 0.417971
O O9 0.743345 0.449972 0.240759
O O10 0.751483 0.408991 0.153423
O O11 0.000000 0.401292 0.211921
O O12 0.500000 0.500000 0.617182
O O13 0.752889 0.500000 0.674327
O O14 0.260867 0.924793 0.053370
O O15 0.000000 0.922443 0.000000
O O16 0.189033 0.000000 0.000000
O O17 0.500000 0.693455 0.384287
O O18 0.250000 0.750000 0.398666
O O19 0.000000 0.500000 0.733739
O O20 0.500000 0.442791 0.894904
O O21 0.247738 0.500000 0.884315
#
# Coordination Sequence:
#
# PCOD9486229 Si02
#       8
#    16  16  16   8   8  16   8  16
#     4  10  20  34  51  70  93 125 160 196 237 282
#     4   9  18  32  50  72  95 118 148 189 234 274
#     4  10  20  32  47  68  98 131 159 191 238 287
#     4  10  19  32  52  72  89 117 158 195 223 267
#     4   7  12  24  41  63  94 129 162 195 234 274
#     4  10  19  32  51  72  94 120 150 189 233 282
#     4  10  20  33  47  66  99 132 151 181 232 287
#     4   9  16  27  45  69  97 130 165 199 232 272
#
# _framework density 17.647925000000001
#
# number of rings (size 3 to 8) (size 9 to 14) (size 15 to 20)
#    0.000    2.538    0.769    3.923    0.000    3.077 
#    0.000    1.154    0.000    5.538    0.000    0.538 
#    0.000    0.000    0.000    0.000    0.000    0.000 
#
# Total GULP energy -290003.665022 kJ/mol
# GULP energy per Si atom -5576.993558 kJ/mol
# Density = 1.760776 g / cm^3
# Si number density = 17.647925 Si / 1000 Ang^3
#
#
#
# Elastic Constant Matrix: (Units=GPa)
#
#
# Indices 1 2 3 4 5 6 
#
# 1 15.3598 12.8872 6.2789 0.0000 0.0000 0.0000
# 2 12.8872 121.8291 93.7997 0.0000 0.0000 0.0000
# 3 6.2789 93.7997 158.1291 0.0000 0.0000 0.0000
# 4 0.0000 0.0000 0.0000 9.4645 0.0000 0.0000
# 5 0.0000 0.0000 0.0000 0.0000 8.2233 0.0000
# 6 0.0000 0.0000 0.0000 0.0000 0.0000 13.4640
#
#
#
# Elastic Compliance Matrix: (Units=1/GPa)
#
#
# Indices 1 2 3 4 5 6 
#
# 1 0.072244 -0.010001 0.003064 0.000000 0.000000 0.000000
# 2 -0.010001 0.016493 -0.009386 0.000000 0.000000 0.000000
# 3 0.003064 -0.009386 0.011770 0.000000 0.000000 0.000000
# 4 0.000000 0.000000 0.000000 0.105657 0.000000 0.000000
# 5 0.000000 0.000000 0.000000 0.000000 0.121605 0.000000
# 6 0.000000 0.000000 0.000000 0.000000 0.000000 0.074272
#
#
# Mechanical properties :
#
#
# Convention : Reuss Voigt Hill
#
# Bulk Modulus (GPa) = 14.73624 57.91662 36.32643
# Shear Modulus (GPa) = 10.93356 18.38719 14.66038
#
# Velocity S-wave (km/s) = 2.49175 3.23133 2.88534
# Velocity P-wave (km/s) = 4.08004 6.84186 5.63284
#
# Compressibility (1/GPa) = 0.06785992
#
# Stress axis : x y z
#
# Youngs Moduli (GPa) = 13.84205 60.63262 84.96167
#
# Poissons Ratio (x) = 0.60638 -0.26030
# Poissons Ratio (y) = 0.13843 0.79746
# Poissons Ratio (z) = -0.04241 0.56911
#
# Static dielectric constant tensor:
#      x y z
#    x 1.627840 0.000000 0.000000 
#    y 0.000000 1.597590 0.000000 
#    z 0.000000 0.000000 1.598800 
# 
# From -- ./inp_files/73833.got.cif
#   From: 2010.05.17/outbox.cif.g08.bks.cpg/sg65_37_cif.got.tgz:73833.got - 2010.06.03 17:01:31.
