data_PCOD9486934
_publ_section_title
;
Structure prediction by ZEFSAII (Michael W. Deem and Ramdas Pophale) SiO2 
 PCOD9486934
Probable space group: C M M M
;
_chemical_formula_sum "Si O2"
_cell_formula_units_Z 120
_cell_length_a 26.881406
_cell_length_b 8.178649
_cell_length_c 28.032091
_cell_angle_alpha 90.000000
_cell_angle_beta 90.000000
_cell_angle_gamma 90.000000
_cell_volume 6162.955682
_symmetry_space_group_name_H-M "C M M M"
_symmetry_group_IT_number 65
_symmetry_cell_setting 'orthorhombic'
loop_
_space_group_symop_operation_xyz
x,y,z
-x,-y,z
x,-y,-z
-x,y,-z
-x,-y,-z
x,y,-z
-x,y,z
x,-y,z
1/2+x,1/2+y,z
1/2-x,1/2-y,z
1/2+x,1/2-y,-z
1/2-x,1/2+y,-z
1/2-x,1/2-y,-z
1/2+x,1/2+y,-z
1/2-x,1/2+y,z
1/2+x,1/2-y,z
loop_
_atom_site_type_symbol
_atom_site_label
_atom_site_fract_x
_atom_site_fract_y
_atom_site_fract_z
Si Si1 0.500000 0.799870 0.555404
Si Si2 0.839997 0.804591 0.051475
Si Si3 0.444164 0.693290 0.294283
Si Si4 0.804667 0.302631 0.555022
Si Si5 0.901190 0.695692 0.610497
Si Si6 0.555440 0.198055 0.911568
Si Si7 0.592370 0.806275 0.807501
Si Si8 0.695783 0.696243 0.846352
O O1 0.500000 0.751565 0.500000
O O2 0.549753 0.743365 0.582497
O O3 0.500000 0.000000 0.556449
O O4 0.898484 0.767977 0.058979
O O5 0.812850 0.741984 0.099045
O O6 0.833331 0.000000 0.050917
O O7 0.823590 0.738074 0.000000
O O8 0.500000 0.761049 0.301678
O O9 0.445502 0.500000 0.301818
O O10 0.407999 0.766353 0.333982
O O11 0.427855 0.726796 0.240347
O O12 0.810885 0.247307 0.500000
O O13 0.805827 0.500000 0.554741
O O14 0.750000 0.250000 0.571561
O O15 0.850289 0.241809 0.587083
O O16 0.900882 0.500000 0.604756
O O17 0.500000 0.247523 0.926682
O O18 0.564814 0.247102 0.856288
O O19 0.558264 0.000000 0.913821
O O20 0.650251 0.766102 0.815939
O O21 0.585363 0.000000 0.803371
O O22 0.692162 0.500000 0.846122
O O23 0.750000 0.750000 0.829919
#
# Coordination Sequence:
#
# PCOD9486934 Si02
#       8
#     8  16  16  16  16  16  16  16
#     4   9  16  28  51  81 109 139 179 229 276 319
#     4   9  19  34  50  72 104 140 176 213 256 311
#     4  11  23  37  54  79 113 146 176 216 270 329
#     4   9  18  33  54  80 108 141 183 227 269 316
#     4  10  19  33  54  80 109 143 185 227 270 324
#     4   9  18  32  50  74 102 132 170 217 264 313
#     4  10  20  36  58  80 102 134 178 223 268 320
#     4  10  20  36  57  80 107 137 173 219 269 319
#
# _framework density 19.471174999999999
#
# number of rings (size 3 to 8) (size 9 to 14) (size 15 to 20)
#    0.000    2.333    0.667    2.000    0.000    5.600 
#    0.000    2.000    0.000    3.200    0.000    0.000 
#    0.000    0.000    0.000    0.000    0.000    0.000 
#
# Total GULP energy -334910.579352 kJ/mol
# GULP energy per Si atom -5581.842989 kJ/mol
# Density = 1.942686 g / cm^3
# Si number density = 19.471175 Si / 1000 Ang^3
#
#
#
# Elastic Constant Matrix: (Units=GPa)
#
#
# Indices 1 2 3 4 5 6 
#
# 1 93.6907 0.4204 17.8852 0.0000 0.0000 0.0000
# 2 0.4204 7.9642 -0.1333 0.0000 0.0000 0.0000
# 3 17.8852 -0.1333 71.2094 0.0000 0.0000 0.0000
# 4 0.0000 0.0000 0.0000 13.4640 0.0000 0.0000
# 5 0.0000 0.0000 0.0000 0.0000 1.4542 0.0000
# 6 0.0000 0.0000 0.0000 0.0000 0.0000 24.2070
#
#
#
# Elastic Compliance Matrix: (Units=1/GPa)
#
#
# Indices 1 2 3 4 5 6 
#
# 1 0.011214 -0.000639 -0.002818 0.000000 0.000000 0.000000
# 2 -0.000639 0.125603 0.000396 0.000000 0.000000 0.000000
# 3 -0.002818 0.000396 0.014752 0.000000 0.000000 0.000000
# 4 0.000000 0.000000 0.000000 0.074272 0.000000 0.000000
# 5 0.000000 0.000000 0.000000 0.000000 0.687671 0.000000
# 6 0.000000 0.000000 0.000000 0.000000 0.000000 0.041310
#
#
# Mechanical properties :
#
#
# Convention : Reuss Voigt Hill
#
# Bulk Modulus (GPa) = 6.87542 23.24544 15.06043
# Shear Modulus (GPa) = 4.95331 18.13784 11.54557
#
# Velocity S-wave (km/s) = 1.59670 3.05540 2.43771
# Velocity P-wave (km/s) = 2.63401 4.94081 3.95914
#
# Compressibility (1/GPa) = 0.14544574
#
# Stress axis : x y z
#
# Youngs Moduli (GPa) = 89.17276 7.96162 67.78951
#
# Poissons Ratio (x) = 0.00509 0.19102
# Poissons Ratio (y) = 0.05700 -0.02682
# Poissons Ratio (z) = 0.25127 -0.00315
#
# Static dielectric constant tensor:
#      x y z
#    x 1.679520 0.000000 0.000000 
#    y 0.000000 1.687600 0.000000 
#    z 0.000000 0.000000 1.675550 
# 
# From -- ./inp_files/76180.got.cif
#   From: 2010.05.17/outbox.cif.g08.bks.cpg/sg65_39_cif.got.tgz:76180.got - 2010.06.03 17:01:31.
