data_PCOD9486725
_publ_section_title
;
Structure prediction by ZEFSAII (Michael W. Deem and Ramdas Pophale) SiO2 
 PCOD9486725
Probable space group: C M M M
;
_chemical_formula_sum "Si O2"
_cell_formula_units_Z 96
_cell_length_a 14.368869
_cell_length_b 24.394717
_cell_length_c 13.679805
_cell_angle_alpha 90.000000
_cell_angle_beta 90.000000
_cell_angle_gamma 90.000000
_cell_volume 4795.106710
_symmetry_space_group_name_H-M "C M M M"
_symmetry_group_IT_number 65
_symmetry_cell_setting 'orthorhombic'
loop_
_space_group_symop_operation_xyz
x,y,z
-x,-y,z
x,-y,-z
-x,y,-z
-x,-y,-z
x,y,-z
-x,y,z
x,-y,z
1/2+x,1/2+y,z
1/2-x,1/2-y,z
1/2+x,1/2-y,-z
1/2-x,1/2+y,-z
1/2-x,1/2-y,-z
1/2+x,1/2+y,-z
1/2-x,1/2+y,z
1/2+x,1/2-y,z
loop_
_atom_site_type_symbol
_atom_site_label
_atom_site_fract_x
_atom_site_fract_y
_atom_site_fract_z
Si Si1 0.394259 0.222390 0.880908
Si Si2 0.605284 0.845612 0.619113
Si Si3 0.889766 0.061638 0.789636
Si Si4 0.893981 0.778961 0.618492
Si Si5 0.293173 0.608718 0.383659
Si Si6 0.206883 0.834273 0.117613
O O1 0.500000 0.212019 0.848329
O O2 0.313342 0.179503 0.853533
O O3 0.357365 0.282626 0.850742
O O4 0.395899 0.222775 0.000000
O O5 0.606037 0.843933 0.500000
O O6 0.500000 0.858551 0.649349
O O7 0.628314 0.782943 0.650625
O O8 0.684767 0.888773 0.645136
O O9 0.854122 0.067262 0.678401
O O10 0.833642 0.108915 0.844945
O O11 0.000000 0.072138 0.795504
O O12 0.872224 0.000000 0.825868
O O13 0.891855 0.776611 0.500000
O O14 0.829867 0.830122 0.642621
O O15 0.000000 0.791243 0.647834
O O16 0.302435 0.600986 0.500000
O O17 0.204340 0.834463 0.000000
#
# Coordination Sequence:
#
# PCOD9486725 Si02
#       6
#    16  16  16  16  16  16
#     4   8  14  29  58  93 123 148 175 212 263 327
#     4   8  14  26  46  73 103 132 166 213 268 327
#     4  11  25  41  55  76 106 140 186 238 277 320
#     4   8  13  23  42  69  99 129 162 204 258 318
#     4  10  19  33  53  72  98 140 183 225 275 322
#     4   9  18  35  60  88 118 149 178 216 270 325
#
# _framework density 20.020409000000001
#
# number of rings (size 3 to 8) (size 9 to 14) (size 15 to 20)
#    0.000    3.000    0.000    3.500    0.000    4.667 
#    6.000    2.500    0.000    2.000    0.000    4.667 
#    0.000    0.000    0.000    0.000    0.000    0.000 
#
# Total GULP energy -268000.740238 kJ/mol
# GULP energy per Si atom -5583.348755 kJ/mol
# Density = 1.997484 g / cm^3
# Si number density = 20.020409 Si / 1000 Ang^3
#
#
#
# Elastic Constant Matrix: (Units=GPa)
#
#
# Indices 1 2 3 4 5 6 
#
# 1 149.2808 81.4785 23.9849 0.0000 0.0000 0.0000
# 2 81.4785 102.2914 24.7127 0.0000 0.0000 0.0000
# 3 23.9849 24.7127 65.1956 0.0000 0.0000 0.0000
# 4 0.0000 0.0000 0.0000 15.8330 0.0000 0.0000
# 5 0.0000 0.0000 0.0000 0.0000 21.6841 0.0000
# 6 0.0000 0.0000 0.0000 0.0000 0.0000 25.0995
#
#
#
# Elastic Compliance Matrix: (Units=1/GPa)
#
#
# Indices 1 2 3 4 5 6 
#
# 1 0.011895 -0.009266 -0.000864 0.000000 0.000000 0.000000
# 2 -0.009266 0.017980 -0.003406 0.000000 0.000000 0.000000
# 3 -0.000864 -0.003406 0.016947 0.000000 0.000000 0.000000
# 4 0.000000 0.000000 0.000000 0.063159 0.000000 0.000000
# 5 0.000000 0.000000 0.000000 0.000000 0.046117 0.000000
# 6 0.000000 0.000000 0.000000 0.000000 0.000000 0.039841
#
#
# Mechanical properties :
#
#
# Convention : Reuss Voigt Hill
#
# Bulk Modulus (GPa) = 50.63352 64.12442 57.37897
# Shear Modulus (GPa) = 21.77746 24.96279 23.37013
#
# Velocity S-wave (km/s) = 3.30170 3.53493 3.42031
# Velocity P-wave (km/s) = 6.31513 6.98284 6.65736
#
# Compressibility (1/GPa) = 0.01974976
#
# Stress axis : x y z
#
# Youngs Moduli (GPa) = 84.06828 55.61817 59.00604
#
# Poissons Ratio (x) = 0.51537 0.05096
# Poissons Ratio (y) = 0.77899 0.20100
# Poissons Ratio (z) = 0.07261 0.18946
#
# Static dielectric constant tensor:
#      x y z
#    x 1.720540 0.000000 0.000000 
#    y 0.000000 1.661810 0.000000 
#    z 0.000000 0.000000 1.807480 
# 
# From -- ./inp_files/40347.got.cif
#   From: 2010.05.17/outbox.cif.g08.bks.cpg/sg65_21_cif.got.tgz:40347.got - 2010.06.03 17:01:31.
