data_PCOD9486617
_publ_section_title
;
Structure prediction by ZEFSAII (Michael W. Deem and Ramdas Pophale) SiO2 
 PCOD9486617
Probable space group: C M M M
;
_chemical_formula_sum "Si O2"
_cell_formula_units_Z 56
_cell_length_a 9.926848
_cell_length_b 17.372013
_cell_length_c 13.432030
_cell_angle_alpha 90.000000
_cell_angle_beta 90.000000
_cell_angle_gamma 90.000000
_cell_volume 2316.344608
_symmetry_space_group_name_H-M "C M M M"
_symmetry_group_IT_number 65
_symmetry_cell_setting 'orthorhombic'
loop_
_space_group_symop_operation_xyz
x,y,z
-x,-y,z
x,-y,-z
-x,y,-z
-x,-y,-z
x,y,-z
-x,y,z
x,-y,z
1/2+x,1/2+y,z
1/2-x,1/2-y,z
1/2+x,1/2-y,-z
1/2-x,1/2+y,-z
1/2-x,1/2-y,-z
1/2+x,1/2+y,-z
1/2-x,1/2+y,z
1/2+x,1/2-y,z
loop_
_atom_site_type_symbol
_atom_site_label
_atom_site_fract_x
_atom_site_fract_y
_atom_site_fract_z
Si Si1 0.500000 0.115288 0.886754
Si Si2 0.500000 0.711134 0.169787
Si Si3 0.232715 0.414170 0.391547
Si Si4 0.500000 0.786627 0.612849
Si Si5 0.798398 0.916403 0.822475
O O1 0.500000 0.207245 0.882322
O O2 0.362036 0.088908 0.835946
O O3 0.500000 0.088544 0.000000
O O4 0.500000 0.733715 0.288696
O O5 0.373241 0.658563 0.138951
O O6 0.298173 0.407059 0.500000
O O7 0.167173 0.500000 0.389471
O O8 0.325857 0.413644 0.295691
O O9 0.128043 0.344201 0.381982
O O10 0.500000 0.752519 0.500000
O O11 0.841471 0.000000 0.861882
#
# Coordination Sequence:
#
# PCOD9486617 Si02
#       5
#     8   8  16   8  16
#     4  12  27  48  74  98 124 163 218 281 336 391
#     4  12  25  42  65 102 142 173 208 264 337 392
#     4   9  17  32  58  93 133 177 222 265 311 371
#     4  10  19  32  58  95 137 177 219 266 317 374
#     4  11  24  44  69  98 134 176 220 265 318 388
#
# _framework density 24.176024000000002
#
# number of rings (size 3 to 8) (size 9 to 14) (size 15 to 20)
#    0.000    1.429    2.857    2.143    0.000    8.571 
#    0.000    2.857    0.000    6.857    0.000    0.000 
#    0.000    0.000    0.000    0.000    0.000    0.000 
#
# Total GULP energy -156426.693198 kJ/mol
# GULP energy per Si atom -5586.667614 kJ/mol
# Density = 2.412100 g / cm^3
# Si number density = 24.176024 Si / 1000 Ang^3
#
#
#
# Elastic Constant Matrix: (Units=GPa)
#
#
# Indices 1 2 3 4 5 6 
#
# 1 85.0513 44.9798 3.2000 0.0000 0.0000 0.0000
# 2 44.9798 177.7776 6.1287 0.0000 0.0000 0.0000
# 3 3.2000 6.1287 98.1960 0.0000 0.0000 0.0000
# 4 0.0000 0.0000 0.0000 -10.8480 0.0000 0.0000
# 5 0.0000 0.0000 0.0000 0.0000 -25.0472 0.0000
# 6 0.0000 0.0000 0.0000 0.0000 0.0000 54.2236
#
#
#
# Elastic Compliance Matrix: (Units=1/GPa)
#
#
# Indices 1 2 3 4 5 6 
#
# 1 0.013579 -0.003428 -0.000229 0.000000 0.000000 0.000000
# 2 -0.003428 0.006502 -0.000294 0.000000 0.000000 0.000000
# 3 -0.000229 -0.000294 0.010210 0.000000 0.000000 0.000000
# 4 0.000000 0.000000 0.000000 -0.092183 0.000000 0.000000
# 5 0.000000 0.000000 0.000000 0.000000 -0.039925 0.000000
# 6 0.000000 0.000000 0.000000 0.000000 0.000000 0.018442
#
#
# Mechanical properties :
#
#
# Convention : Reuss Voigt Hill
#
# Bulk Modulus (GPa) = 44.66281 52.18242 48.42261
# Shear Modulus (GPa) = -73.51871 24.11343 -24.70264
#
# Velocity S-wave (km/s) = -5.52049 3.16161 -3.20000
# Velocity P-wave (km/s) = 4.70322 5.91261 2.53364
#
# Compressibility (1/GPa) = 0.02238999
#
# Stress axis : x y z
#
# Youngs Moduli (GPa) = 73.64310 153.78913 97.94779
#
# Poissons Ratio (x) = 0.52715 0.02239
# Poissons Ratio (y) = 0.25243 0.02881
# Poissons Ratio (z) = 0.01683 0.04523
#
# Static dielectric constant tensor:
#      x y z
#    x 1.920560 0.000000 0.000000 
#    y 0.000000 1.924010 0.000000 
#    z 0.000000 0.000000 1.947610 
# 
# From -- ./inp_files/37664.got.cif
#   From: 2010.05.17/outbox.cif.g08.bks.cpg/sg65_19_cif.got.tgz:37664.got - 2010.06.03 17:01:31.
