data_PCOD9486410
_publ_section_title
;
Structure prediction by ZEFSAII (Michael W. Deem and Ramdas Pophale) SiO2 
 PCOD9486410
Probable space group: C M M M
;
_chemical_formula_sum "Si O2"
_cell_formula_units_Z 104
_cell_length_a 27.212947
_cell_length_b 7.526391
_cell_length_c 23.527964
_cell_angle_alpha 90.000000
_cell_angle_beta 90.000000
_cell_angle_gamma 90.000000
_cell_volume 4818.886520
_symmetry_space_group_name_H-M "C M M M"
_symmetry_group_IT_number 65
_symmetry_cell_setting 'orthorhombic'
loop_
_space_group_symop_operation_xyz
x,y,z
-x,-y,z
x,-y,-z
-x,y,-z
-x,-y,-z
x,y,-z
-x,y,z
x,-y,z
1/2+x,1/2+y,z
1/2-x,1/2-y,z
1/2+x,1/2-y,-z
1/2-x,1/2+y,-z
1/2-x,1/2-y,-z
1/2+x,1/2+y,-z
1/2-x,1/2+y,z
1/2+x,1/2-y,z
loop_
_atom_site_type_symbol
_atom_site_label
_atom_site_fract_x
_atom_site_fract_y
_atom_site_fract_z
Si Si1 0.901648 0.717298 0.238619
Si Si2 0.595097 0.788548 0.366578
Si Si3 0.500000 0.217892 0.435083
Si Si4 0.806072 0.789543 0.564736
Si Si5 0.446372 0.216387 0.120534
Si Si6 0.303536 0.788518 0.179489
Si Si7 0.345072 0.782990 0.063083
O O1 0.903056 0.500000 0.239863
O O2 0.910172 0.781078 0.302295
O O3 0.936533 0.769419 0.186131
O O4 0.847619 0.776158 0.218497
O O5 0.550009 0.721560 0.404642
O O6 0.648775 0.763998 0.394798
O O7 0.588434 0.000000 0.362745
O O8 0.500000 0.274540 0.500000
O O9 0.500000 0.000000 0.434552
O O10 0.811634 0.715557 0.500000
O O11 0.750000 0.750000 0.584050
O O12 0.809370 0.000000 0.560713
O O13 0.500000 0.276216 0.101480
O O14 0.400222 0.269976 0.082080
O O15 0.446013 0.000000 0.119747
O O16 0.250000 0.750000 0.201916
O O17 0.310795 0.721718 0.114937
O O18 0.309466 0.000000 0.176630
O O19 0.343966 0.000000 0.061913
O O20 0.332611 0.720652 0.000000
#
# Coordination Sequence:
#
# PCOD9486410 Si02
#       7
#    16  16   8  16  16  16  16
#     4   8  16  28  42  64  92 121 155 193 235 277
#     4  10  19  32  52  76 103 135 169 206 245 294
#     4   9  18  30  47  75 105 131 162 202 244 285
#     4  10  21  37  56  77 101 130 164 204 251 300
#     4   8  13  21  36  58  87 121 153 187 229 280
#     4   9  17  30  45  62  88 121 154 191 235 283
#     4   8  14  24  37  57  86 117 150 190 234 278
#
# _framework density 21.581748999999999
#
# number of rings (size 3 to 8) (size 9 to 14) (size 15 to 20)
#    0.000    3.154    0.000    2.769    1.077    2.769 
#    0.000    4.231    0.000    1.385    0.000    0.000 
#    0.000    6.000    0.000    5.538    0.000    6.154 
#
# Total GULP energy -289992.786196 kJ/mol
# GULP energy per Si atom -5576.784350 kJ/mol
# Density = 2.153263 g / cm^3
# Si number density = 21.581749 Si / 1000 Ang^3
#
#
#
# Elastic Constant Matrix: (Units=GPa)
#
#
# Indices 1 2 3 4 5 6 
#
# 1 65.4732 -5.4901 -2.3360 0.0000 0.0000 0.0000
# 2 -5.4901 52.6015 6.9634 0.0000 0.0000 0.0000
# 3 -2.3360 6.9634 91.1344 0.0000 0.0000 0.0000
# 4 0.0000 0.0000 0.0000 -8.5405 0.0000 0.0000
# 5 0.0000 0.0000 0.0000 0.0000 3.7841 0.0000
# 6 0.0000 0.0000 0.0000 0.0000 0.0000 10.4910
#
#
#
# Elastic Compliance Matrix: (Units=1/GPa)
#
#
# Indices 1 2 3 4 5 6 
#
# 1 0.015415 0.001573 0.000275 0.000000 0.000000 0.000000
# 2 0.001573 0.019366 -0.001439 0.000000 0.000000 0.000000
# 3 0.000275 -0.001439 0.011090 0.000000 0.000000 0.000000
# 4 0.000000 0.000000 0.000000 -0.117090 0.000000 0.000000
# 5 0.000000 0.000000 0.000000 0.000000 0.264264 0.000000
# 6 0.000000 0.000000 0.000000 0.000000 0.000000 0.095320
#
#
# Mechanical properties :
#
#
# Convention : Reuss Voigt Hill
#
# Bulk Modulus (GPa) = 21.41939 23.05374 22.23657
# Shear Modulus (GPa) = 16.49560 15.15171 15.82366
#
# Velocity S-wave (km/s) = 2.76765 2.65252 2.71070
# Velocity P-wave (km/s) = 4.48994 4.48178 4.48586
#
# Compressibility (1/GPa) = 0.04668667
#
# Stress axis : x y z
#
# Youngs Moduli (GPa) = 64.87148 51.63809 90.17266
#
# Poissons Ratio (x) = -0.08120 -0.02480
# Poissons Ratio (y) = -0.10201 0.12979
# Poissons Ratio (z) = -0.01784 0.07433
#
# Static dielectric constant tensor:
#      x y z
#    x 1.776520 0.000000 0.000000 
#    y 0.000000 1.845710 0.000000 
#    z 0.000000 0.000000 1.775750 
# 
# From -- ./inp_files/71868.got.cif
#   From: 2010.05.17/outbox.cif.g08.bks.cpg/sg65_36_cif.got.tgz:71868.got - 2010.06.03 17:01:31.
