data_PCOD9486120
_publ_section_title
;
Structure prediction by ZEFSAII (Michael W. Deem and Ramdas Pophale) SiO2 
 PCOD9486120
Probable space group: C M M M
;
_chemical_formula_sum "Si O2"
_cell_formula_units_Z 104
_cell_length_a 9.119107
_cell_length_b 29.335282
_cell_length_c 24.867119
_cell_angle_alpha 90.000000
_cell_angle_beta 90.000000
_cell_angle_gamma 90.000000
_cell_volume 6652.242180
_symmetry_space_group_name_H-M "C M M M"
_symmetry_group_IT_number 65
_symmetry_cell_setting 'orthorhombic'
loop_
_space_group_symop_operation_xyz
x,y,z
-x,-y,z
x,-y,-z
-x,y,-z
-x,-y,-z
x,y,-z
-x,y,z
x,-y,z
1/2+x,1/2+y,z
1/2-x,1/2-y,z
1/2+x,1/2-y,-z
1/2-x,1/2+y,-z
1/2-x,1/2-y,-z
1/2+x,1/2+y,-z
1/2-x,1/2+y,z
1/2+x,1/2-y,z
loop_
_atom_site_type_symbol
_atom_site_label
_atom_site_fract_x
_atom_site_fract_y
_atom_site_fract_z
Si Si1 0.176074 0.887460 0.847110
Si Si2 0.173952 0.702967 0.323145
Si Si3 0.324651 0.202034 0.804407
Si Si4 0.000000 0.445835 0.436349
Si Si5 0.674730 0.052815 0.063588
Si Si6 0.333197 0.104560 0.350655
Si Si7 0.676155 0.447980 0.743451
O O1 0.252625 0.839095 0.837030
O O2 0.234987 0.912860 0.899758
O O3 0.217040 0.919123 0.796001
O O4 0.000000 0.882658 0.848466
O O5 0.250000 0.750000 0.339453
O O6 0.204870 0.694887 0.259596
O O7 0.218907 0.656778 0.353894
O O8 0.000000 0.709198 0.329313
O O9 0.500000 0.203643 0.811605
O O10 0.250000 0.250000 0.818852
O O11 0.137611 0.421515 0.406621
O O12 0.000000 0.500000 0.425040
O O13 0.000000 0.439060 0.500000
O O14 0.500000 0.058541 0.072726
O O15 0.711678 0.000000 0.076531
O O16 0.701248 0.059427 0.000000
O O17 0.500000 0.107290 0.327032
O O18 0.237417 0.075960 0.309626
O O19 0.500000 0.448549 0.741054
O O20 0.729245 0.500000 0.747288
#
# Coordination Sequence:
#
# PCOD9486120 Si02
#       7
#    16  16  16   8  16  16  16
#     4  11  21  32  49  74 105 136 170 207 257 314
#     4   9  17  29  46  71  99 129 168 203 250 303
#     4  10  19  32  49  71 102 133 169 208 252 309
#     4   9  18  32  54  78 100 132 175 221 260 298
#     4   9  19  36  55  74  98 133 177 220 259 302
#     4   9  18  31  49  73  98 128 169 210 250 300
#     4  10  20  31  44  69 106 138 162 199 255 312
#
# _framework density 15.633827
#
# number of rings (size 3 to 8) (size 9 to 14) (size 15 to 20)
#    0.462    1.923    1.538    2.308    0.000    3.077 
#    0.000    0.769    0.000    1.385    0.000    2.154 
#    0.000    0.000    0.000    0.000    0.000    0.000 
#
# Total GULP energy -289695.871904 kJ/mol
# GULP energy per Si atom -5571.074460 kJ/mol
# Density = 1.559824 g / cm^3
# Si number density = 15.633827 Si / 1000 Ang^3
#
#
#
# Elastic Constant Matrix: (Units=GPa)
#
#
# Indices 1 2 3 4 5 6 
#
# 1 33.8514 49.6520 30.8249 0.0000 0.0000 0.0000
# 2 49.6520 163.8658 65.9562 0.0000 0.0000 0.0000
# 3 30.8249 65.9562 70.4590 0.0000 0.0000 0.0000
# 4 0.0000 0.0000 0.0000 17.6323 0.0000 0.0000
# 5 0.0000 0.0000 0.0000 0.0000 13.0292 0.0000
# 6 0.0000 0.0000 0.0000 0.0000 0.0000 28.7366
#
#
#
# Elastic Compliance Matrix: (Units=1/GPa)
#
#
# Indices 1 2 3 4 5 6 
#
# 1 0.061993 -0.012625 -0.015304 0.000000 0.000000 0.000000
# 2 -0.012625 0.012363 -0.006050 0.000000 0.000000 0.000000
# 3 -0.015304 -0.006050 0.026551 0.000000 0.000000 0.000000
# 4 0.000000 0.000000 0.000000 0.056714 0.000000 0.000000
# 5 0.000000 0.000000 0.000000 0.000000 0.076751 0.000000
# 6 0.000000 0.000000 0.000000 0.000000 0.000000 0.034799
#
#
# Mechanical properties :
#
#
# Convention : Reuss Voigt Hill
#
# Bulk Modulus (GPa) = 30.34765 62.33804 46.34285
# Shear Modulus (GPa) = 14.36324 19.99580 17.17952
#
# Velocity S-wave (km/s) = 3.03434 3.58020 3.31851
# Velocity P-wave (km/s) = 5.63294 7.55320 6.66261
#
# Compressibility (1/GPa) = 0.03295148
#
# Stress axis : x y z
#
# Youngs Moduli (GPa) = 16.13073 80.88744 37.66346
#
# Poissons Ratio (x) = 1.02116 0.57639
# Poissons Ratio (y) = 0.20364 0.22785
# Poissons Ratio (z) = 0.24686 0.48935
#
# Static dielectric constant tensor:
#      x y z
#    x 1.519760 0.000000 0.000000 
#    y 0.000000 1.532170 0.000000 
#    z 0.000000 0.000000 1.494970 
# 
# From -- ./inp_files/73729.got.cif
#   From: 2010.05.17/outbox.cif.g08.bks.cpg/sg65_37_cif.got.tgz:73729.got - 2010.06.03 17:01:31.
