data_PCOD9486138
_publ_section_title
;
Structure prediction by ZEFSAII (Michael W. Deem and Ramdas Pophale) SiO2 
 PCOD9486138
Probable space group: C M M M
;
_chemical_formula_sum "Si O2"
_cell_formula_units_Z 128
_cell_length_a 18.707538
_cell_length_b 17.694743
_cell_length_c 22.057854
_cell_angle_alpha 90.000000
_cell_angle_beta 90.000000
_cell_angle_gamma 90.000000
_cell_volume 7301.702820
_symmetry_space_group_name_H-M "C M M M"
_symmetry_group_IT_number 65
_symmetry_cell_setting 'orthorhombic'
loop_
_space_group_symop_operation_xyz
x,y,z
-x,-y,z
x,-y,-z
-x,y,-z
-x,-y,-z
x,y,-z
-x,y,z
x,-y,z
1/2+x,1/2+y,z
1/2-x,1/2-y,z
1/2+x,1/2-y,-z
1/2-x,1/2+y,-z
1/2-x,1/2-y,-z
1/2+x,1/2+y,-z
1/2-x,1/2+y,z
1/2+x,1/2-y,z
loop_
_atom_site_type_symbol
_atom_site_label
_atom_site_fract_x
_atom_site_fract_y
_atom_site_fract_z
Si Si1 0.082512 0.374887 0.697094
Si Si2 0.085720 0.159068 0.569076
Si Si3 0.582233 0.913296 0.073081
Si Si4 0.586615 0.837178 0.433953
Si Si5 0.813685 0.296980 0.861567
Si Si6 0.280875 0.082614 0.764114
Si Si7 0.581343 0.280525 0.768743
Si Si8 0.356219 0.412216 0.688855
O O1 0.107419 0.379296 0.627366
O O2 0.138288 0.415858 0.739970
O O3 0.085065 0.287351 0.719079
O O4 0.000000 0.399648 0.702507
O O5 0.099506 0.133409 0.500000
O O6 0.104258 0.248270 0.571760
O O7 0.126935 0.114865 0.621090
O O8 0.000000 0.152860 0.579832
O O9 0.500000 0.897932 0.092655
O O10 0.636825 0.852087 0.098885
O O11 0.599528 0.000000 0.091769
O O12 0.583361 0.911473 0.000000
O O13 0.612117 0.864516 0.500000
O O14 0.500000 0.840455 0.434590
O O15 0.750000 0.250000 0.892744
O O16 0.775275 0.351416 0.812645
O O17 0.865816 0.242757 0.822716
O O18 0.226388 0.095930 0.708855
O O19 0.263946 0.000000 0.789914
O O20 0.500000 0.283452 0.790730
O O21 0.601939 0.357266 0.734762
O O22 0.376207 0.500000 0.695551
#
# Coordination Sequence:
#
# PCOD9486138 Si02
#       8
#    16  16  16  16  16  16  16  16
#     4   9  17  30  51  71  91 120 160 214 266 316
#     4   9  17  30  48  69  93 123 165 220 275 329
#     4   9  19  37  61  89 121 155 189 226 269 316
#     4   8  13  24  44  67  88 110 145 199 258 314
#     4  11  20  34  56  83 112 149 179 223 266 309
#     4  10  22  36  49  71 103 138 174 213 262 317
#     4  10  19  32  49  74 100 130 177 221 260 312
#     4  11  21  33  47  65  98 141 172 212 271 329
#
# _framework density 17.530158
#
# number of rings (size 3 to 8) (size 9 to 14) (size 15 to 20)
#    0.000    2.375    2.500    2.250    0.000    2.250 
#    0.000    1.250    0.000    2.625    0.000    1.750 
#    0.000    0.000    0.000    8.250    0.000    0.000 
#
# Total GULP energy -356701.534354 kJ/mol
# GULP energy per Si atom -5573.461474 kJ/mol
# Density = 1.749026 g / cm^3
# Si number density = 17.530158 Si / 1000 Ang^3
#
#
#
# Elastic Constant Matrix: (Units=GPa)
#
#
# Indices 1 2 3 4 5 6 
#
# 1 74.7221 27.6641 23.9368 0.0000 0.0000 0.0000
# 2 27.6641 48.1746 15.4930 0.0000 0.0000 0.0000
# 3 23.9368 15.4930 38.0095 0.0000 0.0000 0.0000
# 4 0.0000 0.0000 0.0000 12.4874 0.0000 0.0000
# 5 0.0000 0.0000 0.0000 0.0000 22.7340 0.0000
# 6 0.0000 0.0000 0.0000 0.0000 0.0000 0.2783
#
#
#
# Elastic Compliance Matrix: (Units=1/GPa)
#
#
# Indices 1 2 3 4 5 6 
#
# 1 0.019236 -0.008229 -0.008760 0.000000 0.000000 0.000000
# 2 -0.008229 0.027410 -0.005990 0.000000 0.000000 0.000000
# 3 -0.008760 -0.005990 0.034267 0.000000 0.000000 0.000000
# 4 0.000000 0.000000 0.000000 0.080081 0.000000 0.000000
# 5 0.000000 0.000000 0.000000 0.000000 0.043987 0.000000
# 6 0.000000 0.000000 0.000000 0.000000 0.000000 3.592619
#
#
# Mechanical properties :
#
#
# Convention : Reuss Voigt Hill
#
# Bulk Modulus (GPa) = 28.60807 32.78821 30.69814
# Shear Modulus (GPa) = 1.29695 13.35409 7.32552
#
# Velocity S-wave (km/s) = 0.86107 2.76303 2.04643
# Velocity P-wave (km/s) = 4.16454 5.37807 4.80973
#
# Compressibility (1/GPa) = 0.03495517
#
# Stress axis : x y z
#
# Youngs Moduli (GPa) = 51.98709 36.48343 29.18235
#
# Poissons Ratio (x) = 0.30022 0.25562
# Poissons Ratio (y) = 0.42779 0.17481
# Poissons Ratio (z) = 0.45538 0.21854
#
# Static dielectric constant tensor:
#      x y z
#    x 1.602860 0.000000 0.000000 
#    y 0.000000 1.610740 0.000000 
#    z 0.000000 0.000000 1.599860 
# 
# From -- ./inp_files/64860.got.cif
#   From: 2010.05.17/outbox.cif.g08.bks.cpg/sg65_33_cif.got.tgz:64860.got - 2010.06.03 17:01:31.
