data_PCOD9486763
_publ_section_title
;
Structure prediction by ZEFSAII (Michael W. Deem and Ramdas Pophale) SiO2 
 PCOD9486763
Probable space group: C M M M
;
_chemical_formula_sum "Si O2"
_cell_formula_units_Z 120
_cell_length_a 8.557441
_cell_length_b 27.766387
_cell_length_c 28.880939
_cell_angle_alpha 90.000000
_cell_angle_beta 90.000000
_cell_angle_gamma 90.000000
_cell_volume 6862.377346
_symmetry_space_group_name_H-M "C M M M"
_symmetry_group_IT_number 65
_symmetry_cell_setting 'orthorhombic'
loop_
_space_group_symop_operation_xyz
x,y,z
-x,-y,z
x,-y,-z
-x,y,-z
-x,-y,-z
x,y,-z
-x,y,z
x,-y,z
1/2+x,1/2+y,z
1/2-x,1/2-y,z
1/2+x,1/2-y,-z
1/2-x,1/2+y,-z
1/2-x,1/2-y,-z
1/2+x,1/2+y,-z
1/2-x,1/2+y,z
1/2+x,1/2-y,z
loop_
_atom_site_type_symbol
_atom_site_label
_atom_site_fract_x
_atom_site_fract_y
_atom_site_fract_z
Si Si1 0.190086 0.052987 0.143353
Si Si2 0.686084 0.802277 0.715243
Si Si3 0.187714 0.196985 0.388181
Si Si4 0.312136 0.352432 0.196652
Si Si5 0.810869 0.892886 0.947673
Si Si6 0.186177 0.301970 0.893792
Si Si7 0.813574 0.500000 0.554687
Si Si8 0.188605 0.102873 0.446099
O O1 0.237732 0.095034 0.178251
O O2 0.235833 0.068531 0.091384
O O3 0.000000 0.052390 0.144064
O O4 0.247356 0.000000 0.155063
O O5 0.500000 0.800668 0.712181
O O6 0.750000 0.750000 0.730063
O O7 0.755643 0.811371 0.664376
O O8 0.741284 0.839318 0.754066
O O9 0.250000 0.250000 0.402716
O O10 0.238463 0.151092 0.418893
O O11 0.000000 0.199213 0.389028
O O12 0.500000 0.350296 0.198890
O O13 0.254641 0.316281 0.156530
O O14 0.744062 0.842402 0.929586
O O15 0.000000 0.889919 0.946785
O O16 0.762130 0.903903 0.000000
O O17 0.250000 0.250000 0.907232
O O18 0.000000 0.301796 0.891363
O O19 0.769190 0.500000 0.500000
O O20 0.749728 0.448671 0.572799
O O21 0.000000 0.500000 0.558461
O O22 0.237695 0.106951 0.500000
O O23 0.000000 0.101161 0.444822
#
# Coordination Sequence:
#
# PCOD9486763 Si02
#       8
#    16  16  16  16  16  16   8  16
#     4   8  15  29  51  77 100 124 157 199 244 286
#     4  11  21  34  53  76 103 134 169 206 251 300
#     4  10  20  34  52  76 107 142 179 216 262 315
#     4  10  19  33  53  76 101 126 160 203 246 294
#     4   9  18  32  49  71  99 129 162 199 239 286
#     4  11  21  33  49  70  97 127 161 199 243 292
#     4   9  17  29  49  77 103 131 173 223 271 313
#     4   9  18  33  53  76 105 142 182 223 267 317
#
# _framework density 17.486650999999998
#
# number of rings (size 3 to 8) (size 9 to 14) (size 15 to 20)
#    0.000    2.333    0.000    5.400    0.000    2.933 
#    0.000    1.333    1.467   10.000    0.000    3.733 
#    0.000    0.000    0.000    0.000    0.000    0.000 
#
# Total GULP energy -334618.735668 kJ/mol
# GULP energy per Si atom -5576.978928 kJ/mol
# Density = 1.744685 g / cm^3
# Si number density = 17.486651 Si / 1000 Ang^3
#
#
#
# Elastic Constant Matrix: (Units=GPa)
#
#
# Indices 1 2 3 4 5 6 
#
# 1 48.1746 25.4801 20.0490 0.0000 0.0000 0.0000
# 2 25.4801 133.2949 66.2038 0.0000 0.0000 0.0000
# 3 20.0490 66.2038 75.8465 0.0000 0.0000 0.0000
# 4 0.0000 0.0000 0.0000 8.3160 0.0000 0.0000
# 5 0.0000 0.0000 0.0000 0.0000 20.3614 0.0000
# 6 0.0000 0.0000 0.0000 0.0000 0.0000 22.3235
#
#
#
# Elastic Compliance Matrix: (Units=1/GPa)
#
#
# Indices 1 2 3 4 5 6 
#
# 1 0.023792 -0.002514 -0.004094 0.000000 0.000000 0.000000
# 2 -0.002514 0.013509 -0.011127 0.000000 0.000000 0.000000
# 3 -0.004094 -0.011127 0.023979 0.000000 0.000000 0.000000
# 4 0.000000 0.000000 0.000000 0.120250 0.000000 0.000000
# 5 0.000000 0.000000 0.000000 0.000000 0.049113 0.000000
# 6 0.000000 0.000000 0.000000 0.000000 0.000000 0.044796
#
#
# Mechanical properties :
#
#
# Convention : Reuss Voigt Hill
#
# Bulk Modulus (GPa) = 38.74677 53.42021 46.08349
# Shear Modulus (GPa) = 15.64878 19.90572 17.77725
#
# Velocity S-wave (km/s) = 2.99473 3.37759 3.19190
# Velocity P-wave (km/s) = 5.84499 6.76951 6.32417
#
# Compressibility (1/GPa) = 0.02580860
#
# Stress axis : x y z
#
# Youngs Moduli (GPa) = 42.03155 74.02259 41.70254
#
# Poissons Ratio (x) = 0.18612 0.17074
# Poissons Ratio (y) = 0.10568 0.46403
# Poissons Ratio (z) = 0.17209 0.82367
#
# Static dielectric constant tensor:
#      x y z
#    x 1.591410 0.000000 0.000000 
#    y 0.000000 1.606210 0.000000 
#    z 0.000000 0.000000 1.581030 
# 
# From -- ./inp_files/73902.got.cif
#   From: 2010.05.17/outbox.cif.g08.bks.cpg/sg65_37_cif.got.tgz:73902.got - 2010.06.03 17:01:31.
