data_PCOD9486890
_publ_section_title
;
Structure prediction by ZEFSAII (Michael W. Deem and Ramdas Pophale) SiO2 
 PCOD9486890
Probable space group: C M M M
;
_chemical_formula_sum "Si O2"
_cell_formula_units_Z 88
_cell_length_a 8.304075
_cell_length_b 18.787245
_cell_length_c 30.022394
_cell_angle_alpha 90.000000
_cell_angle_beta 90.000000
_cell_angle_gamma 90.000000
_cell_volume 4683.814449
_symmetry_space_group_name_H-M "C M M M"
_symmetry_group_IT_number 65
_symmetry_cell_setting 'orthorhombic'
loop_
_space_group_symop_operation_xyz
x,y,z
-x,-y,z
x,-y,-z
-x,y,-z
-x,-y,-z
x,y,-z
-x,y,z
x,-y,z
1/2+x,1/2+y,z
1/2-x,1/2-y,z
1/2+x,1/2-y,-z
1/2-x,1/2+y,-z
1/2-x,1/2-y,-z
1/2+x,1/2+y,-z
1/2-x,1/2+y,z
1/2+x,1/2-y,z
loop_
_atom_site_type_symbol
_atom_site_label
_atom_site_fract_x
_atom_site_fract_y
_atom_site_fract_z
Si Si1 0.804878 0.668371 0.865096
Si Si2 0.693448 0.832006 0.329069
Si Si3 0.803700 0.582889 0.049067
Si Si4 0.192523 0.081395 0.585604
Si Si5 0.809194 0.331205 0.500000
Si Si6 0.694216 0.832041 0.768445
O O1 0.750000 0.750000 0.867887
O O2 0.745363 0.626177 0.908256
O O3 0.752304 0.638293 0.816529
O O4 0.000000 0.666713 0.865658
O O5 0.500000 0.831948 0.330158
O O6 0.750000 0.750000 0.334152
O O7 0.756042 0.880030 0.369017
O O8 0.747901 0.859534 0.279974
O O9 0.759215 0.500000 0.052825
O O10 0.000000 0.585557 0.049423
O O11 0.751673 0.609106 0.000000
O O12 0.251009 0.127107 0.543696
O O13 0.000000 0.079413 0.583945
O O14 0.253448 0.000000 0.583532
O O15 0.750000 0.250000 0.500000
O O16 0.000000 0.330101 0.500000
O O17 0.500000 0.834440 0.768288
O O18 0.750000 0.750000 0.768856
#
# Coordination Sequence:
#
# PCOD9486890 Si02
#       6
#    16  16  16  16   8  16
#     4   9  16  27  44  67  93 120 154 197 245 292
#     4  10  19  33  54  78 104 135 174 214 252 300
#     4   8  14  25  41  61  86 118 156 196 238 288
#     4  11  24  41  59  81 112 145 175 211 257 303
#     4  12  25  42  65  89 113 141 177 216 253 298
#     4   8  15  27  44  68  96 126 159 198 244 291
#
# _framework density 18.788105000000002
#
# number of rings (size 3 to 8) (size 9 to 14) (size 15 to 20)
#    0.000    2.545    0.000    3.273    0.000    3.636 
#    0.000    0.909    0.000    3.818    0.000    1.273 
#    0.000    0.000    0.000    0.000    0.000    0.000 
#
# Total GULP energy -245215.149656 kJ/mol
# GULP energy per Si atom -5573.071583 kJ/mol
# Density = 1.874534 g / cm^3
# Si number density = 18.788105 Si / 1000 Ang^3
#
#
#
# Elastic Constant Matrix: (Units=GPa)
#
#
# Indices 1 2 3 4 5 6 
#
# 1 32.0444 18.0662 30.0077 0.0000 0.0000 0.0000
# 2 18.0662 93.8893 98.7258 0.0000 0.0000 0.0000
# 3 30.0077 98.7258 250.6588 0.0000 0.0000 0.0000
# 4 0.0000 0.0000 0.0000 -31.2407 0.0000 0.0000
# 5 0.0000 0.0000 0.0000 0.0000 6.4308 0.0000
# 6 0.0000 0.0000 0.0000 0.0000 0.0000 17.8187
#
#
#
# Elastic Compliance Matrix: (Units=1/GPa)
#
#
# Indices 1 2 3 4 5 6 
#
# 1 0.036046 -0.004094 -0.002703 0.000000 0.000000 0.000000
# 2 -0.004094 0.018645 -0.006854 0.000000 0.000000 0.000000
# 3 -0.002703 -0.006854 0.007012 0.000000 0.000000 0.000000
# 4 0.000000 0.000000 0.000000 -0.032010 0.000000 0.000000
# 5 0.000000 0.000000 0.000000 0.000000 0.155501 0.000000
# 6 0.000000 0.000000 0.000000 0.000000 0.000000 0.056121
#
#
# Mechanical properties :
#
#
# Convention : Reuss Voigt Hill
#
# Bulk Modulus (GPa) = 29.06740 74.46579 51.76659
# Shear Modulus (GPa) = 17.85181 13.92128 15.88655
#
# Velocity S-wave (km/s) = 3.08582 2.72502 2.91101
# Velocity P-wave (km/s) = 5.31047 7.04426 6.23789
#
# Compressibility (1/GPa) = 0.03440280
#
# Stress axis : x y z
#
# Youngs Moduli (GPa) = 27.74251 53.63296 142.60362
#
# Poissons Ratio (x) = 0.21957 0.38542
# Poissons Ratio (y) = 0.11358 0.97735
# Poissons Ratio (z) = 0.07498 0.36758
#
# Static dielectric constant tensor:
#      x y z
#    x 1.642490 0.000000 0.000000 
#    y 0.000000 1.601870 0.000000 
#    z 0.000000 0.000000 1.717220 
# 
# From -- ./inp_files/76473.got.cif
#   From: 2010.05.17/outbox.cif.g08.bks.cpg/sg65_39_cif.got.tgz:76473.got - 2010.06.03 17:01:31.
