data_PCOD9486193
_publ_section_title
;
Structure prediction by ZEFSAII (Michael W. Deem and Ramdas Pophale) SiO2 
 PCOD9486193
Probable space group: C M M M
;
_chemical_formula_sum "Si O2"
_cell_formula_units_Z 72
_cell_length_a 27.639322
_cell_length_b 8.591540
_cell_length_c 16.445816
_cell_angle_alpha 90.000000
_cell_angle_beta 90.000000
_cell_angle_gamma 90.000000
_cell_volume 3905.294851
_symmetry_space_group_name_H-M "C M M M"
_symmetry_group_IT_number 65
_symmetry_cell_setting 'orthorhombic'
loop_
_space_group_symop_operation_xyz
x,y,z
-x,-y,z
x,-y,-z
-x,y,-z
-x,-y,-z
x,y,-z
-x,y,z
x,-y,z
1/2+x,1/2+y,z
1/2-x,1/2-y,z
1/2+x,1/2-y,-z
1/2-x,1/2+y,-z
1/2-x,1/2-y,-z
1/2+x,1/2+y,-z
1/2-x,1/2+y,z
1/2+x,1/2-y,z
loop_
_atom_site_type_symbol
_atom_site_label
_atom_site_fract_x
_atom_site_fract_y
_atom_site_fract_z
Si Si1 0.848782 0.185369 0.665496
Si Si2 0.945383 0.311503 0.740225
Si Si3 0.804412 0.685634 0.500000
Si Si4 0.901685 0.310977 0.910365
Si Si5 0.198005 0.686487 0.171275
O O1 0.903410 0.237907 0.686004
O O2 0.830940 0.254412 0.580738
O O3 0.816164 0.249928 0.739656
O O4 0.845257 0.000000 0.663981
O O5 0.940807 0.500000 0.736286
O O6 0.934329 0.263935 0.833772
O O7 0.000000 0.269339 0.717580
O O8 0.803308 0.500000 0.500000
O O9 0.750000 0.750000 0.500000
O O10 0.903619 0.500000 0.912343
O O11 0.846481 0.268201 0.887460
O O12 0.915275 0.253918 0.000000
O O13 0.199424 0.500000 0.174901
O O14 0.250000 0.750000 0.145937
#
# Coordination Sequence:
#
# PCOD9486193 Si02
#       5
#    16  16   8  16  16
#     4  11  22  37  56  80 109 140 177 218 261 311
#     4   9  18  34  56  80 107 141 179 220 269 319
#     4  12  24  40  61  86 115 142 172 211 257 309
#     4   8  15  28  47  74 106 138 176 222 267 315
#     4  10  19  32  50  73 103 141 181 220 266 318
#
# _framework density 18.436508
#
# number of rings (size 3 to 8) (size 9 to 14) (size 15 to 20)
#    0.000    2.222    0.000    5.667    0.000    1.333 
#    0.000    2.778    0.000   19.333    0.000    6.222 
#    0.000    0.000    0.000    0.000    0.000    0.000 
#
# Total GULP energy -200961.113161 kJ/mol
# GULP energy per Si atom -5582.253143 kJ/mol
# Density = 1.839455 g / cm^3
# Si number density = 18.436508 Si / 1000 Ang^3
#
#
#
# Elastic Constant Matrix: (Units=GPa)
#
#
# Indices 1 2 3 4 5 6 
#
# 1 94.4298 27.7003 23.0199 0.0000 0.0000 0.0000
# 2 27.7003 73.9542 20.7241 0.0000 0.0000 0.0000
# 3 23.0199 20.7241 99.5556 0.0000 0.0000 0.0000
# 4 0.0000 0.0000 0.0000 8.7406 0.0000 0.0000
# 5 0.0000 0.0000 0.0000 0.0000 -20.6491 0.0000
# 6 0.0000 0.0000 0.0000 0.0000 0.0000 28.8471
#
#
#
# Elastic Compliance Matrix: (Units=1/GPa)
#
#
# Indices 1 2 3 4 5 6 
#
# 1 0.012259 -0.004033 -0.001995 0.000000 0.000000 0.000000
# 2 -0.004033 0.015686 -0.002333 0.000000 0.000000 0.000000
# 3 -0.001995 -0.002333 0.010992 0.000000 0.000000 0.000000
# 4 0.000000 0.000000 0.000000 0.114408 0.000000 0.000000
# 5 0.000000 0.000000 0.000000 0.000000 -0.048428 0.000000
# 6 0.000000 0.000000 0.000000 0.000000 0.000000 0.034665
#
#
# Mechanical properties :
#
#
# Convention : Reuss Voigt Hill
#
# Bulk Modulus (GPa) = 45.01373 45.64759 45.33066
# Shear Modulus (GPa) = 30.54199 16.48742 23.51471
#
# Velocity S-wave (km/s) = 4.07456 2.99370 3.57521
# Velocity P-wave (km/s) = 6.82675 6.06323 6.45629
#
# Compressibility (1/GPa) = 0.02221544
#
# Stress axis : x y z
#
# Youngs Moduli (GPa) = 81.57116 63.75073 90.97862
#
# Poissons Ratio (x) = 0.25709 0.18152
# Poissons Ratio (y) = 0.32895 0.21224
# Poissons Ratio (z) = 0.16275 0.14872
#
# Static dielectric constant tensor:
#      x y z
#    x 1.623480 0.000000 0.000000 
#    y 0.000000 1.627450 0.000000 
#    z 0.000000 0.000000 1.621160 
# 
# From -- ./inp_files/36509.got.cif
#   From: 2010.05.17/outbox.cif.g08.bks.cpg/sg65_19_cif.got.tgz:36509.got - 2010.06.03 17:01:31.
