data_PCOD9486606
_publ_section_title
;
Structure prediction by ZEFSAII (Michael W. Deem and Ramdas Pophale) SiO2 
 PCOD9486606
Probable space group: C M M M
;
_chemical_formula_sum "Si O2"
_cell_formula_units_Z 116
_cell_length_a 10.046412
_cell_length_b 29.539137
_cell_length_c 21.890457
_cell_angle_alpha 90.000000
_cell_angle_beta 90.000000
_cell_angle_gamma 90.000000
_cell_volume 6496.263252
_symmetry_space_group_name_H-M "C M M M"
_symmetry_group_IT_number 65
_symmetry_cell_setting 'orthorhombic'
loop_
_space_group_symop_operation_xyz
x,y,z
-x,-y,z
x,-y,-z
-x,y,-z
-x,-y,-z
x,y,-z
-x,y,z
x,-y,z
1/2+x,1/2+y,z
1/2-x,1/2-y,z
1/2+x,1/2-y,-z
1/2-x,1/2+y,-z
1/2-x,1/2-y,-z
1/2+x,1/2+y,-z
1/2-x,1/2+y,z
1/2+x,1/2-y,z
loop_
_atom_site_type_symbol
_atom_site_label
_atom_site_fract_x
_atom_site_fract_y
_atom_site_fract_z
Si Si1 0.650649 0.791387 0.757617
Si Si2 0.000000 0.681140 0.000000
Si Si3 0.161337 0.449342 0.704979
Si Si4 0.352973 0.389585 0.072519
Si Si5 0.844528 0.207799 0.426426
Si Si6 0.779309 0.303246 0.895861
Si Si7 0.656117 0.946032 0.155290
Si Si8 0.342916 0.857910 0.643277
O O1 0.500000 0.773941 0.754411
O O2 0.750000 0.750000 0.746858
O O3 0.674410 0.809678 0.826020
O O4 0.665445 0.829819 0.706659
O O5 0.885951 0.682934 0.946233
O O6 0.207778 0.500000 0.689219
O O7 0.201331 0.438445 0.774694
O O8 0.194714 0.409417 0.658868
O O9 0.000000 0.450630 0.707031
O O10 0.500000 0.407022 0.087483
O O11 0.341975 0.337014 0.091483
O O12 0.242338 0.417257 0.108803
O O13 0.333072 0.393483 0.000000
O O14 0.847956 0.207282 0.500000
O O15 0.750000 0.250000 0.407526
O O16 0.762935 0.164824 0.401759
O O17 0.000000 0.211215 0.405566
O O18 0.750000 0.250000 0.903249
O O19 0.500000 0.933923 0.150331
O O20 0.667123 0.000000 0.143789
O O21 0.500000 0.855286 0.623499
#
# Coordination Sequence:
#
# PCOD9486606 Si02
#       8
#    16   4  16  16  16  16  16  16
#     4  10  21  35  50  74 107 138 173 220 274 326
#     4  12  22  36  58  76  89 144 185 236 264 320
#     4   8  15  31  55  82 109 137 173 220 270 315
#     4  11  25  38  51  72 101 133 166 213 273 334
#     4  10  21  37  57  83 116 153 190 226 262 309
#     4  11  24  37  55  74 101 137 183 226 273 324
#     4   9  19  37  61  83 102 129 170 218 265 321
#     4  10  19  32  55  84 112 145 180 221 270 319
#
# _framework density 17.856418999999999
#
# number of rings (size 3 to 8) (size 9 to 14) (size 15 to 20)
#    0.000    2.069    1.379    2.690    1.931    4.966 
#    0.000    3.448    0.000    1.655    0.000    2.897 
#    0.000    0.000    0.000    0.000    0.000    0.000 
#
# Total GULP energy -323005.835375 kJ/mol
# GULP energy per Si atom -5569.066127 kJ/mol
# Density = 1.781578 g / cm^3
# Si number density = 17.856419 Si / 1000 Ang^3
#
#
#
# Elastic Constant Matrix: (Units=GPa)
#
#
# Indices 1 2 3 4 5 6 
#
# 1 102.3007 45.7941 30.5933 0.0000 0.0000 0.0000
# 2 45.7941 77.6874 23.1962 0.0000 0.0000 0.0000
# 3 30.5933 23.1962 39.5871 0.0000 0.0000 0.0000
# 4 0.0000 0.0000 0.0000 16.3376 0.0000 0.0000
# 5 0.0000 0.0000 0.0000 0.0000 137.8657 0.0000
# 6 0.0000 0.0000 0.0000 0.0000 0.0000 10.5435
#
#
#
# Elastic Compliance Matrix: (Units=1/GPa)
#
#
# Indices 1 2 3 4 5 6 
#
# 1 0.015028 -0.006534 -0.007785 0.000000 0.000000 0.000000
# 2 -0.006534 0.018443 -0.005757 0.000000 0.000000 0.000000
# 3 -0.007785 -0.005757 0.034651 0.000000 0.000000 0.000000
# 4 0.000000 0.000000 0.000000 0.061209 0.000000 0.000000
# 5 0.000000 0.000000 0.000000 0.000000 0.007253 0.000000
# 6 0.000000 0.000000 0.000000 0.000000 0.000000 0.094845
#
#
# Mechanical properties :
#
#
# Convention : Reuss Voigt Hill
#
# Bulk Modulus (GPa) = 35.75406 46.52693 41.14049
# Shear Modulus (GPa) = 17.79966 40.94880 29.37423
#
# Velocity S-wave (km/s) = 3.16067 4.79396 4.06029
# Velocity P-wave (km/s) = 5.77809 7.53362 6.71349
#
# Compressibility (1/GPa) = 0.02796886
#
# Stress axis : x y z
#
# Youngs Moduli (GPa) = 66.54140 54.22210 28.85952
#
# Poissons Ratio (x) = 0.35429 0.22468
# Poissons Ratio (y) = 0.43479 0.16614
# Poissons Ratio (z) = 0.51804 0.31215
#
# Static dielectric constant tensor:
#      x y z
#    x 1.605890 0.000000 0.000000 
#    y 0.000000 1.642680 0.000000 
#    z 0.000000 0.000000 1.602340 
# 
# From -- ./inp_files/68359.got.cif
#   From: 2010.05.17/outbox.cif.g08.bks.cpg/sg65_35_cif.got.tgz:68359.got - 2010.06.03 17:01:31.
