data_PCOD9486124
_publ_section_title
;
Structure prediction by ZEFSAII (Michael W. Deem and Ramdas Pophale) SiO2 
 PCOD9486124
Probable space group: C M M M
;
_chemical_formula_sum "Si O2"
_cell_formula_units_Z 56
_cell_length_a 8.468622
_cell_length_b 25.204892
_cell_length_c 14.924872
_cell_angle_alpha 90.000000
_cell_angle_beta 90.000000
_cell_angle_gamma 90.000000
_cell_volume 3185.724419
_symmetry_space_group_name_H-M "C M M M"
_symmetry_group_IT_number 65
_symmetry_cell_setting 'orthorhombic'
loop_
_space_group_symop_operation_xyz
x,y,z
-x,-y,z
x,-y,-z
-x,y,-z
-x,-y,-z
x,y,-z
-x,y,z
x,-y,z
1/2+x,1/2+y,z
1/2-x,1/2-y,z
1/2+x,1/2-y,-z
1/2-x,1/2+y,-z
1/2-x,1/2-y,-z
1/2+x,1/2+y,-z
1/2-x,1/2+y,z
1/2+x,1/2-y,z
loop_
_atom_site_type_symbol
_atom_site_label
_atom_site_fract_x
_atom_site_fract_y
_atom_site_fract_z
Si Si1 0.692193 0.500000 0.898339
Si Si2 0.810976 0.082917 0.749983
Si Si3 0.689837 0.190017 0.500000
Si Si4 0.189596 0.500000 0.395128
Si Si5 0.810596 0.310023 0.303688
O O1 0.500000 0.500000 0.901629
O O2 0.739137 0.449730 0.838095
O O3 0.750535 0.500000 0.000000
O O4 0.745357 0.050765 0.663441
O O5 0.753424 0.143221 0.757439
O O6 0.000000 0.081503 0.743613
O O7 0.500000 0.187878 0.500000
O O8 0.750000 0.250000 0.500000
O O9 0.742806 0.170228 0.403473
O O10 0.243089 0.500000 0.500000
O O11 0.000000 0.500000 0.396833
O O12 0.750000 0.250000 0.289000
O O13 0.000000 0.308382 0.301379
#
# Coordination Sequence:
#
# PCOD9486124 Si02
#       5
#     8  16   8   8  16
#     4   8  16  34  58  79 100 127 163 210 262 316
#     4  10  20  33  52  79 104 130 170 213 260 310
#     4   8  16  28  42  61  88 129 174 206 234 276
#     4  10  21  35  50  69 100 141 177 210 252 300
#     4  10  19  32  49  71 103 140 178 213 252 298
#
# _framework density 17.578419
#
# number of rings (size 3 to 8) (size 9 to 14) (size 15 to 20)
#    0.000    2.571    0.000    3.000    2.000    2.286 
#    0.000    0.000    0.000   16.286    0.000    0.000 
#    0.000    0.000    0.000    0.000    0.000    0.000 
#
# Total GULP energy -155898.130925 kJ/mol
# GULP energy per Si atom -5567.790390 kJ/mol
# Density = 1.753841 g / cm^3
# Si number density = 17.578419 Si / 1000 Ang^3
#
#
#
# Elastic Constant Matrix: (Units=GPa)
#
#
# Indices 1 2 3 4 5 6 
#
# 1 42.5146 32.3399 25.6393 0.0000 0.0000 0.0000
# 2 32.3399 149.0810 68.1625 0.0000 0.0000 0.0000
# 3 25.6393 68.1625 125.0942 0.0000 0.0000 0.0000
# 4 0.0000 0.0000 0.0000 12.1584 0.0000 0.0000
# 5 0.0000 0.0000 0.0000 0.0000 8.6487 0.0000
# 6 0.0000 0.0000 0.0000 0.0000 0.0000 29.6070
#
#
#
# Elastic Compliance Matrix: (Units=1/GPa)
#
#
# Indices 1 2 3 4 5 6 
#
# 1 0.029201 -0.004792 -0.003374 0.000000 0.000000 0.000000
# 2 -0.004792 0.009720 -0.004314 0.000000 0.000000 0.000000
# 3 -0.003374 -0.004314 0.011036 0.000000 0.000000 0.000000
# 4 0.000000 0.000000 0.000000 0.082248 0.000000 0.000000
# 5 0.000000 0.000000 0.000000 0.000000 0.115624 0.000000
# 6 0.000000 0.000000 0.000000 0.000000 0.000000 0.033776
#
#
# Mechanical properties :
#
#
# Convention : Reuss Voigt Hill
#
# Bulk Modulus (GPa) = 40.00448 63.21924 51.61186
# Shear Modulus (GPa) = 15.87819 22.78603 19.33211
#
# Velocity S-wave (km/s) = 3.00872 3.60425 3.31987
# Velocity P-wave (km/s) = 5.90567 7.30500 6.64229
#
# Compressibility (1/GPa) = 0.02499720
#
# Stress axis : x y z
#
# Youngs Moduli (GPa) = 34.24517 102.88366 90.61117
#
# Poissons Ratio (x) = 0.49301 0.30572
# Poissons Ratio (y) = 0.16410 0.39090
# Poissons Ratio (z) = 0.11554 0.44384
#
# Static dielectric constant tensor:
#      x y z
#    x 1.606820 0.000000 0.000000 
#    y 0.000000 1.598830 0.000000 
#    z 0.000000 0.000000 1.631350 
# 
# From -- ./inp_files/35551.got.cif
#   From: 2010.05.17/outbox.cif.g08.bks.cpg/sg65_18_cif.got.tgz:35551.got - 2010.06.03 17:01:31.
