data_PCOD9486764
_publ_section_title
;
Structure prediction by ZEFSAII (Michael W. Deem and Ramdas Pophale) SiO2 
 PCOD9486764
Probable space group: C M M M
;
_chemical_formula_sum "Si O2"
_cell_formula_units_Z 104
_cell_length_a 29.671239
_cell_length_b 8.547863
_cell_length_c 24.077801
_cell_angle_alpha 90.000000
_cell_angle_beta 90.000000
_cell_angle_gamma 90.000000
_cell_volume 6106.748796
_symmetry_space_group_name_H-M "C M M M"
_symmetry_group_IT_number 65
_symmetry_cell_setting 'orthorhombic'
loop_
_space_group_symop_operation_xyz
x,y,z
-x,-y,z
x,-y,-z
-x,y,-z
-x,-y,-z
x,y,-z
-x,y,z
x,-y,z
1/2+x,1/2+y,z
1/2-x,1/2-y,z
1/2+x,1/2-y,-z
1/2-x,1/2+y,-z
1/2-x,1/2-y,-z
1/2+x,1/2+y,-z
1/2-x,1/2+y,z
1/2+x,1/2-y,z
loop_
_atom_site_type_symbol
_atom_site_label
_atom_site_fract_x
_atom_site_fract_y
_atom_site_fract_z
Si Si1 0.554715 0.680698 0.500000
Si Si2 0.798002 0.188006 0.105441
Si Si3 0.391476 0.187540 0.274987
Si Si4 0.051801 0.688855 0.832778
Si Si5 0.105567 0.189255 0.938179
Si Si6 0.798368 0.812684 0.235069
Si Si7 0.947613 0.189850 0.378394
O O1 0.570155 0.500000 0.500000
O O2 0.500000 0.677499 0.500000
O O3 0.567115 0.748219 0.560125
O O4 0.750000 0.250000 0.084741
O O5 0.842672 0.238872 0.073138
O O6 0.803216 0.236940 0.170132
O O7 0.796371 0.000000 0.103978
O O8 0.419237 0.241902 0.220395
O O9 0.340666 0.247543 0.268502
O O10 0.416381 0.249335 0.329512
O O11 0.391684 0.000000 0.275485
O O12 0.052187 0.500000 0.832889
O O13 0.074566 0.747270 0.889198
O O14 0.000000 0.741223 0.828294
O O15 0.104661 0.000000 0.935873
O O16 0.091511 0.238190 0.000000
O O17 0.750000 0.750000 0.254427
O O18 0.798628 0.000000 0.236617
O O19 0.000000 0.235859 0.369119
O O20 0.946679 0.000000 0.379486
#
# Coordination Sequence:
#
# PCOD9486764 Si02
#       7
#     8  16  16  16  16  16  16
#     4   7  12  26  47  71 102 139 178 215 249 291
#     4   9  18  32  51  74  99 124 154 194 244 300
#     4  11  21  33  51  76 106 136 169 210 256 301
#     4  10  22  38  53  70  96 130 167 208 252 297
#     4  10  21  37  54  73  97 125 161 205 252 304
#     4  10  19  33  53  76 102 131 165 204 252 305
#     4   9  17  30  50  76 106 142 180 215 252 296
#
# _framework density 17.030339999999999
#
# number of rings (size 3 to 8) (size 9 to 14) (size 15 to 20)
#    0.000    2.385    1.538    2.308    0.000    4.000 
#    0.000    1.923    0.000    1.385    0.000    0.538 
#    0.000    0.000    0.000    0.000    0.000    0.000 
#
# Total GULP energy -290041.267563 kJ/mol
# GULP energy per Si atom -5577.716684 kJ/mol
# Density = 1.699158 g / cm^3
# Si number density = 17.030340 Si / 1000 Ang^3
#
#
#
# Elastic Constant Matrix: (Units=GPa)
#
#
# Indices 1 2 3 4 5 6 
#
# 1 124.8183 24.0128 75.8271 0.0000 0.0000 0.0000
# 2 24.0128 16.0889 24.3694 0.0000 0.0000 0.0000
# 3 75.8271 24.3694 141.8488 0.0000 0.0000 0.0000
# 4 0.0000 0.0000 0.0000 14.3461 0.0000 0.0000
# 5 0.0000 0.0000 0.0000 0.0000 19.6721 0.0000
# 6 0.0000 0.0000 0.0000 0.0000 0.0000 24.3747
#
#
#
# Elastic Compliance Matrix: (Units=1/GPa)
#
#
# Indices 1 2 3 4 5 6 
#
# 1 0.013487 -0.012449 -0.005071 0.000000 0.000000 0.000000
# 2 -0.012449 0.095508 -0.009753 0.000000 0.000000 0.000000
# 3 -0.005071 -0.009753 0.011436 0.000000 0.000000 0.000000
# 4 0.000000 0.000000 0.000000 0.069705 0.000000 0.000000
# 5 0.000000 0.000000 0.000000 0.000000 0.050833 0.000000
# 6 0.000000 0.000000 0.000000 0.000000 0.000000 0.041026
#
#
# Mechanical properties :
#
#
# Convention : Reuss Voigt Hill
#
# Bulk Modulus (GPa) = 15.17804 59.01941 37.09873
# Shear Modulus (GPa) = 13.94683 22.24836 18.09760
#
# Velocity S-wave (km/s) = 2.86482 3.61833 3.26340
# Velocity P-wave (km/s) = 4.45810 7.22406 6.00257
#
# Compressibility (1/GPa) = 0.06588465
#
# Stress axis : x y z
#
# Youngs Moduli (GPa) = 74.14403 10.47035 87.44156
#
# Poissons Ratio (x) = 0.13034 0.44343
# Poissons Ratio (y) = 0.92300 0.85286
# Poissons Ratio (z) = 0.37599 0.10212
#
# Static dielectric constant tensor:
#      x y z
#    x 1.559310 0.000000 0.000000 
#    y 0.000000 1.579730 0.000000 
#    z 0.000000 0.000000 1.581180 
# 
# From -- ./inp_files/60457.got.cif
#   From: 2010.05.17/outbox.cif.g08.bks.cpg/sg65_31_cif.got.tgz:60457.got - 2010.06.03 17:01:31.
