data_PCOD9486436
_publ_section_title
;
Structure prediction by ZEFSAII (Michael W. Deem and Ramdas Pophale) SiO2 
 PCOD9486436
Probable space group: C M M M
;
_chemical_formula_sum "Si O2"
_cell_formula_units_Z 96
_cell_length_a 19.192088
_cell_length_b 8.202647
_cell_length_c 31.948739
_cell_angle_alpha 90.000000
_cell_angle_beta 90.000000
_cell_angle_gamma 90.000000
_cell_volume 5029.559728
_symmetry_space_group_name_H-M "C M M M"
_symmetry_group_IT_number 65
_symmetry_cell_setting 'orthorhombic'
loop_
_space_group_symop_operation_xyz
x,y,z
-x,-y,z
x,-y,-z
-x,y,-z
-x,-y,-z
x,y,-z
-x,y,z
x,-y,z
1/2+x,1/2+y,z
1/2-x,1/2-y,z
1/2+x,1/2-y,-z
1/2-x,1/2+y,-z
1/2-x,1/2-y,-z
1/2+x,1/2+y,-z
1/2-x,1/2+y,z
1/2+x,1/2-y,z
loop_
_atom_site_type_symbol
_atom_site_label
_atom_site_fract_x
_atom_site_fract_y
_atom_site_fract_z
Si Si1 0.829818 0.302684 0.125837
Si Si2 0.580897 0.198790 0.546311
Si Si3 0.329530 0.804479 0.375194
Si Si4 0.920500 0.695964 0.204924
Si Si5 0.169893 0.193036 0.717134
Si Si6 0.419845 0.198775 0.047365
O O1 0.831454 0.500000 0.125913
O O2 0.750000 0.250000 0.128727
O O3 0.875064 0.244496 0.165505
O O4 0.867052 0.245710 0.083097
O O5 0.605633 0.250997 0.500000
O O6 0.500000 0.245391 0.550544
O O7 0.625278 0.256464 0.585704
O O8 0.583029 0.000000 0.546613
O O9 0.250000 0.750000 0.380681
O O10 0.352767 0.743677 0.329594
O O11 0.332111 0.000000 0.374477
O O12 0.923906 0.500000 0.201364
O O13 0.880110 0.736441 0.247440
O O14 0.000000 0.757964 0.204551
O O15 0.250000 0.250000 0.722944
O O16 0.169353 0.000000 0.720203
O O17 0.500000 0.246395 0.056502
O O18 0.418982 0.000000 0.047438
O O19 0.402493 0.251307 0.000000
#
# Coordination Sequence:
#
# PCOD9486436 Si02
#       6
#    16  16  16  16  16  16
#     4  10  20  33  51  76 104 135 170 209 254 303
#     4   8  15  29  49  73 100 131 169 210 249 293
#     4  10  19  32  52  77 104 135 169 207 253 303
#     4  10  21  37  56  77 102 133 171 214 259 309
#     4  11  22  37  56  77 104 136 171 212 258 309
#     4   8  14  27  49  75 101 131 170 213 252 294
#
# _framework density 19.087157000000001
#
# number of rings (size 3 to 8) (size 9 to 14) (size 15 to 20)
#    0.000    2.500    0.000    5.000    0.000    5.667 
#    0.000    1.667    0.000    4.500    0.000    5.833 
#    0.000    0.000    0.000    0.000    0.000    0.000 
#
# Total GULP energy -267842.560550 kJ/mol
# GULP energy per Si atom -5580.053345 kJ/mol
# Density = 1.904371 g / cm^3
# Si number density = 19.087157 Si / 1000 Ang^3
#
#
#
# Elastic Constant Matrix: (Units=GPa)
#
#
# Indices 1 2 3 4 5 6 
#
# 1 134.6240 9.0043 128.3892 0.0000 0.0000 0.0000
# 2 9.0043 15.7047 4.5682 0.0000 0.0000 0.0000
# 3 128.3892 4.5682 197.8027 0.0000 0.0000 0.0000
# 4 0.0000 0.0000 0.0000 -2.6503 0.0000 0.0000
# 5 0.0000 0.0000 0.0000 0.0000 49.2060 0.0000
# 6 0.0000 0.0000 0.0000 0.0000 0.0000 23.6073
#
#
#
# Elastic Compliance Matrix: (Units=1/GPa)
#
#
# Indices 1 2 3 4 5 6 
#
# 1 0.020428 -0.007909 -0.013077 0.000000 0.000000 0.000000
# 2 -0.007909 0.067168 0.003582 0.000000 0.000000 0.000000
# 3 -0.013077 0.003582 0.013461 0.000000 0.000000 0.000000
# 4 0.000000 0.000000 0.000000 -0.377321 0.000000 0.000000
# 5 0.000000 0.000000 0.000000 0.000000 0.020323 0.000000
# 6 0.000000 0.000000 0.000000 0.000000 0.000000 0.042360
#
#
# Mechanical properties :
#
#
# Convention : Reuss Voigt Hill
#
# Bulk Modulus (GPa) = 15.09438 70.22831 42.66134
# Shear Modulus (GPa) = -31.90996 27.77724 -2.06636
#
# Velocity S-wave (km/s) = -4.09320 3.81896 -1.04160
# Velocity P-wave (km/s) = 3.79655 7.50462 4.57742
#
# Compressibility (1/GPa) = 0.06624982
#
# Stress axis : x y z
#
# Youngs Moduli (GPa) = 48.95139 14.88809 74.28991
#
# Poissons Ratio (x) = 0.11775 0.97149
# Poissons Ratio (y) = 0.38715 -0.26612
# Poissons Ratio (z) = 0.64014 -0.05333
#
# Static dielectric constant tensor:
#      x y z
#    x 1.614020 0.000000 0.000000 
#    y 0.000000 1.675180 0.000000 
#    z 0.000000 0.000000 1.669450 
# 
# From -- ./inp_files/75323.got.cif
#   From: 2010.05.17/outbox.cif.g08.bks.cpg/sg65_38_cif.got.tgz:75323.got - 2010.06.03 17:01:31.
