data_PCOD9486626
_publ_section_title
;
Structure prediction by ZEFSAII (Michael W. Deem and Ramdas Pophale) SiO2 
 PCOD9486626
Probable space group: C M M M
;
_chemical_formula_sum "Si O2"
_cell_formula_units_Z 72
_cell_length_a 29.058424
_cell_length_b 9.408445
_cell_length_c 18.669412
_cell_angle_alpha 90.000000
_cell_angle_beta 90.000000
_cell_angle_gamma 90.000000
_cell_volume 5104.116127
_symmetry_space_group_name_H-M "C M M M"
_symmetry_group_IT_number 65
_symmetry_cell_setting 'orthorhombic'
loop_
_space_group_symop_operation_xyz
x,y,z
-x,-y,z
x,-y,-z
-x,y,-z
-x,-y,-z
x,y,-z
-x,y,z
x,-y,z
1/2+x,1/2+y,z
1/2-x,1/2-y,z
1/2+x,1/2-y,-z
1/2-x,1/2+y,-z
1/2-x,1/2-y,-z
1/2+x,1/2+y,-z
1/2-x,1/2+y,z
1/2+x,1/2-y,z
loop_
_atom_site_type_symbol
_atom_site_label
_atom_site_fract_x
_atom_site_fract_y
_atom_site_fract_z
Si Si1 0.944175 0.166282 0.920889
Si Si2 0.054063 0.330344 0.220049
Si Si3 0.103030 0.328837 0.631360
Si Si4 0.055127 0.168367 0.500000
Si Si5 0.204356 0.331137 0.415420
O O1 0.928842 0.253737 0.851864
O O2 0.000000 0.175244 0.921376
O O3 0.932432 0.000000 0.913601
O O4 0.928598 0.215693 0.000000
O O5 0.056664 0.500000 0.210100
O O6 0.082185 0.293405 0.291251
O O7 0.000000 0.293956 0.231093
O O8 0.097859 0.500000 0.619875
O O9 0.076350 0.244988 0.569463
O O10 0.157159 0.295303 0.624766
O O11 0.000000 0.184461 0.500000
O O12 0.065866 0.000000 0.500000
O O13 0.197158 0.298262 0.500000
O O14 0.211774 0.500000 0.409662
O O15 0.250000 0.250000 0.391175
#
# Coordination Sequence:
#
# PCOD9486626 Si02
#       5
#    16  16  16   8  16
#     4   8  14  25  40  57  80 112 144 171 204 246
#     4   9  17  27  41  62  85 111 143 177 208 240
#     4  10  19  33  48  62  83 114 148 177 213 261
#     4  11  23  33  42  61  86 113 148 185 214 243
#     4   9  17  30  47  65  82 104 137 177 220 262
#
# _framework density 14.106263
#
# number of rings (size 3 to 8) (size 9 to 14) (size 15 to 20)
#    0.000    2.778    1.111    1.667    0.000    4.000 
#    0.000    4.444    0.000    0.000    0.000    0.000 
#    0.000    0.889    0.000    2.000    0.000    3.556 
#
# Total GULP energy -200504.415331 kJ/mol
# GULP energy per Si atom -5569.567093 kJ/mol
# Density = 1.407416 g / cm^3
# Si number density = 14.106263 Si / 1000 Ang^3
#
#
#
# Elastic Constant Matrix: (Units=GPa)
#
#
# Indices 1 2 3 4 5 6 
#
# 1 80.5278 40.0537 62.7256 0.0000 0.0000 0.0000
# 2 40.0537 36.5314 59.0103 0.0000 0.0000 0.0000
# 3 62.7256 59.0103 145.3394 0.0000 0.0000 0.0000
# 4 0.0000 0.0000 0.0000 19.7908 0.0000 0.0000
# 5 0.0000 0.0000 0.0000 0.0000 2.9451 0.0000
# 6 0.0000 0.0000 0.0000 0.0000 0.0000 19.5766
#
#
#
# Elastic Compliance Matrix: (Units=1/GPa)
#
#
# Indices 1 2 3 4 5 6 
#
# 1 0.027372 -0.031756 0.001080 0.000000 0.000000 0.000000
# 2 -0.031756 0.116384 -0.033548 0.000000 0.000000 0.000000
# 3 0.001080 -0.033548 0.020035 0.000000 0.000000 0.000000
# 4 0.000000 0.000000 0.000000 0.050529 0.000000 0.000000
# 5 0.000000 0.000000 0.000000 0.000000 0.339546 0.000000
# 6 0.000000 0.000000 0.000000 0.000000 0.000000 0.051081
#
#
# Mechanical properties :
#
#
# Convention : Reuss Voigt Hill
#
# Bulk Modulus (GPa) = 28.29456 65.10862 46.70159
# Shear Modulus (GPa) = 6.70983 15.16976 10.93980
#
# Velocity S-wave (km/s) = 2.18334 3.28287 2.78785
# Velocity P-wave (km/s) = 5.14370 7.78625 6.59861
#
# Compressibility (1/GPa) = 0.03534249
#
# Stress axis : x y z
#
# Youngs Moduli (GPa) = 36.53422 8.59227 49.91168
#
# Poissons Ratio (x) = 0.27286 -0.05393
# Poissons Ratio (y) = 1.16018 1.67446
# Poissons Ratio (z) = -0.03947 0.28826
#
# Static dielectric constant tensor:
#      x y z
#    x 1.445960 0.000000 0.000000 
#    y 0.000000 1.470430 0.000000 
#    z 0.000000 0.000000 1.460340 
# 
# From -- ./inp_files/49701.got.cif
#   From: 2010.05.17/outbox.cif.g08.bks.cpg/sg65_25_cif.got.tgz:49701.got - 2010.06.03 17:01:31.
