data_PCOD9486996
_publ_section_title
;
Structure prediction by ZEFSAII (Michael W. Deem and Ramdas Pophale) SiO2 
 PCOD9486996
Probable space group: C M M M
;
_chemical_formula_sum "Si O2"
_cell_formula_units_Z 72
_cell_length_a 17.244891
_cell_length_b 9.943960
_cell_length_c 22.717896
_cell_angle_alpha 90.000000
_cell_angle_beta 90.000000
_cell_angle_gamma 90.000000
_cell_volume 3895.721744
_symmetry_space_group_name_H-M "C M M M"
_symmetry_group_IT_number 65
_symmetry_cell_setting 'orthorhombic'
loop_
_space_group_symop_operation_xyz
x,y,z
-x,-y,z
x,-y,-z
-x,y,-z
-x,-y,-z
x,y,-z
-x,y,z
x,-y,z
1/2+x,1/2+y,z
1/2-x,1/2-y,z
1/2+x,1/2-y,-z
1/2-x,1/2+y,-z
1/2-x,1/2-y,-z
1/2+x,1/2+y,-z
1/2-x,1/2+y,z
1/2+x,1/2-y,z
loop_
_atom_site_type_symbol
_atom_site_label
_atom_site_fract_x
_atom_site_fract_y
_atom_site_fract_z
Si Si1 0.907554 0.156628 0.271634
Si Si2 0.170095 0.662493 0.629753
Si Si3 0.656236 0.746552 0.853822
Si Si4 0.324288 0.154802 0.500000
Si Si5 0.650445 0.000000 0.068453
Si Si6 0.660701 0.500000 0.933830
O O1 0.880440 0.258911 0.322400
O O2 0.877550 0.217250 0.210097
O O3 0.000000 0.151655 0.270746
O O4 0.879470 0.000000 0.278849
O O5 0.180335 0.500000 0.641340
O O6 0.250000 0.750000 0.629856
O O7 0.135724 0.674491 0.563249
O O8 0.750000 0.750000 0.847709
O O9 0.629265 0.874919 0.890587
O O10 0.635356 0.626317 0.896902
O O11 0.250000 0.250000 0.500000
O O12 0.296942 0.000000 0.500000
O O13 0.744907 0.000000 0.064203
O O14 0.623142 0.000000 0.000000
O O15 0.632187 0.500000 0.000000
#
# Coordination Sequence:
#
# PCOD9486996 Si02
#       6
#    16  16  16   8   8   8
#     4  11  24  40  55  76 112 154 198 243 283 326
#     4  10  20  36  62  90 118 148 185 229 277 335
#     4  10  19  33  55  80 109 141 179 230 283 339
#     4   8  16  32  55  88 119 145 177 223 277 328
#     4   9  18  30  51  85 111 132 171 228 289 345
#     4   9  16  30  53  79 107 138 175 222 279 337
#
# _framework density 18.481814
#
# number of rings (size 3 to 8) (size 9 to 14) (size 15 to 20)
#    0.000    2.222    1.111    2.000    1.556    4.000 
#    0.000    0.556    0.000    7.333    0.000    0.000 
#    0.000    0.000    0.000    0.000    0.000    0.000 
#
# Total GULP energy -200431.293094 kJ/mol
# GULP energy per Si atom -5567.535919 kJ/mol
# Density = 1.843975 g / cm^3
# Si number density = 18.481814 Si / 1000 Ang^3
#
#
#
# Elastic Constant Matrix: (Units=GPa)
#
#
# Indices 1 2 3 4 5 6 
#
# 1 25.6991 27.0109 39.4265 0.0000 0.0000 0.0000
# 2 27.0109 186.7110 112.2500 0.0000 0.0000 0.0000
# 3 39.4265 112.2500 214.9900 0.0000 0.0000 0.0000
# 4 0.0000 0.0000 0.0000 72.6231 0.0000 0.0000
# 5 0.0000 0.0000 0.0000 0.0000 -18.9334 0.0000
# 6 0.0000 0.0000 0.0000 0.0000 0.0000 12.0529
#
#
#
# Elastic Compliance Matrix: (Units=1/GPa)
#
#
# Indices 1 2 3 4 5 6 
#
# 1 0.055107 -0.002764 -0.008663 0.000000 0.000000 0.000000
# 2 -0.002764 0.007945 -0.003641 0.000000 0.000000 0.000000
# 3 -0.008663 -0.003641 0.008141 0.000000 0.000000 0.000000
# 4 0.000000 0.000000 0.000000 0.013770 0.000000 0.000000
# 5 0.000000 0.000000 0.000000 0.000000 -0.052817 0.000000
# 6 0.000000 0.000000 0.000000 0.000000 0.000000 0.082967
#
#
# Mechanical properties :
#
#
# Convention : Reuss Voigt Hill
#
# Bulk Modulus (GPa) = 24.35643 87.19721 55.77682
# Shear Modulus (GPa) = 31.45929 29.72938 30.59434
#
# Velocity S-wave (km/s) = 4.13022 4.01506 4.07304
# Velocity P-wave (km/s) = 5.99601 8.29317 7.23633
#
# Compressibility (1/GPa) = 0.04105691
#
# Stress axis : x y z
#
# Youngs Moduli (GPa) = 18.14645 125.86778 122.83249
#
# Poissons Ratio (x) = 0.34792 1.06407
# Poissons Ratio (y) = 0.05016 0.44726
# Poissons Ratio (z) = 0.15720 0.45831
#
# Static dielectric constant tensor:
#      x y z
#    x 1.617160 0.000000 0.000000 
#    y 0.000000 1.629280 0.000000 
#    z 0.000000 0.000000 1.638670 
# 
# From -- ./inp_files/64393.got.cif
#   From: 2010.05.17/outbox.cif.g08.bks.cpg/sg65_33_cif.got.tgz:64393.got - 2010.06.03 17:01:31.
