data_PCOD9486552
_publ_section_title
;
Structure prediction by ZEFSAII (Michael W. Deem and Ramdas Pophale) SiO2 
 PCOD9486552
Probable space group: C M M M
;
_chemical_formula_sum "Si O2"
_cell_formula_units_Z 88
_cell_length_a 23.539770
_cell_length_b 16.078965
_cell_length_c 13.156107
_cell_angle_alpha 90.000000
_cell_angle_beta 90.000000
_cell_angle_gamma 90.000000
_cell_volume 4979.522534
_symmetry_space_group_name_H-M "C M M M"
_symmetry_group_IT_number 65
_symmetry_cell_setting 'orthorhombic'
loop_
_space_group_symop_operation_xyz
x,y,z
-x,-y,z
x,-y,-z
-x,y,-z
-x,-y,-z
x,y,-z
-x,y,z
x,-y,z
1/2+x,1/2+y,z
1/2-x,1/2-y,z
1/2+x,1/2-y,-z
1/2-x,1/2+y,-z
1/2-x,1/2-y,-z
1/2+x,1/2+y,-z
1/2-x,1/2+y,z
1/2+x,1/2-y,z
loop_
_atom_site_type_symbol
_atom_site_label
_atom_site_fract_x
_atom_site_fract_y
_atom_site_fract_z
Si Si1 0.811244 0.206037 0.382953
Si Si2 0.710578 0.899728 0.887331
Si Si3 0.382004 0.161573 0.270658
Si Si4 0.564500 0.284815 0.881668
Si Si5 0.666157 0.401224 0.809245
Si Si6 0.568204 0.000000 0.619446
O O1 0.814960 0.180351 0.500000
O O2 0.750000 0.250000 0.367527
O O3 0.858831 0.273959 0.354136
O O4 0.820686 0.131315 0.304270
O O5 0.671640 0.861573 0.800406
O O6 0.776679 0.879155 0.871073
O O7 0.705793 0.000000 0.881412
O O8 0.692392 0.872861 0.000000
O O9 0.424981 0.208243 0.194759
O O10 0.407472 0.080991 0.324095
O O11 0.500000 0.316050 0.868755
O O12 0.612064 0.352570 0.852716
O O13 0.571315 0.261001 0.000000
O O14 0.658033 0.500000 0.812992
O O15 0.500000 0.000000 0.625381
O O16 0.584342 0.000000 0.500000
#
# Coordination Sequence:
#
# PCOD9486552 Si02
#       6
#    16  16  16  16  16   8
#     4  10  20  35  55  82 116 150 184 229 288 345
#     4  10  19  32  53  82 113 145 180 223 280 339
#     4  11  20  37  57  83 113 150 187 236 283 337
#     4  10  22  38  57  82 113 151 193 236 283 339
#     4  10  21  37  57  84 115 148 190 238 285 341
#     4  11  24  40  59  83 113 153 199 238 276 328
#
# _framework density 17.672377000000001
#
# number of rings (size 3 to 8) (size 9 to 14) (size 15 to 20)
#    0.000    1.727    2.727    2.182    0.000    1.818 
#    0.000    3.636    0.000    7.091    0.000    5.091 
#    0.000    0.000    0.000    0.000    0.000    0.000 
#
# Total GULP energy -245635.244461 kJ/mol
# GULP energy per Si atom -5582.619192 kJ/mol
# Density = 1.763215 g / cm^3
# Si number density = 17.672377 Si / 1000 Ang^3
#
#
#
# Elastic Constant Matrix: (Units=GPa)
#
#
# Indices 1 2 3 4 5 6 
#
# 1 90.4786 23.0500 34.4503 0.0000 0.0000 0.0000
# 2 23.0500 54.7583 25.2890 0.0000 0.0000 0.0000
# 3 34.4503 25.2890 105.3372 0.0000 0.0000 0.0000
# 4 0.0000 0.0000 0.0000 16.3022 0.0000 0.0000
# 5 0.0000 0.0000 0.0000 0.0000 23.5679 0.0000
# 6 0.0000 0.0000 0.0000 0.0000 0.0000 24.6749
#
#
#
# Elastic Compliance Matrix: (Units=1/GPa)
#
#
# Indices 1 2 3 4 5 6 
#
# 1 0.013382 -0.004062 -0.003401 0.000000 0.000000 0.000000
# 2 -0.004062 0.021772 -0.003898 0.000000 0.000000 0.000000
# 3 -0.003401 -0.003898 0.011542 0.000000 0.000000 0.000000
# 4 0.000000 0.000000 0.000000 0.061342 0.000000 0.000000
# 5 0.000000 0.000000 0.000000 0.000000 0.042431 0.000000
# 6 0.000000 0.000000 0.000000 0.000000 0.000000 0.040527
#
#
# Mechanical properties :
#
#
# Convention : Reuss Voigt Hill
#
# Bulk Modulus (GPa) = 41.71516 46.23919 43.97717
# Shear Modulus (GPa) = 22.55190 24.09465 23.32328
#
# Velocity S-wave (km/s) = 3.57614 3.69644 3.63679
# Velocity P-wave (km/s) = 6.38026 6.66631 6.52485
#
# Compressibility (1/GPa) = 0.02397210
#
# Stress axis : x y z
#
# Youngs Moduli (GPa) = 74.72530 45.92951 86.64248
#
# Poissons Ratio (x) = 0.18658 0.29471
# Poissons Ratio (y) = 0.30356 0.33778
# Poissons Ratio (z) = 0.25417 0.17906
#
# Static dielectric constant tensor:
#      x y z
#    x 1.591410 0.000000 0.000000 
#    y 0.000000 1.584210 0.000000 
#    z 0.000000 0.000000 1.587750 
# 
# From -- ./inp_files/24798.got.cif
#   From: 2010.05.17/outbox.cif.g08.bks.cpg/sg65_13_cif.got.tgz:24798.got - 2010.06.03 17:01:31.
