data_PCOD9486477
_publ_section_title
;
Structure prediction by ZEFSAII (Michael W. Deem and Ramdas Pophale) SiO2 
 PCOD9486477
Probable space group: C M M M
;
_chemical_formula_sum "Si O2"
_cell_formula_units_Z 120
_cell_length_a 27.080189
_cell_length_b 8.998206
_cell_length_c 27.722458
_cell_angle_alpha 90.000000
_cell_angle_beta 90.000000
_cell_angle_gamma 90.000000
_cell_volume 6755.217811
_symmetry_space_group_name_H-M "C M M M"
_symmetry_group_IT_number 65
_symmetry_cell_setting 'orthorhombic'
loop_
_space_group_symop_operation_xyz
x,y,z
-x,-y,z
x,-y,-z
-x,y,-z
-x,-y,-z
x,y,-z
-x,y,z
x,-y,z
1/2+x,1/2+y,z
1/2-x,1/2-y,z
1/2+x,1/2-y,-z
1/2-x,1/2+y,-z
1/2-x,1/2-y,-z
1/2+x,1/2+y,-z
1/2-x,1/2+y,z
1/2+x,1/2-y,z
loop_
_atom_site_type_symbol
_atom_site_label
_atom_site_fract_x
_atom_site_fract_y
_atom_site_fract_z
Si Si1 0.799511 0.331314 0.557721
Si Si2 0.803353 0.321492 0.208792
Si Si3 0.442193 0.664267 0.766266
Si Si4 0.870710 0.326841 0.297626
Si Si5 0.056757 0.321441 0.056515
Si Si6 0.500000 0.680746 0.556508
Si Si7 0.117283 0.827552 0.860786
Si Si8 0.393969 0.678150 0.398980
O O1 0.794800 0.338721 0.500000
O O2 0.802070 0.500000 0.576597
O O3 0.750000 0.250000 0.576459
O O4 0.849734 0.244733 0.569132
O O5 0.802032 0.500000 0.205754
O O6 0.750000 0.250000 0.204026
O O7 0.826196 0.282308 0.261572
O O8 0.838827 0.257485 0.166921
O O9 0.500000 0.666068 0.760088
O O10 0.423276 0.500000 0.750005
O O11 0.417561 0.794269 0.736209
O O12 0.427038 0.678069 0.821755
O O13 0.865726 0.500000 0.309619
O O14 0.880281 0.233783 0.345567
O O15 0.059658 0.500000 0.061958
O O16 0.096590 0.245356 0.090849
O O17 0.000000 0.277364 0.068619
O O18 0.064564 0.286984 0.000000
O O19 0.500000 0.500000 0.556931
O O20 0.500000 0.726815 0.500000
O O21 0.551188 0.726892 0.582903
O O22 0.130710 0.000000 0.868176
O O23 0.393079 0.500000 0.401185
#
# Coordination Sequence:
#
# PCOD9486477 Si02
#       8
#    16  16  16  16  16   8  16  16
#     4  10  21  38  60  85 111 139 175 222 275 329
#     4  10  21  38  59  80 106 141 182 228 278 335
#     4   9  18  32  50  72 102 138 176 217 263 318
#     4  10  22  37  52  77 109 140 177 220 270 324
#     4   9  18  32  50  75 111 153 192 232 280 332
#     4   9  20  38  59  83 111 149 195 235 276 333
#     4  10  19  32  52  79 108 140 182 229 276 328
#     4  11  22  37  59  84 113 149 188 231 279 333
#
# _framework density 17.764047000000001
#
# number of rings (size 3 to 8) (size 9 to 14) (size 15 to 20)
#    0.000    2.200    0.000    3.200    0.933    5.333 
#    0.000    3.000    0.000    2.800    0.000    0.000 
#    0.000    0.000    0.000    0.000    0.000    0.000 
#
# Total GULP energy -334543.247019 kJ/mol
# GULP energy per Si atom -5575.720784 kJ/mol
# Density = 1.772362 g / cm^3
# Si number density = 17.764047 Si / 1000 Ang^3
#
#
#
# Elastic Constant Matrix: (Units=GPa)
#
#
# Indices 1 2 3 4 5 6 
#
# 1 112.8439 48.1854 50.8559 0.0000 0.0000 0.0000
# 2 48.1854 72.9291 44.1487 0.0000 0.0000 0.0000
# 3 50.8559 44.1487 84.2888 0.0000 0.0000 0.0000
# 4 0.0000 0.0000 0.0000 31.4031 0.0000 0.0000
# 5 0.0000 0.0000 0.0000 0.0000 8.6990 0.0000
# 6 0.0000 0.0000 0.0000 0.0000 0.0000 27.0589
#
#
#
# Elastic Compliance Matrix: (Units=1/GPa)
#
#
# Indices 1 2 3 4 5 6 
#
# 1 0.013729 -0.005940 -0.005172 0.000000 0.000000 0.000000
# 2 -0.005940 0.022648 -0.008279 0.000000 0.000000 0.000000
# 3 -0.005172 -0.008279 0.019321 0.000000 0.000000 0.000000
# 4 0.000000 0.000000 0.000000 0.031844 0.000000 0.000000
# 5 0.000000 0.000000 0.000000 0.000000 0.114955 0.000000
# 6 0.000000 0.000000 0.000000 0.000000 0.000000 0.036956
#
#
# Mechanical properties :
#
#
# Convention : Reuss Voigt Hill
#
# Bulk Modulus (GPa) = 59.11467 61.82688 60.47077
# Shear Modulus (GPa) = 17.61337 21.89032 19.75184
#
# Velocity S-wave (km/s) = 3.15225 3.51420 3.33813
# Velocity P-wave (km/s) = 6.82634 7.16562 6.99804
#
# Compressibility (1/GPa) = 0.01691628
#
# Stress axis : x y z
#
# Youngs Moduli (GPa) = 72.83702 44.15344 51.75712
#
# Poissons Ratio (x) = 0.26227 0.26771
# Poissons Ratio (y) = 0.43265 0.42849
# Poissons Ratio (z) = 0.37674 0.36554
#
# Static dielectric constant tensor:
#      x y z
#    x 1.592560 0.000000 0.000000 
#    y 0.000000 1.626280 0.000000 
#    z 0.000000 0.000000 1.616570 
# 
# From -- ./inp_files/76163.got.cif
#   From: 2010.05.17/outbox.cif.g08.bks.cpg/sg65_39_cif.got.tgz:76163.got - 2010.06.03 17:01:31.
