data_PCOD9486417
_publ_section_title
;
Structure prediction by ZEFSAII (Michael W. Deem and Ramdas Pophale) SiO2 
 PCOD9486417
Probable space group: C M M M
;
_chemical_formula_sum "Si O2"
_cell_formula_units_Z 48
_cell_length_a 39.216327
_cell_length_b 7.836818
_cell_length_c 8.229413
_cell_angle_alpha 90.000000
_cell_angle_beta 90.000000
_cell_angle_gamma 90.000000
_cell_volume 2529.155515
_symmetry_space_group_name_H-M "C M M M"
_symmetry_group_IT_number 65
_symmetry_cell_setting 'orthorhombic'
loop_
_space_group_symop_operation_xyz
x,y,z
-x,-y,z
x,-y,-z
-x,y,-z
-x,-y,-z
x,y,-z
-x,y,z
x,-y,z
1/2+x,1/2+y,z
1/2-x,1/2-y,z
1/2+x,1/2-y,-z
1/2-x,1/2+y,-z
1/2-x,1/2-y,-z
1/2+x,1/2+y,-z
1/2-x,1/2+y,z
1/2+x,1/2-y,z
loop_
_atom_site_type_symbol
_atom_site_label
_atom_site_fract_x
_atom_site_fract_y
_atom_site_fract_z
Si Si1 0.413267 0.000000 0.696512
Si Si2 0.335487 0.000000 0.807646
Si Si3 0.461093 0.694234 0.698238
Si Si4 0.712178 0.693353 0.696335
O O1 0.433883 0.167027 0.753893
O O2 0.414510 0.000000 0.500000
O O3 0.374158 0.000000 0.746574
O O4 0.315204 0.832874 0.748424
O O5 0.335487 0.000000 0.000000
O O6 0.460747 0.694963 0.500000
O O7 0.500000 0.737409 0.746271
O O8 0.453717 0.500000 0.749709
O O9 0.712796 0.691868 0.500000
O O10 0.705026 0.500000 0.751853
O O11 0.750000 0.750000 0.751422
#
# Coordination Sequence:
#
# PCOD9486417 Si02
#       4
#     8   8  16  16
#     4  10  19  32  52  76 106 144 188 228 272 327
#     4  12  26  39  53  81 122 158 188 226 279 339
#     4   8  14  26  48  79 108 133 172 231 288 327
#     4  10  20  39  66  88 107 136 182 236 284 333
#
# _framework density 18.978667999999999
#
# number of rings (size 3 to 8) (size 9 to 14) (size 15 to 20)
#    0.000    2.333    1.667    3.000    0.000    4.667 
#    0.000    3.333    0.000    2.000    0.000    2.333 
#    0.000    0.000    0.000    0.000    0.000    0.000 
#
# Total GULP energy -133954.058190 kJ/mol
# GULP energy per Si atom -5581.419091 kJ/mol
# Density = 1.893547 g / cm^3
# Si number density = 18.978668 Si / 1000 Ang^3
#
#
#
# Elastic Constant Matrix: (Units=GPa)
#
#
# Indices 1 2 3 4 5 6 
#
# 1 196.2176 141.4366 14.4838 0.0000 0.0000 0.0000
# 2 141.4366 205.1134 23.5761 0.0000 0.0000 0.0000
# 3 14.4838 23.5761 13.0294 0.0000 0.0000 0.0000
# 4 0.0000 0.0000 0.0000 0.0864 0.0000 0.0000
# 5 0.0000 0.0000 0.0000 0.0000 -30.3947 0.0000
# 6 0.0000 0.0000 0.0000 0.0000 0.0000 9.9720
#
#
#
# Elastic Compliance Matrix: (Units=1/GPa)
#
#
# Indices 1 2 3 4 5 6 
#
# 1 0.010164 -0.007209 0.001746 0.000000 0.000000 0.000000
# 2 -0.007209 0.011269 -0.012377 0.000000 0.000000 0.000000
# 3 0.001746 -0.012377 0.097204 0.000000 0.000000 0.000000
# 4 0.000000 0.000000 0.000000 11.572194 0.000000 0.000000
# 5 0.000000 0.000000 0.000000 0.000000 -0.032901 0.000000
# 6 0.000000 0.000000 0.000000 0.000000 0.000000 0.100280
#
#
# Mechanical properties :
#
#
# Convention : Reuss Voigt Hill
#
# Bulk Modulus (GPa) = 12.05442 85.92814 48.99128
# Shear Modulus (GPa) = 0.42296 11.59035 6.00665
#
# Velocity S-wave (km/s) = 0.47259 2.47392 1.78096
# Velocity P-wave (km/s) = 2.58131 7.31675 5.48626
#
# Compressibility (1/GPa) = 0.08295712
#
# Stress axis : x y z
#
# Youngs Moduli (GPa) = 98.38484 88.73663 10.28767
#
# Poissons Ratio (x) = 0.63974 -0.01797
# Poissons Ratio (y) = 0.70930 0.12733
# Poissons Ratio (z) = -0.17182 1.09830
#
# Static dielectric constant tensor:
#      x y z
#    x 1.629670 0.000000 0.000000 
#    y 0.000000 1.669230 0.000000 
#    z 0.000000 0.000000 1.653940 
# 
# From -- ./inp_files/17530.got.cif
#   From: 2010.05.17/outbox.cif.g08.bks.cpg/sg65_9_cif.got.tgz:17530.got - 2010.06.03 17:01:31.
