data_PCOD9486518
_publ_section_title
;
Structure prediction by ZEFSAII (Michael W. Deem and Ramdas Pophale) SiO2 
 PCOD9486518
Probable space group: C M M M
;
_chemical_formula_sum "Si O2"
_cell_formula_units_Z 116
_cell_length_a 27.333877
_cell_length_b 26.522399
_cell_length_c 7.633277
_cell_angle_alpha 90.000000
_cell_angle_beta 90.000000
_cell_angle_gamma 90.000000
_cell_volume 5533.820433
_symmetry_space_group_name_H-M "C M M M"
_symmetry_group_IT_number 65
_symmetry_cell_setting 'orthorhombic'
loop_
_space_group_symop_operation_xyz
x,y,z
-x,-y,z
x,-y,-z
-x,y,-z
-x,-y,-z
x,y,-z
-x,y,z
x,-y,z
1/2+x,1/2+y,z
1/2-x,1/2-y,z
1/2+x,1/2-y,-z
1/2-x,1/2+y,-z
1/2-x,1/2-y,-z
1/2+x,1/2+y,-z
1/2-x,1/2+y,z
1/2+x,1/2-y,z
loop_
_atom_site_type_symbol
_atom_site_label
_atom_site_fract_x
_atom_site_fract_y
_atom_site_fract_z
Si Si1 0.373648 0.055091 0.208366
Si Si2 0.054932 0.643199 0.213950
Si Si3 0.618459 0.766108 0.797176
Si Si4 0.265458 0.089898 0.288132
Si Si5 0.000000 0.142820 0.500000
Si Si6 0.158416 0.055657 0.285633
Si Si7 0.601026 0.346933 0.306731
Si Si8 0.276237 0.797611 0.299516
O O1 0.406192 0.101436 0.276104
O O2 0.316104 0.064376 0.234713
O O3 0.386958 0.000000 0.280332
O O4 0.382125 0.053941 0.000000
O O5 0.073566 0.698963 0.263371
O O6 0.000000 0.633371 0.274945
O O7 0.053992 0.641712 0.000000
O O8 0.608589 0.706872 0.782048
O O9 0.666748 0.784542 0.699790
O O10 0.627639 0.778338 0.000000
O O11 0.265723 0.090260 0.500000
O O12 0.214942 0.063939 0.234270
O O13 0.266655 0.147563 0.221898
O O14 0.044086 0.143734 0.649768
O O15 0.156035 0.055463 0.500000
O O16 0.126352 0.103598 0.226910
O O17 0.141779 0.000000 0.228146
O O18 0.625251 0.340086 0.500000
O O19 0.257827 0.800892 0.500000
O O20 0.250000 0.750000 0.212910
#
# Coordination Sequence:
#
# PCOD9486518 Si02
#       8
#    16  16  16  16   4  16  16  16
#     4  10  20  35  54  76 105 139 178 227 274 321
#     4   9  19  34  52  76 104 136 177 223 270 319
#     4  11  21  34  55  81 112 146 179 227 277 327
#     4  10  19  32  53  78 105 139 179 217 268 322
#     4   8  20  36  59  84 110 146 179 230 280 318
#     4   9  17  32  55  81 108 141 180 225 269 321
#     4   9  19  36  55  80 112 142 181 225 272 330
#     4  10  20  34  53  78 108 146 185 223 269 327
#
# _framework density 20.962011
#
# number of rings (size 3 to 8) (size 9 to 14) (size 15 to 20)
#    0.414    1.931    1.379    1.655    0.966    3.586 
#    0.000    4.138    0.000    2.483    0.000    0.966 
#    0.000    1.103    0.000    0.000    0.000    0.000 
#
# Total GULP energy -322941.853116 kJ/mol
# GULP energy per Si atom -5567.962985 kJ/mol
# Density = 2.091430 g / cm^3
# Si number density = 20.962011 Si / 1000 Ang^3
#
#
#
# Elastic Constant Matrix: (Units=GPa)
#
#
# Indices 1 2 3 4 5 6 
#
# 1 63.4016 43.6701 -4.6076 0.0000 0.0000 0.0000
# 2 43.6701 167.5433 4.0631 0.0000 0.0000 0.0000
# 3 -4.6076 4.0631 39.7616 0.0000 0.0000 0.0000
# 4 0.0000 0.0000 0.0000 13.0801 0.0000 0.0000
# 5 0.0000 0.0000 0.0000 0.0000 12.2846 0.0000
# 6 0.0000 0.0000 0.0000 0.0000 0.0000 2.1571
#
#
#
# Elastic Compliance Matrix: (Units=1/GPa)
#
#
# Indices 1 2 3 4 5 6 
#
# 1 0.019528 -0.005158 0.002790 0.000000 0.000000 0.000000
# 2 -0.005158 0.007346 -0.001348 0.000000 0.000000 0.000000
# 3 0.002790 -0.001348 0.025611 0.000000 0.000000 0.000000
# 4 0.000000 0.000000 0.000000 0.076452 0.000000 0.000000
# 5 0.000000 0.000000 0.000000 0.000000 0.081403 0.000000
# 6 0.000000 0.000000 0.000000 0.000000 0.000000 0.463575
#
#
# Mechanical properties :
#
#
# Convention : Reuss Voigt Hill
#
# Bulk Modulus (GPa) = 22.19637 39.66197 30.92917
# Shear Modulus (GPa) = 7.18016 20.67641 13.92829
#
# Velocity S-wave (km/s) = 1.85277 3.14407 2.58050
# Velocity P-wave (km/s) = 3.89729 5.66941 4.86472
#
# Compressibility (1/GPa) = 0.04505241
#
# Stress axis : x y z
#
# Youngs Moduli (GPa) = 51.20940 136.13561 39.04575
#
# Poissons Ratio (x) = 0.70212 -0.10893
# Poissons Ratio (y) = 0.26411 0.05264
# Poissons Ratio (z) = -0.14287 0.18355
#
# Static dielectric constant tensor:
#      x y z
#    x 1.713290 0.000000 0.000000 
#    y 0.000000 1.781620 0.000000 
#    z 0.000000 0.000000 1.802080 
# 
# From -- ./inp_files/14876.got.cif
#   From: 2010.05.17/outbox.cif.g08.bks.cpg/sg65_8_cif.got.tgz:14876.got - 2010.06.03 17:01:31.
