data_PCOD9486200
_publ_section_title
;
Structure prediction by ZEFSAII (Michael W. Deem and Ramdas Pophale) SiO2 
 PCOD9486200
Probable space group: C M M M
;
_chemical_formula_sum "Si O2"
_cell_formula_units_Z 120
_cell_length_a 19.189738
_cell_length_b 20.082200
_cell_length_c 19.503113
_cell_angle_alpha 90.000000
_cell_angle_beta 90.000000
_cell_angle_gamma 90.000000
_cell_volume 7515.956715
_symmetry_space_group_name_H-M "C M M M"
_symmetry_group_IT_number 65
_symmetry_cell_setting 'orthorhombic'
loop_
_space_group_symop_operation_xyz
x,y,z
-x,-y,z
x,-y,-z
-x,y,-z
-x,-y,-z
x,y,-z
-x,y,z
x,-y,z
1/2+x,1/2+y,z
1/2-x,1/2-y,z
1/2+x,1/2-y,-z
1/2-x,1/2+y,-z
1/2-x,1/2-y,-z
1/2+x,1/2+y,-z
1/2-x,1/2+y,z
1/2+x,1/2-y,z
loop_
_atom_site_type_symbol
_atom_site_label
_atom_site_fract_x
_atom_site_fract_y
_atom_site_fract_z
Si Si1 0.079629 0.000000 0.581573
Si Si2 0.922603 0.780541 0.184791
Si Si3 0.168066 0.115661 0.648224
Si Si4 0.253801 0.075468 0.079417
Si Si5 0.139270 0.923427 0.800807
Si Si6 0.323831 0.212239 0.923383
Si Si7 0.917632 0.748008 0.341975
Si Si8 0.704377 0.181597 0.579891
O O1 0.123298 0.062185 0.607662
O O2 0.076350 0.000000 0.500000
O O3 0.000000 0.000000 0.608553
O O4 0.912027 0.860424 0.191465
O O5 0.868875 0.748640 0.132957
O O6 0.914214 0.746562 0.259324
O O7 0.000000 0.767642 0.159797
O O8 0.174427 0.091732 0.727041
O O9 0.120480 0.181863 0.642875
O O10 0.243704 0.129534 0.616078
O O11 0.192875 0.080958 0.135632
O O12 0.308034 0.134830 0.091660
O O13 0.281922 0.000000 0.084441
O O14 0.228787 0.084251 0.000000
O O15 0.111777 0.000000 0.799398
O O16 0.250000 0.250000 0.924156
O O17 0.354066 0.217581 0.000000
O O18 0.867841 0.694802 0.379833
O O19 0.000000 0.746486 0.361314
O O20 0.691906 0.165810 0.500000
O O21 0.750000 0.250000 0.581913
#
# Coordination Sequence:
#
# PCOD9486200 Si02
#       8
#     8  16  16  16  16  16  16  16
#     4  11  22  34  50  72 104 142 170 202 251 306
#     4  10  21  33  48  74 106 138 172 215 261 306
#     4  10  19  33  49  73 103 134 174 213 250 307
#     4   9  18  32  52  78 106 131 169 219 260 304
#     4  10  19  32  50  74 101 142 178 207 256 304
#     4  10  19  32  53  76 100 137 178 217 259 308
#     4   9  19  33  49  71  99 134 170 210 261 314
#     4   9  18  31  49  71  96 127 164 214 265 307
#
# _framework density 15.96603
#
# number of rings (size 3 to 8) (size 9 to 14) (size 15 to 20)
#    0.000    2.333    2.000    0.800    1.867    2.400 
#    0.000    0.000    0.000    0.400    0.000    5.133 
#    0.000    1.600    0.000    0.000    0.000    0.000 
#
# Total GULP energy -334035.309399 kJ/mol
# GULP energy per Si atom -5567.255157 kJ/mol
# Density = 1.592969 g / cm^3
# Si number density = 15.966030 Si / 1000 Ang^3
#
#
#
# Elastic Constant Matrix: (Units=GPa)
#
#
# Indices 1 2 3 4 5 6 
#
# 1 102.5047 38.1062 59.0420 0.0000 0.0000 0.0000
# 2 38.1062 67.6842 36.0793 0.0000 0.0000 0.0000
# 3 59.0420 36.0793 82.1304 0.0000 0.0000 0.0000
# 4 0.0000 0.0000 0.0000 18.8494 0.0000 0.0000
# 5 0.0000 0.0000 0.0000 0.0000 11.8417 0.0000
# 6 0.0000 0.0000 0.0000 0.0000 0.0000 15.2595
#
#
#
# Elastic Compliance Matrix: (Units=1/GPa)
#
#
# Indices 1 2 3 4 5 6 
#
# 1 0.017481 -0.004104 -0.010764 0.000000 0.000000 0.000000
# 2 -0.004104 0.020256 -0.005948 0.000000 0.000000 0.000000
# 3 -0.010764 -0.005948 0.022527 0.000000 0.000000 0.000000
# 4 0.000000 0.000000 0.000000 0.053052 0.000000 0.000000
# 5 0.000000 0.000000 0.000000 0.000000 0.084447 0.000000
# 6 0.000000 0.000000 0.000000 0.000000 0.000000 0.065533
#
#
# Mechanical properties :
#
#
# Convention : Reuss Voigt Hill
#
# Bulk Modulus (GPa) = 53.67211 57.64156 55.65684
# Shear Modulus (GPa) = 16.07002 17.12958 16.59980
#
# Velocity S-wave (km/s) = 3.17600 3.27903 3.22793
# Velocity P-wave (km/s) = 6.86576 7.10754 6.98770
#
# Compressibility (1/GPa) = 0.01863165
#
# Stress axis : x y z
#
# Youngs Moduli (GPa) = 57.20349 49.36899 44.39178
#
# Poissons Ratio (x) = 0.20262 0.47784
# Poissons Ratio (y) = 0.23477 0.26403
# Poissons Ratio (z) = 0.61575 0.29363
#
# Static dielectric constant tensor:
#      x y z
#    x 1.505350 0.000000 0.000000 
#    y 0.000000 1.552530 0.000000 
#    z 0.000000 0.000000 1.541310 
# 
# From -- ./inp_files/54995.got.cif
#   From: 2010.05.17/outbox.cif.g08.bks.cpg/sg65_28_cif.got.tgz:54995.got - 2010.06.03 17:01:31.
