data_PCOD9486497
_publ_section_title
;
Structure prediction by ZEFSAII (Michael W. Deem and Ramdas Pophale) SiO2 
 PCOD9486497
Probable space group: C M M M
;
_chemical_formula_sum "Si O2"
_cell_formula_units_Z 88
_cell_length_a 29.691443
_cell_length_b 19.040110
_cell_length_c 7.668964
_cell_angle_alpha 90.000000
_cell_angle_beta 90.000000
_cell_angle_gamma 90.000000
_cell_volume 4335.482694
_symmetry_space_group_name_H-M "C M M M"
_symmetry_group_IT_number 65
_symmetry_cell_setting 'orthorhombic'
loop_
_space_group_symop_operation_xyz
x,y,z
-x,-y,z
x,-y,-z
-x,y,-z
-x,-y,-z
x,y,-z
-x,y,z
x,-y,z
1/2+x,1/2+y,z
1/2-x,1/2-y,z
1/2+x,1/2-y,-z
1/2-x,1/2+y,-z
1/2-x,1/2-y,-z
1/2+x,1/2+y,-z
1/2-x,1/2+y,z
1/2+x,1/2-y,z
loop_
_atom_site_type_symbol
_atom_site_label
_atom_site_fract_x
_atom_site_fract_y
_atom_site_fract_z
Si Si1 0.245323 0.579716 0.210564
Si Si2 0.110275 0.219816 0.199614
Si Si3 0.948582 0.500000 0.706707
Si Si4 0.948496 0.652805 0.209218
Si Si5 0.150788 0.079867 0.213363
Si Si6 0.796729 0.718517 0.702113
O O1 0.235258 0.500000 0.261133
O O2 0.297218 0.594644 0.264997
O O3 0.210842 0.635605 0.284957
O O4 0.244184 0.584054 0.000000
O O5 0.078390 0.279747 0.279335
O O6 0.118296 0.142129 0.276489
O O7 0.159898 0.253932 0.200079
O O8 0.095096 0.208974 0.000000
O O9 0.951638 0.500000 0.500000
O O10 0.928097 0.424613 0.756311
O O11 0.000000 0.500000 0.782060
O O12 0.000000 0.652709 0.275168
O O13 0.949622 0.659262 0.000000
O O14 0.139693 0.000000 0.266024
O O15 0.150504 0.081200 0.000000
O O16 0.801263 0.739560 0.500000
O O17 0.750000 0.750000 0.773015
#
# Coordination Sequence:
#
# PCOD9486497 Si02
#       6
#    16  16   8  16  16  16
#     4   9  17  31  51  70  90 124 169 208 238 280
#     4  10  19  32  53  74  95 130 169 203 243 295
#     4   9  17  31  53  77  99 129 165 199 243 297
#     4   9  18  33  53  77 102 127 161 206 249 290
#     4   8  14  26  47  73  95 120 162 207 238 275
#     4  11  22  33  46  69 102 133 159 200 251 292
#
# _framework density 20.297623000000002
#
# number of rings (size 3 to 8) (size 9 to 14) (size 15 to 20)
#    0.000    2.636    1.818    1.909    0.000    2.909 
#    1.636    0.000    0.000    1.091    0.000    3.818 
#    0.000    0.000    0.000    6.182    0.000    6.545 
#
# Total GULP energy -245318.657701 kJ/mol
# GULP energy per Si atom -5575.424039 kJ/mol
# Density = 2.025142 g / cm^3
# Si number density = 20.297623 Si / 1000 Ang^3
#
#
#
# Elastic Constant Matrix: (Units=GPa)
#
#
# Indices 1 2 3 4 5 6 
#
# 1 37.2868 42.9411 -1.8076 0.0000 0.0000 0.0000
# 2 42.9411 178.2615 1.0418 0.0000 0.0000 0.0000
# 3 -1.8076 1.0418 41.9031 0.0000 0.0000 0.0000
# 4 0.0000 0.0000 0.0000 -16.8240 0.0000 0.0000
# 5 0.0000 0.0000 0.0000 0.0000 1.2643 0.0000
# 6 0.0000 0.0000 0.0000 0.0000 0.0000 35.5924
#
#
#
# Elastic Compliance Matrix: (Units=1/GPa)
#
#
# Indices 1 2 3 4 5 6 
#
# 1 0.037256 -0.008985 0.001831 0.000000 0.000000 0.000000
# 2 -0.008985 0.007778 -0.000581 0.000000 0.000000 0.000000
# 3 0.001831 -0.000581 0.023958 0.000000 0.000000 0.000000
# 4 0.000000 0.000000 0.000000 -0.059439 0.000000 0.000000
# 5 0.000000 0.000000 0.000000 0.000000 0.790922 0.000000
# 6 0.000000 0.000000 0.000000 0.000000 0.000000 0.028096
#
#
# Mechanical properties :
#
#
# Convention : Reuss Voigt Hill
#
# Bulk Modulus (GPa) = 18.68462 37.97801 28.33131
# Shear Modulus (GPa) = 5.80126 18.35828 12.07977
#
# Velocity S-wave (km/s) = 1.69243 3.01068 2.44218
# Velocity P-wave (km/s) = 3.61170 5.55309 4.68408
#
# Compressibility (1/GPa) = 0.05351995
#
# Stress axis : x y z
#
# Youngs Moduli (GPa) = 26.84159 128.57524 41.73972
#
# Poissons Ratio (x) = 1.15527 -0.07640
# Poissons Ratio (y) = 0.24118 0.02425
# Poissons Ratio (z) = -0.04913 0.07470
#
# Static dielectric constant tensor:
#      x y z
#    x 1.704050 0.000000 0.000000 
#    y 0.000000 1.782820 0.000000 
#    z 0.000000 0.000000 1.756270 
# 
# From -- ./inp_files/18296.got.cif
#   From: 2010.05.17/outbox.cif.g08.bks.cpg/sg65_10_cif.got.tgz:18296.got - 2010.06.03 17:01:31.
