data_PCOD9486143
_publ_section_title
;
Structure prediction by ZEFSAII (Michael W. Deem and Ramdas Pophale) SiO2 
 PCOD9486143
Probable space group: C M M M
;
_chemical_formula_sum "Si O2"
_cell_formula_units_Z 72
_cell_length_a 10.222956
_cell_length_b 23.098787
_cell_length_c 18.979558
_cell_angle_alpha 90.000000
_cell_angle_beta 90.000000
_cell_angle_gamma 90.000000
_cell_volume 4481.792649
_symmetry_space_group_name_H-M "C M M M"
_symmetry_group_IT_number 65
_symmetry_cell_setting 'orthorhombic'
loop_
_space_group_symop_operation_xyz
x,y,z
-x,-y,z
x,-y,-z
-x,y,-z
-x,-y,-z
x,y,-z
-x,y,z
x,-y,z
1/2+x,1/2+y,z
1/2-x,1/2-y,z
1/2+x,1/2-y,-z
1/2-x,1/2+y,-z
1/2-x,1/2-y,-z
1/2+x,1/2+y,-z
1/2-x,1/2+y,z
1/2+x,1/2-y,z
loop_
_atom_site_type_symbol
_atom_site_label
_atom_site_fract_x
_atom_site_fract_y
_atom_site_fract_z
Si Si1 0.000000 0.809731 0.082725
Si Si2 0.000000 0.329042 0.083886
Si Si3 0.844104 0.930236 0.295055
Si Si4 0.350758 0.500000 0.083764
Si Si5 0.762530 0.119368 0.852824
Si Si6 0.648685 0.929802 0.419525
O O1 0.000000 0.740606 0.087812
O O2 0.874296 0.837755 0.119065
O O3 0.000000 0.825867 0.000000
O O4 0.125854 0.354113 0.123474
O O5 0.000000 0.344208 0.000000
O O6 0.786780 0.895181 0.228916
O O7 0.760205 0.913677 0.363969
O O8 0.000000 0.920032 0.302183
O O9 0.827735 0.000000 0.283264
O O10 0.500000 0.500000 0.112444
O O11 0.281719 0.442263 0.109312
O O12 0.357022 0.500000 0.000000
O O13 0.674153 0.910676 0.500000
O O14 0.500000 0.911822 0.399747
O O15 0.647726 0.000000 0.420638
#
# Coordination Sequence:
#
# PCOD9486143 Si02
#       6
#     8   8  16   8  16  16
#     4  11  22  41  63  75  98 142 188 232 275 324
#     4  11  26  41  55  79 104 136 186 240 285 316
#     4  10  19  32  49  75 108 142 177 215 262 317
#     4  11  20  33  55  77 102 141 180 216 266 332
#     4  12  22  37  56  80 109 139 179 225 275 331
#     4   8  15  28  47  71 104 145 179 205 247 313
#
# _framework density 16.065000999999999
#
# number of rings (size 3 to 8) (size 9 to 14) (size 15 to 20)
#    0.000    1.667    3.333    3.333    1.556    2.667 
#    0.000    3.333    0.000    0.000    0.000    0.000 
#    0.000    5.333    0.000    0.000    0.000    0.000 
#
# Total GULP energy -200833.239659 kJ/mol
# GULP energy per Si atom -5578.701102 kJ/mol
# Density = 1.602844 g / cm^3
# Si number density = 16.065001 Si / 1000 Ang^3
#
#
#
# Elastic Constant Matrix: (Units=GPa)
#
#
# Indices 1 2 3 4 5 6 
#
# 1 166.2024 49.1382 93.7365 0.0000 0.0000 0.0000
# 2 49.1382 58.0724 37.5861 0.0000 0.0000 0.0000
# 3 93.7365 37.5861 142.3300 0.0000 0.0000 0.0000
# 4 0.0000 0.0000 0.0000 46.6129 0.0000 0.0000
# 5 0.0000 0.0000 0.0000 0.0000 184.4193 0.0000
# 6 0.0000 0.0000 0.0000 0.0000 0.0000 98.6697
#
#
#
# Elastic Compliance Matrix: (Units=1/GPa)
#
#
# Indices 1 2 3 4 5 6 
#
# 1 0.010856 -0.005498 -0.005697 0.000000 0.000000 0.000000
# 2 -0.005498 0.023554 -0.002599 0.000000 0.000000 0.000000
# 3 -0.005697 -0.002599 0.011465 0.000000 0.000000 0.000000
# 4 0.000000 0.000000 0.000000 0.021453 0.000000 0.000000
# 5 0.000000 0.000000 0.000000 0.000000 0.005422 0.000000
# 6 0.000000 0.000000 0.000000 0.000000 0.000000 0.010135
#
#
# Mechanical properties :
#
#
# Convention : Reuss Voigt Hill
#
# Bulk Modulus (GPa) = 54.68924 80.83627 67.76276
# Shear Modulus (GPa) = 42.89297 78.34998 60.62147
#
# Velocity S-wave (km/s) = 5.17277 6.99117 6.14956
# Velocity P-wave (km/s) = 8.35423 10.75156 9.62781
#
# Compressibility (1/GPa) = 0.01828513
#
# Stress axis : x y z
#
# Youngs Moduli (GPa) = 92.11913 42.45508 87.22519
#
# Poissons Ratio (x) = 0.23341 0.49696
# Poissons Ratio (y) = 0.50646 0.22673
# Poissons Ratio (z) = 0.52484 0.11035
#
# Static dielectric constant tensor:
#      x y z
#    x 1.555000 0.000000 0.000000 
#    y 0.000000 1.509820 0.000000 
#    z 0.000000 0.000000 1.546370 
# 
# From -- ./inp_files/59356.got.cif
#   From: 2010.05.17/outbox.cif.g08.bks.cpg/sg65_30_cif.got.tgz:59356.got - 2010.06.03 17:01:31.
