data_PCOD9486202
_publ_section_title
;
Structure prediction by ZEFSAII (Michael W. Deem and Ramdas Pophale) SiO2 
 PCOD9486202
Probable space group: C M M M
;
_chemical_formula_sum "Si O2"
_cell_formula_units_Z 96
_cell_length_a 14.735276
_cell_length_b 29.511850
_cell_length_c 14.058866
_cell_angle_alpha 90.000000
_cell_angle_beta 90.000000
_cell_angle_gamma 90.000000
_cell_volume 6113.712348
_symmetry_space_group_name_H-M "C M M M"
_symmetry_group_IT_number 65
_symmetry_cell_setting 'orthorhombic'
loop_
_space_group_symop_operation_xyz
x,y,z
-x,-y,z
x,-y,-z
-x,y,-z
-x,-y,-z
x,y,-z
-x,y,z
x,-y,z
1/2+x,1/2+y,z
1/2-x,1/2-y,z
1/2+x,1/2-y,-z
1/2-x,1/2+y,-z
1/2-x,1/2-y,-z
1/2+x,1/2+y,-z
1/2-x,1/2+y,z
1/2+x,1/2-y,z
loop_
_atom_site_type_symbol
_atom_site_label
_atom_site_fract_x
_atom_site_fract_y
_atom_site_fract_z
Si Si1 0.196733 0.635044 0.388589
Si Si2 0.605338 0.449473 0.188542
Si Si3 0.173547 0.052441 0.395248
Si Si4 0.000000 0.346174 0.388961
Si Si5 0.000000 0.237115 0.388278
Si Si6 0.890501 0.853552 0.110711
Si Si7 0.682526 0.292594 0.277431
O O1 0.192217 0.648501 0.500000
O O2 0.242124 0.585921 0.383783
O O3 0.261788 0.670134 0.336552
O O4 0.095081 0.636682 0.347944
O O5 0.500000 0.451660 0.160774
O O6 0.644570 0.500000 0.168460
O O7 0.611837 0.441803 0.302412
O O8 0.642802 0.404311 0.139127
O O9 0.131782 0.061993 0.500000
O O10 0.201479 0.000000 0.395575
O O11 0.000000 0.360371 0.500000
O O12 0.000000 0.291759 0.385030
O O13 0.908882 0.220427 0.335298
O O14 0.000000 0.223525 0.500000
O O15 0.846833 0.816291 0.179222
O O16 0.000000 0.852654 0.125285
O O17 0.872505 0.845307 0.000000
O O18 0.750000 0.250000 0.265216
#
# Coordination Sequence:
#
# PCOD9486202 Si02
#       7
#    16  16  16   8   8  16  16
#     4  10  19  32  50  74 102 134 166 201 245 296
#     4   9  17  30  49  73 100 130 165 201 243 297
#     4   9  17  29  46  70 102 135 164 198 241 296
#     4   9  18  32  49  71 100 132 166 204 245 287
#     4  11  22  34  49  76 108 135 169 206 243 292
#     4  10  21  37  53  71  99 131 168 213 258 299
#     4  12  22  34  53  75 101 134 172 208 250 296
#
# _framework density 15.702406999999999
#
# number of rings (size 3 to 8) (size 9 to 14) (size 15 to 20)
#    0.000    2.000    4.167    0.500    0.000    1.667 
#    0.000    3.750    0.000    2.500    0.000    0.000 
#    0.000    0.000    0.000    3.667    0.000    0.167 
#
# Total GULP energy -267288.999881 kJ/mol
# GULP energy per Si atom -5568.520831 kJ/mol
# Density = 1.566667 g / cm^3
# Si number density = 15.702407 Si / 1000 Ang^3
#
#
#
# Elastic Constant Matrix: (Units=GPa)
#
#
# Indices 1 2 3 4 5 6 
#
# 1 73.8206 33.8607 30.2003 0.0000 0.0000 0.0000
# 2 33.8607 69.2336 47.5809 0.0000 0.0000 0.0000
# 3 30.2003 47.5809 83.5995 0.0000 0.0000 0.0000
# 4 0.0000 0.0000 0.0000 19.0223 0.0000 0.0000
# 5 0.0000 0.0000 0.0000 0.0000 11.0570 0.0000
# 6 0.0000 0.0000 0.0000 0.0000 0.0000 13.3543
#
#
#
# Elastic Compliance Matrix: (Units=1/GPa)
#
#
# Indices 1 2 3 4 5 6 
#
# 1 0.017757 -0.007023 -0.002417 0.000000 0.000000 0.000000
# 2 -0.007023 0.026501 -0.012546 0.000000 0.000000 0.000000
# 3 -0.002417 -0.012546 0.019976 0.000000 0.000000 0.000000
# 4 0.000000 0.000000 0.000000 0.052570 0.000000 0.000000
# 5 0.000000 0.000000 0.000000 0.000000 0.090441 0.000000
# 6 0.000000 0.000000 0.000000 0.000000 0.000000 0.074882
#
#
# Mechanical properties :
#
#
# Convention : Reuss Voigt Hill
#
# Bulk Modulus (GPa) = 49.35741 49.99303 49.67522
# Shear Modulus (GPa) = 15.02165 16.35416 15.68791
#
# Velocity S-wave (km/s) = 3.09633 3.23074 3.16425
# Velocity P-wave (km/s) = 6.65464 6.76933 6.71223
#
# Compressibility (1/GPa) = 0.02026038
#
# Stress axis : x y z
#
# Youngs Moduli (GPa) = 56.31664 37.73452 50.06092
#
# Poissons Ratio (x) = 0.26501 0.12102
# Poissons Ratio (y) = 0.39552 0.62806
# Poissons Ratio (z) = 0.13614 0.47342
#
# Static dielectric constant tensor:
#      x y z
#    x 1.524410 0.000000 0.000000 
#    y 0.000000 1.536220 0.000000 
#    z 0.000000 0.000000 1.528820 
# 
# From -- ./inp_files/25490.got.cif
#   From: 2010.05.17/outbox.cif.g08.bks.cpg/sg65_13_cif.got.tgz:25490.got - 2010.06.03 17:01:31.
