data_PCOD9486699
_publ_section_title
;
Structure prediction by ZEFSAII (Michael W. Deem and Ramdas Pophale) SiO2 
 PCOD9486699
Probable space group: C M M M
;
_chemical_formula_sum "Si O2"
_cell_formula_units_Z 104
_cell_length_a 29.498410
_cell_length_b 8.809318
_cell_length_c 24.009244
_cell_angle_alpha 90.000000
_cell_angle_beta 90.000000
_cell_angle_gamma 90.000000
_cell_volume 6239.063134
_symmetry_space_group_name_H-M "C M M M"
_symmetry_group_IT_number 65
_symmetry_cell_setting 'orthorhombic'
loop_
_space_group_symop_operation_xyz
x,y,z
-x,-y,z
x,-y,-z
-x,y,-z
-x,-y,-z
x,y,-z
-x,y,z
x,-y,z
1/2+x,1/2+y,z
1/2-x,1/2-y,z
1/2+x,1/2-y,-z
1/2-x,1/2+y,-z
1/2-x,1/2-y,-z
1/2+x,1/2+y,-z
1/2-x,1/2+y,z
1/2+x,1/2-y,z
loop_
_atom_site_type_symbol
_atom_site_label
_atom_site_fract_x
_atom_site_fract_y
_atom_site_fract_z
Si Si1 0.701780 0.181631 0.737059
Si Si2 0.605475 0.814920 0.438535
Si Si3 0.444996 0.175204 0.000000
Si Si4 0.553157 0.816808 0.672306
Si Si5 0.947408 0.182779 0.883305
Si Si6 0.890826 0.182284 0.775015
Si Si7 0.202303 0.681884 0.394461
O O1 0.750000 0.250000 0.754717
O O2 0.659356 0.250216 0.769509
O O3 0.696130 0.219779 0.671120
O O4 0.702211 0.000000 0.741712
O O5 0.590838 0.764883 0.500000
O O6 0.574215 0.768203 0.386963
O O7 0.657317 0.767439 0.426563
O O8 0.605210 0.000000 0.438386
O O9 0.430885 0.254074 0.057445
O O10 0.500000 0.183495 0.000000
O O11 0.431567 0.000000 0.000000
O O12 0.500000 0.781332 0.675386
O O13 0.580453 0.741351 0.722452
O O14 0.558486 0.000000 0.676512
O O15 0.916548 0.230158 0.831459
O O16 0.000000 0.231005 0.874537
O O17 0.947318 0.000000 0.885883
O O18 0.888854 0.000000 0.773728
O O19 0.205070 0.500000 0.398701
O O20 0.250000 0.750000 0.413637
#
# Coordination Sequence:
#
# PCOD9486699 Si02
#       7
#    16  16   8  16  16  16  16
#     4  10  19  33  52  75 103 131 164 205 254 306
#     4   9  17  31  49  69  94 124 161 206 255 308
#     4   9  17  29  47  73 104 137 174 213 251 289
#     4  10  20  34  51  71  96 128 167 213 262 306
#     4   9  18  32  49  71 103 142 178 209 245 293
#     4  11  21  33  52  77 104 135 171 209 253 301
#     4   9  17  30  48  69  94 121 152 194 247 304
#
# _framework density 16.669167999999999
#
# number of rings (size 3 to 8) (size 9 to 14) (size 15 to 20)
#    0.000    2.385    1.538    1.615    0.000    4.308 
#    0.000    3.077    0.000    1.385    0.000    1.615 
#    0.000    0.000    0.000    0.000    0.000    0.000 
#
# Total GULP energy -290054.711138 kJ/mol
# GULP energy per Si atom -5577.975214 kJ/mol
# Density = 1.663123 g / cm^3
# Si number density = 16.669168 Si / 1000 Ang^3
#
#
#
# Elastic Constant Matrix: (Units=GPa)
#
#
# Indices 1 2 3 4 5 6 
#
# 1 110.2468 34.1339 74.0000 0.0000 0.0000 0.0000
# 2 34.1339 19.5228 33.7730 0.0000 0.0000 0.0000
# 3 74.0000 33.7730 139.7544 0.0000 0.0000 0.0000
# 4 0.0000 0.0000 0.0000 12.5602 0.0000 0.0000
# 5 0.0000 0.0000 0.0000 0.0000 23.3485 0.0000
# 6 0.0000 0.0000 0.0000 0.0000 0.0000 25.1443
#
#
#
# Elastic Compliance Matrix: (Units=1/GPa)
#
#
# Indices 1 2 3 4 5 6 
#
# 1 0.020913 -0.029913 -0.003844 0.000000 0.000000 0.000000
# 2 -0.029913 0.130807 -0.015772 0.000000 0.000000 0.000000
# 3 -0.003844 -0.015772 0.013002 0.000000 0.000000 0.000000
# 4 0.000000 0.000000 0.000000 0.079617 0.000000 0.000000
# 5 0.000000 0.000000 0.000000 0.000000 0.042829 0.000000
# 6 0.000000 0.000000 0.000000 0.000000 0.000000 0.039770
#
#
# Mechanical properties :
#
#
# Convention : Reuss Voigt Hill
#
# Bulk Modulus (GPa) = 15.22921 61.48198 38.35560
# Shear Modulus (GPa) = 11.16358 20.71839 15.94099
#
# Velocity S-wave (km/s) = 2.59069 3.52933 3.09579
# Velocity P-wave (km/s) = 4.25499 7.31928 5.98652
#
# Compressibility (1/GPa) = 0.06566328
#
# Stress axis : x y z
#
# Youngs Moduli (GPa) = 47.81822 7.64485 76.90894
#
# Poissons Ratio (x) = 0.22868 0.29567
# Poissons Ratio (y) = 1.43040 1.21299
# Poissons Ratio (z) = 0.18383 0.12057
#
# Static dielectric constant tensor:
#      x y z
#    x 1.550370 0.000000 0.000000 
#    y 0.000000 1.564430 0.000000 
#    z 0.000000 0.000000 1.556130 
# 
# From -- ./inp_files/60807.got.cif
#   From: 2010.05.17/outbox.cif.g08.bks.cpg/sg65_31_cif.got.tgz:60807.got - 2010.06.03 17:01:31.
