data_PCOD9486179
_publ_section_title
;
Structure prediction by ZEFSAII (Michael W. Deem and Ramdas Pophale) SiO2 
 PCOD9486179
Probable space group: C M M M
;
_chemical_formula_sum "Si O2"
_cell_formula_units_Z 104
_cell_length_a 28.380314
_cell_length_b 8.874694
_cell_length_c 23.959247
_cell_angle_alpha 90.000000
_cell_angle_beta 90.000000
_cell_angle_gamma 90.000000
_cell_volume 6034.534137
_symmetry_space_group_name_H-M "C M M M"
_symmetry_group_IT_number 65
_symmetry_cell_setting 'orthorhombic'
loop_
_space_group_symop_operation_xyz
x,y,z
-x,-y,z
x,-y,-z
-x,y,-z
-x,-y,-z
x,y,-z
-x,y,z
x,-y,z
1/2+x,1/2+y,z
1/2-x,1/2-y,z
1/2+x,1/2-y,-z
1/2-x,1/2+y,-z
1/2-x,1/2-y,-z
1/2+x,1/2+y,-z
1/2-x,1/2+y,z
1/2+x,1/2-y,z
loop_
_atom_site_type_symbol
_atom_site_label
_atom_site_fract_x
_atom_site_fract_y
_atom_site_fract_z
Si Si1 0.875951 0.181613 0.405970
Si Si2 0.445303 0.818045 0.178943
Si Si3 0.447842 0.683277 0.500000
Si Si4 0.800341 0.825728 0.783251
Si Si5 0.698373 0.681916 0.500000
Si Si6 0.635673 0.674346 0.892941
Si Si7 0.617699 0.820354 0.715770
Si Si8 0.803311 0.183710 0.000000
O O1 0.919421 0.226309 0.445227
O O2 0.830662 0.225906 0.443918
O O3 0.883635 0.251187 0.345597
O O4 0.874471 0.000000 0.400688
O O5 0.500000 0.769777 0.174320
O O6 0.410788 0.758576 0.129965
O O7 0.421855 0.770778 0.238525
O O8 0.444334 0.000000 0.177506
O O9 0.448786 0.500000 0.500000
O O10 0.500000 0.743075 0.500000
O O11 0.750000 0.750000 0.788410
O O12 0.827394 0.821716 0.842041
O O13 0.832872 0.732911 0.741387
O O14 0.796548 0.000000 0.765576
O O15 0.700173 0.500000 0.500000
O O16 0.750000 0.750000 0.500000
O O17 0.622658 0.500000 0.903633
O O18 0.665120 0.729910 0.946433
O O19 0.615216 0.000000 0.712324
O O20 0.750000 0.250000 0.000000
O O21 0.799084 0.000000 0.000000
#
# Coordination Sequence:
#
# PCOD9486179 Si02
#       8
#    16  16   8  16   8  16  16   8
#     4   9  18  33  50  71  99 125 156 202 247 290
#     4   9  19  36  55  74 100 135 173 213 256 301
#     4   8  15  30  52  73  93 122 157 193 240 295
#     4  10  19  32  50  72  99 131 166 202 243 292
#     4   9  19  34  51  69  93 128 164 200 242 288
#     4   9  19  34  52  76 105 135 169 209 250 297
#     4  10  20  33  50  73 100 130 164 204 251 299
#     4  10  20  34  53  80 111 139 170 209 253 300
#
# _framework density 17.23414
#
# number of rings (size 3 to 8) (size 9 to 14) (size 15 to 20)
#    0.000    2.692    0.000    2.308    0.000    4.000 
#    0.000    3.077    0.000    2.769    0.000    0.000 
#    0.000    0.000    0.000    0.000    0.000    0.000 
#
# Total GULP energy -289680.352829 kJ/mol
# GULP energy per Si atom -5570.776016 kJ/mol
# Density = 1.719491 g / cm^3
# Si number density = 17.234140 Si / 1000 Ang^3
#
#
#
# Elastic Constant Matrix: (Units=GPa)
#
#
# Indices 1 2 3 4 5 6 
#
# 1 165.0781 38.2829 63.7293 0.0000 0.0000 0.0000
# 2 38.2829 27.9711 34.7154 0.0000 0.0000 0.0000
# 3 63.7293 34.7154 128.0076 0.0000 0.0000 0.0000
# 4 0.0000 0.0000 0.0000 21.3509 0.0000 0.0000
# 5 0.0000 0.0000 0.0000 0.0000 7.1258 0.0000
# 6 0.0000 0.0000 0.0000 0.0000 0.0000 26.0874
#
#
#
# Elastic Compliance Matrix: (Units=1/GPa)
#
#
# Indices 1 2 3 4 5 6 
#
# 1 0.009125 -0.010327 -0.001742 0.000000 0.000000 0.000000
# 2 -0.010327 0.065577 -0.012643 0.000000 0.000000 0.000000
# 3 -0.001742 -0.012643 0.012108 0.000000 0.000000 0.000000
# 4 0.000000 0.000000 0.000000 0.046836 0.000000 0.000000
# 5 0.000000 0.000000 0.000000 0.000000 0.140335 0.000000
# 6 0.000000 0.000000 0.000000 0.000000 0.000000 0.038333
#
#
# Mechanical properties :
#
#
# Convention : Reuss Voigt Hill
#
# Bulk Modulus (GPa) = 26.74823 66.05687 46.40255
# Shear Modulus (GPa) = 13.36182 23.20144 18.28163
#
# Velocity S-wave (km/s) = 2.78746 3.67311 3.26050
# Velocity P-wave (km/s) = 5.09059 7.51008 6.41542
#
# Compressibility (1/GPa) = 0.03738565
#
# Stress axis : x y z
#
# Youngs Moduli (GPa) = 109.58554 15.24934 82.58810
#
# Poissons Ratio (x) = 0.15748 0.14391
# Poissons Ratio (y) = 1.13167 1.04416
# Poissons Ratio (z) = 0.19095 0.19280
#
# Static dielectric constant tensor:
#      x y z
#    x 1.552310 0.000000 0.000000 
#    y 0.000000 1.590440 0.000000 
#    z 0.000000 0.000000 1.575040 
# 
# From -- ./inp_files/71904.got.cif
#   From: 2010.05.17/outbox.cif.g08.bks.cpg/sg65_36_cif.got.tgz:71904.got - 2010.06.03 17:01:31.
