data_PCOD9486110
_publ_section_title
;
Structure prediction by ZEFSAII (Michael W. Deem and Ramdas Pophale) SiO2 
 PCOD9486110
Probable space group: C M M M
;
_chemical_formula_sum "Si O2"
_cell_formula_units_Z 96
_cell_length_a 28.281205
_cell_length_b 22.898999
_cell_length_c 9.008207
_cell_angle_alpha 90.000000
_cell_angle_beta 90.000000
_cell_angle_gamma 90.000000
_cell_volume 5833.816511
_symmetry_space_group_name_H-M "C M M M"
_symmetry_group_IT_number 65
_symmetry_cell_setting 'orthorhombic'
loop_
_space_group_symop_operation_xyz
x,y,z
-x,-y,z
x,-y,-z
-x,y,-z
-x,-y,-z
x,y,-z
-x,y,z
x,-y,z
1/2+x,1/2+y,z
1/2-x,1/2-y,z
1/2+x,1/2-y,-z
1/2-x,1/2+y,-z
1/2-x,1/2-y,-z
1/2+x,1/2+y,-z
1/2-x,1/2+y,z
1/2+x,1/2-y,z
loop_
_atom_site_type_symbol
_atom_site_label
_atom_site_fract_x
_atom_site_fract_y
_atom_site_fract_z
Si Si1 0.356511 0.300750 0.824037
Si Si2 0.369857 0.000000 0.822641
Si Si3 0.214198 0.120292 0.322442
Si Si4 0.554266 0.228009 0.178520
Si Si5 0.265160 0.000000 0.320078
Si Si6 0.897437 0.382423 0.327581
Si Si7 0.195068 0.695067 0.671808
O O1 0.334174 0.357856 0.749884
O O2 0.408783 0.278885 0.777597
O O3 0.323417 0.246675 0.774217
O O4 0.355781 0.307457 0.000000
O O5 0.396017 0.057690 0.762476
O O6 0.316590 0.000000 0.755348
O O7 0.367627 0.000000 0.000000
O O8 0.209069 0.120333 0.500000
O O9 0.235146 0.057460 0.279443
O O10 0.255206 0.167231 0.285441
O O11 0.500000 0.241685 0.213328
O O12 0.570214 0.168029 0.256789
O O13 0.558671 0.220376 0.000000
O O14 0.272307 0.000000 0.500000
O O15 0.909616 0.392217 0.500000
O O16 0.844314 0.355746 0.323201
O O17 0.197318 0.715715 0.500000
#
# Coordination Sequence:
#
# PCOD9486110 Si02
#       7
#    16   8  16  16   8  16  16
#     4  10  20  31  47  73 101 127 159 202 249 298
#     4  12  22  32  49  73 102 137 175 209 246 290
#     4  10  19  32  49  69  98 134 169 200 239 290
#     4   9  19  37  56  74  99 129 161 205 263 313
#     4  10  20  36  52  69  98 141 180 207 240 286
#     4  10  19  33  52  73  99 132 172 213 247 291
#     4   9  17  30  48  68  95 132 167 198 238 289
#
# _framework density 16.455780000000001
#
# number of rings (size 3 to 8) (size 9 to 14) (size 15 to 20)
#    0.000    2.167    1.667    2.250    0.000    5.000 
#    0.000    0.417    0.000    2.500    0.000    0.583 
#    0.000    4.667    0.000    0.000    0.000    0.000 
#
# Total GULP energy -267786.667943 kJ/mol
# GULP energy per Si atom -5578.888915 kJ/mol
# Density = 1.641833 g / cm^3
# Si number density = 16.455780 Si / 1000 Ang^3
#
#
#
# Elastic Constant Matrix: (Units=GPa)
#
#
# Indices 1 2 3 4 5 6 
#
# 1 108.4514 39.9486 32.9983 0.0000 0.0000 0.0000
# 2 39.9486 36.9695 17.8970 0.0000 0.0000 0.0000
# 3 32.9983 17.8970 36.8117 0.0000 0.0000 0.0000
# 4 0.0000 0.0000 0.0000 14.1473 0.0000 0.0000
# 5 0.0000 0.0000 0.0000 0.0000 20.1306 0.0000
# 6 0.0000 0.0000 0.0000 0.0000 0.0000 10.3487
#
#
#
# Elastic Compliance Matrix: (Units=1/GPa)
#
#
# Indices 1 2 3 4 5 6 
#
# 1 0.017049 -0.014418 -0.008273 0.000000 0.000000 0.000000
# 2 -0.014418 0.047568 -0.010202 0.000000 0.000000 0.000000
# 3 -0.008273 -0.010202 0.039542 0.000000 0.000000 0.000000
# 4 0.000000 0.000000 0.000000 0.070685 0.000000 0.000000
# 5 0.000000 0.000000 0.000000 0.000000 0.049676 0.000000
# 6 0.000000 0.000000 0.000000 0.000000 0.000000 0.096631
#
#
# Mechanical properties :
#
#
# Convention : Reuss Voigt Hill
#
# Bulk Modulus (GPa) = 26.06071 40.43561 33.24816
# Shear Modulus (GPa) = 12.50857 15.01788 13.76322
#
# Velocity S-wave (km/s) = 2.76004 3.02424 2.89515
# Velocity P-wave (km/s) = 5.10179 6.06797 5.60574
#
# Compressibility (1/GPa) = 0.03837194
#
# Stress axis : x y z
#
# Youngs Moduli (GPa) = 58.65527 21.02267 25.28985
#
# Poissons Ratio (x) = 0.30310 0.20923
# Poissons Ratio (y) = 0.84567 0.25801
# Poissons Ratio (z) = 0.48527 0.21448
#
# Static dielectric constant tensor:
#      x y z
#    x 1.554010 0.000000 0.000000 
#    y 0.000000 1.555110 0.000000 
#    z 0.000000 0.000000 1.552930 
# 
# From -- ./inp_files/16682.got.cif
#   From: 2010.05.17/outbox.cif.g08.bks.cpg/sg65_9_cif.got.tgz:16682.got - 2010.06.03 17:01:31.
