data_PCOD9486174
_publ_section_title
;
Structure prediction by ZEFSAII (Michael W. Deem and Ramdas Pophale) SiO2 
 PCOD9486174
Probable space group: C M M M
;
_chemical_formula_sum "Si O2"
_cell_formula_units_Z 88
_cell_length_a 19.437422
_cell_length_b 7.690307
_cell_length_c 31.713246
_cell_angle_alpha 90.000000
_cell_angle_beta 90.000000
_cell_angle_gamma 90.000000
_cell_volume 4740.487845
_symmetry_space_group_name_H-M "C M M M"
_symmetry_group_IT_number 65
_symmetry_cell_setting 'orthorhombic'
loop_
_space_group_symop_operation_xyz
x,y,z
-x,-y,z
x,-y,-z
-x,y,-z
-x,-y,-z
x,y,-z
-x,y,z
x,-y,z
1/2+x,1/2+y,z
1/2-x,1/2-y,z
1/2+x,1/2-y,-z
1/2-x,1/2+y,-z
1/2-x,1/2-y,-z
1/2+x,1/2+y,-z
1/2-x,1/2+y,z
1/2+x,1/2-y,z
loop_
_atom_site_type_symbol
_atom_site_label
_atom_site_fract_x
_atom_site_fract_y
_atom_site_fract_z
Si Si1 0.669987 0.708953 0.784643
Si Si2 0.419876 0.712999 0.862868
Si Si3 0.080717 0.696458 0.610576
Si Si4 0.082720 0.209019 0.045296
Si Si5 0.669583 0.291973 0.690395
Si Si6 0.416306 0.500000 0.451966
O O1 0.662804 0.500000 0.783765
O O2 0.750000 0.750000 0.791577
O O3 0.624080 0.774582 0.823184
O O4 0.651083 0.771901 0.737600
O O5 0.500000 0.761929 0.858598
O O6 0.418152 0.500000 0.863333
O O7 0.392949 0.772464 0.908942
O O8 0.086477 0.500000 0.594744
O O9 0.123757 0.716054 0.653245
O O10 0.104291 0.832578 0.575314
O O11 0.000000 0.731591 0.619683
O O12 0.000000 0.235876 0.045661
O O13 0.093059 0.000000 0.044781
O O14 0.108750 0.277377 0.000000
O O15 0.661177 0.500000 0.689359
O O16 0.750000 0.250000 0.683956
O O17 0.500000 0.500000 0.453780
O O18 0.391245 0.500000 0.500000
#
# Coordination Sequence:
#
# PCOD9486174 Si02
#       6
#    16  16  16  16  16   8
#     4   9  18  30  45  64  89 121 156 191 232 288
#     4   8  13  22  37  59  84 111 148 191 237 283
#     4  10  20  34  54  82 111 139 175 216 257 301
#     4   7   9  14  27  49  77 106 137 180 232 281
#     4  10  19  32  50  72  97 131 172 211 255 307
#     4   9  18  34  56  82 112 144 177 213 254 302
#
# _framework density 18.563490000000002
#
# number of rings (size 3 to 8) (size 9 to 14) (size 15 to 20)
#    0.000    3.182    0.909    2.182    0.000    1.818 
#    0.000    3.636    0.000    1.636    0.000    0.000 
#    0.000    0.000    0.000    4.545    0.000    3.636 
#
# Total GULP energy -245074.451064 kJ/mol
# GULP energy per Si atom -5569.873888 kJ/mol
# Density = 1.852124 g / cm^3
# Si number density = 18.563490 Si / 1000 Ang^3
#
#
#
# Elastic Constant Matrix: (Units=GPa)
#
#
# Indices 1 2 3 4 5 6 
#
# 1 35.3302 16.0321 69.4049 0.0000 0.0000 0.0000
# 2 16.0321 55.2898 43.8572 0.0000 0.0000 0.0000
# 3 69.4049 43.8572 212.4958 0.0000 0.0000 0.0000
# 4 0.0000 0.0000 0.0000 -3.4462 0.0000 0.0000
# 5 0.0000 0.0000 0.0000 0.0000 -48.0058 0.0000
# 6 0.0000 0.0000 0.0000 0.0000 0.0000 14.1999
#
#
#
# Elastic Compliance Matrix: (Units=1/GPa)
#
#
# Indices 1 2 3 4 5 6 
#
# 1 0.079376 -0.002931 -0.025321 0.000000 0.000000 0.000000
# 2 -0.002931 0.021735 -0.003529 0.000000 0.000000 0.000000
# 3 -0.025321 -0.003529 0.013704 0.000000 0.000000 0.000000
# 4 0.000000 0.000000 0.000000 -0.290172 0.000000 0.000000
# 5 0.000000 0.000000 0.000000 0.000000 -0.020831 0.000000
# 6 0.000000 0.000000 0.000000 0.000000 0.000000 0.070423
#
#
# Mechanical properties :
#
#
# Convention : Reuss Voigt Hill
#
# Bulk Modulus (GPa) = 19.51038 62.41161 40.96099
# Shear Modulus (GPa) = -110.82067 4.13769 -53.34149
#
# Velocity S-wave (km/s) = -7.73484 1.49458 -5.36628
# Velocity P-wave (km/s) = 8.32091 6.05574 4.03519
#
# Compressibility (1/GPa) = 0.05125477
#
# Stress axis : x y z
#
# Youngs Moduli (GPa) = 12.59826 46.00780 72.96920
#
# Poissons Ratio (x) = 0.13487 1.84763
# Poissons Ratio (y) = 0.03693 0.25748
# Poissons Ratio (z) = 0.31900 0.16234
#
# Static dielectric constant tensor:
#      x y z
#    x 1.597290 0.000000 0.000000 
#    y 0.000000 1.677600 0.000000 
#    z 0.000000 0.000000 1.668520 
# 
# From -- ./inp_files/77787.got.cif
#   From: 2010.05.17/outbox.cif.g08.bks.cpg/sg65_39_cif.got.tgz:77787.got - 2010.06.03 17:01:31.
