data_PCOD9486173
_publ_section_title
;
Structure prediction by ZEFSAII (Michael W. Deem and Ramdas Pophale) SiO2 
 PCOD9486173
Probable space group: C M M M
;
_chemical_formula_sum "Si O2"
_cell_formula_units_Z 112
_cell_length_a 26.955238
_cell_length_b 18.050298
_cell_length_c 14.578060
_cell_angle_alpha 90.000000
_cell_angle_beta 90.000000
_cell_angle_gamma 90.000000
_cell_volume 7092.956238
_symmetry_space_group_name_H-M "C M M M"
_symmetry_group_IT_number 65
_symmetry_cell_setting 'orthorhombic'
loop_
_space_group_symop_operation_xyz
x,y,z
-x,-y,z
x,-y,-z
-x,y,-z
-x,-y,-z
x,y,-z
-x,y,z
x,-y,z
1/2+x,1/2+y,z
1/2-x,1/2-y,z
1/2+x,1/2-y,-z
1/2-x,1/2+y,-z
1/2-x,1/2-y,-z
1/2+x,1/2+y,-z
1/2-x,1/2+y,z
1/2+x,1/2-y,z
loop_
_atom_site_type_symbol
_atom_site_label
_atom_site_fract_x
_atom_site_fract_y
_atom_site_fract_z
Si Si1 0.557208 0.301233 0.394604
Si Si2 0.203772 0.344066 0.105029
Si Si3 0.943217 0.723168 0.210145
Si Si4 0.143933 0.194406 0.107661
Si Si5 0.404536 0.913493 0.105372
Si Si6 0.147892 0.087559 0.394247
Si Si7 0.708098 0.411839 0.783015
O O1 0.563087 0.275861 0.500000
O O2 0.500000 0.328309 0.385361
O O3 0.564251 0.238156 0.318174
O O4 0.598364 0.364338 0.377966
O O5 0.184907 0.260105 0.119796
O O6 0.153895 0.393518 0.109478
O O7 0.242644 0.372383 0.179266
O O8 0.223742 0.349690 0.000000
O O9 0.905179 0.775870 0.156650
O O10 0.931540 0.640601 0.175803
O O11 0.000000 0.741232 0.188270
O O12 0.164550 0.120481 0.153058
O O13 0.135638 0.186592 0.000000
O O14 0.412598 0.000000 0.122125
O O15 0.420166 0.896334 0.000000
O O16 0.163271 0.099978 0.500000
O O17 0.190336 0.106240 0.320340
O O18 0.136895 0.000000 0.383695
O O19 0.713642 0.500000 0.791481
#
# Coordination Sequence:
#
# PCOD9486173 Si02
#       7
#    16  16  16  16  16  16  16
#     4   9  17  31  52  73  92 120 162 209 249 286
#     4   9  18  32  50  70  95 127 163 204 242 277
#     4  10  19  32  50  72  97 128 160 194 245 300
#     4  10  20  33  48  70  98 128 164 203 237 280
#     4   9  18  32  50  74 100 125 161 207 247 284
#     4   9  18  32  49  71  98 125 158 204 251 289
#     4  11  20  30  48  72  96 128 162 197 243 287
#
# _framework density 15.790312999999999
#
# number of rings (size 3 to 8) (size 9 to 14) (size 15 to 20)
#    0.000    2.429    1.429    2.571    0.000    4.571 
#    0.000    2.143    0.000    6.000    0.000    3.000 
#    0.000    0.000    0.000    0.000    0.000    0.000 
#
# Total GULP energy -312051.928283 kJ/mol
# GULP energy per Si atom -5572.355862 kJ/mol
# Density = 1.575437 g / cm^3
# Si number density = 15.790313 Si / 1000 Ang^3
#
#
#
# Elastic Constant Matrix: (Units=GPa)
#
#
# Indices 1 2 3 4 5 6 
#
# 1 70.6581 24.5529 60.0598 0.0000 0.0000 0.0000
# 2 24.5529 36.5016 44.7361 0.0000 0.0000 0.0000
# 3 60.0598 44.7361 119.9109 0.0000 0.0000 0.0000
# 4 0.0000 0.0000 0.0000 26.7451 0.0000 0.0000
# 5 0.0000 0.0000 0.0000 0.0000 30.9451 0.0000
# 6 0.0000 0.0000 0.0000 0.0000 0.0000 9.0621
#
#
#
# Elastic Compliance Matrix: (Units=1/GPa)
#
#
# Indices 1 2 3 4 5 6 
#
# 1 0.024787 -0.002685 -0.011413 0.000000 0.000000 0.000000
# 2 -0.002685 0.050766 -0.017595 0.000000 0.000000 0.000000
# 3 -0.011413 -0.017595 0.020621 0.000000 0.000000 0.000000
# 4 0.000000 0.000000 0.000000 0.037390 0.000000 0.000000
# 5 0.000000 0.000000 0.000000 0.000000 0.032315 0.000000
# 6 0.000000 0.000000 0.000000 0.000000 0.000000 0.110350
#
#
# Mechanical properties :
#
#
# Convention : Reuss Voigt Hill
#
# Bulk Modulus (GPa) = 30.49964 53.97427 42.23696
# Shear Modulus (GPa) = 14.26351 19.86524 17.06437
#
# Velocity S-wave (km/s) = 3.00877 3.55077 3.29095
# Velocity P-wave (km/s) = 5.60603 7.14610 6.42239
#
# Compressibility (1/GPa) = 0.03278727
#
# Stress axis : x y z
#
# Youngs Moduli (GPa) = 40.34350 19.69807 48.49535
#
# Poissons Ratio (x) = 0.05289 0.55350
# Poissons Ratio (y) = 0.10832 0.85328
# Poissons Ratio (z) = 0.46046 0.34659
#
# Static dielectric constant tensor:
#      x y z
#    x 1.535340 0.000000 0.000000 
#    y 0.000000 1.515310 0.000000 
#    z 0.000000 0.000000 1.530630 
# 
# From -- ./inp_files/32755.got.cif
#   From: 2010.05.17/outbox.cif.g08.bks.cpg/sg65_17_cif.got.tgz:32755.got - 2010.06.03 17:01:31.
