data_PCOD9486766
_publ_section_title
;
Structure prediction by ZEFSAII (Michael W. Deem and Ramdas Pophale) SiO2 
 PCOD9486766
Probable space group: C M M M
;
_chemical_formula_sum "Si O2"
_cell_formula_units_Z 88
_cell_length_a 9.125932
_cell_length_b 15.975574
_cell_length_c 29.818862
_cell_angle_alpha 90.000000
_cell_angle_beta 90.000000
_cell_angle_gamma 90.000000
_cell_volume 4347.351588
_symmetry_space_group_name_H-M "C M M M"
_symmetry_group_IT_number 65
_symmetry_cell_setting 'orthorhombic'
loop_
_space_group_symop_operation_xyz
x,y,z
-x,-y,z
x,-y,-z
-x,y,-z
-x,-y,-z
x,y,-z
-x,y,z
x,-y,z
1/2+x,1/2+y,z
1/2-x,1/2-y,z
1/2+x,1/2-y,-z
1/2-x,1/2+y,-z
1/2-x,1/2-y,-z
1/2+x,1/2+y,-z
1/2-x,1/2+y,z
1/2+x,1/2-y,z
loop_
_atom_site_type_symbol
_atom_site_label
_atom_site_fract_x
_atom_site_fract_y
_atom_site_fract_z
Si Si1 0.168826 0.102827 0.725765
Si Si2 0.324604 0.341245 0.000000
Si Si3 0.675031 0.340910 0.450508
Si Si4 0.175991 0.841437 0.902622
Si Si5 0.164976 0.599627 0.814622
Si Si6 0.664858 0.900492 0.637010
O O1 0.251894 0.131790 0.770533
O O2 0.251001 0.131928 0.680859
O O3 0.000000 0.129060 0.725915
O O4 0.169337 0.000000 0.725759
O O5 0.250000 0.250000 0.000000
O O6 0.288793 0.381180 0.951682
O O7 0.500000 0.329335 0.000000
O O8 0.703923 0.379136 0.500000
O O9 0.500000 0.334126 0.445484
O O10 0.750000 0.250000 0.450711
O O11 0.745074 0.386560 0.408287
O O12 0.250000 0.750000 0.903020
O O13 0.244203 0.885698 0.859708
O O14 0.000000 0.836131 0.898468
O O15 0.153220 0.500000 0.808578
O O16 0.000000 0.634422 0.818482
O O17 0.500000 0.865513 0.633285
O O18 0.652747 0.000000 0.643392
#
# Coordination Sequence:
#
# PCOD9486766 Si02
#       6
#    16   8  16  16  16  16
#     4   9  17  31  52  76 102 134 171 209 252 303
#     4   8  16  30  49  72  97 129 167 207 251 302
#     4  10  21  37  56  77 104 139 176 213 256 307
#     4  10  19  33  53  76 102 132 169 211 256 304
#     4  10  20  34  52  75 104 137 172 209 252 303
#     4  10  20  34  54  80 108 137 171 212 255 300
#
# _framework density 20.242208999999999
#
# number of rings (size 3 to 8) (size 9 to 14) (size 15 to 20)
#    0.000    2.364    0.000    2.727    0.000    6.545 
#    0.000    3.182    0.000    2.727    0.000    0.000 
#    0.000    0.000    0.000    0.000    0.000    0.000 
#
# Total GULP energy -245411.930913 kJ/mol
# GULP energy per Si atom -5577.543884 kJ/mol
# Density = 2.019614 g / cm^3
# Si number density = 20.242209 Si / 1000 Ang^3
#
#
#
# Elastic Constant Matrix: (Units=GPa)
#
#
# Indices 1 2 3 4 5 6 
#
# 1 161.3556 7.5359 112.7326 0.0000 0.0000 0.0000
# 2 7.5359 5.4732 9.3210 0.0000 0.0000 0.0000
# 3 112.7326 9.3210 221.0156 0.0000 0.0000 0.0000
# 4 0.0000 0.0000 0.0000 12.1312 0.0000 0.0000
# 5 0.0000 0.0000 0.0000 0.0000 36.7888 0.0000
# 6 0.0000 0.0000 0.0000 0.0000 0.0000 21.8241
#
#
#
# Elastic Compliance Matrix: (Units=1/GPa)
#
#
# Indices 1 2 3 4 5 6 
#
# 1 0.009772 -0.005351 -0.004759 0.000000 0.000000 0.000000
# 2 -0.005351 0.199775 -0.005696 0.000000 0.000000 0.000000
# 3 -0.004759 -0.005696 0.007192 0.000000 0.000000 0.000000
# 4 0.000000 0.000000 0.000000 0.082432 0.000000 0.000000
# 5 0.000000 0.000000 0.000000 0.000000 0.027182 0.000000
# 6 0.000000 0.000000 0.000000 0.000000 0.000000 0.045821
#
#
# Mechanical properties :
#
#
# Convention : Reuss Voigt Hill
#
# Bulk Modulus (GPa) = 5.40166 71.89152 38.64659
# Shear Modulus (GPa) = 10.74127 31.36581 21.05354
#
# Velocity S-wave (km/s) = 2.30606 3.94067 3.22853
# Velocity P-wave (km/s) = 3.12487 7.50319 5.74729
#
# Compressibility (1/GPa) = 0.18512815
#
# Stress axis : x y z
#
# Youngs Moduli (GPa) = 102.33146 5.00563 139.04156
#
# Poissons Ratio (x) = 0.02678 0.66167
# Poissons Ratio (y) = 0.54754 0.79199
# Poissons Ratio (z) = 0.48697 0.02851
#
# Static dielectric constant tensor:
#      x y z
#    x 1.693430 0.000000 0.000000 
#    y 0.000000 1.736050 0.000000 
#    z 0.000000 0.000000 1.734890 
# 
# From -- ./inp_files/67556.got.cif
#   From: 2010.05.17/outbox.cif.g08.bks.cpg/sg65_34_cif.got.tgz:67556.got - 2010.06.03 17:01:31.
