data_PCOD9486383
_publ_section_title
;
Structure prediction by ZEFSAII (Michael W. Deem and Ramdas Pophale) SiO2 
 PCOD9486383
Probable space group: C M M M
;
_chemical_formula_sum "Si O2"
_cell_formula_units_Z 72
_cell_length_a 16.717550
_cell_length_b 28.271889
_cell_length_c 9.124335
_cell_angle_alpha 90.000000
_cell_angle_beta 90.000000
_cell_angle_gamma 90.000000
_cell_volume 4312.495748
_symmetry_space_group_name_H-M "C M M M"
_symmetry_group_IT_number 65
_symmetry_cell_setting 'orthorhombic'
loop_
_space_group_symop_operation_xyz
x,y,z
-x,-y,z
x,-y,-z
-x,y,-z
-x,-y,-z
x,y,-z
-x,y,z
x,-y,z
1/2+x,1/2+y,z
1/2-x,1/2-y,z
1/2+x,1/2-y,-z
1/2-x,1/2+y,-z
1/2-x,1/2-y,-z
1/2+x,1/2+y,-z
1/2-x,1/2+y,z
1/2+x,1/2-y,z
loop_
_atom_site_type_symbol
_atom_site_label
_atom_site_fract_x
_atom_site_fract_y
_atom_site_fract_z
Si Si1 0.500000 0.557415 0.667965
Si Si2 0.164934 0.943807 0.826090
Si Si3 0.667195 0.279892 0.833048
Si Si4 0.747498 0.863223 0.324867
Si Si5 0.589645 0.195057 0.325484
O O1 0.500000 0.500000 0.664313
O O2 0.500000 0.574399 0.500000
O O3 0.419420 0.570841 0.752806
O O4 0.233393 0.912757 0.751118
O O5 0.175589 0.000000 0.801469
O O6 0.162321 0.935654 0.000000
O O7 0.750000 0.250000 0.836912
O O8 0.688070 0.325731 0.737860
O O9 0.605484 0.244023 0.758652
O O10 0.645568 0.292171 0.000000
O O11 0.753901 0.866702 0.500000
O O12 0.660118 0.841764 0.287554
O O13 0.596910 0.203961 0.500000
O O14 0.500000 0.177664 0.295208
#
# Coordination Sequence:
#
# PCOD9486383 Si02
#       5
#     8  16  16  16  16
#     4   9  17  31  51  73  97 125 159 199 243 293
#     4  10  20  34  52  74 102 134 167 206 251 297
#     4   9  17  30  48  70  97 127 160 200 246 296
#     4  10  19  32  52  75 100 132 169 208 250 298
#     4   9  18  33  52  74 101 132 167 208 253 299
#
# _framework density 16.695668999999999
#
# number of rings (size 3 to 8) (size 9 to 14) (size 15 to 20)
#    0.000    2.556    0.000    2.333    0.000    6.667 
#    2.000    0.000    0.000    0.667    0.000    4.667 
#    0.000    0.000    0.000    0.000    0.000    0.000 
#
# Total GULP energy -200689.899347 kJ/mol
# GULP energy per Si atom -5574.719426 kJ/mol
# Density = 1.665767 g / cm^3
# Si number density = 16.695669 Si / 1000 Ang^3
#
#
#
# Elastic Constant Matrix: (Units=GPa)
#
#
# Indices 1 2 3 4 5 6 
#
# 1 99.0768 47.2966 54.7474 0.0000 0.0000 0.0000
# 2 47.2966 70.6624 57.2503 0.0000 0.0000 0.0000
# 3 54.7474 57.2503 94.5989 0.0000 0.0000 0.0000
# 4 0.0000 0.0000 0.0000 30.0431 0.0000 0.0000
# 5 0.0000 0.0000 0.0000 0.0000 19.5811 0.0000
# 6 0.0000 0.0000 0.0000 0.0000 0.0000 21.6449
#
#
#
# Elastic Compliance Matrix: (Units=1/GPa)
#
#
# Indices 1 2 3 4 5 6 
#
# 1 0.016175 -0.006361 -0.005511 0.000000 0.000000 0.000000
# 2 -0.006361 0.030268 -0.014636 0.000000 0.000000 0.000000
# 3 -0.005511 -0.014636 0.022618 0.000000 0.000000 0.000000
# 4 0.000000 0.000000 0.000000 0.033285 0.000000 0.000000
# 5 0.000000 0.000000 0.000000 0.000000 0.051070 0.000000
# 6 0.000000 0.000000 0.000000 0.000000 0.000000 0.046200
#
#
# Mechanical properties :
#
#
# Convention : Reuss Voigt Hill
#
# Bulk Modulus (GPa) = 62.33065 64.76964 63.55015
# Shear Modulus (GPa) = 19.38110 21.25672 20.31891
#
# Velocity S-wave (km/s) = 3.41082 3.57205 3.49236
# Velocity P-wave (km/s) = 7.27503 7.47604 7.37622
#
# Compressibility (1/GPa) = 0.01604347
#
# Stress axis : x y z
#
# Youngs Moduli (GPa) = 61.82219 33.03821 44.21203
#
# Poissons Ratio (x) = 0.21017 0.24367
# Poissons Ratio (y) = 0.39328 0.64710
# Poissons Ratio (z) = 0.34072 0.48356
#
# Static dielectric constant tensor:
#      x y z
#    x 1.564610 0.000000 0.000000 
#    y 0.000000 1.558610 0.000000 
#    z 0.000000 0.000000 1.562390 
# 
# From -- ./inp_files/7679.got.cif
#   From: 2010.05.17/outbox.cif.g08.bks.cpg/sg65_4_cif.got.tgz:7679.got - 2010.06.03 17:01:31.
