data_PCOD9486213
_publ_section_title
;
Structure prediction by ZEFSAII (Michael W. Deem and Ramdas Pophale) SiO2 
 PCOD9486213
Probable space group: C M M M
;
_chemical_formula_sum "Si O2"
_cell_formula_units_Z 128
_cell_length_a 17.518550
_cell_length_b 23.696375
_cell_length_c 18.667481
_cell_angle_alpha 90.000000
_cell_angle_beta 90.000000
_cell_angle_gamma 90.000000
_cell_volume 7749.359149
_symmetry_space_group_name_H-M "C M M M"
_symmetry_group_IT_number 65
_symmetry_cell_setting 'orthorhombic'
loop_
_space_group_symop_operation_xyz
x,y,z
-x,-y,z
x,-y,-z
-x,y,-z
-x,-y,-z
x,y,-z
-x,y,z
x,-y,z
1/2+x,1/2+y,z
1/2-x,1/2-y,z
1/2+x,1/2-y,-z
1/2-x,1/2+y,-z
1/2-x,1/2-y,-z
1/2+x,1/2+y,-z
1/2-x,1/2+y,z
1/2+x,1/2-y,z
loop_
_atom_site_type_symbol
_atom_site_label
_atom_site_fract_x
_atom_site_fract_y
_atom_site_fract_z
Si Si1 0.590771 0.563842 0.422867
Si Si2 0.707300 0.189540 0.583917
Si Si3 0.912489 0.151367 0.917293
Si Si4 0.089298 0.780664 0.222242
Si Si5 0.319948 0.627650 0.311617
Si Si6 0.307549 0.066696 0.774511
Si Si7 0.773167 0.933571 0.082570
Si Si8 0.909588 0.663442 0.294542
O O1 0.616730 0.588374 0.500000
O O2 0.500000 0.560981 0.425807
O O3 0.621124 0.500000 0.418401
O O4 0.612946 0.597199 0.353080
O O5 0.694991 0.177413 0.500000
O O6 0.750000 0.250000 0.588890
O O7 0.764124 0.147747 0.625076
O O8 0.630670 0.183583 0.631466
O O9 0.901877 0.201243 0.860232
O O10 0.848398 0.104047 0.903877
O O11 0.000000 0.130037 0.907986
O O12 0.905043 0.169537 0.000000
O O13 0.146409 0.820133 0.267217
O O14 0.104308 0.715605 0.240135
O O15 0.000000 0.791630 0.242016
O O16 0.272099 0.585215 0.262428
O O17 0.292060 0.078177 0.858721
O O18 0.369796 0.107698 0.738156
O O19 0.322760 0.000000 0.764416
O O20 0.792368 0.000000 0.089721
O O21 0.749492 0.923659 0.000000
O O22 0.000000 0.655621 0.303579
#
# Coordination Sequence:
#
# PCOD9486213 Si02
#       8
#    16  16  16  16  16  16  16  16
#     4   9  18  31  45  65  98 138 175 208 246 299
#     4  10  20  34  53  80 109 136 167 208 258 315
#     4   9  17  30  48  73 109 150 186 219 257 311
#     4  10  19  32  50  76 107 143 178 212 261 318
#     4  11  18  31  52  75 104 135 167 218 261 313
#     4  10  21  35  55  80 102 133 180 226 271 315
#     4   9  17  31  50  75 109 145 181 222 267 316
#     4  10  22  39  58  78 106 142 176 218 270 318
#
# _framework density 16.517495
#
# number of rings (size 3 to 8) (size 9 to 14) (size 15 to 20)
#    0.000    2.250    2.500    1.500    0.000    0.750 
#    0.000    1.875    0.000    6.000    0.000    5.250 
#    0.000    0.000    0.000    0.000    0.000    0.000 
#
# Total GULP energy -356335.794282 kJ/mol
# GULP energy per Si atom -5567.746786 kJ/mol
# Density = 1.647990 g / cm^3
# Si number density = 16.517495 Si / 1000 Ang^3
#
#
#
# Elastic Constant Matrix: (Units=GPa)
#
#
# Indices 1 2 3 4 5 6 
#
# 1 70.7563 40.0766 46.3638 0.0000 0.0000 0.0000
# 2 40.0766 76.3528 51.5459 0.0000 0.0000 0.0000
# 3 46.3638 51.5459 113.1385 0.0000 0.0000 0.0000
# 4 0.0000 0.0000 0.0000 23.3498 0.0000 0.0000
# 5 0.0000 0.0000 0.0000 0.0000 21.7103 0.0000
# 6 0.0000 0.0000 0.0000 0.0000 0.0000 13.3215
#
#
#
# Elastic Compliance Matrix: (Units=1/GPa)
#
#
# Indices 1 2 3 4 5 6 
#
# 1 0.022241 -0.007973 -0.005482 0.000000 0.000000 0.000000
# 2 -0.007973 0.021773 -0.006652 0.000000 0.000000 0.000000
# 3 -0.005482 -0.006652 0.014116 0.000000 0.000000 0.000000
# 4 0.000000 0.000000 0.000000 0.042827 0.000000 0.000000
# 5 0.000000 0.000000 0.000000 0.000000 0.046061 0.000000
# 6 0.000000 0.000000 0.000000 0.000000 0.000000 0.075067
#
#
# Mechanical properties :
#
#
# Convention : Reuss Voigt Hill
#
# Bulk Modulus (GPa) = 55.81807 59.58005 57.69906
# Shear Modulus (GPa) = 18.63780 19.82706 19.23243
#
# Velocity S-wave (km/s) = 3.36276 3.46839 3.41598
# Velocity P-wave (km/s) = 6.99601 7.22418 7.11101
#
# Compressibility (1/GPa) = 0.01791535
#
# Stress axis : x y z
#
# Youngs Moduli (GPa) = 44.96188 45.92781 70.84189
#
# Poissons Ratio (x) = 0.36620 0.38833
# Poissons Ratio (y) = 0.35850 0.47127
# Poissons Ratio (z) = 0.24647 0.30553
#
# Static dielectric constant tensor:
#      x y z
#    x 1.558750 0.000000 0.000000 
#    y 0.000000 1.548000 0.000000 
#    z 0.000000 0.000000 1.575830 
# 
# From -- ./inp_files/55109.got.cif
#   From: 2010.05.17/outbox.cif.g08.bks.cpg/sg65_28_cif.got.tgz:55109.got - 2010.06.03 17:01:31.
