data_PCOD9486344
_publ_section_title
;
Structure prediction by ZEFSAII (Michael W. Deem and Ramdas Pophale) SiO2 
 PCOD9486344
Probable space group: C M M M
;
_chemical_formula_sum "Si O2"
_cell_formula_units_Z 120
_cell_length_a 7.771399
_cell_length_b 26.714993
_cell_length_c 28.134812
_cell_angle_alpha 90.000000
_cell_angle_beta 90.000000
_cell_angle_gamma 90.000000
_cell_volume 5841.149063
_symmetry_space_group_name_H-M "C M M M"
_symmetry_group_IT_number 65
_symmetry_cell_setting 'orthorhombic'
loop_
_space_group_symop_operation_xyz
x,y,z
-x,-y,z
x,-y,-z
-x,y,-z
-x,-y,-z
x,y,-z
-x,y,z
x,-y,z
1/2+x,1/2+y,z
1/2-x,1/2-y,z
1/2+x,1/2-y,-z
1/2-x,1/2+y,-z
1/2-x,1/2-y,-z
1/2+x,1/2+y,-z
1/2-x,1/2+y,z
1/2+x,1/2-y,z
loop_
_atom_site_type_symbol
_atom_site_label
_atom_site_fract_x
_atom_site_fract_y
_atom_site_fract_z
Si Si1 0.289585 0.054768 0.915174
Si Si2 0.207748 0.556781 0.289739
Si Si3 0.708571 0.163392 0.051587
Si Si4 0.789235 0.000000 0.444858
Si Si5 0.301418 0.088384 0.187072
Si Si6 0.697685 0.694613 0.155179
Si Si7 0.206057 0.901440 0.388957
Si Si8 0.207044 0.194156 0.554391
O O1 0.500000 0.054966 0.915195
O O2 0.240499 0.104784 0.943234
O O3 0.228419 0.063395 0.860770
O O4 0.234883 0.000000 0.932462
O O5 0.266929 0.500000 0.299492
O O6 0.273421 0.573864 0.237998
O O7 0.257585 0.591657 0.333485
O O8 0.000000 0.556481 0.288145
O O9 0.500000 0.165813 0.053809
O O10 0.777346 0.190591 0.098200
O O11 0.764572 0.182468 0.000000
O O12 0.729737 0.950313 0.417394
O O13 0.737737 0.000000 0.500000
O O14 0.000000 0.000000 0.444120
O O15 0.500000 0.071729 0.188209
O O16 0.296759 0.147905 0.177918
O O17 0.500000 0.686166 0.166572
O O18 0.750000 0.750000 0.170634
O O19 0.272535 0.850413 0.412415
O O20 0.000000 0.901330 0.394650
O O21 0.270910 0.188628 0.500000
O O22 0.250000 0.250000 0.571053
O O23 0.000000 0.190630 0.552648
#
# Coordination Sequence:
#
# PCOD9486344 Si02
#       8
#    16  16  16   8  16  16  16  16
#     4   8  13  24  46  74 100 127 166 211 248 289
#     4  10  20  34  54  80 111 143 172 208 258 313
#     4   9  18  32  50  75 107 140 174 211 252 303
#     4   9  16  28  49  75 103 139 181 223 266 313
#     4   9  18  34  54  76 101 133 172 212 254 303
#     4  11  22  37  57  78 101 130 167 215 266 314
#     4  10  19  32  51  77 107 140 179 222 265 316
#     4   9  18  33  53  76 101 134 179 225 267 313
#
# _framework density 20.543901999999999
#
# number of rings (size 3 to 8) (size 9 to 14) (size 15 to 20)
#    0.000    2.600    0.667    2.800    0.000    5.067 
#    0.000    2.000    0.000   12.800    0.000    3.733 
#    0.000    0.000    0.000    0.000    0.000    0.000 
#
# Total GULP energy -334813.450065 kJ/mol
# GULP energy per Si atom -5580.224168 kJ/mol
# Density = 2.049714 g / cm^3
# Si number density = 20.543902 Si / 1000 Ang^3
#
#
#
# Elastic Constant Matrix: (Units=GPa)
#
#
# Indices 1 2 3 4 5 6 
#
# 1 31.6215 -3.8943 -2.1486 0.0000 0.0000 0.0000
# 2 -3.8943 102.5163 25.0458 0.0000 0.0000 0.0000
# 3 -2.1486 25.0458 90.9801 0.0000 0.0000 0.0000
# 4 0.0000 0.0000 0.0000 1.3172 0.0000 0.0000
# 5 0.0000 0.0000 0.0000 0.0000 15.7630 0.0000
# 6 0.0000 0.0000 0.0000 0.0000 0.0000 14.2712
#
#
#
# Elastic Compliance Matrix: (Units=1/GPa)
#
#
# Indices 1 2 3 4 5 6 
#
# 1 0.031790 0.001098 0.000448 0.000000 0.000000 0.000000
# 2 0.001098 0.010496 -0.002863 0.000000 0.000000 0.000000
# 3 0.000448 -0.002863 0.011790 0.000000 0.000000 0.000000
# 4 0.000000 0.000000 0.000000 0.759187 0.000000 0.000000
# 5 0.000000 0.000000 0.000000 0.000000 0.063440 0.000000
# 6 0.000000 0.000000 0.000000 0.000000 0.000000 0.070071
#
#
# Mechanical properties :
#
#
# Convention : Reuss Voigt Hill
#
# Bulk Modulus (GPa) = 19.43937 29.23597 24.33767
# Shear Modulus (GPa) = 5.17301 20.01129 12.59215
#
# Velocity S-wave (km/s) = 1.58855 3.12440 2.47845
# Velocity P-wave (km/s) = 3.58435 5.22281 4.47913
#
# Compressibility (1/GPa) = 0.05144200
#
# Stress axis : x y z
#
# Youngs Moduli (GPa) = 31.45666 95.27597 84.81557
#
# Poissons Ratio (x) = -0.10462 -0.03804
# Poissons Ratio (y) = -0.03454 0.24287
# Poissons Ratio (z) = -0.01411 0.27282
#
# Static dielectric constant tensor:
#      x y z
#    x 1.773060 0.000000 0.000000 
#    y 0.000000 1.729760 0.000000 
#    z 0.000000 0.000000 1.720360 
# 
# From -- ./inp_files/73962.got.cif
#   From: 2010.05.17/outbox.cif.g08.bks.cpg/sg65_37_cif.got.tgz:73962.got - 2010.06.03 17:01:31.
