data_PCOD9486262
_publ_section_title
;
Structure prediction by ZEFSAII (Michael W. Deem and Ramdas Pophale) SiO2 
 PCOD9486262
Probable space group: C M M M
;
_chemical_formula_sum "Si O2"
_cell_formula_units_Z 104
_cell_length_a 19.221418
_cell_length_b 8.180881
_cell_length_c 34.819864
_cell_angle_alpha 90.000000
_cell_angle_beta 90.000000
_cell_angle_gamma 90.000000
_cell_volume 5475.358616
_symmetry_space_group_name_H-M "C M M M"
_symmetry_group_IT_number 65
_symmetry_cell_setting 'orthorhombic'
loop_
_space_group_symop_operation_xyz
x,y,z
-x,-y,z
x,-y,-z
-x,y,-z
-x,-y,-z
x,y,-z
-x,y,z
x,-y,z
1/2+x,1/2+y,z
1/2-x,1/2-y,z
1/2+x,1/2-y,-z
1/2-x,1/2+y,-z
1/2-x,1/2-y,-z
1/2+x,1/2+y,-z
1/2-x,1/2+y,z
1/2+x,1/2-y,z
loop_
_atom_site_type_symbol
_atom_site_label
_atom_site_fract_x
_atom_site_fract_y
_atom_site_fract_z
Si Si1 0.829978 0.804786 0.916739
Si Si2 0.919367 0.300615 0.759204
Si Si3 0.079328 0.303255 0.154852
Si Si4 0.328415 0.697466 0.543601
Si Si5 0.579426 0.302465 0.614439
Si Si6 0.169152 0.802598 0.000000
Si Si7 0.829783 0.304302 0.312885
O O1 0.750000 0.750000 0.913500
O O2 0.872730 0.747907 0.880114
O O3 0.858463 0.745155 0.958493
O O4 0.831278 0.000000 0.917421
O O5 0.918562 0.500000 0.758813
O O6 0.898909 0.247829 0.802324
O O7 0.868336 0.243049 0.725749
O O8 0.000000 0.252484 0.752352
O O9 0.078390 0.500000 0.155947
O O10 0.000000 0.246457 0.148727
O O11 0.342747 0.754588 0.500000
O O12 0.330193 0.500000 0.543246
O O13 0.250000 0.750000 0.553809
O O14 0.382970 0.755224 0.575400
O O15 0.500000 0.243246 0.617858
O O16 0.577509 0.500000 0.613105
O O17 0.626092 0.252910 0.650534
O O18 0.250000 0.750000 0.000000
O O19 0.165205 0.000000 0.000000
O O20 0.831088 0.500000 0.312225
O O21 0.750000 0.250000 0.314984
#
# Coordination Sequence:
#
# PCOD9486262 Si02
#       7
#    16  16  16  16  16   8  16
#     4  10  19  32  51  74 100 130 168 210 252 299
#     4   8  16  33  55  75  97 130 169 206 248 300
#     4   9  18  34  54  75 102 134 166 203 249 299
#     4   9  18  33  53  76 103 137 174 211 254 303
#     4  10  21  36  54  78 107 137 172 215 259 303
#     4   8  16  30  47  68  95 129 165 205 251 296
#     4  11  22  36  55  78 105 136 171 210 254 304
#
# _framework density 18.994191000000001
#
# number of rings (size 3 to 8) (size 9 to 14) (size 15 to 20)
#    0.000    2.615    0.000    2.769    0.000    4.615 
#    0.000    5.000    0.000    4.154    0.000    3.231 
#    0.000    0.000    0.000    0.000    0.000    0.000 
#
# Total GULP energy -289971.247337 kJ/mol
# GULP energy per Si atom -5576.370141 kJ/mol
# Density = 1.895096 g / cm^3
# Si number density = 18.994191 Si / 1000 Ang^3
#
#
#
# Elastic Constant Matrix: (Units=GPa)
#
#
# Indices 1 2 3 4 5 6 
#
# 1 135.5107 12.5367 126.4545 0.0000 0.0000 0.0000
# 2 12.5367 11.6575 17.7625 0.0000 0.0000 0.0000
# 3 126.4545 17.7625 196.4549 0.0000 0.0000 0.0000
# 4 0.0000 0.0000 0.0000 21.4741 0.0000 0.0000
# 5 0.0000 0.0000 0.0000 0.0000 68.3528 0.0000
# 6 0.0000 0.0000 0.0000 0.0000 0.0000 16.9465
#
#
#
# Elastic Compliance Matrix: (Units=1/GPa)
#
#
# Indices 1 2 3 4 5 6 
#
# 1 0.018521 -0.002033 -0.011738 0.000000 0.000000 0.000000
# 2 -0.002033 0.099711 -0.007707 0.000000 0.000000 0.000000
# 3 -0.011738 -0.007707 0.013342 0.000000 0.000000 0.000000
# 4 0.000000 0.000000 0.000000 0.046568 0.000000 0.000000
# 5 0.000000 0.000000 0.000000 0.000000 0.014630 0.000000
# 6 0.000000 0.000000 0.000000 0.000000 0.000000 0.059009
#
#
# Mechanical properties :
#
#
# Convention : Reuss Voigt Hill
#
# Bulk Modulus (GPa) = 11.28421 73.01449 42.14935
# Shear Modulus (GPa) = 15.41896 33.81264 24.61580
#
# Velocity S-wave (km/s) = 2.85225 4.22377 3.60386
# Velocity P-wave (km/s) = 4.09889 7.89372 6.28935
#
# Compressibility (1/GPa) = 0.08861939
#
# Stress axis : x y z
#
# Youngs Moduli (GPa) = 53.99313 10.02897 74.94895
#
# Poissons Ratio (x) = 0.02039 0.87973
# Poissons Ratio (y) = 0.10977 0.57762
# Poissons Ratio (z) = 0.63376 0.07729
#
# Static dielectric constant tensor:
#      x y z
#    x 1.627220 0.000000 0.000000 
#    y 0.000000 1.677750 0.000000 
#    z 0.000000 0.000000 1.687020 
# 
# From -- ./inp_files/78176.got.cif
#   From: 2010.05.17/outbox.cif.g08.bks.cpg/sg65_40_cif.got.tgz:78176.got - 2010.06.03 17:01:31.
