data_PCOD9486196
_publ_section_title
;
Structure prediction by ZEFSAII (Michael W. Deem and Ramdas Pophale) SiO2 
 PCOD9486196
Probable space group: C M M M
;
_chemical_formula_sum "Si O2"
_cell_formula_units_Z 104
_cell_length_a 8.885695
_cell_length_b 27.327081
_cell_length_c 24.369857
_cell_angle_alpha 90.000000
_cell_angle_beta 90.000000
_cell_angle_gamma 90.000000
_cell_volume 5917.491284
_symmetry_space_group_name_H-M "C M M M"
_symmetry_group_IT_number 65
_symmetry_cell_setting 'orthorhombic'
loop_
_space_group_symop_operation_xyz
x,y,z
-x,-y,z
x,-y,-z
-x,y,-z
-x,-y,-z
x,y,-z
-x,y,z
x,-y,z
1/2+x,1/2+y,z
1/2-x,1/2-y,z
1/2+x,1/2-y,-z
1/2-x,1/2+y,-z
1/2-x,1/2-y,-z
1/2+x,1/2+y,-z
1/2-x,1/2+y,z
1/2+x,1/2-y,z
loop_
_atom_site_type_symbol
_atom_site_label
_atom_site_fract_x
_atom_site_fract_y
_atom_site_fract_z
Si Si1 0.674405 0.000000 0.065622
Si Si2 0.677556 0.596631 0.881972
Si Si3 0.172389 0.442869 0.222037
Si Si4 0.180481 0.698967 0.734522
Si Si5 0.318823 0.443366 0.438013
Si Si6 0.320481 0.895163 0.666306
Si Si7 0.319419 0.197587 0.864083
O O1 0.752132 0.950057 0.086550
O O2 0.500000 0.000000 0.084247
O O3 0.678027 0.000000 0.000000
O O4 0.500000 0.598927 0.891201
O O5 0.716474 0.584467 0.818564
O O6 0.752932 0.649397 0.893465
O O7 0.175362 0.500000 0.208984
O O8 0.207532 0.434815 0.285716
O O9 0.000000 0.424206 0.213158
O O10 0.250000 0.750000 0.716542
O O11 0.230390 0.655019 0.695322
O O12 0.219050 0.692083 0.798922
O O13 0.000000 0.701063 0.732227
O O14 0.271530 0.429653 0.500000
O O15 0.500000 0.442286 0.436637
O O16 0.272153 0.500000 0.428727
O O17 0.255823 0.409717 0.390124
O O18 0.500000 0.892738 0.657721
O O19 0.500000 0.198709 0.869432
O O20 0.250000 0.250000 0.881525
#
# Coordination Sequence:
#
# PCOD9486196 Si02
#       7
#     8  16  16  16  16  16  16
#     4  11  25  45  67  87 113 157 202 239 286 335
#     4  12  23  35  56  87 119 152 190 233 280 335
#     4  10  19  32  50  73 109 150 179 215 274 332
#     4   9  18  31  48  72 104 139 174 215 264 318
#     4   9  19  35  51  69  97 133 171 215 268 323
#     4  10  19  32  50  75 102 135 175 218 268 321
#     4  10  19  35  56  81 116 155 193 234 282 337
#
# _framework density 17.575015
#
# number of rings (size 3 to 8) (size 9 to 14) (size 15 to 20)
#    0.000    1.923    2.308    3.000    0.000    3.692 
#    0.000    0.769    0.000    0.923    0.000    0.000 
#    0.000    0.000    0.000    0.000    0.000    0.000 
#
# Total GULP energy -290102.150307 kJ/mol
# GULP energy per Si atom -5578.887506 kJ/mol
# Density = 1.753501 g / cm^3
# Si number density = 17.575015 Si / 1000 Ang^3
#
#
#
# Elastic Constant Matrix: (Units=GPa)
#
#
# Indices 1 2 3 4 5 6 
#
# 1 69.5936 57.6218 24.9870 0.0000 0.0000 0.0000
# 2 57.6218 143.7437 35.9008 0.0000 0.0000 0.0000
# 3 24.9870 35.9008 51.7797 0.0000 0.0000 0.0000
# 4 0.0000 0.0000 0.0000 14.7256 0.0000 0.0000
# 5 0.0000 0.0000 0.0000 0.0000 2.4387 0.0000
# 6 0.0000 0.0000 0.0000 0.0000 0.0000 30.7550
#
#
#
# Elastic Compliance Matrix: (Units=1/GPa)
#
#
# Indices 1 2 3 4 5 6 
#
# 1 0.022793 -0.007728 -0.005641 0.000000 0.000000 0.000000
# 2 -0.007728 0.011034 -0.003921 0.000000 0.000000 0.000000
# 3 -0.005641 -0.003921 0.024753 0.000000 0.000000 0.000000
# 4 0.000000 0.000000 0.000000 0.067909 0.000000 0.000000
# 5 0.000000 0.000000 0.000000 0.000000 0.410055 0.000000
# 6 0.000000 0.000000 0.000000 0.000000 0.000000 0.032515
#
#
# Mechanical properties :
#
#
# Convention : Reuss Voigt Hill
#
# Bulk Modulus (GPa) = 41.66607 55.79290 48.72949
# Shear Modulus (GPa) = 8.17475 19.35769 13.76622
#
# Velocity S-wave (km/s) = 2.15904 3.32238 2.80176
# Velocity P-wave (km/s) = 5.47488 6.82145 6.18492
#
# Compressibility (1/GPa) = 0.02400034
#
# Stress axis : x y z
#
# Youngs Moduli (GPa) = 43.87279 90.62850 40.39872
#
# Poissons Ratio (x) = 0.70039 0.22789
# Poissons Ratio (y) = 0.33905 0.15840
# Poissons Ratio (z) = 0.24748 0.35535
#
# Static dielectric constant tensor:
#      x y z
#    x 1.595900 0.000000 0.000000 
#    y 0.000000 1.619420 0.000000 
#    z 0.000000 0.000000 1.584290 
# 
# From -- ./inp_files/68194.got.cif
#   From: 2010.05.17/outbox.cif.g08.bks.cpg/sg65_35_cif.got.tgz:68194.got - 2010.06.03 17:01:31.
