data_PCOD9486031
_publ_section_title
;
Structure prediction by ZEFSAII (Michael W. Deem and Ramdas Pophale) SiO2 
 PCOD9486031
Probable space group: C M M M
;
_chemical_formula_sum "Si O2"
_cell_formula_units_Z 100
_cell_length_a 22.892391
_cell_length_b 15.585316
_cell_length_c 15.890473
_cell_angle_alpha 90.000000
_cell_angle_beta 90.000000
_cell_angle_gamma 90.000000
_cell_volume 5669.484757
_symmetry_space_group_name_H-M "C M M M"
_symmetry_group_IT_number 65
_symmetry_cell_setting 'orthorhombic'
loop_
_space_group_symop_operation_xyz
x,y,z
-x,-y,z
x,-y,-z
-x,y,-z
-x,-y,-z
x,y,-z
-x,y,z
x,-y,z
1/2+x,1/2+y,z
1/2-x,1/2-y,z
1/2+x,1/2-y,-z
1/2-x,1/2+y,-z
1/2-x,1/2-y,-z
1/2+x,1/2+y,-z
1/2-x,1/2+y,z
1/2+x,1/2-y,z
loop_
_atom_site_type_symbol
_atom_site_label
_atom_site_fract_x
_atom_site_fract_y
_atom_site_fract_z
Si Si1 0.147187 0.000000 0.000000
Si Si2 0.566485 0.202200 0.401328
Si Si3 0.431341 0.500000 0.173190
Si Si4 0.312846 0.301820 0.000000
Si Si5 0.387386 0.354711 0.699367
Si Si6 0.223703 0.899248 0.406310
Si Si7 0.180848 0.266222 0.825961
Si Si8 0.834840 0.602090 0.300748
O O1 0.108269 0.000000 0.912861
O O2 0.183225 0.092589 0.000000
O O3 0.581985 0.208456 0.500000
O O4 0.500000 0.170979 0.394847
O O5 0.571028 0.295090 0.356741
O O6 0.611214 0.140465 0.352892
O O7 0.500000 0.500000 0.150765
O O8 0.416743 0.579757 0.235467
O O9 0.250000 0.250000 0.000000
O O10 0.341943 0.265665 0.915722
O O11 0.339359 0.394087 0.636667
O O12 0.349417 0.291603 0.756617
O O13 0.223758 0.860737 0.500000
O O14 0.275698 0.865090 0.347372
O O15 0.237107 0.000000 0.414138
O O16 0.250000 0.250000 0.825121
O O17 0.167704 0.361692 0.794165
O O18 0.836668 0.500000 0.300452
#
# Coordination Sequence:
#
# PCOD9486031 Si02
#       8
#     4  16   8   8  16  16  16  16
#     4  12  23  44  68  92 124 168 203 252 300 364
#     4  10  22  38  55  79 114 157 203 252 303 353
#     4  12  25  40  61  88 119 159 209 251 291 357
#     4  10  22  39  61  94 125 156 195 240 304 368
#     4  11  20  36  58  82 116 153 196 244 303 356
#     4  10  19  31  52  83 114 148 191 240 291 349
#     4  10  19  36  56  84 120 150 186 239 299 364
#     4  10  21  36  58  85 116 154 200 248 300 361
#
# _framework density 17.638286999999998
#
# number of rings (size 3 to 8) (size 9 to 14) (size 15 to 20)
#    0.000    1.600    4.000    1.560    0.000    1.280 
#    5.760    3.200    0.000    1.920    0.000    0.000 
#    0.000    2.880    0.000    0.000    0.000    0.000 
#
# Total GULP energy -278426.959416 kJ/mol
# GULP energy per Si atom -5568.539188 kJ/mol
# Density = 1.759814 g / cm^3
# Si number density = 17.638287 Si / 1000 Ang^3
#
#
#
# Elastic Constant Matrix: (Units=GPa)
#
#
# Indices 1 2 3 4 5 6 
#
# 1 72.2873 33.6292 22.0524 0.0000 0.0000 0.0000
# 2 33.6292 93.8602 51.2977 0.0000 0.0000 0.0000
# 3 22.0524 51.2977 118.0789 0.0000 0.0000 0.0000
# 4 0.0000 0.0000 0.0000 22.3654 0.0000 0.0000
# 5 0.0000 0.0000 0.0000 0.0000 21.4364 0.0000
# 6 0.0000 0.0000 0.0000 0.0000 0.0000 17.1189
#
#
#
# Elastic Compliance Matrix: (Units=1/GPa)
#
#
# Indices 1 2 3 4 5 6 
#
# 1 0.016642 -0.005592 -0.000679 0.000000 0.000000 0.000000
# 2 -0.005592 0.015850 -0.005842 0.000000 0.000000 0.000000
# 3 -0.000679 -0.005842 0.011133 0.000000 0.000000 0.000000
# 4 0.000000 0.000000 0.000000 0.044712 0.000000 0.000000
# 5 0.000000 0.000000 0.000000 0.000000 0.046650 0.000000
# 6 0.000000 0.000000 0.000000 0.000000 0.000000 0.058415
#
#
# Mechanical properties :
#
#
# Convention : Reuss Voigt Hill
#
# Bulk Modulus (GPa) = 51.54224 55.35387 53.44806
# Shear Modulus (GPa) = 22.31206 24.00059 23.15632
#
# Velocity S-wave (km/s) = 3.56051 3.69278 3.62725
# Velocity P-wave (km/s) = 6.79619 7.04508 6.92175
#
# Compressibility (1/GPa) = 0.01940156
#
# Stress axis : x y z
#
# Youngs Moduli (GPa) = 60.08840 63.09057 89.81907
#
# Poissons Ratio (x) = 0.35278 0.06097
# Poissons Ratio (y) = 0.33600 0.52469
# Poissons Ratio (z) = 0.04079 0.36855
#
# Static dielectric constant tensor:
#      x y z
#    x 1.598070 0.000000 0.000000 
#    y 0.000000 1.644820 0.000000 
#    z 0.000000 0.000000 1.636300 
# 
# From -- ./inp_files/44473.got.cif
#   From: 2010.05.17/outbox.cif.g08.bks.cpg/sg65_23_cif.got.tgz:44473.got - 2010.06.03 17:01:31.
