data_PCOD9486548
_publ_section_title
;
Structure prediction by ZEFSAII (Michael W. Deem and Ramdas Pophale) SiO2 
 PCOD9486548
Probable space group: C M M M
;
_chemical_formula_sum "Si O2"
_cell_formula_units_Z 72
_cell_length_a 14.989442
_cell_length_b 8.923294
_cell_length_c 27.387041
_cell_angle_alpha 90.000000
_cell_angle_beta 90.000000
_cell_angle_gamma 90.000000
_cell_volume 3663.159088
_symmetry_space_group_name_H-M "C M M M"
_symmetry_group_IT_number 65
_symmetry_cell_setting 'orthorhombic'
loop_
_space_group_symop_operation_xyz
x,y,z
-x,-y,z
x,-y,-z
-x,y,-z
-x,-y,-z
x,y,-z
-x,y,z
x,-y,z
1/2+x,1/2+y,z
1/2-x,1/2-y,z
1/2+x,1/2-y,-z
1/2-x,1/2+y,-z
1/2-x,1/2-y,-z
1/2+x,1/2+y,-z
1/2-x,1/2+y,z
1/2+x,1/2-y,z
loop_
_atom_site_type_symbol
_atom_site_label
_atom_site_fract_x
_atom_site_fract_y
_atom_site_fract_z
Si Si1 0.108214 0.170079 0.347236
Si Si2 0.343348 0.822175 0.752321
Si Si3 0.500000 0.320935 0.184715
Si Si4 0.000000 0.319034 0.077982
Si Si5 0.891178 0.674248 0.445852
Si Si6 0.151319 0.319935 0.000000
O O1 0.138427 0.277720 0.303933
O O2 0.138501 0.227147 0.400228
O O3 0.000000 0.169792 0.347116
O O4 0.138589 0.000000 0.337702
O O5 0.250000 0.750000 0.766198
O O6 0.416587 0.745289 0.786065
O O7 0.344763 0.000000 0.757947
O O8 0.500000 0.500000 0.186694
O O9 0.500000 0.262436 0.129500
O O10 0.000000 0.500000 0.084315
O O11 0.088413 0.280316 0.046377
O O12 0.862920 0.725144 0.500000
O O13 0.865689 0.500000 0.439514
O O14 0.000000 0.677516 0.445641
O O15 0.250000 0.250000 0.000000
O O16 0.160636 0.500000 0.000000
#
# Coordination Sequence:
#
# PCOD9486548 Si02
#       6
#    16  16   8   8  16   8
#     4  10  19  32  53  80 113 149 191 243 298 364
#     4  12  25  42  64  88 118 159 204 255 311 370
#     4  12  25  43  65  94 129 165 210 261 310 367
#     4   9  20  40  62  90 128 173 213 253 308 363
#     4   8  14  25  43  70 104 142 187 236 289 354
#     4   9  19  37  64  94 130 171 215 259 303 358
#
# _framework density 19.655166999999999
#
# number of rings (size 3 to 8) (size 9 to 14) (size 15 to 20)
#    0.000    2.000    1.111    5.000    0.000    3.111 
#    0.000    5.556    0.000    0.667    0.000    0.000 
#    0.000    0.000    0.000    0.000    0.000    0.000 
#
# Total GULP energy -201163.101404 kJ/mol
# GULP energy per Si atom -5587.863928 kJ/mol
# Density = 1.961043 g / cm^3
# Si number density = 19.655167 Si / 1000 Ang^3
#
#
#
# Elastic Constant Matrix: (Units=GPa)
#
#
# Indices 1 2 3 4 5 6 
#
# 1 127.0985 59.2662 66.4473 0.0000 0.0000 0.0000
# 2 59.2662 141.4419 79.7619 0.0000 0.0000 0.0000
# 3 66.4473 79.7619 151.9145 0.0000 0.0000 0.0000
# 4 0.0000 0.0000 0.0000 26.6136 0.0000 0.0000
# 5 0.0000 0.0000 0.0000 0.0000 246.7156 0.0000
# 6 0.0000 0.0000 0.0000 0.0000 0.0000 27.0056
#
#
#
# Elastic Compliance Matrix: (Units=1/GPa)
#
#
# Indices 1 2 3 4 5 6 
#
# 1 0.010862 -0.002660 -0.003355 0.000000 0.000000 0.000000
# 2 -0.002660 0.010695 -0.004452 0.000000 0.000000 0.000000
# 3 -0.003355 -0.004452 0.010387 0.000000 0.000000 0.000000
# 4 0.000000 0.000000 0.000000 0.037575 0.000000 0.000000
# 5 0.000000 0.000000 0.000000 0.000000 0.004053 0.000000
# 6 0.000000 0.000000 0.000000 0.000000 0.000000 0.037029
#
#
# Mechanical properties :
#
#
# Convention : Reuss Voigt Hill
#
# Bulk Modulus (GPa) = 90.81055 92.37839 91.59447
# Shear Modulus (GPa) = 36.98090 74.39892 55.68991
#
# Velocity S-wave (km/s) = 4.34231 6.15908 5.32869
# Velocity P-wave (km/s) = 8.45240 9.88335 9.19575
#
# Compressibility (1/GPa) = 0.01101194
#
# Stress axis : x y z
#
# Youngs Moduli (GPa) = 92.06535 93.50111 96.26969
#
# Poissons Ratio (x) = 0.24867 0.32294
# Poissons Ratio (y) = 0.24485 0.42860
# Poissons Ratio (z) = 0.30884 0.41628
#
# Static dielectric constant tensor:
#      x y z
#    x 1.683890 0.000000 0.000000 
#    y 0.000000 1.655470 0.000000 
#    z 0.000000 0.000000 1.671640 
# 
# From -- ./inp_files/74706.got.cif
#   From: 2010.05.17/outbox.cif.g08.bks.cpg/sg65_38_cif.got.tgz:74706.got - 2010.06.03 17:01:31.
