data_PCOD9486261
_publ_section_title
;
Structure prediction by ZEFSAII (Michael W. Deem and Ramdas Pophale) SiO2 
 PCOD9486261
Probable space group: C M M M
;
_chemical_formula_sum "Si O2"
_cell_formula_units_Z 80
_cell_length_a 28.165026
_cell_length_b 8.798359
_cell_length_c 19.203389
_cell_angle_alpha 90.000000
_cell_angle_beta 90.000000
_cell_angle_gamma 90.000000
_cell_volume 4758.715206
_symmetry_space_group_name_H-M "C M M M"
_symmetry_group_IT_number 65
_symmetry_cell_setting 'orthorhombic'
loop_
_space_group_symop_operation_xyz
x,y,z
-x,-y,z
x,-y,-z
-x,y,-z
-x,-y,-z
x,y,-z
-x,y,z
x,-y,z
1/2+x,1/2+y,z
1/2-x,1/2-y,z
1/2+x,1/2-y,-z
1/2-x,1/2+y,-z
1/2-x,1/2-y,-z
1/2+x,1/2+y,-z
1/2-x,1/2+y,z
1/2+x,1/2-y,z
loop_
_atom_site_type_symbol
_atom_site_label
_atom_site_fract_x
_atom_site_fract_y
_atom_site_fract_z
Si Si1 0.109210 0.818603 0.709228
Si Si2 0.055344 0.317049 0.579888
Si Si3 0.698409 0.817676 0.783818
Si Si4 0.054179 0.182867 0.850046
Si Si5 0.644080 0.816864 0.077641
O O1 0.088159 0.759694 0.637106
O O2 0.158887 0.742449 0.730293
O O3 0.072629 0.780229 0.772130
O O4 0.114640 0.000000 0.708012
O O5 0.067053 0.275611 0.500000
O O6 0.058881 0.500000 0.585518
O O7 0.000000 0.276347 0.591990
O O8 0.750000 0.750000 0.770544
O O9 0.679564 0.768669 0.860639
O O10 0.699986 0.000000 0.781719
O O11 0.092171 0.255373 0.902093
O O12 0.000000 0.233128 0.860294
O O13 0.055768 0.000000 0.857320
O O14 0.642626 0.000000 0.078612
O O15 0.657737 0.766678 0.000000
#
# Coordination Sequence:
#
# PCOD9486261 Si02
#       5
#    16  16  16  16  16
#     4  10  19  32  51  74 100 130 166 207 246 288
#     4   9  18  32  50  75 108 142 171 199 236 283
#     4  10  20  35  54  74  96 124 160 203 251 300
#     4   9  18  31  46  67  96 129 164 201 241 285
#     4   9  19  34  49  68  95 125 159 200 245 294
#
# _framework density 16.811260000000001
#
# number of rings (size 3 to 8) (size 9 to 14) (size 15 to 20)
#    0.000    2.600    0.000    2.400    0.000    4.800 
#    0.000    3.000    0.000    0.600    0.000    0.000 
#    0.000    0.000    0.000    0.000    0.000    0.000 
#
# Total GULP energy -223117.800745 kJ/mol
# GULP energy per Si atom -5577.945019 kJ/mol
# Density = 1.677300 g / cm^3
# Si number density = 16.811260 Si / 1000 Ang^3
#
#
#
# Elastic Constant Matrix: (Units=GPa)
#
#
# Indices 1 2 3 4 5 6 
#
# 1 93.5412 30.5408 50.3373 0.0000 0.0000 0.0000
# 2 30.5408 29.1312 34.8948 0.0000 0.0000 0.0000
# 3 50.3373 34.8948 114.4312 0.0000 0.0000 0.0000
# 4 0.0000 0.0000 0.0000 24.5566 0.0000 0.0000
# 5 0.0000 0.0000 0.0000 0.0000 10.6834 0.0000
# 6 0.0000 0.0000 0.0000 0.0000 0.0000 29.0912
#
#
#
# Elastic Compliance Matrix: (Units=1/GPa)
#
#
# Indices 1 2 3 4 5 6 
#
# 1 0.016973 -0.013944 -0.003214 0.000000 0.000000 0.000000
# 2 -0.013944 0.065538 -0.013851 0.000000 0.000000 0.000000
# 3 -0.003214 -0.013851 0.014377 0.000000 0.000000 0.000000
# 4 0.000000 0.000000 0.000000 0.040722 0.000000 0.000000
# 5 0.000000 0.000000 0.000000 0.000000 0.093603 0.000000
# 6 0.000000 0.000000 0.000000 0.000000 0.000000 0.034375
#
#
# Mechanical properties :
#
#
# Convention : Reuss Voigt Hill
#
# Bulk Modulus (GPa) = 28.67922 52.07215 40.37569
# Shear Modulus (GPa) = 14.73928 20.95495 17.84712
#
# Velocity S-wave (km/s) = 2.96421 3.53439 3.26178
# Velocity P-wave (km/s) = 5.36768 6.90635 6.18505
#
# Compressibility (1/GPa) = 0.03486845
#
# Stress axis : x y z
#
# Youngs Moduli (GPa) = 58.91811 15.25826 69.55758
#
# Poissons Ratio (x) = 0.21276 0.22356
# Poissons Ratio (y) = 0.82156 0.96347
# Poissons Ratio (z) = 0.18936 0.21135
#
# Static dielectric constant tensor:
#      x y z
#    x 1.538050 0.000000 0.000000 
#    y 0.000000 1.562210 0.000000 
#    z 0.000000 0.000000 1.564800 
# 
# From -- ./inp_files/49842.got.cif
#   From: 2010.05.17/outbox.cif.g08.bks.cpg/sg65_25_cif.got.tgz:49842.got - 2010.06.03 17:01:31.
