data_PCOD9486352
_publ_section_title
;
Structure prediction by ZEFSAII (Michael W. Deem and Ramdas Pophale) SiO2 
 PCOD9486352
Probable space group: C M M M
;
_chemical_formula_sum "Si O2"
_cell_formula_units_Z 72
_cell_length_a 26.142255
_cell_length_b 9.944175
_cell_length_c 13.879203
_cell_angle_alpha 90.000000
_cell_angle_beta 90.000000
_cell_angle_gamma 90.000000
_cell_volume 3608.081451
_symmetry_space_group_name_H-M "C M M M"
_symmetry_group_IT_number 65
_symmetry_cell_setting 'orthorhombic'
loop_
_space_group_symop_operation_xyz
x,y,z
-x,-y,z
x,-y,-z
-x,y,-z
-x,-y,-z
x,y,-z
-x,y,z
x,-y,z
1/2+x,1/2+y,z
1/2-x,1/2-y,z
1/2+x,1/2-y,-z
1/2-x,1/2+y,-z
1/2-x,1/2-y,-z
1/2+x,1/2+y,-z
1/2-x,1/2+y,z
1/2+x,1/2-y,z
loop_
_atom_site_type_symbol
_atom_site_label
_atom_site_fract_x
_atom_site_fract_y
_atom_site_fract_z
Si Si1 0.561002 0.000000 0.606119
Si Si2 0.597109 0.156579 0.887263
Si Si3 0.058503 0.779498 0.293019
Si Si4 0.796314 0.341361 0.225109
Si Si5 0.839365 0.149300 0.613662
O O1 0.572019 0.867850 0.664973
O O2 0.500000 0.000000 0.595198
O O3 0.584734 0.000000 0.500000
O O4 0.565027 0.258441 0.820983
O O5 0.654665 0.165300 0.845361
O O6 0.579981 0.000000 0.875224
O O7 0.595239 0.187245 0.000000
O O8 0.103260 0.861261 0.343247
O O9 0.000000 0.815546 0.317274
O O10 0.784553 0.500000 0.237764
O O11 0.750000 0.250000 0.185913
O O12 0.811915 0.264770 0.324179
O O13 0.840925 0.179730 0.500000
O O14 0.815593 0.000000 0.625674
#
# Coordination Sequence:
#
# PCOD9486352 Si02
#       5
#     8  16  16  16  16
#     4   9  16  26  43  71 105 141 182 226 267 313
#     4   9  18  33  53  80 114 148 186 232 282 337
#     4  10  19  32  51  78 112 150 192 234 277 324
#     4  10  21  38  61  86 112 143 181 227 280 338
#     4  10  22  38  56  81 114 151 189 229 277 332
#
# _framework density 19.955203999999998
#
# number of rings (size 3 to 8) (size 9 to 14) (size 15 to 20)
#    0.000    2.333    1.111    1.333    1.556    3.556 
#    0.000    2.222    0.000   16.000    0.000    6.222 
#    0.000    0.000    0.000    0.000    0.000    0.000 
#
# Total GULP energy -200671.793950 kJ/mol
# GULP energy per Si atom -5574.216499 kJ/mol
# Density = 1.990978 g / cm^3
# Si number density = 19.955204 Si / 1000 Ang^3
#
#
#
# Elastic Constant Matrix: (Units=GPa)
#
#
# Indices 1 2 3 4 5 6 
#
# 1 44.6322 -0.6857 -23.7217 0.0000 0.0000 0.0000
# 2 -0.6857 98.7066 8.8499 0.0000 0.0000 0.0000
# 3 -23.7217 8.8499 101.4952 0.0000 0.0000 0.0000
# 4 0.0000 0.0000 0.0000 12.0266 0.0000 0.0000
# 5 0.0000 0.0000 0.0000 0.0000 10.8618 0.0000
# 6 0.0000 0.0000 0.0000 0.0000 0.0000 13.5498
#
#
#
# Elastic Compliance Matrix: (Units=1/GPa)
#
#
# Indices 1 2 3 4 5 6 
#
# 1 0.025596 -0.000361 0.006014 0.000000 0.000000 0.000000
# 2 -0.000361 0.010216 -0.000975 0.000000 0.000000 0.000000
# 3 0.006014 -0.000975 0.011343 0.000000 0.000000 0.000000
# 4 0.000000 0.000000 0.000000 0.083149 0.000000 0.000000
# 5 0.000000 0.000000 0.000000 0.000000 0.092066 0.000000
# 6 0.000000 0.000000 0.000000 0.000000 0.000000 0.073802
#
#
# Mechanical properties :
#
#
# Convention : Reuss Voigt Hill
#
# Bulk Modulus (GPa) = 17.69600 23.74655 20.72128
# Shear Modulus (GPa) = 16.35839 24.64710 20.50274
#
# Velocity S-wave (km/s) = 2.86624 3.51824 3.20885
# Velocity P-wave (km/s) = 4.45431 5.33196 4.91277
#
# Compressibility (1/GPa) = 0.05650995
#
# Stress axis : x y z
#
# Youngs Moduli (GPa) = 39.06841 97.88602 88.15777
#
# Poissons Ratio (x) = 0.03537 -0.53017
# Poissons Ratio (y) = 0.01412 0.08598
# Poissons Ratio (z) = -0.23495 0.09546
#
# Static dielectric constant tensor:
#      x y z
#    x 1.736900 0.000000 0.000000 
#    y 0.000000 1.806540 0.000000 
#    z 0.000000 0.000000 1.715770 
# 
# From -- ./inp_files/46490.got.cif
#   From: 2010.05.17/outbox.cif.g08.bks.cpg/sg65_24_cif.got.tgz:46490.got - 2010.06.03 17:01:31.
