data_PCOD9486378
_publ_section_title
;
Structure prediction by ZEFSAII (Michael W. Deem and Ramdas Pophale) SiO2 
 PCOD9486378
Probable space group: C M M M
;
_chemical_formula_sum "Si O2"
_cell_formula_units_Z 88
_cell_length_a 14.575146
_cell_length_b 13.036799
_cell_length_c 20.672889
_cell_angle_alpha 90.000000
_cell_angle_beta 90.000000
_cell_angle_gamma 90.000000
_cell_volume 3928.122801
_symmetry_space_group_name_H-M "C M M M"
_symmetry_group_IT_number 65
_symmetry_cell_setting 'orthorhombic'
loop_
_space_group_symop_operation_xyz
x,y,z
-x,-y,z
x,-y,-z
-x,y,-z
-x,-y,-z
x,y,-z
-x,y,z
x,-y,z
1/2+x,1/2+y,z
1/2-x,1/2-y,z
1/2+x,1/2-y,-z
1/2-x,1/2+y,-z
1/2-x,1/2-y,-z
1/2+x,1/2+y,-z
1/2-x,1/2+y,z
1/2+x,1/2-y,z
loop_
_atom_site_type_symbol
_atom_site_label
_atom_site_fract_x
_atom_site_fract_y
_atom_site_fract_z
Si Si1 0.387619 0.880925 0.309939
Si Si2 0.855240 0.277740 0.926423
Si Si3 0.393570 0.500000 0.250505
Si Si4 0.888346 0.231194 0.427800
Si Si5 0.895002 0.212547 0.790181
Si Si6 0.609520 0.000000 0.926674
Si Si7 0.394401 0.500000 0.404188
O O1 0.500000 0.887588 0.310649
O O2 0.359344 0.810098 0.371434
O O3 0.359850 0.813571 0.246817
O O4 0.355000 0.000000 0.311057
O O5 0.750000 0.250000 0.931816
O O6 0.896685 0.214978 0.867807
O O7 0.861238 0.392979 0.899460
O O8 0.894449 0.272544 0.000000
O O9 0.500000 0.500000 0.225163
O O10 0.348650 0.393953 0.229064
O O11 0.397504 0.500000 0.327095
O O12 0.865805 0.268817 0.500000
O O13 0.000000 0.226000 0.422327
O O14 0.855343 0.112355 0.422223
O O15 0.000000 0.206252 0.766155
O O16 0.500000 0.000000 0.928201
O O17 0.646336 0.000000 0.000000
O O18 0.500000 0.500000 0.428310
#
# Coordination Sequence:
#
# PCOD9486378 Si02
#       7
#    16  16   8  16  16   8   8
#     4   9  17  27  40  63  94 129 170 218 270 321
#     4  10  22  38  55  79 111 143 177 228 294 349
#     4   9  16  28  46  68  94 128 167 210 260 312
#     4   9  15  22  35  57  88 128 168 206 256 321
#     4  10  19  32  52  74  99 135 181 227 272 330
#     4   9  18  35  60  86 110 144 192 238 280 338
#     4   9  13  22  36  54  84 120 164 207 242 295
#
# _framework density 22.402557999999999
#
# number of rings (size 3 to 8) (size 9 to 14) (size 15 to 20)
#    0.000    2.636    1.818    0.818    1.273    3.273 
#    0.000    3.182    0.000    1.636    0.000    0.000 
#    0.000    0.727    0.000    1.091    0.000    0.727 
#
# Total GULP energy -245153.763425 kJ/mol
# GULP energy per Si atom -5571.676441 kJ/mol
# Density = 2.235157 g / cm^3
# Si number density = 22.402558 Si / 1000 Ang^3
#
#
#
# Elastic Constant Matrix: (Units=GPa)
#
#
# Indices 1 2 3 4 5 6 
#
# 1 47.1384 17.0336 -4.2000 0.0000 0.0000 0.0000
# 2 17.0336 172.1794 86.8635 0.0000 0.0000 0.0000
# 3 -4.2000 86.8635 157.8536 0.0000 0.0000 0.0000
# 4 0.0000 0.0000 0.0000 31.1078 0.0000 0.0000
# 5 0.0000 0.0000 0.0000 0.0000 -20.4223 0.0000
# 6 0.0000 0.0000 0.0000 0.0000 0.0000 6.5118
#
#
#
# Elastic Compliance Matrix: (Units=1/GPa)
#
#
# Indices 1 2 3 4 5 6 
#
# 1 0.022718 -0.003533 0.002549 0.000000 0.000000 0.000000
# 2 -0.003533 0.008589 -0.004821 0.000000 0.000000 0.000000
# 3 0.002549 -0.004821 0.009055 0.000000 0.000000 0.000000
# 4 0.000000 0.000000 0.000000 0.032146 0.000000 0.000000
# 5 0.000000 0.000000 0.000000 0.000000 -0.048966 0.000000
# 6 0.000000 0.000000 0.000000 0.000000 0.000000 0.153566
#
#
# Mechanical properties :
#
#
# Convention : Reuss Voigt Hill
#
# Bulk Modulus (GPa) = 34.77945 64.06284 49.42114
# Shear Modulus (GPa) = 25.21383 21.93776 23.57580
#
# Velocity S-wave (km/s) = 3.35847 3.13270 3.24755
# Velocity P-wave (km/s) = 5.53151 6.46091 6.01419
#
# Compressibility (1/GPa) = 0.02875261
#
# Stress axis : x y z
#
# Youngs Moduli (GPa) = 44.01794 116.42269 110.43069
#
# Poissons Ratio (x) = 0.41136 -0.28146
# Poissons Ratio (y) = 0.15553 0.53234
# Poissons Ratio (z) = -0.11219 0.56122
#
# Static dielectric constant tensor:
#      x y z
#    x 1.852510 0.000000 0.000000 
#    y 0.000000 1.868310 0.000000 
#    z 0.000000 0.000000 1.807690 
# 
# From -- ./inp_files/61520.got.cif
#   From: 2010.05.17/outbox.cif.g08.bks.cpg/sg65_31_cif.got.tgz:61520.got - 2010.06.03 17:01:31.
