data_PCOD9486982
_publ_section_title
;
Structure prediction by ZEFSAII (Michael W. Deem and Ramdas Pophale) SiO2 
 PCOD9486982
Probable space group: C M M M
;
_chemical_formula_sum "Si O2"
_cell_formula_units_Z 88
_cell_length_a 8.612259
_cell_length_b 15.418696
_cell_length_c 33.693136
_cell_angle_alpha 90.000000
_cell_angle_beta 90.000000
_cell_angle_gamma 90.000000
_cell_volume 4474.104905
_symmetry_space_group_name_H-M "C M M M"
_symmetry_group_IT_number 65
_symmetry_cell_setting 'orthorhombic'
loop_
_space_group_symop_operation_xyz
x,y,z
-x,-y,z
x,-y,-z
-x,y,-z
-x,-y,-z
x,y,-z
-x,y,z
x,-y,z
1/2+x,1/2+y,z
1/2-x,1/2-y,z
1/2+x,1/2-y,-z
1/2-x,1/2+y,-z
1/2-x,1/2-y,-z
1/2+x,1/2+y,-z
1/2-x,1/2+y,z
1/2+x,1/2-y,z
loop_
_atom_site_type_symbol
_atom_site_label
_atom_site_fract_x
_atom_site_fract_y
_atom_site_fract_z
Si Si1 0.186174 0.347958 0.626265
Si Si2 0.684422 0.653264 0.083206
Si Si3 0.810644 0.500000 0.315118
Si Si4 0.171492 0.601596 0.000000
Si Si5 0.313648 0.848123 0.165481
Si Si6 0.813489 0.848721 0.543186
Si Si7 0.810775 0.500000 0.775697
O O1 0.250000 0.250000 0.631331
O O2 0.236472 0.414001 0.660709
O O3 0.243226 0.384707 0.583727
O O4 0.000000 0.343152 0.625581
O O5 0.500000 0.650642 0.085796
O O6 0.750000 0.750000 0.084819
O O7 0.755698 0.613452 0.123257
O O8 0.739200 0.621119 0.040467
O O9 0.756924 0.500000 0.269703
O O10 0.000000 0.500000 0.314766
O O11 0.150480 0.500000 0.000000
O O12 0.000000 0.645187 0.000000
O O13 0.500000 0.843212 0.164287
O O14 0.250000 0.750000 0.170774
O O15 0.264252 0.913836 0.200161
O O16 0.772897 0.887879 0.500000
O O17 0.750000 0.750000 0.542235
O O18 0.000000 0.847576 0.546305
O O19 0.000000 0.500000 0.775344
#
# Coordination Sequence:
#
# PCOD9486982 Si02
#       7
#    16  16   8   8  16  16   8
#     4  10  19  33  55  79 108 144 183 226 274 326
#     4  11  22  38  59  83 114 149 186 229 276 326
#     4   9  20  38  56  80 110 145 184 224 274 340
#     4  11  24  39  56  81 115 153 192 229 270 325
#     4  10  20  37  61  88 114 148 188 231 282 336
#     4   9  16  27  46  73 105 141 181 223 269 321
#     4   9  20  38  61  83 111 147 184 226 281 342
#
# _framework density 19.668738999999999
#
# number of rings (size 3 to 8) (size 9 to 14) (size 15 to 20)
#    0.000    2.091    0.000    6.000    1.273    2.545 
#    0.000    3.636    0.000   10.364    0.000    0.000 
#    0.000    0.000    0.000    0.000    0.000    0.000 
#
# Total GULP energy -245432.144444 kJ/mol
# GULP energy per Si atom -5578.003283 kJ/mol
# Density = 1.962397 g / cm^3
# Si number density = 19.668739 Si / 1000 Ang^3
#
#
#
# Elastic Constant Matrix: (Units=GPa)
#
#
# Indices 1 2 3 4 5 6 
#
# 1 90.4687 27.5018 51.7390 0.0000 0.0000 0.0000
# 2 27.5018 89.6798 82.2354 0.0000 0.0000 0.0000
# 3 51.7390 82.2354 226.6463 0.0000 0.0000 0.0000
# 4 0.0000 0.0000 0.0000 69.3192 0.0000 0.0000
# 5 0.0000 0.0000 0.0000 0.0000 28.6007 0.0000
# 6 0.0000 0.0000 0.0000 0.0000 0.0000 14.7697
#
#
#
# Elastic Compliance Matrix: (Units=1/GPa)
#
#
# Indices 1 2 3 4 5 6 
#
# 1 0.012922 -0.001885 -0.002266 0.000000 0.000000 0.000000
# 2 -0.001885 0.016986 -0.005733 0.000000 0.000000 0.000000
# 3 -0.002266 -0.005733 0.007009 0.000000 0.000000 0.000000
# 4 0.000000 0.000000 0.000000 0.014426 0.000000 0.000000
# 5 0.000000 0.000000 0.000000 0.000000 0.034964 0.000000
# 6 0.000000 0.000000 0.000000 0.000000 0.000000 0.067706
#
#
# Mechanical properties :
#
#
# Convention : Reuss Voigt Hill
#
# Bulk Modulus (GPa) = 58.30825 81.08305 69.69565
# Shear Modulus (GPa) = 27.85543 38.89248 33.37395
#
# Velocity S-wave (km/s) = 3.76736 4.45159 4.12369
# Velocity P-wave (km/s) = 6.97377 8.23019 7.62790
#
# Compressibility (1/GPa) = 0.01715023
#
# Stress axis : x y z
#
# Youngs Moduli (GPa) = 77.38442 58.87306 142.66383
#
# Poissons Ratio (x) = 0.11098 0.32328
# Poissons Ratio (y) = 0.14587 0.81785
# Poissons Ratio (z) = 0.17535 0.33750
#
# Static dielectric constant tensor:
#      x y z
#    x 1.714040 0.000000 0.000000 
#    y 0.000000 1.711240 0.000000 
#    z 0.000000 0.000000 1.785420 
# 
# From -- ./inp_files/76717.got.cif
#   From: 2010.05.17/outbox.cif.g08.bks.cpg/sg65_39_cif.got.tgz:76717.got - 2010.06.03 17:01:31.
