data_PCOD9486732
_publ_section_title
;
Structure prediction by ZEFSAII (Michael W. Deem and Ramdas Pophale) SiO2 
 PCOD9486732
Probable space group: C M M M
;
_chemical_formula_sum "Si O2"
_cell_formula_units_Z 96
_cell_length_a 8.687567
_cell_length_b 19.466575
_cell_length_c 31.774410
_cell_angle_alpha 90.000000
_cell_angle_beta 90.000000
_cell_angle_gamma 90.000000
_cell_volume 5373.598443
_symmetry_space_group_name_H-M "C M M M"
_symmetry_group_IT_number 65
_symmetry_cell_setting 'orthorhombic'
loop_
_space_group_symop_operation_xyz
x,y,z
-x,-y,z
x,-y,-z
-x,y,-z
-x,-y,-z
x,y,-z
-x,y,z
x,-y,z
1/2+x,1/2+y,z
1/2-x,1/2-y,z
1/2+x,1/2-y,-z
1/2-x,1/2+y,-z
1/2-x,1/2-y,-z
1/2+x,1/2+y,-z
1/2-x,1/2+y,z
1/2+x,1/2-y,z
loop_
_atom_site_type_symbol
_atom_site_label
_atom_site_fract_x
_atom_site_fract_y
_atom_site_fract_z
Si Si1 0.182244 0.418602 0.365492
Si Si2 0.187783 0.421428 0.875752
Si Si3 0.185925 0.674607 0.048093
Si Si4 0.682832 0.674246 0.292719
Si Si5 0.814886 0.326250 0.202111
Si Si6 0.180997 0.083238 0.453789
O O1 0.218770 0.500000 0.362522
O O2 0.269760 0.376740 0.329792
O O3 0.229737 0.394144 0.412274
O O4 0.000000 0.410397 0.359807
O O5 0.240898 0.500000 0.874771
O O6 0.237114 0.380828 0.917608
O O7 0.233211 0.378250 0.834623
O O8 0.000000 0.422529 0.876124
O O9 0.250000 0.750000 0.058445
O O10 0.000000 0.677669 0.049215
O O11 0.232006 0.657995 0.000000
O O12 0.500000 0.678873 0.288814
O O13 0.750000 0.750000 0.301555
O O14 0.753516 0.652050 0.247868
O O15 0.750000 0.250000 0.193696
O O16 0.000000 0.322874 0.203279
O O17 0.235066 0.107519 0.500000
O O18 0.000000 0.099942 0.449666
O O19 0.192085 0.000000 0.454536
#
# Coordination Sequence:
#
# PCOD9486732 Si02
#       6
#    16  16  16  16  16  16
#     4  10  20  33  51  77 107 137 171 211 255 303
#     4   9  18  31  48  73 102 130 162 203 250 295
#     4   9  17  30  50  74  99 130 168 207 245 289
#     4  11  22  37  56  76 101 132 169 211 256 308
#     4  10  19  33  53  73  95 126 164 204 247 297
#     4   8  14  26  45  70 101 136 173 212 253 297
#
# _framework density 17.865123000000001
#
# number of rings (size 3 to 8) (size 9 to 14) (size 15 to 20)
#    0.000    2.500    0.000    4.500    0.000    2.333 
#    0.000    5.833    0.000    4.500    0.000    2.333 
#    0.000    0.000    0.000    0.000    0.000    0.000 
#
# Total GULP energy -267718.004289 kJ/mol
# GULP energy per Si atom -5577.458423 kJ/mol
# Density = 1.782446 g / cm^3
# Si number density = 17.865123 Si / 1000 Ang^3
#
#
#
# Elastic Constant Matrix: (Units=GPa)
#
#
# Indices 1 2 3 4 5 6 
#
# 1 53.4273 33.4296 47.0646 0.0000 0.0000 0.0000
# 2 33.4296 74.8827 87.3651 0.0000 0.0000 0.0000
# 3 47.0646 87.3651 148.6871 0.0000 0.0000 0.0000
# 4 0.0000 0.0000 0.0000 29.4325 0.0000 0.0000
# 5 0.0000 0.0000 0.0000 0.0000 23.6292 0.0000
# 6 0.0000 0.0000 0.0000 0.0000 0.0000 22.4385
#
#
#
# Elastic Compliance Matrix: (Units=1/GPa)
#
#
# Indices 1 2 3 4 5 6 
#
# 1 0.026945 -0.006608 -0.004646 0.000000 0.000000 0.000000
# 2 -0.006608 0.044085 -0.023812 0.000000 0.000000 0.000000
# 3 -0.004646 -0.023812 0.022187 0.000000 0.000000 0.000000
# 4 0.000000 0.000000 0.000000 0.033976 0.000000 0.000000
# 5 0.000000 0.000000 0.000000 0.000000 0.042320 0.000000
# 6 0.000000 0.000000 0.000000 0.000000 0.000000 0.044566
#
#
# Mechanical properties :
#
#
# Convention : Reuss Voigt Hill
#
# Bulk Modulus (GPa) = 43.31788 68.07952 55.69870
# Shear Modulus (GPa) = 17.12873 22.37590 19.75232
#
# Velocity S-wave (km/s) = 3.09978 3.54289 3.32872
# Velocity P-wave (km/s) = 6.09190 7.41123 6.78372
#
# Compressibility (1/GPa) = 0.02308516
#
# Stress axis : x y z
#
# Youngs Moduli (GPa) = 37.11321 22.68328 45.07063
#
# Poissons Ratio (x) = 0.14990 0.20940
# Poissons Ratio (y) = 0.24526 1.07321
# Poissons Ratio (z) = 0.17243 0.54013
#
# Static dielectric constant tensor:
#      x y z
#    x 1.606570 0.000000 0.000000 
#    y 0.000000 1.587330 0.000000 
#    z 0.000000 0.000000 1.619600 
# 
# From -- ./inp_files/73198.got.cif
#   From: 2010.05.17/outbox.cif.g08.bks.cpg/sg65_37_cif.got.tgz:73198.got - 2010.06.03 17:01:31.
