data_PCOD9486720
_publ_section_title
;
Structure prediction by ZEFSAII (Michael W. Deem and Ramdas Pophale) SiO2 
 PCOD9486720
Probable space group: C M M M
;
_chemical_formula_sum "Si O2"
_cell_formula_units_Z 58
_cell_length_a 15.013834
_cell_length_b 29.710597
_cell_length_c 7.582318
_cell_angle_alpha 90.000000
_cell_angle_beta 90.000000
_cell_angle_gamma 90.000000
_cell_volume 3382.244373
_symmetry_space_group_name_H-M "C M M M"
_symmetry_group_IT_number 65
_symmetry_cell_setting 'orthorhombic'
loop_
_space_group_symop_operation_xyz
x,y,z
-x,-y,z
x,-y,-z
-x,y,-z
-x,-y,-z
x,y,-z
-x,y,z
x,-y,z
1/2+x,1/2+y,z
1/2-x,1/2-y,z
1/2+x,1/2-y,-z
1/2-x,1/2+y,-z
1/2-x,1/2-y,-z
1/2+x,1/2+y,-z
1/2-x,1/2+y,z
1/2+x,1/2-y,z
loop_
_atom_site_type_symbol
_atom_site_label
_atom_site_fract_x
_atom_site_fract_y
_atom_site_fract_z
Si Si1 0.195267 0.205400 0.714639
Si Si2 0.184294 0.620750 0.795894
Si Si3 0.000000 0.500000 0.500000
Si Si4 0.000000 0.772635 0.294106
Si Si5 0.814548 0.549566 0.500000
Si Si6 0.500000 0.832214 0.787154
O O1 0.195764 0.204660 0.500000
O O2 0.250000 0.250000 0.768523
O O3 0.244749 0.160910 0.778933
O O4 0.093678 0.209807 0.778899
O O5 0.207200 0.579277 0.670535
O O6 0.089612 0.641823 0.735693
O O7 0.175810 0.607074 0.000000
O O8 0.079831 0.461705 0.500000
O O9 0.000000 0.785070 0.500000
O O10 0.000000 0.718521 0.282149
O O11 0.771033 0.500000 0.500000
O O12 0.500000 0.829130 0.000000
#
# Coordination Sequence:
#
# PCOD9486720 Si02
#       6
#    16  16   2   8   8   8
#     4  10  19  33  52  80 113 153 192 228 270 324
#     4  11  22  36  57  81 112 152 190 227 273 331
#     4   8  20  40  62  84 108 156 168 236 286 336
#     4  10  20  31  51  79 113 155 191 230 267 312
#     4  10  22  40  57  80 109 142 185 227 285 332
#     4  10  21  31  46  78 115 149 187 229 265 318
#
# _framework density 17.148377
#
# number of rings (size 3 to 8) (size 9 to 14) (size 15 to 20)
#    0.414    1.379    4.138    0.828    1.931    2.207 
#    0.000    0.690    0.000    0.000    0.000    1.931 
#    0.000    2.207    0.000    0.000    0.000    0.000 
#
# Total GULP energy -161558.455154 kJ/mol
# GULP energy per Si atom -5570.981212 kJ/mol
# Density = 1.710935 g / cm^3
# Si number density = 17.148377 Si / 1000 Ang^3
#
#
#
# Elastic Constant Matrix: (Units=GPa)
#
#
# Indices 1 2 3 4 5 6 
#
# 1 111.5528 50.8228 23.9738 0.0000 0.0000 0.0000
# 2 50.8228 133.4064 41.7903 0.0000 0.0000 0.0000
# 3 23.9738 41.7903 66.6633 0.0000 0.0000 0.0000
# 4 0.0000 0.0000 0.0000 -14.4685 0.0000 0.0000
# 5 0.0000 0.0000 0.0000 0.0000 3.7545 0.0000
# 6 0.0000 0.0000 0.0000 0.0000 0.0000 27.0138
#
#
#
# Elastic Compliance Matrix: (Units=1/GPa)
#
#
# Indices 1 2 3 4 5 6 
#
# 1 0.010991 -0.003670 -0.001652 0.000000 0.000000 0.000000
# 2 -0.003670 0.010553 -0.005296 0.000000 0.000000 0.000000
# 3 -0.001652 -0.005296 0.018915 0.000000 0.000000 0.000000
# 4 0.000000 0.000000 0.000000 -0.069116 0.000000 0.000000
# 5 0.000000 0.000000 0.000000 0.000000 0.266347 0.000000
# 6 0.000000 0.000000 0.000000 0.000000 0.000000 0.037018
#
#
# Mechanical properties :
#
#
# Convention : Reuss Voigt Hill
#
# Bulk Modulus (GPa) = 52.01948 60.53292 56.27620
# Shear Modulus (GPa) = 16.53703 16.26233 16.39968
#
# Velocity S-wave (km/s) = 3.10877 3.08284 3.09583
# Velocity P-wave (km/s) = 6.57926 6.93167 6.75776
#
# Compressibility (1/GPa) = 0.01922357
#
# Stress axis : x y z
#
# Youngs Moduli (GPa) = 90.98062 94.76133 52.86878
#
# Poissons Ratio (x) = 0.34775 0.08735
# Poissons Ratio (y) = 0.33387 0.27998
# Poissons Ratio (z) = 0.15032 0.50183
#
# Static dielectric constant tensor:
#      x y z
#    x 1.586570 0.000000 0.000000 
#    y 0.000000 1.546460 0.000000 
#    z 0.000000 0.000000 1.611550 
# 
# From -- ./inp_files/7052.got.cif
#   From: 2010.05.17/outbox.cif.g08.bks.cpg/sg65_4_cif.got.tgz:7052.got - 2010.06.03 17:01:31.
