data_PCOD9486259
_publ_section_title
;
Structure prediction by ZEFSAII (Michael W. Deem and Ramdas Pophale) SiO2 
 PCOD9486259
Probable space group: C M M M
;
_chemical_formula_sum "Si O2"
_cell_formula_units_Z 104
_cell_length_a 8.347825
_cell_length_b 20.290496
_cell_length_c 34.477160
_cell_angle_alpha 90.000000
_cell_angle_beta 90.000000
_cell_angle_gamma 90.000000
_cell_volume 5839.793413
_symmetry_space_group_name_H-M "C M M M"
_symmetry_group_IT_number 65
_symmetry_cell_setting 'orthorhombic'
loop_
_space_group_symop_operation_xyz
x,y,z
-x,-y,z
x,-y,-z
-x,y,-z
-x,-y,-z
x,y,-z
-x,y,z
x,-y,z
1/2+x,1/2+y,z
1/2-x,1/2-y,z
1/2+x,1/2-y,-z
1/2-x,1/2+y,-z
1/2-x,1/2-y,-z
1/2+x,1/2+y,-z
1/2-x,1/2+y,z
1/2+x,1/2-y,z
loop_
_atom_site_type_symbol
_atom_site_label
_atom_site_fract_x
_atom_site_fract_y
_atom_site_fract_z
Si Si1 0.308470 0.324395 0.609717
Si Si2 0.695476 0.424330 0.456080
Si Si3 0.689617 0.823995 0.304813
Si Si4 0.195439 0.924466 0.151594
Si Si5 0.693484 0.424074 0.239867
Si Si6 0.305845 0.325569 0.084941
Si Si7 0.693026 0.325606 0.000000
O O1 0.500000 0.324206 0.608467
O O2 0.250000 0.250000 0.602936
O O3 0.247795 0.374220 0.576769
O O4 0.257164 0.344005 0.653088
O O5 0.744712 0.406491 0.500000
O O6 0.500000 0.423520 0.455647
O O7 0.743919 0.500000 0.448591
O O8 0.500000 0.821660 0.307782
O O9 0.750000 0.750000 0.296435
O O10 0.740890 0.874087 0.271434
O O11 0.244031 0.907849 0.195684
O O12 0.251190 0.872675 0.119482
O O13 0.000000 0.923902 0.151144
O O14 0.244111 0.000000 0.143348
O O15 0.500000 0.421580 0.240917
O O16 0.740862 0.500000 0.247663
O O17 0.500000 0.325215 0.085549
O O18 0.250000 0.250000 0.089475
O O19 0.254071 0.351506 0.042145
O O20 0.750000 0.250000 0.000000
O O21 0.500000 0.327903 0.000000
#
# Coordination Sequence:
#
# PCOD9486259 Si02
#       7
#    16  16  16  16  16  16   8
#     4  10  19  32  51  74 100 130 162 197 240 288
#     4   8  15  29  49  73  99 127 162 201 236 274
#     4  11  22  36  53  73 100 130 162 203 247 290
#     4   8  15  29  48  68  92 122 153 188 231 279
#     4   9  18  34  54  73  95 126 162 197 239 293
#     4   9  16  27  44  66  91 119 154 191 229 273
#     4   8  14  24  39  61  89 119 149 186 228 270
#
# _framework density 17.808848999999999
#
# number of rings (size 3 to 8) (size 9 to 14) (size 15 to 20)
#    0.000    2.923    0.000    4.154    0.000    1.846 
#    0.000    4.231    0.000    6.462    0.000    4.308 
#    0.000    6.154    0.000    0.000    0.000    0.000 
#
# Total GULP energy -289747.430705 kJ/mol
# GULP energy per Si atom -5572.065975 kJ/mol
# Density = 1.776831 g / cm^3
# Si number density = 17.808849 Si / 1000 Ang^3
#
#
#
# Elastic Constant Matrix: (Units=GPa)
#
#
# Indices 1 2 3 4 5 6 
#
# 1 26.4298 17.8771 25.8013 0.0000 0.0000 0.0000
# 2 17.8771 99.9904 123.3525 0.0000 0.0000 0.0000
# 3 25.8013 123.3525 192.4566 0.0000 0.0000 0.0000
# 4 0.0000 0.0000 0.0000 -21.8712 0.0000 0.0000
# 5 0.0000 0.0000 0.0000 0.0000 13.8851 0.0000
# 6 0.0000 0.0000 0.0000 0.0000 0.0000 20.7504
#
#
#
# Elastic Compliance Matrix: (Units=1/GPa)
#
#
# Indices 1 2 3 4 5 6 
#
# 1 0.043697 -0.002798 -0.004065 0.000000 0.000000 0.000000
# 2 -0.002798 0.047959 -0.030364 0.000000 0.000000 0.000000
# 3 -0.004065 -0.030364 0.025202 0.000000 0.000000 0.000000
# 4 0.000000 0.000000 0.000000 -0.045722 0.000000 0.000000
# 5 0.000000 0.000000 0.000000 0.000000 0.072019 0.000000
# 6 0.000000 0.000000 0.000000 0.000000 0.000000 0.048192
#
#
# Mechanical properties :
#
#
# Convention : Reuss Voigt Hill
#
# Bulk Modulus (GPa) = 23.58203 72.54874 48.06539
# Shear Modulus (GPa) = 17.86132 12.67592 15.26862
#
# Velocity S-wave (km/s) = 3.17037 2.67081 2.93125
# Velocity P-wave (km/s) = 5.16451 7.09485 6.20520
#
# Compressibility (1/GPa) = 0.04240516
#
# Stress axis : x y z
#
# Youngs Moduli (GPa) = 22.88502 20.85116 39.67933
#
# Poissons Ratio (x) = 0.05834 0.16129
# Poissons Ratio (y) = 0.06403 1.20481
# Poissons Ratio (z) = 0.09302 0.63312
#
# Static dielectric constant tensor:
#      x y z
#    x 1.622340 0.000000 0.000000 
#    y 0.000000 1.581670 0.000000 
#    z 0.000000 0.000000 1.627230 
# 
# From -- ./inp_files/76876.got.cif
#   From: 2010.05.17/outbox.cif.g08.bks.cpg/sg65_39_cif.got.tgz:76876.got - 2010.06.03 17:01:31.
