data_PCOD9486758
_publ_section_title
;
Structure prediction by ZEFSAII (Michael W. Deem and Ramdas Pophale) SiO2 
 PCOD9486758
Probable space group: C M M M
;
_chemical_formula_sum "Si O2"
_cell_formula_units_Z 88
_cell_length_a 19.670947
_cell_length_b 8.728569
_cell_length_c 29.760687
_cell_angle_alpha 90.000000
_cell_angle_beta 90.000000
_cell_angle_gamma 90.000000
_cell_volume 5109.886691
_symmetry_space_group_name_H-M "C M M M"
_symmetry_group_IT_number 65
_symmetry_cell_setting 'orthorhombic'
loop_
_space_group_symop_operation_xyz
x,y,z
-x,-y,z
x,-y,-z
-x,y,-z
-x,-y,-z
x,y,-z
-x,y,z
x,-y,z
1/2+x,1/2+y,z
1/2-x,1/2-y,z
1/2+x,1/2-y,-z
1/2-x,1/2+y,-z
1/2-x,1/2-y,-z
1/2+x,1/2+y,-z
1/2-x,1/2+y,z
1/2+x,1/2-y,z
loop_
_atom_site_type_symbol
_atom_site_label
_atom_site_fract_x
_atom_site_fract_y
_atom_site_fract_z
Si Si1 0.578393 0.312754 0.631405
Si Si2 0.582578 0.323030 0.730047
Si Si3 0.825341 0.185062 0.449386
Si Si4 0.579137 0.817584 0.175716
Si Si5 0.826114 0.815685 0.000000
Si Si6 0.173611 0.183882 0.901548
O O1 0.500000 0.264658 0.625610
O O2 0.578225 0.500000 0.632395
O O3 0.604300 0.264500 0.680873
O O4 0.624584 0.262637 0.590014
O O5 0.500000 0.321803 0.728000
O O6 0.603841 0.500000 0.735399
O O7 0.602299 0.230683 0.774255
O O8 0.847834 0.228448 0.500000
O O9 0.750000 0.250000 0.442662
O O10 0.822558 0.000000 0.447842
O O11 0.500000 0.768329 0.170770
O O12 0.625815 0.743589 0.137837
O O13 0.581680 0.000000 0.171728
O O14 0.750000 0.750000 0.000000
O O15 0.854783 0.770036 0.951241
O O16 0.823436 0.000000 0.000000
O O17 0.250000 0.250000 0.897258
O O18 0.177437 0.000000 0.899723
#
# Coordination Sequence:
#
# PCOD9486758 Si02
#       6
#    16  16  16  16   8  16
#     4   8  14  26  46  70  90 111 149 197 234 266
#     4   8  14  27  47  67  88 118 154 191 234 281
#     4   9  17  29  45  65  91 122 151 181 223 275
#     4  10  20  33  49  71  99 129 162 198 236 281
#     4   8  16  30  49  72  95 123 157 193 233 280
#     4  10  19  33  53  75  99 126 159 197 238 283
#
# _framework density 17.221518
#
# number of rings (size 3 to 8) (size 9 to 14) (size 15 to 20)
#    0.000    3.091    0.000    2.182    0.000    2.182 
#    0.000    4.091    0.000    6.545    0.000    2.545 
#    0.000    0.000    0.000    0.000    0.000    0.000 
#
# Total GULP energy -244948.792072 kJ/mol
# GULP energy per Si atom -5567.018002 kJ/mol
# Density = 1.718232 g / cm^3
# Si number density = 17.221518 Si / 1000 Ang^3
#
#
#
# Elastic Constant Matrix: (Units=GPa)
#
#
# Indices 1 2 3 4 5 6 
#
# 1 54.8344 20.8559 81.9295 0.0000 0.0000 0.0000
# 2 20.8559 23.0655 40.3059 0.0000 0.0000 0.0000
# 3 81.9295 40.3059 209.8681 0.0000 0.0000 0.0000
# 4 0.0000 0.0000 0.0000 14.9523 0.0000 0.0000
# 5 0.0000 0.0000 0.0000 0.0000 43.1966 0.0000
# 6 0.0000 0.0000 0.0000 0.0000 0.0000 19.7475
#
#
#
# Elastic Compliance Matrix: (Units=1/GPa)
#
#
# Indices 1 2 3 4 5 6 
#
# 1 0.047306 -0.015808 -0.015432 0.000000 0.000000 0.000000
# 2 -0.015808 0.070537 -0.007376 0.000000 0.000000 0.000000
# 3 -0.015432 -0.007376 0.012206 0.000000 0.000000 0.000000
# 4 0.000000 0.000000 0.000000 0.066879 0.000000 0.000000
# 5 0.000000 0.000000 0.000000 0.000000 0.023150 0.000000
# 6 0.000000 0.000000 0.000000 0.000000 0.000000 0.050639
#
#
# Mechanical properties :
#
#
# Convention : Reuss Voigt Hill
#
# Bulk Modulus (GPa) = 18.93295 63.77231 41.35263
# Shear Modulus (GPa) = 13.67785 25.22439 19.45112
#
# Velocity S-wave (km/s) = 2.82127 3.83129 3.36440
# Velocity P-wave (km/s) = 4.65085 7.52879 6.25752
#
# Compressibility (1/GPa) = 0.05281798
#
# Stress axis : x y z
#
# Youngs Moduli (GPa) = 21.13898 14.17689 81.92925
#
# Poissons Ratio (x) = 0.22411 1.26429
# Poissons Ratio (y) = 0.33417 0.60428
# Poissons Ratio (z) = 0.32621 0.10456
#
# Static dielectric constant tensor:
#      x y z
#    x 1.552460 0.000000 0.000000 
#    y 0.000000 1.579870 0.000000 
#    z 0.000000 0.000000 1.622910 
# 
# From -- ./inp_files/77826.got.cif
#   From: 2010.05.17/outbox.cif.g08.bks.cpg/sg65_39_cif.got.tgz:77826.got - 2010.06.03 17:01:31.
