data_PCOD9486533
_publ_section_title
;
Structure prediction by ZEFSAII (Michael W. Deem and Ramdas Pophale) SiO2 
 PCOD9486533
Probable space group: C M M M
;
_chemical_formula_sum "Si O2"
_cell_formula_units_Z 100
_cell_length_a 32.928836
_cell_length_b 7.625245
_cell_length_c 19.854549
_cell_angle_alpha 90.000000
_cell_angle_beta 90.000000
_cell_angle_gamma 90.000000
_cell_volume 4985.287485
_symmetry_space_group_name_H-M "C M M M"
_symmetry_group_IT_number 65
_symmetry_cell_setting 'orthorhombic'
loop_
_space_group_symop_operation_xyz
x,y,z
-x,-y,z
x,-y,-z
-x,y,-z
-x,-y,-z
x,y,-z
-x,y,z
x,-y,z
1/2+x,1/2+y,z
1/2-x,1/2-y,z
1/2+x,1/2-y,-z
1/2-x,1/2+y,-z
1/2-x,1/2-y,-z
1/2+x,1/2+y,-z
1/2-x,1/2+y,z
1/2+x,1/2-y,z
loop_
_atom_site_type_symbol
_atom_site_label
_atom_site_fract_x
_atom_site_fract_y
_atom_site_fract_z
Si Si1 0.929746 0.704174 0.299049
Si Si2 0.500000 0.500000 0.285643
Si Si3 0.876000 0.786691 0.577227
Si Si4 0.206059 0.794544 0.804288
Si Si5 0.618398 0.791787 0.830819
Si Si6 0.044737 0.286020 0.078461
Si Si7 0.205029 0.789567 0.651695
O O1 0.941663 0.500000 0.286034
O O2 0.964830 0.844490 0.288278
O O3 0.910945 0.719744 0.373243
O O4 0.894249 0.752332 0.245507
O O5 0.880903 0.732425 0.500000
O O6 0.832634 0.727034 0.607290
O O7 0.877150 0.000000 0.579139
O O8 0.250000 0.750000 0.834296
O O9 0.165002 0.753676 0.843926
O O10 0.203403 0.715986 0.728404
O O11 0.206326 0.000000 0.795039
O O12 0.582842 0.720018 0.878900
O O13 0.616082 0.000000 0.837108
O O14 0.044612 0.500000 0.080681
O O15 0.000000 0.228846 0.103879
O O16 0.048058 0.237069 0.000000
O O17 0.250000 0.750000 0.624750
O O18 0.201298 0.000000 0.654460
#
# Coordination Sequence:
#
# PCOD9486533 Si02
#       7
#    16   4  16  16  16  16  16
#     4  11  24  41  63  91 116 150 199 244 299 356
#     4  12  26  44  65  84 125 148 190 258 304 354
#     4  10  20  38  60  81 114 156 195 242 299 357
#     4  10  19  32  53  79 113 151 190 235 291 343
#     4  10  20  33  56  88 120 150 195 243 282 348
#     4   8  15  30  53  83 120 157 189 230 288 348
#     4   9  18  31  50  77 111 147 189 234 289 353
#
# _framework density 20.059023
#
# number of rings (size 3 to 8) (size 9 to 14) (size 15 to 20)
#    0.000    2.240    2.400    1.200    2.240    1.920 
#    0.000    0.800    0.000    1.920    0.000    1.680 
#    0.000    0.000    0.000    0.000    0.000    0.000 
#
# Total GULP energy -278415.978506 kJ/mol
# GULP energy per Si atom -5568.319570 kJ/mol
# Density = 2.001337 g / cm^3
# Si number density = 20.059023 Si / 1000 Ang^3
#
#
#
# Elastic Constant Matrix: (Units=GPa)
#
#
# Indices 1 2 3 4 5 6 
#
# 1 179.2265 29.1187 43.2551 0.0000 0.0000 0.0000
# 2 29.1187 69.0808 2.3394 0.0000 0.0000 0.0000
# 3 43.2551 2.3394 50.8557 0.0000 0.0000 0.0000
# 4 0.0000 0.0000 0.0000 -1.7620 0.0000 0.0000
# 5 0.0000 0.0000 0.0000 0.0000 89.6349 0.0000
# 6 0.0000 0.0000 0.0000 0.0000 0.0000 34.7305
#
#
#
# Elastic Compliance Matrix: (Units=1/GPa)
#
#
# Indices 1 2 3 4 5 6 
#
# 1 0.007589 -0.002985 -0.006318 0.000000 0.000000 0.000000
# 2 -0.002985 0.015672 0.001818 0.000000 0.000000 0.000000
# 3 -0.006318 0.001818 0.024953 0.000000 0.000000 0.000000
# 4 0.000000 0.000000 0.000000 -0.567539 0.000000 0.000000
# 5 0.000000 0.000000 0.000000 0.000000 0.011156 0.000000
# 6 0.000000 0.000000 0.000000 0.000000 0.000000 0.028793
#
#
# Mechanical properties :
#
#
# Convention : Reuss Voigt Hill
#
# Bulk Modulus (GPa) = 30.07922 49.84326 39.96124
# Shear Modulus (GPa) = -11.02966 39.48400 14.22717
#
# Velocity S-wave (km/s) = -2.34745 4.44147 2.66609
# Velocity P-wave (km/s) = 2.77138 7.15573 5.42609
#
# Compressibility (1/GPa) = 0.03324554
#
# Stress axis : x y z
#
# Youngs Moduli (GPa) = 131.76557 63.80608 40.07478
#
# Poissons Ratio (x) = 0.19046 0.25318
# Poissons Ratio (y) = 0.39332 -0.07285
# Poissons Ratio (z) = 0.83245 -0.11600
#
# Static dielectric constant tensor:
#      x y z
#    x 1.678060 0.000000 0.000000 
#    y 0.000000 1.741180 0.000000 
#    z 0.000000 0.000000 1.711730 
# 
# From -- ./inp_files/66342.got.cif
#   From: 2010.05.17/outbox.cif.g08.bks.cpg/sg65_34_cif.got.tgz:66342.got - 2010.06.03 17:01:31.
