data_PCOD9486831
_publ_section_title
;
Structure prediction by ZEFSAII (Michael W. Deem and Ramdas Pophale) SiO2 
 PCOD9486831
Probable space group: C M M M
;
_chemical_formula_sum "Si O2"
_cell_formula_units_Z 88
_cell_length_a 19.242418
_cell_length_b 29.407555
_cell_length_c 7.417264
_cell_angle_alpha 90.000000
_cell_angle_beta 90.000000
_cell_angle_gamma 90.000000
_cell_volume 4197.225468
_symmetry_space_group_name_H-M "C M M M"
_symmetry_group_IT_number 65
_symmetry_cell_setting 'orthorhombic'
loop_
_space_group_symop_operation_xyz
x,y,z
-x,-y,z
x,-y,-z
-x,y,-z
-x,-y,-z
x,y,-z
-x,y,z
x,-y,z
1/2+x,1/2+y,z
1/2-x,1/2-y,z
1/2+x,1/2-y,-z
1/2-x,1/2+y,-z
1/2-x,1/2-y,-z
1/2+x,1/2+y,-z
1/2-x,1/2+y,z
1/2+x,1/2-y,z
loop_
_atom_site_type_symbol
_atom_site_label
_atom_site_fract_x
_atom_site_fract_y
_atom_site_fract_z
Si Si1 0.287965 0.682129 0.779815
Si Si2 0.856496 0.724249 0.219484
Si Si3 0.854658 0.090014 0.791224
Si Si4 0.226642 0.000000 0.292997
Si Si5 0.500000 0.447276 0.221501
Si Si6 0.000000 0.426060 0.219627
Si Si7 0.111285 0.500000 0.217857
Si Si8 0.500000 0.821181 0.779264
O O1 0.209329 0.693686 0.723545
O O2 0.337254 0.724288 0.727017
O O3 0.316538 0.634058 0.714039
O O4 0.285991 0.681748 0.000000
O O5 0.930056 0.704510 0.279342
O O6 0.857641 0.723907 0.000000
O O7 0.929667 0.076737 0.715292
O O8 0.806125 0.045651 0.787101
O O9 0.867815 0.101375 0.000000
O O10 0.309608 0.000000 0.278148
O O11 0.205667 0.000000 0.500000
O O12 0.500000 0.500000 0.275225
O O13 0.500000 0.447458 0.000000
O O14 0.932799 0.455644 0.274831
O O15 0.000000 0.373946 0.278323
O O16 0.000000 0.425710 0.000000
O O17 0.111996 0.500000 0.000000
O O18 0.500000 0.821327 0.000000
#
# Coordination Sequence:
#
# PCOD9486831 Si02
#       8
#    16  16  16   8   8   8   8   8
#     4   8  15  26  42  65  94 131 163 192 240 297
#     4   8  14  24  36  62 102 129 154 196 244 290
#     4  10  19  33  54  73  95 132 170 204 247 303
#     4  12  25  36  48  74 104 130 167 214 258 306
#     4   9  16  29  47  71  96 117 156 207 246 287
#     4   8  16  29  47  76 104 134 171 208 246 294
#     4   9  18  34  53  73 103 134 172 213 246 294
#     4   9  15  21  37  65 104 138 157 192 249 298
#
# _framework density 20.966229999999999
#
# number of rings (size 3 to 8) (size 9 to 14) (size 15 to 20)
#    0.000    3.000    0.909    2.455    2.545    0.727 
#    0.000    5.455    0.000    0.000    0.000    2.545 
#    0.000    0.000    0.000    0.000    0.000    0.000 
#
# Total GULP energy -245582.618688 kJ/mol
# GULP energy per Si atom -5581.423152 kJ/mol
# Density = 2.091851 g / cm^3
# Si number density = 20.966230 Si / 1000 Ang^3
#
#
#
# Elastic Constant Matrix: (Units=GPa)
#
#
# Indices 1 2 3 4 5 6 
#
# 1 209.1688 133.4640 -4.8141 0.0000 0.0000 0.0000
# 2 133.4640 199.8031 -2.2469 0.0000 0.0000 0.0000
# 3 -4.8141 -2.2469 65.7218 0.0000 0.0000 0.0000
# 4 0.0000 0.0000 0.0000 -26.2259 0.0000 0.0000
# 5 0.0000 0.0000 0.0000 0.0000 23.6522 0.0000
# 6 0.0000 0.0000 0.0000 0.0000 0.0000 -4.1327
#
#
#
# Elastic Compliance Matrix: (Units=1/GPa)
#
#
# Indices 1 2 3 4 5 6 
#
# 1 0.008344 -0.005569 0.000421 0.000000 0.000000 0.000000
# 2 -0.005569 0.008723 -0.000110 0.000000 0.000000 0.000000
# 3 0.000421 -0.000110 0.015243 0.000000 0.000000 0.000000
# 4 0.000000 0.000000 0.000000 -0.038130 0.000000 0.000000
# 5 0.000000 0.000000 0.000000 0.000000 0.042279 0.000000
# 6 0.000000 0.000000 0.000000 0.000000 0.000000 -0.241973
#
#
# Mechanical properties :
#
#
# Convention : Reuss Voigt Hill
#
# Bulk Modulus (GPa) = 45.88258 80.83329 63.35794
# Shear Modulus (GPa) = -26.63349 21.87810 -2.37769
#
# Velocity S-wave (km/s) = -3.56800 3.23382 -1.06608
# Velocity P-wave (km/s) = 2.22652 7.25129 5.36370
#
# Compressibility (1/GPa) = 0.02179476
#
# Stress axis : x y z
#
# Youngs Moduli (GPa) = 119.85073 114.63354 65.60512
#
# Poissons Ratio (x) = 0.63836 -0.02761
# Poissons Ratio (y) = 0.66741 0.00719
# Poissons Ratio (z) = -0.05043 0.01257
#
# Static dielectric constant tensor:
#      x y z
#    x 1.716410 0.000000 0.000000 
#    y 0.000000 1.724220 0.000000 
#    z 0.000000 0.000000 1.783800 
# 
# From -- ./inp_files/10242.got.cif
#   From: 2010.05.17/outbox.cif.g08.bks.cpg/sg65_6_cif.got.tgz:10242.got - 2010.06.03 17:01:31.
