data_PCOD9486268
_publ_section_title
;
Structure prediction by ZEFSAII (Michael W. Deem and Ramdas Pophale) SiO2 
 PCOD9486268
Probable space group: C M M M
;
_chemical_formula_sum "Si O2"
_cell_formula_units_Z 104
_cell_length_a 25.796131
_cell_length_b 7.632542
_cell_length_c 23.996133
_cell_angle_alpha 90.000000
_cell_angle_beta 90.000000
_cell_angle_gamma 90.000000
_cell_volume 4724.599905
_symmetry_space_group_name_H-M "C M M M"
_symmetry_group_IT_number 65
_symmetry_cell_setting 'orthorhombic'
loop_
_space_group_symop_operation_xyz
x,y,z
-x,-y,z
x,-y,-z
-x,y,-z
-x,-y,-z
x,y,-z
-x,y,z
x,-y,z
1/2+x,1/2+y,z
1/2-x,1/2-y,z
1/2+x,1/2-y,-z
1/2-x,1/2+y,-z
1/2-x,1/2-y,-z
1/2+x,1/2+y,-z
1/2-x,1/2+y,z
1/2+x,1/2-y,z
loop_
_atom_site_type_symbol
_atom_site_label
_atom_site_fract_x
_atom_site_fract_y
_atom_site_fract_z
Si Si1 0.112353 0.783720 0.181360
Si Si2 0.000000 0.287464 0.650627
Si Si3 0.884762 0.201007 0.062511
Si Si4 0.307671 0.708723 0.598925
Si Si5 0.000000 0.696240 0.933937
Si Si6 0.080753 0.705629 0.439816
Si Si7 0.192384 0.209577 0.274006
Si Si8 0.000000 0.794719 0.219663
O O1 0.134382 0.722452 0.121227
O O2 0.148877 0.726085 0.231917
O O3 0.053815 0.723561 0.195008
O O4 0.112515 0.000000 0.180227
O O5 0.950416 0.227318 0.613956
O O6 0.000000 0.221138 0.713543
O O7 0.000000 0.500000 0.655185
O O8 0.946569 0.204160 0.075279
O O9 0.867357 0.000000 0.059105
O O10 0.876702 0.278472 0.000000
O O11 0.312432 0.500000 0.599591
O O12 0.250000 0.750000 0.577345
O O13 0.357683 0.777692 0.567223
O O14 0.311030 0.778062 0.662686
O O15 0.000000 0.500000 0.909526
O O16 0.000000 0.674079 0.000000
O O17 0.065604 0.782074 0.500000
O O18 0.067806 0.500000 0.441604
O O19 0.250000 0.250000 0.253090
O O20 0.186835 0.000000 0.277556
O O21 0.000000 0.000000 0.205384
#
# Coordination Sequence:
#
# PCOD9486268 Si02
#       8
#    16   8  16  16   8  16  16   8
#     4   9  17  30  49  73 100 127 159 203 251 294
#     4  10  21  37  55  75 103 137 172 210 248 288
#     4   9  16  27  45  66  88 121 164 202 236 283
#     4  10  20  35  56  80 104 131 165 208 257 304
#     4   9  16  25  37  56  86 121 152 186 231 279
#     4  10  21  37  56  77 103 137 173 206 244 293
#     4   9  18  33  52  73  97 127 163 202 246 294
#     4  10  19  32  51  74 101 132 163 201 253 304
#
# _framework density 22.012447000000002
#
# number of rings (size 3 to 8) (size 9 to 14) (size 15 to 20)
#    0.000    2.538    0.000    2.308    0.000    6.154 
#    0.000    3.077    0.000    1.846    0.000    0.000 
#    0.000    0.000    0.000    0.000    0.000    0.000 
#
# Total GULP energy -289983.650204 kJ/mol
# GULP energy per Si atom -5576.608658 kJ/mol
# Density = 2.196235 g / cm^3
# Si number density = 22.012447 Si / 1000 Ang^3
#
#
#
# Elastic Constant Matrix: (Units=GPa)
#
#
# Indices 1 2 3 4 5 6 
#
# 1 85.1535 -4.9370 39.8849 0.0000 0.0000 0.0000
# 2 -4.9370 49.5077 -2.9130 0.0000 0.0000 0.0000
# 3 39.8849 -2.9130 135.7275 0.0000 0.0000 0.0000
# 4 0.0000 0.0000 0.0000 12.7035 0.0000 0.0000
# 5 0.0000 0.0000 0.0000 0.0000 10.9332 0.0000
# 6 0.0000 0.0000 0.0000 0.0000 0.0000 9.8872
#
#
#
# Elastic Compliance Matrix: (Units=1/GPa)
#
#
# Indices 1 2 3 4 5 6 
#
# 1 0.013681 0.001129 -0.003996 0.000000 0.000000 0.000000
# 2 0.001129 0.020318 0.000104 0.000000 0.000000 0.000000
# 3 -0.003996 0.000104 0.008544 0.000000 0.000000 0.000000
# 4 0.000000 0.000000 0.000000 0.078719 0.000000 0.000000
# 5 0.000000 0.000000 0.000000 0.000000 0.091464 0.000000
# 6 0.000000 0.000000 0.000000 0.000000 0.000000 0.101141
#
#
# Mechanical properties :
#
#
# Convention : Reuss Voigt Hill
#
# Bulk Modulus (GPa) = 27.01440 37.16205 32.08823
# Shear Modulus (GPa) = 15.07246 22.59502 18.83374
#
# Velocity S-wave (km/s) = 2.61956 3.20733 2.92823
# Velocity P-wave (km/s) = 4.63125 5.53488 5.10310
#
# Compressibility (1/GPa) = 0.03701729
#
# Stress axis : x y z
#
# Youngs Moduli (GPa) = 73.09612 49.21837 117.03853
#
# Poissons Ratio (x) = -0.05557 0.46768
# Poissons Ratio (y) = -0.08253 -0.01220
# Poissons Ratio (z) = 0.29209 -0.00513
#
# Static dielectric constant tensor:
#      x y z
#    x 1.819250 0.000000 0.000000 
#    y 0.000000 1.845510 0.000000 
#    z 0.000000 0.000000 1.859930 
# 
# From -- ./inp_files/75861.got.cif
#   From: 2010.05.17/outbox.cif.g08.bks.cpg/sg65_38_cif.got.tgz:75861.got - 2010.06.03 17:01:31.
