data_PCOD9486959
_publ_section_title
;
Structure prediction by ZEFSAII (Michael W. Deem and Ramdas Pophale) SiO2 
 PCOD9486959
Probable space group: C M M M
;
_chemical_formula_sum "Si O2"
_cell_formula_units_Z 80
_cell_length_a 13.350615
_cell_length_b 12.954963
_cell_length_c 22.548699
_cell_angle_alpha 90.000000
_cell_angle_beta 90.000000
_cell_angle_gamma 90.000000
_cell_volume 3899.949095
_symmetry_space_group_name_H-M "C M M M"
_symmetry_group_IT_number 65
_symmetry_cell_setting 'orthorhombic'
loop_
_space_group_symop_operation_xyz
x,y,z
-x,-y,z
x,-y,-z
-x,y,-z
-x,-y,-z
x,y,-z
-x,y,z
x,-y,z
1/2+x,1/2+y,z
1/2-x,1/2-y,z
1/2+x,1/2-y,-z
1/2-x,1/2+y,-z
1/2-x,1/2-y,-z
1/2+x,1/2+y,-z
1/2-x,1/2+y,z
1/2+x,1/2-y,z
loop_
_atom_site_type_symbol
_atom_site_label
_atom_site_fract_x
_atom_site_fract_y
_atom_site_fract_z
Si Si1 0.817947 0.617643 0.693861
Si Si2 0.111364 0.175255 0.745937
Si Si3 0.383056 0.124945 0.564480
Si Si4 0.326451 0.886556 0.070089
Si Si5 0.111231 0.169379 0.885705
O O1 0.855360 0.500000 0.699885
O O2 0.872758 0.702145 0.734601
O O3 0.701791 0.622175 0.711615
O O4 0.830955 0.653378 0.625778
O O5 0.121151 0.150750 0.815538
O O6 0.000000 0.145939 0.726419
O O7 0.345179 0.161529 0.500000
O O8 0.500000 0.154468 0.569069
O O9 0.379553 0.000000 0.562861
O O10 0.206828 0.878196 0.081479
O O11 0.377427 0.792022 0.103430
O O12 0.360590 0.000000 0.088901
O O13 0.344765 0.874391 0.000000
O O14 0.000000 0.136001 0.904938
#
# Coordination Sequence:
#
# PCOD9486959 Si02
#       5
#    16  16  16  16  16
#     4  10  19  33  55  76  99 136 174 210 256 306
#     4  10  22  36  50  76 108 134 170 216 255 300
#     4   8  14  26  47  76 105 132 168 213 257 303
#     4  10  21  36  55  80 106 131 166 213 258 302
#     4  10  21  37  55  74 103 141 172 205 254 307
#
# _framework density 20.513086999999999
#
# number of rings (size 3 to 8) (size 9 to 14) (size 15 to 20)
#    0.000    2.400    0.000    4.800    0.000    7.200 
#    0.000    8.000    0.000    1.800    0.000    2.800 
#    0.000    0.000    0.000    0.000    0.000    0.000 
#
# Total GULP energy -223227.716538 kJ/mol
# GULP energy per Si atom -5580.692913 kJ/mol
# Density = 2.046640 g / cm^3
# Si number density = 20.513087 Si / 1000 Ang^3
#
#
#
# Elastic Constant Matrix: (Units=GPa)
#
#
# Indices 1 2 3 4 5 6 
#
# 1 74.1862 -17.8446 13.7720 0.0000 0.0000 0.0000
# 2 -17.8446 53.9158 -6.8778 0.0000 0.0000 0.0000
# 3 13.7720 -6.8778 49.4718 0.0000 0.0000 0.0000
# 4 0.0000 0.0000 0.0000 12.9126 0.0000 0.0000
# 5 0.0000 0.0000 0.0000 0.0000 -405.9527 0.0000
# 6 0.0000 0.0000 0.0000 0.0000 0.0000 2.4010
#
#
#
# Elastic Compliance Matrix: (Units=1/GPa)
#
#
# Indices 1 2 3 4 5 6 
#
# 1 0.015253 0.004588 -0.003608 0.000000 0.000000 0.000000
# 2 0.004588 0.020262 0.001540 0.000000 0.000000 0.000000
# 3 -0.003608 0.001540 0.021432 0.000000 0.000000 0.000000
# 4 0.000000 0.000000 0.000000 0.077444 0.000000 0.000000
# 5 0.000000 0.000000 0.000000 0.000000 -0.002463 0.000000
# 6 0.000000 0.000000 0.000000 0.000000 0.000000 0.416493
#
#
# Mechanical properties :
#
#
# Convention : Reuss Voigt Hill
#
# Bulk Modulus (GPa) = 16.13258 17.29701 16.71480
# Shear Modulus (GPa) = 8.86456 -65.55954 -28.34749
#
# Velocity S-wave (km/s) = 2.08106 -5.65944 -3.72145
# Velocity P-wave (km/s) = 3.69540 5.85279 3.20930
#
# Compressibility (1/GPa) = 0.06198638
#
# Stress axis : x y z
#
# Youngs Moduli (GPa) = 65.56068 49.35259 46.65897
#
# Poissons Ratio (x) = -0.22643 0.16836
# Poissons Ratio (y) = -0.30079 -0.07184
# Poissons Ratio (z) = 0.23656 -0.07599
#
# Static dielectric constant tensor:
#      x y z
#    x 1.731070 0.000000 0.000000 
#    y 0.000000 1.784940 0.000000 
#    z 0.000000 0.000000 1.717100 
# 
# From -- ./inp_files/62397.got.cif
#   From: 2010.05.17/outbox.cif.g08.bks.cpg/sg65_32_cif.got.tgz:62397.got - 2010.06.03 17:01:31.
