data_PCOD9486353
_publ_section_title
;
Structure prediction by ZEFSAII (Michael W. Deem and Ramdas Pophale) SiO2 
 PCOD9486353
Probable space group: C M M M
;
_chemical_formula_sum "Si O2"
_cell_formula_units_Z 96
_cell_length_a 24.057970
_cell_length_b 8.647335
_cell_length_c 26.618689
_cell_angle_alpha 90.000000
_cell_angle_beta 90.000000
_cell_angle_gamma 90.000000
_cell_volume 5537.680881
_symmetry_space_group_name_H-M "C M M M"
_symmetry_group_IT_number 65
_symmetry_cell_setting 'orthorhombic'
loop_
_space_group_symop_operation_xyz
x,y,z
-x,-y,z
x,-y,-z
-x,y,-z
-x,-y,-z
x,y,-z
-x,y,z
x,-y,z
1/2+x,1/2+y,z
1/2-x,1/2-y,z
1/2+x,1/2-y,-z
1/2-x,1/2+y,-z
1/2-x,1/2-y,-z
1/2+x,1/2+y,-z
1/2-x,1/2+y,z
1/2+x,1/2-y,z
loop_
_atom_site_type_symbol
_atom_site_label
_atom_site_fract_x
_atom_site_fract_y
_atom_site_fract_z
Si Si1 0.812022 0.184518 0.148260
Si Si2 0.500000 0.685262 0.904581
Si Si3 0.381549 0.815428 0.242062
Si Si4 0.000000 0.815038 0.785050
Si Si5 0.687160 0.313557 0.553923
Si Si6 0.813042 0.813525 0.664593
Si Si7 0.383046 0.814934 0.057968
O O1 0.750000 0.250000 0.151782
O O2 0.848705 0.250683 0.193777
O O3 0.840645 0.236963 0.096525
O O4 0.811228 0.000000 0.151506
O O5 0.500000 0.500000 0.911014
O O6 0.500000 0.718768 0.844905
O O7 0.555277 0.755929 0.928706
O O8 0.444367 0.754757 0.238451
O O9 0.350658 0.754377 0.291558
O O10 0.380556 0.000000 0.240841
O O11 0.000000 0.000000 0.779310
O O12 0.661493 0.264648 0.500000
O O13 0.689006 0.500000 0.553871
O O14 0.750000 0.250000 0.553599
O O15 0.664703 0.268505 0.608765
O O16 0.750000 0.750000 0.669392
O O17 0.811457 0.000000 0.668247
O O18 0.381043 0.000000 0.064439
O O19 0.370438 0.778335 0.000000
#
# Coordination Sequence:
#
# PCOD9486353 Si02
#       7
#    16   8  16   8  16  16  16
#     4  12  25  42  62  84 111 146 184 224 271 325
#     4  11  22  38  63  90 115 143 179 225 272 323
#     4  12  24  39  59  83 111 144 182 226 274 328
#     4  11  23  40  62  87 110 139 177 224 275 326
#     4   8  14  25  43  69 103 144 186 226 269 315
#     4  10  19  32  51  78 114 151 188 230 272 323
#     4  11  24  41  62  88 116 146 181 222 269 323
#
# _framework density 17.335777
#
# number of rings (size 3 to 8) (size 9 to 14) (size 15 to 20)
#    0.000    1.333    1.667    5.250    0.000    4.000 
#    0.000    0.000    0.000    0.000    0.000    0.583 
#    0.000    4.667    0.000    0.000    0.000    0.000 
#
# Total GULP energy -268084.406124 kJ/mol
# GULP energy per Si atom -5585.091794 kJ/mol
# Density = 1.729632 g / cm^3
# Si number density = 17.335777 Si / 1000 Ang^3
#
#
#
# Elastic Constant Matrix: (Units=GPa)
#
#
# Indices 1 2 3 4 5 6 
#
# 1 124.4290 49.1704 77.0274 0.0000 0.0000 0.0000
# 2 49.1704 102.0952 75.4488 0.0000 0.0000 0.0000
# 3 77.0274 75.4488 174.8948 0.0000 0.0000 0.0000
# 4 0.0000 0.0000 0.0000 21.2530 0.0000 0.0000
# 5 0.0000 0.0000 0.0000 0.0000 -128.5475 0.0000
# 6 0.0000 0.0000 0.0000 0.0000 0.0000 30.9336
#
#
#
# Elastic Compliance Matrix: (Units=1/GPa)
#
#
# Indices 1 2 3 4 5 6 
#
# 1 0.011514 -0.002639 -0.003932 0.000000 0.000000 0.000000
# 2 -0.002639 0.014984 -0.005302 0.000000 0.000000 0.000000
# 3 -0.003932 -0.005302 0.009737 0.000000 0.000000 0.000000
# 4 0.000000 0.000000 0.000000 0.047052 0.000000 0.000000
# 5 0.000000 0.000000 0.000000 0.000000 -0.007779 0.000000
# 6 0.000000 0.000000 0.000000 0.000000 0.000000 0.032327
#
#
# Mechanical properties :
#
#
# Convention : Reuss Voigt Hill
#
# Bulk Modulus (GPa) = 80.07668 89.41248 84.74458
# Shear Modulus (GPa) = 36.83408 -1.95403 17.44003
#
# Velocity S-wave (km/s) = 4.61449 -1.06283 3.17521
# Velocity P-wave (km/s) = 8.64195 7.08397 7.90145
#
# Compressibility (1/GPa) = 0.01248803
#
# Stress axis : x y z
#
# Youngs Moduli (GPa) = 86.85060 66.73913 102.70366
#
# Poissons Ratio (x) = 0.17614 0.40388
# Poissons Ratio (y) = 0.22921 0.54449
# Poissons Ratio (z) = 0.34154 0.35382
#
# Static dielectric constant tensor:
#      x y z
#    x 1.536390 0.000000 0.000000 
#    y 0.000000 1.580630 0.000000 
#    z 0.000000 0.000000 1.618330 
# 
# From -- ./inp_files/71490.got.cif
#   From: 2010.05.17/outbox.cif.g08.bks.cpg/sg65_36_cif.got.tgz:71490.got - 2010.06.03 17:01:31.
