data_PCOD9486643
_publ_section_title
;
Structure prediction by ZEFSAII (Michael W. Deem and Ramdas Pophale) SiO2 
 PCOD9486643
Probable space group: C M M M
;
_chemical_formula_sum "Si O2"
_cell_formula_units_Z 64
_cell_length_a 10.075162
_cell_length_b 22.264740
_cell_length_c 13.108770
_cell_angle_alpha 90.000000
_cell_angle_beta 90.000000
_cell_angle_gamma 90.000000
_cell_volume 2940.570591
_symmetry_space_group_name_H-M "C M M M"
_symmetry_group_IT_number 65
_symmetry_cell_setting 'orthorhombic'
loop_
_space_group_symop_operation_xyz
x,y,z
-x,-y,z
x,-y,-z
-x,y,-z
-x,-y,-z
x,y,-z
-x,y,z
x,-y,z
1/2+x,1/2+y,z
1/2-x,1/2-y,z
1/2+x,1/2-y,-z
1/2-x,1/2+y,-z
1/2-x,1/2-y,-z
1/2+x,1/2+y,-z
1/2-x,1/2+y,z
1/2+x,1/2-y,z
loop_
_atom_site_type_symbol
_atom_site_label
_atom_site_fract_x
_atom_site_fract_y
_atom_site_fract_z
Si Si1 0.500000 0.713269 0.877401
Si Si2 0.790705 0.110893 0.120703
Si Si3 0.847202 0.064009 0.327299
Si Si4 0.000000 0.651791 0.122613
Si Si5 0.346077 0.696916 0.621965
O O1 0.630360 0.673069 0.858275
O O2 0.500000 0.780503 0.836338
O O3 0.500000 0.720026 0.000000
O O4 0.846844 0.065955 0.204141
O O5 0.636277 0.118796 0.146463
O O6 0.807591 0.096750 0.000000
O O7 0.792395 0.129209 0.358993
O O8 0.000000 0.064886 0.363411
O O9 0.787577 0.000000 0.360934
O O10 0.000000 0.655645 0.000000
O O11 0.353393 0.704093 0.500000
O O12 0.500000 0.700268 0.659927
O O13 0.250000 0.750000 0.660760
#
# Coordination Sequence:
#
# PCOD9486643 Si02
#       5
#     8  16  16   8  16
#     4   9  16  28  47  71 100 137 184 231 277 326
#     4  10  19  33  50  74 107 148 194 234 276 324
#     4  10  21  37  56  83 115 148 192 235 274 327
#     4   9  18  30  47  71 104 143 184 237 287 330
#     4   9  19  38  64  91 116 144 180 226 282 339
#
# _framework density 21.764482999999998
#
# number of rings (size 3 to 8) (size 9 to 14) (size 15 to 20)
#    0.000    2.500    1.250    0.750    0.000    6.000 
#    2.250    4.375    0.000    2.250    0.000    3.500 
#    0.000    0.000    0.000    0.000    0.000    0.000 
#
# Total GULP energy -178413.467325 kJ/mol
# GULP energy per Si atom -5575.420854 kJ/mol
# Density = 2.171495 g / cm^3
# Si number density = 21.764483 Si / 1000 Ang^3
#
#
#
# Elastic Constant Matrix: (Units=GPa)
#
#
# Indices 1 2 3 4 5 6 
#
# 1 93.1771 30.5662 10.1392 0.0000 0.0000 0.0000
# 2 30.5662 157.0751 6.4624 0.0000 0.0000 0.0000
# 3 10.1392 6.4624 46.5620 0.0000 0.0000 0.0000
# 4 0.0000 0.0000 0.0000 2.2957 0.0000 0.0000
# 5 0.0000 0.0000 0.0000 0.0000 21.4933 0.0000
# 6 0.0000 0.0000 0.0000 0.0000 0.0000 14.9230
#
#
#
# Elastic Compliance Matrix: (Units=1/GPa)
#
#
# Indices 1 2 3 4 5 6 
#
# 1 0.011692 -0.002183 -0.002243 0.000000 0.000000 0.000000
# 2 -0.002183 0.006811 -0.000470 0.000000 0.000000 0.000000
# 3 -0.002243 -0.000470 0.022030 0.000000 0.000000 0.000000
# 4 0.000000 0.000000 0.000000 0.435598 0.000000 0.000000
# 5 0.000000 0.000000 0.000000 0.000000 0.046526 0.000000
# 6 0.000000 0.000000 0.000000 0.000000 0.000000 0.067010
#
#
# Mechanical properties :
#
#
# Convention : Reuss Voigt Hill
#
# Bulk Modulus (GPa) = 32.52945 43.46107 37.99526
# Shear Modulus (GPa) = 8.20065 24.38550 16.29307
#
# Velocity S-wave (km/s) = 1.94322 3.35091 2.73904
# Velocity P-wave (km/s) = 4.47363 5.91469 5.24390
#
# Compressibility (1/GPa) = 0.03074138
#
# Stress axis : x y z
#
# Youngs Moduli (GPa) = 85.52515 146.83167 45.39177
#
# Poissons Ratio (x) = 0.32054 0.10182
# Poissons Ratio (y) = 0.18670 0.02133
# Poissons Ratio (z) = 0.19184 0.06899
#
# Static dielectric constant tensor:
#      x y z
#    x 1.893960 0.000000 0.000000 
#    y 0.000000 1.822740 0.000000 
#    z 0.000000 0.000000 1.870900 
# 
# From -- ./inp_files/36058.got.cif
#   From: 2010.05.17/outbox.cif.g08.bks.cpg/sg65_19_cif.got.tgz:36058.got - 2010.06.03 17:01:31.
