data_PCOD9486538
_publ_section_title
;
Structure prediction by ZEFSAII (Michael W. Deem and Ramdas Pophale) SiO2 
 PCOD9486538
Probable space group: C M M M
;
_chemical_formula_sum "Si O2"
_cell_formula_units_Z 56
_cell_length_a 16.430648
_cell_length_b 17.660453
_cell_length_c 10.550939
_cell_angle_alpha 90.000000
_cell_angle_beta 90.000000
_cell_angle_gamma 90.000000
_cell_volume 3061.594318
_symmetry_space_group_name_H-M "C M M M"
_symmetry_group_IT_number 65
_symmetry_cell_setting 'orthorhombic'
loop_
_space_group_symop_operation_xyz
x,y,z
-x,-y,z
x,-y,-z
-x,y,-z
-x,-y,-z
x,y,-z
-x,y,z
x,-y,z
1/2+x,1/2+y,z
1/2-x,1/2-y,z
1/2+x,1/2-y,-z
1/2-x,1/2+y,-z
1/2-x,1/2-y,-z
1/2+x,1/2+y,-z
1/2-x,1/2+y,z
1/2+x,1/2-y,z
loop_
_atom_site_type_symbol
_atom_site_label
_atom_site_fract_x
_atom_site_fract_y
_atom_site_fract_z
Si Si1 0.672296 0.306981 0.145695
Si Si2 0.407286 0.211103 0.641133
Si Si3 0.300815 0.089248 0.244539
Si Si4 0.410077 0.090507 0.000000
O O1 0.750000 0.250000 0.142873
O O2 0.611377 0.270172 0.246707
O O3 0.711474 0.383462 0.202651
O O4 0.643650 0.314677 0.000000
O O5 0.400008 0.245144 0.500000
O O6 0.500000 0.182037 0.654879
O O7 0.341733 0.143294 0.651720
O O8 0.304437 0.000000 0.271604
O O9 0.358225 0.107779 0.123351
O O10 0.500000 0.125076 0.000000
O O11 0.418429 0.000000 0.000000
#
# Coordination Sequence:
#
# PCOD9486538 Si02
#       4
#    16  16  16   8
#     4   9  18  33  53  76 103 136 178 222 261 311
#     4  10  22  37  52  74 107 145 182 221 264 312
#     4  10  19  32  53  80 108 137 169 213 267 321
#     4   9  16  26  43  72 107 137 161 193 246 309
#
# _framework density 18.291124
#
# number of rings (size 3 to 8) (size 9 to 14) (size 15 to 20)
#    0.000    2.429    1.429    0.857    2.000    8.000 
#    0.000    1.429    0.000    0.857    0.000    4.000 
#    0.000    0.000    0.000    0.000    0.000    0.000 
#
# Total GULP energy -155982.850960 kJ/mol
# GULP energy per Si atom -5570.816106 kJ/mol
# Density = 1.824949 g / cm^3
# Si number density = 18.291124 Si / 1000 Ang^3
#
#
#
# Elastic Constant Matrix: (Units=GPa)
#
#
# Indices 1 2 3 4 5 6 
#
# 1 30.1444 35.9480 37.0272 0.0000 0.0000 0.0000
# 2 35.9480 65.7213 27.3839 0.0000 0.0000 0.0000
# 3 37.0272 27.3839 116.9295 0.0000 0.0000 0.0000
# 4 0.0000 0.0000 0.0000 17.7439 0.0000 0.0000
# 5 0.0000 0.0000 0.0000 0.0000 55.5725 0.0000
# 6 0.0000 0.0000 0.0000 0.0000 0.0000 20.5186
#
#
#
# Elastic Compliance Matrix: (Units=1/GPa)
#
#
# Indices 1 2 3 4 5 6 
#
# 1 0.170229 -0.078290 -0.035570 0.000000 0.000000 0.000000
# 2 -0.078290 0.052868 0.012410 0.000000 0.000000 0.000000
# 3 -0.035570 0.012410 0.016910 0.000000 0.000000 0.000000
# 4 0.000000 0.000000 0.000000 0.056357 0.000000 0.000000
# 5 0.000000 0.000000 0.000000 0.000000 0.017995 0.000000
# 6 0.000000 0.000000 0.000000 0.000000 0.000000 0.048736
#
#
# Mechanical properties :
#
#
# Convention : Reuss Voigt Hill
#
# Bulk Modulus (GPa) = 26.94982 45.94593 36.44787
# Shear Modulus (GPa) = 8.64508 26.26273 17.45391
#
# Velocity S-wave (km/s) = 2.17638 3.79333 3.09241
# Velocity P-wave (km/s) = 4.59144 6.66030 5.72018
#
# Compressibility (1/GPa) = 0.03710601
#
# Stress axis : x y z
#
# Youngs Moduli (GPa) = 5.87443 18.91514 59.13823
#
# Poissons Ratio (x) = 1.48087 2.10357
# Poissons Ratio (y) = 0.45991 -0.73393
# Poissons Ratio (z) = 0.20896 -0.23475
#
# Static dielectric constant tensor:
#      x y z
#    x 1.643180 0.000000 0.000000 
#    y 0.000000 1.641220 0.000000 
#    z 0.000000 0.000000 1.667660 
# 
# From -- ./inp_files/8498.got.cif
#   From: 2010.05.17/outbox.cif.g08.bks.cpg/sg65_5_cif.got.tgz:8498.got - 2010.06.03 17:01:31.
