data_PCOD9486825
_publ_section_title
;
Structure prediction by ZEFSAII (Michael W. Deem and Ramdas Pophale) SiO2 
 PCOD9486825
Probable space group: C M M M
;
_chemical_formula_sum "Si O2"
_cell_formula_units_Z 72
_cell_length_a 18.471630
_cell_length_b 14.039257
_cell_length_c 14.126811
_cell_angle_alpha 90.000000
_cell_angle_beta 90.000000
_cell_angle_gamma 90.000000
_cell_volume 3663.477089
_symmetry_space_group_name_H-M "C M M M"
_symmetry_group_IT_number 65
_symmetry_cell_setting 'orthorhombic'
loop_
_space_group_symop_operation_xyz
x,y,z
-x,-y,z
x,-y,-z
-x,y,-z
-x,-y,-z
x,y,-z
-x,y,z
x,-y,z
1/2+x,1/2+y,z
1/2-x,1/2-y,z
1/2+x,1/2-y,-z
1/2-x,1/2+y,-z
1/2-x,1/2-y,-z
1/2+x,1/2+y,-z
1/2-x,1/2+y,z
1/2+x,1/2-y,z
loop_
_atom_site_type_symbol
_atom_site_label
_atom_site_fract_x
_atom_site_fract_y
_atom_site_fract_z
Si Si1 0.085149 0.723209 0.110202
Si Si2 0.917781 0.887649 0.254533
Si Si3 0.644152 0.885344 0.279595
Si Si4 0.288011 0.383835 0.608418
Si Si5 0.000000 0.616148 0.608016
O O1 0.090964 0.826206 0.159750
O O2 0.134585 0.655848 0.174803
O O3 0.000000 0.693883 0.118236
O O4 0.103937 0.724000 0.000000
O O5 0.858628 0.857720 0.331489
O O6 0.000000 0.872922 0.289416
O O7 0.908577 0.000000 0.235785
O O8 0.715631 0.854525 0.335860
O O9 0.572216 0.855237 0.336780
O O10 0.644939 0.000000 0.275575
O O11 0.289722 0.350811 0.500000
O O12 0.286601 0.500000 0.605296
O O13 0.000000 0.500000 0.605717
O O14 0.000000 0.649737 0.500000
#
# Coordination Sequence:
#
# PCOD9486825 Si02
#       5
#    16  16  16  16   8
#     4  10  21  37  57  80 108 143 186 232 274 320
#     4   9  19  37  59  80 105 139 182 232 280 326
#     4  10  19  33  53  81 115 146 179 217 260 322
#     4   9  18  34  57  83 112 146 179 219 273 327
#     4   9  16  28  49  75 106 145 179 209 251 307
#
# _framework density 19.653459999999999
#
# number of rings (size 3 to 8) (size 9 to 14) (size 15 to 20)
#    0.000    2.556    1.111    0.667    0.000    4.889 
#    0.000   11.111    0.000    4.000    0.000    0.000 
#    0.000    0.000    0.000    0.000    0.000    0.000 
#
# Total GULP energy -201078.999017 kJ/mol
# GULP energy per Si atom -5585.527750 kJ/mol
# Density = 1.960873 g / cm^3
# Si number density = 19.653460 Si / 1000 Ang^3
#
#
#
# Elastic Constant Matrix: (Units=GPa)
#
#
# Indices 1 2 3 4 5 6 
#
# 1 120.1063 28.3879 98.5981 0.0000 0.0000 0.0000
# 2 28.3879 53.3114 28.9180 0.0000 0.0000 0.0000
# 3 98.5981 28.9180 201.8030 0.0000 0.0000 0.0000
# 4 0.0000 0.0000 0.0000 29.4296 0.0000 0.0000
# 5 0.0000 0.0000 0.0000 0.0000 29.8586 0.0000
# 6 0.0000 0.0000 0.0000 0.0000 0.0000 24.2805
#
#
#
# Elastic Compliance Matrix: (Units=1/GPa)
#
#
# Indices 1 2 3 4 5 6 
#
# 1 0.014750 -0.004278 -0.006594 0.000000 0.000000 0.000000
# 2 -0.004278 0.021579 -0.001002 0.000000 0.000000 0.000000
# 3 -0.006594 -0.001002 0.008320 0.000000 0.000000 0.000000
# 4 0.000000 0.000000 0.000000 0.033979 0.000000 0.000000
# 5 0.000000 0.000000 0.000000 0.000000 0.033491 0.000000
# 6 0.000000 0.000000 0.000000 0.000000 0.000000 0.041185
#
#
# Mechanical properties :
#
#
# Convention : Reuss Voigt Hill
#
# Bulk Modulus (GPa) = 47.84099 76.33652 62.08876
# Shear Modulus (GPa) = 27.17098 31.33484 29.25291
#
# Velocity S-wave (km/s) = 3.72224 3.99729 3.86221
# Velocity P-wave (km/s) = 6.54741 7.76080 7.17978
#
# Compressibility (1/GPa) = 0.02090258
#
# Stress axis : x y z
#
# Youngs Moduli (GPa) = 67.79746 46.34096 120.18530
#
# Poissons Ratio (x) = 0.19823 0.79245
# Poissons Ratio (y) = 0.29001 0.12046
# Poissons Ratio (z) = 0.44703 0.04645
#
# Static dielectric constant tensor:
#      x y z
#    x 1.678400 0.000000 0.000000 
#    y 0.000000 1.740760 0.000000 
#    z 0.000000 0.000000 1.637920 
# 
# From -- ./inp_files/42166.got.cif
#   From: 2010.05.17/outbox.cif.g08.bks.cpg/sg65_22_cif.got.tgz:42166.got - 2010.06.03 17:01:31.
