data_PCOD9486714
_publ_section_title
;
Structure prediction by ZEFSAII (Michael W. Deem and Ramdas Pophale) SiO2 
 PCOD9486714
Probable space group: C M M M
;
_chemical_formula_sum "Si O2"
_cell_formula_units_Z 72
_cell_length_a 27.822103
_cell_length_b 11.523404
_cell_length_c 12.282147
_cell_angle_alpha 90.000000
_cell_angle_beta 90.000000
_cell_angle_gamma 90.000000
_cell_volume 3937.721829
_symmetry_space_group_name_H-M "C M M M"
_symmetry_group_IT_number 65
_symmetry_cell_setting 'orthorhombic'
loop_
_space_group_symop_operation_xyz
x,y,z
-x,-y,z
x,-y,-z
-x,y,-z
-x,-y,-z
x,y,-z
-x,y,z
x,-y,z
1/2+x,1/2+y,z
1/2-x,1/2-y,z
1/2+x,1/2-y,-z
1/2-x,1/2+y,-z
1/2-x,1/2-y,-z
1/2+x,1/2+y,-z
1/2-x,1/2+y,z
1/2+x,1/2-y,z
loop_
_atom_site_type_symbol
_atom_site_label
_atom_site_fract_x
_atom_site_fract_y
_atom_site_fract_z
Si Si1 0.054411 0.500000 0.632218
Si Si2 0.785358 0.862239 0.000000
Si Si3 0.264021 0.124717 0.372774
Si Si4 0.871950 0.696495 0.374981
Si Si5 0.368340 0.364180 0.822380
Si Si6 0.555251 0.641682 0.000000
O O1 0.053366 0.500000 0.500000
O O2 0.085035 0.612995 0.661781
O O3 0.000000 0.500000 0.672530
O O4 0.750000 0.750000 0.000000
O O5 0.820647 0.850177 0.104238
O O6 0.767488 0.000000 0.000000
O O7 0.247520 0.126408 0.500000
O O8 0.250000 0.250000 0.324162
O O9 0.321714 0.127362 0.373737
O O10 0.247685 0.000000 0.325266
O O11 0.880030 0.733556 0.500000
O O12 0.866129 0.799790 0.291180
O O13 0.374916 0.500000 0.804155
O O14 0.413523 0.322116 0.895245
O O15 0.555483 0.500000 0.000000
O O16 0.500000 0.679876 0.000000
#
# Coordination Sequence:
#
# PCOD9486714 Si02
#       6
#     8   8  16  16  16   8
#     4   9  18  34  54  73 101 151 203 234 270 334
#     4   9  19  40  61  81 110 149 197 241 283 338
#     4   9  17  30  47  68  99 141 185 223 262 316
#     4  10  19  33  52  77 113 149 184 227 278 337
#     4   9  19  34  54  82 111 138 180 232 279 337
#     4   8  15  32  57  77  97 132 173 216 272 333
#
# _framework density 18.284683999999999
#
# number of rings (size 3 to 8) (size 9 to 14) (size 15 to 20)
#    0.000    2.889    1.111    1.333    0.000    3.111 
#    2.000    4.444    0.000    0.000    0.000    8.556 
#    0.000    0.000    0.000    0.000    0.000    0.000 
#
# Total GULP energy -200493.436758 kJ/mol
# GULP energy per Si atom -5569.262132 kJ/mol
# Density = 1.824307 g / cm^3
# Si number density = 18.284684 Si / 1000 Ang^3
#
#
#
# Elastic Constant Matrix: (Units=GPa)
#
#
# Indices 1 2 3 4 5 6 
#
# 1 82.8393 52.1979 17.3557 0.0000 0.0000 0.0000
# 2 52.1979 137.7964 56.3284 0.0000 0.0000 0.0000
# 3 17.3557 56.3284 87.1590 0.0000 0.0000 0.0000
# 4 0.0000 0.0000 0.0000 15.0182 0.0000 0.0000
# 5 0.0000 0.0000 0.0000 0.0000 9.5452 0.0000
# 6 0.0000 0.0000 0.0000 0.0000 0.0000 25.5649
#
#
#
# Elastic Compliance Matrix: (Units=1/GPa)
#
#
# Indices 1 2 3 4 5 6 
#
# 1 0.015919 -0.006434 0.000988 0.000000 0.000000 0.000000
# 2 -0.006434 0.012463 -0.006773 0.000000 0.000000 0.000000
# 3 0.000988 -0.006773 0.015654 0.000000 0.000000 0.000000
# 4 0.000000 0.000000 0.000000 0.066586 0.000000 0.000000
# 5 0.000000 0.000000 0.000000 0.000000 0.104764 0.000000
# 6 0.000000 0.000000 0.000000 0.000000 0.000000 0.039116
#
#
# Mechanical properties :
#
#
# Convention : Reuss Voigt Hill
#
# Bulk Modulus (GPa) = 51.02695 62.17320 56.60007
# Shear Modulus (GPa) = 17.51478 22.15317 19.83398
#
# Velocity S-wave (km/s) = 3.09834 3.48454 3.29710
# Velocity P-wave (km/s) = 6.38492 7.08985 6.74660
#
# Compressibility (1/GPa) = 0.01959749
#
# Stress axis : x y z
#
# Youngs Moduli (GPa) = 62.81930 80.23640 63.88168
#
# Poissons Ratio (x) = 0.51625 -0.06314
# Poissons Ratio (y) = 0.40418 0.43270
# Poissons Ratio (z) = -0.06209 0.54347
#
# Static dielectric constant tensor:
#      x y z
#    x 1.652600 0.000000 0.000000 
#    y 0.000000 1.647720 0.000000 
#    z 0.000000 0.000000 1.629120 
# 
# From -- ./inp_files/32011.got.cif
#   From: 2010.05.17/outbox.cif.g08.bks.cpg/sg65_17_cif.got.tgz:32011.got - 2010.06.03 17:01:31.
