data_PCOD9486351
_publ_section_title
;
Structure prediction by ZEFSAII (Michael W. Deem and Ramdas Pophale) SiO2 
 PCOD9486351
Probable space group: C M M M
;
_chemical_formula_sum "Si O2"
_cell_formula_units_Z 104
_cell_length_a 29.369813
_cell_length_b 21.110311
_cell_length_c 9.256442
_cell_angle_alpha 90.000000
_cell_angle_beta 90.000000
_cell_angle_gamma 90.000000
_cell_volume 5739.048528
_symmetry_space_group_name_H-M "C M M M"
_symmetry_group_IT_number 65
_symmetry_cell_setting 'orthorhombic'
loop_
_space_group_symop_operation_xyz
x,y,z
-x,-y,z
x,-y,-z
-x,y,-z
-x,-y,-z
x,y,-z
-x,y,z
x,-y,z
1/2+x,1/2+y,z
1/2-x,1/2-y,z
1/2+x,1/2-y,-z
1/2-x,1/2+y,-z
1/2-x,1/2-y,-z
1/2+x,1/2+y,-z
1/2-x,1/2+y,z
1/2+x,1/2-y,z
loop_
_atom_site_type_symbol
_atom_site_label
_atom_site_fract_x
_atom_site_fract_y
_atom_site_fract_z
Si Si1 0.054096 0.246667 0.168764
Si Si2 0.701024 0.784651 0.825897
Si Si3 0.786176 0.570520 0.826506
Si Si4 0.444152 0.000000 0.833939
Si Si5 0.808768 0.069890 0.666554
Si Si6 0.131289 0.191548 0.670913
Si Si7 0.055401 0.624601 0.665051
O O1 0.082754 0.194600 0.252325
O O2 0.066385 0.313094 0.244801
O O3 0.000000 0.238116 0.182337
O O4 0.065629 0.248999 0.000000
O O5 0.750000 0.750000 0.793950
O O6 0.696565 0.859131 0.782280
O O7 0.663051 0.744328 0.744528
O O8 0.695430 0.781149 0.000000
O O9 0.804260 0.500000 0.778281
O O10 0.734162 0.572650 0.771738
O O11 0.788366 0.570112 0.000000
O O12 0.428905 0.937653 0.749420
O O13 0.500000 0.000000 0.835497
O O14 0.429071 0.000000 0.000000
O O15 0.792353 0.077448 0.500000
O O16 0.844037 0.124999 0.695408
O O17 0.829499 0.000000 0.678356
O O18 0.127206 0.202732 0.500000
O O19 0.071633 0.627227 0.500000
O O20 0.000000 0.621107 0.659956
#
# Coordination Sequence:
#
# PCOD9486351 Si02
#       7
#    16  16  16   8  16  16  16
#     4  10  21  37  56  76 100 132 173 223 277 331
#     4  10  19  32  51  78 112 145 178 219 265 313
#     4   9  17  30  50  75 105 144 184 218 256 306
#     4   9  15  23  39  65  95 125 159 199 249 309
#     4   9  18  32  50  76 109 141 174 214 260 313
#     4  11  22  34  54  81 108 140 178 221 268 322
#     4   9  16  27  45  69  95 122 156 203 257 309
#
# _framework density 18.121471
#
# number of rings (size 3 to 8) (size 9 to 14) (size 15 to 20)
#    0.000    2.385    1.538    1.615    0.000    5.231 
#    0.000    0.000    1.692    0.462    0.000    3.231 
#    0.000    0.000    0.000    0.000    0.000    0.000 
#
# Total GULP energy -289893.373821 kJ/mol
# GULP energy per Si atom -5574.872573 kJ/mol
# Density = 1.808023 g / cm^3
# Si number density = 18.121471 Si / 1000 Ang^3
#
#
#
# Elastic Constant Matrix: (Units=GPa)
#
#
# Indices 1 2 3 4 5 6 
#
# 1 24.5378 21.1557 24.1456 0.0000 0.0000 0.0000
# 2 21.1557 114.3627 35.1762 0.0000 0.0000 0.0000
# 3 24.1456 35.1762 59.4379 0.0000 0.0000 0.0000
# 4 0.0000 0.0000 0.0000 21.9499 0.0000 0.0000
# 5 0.0000 0.0000 0.0000 0.0000 20.2408 0.0000
# 6 0.0000 0.0000 0.0000 0.0000 0.0000 8.8593
#
#
#
# Elastic Compliance Matrix: (Units=1/GPa)
#
#
# Indices 1 2 3 4 5 6 
#
# 1 0.070298 -0.005160 -0.025504 0.000000 0.000000 0.000000
# 2 -0.005160 0.011069 -0.004455 0.000000 0.000000 0.000000
# 3 -0.025504 -0.004455 0.029821 0.000000 0.000000 0.000000
# 4 0.000000 0.000000 0.000000 0.045558 0.000000 0.000000
# 5 0.000000 0.000000 0.000000 0.000000 0.049405 0.000000
# 6 0.000000 0.000000 0.000000 0.000000 0.000000 0.112876
#
#
# Mechanical properties :
#
#
# Convention : Reuss Voigt Hill
#
# Bulk Modulus (GPa) = 24.41900 39.92148 32.17024
# Shear Modulus (GPa) = 12.40959 18.06739 15.23849
#
# Velocity S-wave (km/s) = 2.61971 3.16098 2.90299
# Velocity P-wave (km/s) = 4.75972 5.94980 5.38772
#
# Compressibility (1/GPa) = 0.04095172
#
# Stress axis : x y z
#
# Youngs Moduli (GPa) = 14.22513 90.34434 33.53340
#
# Poissons Ratio (x) = 0.46615 0.85523
# Poissons Ratio (y) = 0.07340 0.14938
# Poissons Ratio (z) = 0.36279 0.40245
#
# Static dielectric constant tensor:
#      x y z
#    x 1.635080 0.000000 0.000000 
#    y 0.000000 1.647190 0.000000 
#    z 0.000000 0.000000 1.604770 
# 
# From -- ./inp_files/16439.got.cif
#   From: 2010.05.17/outbox.cif.g08.bks.cpg/sg65_9_cif.got.tgz:16439.got - 2010.06.03 17:01:31.
