data_PCOD9486489
_publ_section_title
;
Structure prediction by ZEFSAII (Michael W. Deem and Ramdas Pophale) SiO2 
 PCOD9486489
Probable space group: C M M M
;
_chemical_formula_sum "Si O2"
_cell_formula_units_Z 96
_cell_length_a 25.158380
_cell_length_b 23.444862
_cell_length_c 7.802775
_cell_angle_alpha 90.000000
_cell_angle_beta 90.000000
_cell_angle_gamma 90.000000
_cell_volume 4602.347820
_symmetry_space_group_name_H-M "C M M M"
_symmetry_group_IT_number 65
_symmetry_cell_setting 'orthorhombic'
loop_
_space_group_symop_operation_xyz
x,y,z
-x,-y,z
x,-y,-z
-x,y,-z
-x,-y,-z
x,y,-z
-x,y,z
x,-y,z
1/2+x,1/2+y,z
1/2-x,1/2-y,z
1/2+x,1/2-y,-z
1/2-x,1/2+y,-z
1/2-x,1/2-y,-z
1/2+x,1/2+y,-z
1/2-x,1/2+y,z
1/2+x,1/2-y,z
loop_
_atom_site_type_symbol
_atom_site_label
_atom_site_fract_x
_atom_site_fract_y
_atom_site_fract_z
Si Si1 0.696343 0.896721 0.292811
Si Si2 0.084674 0.561320 0.293411
Si Si3 0.809625 0.267096 0.292995
Si Si4 0.500000 0.713839 0.211634
Si Si5 0.611820 0.333535 0.797775
Si Si6 0.500000 0.844468 0.201621
Si Si7 0.815010 0.935848 0.205183
O O1 0.697841 0.897466 0.500000
O O2 0.645683 0.932926 0.236128
O O3 0.683846 0.832141 0.237607
O O4 0.754101 0.917103 0.235351
O O5 0.084435 0.560115 0.500000
O O6 0.063217 0.500000 0.232803
O O7 0.050469 0.616413 0.247041
O O8 0.813086 0.264832 0.500000
O O9 0.750000 0.250000 0.243205
O O10 0.851700 0.222393 0.223013
O O11 0.553466 0.681829 0.269988
O O12 0.500000 0.780005 0.272432
O O13 0.500000 0.714355 0.000000
O O14 0.644692 0.387529 0.725635
O O15 0.605217 0.344262 0.000000
O O16 0.500000 0.837341 0.000000
O O17 0.823364 0.000000 0.272932
O O18 0.822087 0.937829 0.000000
#
# Coordination Sequence:
#
# PCOD9486489 Si02
#       7
#    16  16  16   8  16   8  16
#     4  10  20  35  55  79 108 143 178 213 261 316
#     4  10  21  36  53  74 103 141 182 216 249 303
#     4  10  19  32  52  81 113 137 169 221 267 308
#     4   9  20  38  57  79 105 135 174 221 264 314
#     4  10  20  36  57  78 106 143 179 214 263 319
#     4  11  22  36  55  77 102 133 174 221 268 310
#     4  10  21  35  52  78 109 138 173 219 265 312
#
# _framework density 20.858917999999999
#
# number of rings (size 3 to 8) (size 9 to 14) (size 15 to 20)
#    0.000    2.000    1.667    2.000    0.000    4.000 
#    0.000    1.667    0.000    2.500    0.000    0.000 
#    0.000    2.667    0.000    0.000    0.000    0.000 
#
# Total GULP energy -268027.304549 kJ/mol
# GULP energy per Si atom -5583.902178 kJ/mol
# Density = 2.081144 g / cm^3
# Si number density = 20.858918 Si / 1000 Ang^3
#
#
#
# Elastic Constant Matrix: (Units=GPa)
#
#
# Indices 1 2 3 4 5 6 
#
# 1 182.8483 98.1019 4.9128 0.0000 0.0000 0.0000
# 2 98.1019 181.9041 8.6548 0.0000 0.0000 0.0000
# 3 4.9128 8.6548 23.4400 0.0000 0.0000 0.0000
# 4 0.0000 0.0000 0.0000 1.0917 0.0000 0.0000
# 5 0.0000 0.0000 0.0000 0.0000 15.7251 0.0000
# 6 0.0000 0.0000 0.0000 0.0000 0.0000 12.2169
#
#
#
# Elastic Compliance Matrix: (Units=1/GPa)
#
#
# Indices 1 2 3 4 5 6 
#
# 1 0.007696 -0.004147 -0.000082 0.000000 0.000000 0.000000
# 2 -0.004147 0.007830 -0.002022 0.000000 0.000000 0.000000
# 3 -0.000082 -0.002022 0.043426 0.000000 0.000000 0.000000
# 4 0.000000 0.000000 0.000000 0.916012 0.000000 0.000000
# 5 0.000000 0.000000 0.000000 0.000000 0.063593 0.000000
# 6 0.000000 0.000000 0.000000 0.000000 0.000000 0.081854
#
#
# Mechanical properties :
#
#
# Convention : Reuss Voigt Hill
#
# Bulk Modulus (GPa) = 21.52819 67.94792 44.73806
# Shear Modulus (GPa) = 4.35390 24.24161 14.29776
#
# Velocity S-wave (km/s) = 1.44632 3.41276 2.62095
# Velocity P-wave (km/s) = 3.62386 6.94082 5.53658
#
# Compressibility (1/GPa) = 0.04645072
#
# Stress axis : x y z
#
# Youngs Moduli (GPa) = 129.93872 127.71604 23.02776
#
# Poissons Ratio (x) = 0.52958 0.00189
# Poissons Ratio (y) = 0.53880 0.04656
# Poissons Ratio (z) = 0.01065 0.25824
#
# Static dielectric constant tensor:
#      x y z
#    x 1.734690 0.000000 0.000000 
#    y 0.000000 1.780070 0.000000 
#    z 0.000000 0.000000 1.770380 
# 
# From -- ./inp_files/14350.got.cif
#   From: 2010.05.17/outbox.cif.g08.bks.cpg/sg65_8_cif.got.tgz:14350.got - 2010.06.03 17:01:31.
