data_PCOD9486937
_publ_section_title
;
Structure prediction by ZEFSAII (Michael W. Deem and Ramdas Pophale) SiO2 
 PCOD9486937
Probable space group: C M M M
;
_chemical_formula_sum "Si O2"
_cell_formula_units_Z 96
_cell_length_a 20.267122
_cell_length_b 19.480293
_cell_length_c 12.392836
_cell_angle_alpha 90.000000
_cell_angle_beta 90.000000
_cell_angle_gamma 90.000000
_cell_volume 4892.809073
_symmetry_space_group_name_H-M "C M M M"
_symmetry_group_IT_number 65
_symmetry_cell_setting 'orthorhombic'
loop_
_space_group_symop_operation_xyz
x,y,z
-x,-y,z
x,-y,-z
-x,y,-z
-x,-y,-z
x,y,-z
-x,y,z
x,-y,z
1/2+x,1/2+y,z
1/2-x,1/2-y,z
1/2+x,1/2-y,-z
1/2-x,1/2+y,-z
1/2-x,1/2-y,-z
1/2+x,1/2+y,-z
1/2-x,1/2+y,z
1/2+x,1/2-y,z
loop_
_atom_site_type_symbol
_atom_site_label
_atom_site_fract_x
_atom_site_fract_y
_atom_site_fract_z
Si Si1 0.500000 0.417289 0.128138
Si Si2 0.422139 0.582515 0.500000
Si Si3 0.380532 0.357288 0.730241
Si Si4 0.258887 0.668694 0.125569
Si Si5 0.920830 0.275352 0.379874
Si Si6 0.924226 0.425353 0.656450
Si Si7 0.630032 0.077849 0.882012
O O1 0.500000 0.500000 0.138461
O O2 0.563258 0.386983 0.190796
O O3 0.500000 0.400603 0.000000
O O4 0.421183 0.500000 0.500000
O O5 0.500000 0.604531 0.500000
O O6 0.389373 0.607729 0.387602
O O7 0.311046 0.362820 0.790907
O O8 0.392282 0.276407 0.707012
O O9 0.250000 0.750000 0.143656
O O10 0.189141 0.630507 0.136282
O O11 0.280744 0.659565 0.000000
O O12 0.909233 0.247128 0.500000
O O13 0.894335 0.353199 0.379424
O O14 0.000000 0.278623 0.363758
O O15 0.894787 0.500000 0.627037
O O16 0.921144 0.419827 0.785517
O O17 0.000000 0.426458 0.620413
O O18 0.657575 0.000000 0.881450
O O19 0.600742 0.090419 0.000000
#
# Coordination Sequence:
#
# PCOD9486937 Si02
#       7
#     8   8  16  16  16  16  16
#     4  11  24  39  59  93 132 160 194 256 319 367
#     4  11  22  38  61  90 123 165 207 256 316 377
#     4  12  21  38  62  88 118 160 207 249 297 367
#     4  10  22  39  60  85 117 159 203 248 302 361
#     4  10  19  33  54  80 110 147 187 232 284 340
#     4   9  18  32  54  84 114 145 184 238 297 349
#     4   9  18  34  55  78 108 148 190 232 285 349
#
# _framework density 19.620632000000001
#
# number of rings (size 3 to 8) (size 9 to 14) (size 15 to 20)
#    0.000    1.833    2.500    2.000    0.000    2.000 
#    0.000    6.250    1.833    0.000    0.000    0.000 
#    0.000    0.000    0.000    0.000    0.000    0.000 
#
# Total GULP energy -267605.804520 kJ/mol
# GULP energy per Si atom -5575.120928 kJ/mol
# Density = 1.957597 g / cm^3
# Si number density = 19.620632 Si / 1000 Ang^3
#
#
#
# Elastic Constant Matrix: (Units=GPa)
#
#
# Indices 1 2 3 4 5 6 
#
# 1 33.9410 9.3532 41.9177 0.0000 0.0000 0.0000
# 2 9.3532 106.6821 36.5605 0.0000 0.0000 0.0000
# 3 41.9177 36.5605 149.3003 0.0000 0.0000 0.0000
# 4 0.0000 0.0000 0.0000 29.9995 0.0000 0.0000
# 5 0.0000 0.0000 0.0000 0.0000 18.0639 0.0000
# 6 0.0000 0.0000 0.0000 0.0000 0.0000 13.4981
#
#
#
# Elastic Compliance Matrix: (Units=1/GPa)
#
#
# Indices 1 2 3 4 5 6 
#
# 1 0.045119 0.000421 -0.012771 0.000000 0.000000 0.000000
# 2 0.000421 0.010236 -0.002625 0.000000 0.000000 0.000000
# 3 -0.012771 -0.002625 0.010926 0.000000 0.000000 0.000000
# 4 0.000000 0.000000 0.000000 0.033334 0.000000 0.000000
# 5 0.000000 0.000000 0.000000 0.000000 0.055359 0.000000
# 6 0.000000 0.000000 0.000000 0.000000 0.000000 0.074085
#
#
# Mechanical properties :
#
#
# Convention : Reuss Voigt Hill
#
# Bulk Modulus (GPa) = 27.52388 51.73181 39.62784
# Shear Modulus (GPa) = 18.44207 25.78507 22.11357
#
# Velocity S-wave (km/s) = 3.06916 3.62910 3.36081
# Velocity P-wave (km/s) = 5.15928 6.63202 5.94146
#
# Compressibility (1/GPa) = 0.03633209
#
# Stress axis : x y z
#
# Youngs Moduli (GPa) = 22.16364 97.69173 91.52324
#
# Poissons Ratio (x) = -0.04111 1.16882
# Poissons Ratio (y) = -0.00933 0.24023
# Poissons Ratio (z) = 0.28305 0.25642
#
# Static dielectric constant tensor:
#      x y z
#    x 1.644380 0.000000 0.000000 
#    y 0.000000 1.733860 0.000000 
#    z 0.000000 0.000000 1.710780 
# 
# From -- ./inp_files/29059.got.cif
#   From: 2010.05.17/outbox.cif.g08.bks.cpg/sg65_15_cif.got.tgz:29059.got - 2010.06.03 17:01:31.
