data_PCOD9486093
_publ_section_title
;
Structure prediction by ZEFSAII (Michael W. Deem and Ramdas Pophale) SiO2 
 PCOD9486093
Probable space group: C M M M
;
_chemical_formula_sum "Si O2"
_cell_formula_units_Z 104
_cell_length_a 32.239761
_cell_length_b 7.354422
_cell_length_c 20.386734
_cell_angle_alpha 90.000000
_cell_angle_beta 90.000000
_cell_angle_gamma 90.000000
_cell_volume 4833.792642
_symmetry_space_group_name_H-M "C M M M"
_symmetry_group_IT_number 65
_symmetry_cell_setting 'orthorhombic'
loop_
_space_group_symop_operation_xyz
x,y,z
-x,-y,z
x,-y,-z
-x,y,-z
-x,-y,-z
x,y,-z
-x,y,z
x,-y,z
1/2+x,1/2+y,z
1/2-x,1/2-y,z
1/2+x,1/2-y,-z
1/2-x,1/2+y,-z
1/2-x,1/2-y,-z
1/2+x,1/2+y,-z
1/2-x,1/2+y,z
1/2+x,1/2-y,z
loop_
_atom_site_type_symbol
_atom_site_label
_atom_site_fract_x
_atom_site_fract_y
_atom_site_fract_z
Si Si1 0.826951 0.720910 0.071804
Si Si2 0.796472 0.283421 0.210082
Si Si3 0.408445 0.211978 0.425988
Si Si4 0.424479 0.779250 0.927847
Si Si5 0.000000 0.783395 0.575866
Si Si6 0.545285 0.221571 0.212733
Si Si7 0.874123 0.723086 0.294512
O O1 0.825269 0.500000 0.071059
O O2 0.802901 0.786467 0.135813
O O3 0.875716 0.768055 0.078753
O O4 0.812371 0.783254 0.000000
O O5 0.802217 0.500000 0.206491
O O6 0.750000 0.250000 0.233230
O O7 0.832808 0.216074 0.257451
O O8 0.407524 0.290675 0.500000
O O9 0.455621 0.221974 0.398251
O O10 0.379062 0.286507 0.369377
O O11 0.398659 0.000000 0.432535
O O12 0.448351 0.720744 0.862928
O O13 0.426354 0.000000 0.928230
O O14 0.438932 0.718457 0.000000
O O15 0.000000 0.718642 0.500000
O O16 0.000000 0.000000 0.576652
O O17 0.500000 0.280025 0.237255
O O18 0.585087 0.279801 0.254095
O O19 0.545661 0.000000 0.213535
O O20 0.874201 0.500000 0.295096
#
# Coordination Sequence:
#
# PCOD9486093 Si02
#       7
#    16  16  16  16   8  16  16
#     4   8  13  23  40  60  84 114 145 179 222 272
#     4  10  19  32  49  68  90 117 151 189 234 281
#     4   9  17  29  47  70  94 123 159 193 223 262
#     4   8  12  19  31  48  76 113 147 178 215 260
#     4   9  17  29  45  69 101 131 156 185 224 268
#     4   9  15  21  32  54  83 115 149 181 217 262
#     4   9  17  29  44  64  91 120 149 187 231 272
#
# _framework density 21.515194999999999
#
# number of rings (size 3 to 8) (size 9 to 14) (size 15 to 20)
#    0.000    3.154    1.538    1.154    1.077    1.538 
#    0.000    2.308    0.000    0.462    0.000    0.000 
#    0.000    0.000    0.000    0.000    0.000    6.154 
#
# Total GULP energy -290168.692653 kJ/mol
# GULP energy per Si atom -5580.167166 kJ/mol
# Density = 2.146623 g / cm^3
# Si number density = 21.515195 Si / 1000 Ang^3
#
#
#
# Elastic Constant Matrix: (Units=GPa)
#
#
# Indices 1 2 3 4 5 6 
#
# 1 139.6756 -0.4295 89.7805 0.0000 0.0000 0.0000
# 2 -0.4295 80.0749 6.9961 0.0000 0.0000 0.0000
# 3 89.7805 6.9961 149.6680 0.0000 0.0000 0.0000
# 4 0.0000 0.0000 0.0000 -19.8959 0.0000 0.0000
# 5 0.0000 0.0000 0.0000 0.0000 -12.2916 0.0000
# 6 0.0000 0.0000 0.0000 0.0000 0.0000 -14.1415
#
#
#
# Elastic Compliance Matrix: (Units=1/GPa)
#
#
# Indices 1 2 3 4 5 6 
#
# 1 0.011689 0.000678 -0.007043 0.000000 0.000000 0.000000
# 2 0.000678 0.012579 -0.000995 0.000000 0.000000 0.000000
# 3 -0.007043 -0.000995 0.010953 0.000000 0.000000 0.000000
# 4 0.000000 0.000000 0.000000 -0.050262 0.000000 0.000000
# 5 0.000000 0.000000 0.000000 0.000000 -0.081357 0.000000
# 6 0.000000 0.000000 0.000000 0.000000 0.000000 -0.070714
#
#
# Mechanical properties :
#
#
# Convention : Reuss Voigt Hill
#
# Bulk Modulus (GPa) = 48.77906 62.45695 55.61800
# Shear Modulus (GPa) = -34.35070 8.93898 -12.70586
#
# Velocity S-wave (km/s) = -4.00006 2.04053 -2.43277
# Velocity P-wave (km/s) = 1.17779 5.88591 4.24447
#
# Compressibility (1/GPa) = 0.02050060
#
# Stress axis : x y z
#
# Youngs Moduli (GPa) = 85.55110 79.49853 91.29861
#
# Poissons Ratio (x) = -0.05391 0.64306
# Poissons Ratio (y) = -0.05801 0.09082
# Poissons Ratio (z) = 0.60258 0.07908
#
# Static dielectric constant tensor:
#      x y z
#    x 1.757230 0.000000 0.000000 
#    y 0.000000 1.883710 0.000000 
#    z 0.000000 0.000000 1.808570 
# 
# From -- ./inp_files/66367.got.cif
#   From: 2010.05.17/outbox.cif.g08.bks.cpg/sg65_34_cif.got.tgz:66367.got - 2010.06.03 17:01:31.
