data_PCOD9486158
_publ_section_title
;
Structure prediction by ZEFSAII (Michael W. Deem and Ramdas Pophale) SiO2 
 PCOD9486158
Probable space group: C M M M
;
_chemical_formula_sum "Si O2"
_cell_formula_units_Z 104
_cell_length_a 13.659452
_cell_length_b 31.635120
_cell_length_c 13.326608
_cell_angle_alpha 90.000000
_cell_angle_beta 90.000000
_cell_angle_gamma 90.000000
_cell_volume 5758.672568
_symmetry_space_group_name_H-M "C M M M"
_symmetry_group_IT_number 65
_symmetry_cell_setting 'orthorhombic'
loop_
_space_group_symop_operation_xyz
x,y,z
-x,-y,z
x,-y,-z
-x,y,-z
-x,-y,-z
x,y,-z
-x,y,z
x,-y,z
1/2+x,1/2+y,z
1/2-x,1/2-y,z
1/2+x,1/2-y,-z
1/2-x,1/2+y,-z
1/2-x,1/2-y,-z
1/2+x,1/2+y,-z
1/2-x,1/2+y,z
1/2+x,1/2-y,z
loop_
_atom_site_type_symbol
_atom_site_label
_atom_site_fract_x
_atom_site_fract_y
_atom_site_fract_z
Si Si1 0.195403 0.547986 0.384359
Si Si2 0.201417 0.176874 0.616410
Si Si3 0.615717 0.186603 0.884713
Si Si4 0.613801 0.410371 0.318216
Si Si5 0.618507 0.548518 0.887970
Si Si6 0.387415 0.868775 0.301783
Si Si7 0.250000 0.250000 0.238040
O O1 0.163316 0.551651 0.500000
O O2 0.182158 0.500000 0.350946
O O3 0.309774 0.561023 0.378989
O O4 0.138363 0.582587 0.320027
O O5 0.184159 0.186760 0.500000
O O6 0.133434 0.138025 0.651850
O O7 0.311329 0.158218 0.631783
O O8 0.194471 0.217031 0.689043
O O9 0.500000 0.196696 0.883168
O O10 0.629246 0.146139 0.812557
O O11 0.676792 0.223612 0.831856
O O12 0.645301 0.180036 0.000000
O O13 0.500000 0.421169 0.333290
O O14 0.641901 0.419994 0.202283
O O15 0.500000 0.547634 0.892045
O O16 0.649520 0.500000 0.865371
O O17 0.653404 0.559835 0.000000
O O18 0.500000 0.860211 0.327657
#
# Coordination Sequence:
#
# PCOD9486158 Si02
#       7
#    16  16  16  16  16  16   8
#     4  10  21  34  48  72 104 135 172 213 247 288
#     4  10  21  35  51  74 102 131 168 211 251 298
#     4   9  18  34  57  82 105 131 165 205 251 305
#     4  10  19  32  50  71 101 139 171 202 245 297
#     4   8  14  26  45  68  94 127 168 209 243 277
#     4   9  18  34  55  75  97 129 168 211 259 303
#     4  10  20  36  56  76 102 136 166 202 254 308
#
# _framework density 18.059716999999999
#
# number of rings (size 3 to 8) (size 9 to 14) (size 15 to 20)
#    0.000    2.615    0.000    3.231    0.000    4.308 
#    0.000    9.231    0.000    6.000    0.000    2.154 
#    0.000    0.000    0.000    0.000    0.000    0.000 
#
# Total GULP energy -289825.384194 kJ/mol
# GULP energy per Si atom -5573.565081 kJ/mol
# Density = 1.801861 g / cm^3
# Si number density = 18.059717 Si / 1000 Ang^3
#
#
#
# Elastic Constant Matrix: (Units=GPa)
#
#
# Indices 1 2 3 4 5 6 
#
# 1 40.6262 10.9951 20.7431 0.0000 0.0000 0.0000
# 2 10.9951 94.1374 50.5013 0.0000 0.0000 0.0000
# 3 20.7431 50.5013 127.6239 0.0000 0.0000 0.0000
# 4 0.0000 0.0000 0.0000 22.8912 0.0000 0.0000
# 5 0.0000 0.0000 0.0000 0.0000 23.0056 0.0000
# 6 0.0000 0.0000 0.0000 0.0000 0.0000 6.0800
#
#
#
# Elastic Compliance Matrix: (Units=1/GPa)
#
#
# Indices 1 2 3 4 5 6 
#
# 1 0.026918 -0.001012 -0.003975 0.000000 0.000000 0.000000
# 2 -0.001012 0.013524 -0.005187 0.000000 0.000000 0.000000
# 3 -0.003975 -0.005187 0.010534 0.000000 0.000000 0.000000
# 4 0.000000 0.000000 0.000000 0.043685 0.000000 0.000000
# 5 0.000000 0.000000 0.000000 0.000000 0.043468 0.000000
# 6 0.000000 0.000000 0.000000 0.000000 0.000000 0.164474
#
#
# Mechanical properties :
#
#
# Convention : Reuss Voigt Hill
#
# Bulk Modulus (GPa) = 32.64896 47.42963 40.03929
# Shear Modulus (GPa) = 15.00787 22.40521 18.70654
#
# Velocity S-wave (km/s) = 2.88586 3.52606 3.22190
# Velocity P-wave (km/s) = 5.40572 6.54959 6.00496
#
# Compressibility (1/GPa) = 0.03062885
#
# Stress axis : x y z
#
# Youngs Moduli (GPa) = 37.15004 73.94528 94.93053
#
# Poissons Ratio (x) = 0.07481 0.37732
# Poissons Ratio (y) = 0.03758 0.49239
# Poissons Ratio (z) = 0.14766 0.38355
#
# Static dielectric constant tensor:
#      x y z
#    x 1.622600 0.000000 0.000000 
#    y 0.000000 1.611130 0.000000 
#    z 0.000000 0.000000 1.638160 
# 
# From -- ./inp_files/25580.got.cif
#   From: 2010.05.17/outbox.cif.g08.bks.cpg/sg65_13_cif.got.tgz:25580.got - 2010.06.03 17:01:31.
