data_PCOD9486307
_publ_section_title
;
Structure prediction by ZEFSAII (Michael W. Deem and Ramdas Pophale) SiO2 
 PCOD9486307
Probable space group: C M M M
;
_chemical_formula_sum "Si O2"
_cell_formula_units_Z 96
_cell_length_a 20.368671
_cell_length_b 8.633486
_cell_length_c 30.956323
_cell_angle_alpha 90.000000
_cell_angle_beta 90.000000
_cell_angle_gamma 90.000000
_cell_volume 5443.750998
_symmetry_space_group_name_H-M "C M M M"
_symmetry_group_IT_number 65
_symmetry_cell_setting 'orthorhombic'
loop_
_space_group_symop_operation_xyz
x,y,z
-x,-y,z
x,-y,-z
-x,y,-z
-x,-y,-z
x,y,-z
-x,y,z
x,-y,z
1/2+x,1/2+y,z
1/2-x,1/2-y,z
1/2+x,1/2-y,-z
1/2-x,1/2+y,-z
1/2-x,1/2-y,-z
1/2+x,1/2+y,-z
1/2-x,1/2+y,z
1/2+x,1/2-y,z
loop_
_atom_site_type_symbol
_atom_site_label
_atom_site_fract_x
_atom_site_fract_y
_atom_site_fract_z
Si Si1 0.822238 0.814398 0.049993
Si Si2 0.076130 0.314711 0.880953
Si Si3 0.177463 0.813276 0.621754
Si Si4 0.924829 0.188619 0.451100
Si Si5 0.576472 0.314565 0.786032
Si Si6 0.177462 0.315206 0.283535
O O1 0.750000 0.750000 0.060659
O O2 0.875938 0.747131 0.082281
O O3 0.821390 0.000000 0.052947
O O4 0.836174 0.771240 0.000000
O O5 0.081284 0.500000 0.877868
O O6 0.092435 0.241678 0.834426
O O7 0.000000 0.274952 0.890542
O O8 0.250000 0.750000 0.611814
O O9 0.125863 0.761280 0.585439
O O10 0.159618 0.751453 0.669258
O O11 0.179193 0.000000 0.622995
O O12 0.907332 0.237331 0.500000
O O13 0.000000 0.236701 0.442390
O O14 0.924449 0.000000 0.450950
O O15 0.500000 0.272802 0.777761
O O16 0.582233 0.500000 0.783728
O O17 0.624904 0.238504 0.751658
O O18 0.180858 0.500000 0.285697
O O19 0.250000 0.250000 0.272993
#
# Coordination Sequence:
#
# PCOD9486307 Si02
#       6
#    16  16  16  16  16  16
#     4  10  21  37  57  81 110 144 183 226 270 317
#     4  10  21  37  57  82 112 144 179 220 266 316
#     4  10  19  32  51  75 103 135 171 212 260 312
#     4   8  15  29  49  73 100 131 170 214 256 302
#     4  10  21  38  59  82 109 140 176 218 264 316
#     4  11  22  37  56  78 107 140 177 220 265 315
#
# _framework density 17.634899000000001
#
# number of rings (size 3 to 8) (size 9 to 14) (size 15 to 20)
#    0.000    2.167    0.000    5.000    0.000    5.000 
#    0.000    6.667    0.000    3.000    0.000    4.667 
#    0.000    0.000    0.000    0.000    0.000    0.000 
#
# Total GULP energy -267971.050123 kJ/mol
# GULP energy per Si atom -5582.730211 kJ/mol
# Density = 1.759476 g / cm^3
# Si number density = 17.634899 Si / 1000 Ang^3
#
#
#
# Elastic Constant Matrix: (Units=GPa)
#
#
# Indices 1 2 3 4 5 6 
#
# 1 123.1900 49.1970 126.7055 0.0000 0.0000 0.0000
# 2 49.1970 74.3346 53.6096 0.0000 0.0000 0.0000
# 3 126.7055 53.6096 151.6637 0.0000 0.0000 0.0000
# 4 0.0000 0.0000 0.0000 24.8530 0.0000 0.0000
# 5 0.0000 0.0000 0.0000 0.0000 44.6217 0.0000
# 6 0.0000 0.0000 0.0000 0.0000 0.0000 25.9011
#
#
#
# Elastic Compliance Matrix: (Units=1/GPa)
#
#
# Indices 1 2 3 4 5 6 
#
# 1 0.058878 -0.004688 -0.047532 0.000000 0.000000 0.000000
# 2 -0.004688 0.018429 -0.002598 0.000000 0.000000 0.000000
# 3 -0.047532 -0.002598 0.047221 0.000000 0.000000 0.000000
# 4 0.000000 0.000000 0.000000 0.040237 0.000000 0.000000
# 5 0.000000 0.000000 0.000000 0.000000 0.022411 0.000000
# 6 0.000000 0.000000 0.000000 0.000000 0.000000 0.038608
#
#
# Mechanical properties :
#
#
# Convention : Reuss Voigt Hill
#
# Bulk Modulus (GPa) = 67.14301 89.80139 78.47220
# Shear Modulus (GPa) = 14.68937 27.05357 20.87147
#
# Velocity S-wave (km/s) = 2.88926 3.92100 3.44398
# Velocity P-wave (km/s) = 7.02047 8.45766 7.77236
#
# Compressibility (1/GPa) = 0.01489358
#
# Stress axis : x y z
#
# Youngs Moduli (GPa) = 16.98439 54.26319 21.17680
#
# Poissons Ratio (x) = 0.25436 1.00657
# Poissons Ratio (y) = 0.07962 0.05502
# Poissons Ratio (z) = 0.80729 0.14097
#
# Static dielectric constant tensor:
#      x y z
#    x 1.579960 0.000000 0.000000 
#    y 0.000000 1.596380 0.000000 
#    z 0.000000 0.000000 1.577730 
# 
# From -- ./inp_files/73216.got.cif
#   From: 2010.05.17/outbox.cif.g08.bks.cpg/sg65_37_cif.got.tgz:73216.got - 2010.06.03 17:01:31.
