data_PCOD9486731
_publ_section_title
;
Structure prediction by ZEFSAII (Michael W. Deem and Ramdas Pophale) SiO2 
 PCOD9486731
Probable space group: C M M M
;
_chemical_formula_sum "Si O2"
_cell_formula_units_Z 96
_cell_length_a 8.463844
_cell_length_b 19.256281
_cell_length_c 32.443165
_cell_angle_alpha 90.000000
_cell_angle_beta 90.000000
_cell_angle_gamma 90.000000
_cell_volume 5287.657057
_symmetry_space_group_name_H-M "C M M M"
_symmetry_group_IT_number 65
_symmetry_cell_setting 'orthorhombic'
loop_
_space_group_symop_operation_xyz
x,y,z
-x,-y,z
x,-y,-z
-x,y,-z
-x,-y,-z
x,y,-z
-x,y,z
x,-y,z
1/2+x,1/2+y,z
1/2-x,1/2-y,z
1/2+x,1/2-y,-z
1/2-x,1/2+y,-z
1/2-x,1/2-y,-z
1/2+x,1/2+y,-z
1/2-x,1/2+y,z
1/2+x,1/2-y,z
loop_
_atom_site_type_symbol
_atom_site_label
_atom_site_fract_x
_atom_site_fract_y
_atom_site_fract_z
Si Si1 0.690921 0.329570 0.044255
Si Si2 0.808693 0.829217 0.134602
Si Si3 0.306795 0.420061 0.787533
Si Si4 0.689066 0.671450 0.289999
Si Si5 0.813046 0.327859 0.378911
Si Si6 0.809660 0.081491 0.453844
O O1 0.500000 0.330035 0.044160
O O2 0.750000 0.250000 0.044064
O O3 0.741373 0.356766 0.089169
O O4 0.743050 0.360744 0.000000
O O5 0.750000 0.750000 0.139559
O O6 0.755264 0.877782 0.171966
O O7 0.000000 0.827397 0.135315
O O8 0.500000 0.420260 0.787651
O O9 0.255214 0.500000 0.787742
O O10 0.256156 0.378683 0.746664
O O11 0.500000 0.673584 0.289464
O O12 0.750000 0.750000 0.283804
O O13 0.743416 0.647345 0.335183
O O14 0.750000 0.250000 0.385572
O O15 0.763858 0.374983 0.417149
O O16 0.000000 0.325149 0.375034
O O17 0.760498 0.104139 0.500000
O O18 0.000000 0.087450 0.451765
O O19 0.770519 0.000000 0.449740
#
# Coordination Sequence:
#
# PCOD9486731 Si02
#       6
#    16  16  16  16  16  16
#     4   8  13  21  35  58  86 113 143 182 227 272
#     4   9  16  27  45  66  89 118 152 191 232 277
#     4   9  18  31  47  68  92 121 157 193 233 284
#     4  10  19  33  53  73  95 124 159 200 244 291
#     4  11  22  36  55  79 107 136 168 207 250 296
#     4   9  19  37  59  81 107 140 175 209 247 292
#
# _framework density 18.155488999999999
#
# number of rings (size 3 to 8) (size 9 to 14) (size 15 to 20)
#    0.000    2.667    0.000    4.000    0.000    1.667 
#    0.000    3.333    0.000    4.500    0.000    3.500 
#    0.000    0.000    0.000   27.000    0.000   12.667 
#
# Total GULP energy -267504.582895 kJ/mol
# GULP energy per Si atom -5573.012144 kJ/mol
# Density = 1.811417 g / cm^3
# Si number density = 18.155489 Si / 1000 Ang^3
#
#
#
# Elastic Constant Matrix: (Units=GPa)
#
#
# Indices 1 2 3 4 5 6 
#
# 1 31.6775 18.7183 36.2334 0.0000 0.0000 0.0000
# 2 18.7183 72.4559 95.2488 0.0000 0.0000 0.0000
# 3 36.2334 95.2488 218.0697 0.0000 0.0000 0.0000
# 4 0.0000 0.0000 0.0000 -5.2773 0.0000 0.0000
# 5 0.0000 0.0000 0.0000 0.0000 13.7391 0.0000
# 6 0.0000 0.0000 0.0000 0.0000 0.0000 18.6080
#
#
#
# Elastic Compliance Matrix: (Units=1/GPa)
#
#
# Indices 1 2 3 4 5 6 
#
# 1 0.039392 -0.003693 -0.004932 0.000000 0.000000 0.000000
# 2 -0.003693 0.032758 -0.013695 0.000000 0.000000 0.000000
# 3 -0.004932 -0.013695 0.011387 0.000000 0.000000 0.000000
# 4 0.000000 0.000000 0.000000 -0.189492 0.000000 0.000000
# 5 0.000000 0.000000 0.000000 0.000000 0.072785 0.000000
# 6 0.000000 0.000000 0.000000 0.000000 0.000000 0.053740
#
#
# Mechanical properties :
#
#
# Convention : Reuss Voigt Hill
#
# Bulk Modulus (GPa) = 25.70856 69.17823 47.44339
# Shear Modulus (GPa) = 63.95943 16.88081 40.42012
#
# Velocity S-wave (km/s) = 5.94182 3.05256 4.72352
# Velocity P-wave (km/s) = 7.82717 7.11407 7.47912
#
# Compressibility (1/GPa) = 0.03889755
#
# Stress axis : x y z
#
# Youngs Moduli (GPa) = 25.38608 30.52694 87.82163
#
# Poissons Ratio (x) = 0.11272 0.43316
# Poissons Ratio (y) = 0.09374 1.20267
# Poissons Ratio (z) = 0.12521 0.41805
#
# Static dielectric constant tensor:
#      x y z
#    x 1.631320 0.000000 0.000000 
#    y 0.000000 1.587660 0.000000 
#    z 0.000000 0.000000 1.665770 
# 
# From -- ./inp_files/73122.got.cif
#   From: 2010.05.17/outbox.cif.g08.bks.cpg/sg65_37_cif.got.tgz:73122.got - 2010.06.03 17:01:31.
