data_PCOD9486192
_publ_section_title
;
Structure prediction by ZEFSAII (Michael W. Deem and Ramdas Pophale) SiO2 
 PCOD9486192
Probable space group: C M M M
;
_chemical_formula_sum "Si O2"
_cell_formula_units_Z 120
_cell_length_a 28.749620
_cell_length_b 27.298609
_cell_length_c 8.808419
_cell_angle_alpha 90.000000
_cell_angle_beta 90.000000
_cell_angle_gamma 90.000000
_cell_volume 6913.064229
_symmetry_space_group_name_H-M "C M M M"
_symmetry_group_IT_number 65
_symmetry_cell_setting 'orthorhombic'
loop_
_space_group_symop_operation_xyz
x,y,z
-x,-y,z
x,-y,-z
-x,y,-z
-x,-y,-z
x,y,-z
-x,y,z
x,-y,z
1/2+x,1/2+y,z
1/2-x,1/2-y,z
1/2+x,1/2-y,-z
1/2-x,1/2+y,-z
1/2-x,1/2-y,-z
1/2+x,1/2+y,-z
1/2-x,1/2+y,z
1/2+x,1/2-y,z
loop_
_atom_site_type_symbol
_atom_site_label
_atom_site_fract_x
_atom_site_fract_y
_atom_site_fract_z
Si Si1 0.290062 0.441207 0.677059
Si Si2 0.803093 0.741881 0.316970
Si Si3 0.638260 0.853768 0.681595
Si Si4 0.053426 0.000000 0.814577
Si Si5 0.946551 0.296900 0.183432
Si Si6 0.309650 0.056684 0.181558
Si Si7 0.111294 0.797714 0.182771
Si Si8 0.114357 0.092770 0.816693
O O1 0.286876 0.428059 0.500000
O O2 0.296635 0.500000 0.688738
O O3 0.241649 0.429554 0.758529
O O4 0.334229 0.416292 0.753278
O O5 0.804008 0.745450 0.500000
O O6 0.750000 0.750000 0.266473
O O7 0.824222 0.688656 0.275171
O O8 0.839218 0.781127 0.250186
O O9 0.636916 0.856172 0.500000
O O10 0.588911 0.835660 0.745192
O O11 0.654305 0.905180 0.749174
O O12 0.080935 0.048688 0.765371
O O13 0.000000 0.000000 0.764839
O O14 0.053391 0.000000 0.000000
O O15 0.926275 0.243430 0.226937
O O16 0.000000 0.302770 0.230038
O O17 0.944367 0.300463 0.000000
O O18 0.318197 0.000000 0.226999
O O19 0.310371 0.059193 0.000000
O O20 0.098583 0.852827 0.228586
O O21 0.114877 0.796713 0.000000
O O22 0.116057 0.090762 0.000000
#
# Coordination Sequence:
#
# PCOD9486192 Si02
#       8
#    16  16  16   8  16  16  16  16
#     4  10  20  33  50  72 100 138 181 218 260 311
#     4   9  19  34  49  70 103 141 175 210 258 314
#     4  10  20  34  54  81 111 142 177 218 262 313
#     4   9  18  32  51  73  99 135 177 225 278 325
#     4   9  18  35  57  78 104 139 178 221 269 320
#     4  10  21  36  55  80 111 145 178 213 256 308
#     4   9  19  32  48  75 102 131 174 222 267 312
#     4  10  19  32  50  73 103 135 176 226 274 323
#
# _framework density 17.358439000000001
#
# number of rings (size 3 to 8) (size 9 to 14) (size 15 to 20)
#    0.000    2.467    0.667    1.200    1.867    3.467 
#    0.000    2.667    0.000    1.200    0.000    4.667 
#    0.000    0.000    0.000    0.000    0.000    0.000 
#
# Total GULP energy -334738.169319 kJ/mol
# GULP energy per Si atom -5578.969489 kJ/mol
# Density = 1.731893 g / cm^3
# Si number density = 17.358439 Si / 1000 Ang^3
#
#
#
# Elastic Constant Matrix: (Units=GPa)
#
#
# Indices 1 2 3 4 5 6 
#
# 1 152.7678 85.2589 32.2598 0.0000 0.0000 0.0000
# 2 85.2589 124.8206 32.9860 0.0000 0.0000 0.0000
# 3 32.2598 32.9860 19.9849 0.0000 0.0000 0.0000
# 4 0.0000 0.0000 0.0000 19.3383 0.0000 0.0000
# 5 0.0000 0.0000 0.0000 0.0000 8.9871 0.0000
# 6 0.0000 0.0000 0.0000 0.0000 0.0000 12.7375
#
#
#
# Elastic Compliance Matrix: (Units=1/GPa)
#
#
# Indices 1 2 3 4 5 6 
#
# 1 0.011610 -0.005281 -0.010024 0.000000 0.000000 0.000000
# 2 -0.005281 0.016612 -0.018893 0.000000 0.000000 0.000000
# 3 -0.010024 -0.018893 0.097403 0.000000 0.000000 0.000000
# 4 0.000000 0.000000 0.000000 0.051711 0.000000 0.000000
# 5 0.000000 0.000000 0.000000 0.000000 0.111271 0.000000
# 6 0.000000 0.000000 0.000000 0.000000 0.000000 0.078508
#
#
# Mechanical properties :
#
#
# Convention : Reuss Voigt Hill
#
# Bulk Modulus (GPa) = 17.47413 66.50918 41.99166
# Shear Modulus (GPa) = 10.99894 18.01715 14.50805
#
# Velocity S-wave (km/s) = 2.51994 3.22521 2.89414
# Velocity P-wave (km/s) = 4.30759 7.22964 5.95076
#
# Compressibility (1/GPa) = 0.05722746
#
# Stress axis : x y z
#
# Youngs Moduli (GPa) = 86.13181 60.19825 10.26658
#
# Poissons Ratio (x) = 0.31792 0.10291
# Poissons Ratio (y) = 0.45488 0.19397
# Poissons Ratio (z) = 0.86340 1.13735
#
# Static dielectric constant tensor:
#      x y z
#    x 1.558260 0.000000 0.000000 
#    y 0.000000 1.598670 0.000000 
#    z 0.000000 0.000000 1.578010 
# 
# From -- ./inp_files/17045.got.cif
#   From: 2010.05.17/outbox.cif.g08.bks.cpg/sg65_9_cif.got.tgz:17045.got - 2010.06.03 17:01:31.
