data_PCOD9486090
_publ_section_title
;
Structure prediction by ZEFSAII (Michael W. Deem and Ramdas Pophale) SiO2 
 PCOD9486090
Probable space group: C M M M
;
_chemical_formula_sum "Si O2"
_cell_formula_units_Z 128
_cell_length_a 19.355380
_cell_length_b 19.482007
_cell_length_c 20.686481
_cell_angle_alpha 90.000000
_cell_angle_beta 90.000000
_cell_angle_gamma 90.000000
_cell_volume 7800.492360
_symmetry_space_group_name_H-M "C M M M"
_symmetry_group_IT_number 65
_symmetry_cell_setting 'orthorhombic'
loop_
_space_group_symop_operation_xyz
x,y,z
-x,-y,z
x,-y,-z
-x,y,-z
-x,-y,-z
x,y,-z
-x,y,z
x,-y,z
1/2+x,1/2+y,z
1/2-x,1/2-y,z
1/2+x,1/2-y,-z
1/2-x,1/2+y,-z
1/2-x,1/2-y,-z
1/2+x,1/2+y,-z
1/2-x,1/2+y,z
1/2+x,1/2-y,z
loop_
_atom_site_type_symbol
_atom_site_label
_atom_site_fract_x
_atom_site_fract_y
_atom_site_fract_z
Si Si1 0.634858 0.581769 0.069231
Si Si2 0.420233 0.842789 0.926881
Si Si3 0.286199 0.080559 0.117540
Si Si4 0.578058 0.383520 0.207478
Si Si5 0.282170 0.826143 0.244423
Si Si6 0.077569 0.916658 0.425674
Si Si7 0.423235 0.777581 0.210848
Si Si8 0.816723 0.078737 0.684295
O O1 0.622665 0.500000 0.070319
O O2 0.717591 0.591233 0.074985
O O3 0.598584 0.610213 0.132668
O O4 0.610483 0.609428 0.000000
O O5 0.500000 0.869334 0.922608
O O6 0.358333 0.896947 0.915247
O O7 0.412506 0.790826 0.866345
O O8 0.412507 0.814686 0.000000
O O9 0.273836 0.128311 0.179818
O O10 0.288938 0.000000 0.134971
O O11 0.500000 0.408801 0.217615
O O12 0.580976 0.303032 0.223892
O O13 0.632850 0.420393 0.253202
O O14 0.250000 0.750000 0.236656
O O15 0.363913 0.815587 0.250006
O O16 0.244393 0.868757 0.299984
O O17 0.089985 0.895941 0.500000
O O18 0.136236 0.896507 0.375389
O O19 0.000000 0.893996 0.406626
O O20 0.076665 0.000000 0.424615
O O21 0.500000 0.802397 0.226230
O O22 0.793815 0.000000 0.673699
#
# Coordination Sequence:
#
# PCOD9486090 Si02
#       8
#    16  16  16  16  16  16  16  16
#     4  10  20  32  43  59  88 124 158 195 244 298
#     4   9  18  31  47  67  89 114 153 208 267 320
#     4  10  19  32  49  67  90 120 158 207 258 309
#     4  11  21  33  49  69  94 127 166 206 245 293
#     4  11  19  33  52  72  98 132 166 205 250 298
#     4   8  15  29  49  77 115 149 170 194 236 292
#     4   9  19  34  49  67  93 127 166 207 253 302
#     4  11  20  31  52  81 106 131 165 207 246 285
#
# _framework density 16.409220999999999
#
# number of rings (size 3 to 8) (size 9 to 14) (size 15 to 20)
#    0.000    2.125    2.500    1.875    0.000    3.250 
#    0.000    2.500    0.000    5.625    0.000    0.000 
#    0.000    0.500    0.000    3.125    0.000    0.000 
#
# Total GULP energy -356634.574973 kJ/mol
# GULP energy per Si atom -5572.415234 kJ/mol
# Density = 1.637187 g / cm^3
# Si number density = 16.409221 Si / 1000 Ang^3
#
#
#
# Elastic Constant Matrix: (Units=GPa)
#
#
# Indices 1 2 3 4 5 6 
#
# 1 88.5546 26.5305 34.5052 0.0000 0.0000 0.0000
# 2 26.5305 52.8195 14.4073 0.0000 0.0000 0.0000
# 3 34.5052 14.4073 62.9641 0.0000 0.0000 0.0000
# 4 0.0000 0.0000 0.0000 -4.9831 0.0000 0.0000
# 5 0.0000 0.0000 0.0000 0.0000 -32.8077 0.0000
# 6 0.0000 0.0000 0.0000 0.0000 0.0000 11.6369
#
#
#
# Elastic Compliance Matrix: (Units=1/GPa)
#
#
# Indices 1 2 3 4 5 6 
#
# 1 0.015966 -0.006008 -0.007375 0.000000 0.000000 0.000000
# 2 -0.006008 0.022453 -0.001845 0.000000 0.000000 0.000000
# 3 -0.007375 -0.001845 0.020346 0.000000 0.000000 0.000000
# 4 0.000000 0.000000 0.000000 -0.200678 0.000000 0.000000
# 5 0.000000 0.000000 0.000000 0.000000 -0.030481 0.000000
# 6 0.000000 0.000000 0.000000 0.000000 0.000000 0.085934
#
#
# Mechanical properties :
#
#
# Convention : Reuss Voigt Hill
#
# Bulk Modulus (GPa) = 35.32436 39.46933 37.39684
# Shear Modulus (GPa) = -107.37183 3.36222 -52.00481
#
# Velocity S-wave (km/s) = -8.09789 1.43298 -5.63571
# Velocity P-wave (km/s) = 8.11546 5.18105 4.41686
#
# Compressibility (1/GPa) = 0.02830908
#
# Stress axis : x y z
#
# Youngs Moduli (GPa) = 62.63300 44.53659 49.15005
#
# Poissons Ratio (x) = 0.26757 0.36248
# Poissons Ratio (y) = 0.37629 0.09070
# Poissons Ratio (z) = 0.46191 0.08219
#
# Static dielectric constant tensor:
#      x y z
#    x 1.584320 0.000000 0.000000 
#    y 0.000000 1.549960 0.000000 
#    z 0.000000 0.000000 1.556290 
# 
# From -- ./inp_files/64103.got.cif
#   From: 2010.05.17/outbox.cif.g08.bks.cpg/sg65_33_cif.got.tgz:64103.got - 2010.06.03 17:01:31.
