data_PCOD9486288
_publ_section_title
;
Structure prediction by ZEFSAII (Michael W. Deem and Ramdas Pophale) SiO2 
 PCOD9486288
Probable space group: C M M M
;
_chemical_formula_sum "Si O2"
_cell_formula_units_Z 64
_cell_length_a 7.261894
_cell_length_b 15.428018
_cell_length_c 24.108231
_cell_angle_alpha 90.000000
_cell_angle_beta 90.000000
_cell_angle_gamma 90.000000
_cell_volume 2701.004989
_symmetry_space_group_name_H-M "C M M M"
_symmetry_group_IT_number 65
_symmetry_cell_setting 'orthorhombic'
loop_
_space_group_symop_operation_xyz
x,y,z
-x,-y,z
x,-y,-z
-x,y,-z
-x,-y,-z
x,y,-z
-x,y,z
x,-y,z
1/2+x,1/2+y,z
1/2-x,1/2-y,z
1/2+x,1/2-y,-z
1/2-x,1/2+y,-z
1/2-x,1/2-y,-z
1/2+x,1/2+y,-z
1/2-x,1/2+y,z
1/2+x,1/2-y,z
loop_
_atom_site_type_symbol
_atom_site_label
_atom_site_fract_x
_atom_site_fract_y
_atom_site_fract_z
Si Si1 0.777507 0.396174 0.000000
Si Si2 0.778302 0.395877 0.881011
Si Si3 0.781845 0.346152 0.358192
Si Si4 0.225306 0.500000 0.436457
Si Si5 0.723020 0.102580 0.761499
O O1 0.710641 0.361400 0.940502
O O2 0.738938 0.500000 0.000000
O O3 0.000000 0.388529 0.000000
O O4 0.742753 0.500000 0.880564
O O5 0.711186 0.362737 0.821312
O O6 0.000000 0.386556 0.881455
O O7 0.750000 0.250000 0.378947
O O8 0.713351 0.417158 0.401088
O O9 0.709207 0.355109 0.295269
O O10 0.000000 0.361378 0.353607
O O11 0.285546 0.500000 0.500000
O O12 0.000000 0.500000 0.437673
O O13 0.500000 0.108989 0.762772
O O14 0.765838 0.000000 0.757986
#
# Coordination Sequence:
#
# PCOD9486288 Si02
#       5
#     8  16  16   8  16
#     4   7   8  10  16  34  67 100 129 170 223 266
#     4   7   9  12  22  42  69 101 137 177 220 263
#     4  10  19  32  51  74  98 125 159 195 232 275
#     4   9  18  34  55  75  97 128 162 192 225 275
#     4   8  12  21  38  58  80 112 153 189 221 267
#
# _framework density 23.694884999999999
#
# number of rings (size 3 to 8) (size 9 to 14) (size 15 to 20)
#    0.000    3.750    1.250    3.000    0.000    0.500 
#    0.000    0.625    0.000    0.750    0.000    0.875 
#    0.000    0.000    0.000    0.000    0.000   14.500 
#
# Total GULP energy -178491.703853 kJ/mol
# GULP energy per Si atom -5577.865745 kJ/mol
# Density = 2.364095 g / cm^3
# Si number density = 23.694885 Si / 1000 Ang^3
#
#
#
# Elastic Constant Matrix: (Units=GPa)
#
#
# Indices 1 2 3 4 5 6 
#
# 1 105.6057 -5.0729 14.9985 0.0000 0.0000 0.0000
# 2 -5.0729 98.8778 89.0441 0.0000 0.0000 0.0000
# 3 14.9985 89.0441 267.3737 0.0000 0.0000 0.0000
# 4 0.0000 0.0000 0.0000 -1.1023 0.0000 0.0000
# 5 0.0000 0.0000 0.0000 0.0000 -30.1479 0.0000
# 6 0.0000 0.0000 0.0000 0.0000 0.0000 -13.8439
#
#
#
# Elastic Compliance Matrix: (Units=1/GPa)
#
#
# Indices 1 2 3 4 5 6 
#
# 1 0.009681 0.001408 -0.001012 0.000000 0.000000 0.000000
# 2 0.001408 0.014651 -0.004958 0.000000 0.000000 0.000000
# 3 -0.001012 -0.004958 0.005448 0.000000 0.000000 0.000000
# 4 0.000000 0.000000 0.000000 -0.907216 0.000000 0.000000
# 5 0.000000 0.000000 0.000000 0.000000 -0.033170 0.000000
# 6 0.000000 0.000000 0.000000 0.000000 0.000000 -0.072234
#
#
# Mechanical properties :
#
#
# Convention : Reuss Voigt Hill
#
# Bulk Modulus (GPa) = 48.41421 74.42187 61.41804
# Shear Modulus (GPa) = -5.17154 15.84036 5.33441
#
# Velocity S-wave (km/s) = -1.47895 2.58837 1.50206
# Velocity P-wave (km/s) = 4.19050 6.35684 5.38376
#
# Compressibility (1/GPa) = 0.02065509
#
# Stress axis : x y z
#
# Youngs Moduli (GPa) = 103.30009 68.25572 183.55100
#
# Poissons Ratio (x) = -0.09610 0.18574
# Poissons Ratio (y) = -0.14544 0.91008
# Poissons Ratio (z) = 0.10453 0.33842
#
# Static dielectric constant tensor:
#      x y z
#    x 1.914740 0.000000 0.000000 
#    y 0.000000 1.933160 0.000000 
#    z 0.000000 0.000000 1.928350 
# 
# From -- ./inp_files/68720.got.cif
#   From: 2010.05.17/outbox.cif.g08.bks.cpg/sg65_35_cif.got.tgz:68720.got - 2010.06.03 17:01:31.
