data_PCOD9486470
_publ_section_title
;
Structure prediction by ZEFSAII (Michael W. Deem and Ramdas Pophale) SiO2 
 PCOD9486470
Probable space group: C M M M
;
_chemical_formula_sum "Si O2"
_cell_formula_units_Z 88
_cell_length_a 14.506804
_cell_length_b 18.344461
_cell_length_c 17.675245
_cell_angle_alpha 90.000000
_cell_angle_beta 90.000000
_cell_angle_gamma 90.000000
_cell_volume 4703.727366
_symmetry_space_group_name_H-M "C M M M"
_symmetry_group_IT_number 65
_symmetry_cell_setting 'orthorhombic'
loop_
_space_group_symop_operation_xyz
x,y,z
-x,-y,z
x,-y,-z
-x,y,-z
-x,-y,-z
x,y,-z
-x,y,z
x,-y,z
1/2+x,1/2+y,z
1/2-x,1/2-y,z
1/2+x,1/2-y,-z
1/2-x,1/2+y,-z
1/2-x,1/2-y,-z
1/2+x,1/2+y,-z
1/2-x,1/2+y,z
1/2+x,1/2-y,z
loop_
_atom_site_type_symbol
_atom_site_label
_atom_site_fract_x
_atom_site_fract_y
_atom_site_fract_z
Si Si1 0.797073 0.641315 0.851719
Si Si2 0.897553 0.413963 0.000000
Si Si3 0.853432 0.282722 0.585311
Si Si4 0.702103 0.917298 0.317316
Si Si5 0.097434 0.139380 0.333310
Si Si6 0.105408 0.797092 0.163569
O O1 0.800538 0.596627 0.773231
O O2 0.853764 0.715625 0.834975
O O3 0.690190 0.658112 0.872825
O O4 0.844979 0.607159 0.923995
O O5 0.906036 0.500000 0.000000
O O6 0.000000 0.380188 0.000000
O O7 0.879490 0.302982 0.500000
O O8 0.750000 0.250000 0.584892
O O9 0.853744 0.352854 0.640227
O O10 0.904543 0.211541 0.615401
O O11 0.808713 0.905522 0.343566
O O12 0.672681 0.000000 0.333891
O O13 0.102125 0.171414 0.248388
O O14 0.000000 0.099139 0.342642
O O15 0.000000 0.800015 0.133412
#
# Coordination Sequence:
#
# PCOD9486470 Si02
#       6
#    16   8  16  16  16  16
#     4  10  19  35  55  77 109 143 178 226 276 322
#     4  11  24  39  55  77 107 145 185 222 266 325
#     4   9  17  31  51  74 101 137 180 219 260 317
#     4  10  19  32  52  78 107 141 178 217 271 329
#     4   9  17  31  51  76 105 137 176 221 265 316
#     4   9  17  31  56  83 105 135 178 226 272 322
#
# _framework density 18.708566999999999
#
# number of rings (size 3 to 8) (size 9 to 14) (size 15 to 20)
#    0.000    2.455    1.818    1.091    0.000    2.545 
#    0.000    1.364    0.000    3.818    0.000    6.364 
#    0.000    0.000    0.000    0.000    0.000    0.000 
#
# Total GULP energy -244963.897649 kJ/mol
# GULP energy per Si atom -5567.361310 kJ/mol
# Density = 1.866599 g / cm^3
# Si number density = 18.708567 Si / 1000 Ang^3
#
#
#
# Elastic Constant Matrix: (Units=GPa)
#
#
# Indices 1 2 3 4 5 6 
#
# 1 102.2638 0.9357 25.5024 0.0000 0.0000 0.0000
# 2 0.9357 72.9595 27.7412 0.0000 0.0000 0.0000
# 3 25.5024 27.7412 76.6124 0.0000 0.0000 0.0000
# 4 0.0000 0.0000 0.0000 -4.5026 0.0000 0.0000
# 5 0.0000 0.0000 0.0000 0.0000 7.9430 0.0000
# 6 0.0000 0.0000 0.0000 0.0000 0.0000 10.5287
#
#
#
# Elastic Compliance Matrix: (Units=1/GPa)
#
#
# Indices 1 2 3 4 5 6 
#
# 1 0.010790 0.001423 -0.004107 0.000000 0.000000 0.000000
# 2 0.001423 0.016082 -0.006297 0.000000 0.000000 0.000000
# 3 -0.004107 -0.006297 0.016700 0.000000 0.000000 0.000000
# 4 0.000000 0.000000 0.000000 -0.222094 0.000000 0.000000
# 5 0.000000 0.000000 0.000000 0.000000 0.125897 0.000000
# 6 0.000000 0.000000 0.000000 0.000000 0.000000 0.094978
#
#
# Mechanical properties :
#
#
# Convention : Reuss Voigt Hill
#
# Bulk Modulus (GPa) = 39.04677 40.02159 39.53418
# Shear Modulus (GPa) = 72.61989 15.97093 44.29541
#
# Velocity S-wave (km/s) = 6.23704 2.92493 4.87113
# Velocity P-wave (km/s) = 8.53135 5.73110 7.26737
#
# Compressibility (1/GPa) = 0.02561031
#
# Stress axis : x y z
#
# Youngs Moduli (GPa) = 92.68006 62.18005 59.88019
#
# Poissons Ratio (x) = -0.08850 0.24593
# Poissons Ratio (y) = -0.13190 0.37707
# Poissons Ratio (z) = 0.38064 0.39156
#
# Static dielectric constant tensor:
#      x y z
#    x 1.727180 0.000000 0.000000 
#    y 0.000000 1.639380 0.000000 
#    z 0.000000 0.000000 1.627300 
# 
# From -- ./inp_files/52966.got.cif
#   From: 2010.05.17/outbox.cif.g08.bks.cpg/sg65_27_cif.got.tgz:52966.got - 2010.06.03 17:01:31.
