data_PCOD9486922
_publ_section_title
;
Structure prediction by ZEFSAII (Michael W. Deem and Ramdas Pophale) SiO2 
 PCOD9486922
Probable space group: C M M M
;
_chemical_formula_sum "Si O2"
_cell_formula_units_Z 120
_cell_length_a 26.660740
_cell_length_b 8.944598
_cell_length_c 27.712611
_cell_angle_alpha 90.000000
_cell_angle_beta 90.000000
_cell_angle_gamma 90.000000
_cell_volume 6608.615307
_symmetry_space_group_name_H-M "C M M M"
_symmetry_group_IT_number 65
_symmetry_cell_setting 'orthorhombic'
loop_
_space_group_symop_operation_xyz
x,y,z
-x,-y,z
x,-y,-z
-x,y,-z
-x,-y,-z
x,y,-z
-x,y,z
x,-y,z
1/2+x,1/2+y,z
1/2-x,1/2-y,z
1/2+x,1/2-y,-z
1/2-x,1/2+y,-z
1/2-x,1/2-y,-z
1/2+x,1/2+y,-z
1/2-x,1/2+y,z
1/2+x,1/2-y,z
loop_
_atom_site_type_symbol
_atom_site_label
_atom_site_fract_x
_atom_site_fract_y
_atom_site_fract_z
Si Si1 0.500000 0.817942 0.555555
Si Si2 0.841517 0.821656 0.053748
Si Si3 0.442281 0.678240 0.291151
Si Si4 0.803121 0.319986 0.556201
Si Si5 0.901309 0.680723 0.615211
Si Si6 0.556518 0.178669 0.915273
Si Si7 0.591586 0.822770 0.807435
Si Si8 0.699182 0.822096 0.850044
O O1 0.500000 0.767867 0.500000
O O2 0.550302 0.771688 0.583595
O O3 0.500000 0.000000 0.554955
O O4 0.899153 0.767814 0.059161
O O5 0.811781 0.742139 0.096657
O O6 0.838702 0.000000 0.059848
O O7 0.823599 0.782612 0.000000
O O8 0.500000 0.722564 0.301102
O O9 0.438511 0.500000 0.294135
O O10 0.407912 0.753541 0.331639
O O11 0.428438 0.732395 0.237737
O O12 0.812349 0.279451 0.500000
O O13 0.799504 0.500000 0.558420
O O14 0.750000 0.250000 0.570825
O O15 0.850043 0.273227 0.588852
O O16 0.901883 0.500000 0.617623
O O17 0.500000 0.215985 0.930499
O O18 0.562895 0.206297 0.857801
O O19 0.564343 0.000000 0.922514
O O20 0.649803 0.788035 0.818661
O O21 0.586924 0.000000 0.797536
O O22 0.750000 0.750000 0.830939
O O23 0.703958 0.000000 0.853009
#
# Coordination Sequence:
#
# PCOD9486922 Si02
#       8
#     8  16  16  16  16  16  16  16
#     4   9  16  28  51  81 107 135 177 227 272 315
#     4  10  21  35  51  75 108 144 180 217 260 314
#     4  11  23  36  52  78 112 144 175 215 264 319
#     4   9  18  33  54  80 107 138 180 225 267 315
#     4  10  19  33  54  79 107 142 182 223 268 320
#     4   9  18  33  53  77 104 136 176 222 269 319
#     4   9  19  36  57  79 102 133 175 217 260 315
#     4  10  21  38  60  83 106 134 171 219 270 321
#
# _framework density 18.158116
#
# number of rings (size 3 to 8) (size 9 to 14) (size 15 to 20)
#    0.000    2.333    0.667    2.800    0.000    8.000 
#    0.000    2.000    0.000    1.600    0.000    0.000 
#    0.000    0.000    0.000    0.000    0.000    0.000 
#
# Total GULP energy -334925.910013 kJ/mol
# GULP energy per Si atom -5582.098500 kJ/mol
# Density = 1.811679 g / cm^3
# Si number density = 18.158116 Si / 1000 Ang^3
#
#
#
# Elastic Constant Matrix: (Units=GPa)
#
#
# Indices 1 2 3 4 5 6 
#
# 1 94.2893 26.0930 17.4562 0.0000 0.0000 0.0000
# 2 26.0930 19.5870 19.6591 0.0000 0.0000 0.0000
# 3 17.4562 19.6591 64.0794 0.0000 0.0000 0.0000
# 4 0.0000 0.0000 0.0000 18.1373 0.0000 0.0000
# 5 0.0000 0.0000 0.0000 0.0000 2.0504 0.0000
# 6 0.0000 0.0000 0.0000 0.0000 0.0000 29.4663
#
#
#
# Elastic Compliance Matrix: (Units=1/GPa)
#
#
# Indices 1 2 3 4 5 6 
#
# 1 0.017298 -0.026463 0.003406 0.000000 0.000000 0.000000
# 2 -0.026463 0.114252 -0.027843 0.000000 0.000000 0.000000
# 3 0.003406 -0.027843 0.023220 0.000000 0.000000 0.000000
# 4 0.000000 0.000000 0.000000 0.055135 0.000000 0.000000
# 5 0.000000 0.000000 0.000000 0.000000 0.487707 0.000000
# 6 0.000000 0.000000 0.000000 0.000000 0.000000 0.033937
#
#
# Mechanical properties :
#
#
# Convention : Reuss Voigt Hill
#
# Bulk Modulus (GPa) = 18.87814 33.81914 26.34864
# Shear Modulus (GPa) = 5.87541 17.58063 11.72802
#
# Velocity S-wave (km/s) = 1.80075 3.11496 2.54418
# Velocity P-wave (km/s) = 3.83963 5.62161 4.81380
#
# Compressibility (1/GPa) = 0.05297131
#
# Stress axis : x y z
#
# Youngs Moduli (GPa) = 57.80966 8.75260 43.06692
#
# Poissons Ratio (x) = 0.23162 -0.14670
# Poissons Ratio (y) = 1.52980 1.19910
# Poissons Ratio (z) = -0.19692 0.24370
#
# Static dielectric constant tensor:
#      x y z
#    x 1.624370 0.000000 0.000000 
#    y 0.000000 1.605810 0.000000 
#    z 0.000000 0.000000 1.605030 
# 
# From -- ./inp_files/76178.got.cif
#   From: 2010.05.17/outbox.cif.g08.bks.cpg/sg65_39_cif.got.tgz:76178.got - 2010.06.03 17:01:31.
