data_PCOD9486563
_publ_section_title
;
Structure prediction by ZEFSAII (Michael W. Deem and Ramdas Pophale) SiO2 
 PCOD9486563
Probable space group: C M M M
;
_chemical_formula_sum "Si O2"
_cell_formula_units_Z 84
_cell_length_a 11.986940
_cell_length_b 22.829557
_cell_length_c 14.246380
_cell_angle_alpha 90.000000
_cell_angle_beta 90.000000
_cell_angle_gamma 90.000000
_cell_volume 3898.614916
_symmetry_space_group_name_H-M "C M M M"
_symmetry_group_IT_number 65
_symmetry_cell_setting 'orthorhombic'
loop_
_space_group_symop_operation_xyz
x,y,z
-x,-y,z
x,-y,-z
-x,y,-z
-x,-y,-z
x,y,-z
-x,y,z
x,-y,z
1/2+x,1/2+y,z
1/2-x,1/2-y,z
1/2+x,1/2-y,-z
1/2-x,1/2+y,-z
1/2-x,1/2-y,-z
1/2+x,1/2+y,-z
1/2-x,1/2+y,z
1/2+x,1/2-y,z
loop_
_atom_site_type_symbol
_atom_site_label
_atom_site_fract_x
_atom_site_fract_y
_atom_site_fract_z
Si Si1 0.128118 0.740278 0.709671
Si Si2 0.000000 0.907280 0.500000
Si Si3 0.625602 0.103310 0.312490
Si Si4 0.000000 0.932923 0.692997
Si Si5 0.790688 0.064142 0.167716
Si Si6 0.257649 0.933303 0.500000
Si Si7 0.129104 0.817599 0.101924
O O1 0.250000 0.750000 0.659054
O O2 0.125929 0.670463 0.721304
O O3 0.140125 0.776070 0.807476
O O4 0.000000 0.754192 0.673083
O O5 0.000000 0.886092 0.608818
O O6 0.875992 0.934281 0.500000
O O7 0.500000 0.085347 0.334147
O O8 0.680322 0.066145 0.230171
O O9 0.697892 0.097383 0.406598
O O10 0.891655 0.928740 0.757324
O O11 0.000000 0.000000 0.653436
O O12 0.798775 0.123327 0.108629
O O13 0.803697 0.000000 0.122329
O O14 0.298653 0.000000 0.500000
O O15 0.000000 0.837164 0.103481
O O16 0.147053 0.788854 0.000000
#
# Coordination Sequence:
#
# PCOD9486563 Si02
#       7
#    16   4  16   8  16   8  16
#     4  10  21  41  66  91 123 163 211 267 321 375
#     4  12  21  34  60  96 134 168 210 258 303 368
#     4  11  24  41  61  89 125 167 217 265 305 363
#     4  10  19  32  53  86 125 163 200 245 303 359
#     4  11  21  35  59  89 128 169 204 253 317 381
#     4  12  24  40  64  94 131 171 211 258 312 374
#     4  10  21  38  64  95 124 159 208 264 325 392
#
# _framework density 21.546112999999998
#
# number of rings (size 3 to 8) (size 9 to 14) (size 15 to 20)
#    0.000    1.333    4.762    1.714    0.000    2.667 
#    1.714    1.429    0.000    0.571    0.000    1.333 
#    0.000    0.000    0.000    0.000    0.000    0.000 
#
# Total GULP energy -233930.327613 kJ/mol
# GULP energy per Si atom -5569.769705 kJ/mol
# Density = 2.149707 g / cm^3
# Si number density = 21.546113 Si / 1000 Ang^3
#
#
#
# Elastic Constant Matrix: (Units=GPa)
#
#
# Indices 1 2 3 4 5 6 
#
# 1 151.2746 11.4172 11.7831 0.0000 0.0000 0.0000
# 2 11.4172 109.8453 28.6490 0.0000 0.0000 0.0000
# 3 11.7831 28.6490 57.1656 0.0000 0.0000 0.0000
# 4 0.0000 0.0000 0.0000 4.0136 0.0000 0.0000
# 5 0.0000 0.0000 0.0000 0.0000 -54.3458 0.0000
# 6 0.0000 0.0000 0.0000 0.0000 0.0000 19.7658
#
#
#
# Elastic Compliance Matrix: (Units=1/GPa)
#
#
# Indices 1 2 3 4 5 6 
#
# 1 0.006733 -0.000389 -0.001193 0.000000 0.000000 0.000000
# 2 -0.000389 0.010495 -0.005180 0.000000 0.000000 0.000000
# 3 -0.001193 -0.005180 0.020335 0.000000 0.000000 0.000000
# 4 0.000000 0.000000 0.000000 0.249150 0.000000 0.000000
# 5 0.000000 0.000000 0.000000 0.000000 -0.018401 0.000000
# 6 0.000000 0.000000 0.000000 0.000000 0.000000 0.050592
#
#
# Mechanical properties :
#
#
# Convention : Reuss Voigt Hill
#
# Bulk Modulus (GPa) = 41.59718 46.88711 44.24214
# Shear Modulus (GPa) = 14.68687 11.64915 13.16801
#
# Velocity S-wave (km/s) = 2.61367 2.32773 2.47484
# Velocity P-wave (km/s) = 5.33445 5.38823 5.36141
#
# Compressibility (1/GPa) = 0.02404009
#
# Stress axis : x y z
#
# Youngs Moduli (GPa) = 148.52768 95.28350 49.17702
#
# Poissons Ratio (x) = 0.03703 0.05867
# Poissons Ratio (y) = 0.05772 0.25471
# Poissons Ratio (z) = 0.17719 0.49352
#
# Static dielectric constant tensor:
#      x y z
#    x 1.820490 0.000000 0.000000 
#    y 0.000000 1.794420 0.000000 
#    z 0.000000 0.000000 1.808970 
# 
# From -- ./inp_files/38453.got.cif
#   From: 2010.05.17/outbox.cif.g08.bks.cpg/sg65_20_cif.got.tgz:38453.got - 2010.06.03 17:01:31.
