data_PCOD9486416
_publ_section_title
;
Structure prediction by ZEFSAII (Michael W. Deem and Ramdas Pophale) SiO2 
 PCOD9486416
Probable space group: C M M M
;
_chemical_formula_sum "Si O2"
_cell_formula_units_Z 100
_cell_length_a 26.929452
_cell_length_b 21.777756
_cell_length_c 10.114888
_cell_angle_alpha 90.000000
_cell_angle_beta 90.000000
_cell_angle_gamma 90.000000
_cell_volume 5932.007914
_symmetry_space_group_name_H-M "C M M M"
_symmetry_group_IT_number 65
_symmetry_cell_setting 'orthorhombic'
loop_
_space_group_symop_operation_xyz
x,y,z
-x,-y,z
x,-y,-z
-x,y,-z
-x,-y,-z
x,y,-z
-x,y,z
x,-y,z
1/2+x,1/2+y,z
1/2-x,1/2-y,z
1/2+x,1/2-y,-z
1/2-x,1/2+y,-z
1/2-x,1/2-y,-z
1/2+x,1/2+y,-z
1/2-x,1/2+y,z
1/2+x,1/2-y,z
loop_
_atom_site_type_symbol
_atom_site_label
_atom_site_fract_x
_atom_site_fract_y
_atom_site_fract_z
Si Si1 0.054839 0.760121 0.154896
Si Si2 0.791641 0.000000 0.148781
Si Si3 0.701274 0.000000 0.500000
Si Si4 0.340550 0.202750 0.156051
Si Si5 0.085444 0.134208 0.349034
Si Si6 0.306723 0.305788 0.646928
Si Si7 0.385921 0.500000 0.342728
Si Si8 0.776861 0.599596 0.272574
O O1 0.101048 0.715249 0.183248
O O2 0.060264 0.819968 0.246446
O O3 0.000000 0.732914 0.175470
O O4 0.059023 0.777419 0.000000
O O5 0.835945 0.000000 0.255870
O O6 0.757076 0.940867 0.174189
O O7 0.811513 0.000000 0.000000
O O8 0.704372 0.053585 0.615478
O O9 0.312249 0.254810 0.240536
O O10 0.320563 0.136997 0.201674
O O11 0.331862 0.210927 0.000000
O O12 0.067826 0.143903 0.500000
O O13 0.143807 0.152369 0.346198
O O14 0.083615 0.062181 0.317065
O O15 0.305990 0.277439 0.500000
O O16 0.260067 0.349556 0.666613
O O17 0.372452 0.500000 0.500000
#
# Coordination Sequence:
#
# PCOD9486416 Si02
#       8
#    16   8   4  16  16  16   8  16
#     4   9  19  38  59  77 100 132 170 218 278 334
#     4  11  23  32  48  74 106 148 188 221 257 300
#     4  10  24  34  54  78 103 152 191 220 246 298
#     4  10  22  36  53  80 111 138 172 225 279 323
#     4   9  18  31  51  76 103 138 179 223 259 302
#     4  10  19  32  52  76 106 144 184 217 253 309
#     4  10  19  33  52  71 103 149 192 218 252 304
#     4  11  21  34  52  73 110 147 183 218 257 310
#
# _framework density 16.857697999999999
#
# number of rings (size 3 to 8) (size 9 to 14) (size 15 to 20)
#    0.000    2.080    2.400    0.960    3.360    3.520 
#    0.000    0.400    0.000    2.400    0.000    2.800 
#    0.000   10.880    0.000    0.000    0.000    0.000 
#
# Total GULP energy -278343.936582 kJ/mol
# GULP energy per Si atom -5566.878732 kJ/mol
# Density = 1.681933 g / cm^3
# Si number density = 16.857698 Si / 1000 Ang^3
#
#
#
# Elastic Constant Matrix: (Units=GPa)
#
#
# Indices 1 2 3 4 5 6 
#
# 1 72.9024 34.0932 35.9527 0.0000 0.0000 0.0000
# 2 34.0932 76.7400 44.4956 0.0000 0.0000 0.0000
# 3 35.9527 44.4956 89.0002 0.0000 0.0000 0.0000
# 4 0.0000 0.0000 0.0000 29.1309 0.0000 0.0000
# 5 0.0000 0.0000 0.0000 0.0000 13.9973 0.0000
# 6 0.0000 0.0000 0.0000 0.0000 0.0000 9.5502
#
#
#
# Elastic Compliance Matrix: (Units=1/GPa)
#
#
# Indices 1 2 3 4 5 6 
#
# 1 0.018653 -0.005517 -0.004777 0.000000 0.000000 0.000000
# 2 -0.005517 0.019982 -0.007761 0.000000 0.000000 0.000000
# 3 -0.004777 -0.007761 0.017046 0.000000 0.000000 0.000000
# 4 0.000000 0.000000 0.000000 0.034328 0.000000 0.000000
# 5 0.000000 0.000000 0.000000 0.000000 0.071443 0.000000
# 6 0.000000 0.000000 0.000000 0.000000 0.000000 0.104710
#
#
# Mechanical properties :
#
#
# Convention : Reuss Voigt Hill
#
# Bulk Modulus (GPa) = 51.09772 51.96953 51.53363
# Shear Modulus (GPa) = 16.19194 18.80909 17.50052
#
# Velocity S-wave (km/s) = 3.10257 3.34392 3.22550
# Velocity P-wave (km/s) = 6.57355 6.76789 6.67143
#
# Compressibility (1/GPa) = 0.01957035
#
# Stress axis : x y z
#
# Youngs Moduli (GPa) = 53.61118 50.04398 58.66530
#
# Poissons Ratio (x) = 0.27611 0.28023
# Poissons Ratio (y) = 0.29579 0.45533
# Poissons Ratio (z) = 0.25608 0.38841
#
# Static dielectric constant tensor:
#      x y z
#    x 1.585060 0.000000 0.000000 
#    y 0.000000 1.557660 0.000000 
#    z 0.000000 0.000000 1.575370 
# 
# From -- ./inp_files/18711.got.cif
#   From: 2010.05.17/outbox.cif.g08.bks.cpg/sg65_10_cif.got.tgz:18711.got - 2010.06.03 17:01:31.
