data_PCOD9486426
_publ_section_title
;
Structure prediction by ZEFSAII (Michael W. Deem and Ramdas Pophale) SiO2 
 PCOD9486426
Probable space group: C M M M
;
_chemical_formula_sum "Si O2"
_cell_formula_units_Z 80
_cell_length_a 14.627119
_cell_length_b 10.596905
_cell_length_c 23.803964
_cell_angle_alpha 90.000000
_cell_angle_beta 90.000000
_cell_angle_gamma 90.000000
_cell_volume 3689.666562
_symmetry_space_group_name_H-M "C M M M"
_symmetry_group_IT_number 65
_symmetry_cell_setting 'orthorhombic'
loop_
_space_group_symop_operation_xyz
x,y,z
-x,-y,z
x,-y,-z
-x,y,-z
-x,-y,-z
x,y,-z
-x,y,z
x,-y,z
1/2+x,1/2+y,z
1/2-x,1/2-y,z
1/2+x,1/2-y,-z
1/2-x,1/2+y,-z
1/2-x,1/2-y,-z
1/2+x,1/2+y,-z
1/2-x,1/2+y,z
1/2+x,1/2-y,z
loop_
_atom_site_type_symbol
_atom_site_label
_atom_site_fract_x
_atom_site_fract_y
_atom_site_fract_z
Si Si1 0.361236 0.500000 0.435640
Si Si2 0.358969 0.747977 0.371777
Si Si3 0.388535 0.251130 0.868972
Si Si4 0.111712 0.500000 0.065670
Si Si5 0.362331 0.000000 0.434321
Si Si6 0.888800 0.000000 0.063709
Si Si7 0.609199 0.645570 0.750423
O O1 0.388915 0.500000 0.500000
O O2 0.393391 0.624732 0.404098
O O3 0.249484 0.500000 0.434404
O O4 0.250000 0.750000 0.379395
O O5 0.392737 0.875920 0.400501
O O6 0.375104 0.724267 0.306133
O O7 0.500000 0.245987 0.868371
O O8 0.358520 0.124071 0.900086
O O9 0.361421 0.373625 0.904525
O O10 0.358025 0.279160 0.805363
O O11 0.000000 0.500000 0.065149
O O12 0.139188 0.500000 0.000000
O O13 0.389502 0.000000 0.500000
O O14 0.000000 0.000000 0.063343
O O15 0.857172 0.000000 0.000000
O O16 0.500000 0.633360 0.756813
O O17 0.645239 0.500000 0.746574
#
# Coordination Sequence:
#
# PCOD9486426 Si02
#       7
#     8  16  16   8   8   8  16
#     4   9  16  29  51  75  99 129 164 203 248 294
#     4  10  19  32  52  77 102 129 164 208 248 290
#     4   9  16  26  40  61  90 126 160 193 239 289
#     4   9  16  25  38  60  93 127 158 197 244 292
#     4   9  18  31  49  75 101 125 160 207 256 298
#     4   9  14  21  36  58  85 119 158 195 234 280
#     4  10  19  33  52  72 100 136 171 204 239 291
#
# _framework density 21.682175999999998
#
# number of rings (size 3 to 8) (size 9 to 14) (size 15 to 20)
#    0.000    2.600    2.000    1.200    0.000    5.600 
#    0.000    1.500    0.000    3.600    0.000    0.000 
#    0.000    4.800    0.000    0.000    0.000    0.000 
#
# Total GULP energy -223417.224619 kJ/mol
# GULP energy per Si atom -5585.430615 kJ/mol
# Density = 2.163283 g / cm^3
# Si number density = 21.682176 Si / 1000 Ang^3
#
#
#
# Elastic Constant Matrix: (Units=GPa)
#
#
# Indices 1 2 3 4 5 6 
#
# 1 75.7740 8.9504 -0.8490 0.0000 0.0000 0.0000
# 2 8.9504 248.4296 160.2436 0.0000 0.0000 0.0000
# 3 -0.8490 160.2436 263.4286 0.0000 0.0000 0.0000
# 4 0.0000 0.0000 0.0000 39.8062 0.0000 0.0000
# 5 0.0000 0.0000 0.0000 0.0000 14.6841 0.0000
# 6 0.0000 0.0000 0.0000 0.0000 0.0000 -13.2675
#
#
#
# Elastic Compliance Matrix: (Units=1/GPa)
#
#
# Indices 1 2 3 4 5 6 
#
# 1 0.013302 -0.000834 0.000550 0.000000 0.000000 0.000000
# 2 -0.000834 0.006677 -0.004064 0.000000 0.000000 0.000000
# 3 0.000550 -0.004064 0.006270 0.000000 0.000000 0.000000
# 4 0.000000 0.000000 0.000000 0.025122 0.000000 0.000000
# 5 0.000000 0.000000 0.000000 0.000000 0.068101 0.000000
# 6 0.000000 0.000000 0.000000 0.000000 0.000000 -0.075372
#
#
# Mechanical properties :
#
#
# Convention : Reuss Voigt Hill
#
# Bulk Modulus (GPa) = 56.97153 102.70246 79.83700
# Shear Modulus (GPa) = 85.25713 36.19704 60.72709
#
# Velocity S-wave (km/s) = 6.27747 4.09031 5.29798
# Velocity P-wave (km/s) = 8.88116 8.35330 8.62127
#
# Compressibility (1/GPa) = 0.01755263
#
# Stress axis : x y z
#
# Youngs Moduli (GPa) = 75.17751 149.77055 159.48596
#
# Poissons Ratio (x) = 0.12494 -0.08777
# Poissons Ratio (y) = 0.06271 0.64819
# Poissons Ratio (z) = -0.04137 0.60870
#
# Static dielectric constant tensor:
#      x y z
#    x 1.857950 0.000000 0.000000 
#    y 0.000000 1.752200 0.000000 
#    z 0.000000 0.000000 1.751910 
# 
# From -- ./inp_files/70443.got.cif
#   From: 2010.05.17/outbox.cif.g08.bks.cpg/sg65_36_cif.got.tgz:70443.got - 2010.06.03 17:01:31.
