data_PCOD9486889
_publ_section_title
;
Structure prediction by ZEFSAII (Michael W. Deem and Ramdas Pophale) SiO2 
 PCOD9486889
Probable space group: C M M M
;
_chemical_formula_sum "Si O2"
_cell_formula_units_Z 104
_cell_length_a 8.809997
_cell_length_b 19.026367
_cell_length_c 34.433586
_cell_angle_alpha 90.000000
_cell_angle_beta 90.000000
_cell_angle_gamma 90.000000
_cell_volume 5771.834685
_symmetry_space_group_name_H-M "C M M M"
_symmetry_group_IT_number 65
_symmetry_cell_setting 'orthorhombic'
loop_
_space_group_symop_operation_xyz
x,y,z
-x,-y,z
x,-y,-z
-x,y,-z
-x,-y,-z
x,y,-z
-x,y,z
x,-y,z
1/2+x,1/2+y,z
1/2-x,1/2-y,z
1/2+x,1/2-y,-z
1/2-x,1/2+y,-z
1/2-x,1/2-y,-z
1/2+x,1/2+y,-z
1/2-x,1/2+y,z
1/2+x,1/2-y,z
loop_
_atom_site_type_symbol
_atom_site_label
_atom_site_fract_x
_atom_site_fract_y
_atom_site_fract_z
Si Si1 0.183268 0.581376 0.112325
Si Si2 0.317623 0.828562 0.415108
Si Si3 0.183453 0.672152 0.187433
Si Si4 0.317586 0.171681 0.500000
Si Si5 0.680688 0.417061 0.654880
Si Si6 0.817087 0.418048 0.262235
Si Si7 0.181527 0.173714 0.954896
O O1 0.227424 0.500000 0.116706
O O2 0.229500 0.627058 0.149756
O O3 0.252773 0.616110 0.074061
O O4 0.000000 0.584145 0.109824
O O5 0.500000 0.824894 0.412893
O O6 0.250000 0.750000 0.412600
O O7 0.274287 0.859051 0.457947
O O8 0.254519 0.874357 0.380068
O O9 0.250000 0.750000 0.186132
O O10 0.229929 0.630610 0.226374
O O11 0.000000 0.676076 0.187414
O O12 0.500000 0.176281 0.500000
O O13 0.250000 0.250000 0.500000
O O14 0.500000 0.407663 0.654411
O O15 0.714802 0.500000 0.650415
O O16 0.745411 0.395634 0.696900
O O17 0.776076 0.500000 0.255046
O O18 0.000000 0.415099 0.265412
O O19 0.250000 0.250000 0.944771
O O20 0.000000 0.176848 0.951662
O O21 0.220877 0.159311 0.000000
#
# Coordination Sequence:
#
# PCOD9486889 Si02
#       7
#    16  16  16   8  16  16  16
#     4  10  21  37  57  81 110 144 181 221 266 317
#     4  10  19  33  54  78 104 135 173 216 262 312
#     4  10  21  36  55  80 108 137 172 216 264 315
#     4   8  16  30  49  74 101 131 169 213 259 308
#     4  10  21  36  53  76 107 140 175 216 261 310
#     4   9  18  35  57  76  98 134 176 214 257 311
#     4  10  21  37  57  81 110 144 182 224 269 317
#
# _framework density 18.018533000000001
#
# number of rings (size 3 to 8) (size 9 to 14) (size 15 to 20)
#    0.000    2.308    0.000    2.308    0.000    8.000 
#    0.000    3.462    0.000    5.077    0.000    0.000 
#    0.000    0.000    0.000    0.000    0.000    0.000 
#
# Total GULP energy -290169.089925 kJ/mol
# GULP energy per Si atom -5580.174806 kJ/mol
# Density = 1.797752 g / cm^3
# Si number density = 18.018533 Si / 1000 Ang^3
#
#
#
# Elastic Constant Matrix: (Units=GPa)
#
#
# Indices 1 2 3 4 5 6 
#
# 1 23.4603 38.8197 46.8162 0.0000 0.0000 0.0000
# 2 38.8197 115.3445 104.1077 0.0000 0.0000 0.0000
# 3 46.8162 104.1077 165.1885 0.0000 0.0000 0.0000
# 4 0.0000 0.0000 0.0000 60.4734 0.0000 0.0000
# 5 0.0000 0.0000 0.0000 0.0000 19.6377 0.0000
# 6 0.0000 0.0000 0.0000 0.0000 0.0000 29.8600
#
#
#
# Elastic Compliance Matrix: (Units=1/GPa)
#
#
# Indices 1 2 3 4 5 6 
#
# 1 0.118377 -0.022171 -0.019576 0.000000 0.000000 0.000000
# 2 -0.022171 0.024260 -0.009006 0.000000 0.000000 0.000000
# 3 -0.019576 -0.009006 0.017278 0.000000 0.000000 0.000000
# 4 0.000000 0.000000 0.000000 0.016536 0.000000 0.000000
# 5 0.000000 0.000000 0.000000 0.000000 0.050922 0.000000
# 6 0.000000 0.000000 0.000000 0.000000 0.000000 0.033490
#
#
# Mechanical properties :
#
#
# Convention : Reuss Voigt Hill
#
# Bulk Modulus (GPa) = 17.12091 75.94228 46.53159
# Shear Modulus (GPa) = 13.09449 29.61088 21.35268
#
# Velocity S-wave (km/s) = 2.69871 4.05823 3.44618
# Velocity P-wave (km/s) = 4.38556 8.01232 6.45873
#
# Compressibility (1/GPa) = 0.05840812
#
# Stress axis : x y z
#
# Youngs Moduli (GPa) = 8.44757 41.21986 57.87757
#
# Poissons Ratio (x) = 0.91389 1.13304
# Poissons Ratio (y) = 0.18729 0.52125
# Poissons Ratio (z) = 0.16537 0.37123
#
# Static dielectric constant tensor:
#      x y z
#    x 1.606110 0.000000 0.000000 
#    y 0.000000 1.584250 0.000000 
#    z 0.000000 0.000000 1.620660 
# 
# From -- ./inp_files/73371.got.cif
#   From: 2010.05.17/outbox.cif.g08.bks.cpg/sg65_37_cif.got.tgz:73371.got - 2010.06.03 17:01:31.
