data_PCOD9486081
_publ_section_title
;
Structure prediction by ZEFSAII (Michael W. Deem and Ramdas Pophale) SiO2 
 PCOD9486081
Probable space group: C M M M
;
_chemical_formula_sum "Si O2"
_cell_formula_units_Z 120
_cell_length_a 21.035309
_cell_length_b 13.817509
_cell_length_c 22.971296
_cell_angle_alpha 90.000000
_cell_angle_beta 90.000000
_cell_angle_gamma 90.000000
_cell_volume 6676.735165
_symmetry_space_group_name_H-M "C M M M"
_symmetry_group_IT_number 65
_symmetry_cell_setting 'orthorhombic'
loop_
_space_group_symop_operation_xyz
x,y,z
-x,-y,z
x,-y,-z
-x,y,-z
-x,-y,-z
x,y,-z
-x,y,z
x,-y,z
1/2+x,1/2+y,z
1/2-x,1/2-y,z
1/2+x,1/2-y,-z
1/2-x,1/2+y,-z
1/2-x,1/2-y,-z
1/2+x,1/2+y,-z
1/2-x,1/2+y,z
1/2+x,1/2-y,z
loop_
_atom_site_type_symbol
_atom_site_label
_atom_site_fract_x
_atom_site_fract_y
_atom_site_fract_z
Si Si1 0.573623 0.883763 0.567921
Si Si2 0.208649 0.118080 0.933548
Si Si3 0.652952 0.883354 0.888664
Si Si4 0.715561 0.388020 0.291154
Si Si5 0.071614 0.617828 0.000000
Si Si6 0.928028 0.298068 0.214056
Si Si7 0.134651 0.887012 0.178710
Si Si8 0.649550 0.801332 0.673081
O O1 0.585355 0.861031 0.500000
O O2 0.500000 0.857259 0.581088
O O3 0.622938 0.834242 0.611321
O O4 0.578508 0.000000 0.574449
O O5 0.276458 0.147637 0.906751
O O6 0.155544 0.142818 0.886104
O O7 0.209772 0.000000 0.935692
O O8 0.200255 0.151839 0.000000
O O9 0.623021 0.846021 0.829159
O O10 0.653764 0.000000 0.885851
O O11 0.607928 0.853201 0.941937
O O12 0.704458 0.500000 0.306083
O O13 0.694635 0.375931 0.223304
O O14 0.671721 0.310604 0.324692
O O15 0.788043 0.359493 0.304957
O O16 0.070821 0.500000 0.000000
O O17 0.000000 0.653566 0.000000
O O18 0.919299 0.183758 0.202068
O O19 0.905593 0.317504 0.279478
O O20 0.000000 0.329994 0.202828
O O21 0.117455 0.000000 0.179104
#
# Coordination Sequence:
#
# PCOD9486081 Si02
#       8
#    16  16  16  16   8  16  16  16
#     4   9  18  33  54  81 113 149 186 219 255 304
#     4   9  16  30  53  75  92 117 160 209 255 305
#     4  10  19  32  48  70  99 126 153 195 249 305
#     4   9  18  33  53  79 107 137 171 211 265 322
#     4   9  16  28  44  59  87 131 160 177 223 297
#     4  11  23  35  49  74 101 128 170 210 247 305
#     4   9  19  36  54  70  95 129 164 212 266 305
#     4  10  19  33  55  78 106 139 171 215 263 305
#
# _framework density 17.972856
#
# number of rings (size 3 to 8) (size 9 to 14) (size 15 to 20)
#    0.000    2.467    0.667    2.400    0.000    4.800 
#    1.200    2.000    0.000    2.400    0.000    2.800 
#    0.000    0.000    0.000    0.000    0.000    0.000 
#
# Total GULP energy -334806.500780 kJ/mol
# GULP energy per Si atom -5580.108346 kJ/mol
# Density = 1.793195 g / cm^3
# Si number density = 17.972856 Si / 1000 Ang^3
#
#
#
# Elastic Constant Matrix: (Units=GPa)
#
#
# Indices 1 2 3 4 5 6 
#
# 1 45.1973 11.3748 30.1947 0.0000 0.0000 0.0000
# 2 11.3748 63.9434 31.1866 0.0000 0.0000 0.0000
# 3 30.1947 31.1866 95.7445 0.0000 0.0000 0.0000
# 4 0.0000 0.0000 0.0000 24.3051 0.0000 0.0000
# 5 0.0000 0.0000 0.0000 0.0000 22.3295 0.0000
# 6 0.0000 0.0000 0.0000 0.0000 0.0000 13.3578
#
#
#
# Elastic Compliance Matrix: (Units=1/GPa)
#
#
# Indices 1 2 3 4 5 6 
#
# 1 0.028066 -0.000803 -0.008589 0.000000 0.000000 0.000000
# 2 -0.000803 0.018616 -0.005810 0.000000 0.000000 0.000000
# 3 -0.008589 -0.005810 0.015046 0.000000 0.000000 0.000000
# 4 0.000000 0.000000 0.000000 0.041144 0.000000 0.000000
# 5 0.000000 0.000000 0.000000 0.000000 0.044784 0.000000
# 6 0.000000 0.000000 0.000000 0.000000 0.000000 0.074863
#
#
# Mechanical properties :
#
#
# Convention : Reuss Voigt Hill
#
# Bulk Modulus (GPa) = 31.92729 38.93303 35.43016
# Shear Modulus (GPa) = 18.98517 20.80707 19.89612
#
# Velocity S-wave (km/s) = 3.25364 3.40618 3.33078
# Velocity P-wave (km/s) = 5.64957 6.09742 5.87776
#
# Compressibility (1/GPa) = 0.03132117
#
# Stress axis : x y z
#
# Youngs Moduli (GPa) = 35.63075 53.71864 66.46370
#
# Poissons Ratio (x) = 0.04315 0.57088
# Poissons Ratio (y) = 0.02862 0.38617
# Poissons Ratio (z) = 0.30604 0.31212
#
# Static dielectric constant tensor:
#      x y z
#    x 1.605390 0.000000 0.000000 
#    y 0.000000 1.661840 0.000000 
#    z 0.000000 0.000000 1.597200 
# 
# From -- ./inp_files/64750.got.cif
#   From: 2010.05.17/outbox.cif.g08.bks.cpg/sg65_33_cif.got.tgz:64750.got - 2010.06.03 17:01:31.
