data_PCOD9486953
_publ_section_title
;
Structure prediction by ZEFSAII (Michael W. Deem and Ramdas Pophale) SiO2 
 PCOD9486953
Probable space group: C M M M
;
_chemical_formula_sum "Si O2"
_cell_formula_units_Z 88
_cell_length_a 8.579421
_cell_length_b 24.234527
_cell_length_c 23.957603
_cell_angle_alpha 90.000000
_cell_angle_beta 90.000000
_cell_angle_gamma 90.000000
_cell_volume 4981.221929
_symmetry_space_group_name_H-M "C M M M"
_symmetry_group_IT_number 65
_symmetry_cell_setting 'orthorhombic'
loop_
_space_group_symop_operation_xyz
x,y,z
-x,-y,z
x,-y,-z
-x,y,-z
-x,-y,-z
x,y,-z
-x,y,z
x,-y,z
1/2+x,1/2+y,z
1/2-x,1/2-y,z
1/2+x,1/2-y,-z
1/2-x,1/2+y,-z
1/2-x,1/2-y,-z
1/2+x,1/2+y,-z
1/2-x,1/2+y,z
1/2+x,1/2-y,z
loop_
_atom_site_type_symbol
_atom_site_label
_atom_site_fract_x
_atom_site_fract_y
_atom_site_fract_z
Si Si1 0.312366 0.812779 0.377407
Si Si2 0.186740 0.500000 0.240811
Si Si3 0.688488 0.614614 0.063085
Si Si4 0.686979 0.617211 0.274425
Si Si5 0.687461 0.812293 0.500000
Si Si6 0.688106 0.311693 0.166567
Si Si7 0.313051 0.000000 0.110403
O O1 0.500000 0.811111 0.374390
O O2 0.250000 0.750000 0.371483
O O3 0.247351 0.850821 0.328603
O O4 0.264908 0.834818 0.439302
O O5 0.249463 0.444568 0.269086
O O6 0.236246 0.500000 0.175510
O O7 0.000000 0.500000 0.242412
O O8 0.500000 0.613065 0.064211
O O9 0.740333 0.658648 0.109495
O O10 0.749399 0.554706 0.080944
O O11 0.738136 0.627952 0.000000
O O12 0.500000 0.615923 0.275032
O O13 0.737860 0.651318 0.219331
O O14 0.500000 0.811384 0.500000
O O15 0.750000 0.750000 0.500000
O O16 0.500000 0.310142 0.166624
O O17 0.750000 0.250000 0.171294
O O18 0.500000 0.000000 0.108216
#
# Coordination Sequence:
#
# PCOD9486953 Si02
#       7
#    16   8  16  16   8  16   8
#     4  10  19  33  54  83 117 151 188 226 268 319
#     4  11  23  38  58  82 107 140 177 224 276 329
#     4  10  21  38  58  78 104 142 181 218 267 326
#     4  11  22  37  57  81 109 144 182 225 275 326
#     4   8  16  30  50  77 112 151 186 224 266 310
#     4  10  22  37  54  77 106 140 178 219 265 320
#     4  11  22  36  57  84 109 133 171 224 277 320
#
# _framework density 17.666346999999998
#
# number of rings (size 3 to 8) (size 9 to 14) (size 15 to 20)
#    0.000    1.818    1.818    2.455    0.000    6.909 
#    0.000    0.000    0.000    0.545    0.000    3.818 
#    0.000    0.000    0.000    0.000    0.000    0.000 
#
# Total GULP energy -245629.521749 kJ/mol
# GULP energy per Si atom -5582.489131 kJ/mol
# Density = 1.762614 g / cm^3
# Si number density = 17.666347 Si / 1000 Ang^3
#
#
#
# Elastic Constant Matrix: (Units=GPa)
#
#
# Indices 1 2 3 4 5 6 
#
# 1 28.5111 28.4433 39.8276 0.0000 0.0000 0.0000
# 2 28.4433 143.5494 90.4248 0.0000 0.0000 0.0000
# 3 39.8276 90.4248 189.4471 0.0000 0.0000 0.0000
# 4 0.0000 0.0000 0.0000 -23.3135 0.0000 0.0000
# 5 0.0000 0.0000 0.0000 0.0000 25.2823 0.0000
# 6 0.0000 0.0000 0.0000 0.0000 0.0000 29.8368
#
#
#
# Elastic Compliance Matrix: (Units=1/GPa)
#
#
# Indices 1 2 3 4 5 6 
#
# 1 0.051943 -0.004881 -0.008590 0.000000 0.000000 0.000000
# 2 -0.004881 0.010420 -0.003947 0.000000 0.000000 0.000000
# 3 -0.008590 -0.003947 0.008969 0.000000 0.000000 0.000000
# 4 0.000000 0.000000 0.000000 -0.042894 0.000000 0.000000
# 5 0.000000 0.000000 0.000000 0.000000 0.039553 0.000000
# 6 0.000000 0.000000 0.000000 0.000000 0.000000 0.033516
#
#
# Mechanical properties :
#
#
# Convention : Reuss Voigt Hill
#
# Bulk Modulus (GPa) = 27.40140 75.43323 51.41731
# Shear Modulus (GPa) = 33.66786 19.88193 26.77489
#
# Velocity S-wave (km/s) = 4.37024 3.35836 3.89728
# Velocity P-wave (km/s) = 6.40387 7.60458 7.02990
#
# Compressibility (1/GPa) = 0.03649449
#
# Stress axis : x y z
#
# Youngs Moduli (GPa) = 19.25171 95.97011 111.50002
#
# Poissons Ratio (x) = 0.46843 0.95783
# Poissons Ratio (y) = 0.09397 0.44013
# Poissons Ratio (z) = 0.16538 0.37883
#
# Static dielectric constant tensor:
#      x y z
#    x 1.602130 0.000000 0.000000 
#    y 0.000000 1.549760 0.000000 
#    z 0.000000 0.000000 1.629530 
# 
# From -- ./inp_files/59911.got.cif
#   From: 2010.05.17/outbox.cif.g08.bks.cpg/sg65_30_cif.got.tgz:59911.got - 2010.06.03 17:01:31.
