data_PCOD9486029
_publ_section_title
;
Structure prediction by ZEFSAII (Michael W. Deem and Ramdas Pophale) SiO2 
 PCOD9486029
Probable space group: C M M M
;
_chemical_formula_sum "Si O2"
_cell_formula_units_Z 96
_cell_length_a 23.205635
_cell_length_b 25.214856
_cell_length_c 7.804618
_cell_angle_alpha 90.000000
_cell_angle_beta 90.000000
_cell_angle_gamma 90.000000
_cell_volume 4566.690726
_symmetry_space_group_name_H-M "C M M M"
_symmetry_group_IT_number 65
_symmetry_cell_setting 'orthorhombic'
loop_
_space_group_symop_operation_xyz
x,y,z
-x,-y,z
x,-y,-z
-x,y,-z
-x,-y,-z
x,y,-z
-x,y,z
x,-y,z
1/2+x,1/2+y,z
1/2-x,1/2-y,z
1/2+x,1/2-y,-z
1/2-x,1/2+y,-z
1/2-x,1/2-y,-z
1/2+x,1/2+y,-z
1/2-x,1/2+y,z
1/2+x,1/2-y,z
loop_
_atom_site_type_symbol
_atom_site_label
_atom_site_fract_x
_atom_site_fract_y
_atom_site_fract_z
Si Si1 0.064249 0.683254 0.793849
Si Si2 0.224365 0.808554 0.295010
Si Si3 0.594342 0.300197 0.198469
Si Si4 0.154369 0.000000 0.790273
Si Si5 0.713975 0.000000 0.203629
Si Si6 0.175034 0.384659 0.702370
Si Si7 0.437134 0.413825 0.209691
O O1 0.079476 0.742511 0.727050
O O2 0.115108 0.642500 0.753166
O O3 0.000000 0.668243 0.734101
O O4 0.062782 0.686267 0.000000
O O5 0.215693 0.815912 0.500000
O O6 0.250000 0.750000 0.269794
O O7 0.162554 0.809804 0.207985
O O8 0.270331 0.851332 0.227076
O O9 0.567259 0.353478 0.273163
O O10 0.575714 0.298155 0.000000
O O11 0.116854 0.050820 0.735077
O O12 0.220086 0.000000 0.728028
O O13 0.155661 0.000000 0.000000
O O14 0.681892 0.946186 0.254756
O O15 0.718153 0.000000 0.000000
O O16 0.178971 0.378634 0.500000
O O17 0.500000 0.435744 0.256162
O O18 0.434795 0.413042 0.000000
#
# Coordination Sequence:
#
# PCOD9486029 Si02
#       7
#    16  16  16   8   8  16  16
#     4  10  21  37  57  83 115 149 186 234 292 346
#     4  10  20  35  54  80 115 152 189 232 281 331
#     4  10  19  31  52  82 114 149 191 235 283 336
#     4   9  17  29  48  76 109 146 187 228 274 327
#     4  11  23  40  62  87 116 144 183 237 290 341
#     4  11  23  40  61  85 115 150 191 232 281 341
#     4   9  16  27  45  73 111 151 188 227 270 320
#
# _framework density 21.021788999999998
#
# number of rings (size 3 to 8) (size 9 to 14) (size 15 to 20)
#    0.000    2.000    1.667    2.500    0.000    6.333 
#    0.000    0.417    0.000    4.000    0.000    0.000 
#    0.000    6.667    0.000    0.000    0.000    0.000 
#
# Total GULP energy -268088.131100 kJ/mol
# GULP energy per Si atom -5585.169398 kJ/mol
# Density = 2.097394 g / cm^3
# Si number density = 21.021789 Si / 1000 Ang^3
#
#
#
# Elastic Constant Matrix: (Units=GPa)
#
#
# Indices 1 2 3 4 5 6 
#
# 1 150.3090 76.0183 7.3031 0.0000 0.0000 0.0000
# 2 76.0183 143.8332 7.7636 0.0000 0.0000 0.0000
# 3 7.3031 7.7636 29.8231 0.0000 0.0000 0.0000
# 4 0.0000 0.0000 0.0000 1.6007 0.0000 0.0000
# 5 0.0000 0.0000 0.0000 0.0000 -63.2822 0.0000
# 6 0.0000 0.0000 0.0000 0.0000 0.0000 10.5518
#
#
#
# Elastic Compliance Matrix: (Units=1/GPa)
#
#
# Indices 1 2 3 4 5 6 
#
# 1 0.009109 -0.004761 -0.000991 0.000000 0.000000 0.000000
# 2 -0.004761 0.009540 -0.001318 0.000000 0.000000 0.000000
# 3 -0.000991 -0.001318 0.034117 0.000000 0.000000 0.000000
# 4 0.000000 0.000000 0.000000 0.624734 0.000000 0.000000
# 5 0.000000 0.000000 0.000000 0.000000 -0.015802 0.000000
# 6 0.000000 0.000000 0.000000 0.000000 0.000000 0.094770
#
#
# Mechanical properties :
#
#
# Convention : Reuss Voigt Hill
#
# Bulk Modulus (GPa) = 25.88915 56.23728 41.06321
# Shear Modulus (GPa) = 6.38177 5.29941 5.84059
#
# Velocity S-wave (km/s) = 1.74424 1.58946 1.66865
# Velocity P-wave (km/s) = 4.04952 5.49350 4.82582
#
# Compressibility (1/GPa) = 0.03862622
#
# Stress axis : x y z
#
# Youngs Moduli (GPa) = 109.78378 104.82502 29.31111
#
# Poissons Ratio (x) = 0.49904 0.02905
# Poissons Ratio (y) = 0.52264 0.03862
# Poissons Ratio (z) = 0.10882 0.13812
#
# Static dielectric constant tensor:
#      x y z
#    x 1.766780 0.000000 0.000000 
#    y 0.000000 1.709540 0.000000 
#    z 0.000000 0.000000 1.763860 
# 
# From -- ./inp_files/14359.got.cif
#   From: 2010.05.17/outbox.cif.g08.bks.cpg/sg65_8_cif.got.tgz:14359.got - 2010.06.03 17:01:31.
