data_PCOD9486801
_publ_section_title
;
Structure prediction by ZEFSAII (Michael W. Deem and Ramdas Pophale) SiO2 
 PCOD9486801
Probable space group: C M M M
;
_chemical_formula_sum "Si O2"
_cell_formula_units_Z 116
_cell_length_a 26.445827
_cell_length_b 24.058313
_cell_length_c 7.544464
_cell_angle_alpha 90.000000
_cell_angle_beta 90.000000
_cell_angle_gamma 90.000000
_cell_volume 4800.104740
_symmetry_space_group_name_H-M "C M M M"
_symmetry_group_IT_number 65
_symmetry_cell_setting 'orthorhombic'
loop_
_space_group_symop_operation_xyz
x,y,z
-x,-y,z
x,-y,-z
-x,y,-z
-x,-y,-z
x,y,-z
-x,y,z
x,-y,z
1/2+x,1/2+y,z
1/2-x,1/2-y,z
1/2+x,1/2-y,-z
1/2-x,1/2+y,-z
1/2-x,1/2-y,-z
1/2+x,1/2+y,-z
1/2-x,1/2+y,z
1/2+x,1/2-y,z
loop_
_atom_site_type_symbol
_atom_site_label
_atom_site_fract_x
_atom_site_fract_y
_atom_site_fract_z
Si Si1 0.724123 0.855334 0.701020
Si Si2 0.420836 0.559844 0.299584
Si Si3 0.632855 0.063852 0.788198
Si Si4 0.150666 0.731458 0.714545
Si Si5 0.308479 0.439380 0.201388
Si Si6 0.076920 0.817750 0.284124
Si Si7 0.556914 0.153787 0.288422
Si Si8 0.500000 0.276012 0.000000
O O1 0.739953 0.843552 0.500000
O O2 0.676612 0.898134 0.703867
O O3 0.701226 0.798570 0.781288
O O4 0.769722 0.889558 0.782419
O O5 0.440482 0.558811 0.500000
O O6 0.433571 0.500000 0.216540
O O7 0.359894 0.563920 0.309684
O O8 0.435202 0.619428 0.224884
O O9 0.579025 0.092483 0.747658
O O10 0.635156 0.000000 0.730036
O O11 0.641057 0.065515 0.000000
O O12 0.153420 0.726713 0.500000
O O13 0.133776 0.794584 0.749444
O O14 0.103179 0.692950 0.773131
O O15 0.283811 0.500000 0.240553
O O16 0.326684 0.440871 0.000000
O O17 0.068267 0.812907 0.500000
O O18 0.042584 0.781294 0.158202
O O19 0.553693 0.162300 0.500000
O O20 0.500000 0.161963 0.214433
#
# Coordination Sequence:
#
# PCOD9486801 Si02
#       8
#    16  16  16  16  16  16  16   4
#     4  10  19  33  53  78 107 145 195 241 284 344
#     4   9  19  38  65  92 119 159 201 236 289 354
#     4  10  20  32  44  63  97 136 173 224 291 344
#     4   8  17  35  56  76 107 150 187 233 302 346
#     4  10  20  33  54  85 120 157 196 244 299 350
#     4  10  22  43  65  90 129 160 193 254 299 348
#     4   9  18  32  50  70  91 126 179 228 277 345
#     4  12  26  40  65 104 118 152 217 234 294 380
#
# _framework density 24.166139000000001
#
# number of rings (size 3 to 8) (size 9 to 14) (size 15 to 20)
#    0.000    2.483    0.000    2.690    1.931    4.138 
#    6.207    2.759    0.000    5.793    0.000    0.000 
#    0.000    0.000    0.000    0.000    0.000    0.000 
#
# Total GULP energy -323030.820396 kJ/mol
# GULP energy per Si atom -5569.496903 kJ/mol
# Density = 2.411114 g / cm^3
# Si number density = 24.166139 Si / 1000 Ang^3
#
#
#
# Elastic Constant Matrix: (Units=GPa)
#
#
# Indices 1 2 3 4 5 6 
#
# 1 76.1453 19.7095 11.2415 0.0000 0.0000 0.0000
# 2 19.7095 102.6219 0.0615 0.0000 0.0000 0.0000
# 3 11.2415 0.0615 79.1089 0.0000 0.0000 0.0000
# 4 0.0000 0.0000 0.0000 28.0420 0.0000 0.0000
# 5 0.0000 0.0000 0.0000 0.0000 218.9997 0.0000
# 6 0.0000 0.0000 0.0000 0.0000 0.0000 -88.7137
#
#
#
# Elastic Compliance Matrix: (Units=1/GPa)
#
#
# Indices 1 2 3 4 5 6 
#
# 1 0.014131 -0.002713 -0.002006 0.000000 0.000000 0.000000
# 2 -0.002713 0.010265 0.000378 0.000000 0.000000 0.000000
# 3 -0.002006 0.000378 0.012926 0.000000 0.000000 0.000000
# 4 0.000000 0.000000 0.000000 0.035661 0.000000 0.000000
# 5 0.000000 0.000000 0.000000 0.000000 0.004566 0.000000
# 6 0.000000 0.000000 0.000000 0.000000 0.000000 -0.011272
#
#
# Mechanical properties :
#
#
# Convention : Reuss Voigt Hill
#
# Bulk Modulus (GPa) = 34.91681 35.54456 35.23069
# Shear Modulus (GPa) = 59.16759 46.78985 52.97872
#
# Velocity S-wave (km/s) = 4.95347 4.40497 4.68725
# Velocity P-wave (km/s) = 6.86992 6.37276 6.62600
#
# Compressibility (1/GPa) = 0.02863950
#
# Stress axis : x y z
#
# Youngs Moduli (GPa) = 70.76586 97.41555 77.36610
#
# Poissons Ratio (x) = 0.26427 0.15519
# Poissons Ratio (y) = 0.19197 -0.02921
# Poissons Ratio (z) = 0.14195 -0.03678
#
# Static dielectric constant tensor:
#      x y z
#    x 1.937590 0.000000 0.000000 
#    y 0.000000 2.005170 0.000000 
#    z 0.000000 0.000000 1.989130 
# 
# From -- ./inp_files/16884.got.cif
#   From: 2010.05.17/outbox.cif.g08.bks.cpg/sg65_9_cif.got.tgz:16884.got - 2010.06.03 17:01:31.
