data_PCOD9486830
_publ_section_title
;
Structure prediction by ZEFSAII (Michael W. Deem and Ramdas Pophale) SiO2 
 PCOD9486830
Probable space group: C M M M
;
_chemical_formula_sum "Si O2"
_cell_formula_units_Z 64
_cell_length_a 11.253973
_cell_length_b 14.911054
_cell_length_c 19.338541
_cell_angle_alpha 90.000000
_cell_angle_beta 90.000000
_cell_angle_gamma 90.000000
_cell_volume 3245.173474
_symmetry_space_group_name_H-M "C M M M"
_symmetry_group_IT_number 65
_symmetry_cell_setting 'orthorhombic'
loop_
_space_group_symop_operation_xyz
x,y,z
-x,-y,z
x,-y,-z
-x,y,-z
-x,-y,-z
x,y,-z
-x,y,z
x,-y,z
1/2+x,1/2+y,z
1/2-x,1/2-y,z
1/2+x,1/2-y,-z
1/2-x,1/2+y,-z
1/2-x,1/2-y,-z
1/2+x,1/2+y,-z
1/2-x,1/2+y,z
1/2+x,1/2-y,z
loop_
_atom_site_type_symbol
_atom_site_label
_atom_site_fract_x
_atom_site_fract_y
_atom_site_fract_z
Si Si1 0.364157 0.815197 0.500000
Si Si2 0.143714 0.392911 0.074410
Si Si3 0.000000 0.895264 0.583027
Si Si4 0.638662 0.890316 0.224416
Si Si5 0.752703 0.392186 0.632378
O O1 0.500000 0.781972 0.500000
O O2 0.250000 0.750000 0.500000
O O3 0.342729 0.869878 0.570569
O O4 0.167032 0.500000 0.073407
O O5 0.185990 0.359260 0.149289
O O6 0.000000 0.383552 0.075536
O O7 0.186441 0.356508 0.000000
O O8 0.122395 0.855691 0.611590
O O9 0.000000 0.898031 0.500000
O O10 0.000000 0.000000 0.604614
O O11 0.500000 0.865576 0.230699
O O12 0.706915 0.859837 0.292581
O O13 0.642290 0.000000 0.223520
O O14 0.745678 0.500000 0.635054
#
# Coordination Sequence:
#
# PCOD9486830 Si02
#       5
#     8  16   8  16  16
#     4  12  27  39  52  72  98 129 158 195 245 297
#     4   7   9  14  26  48  82 119 144 166 213 277
#     4   9  16  28  48  70  87 115 151 199 246 280
#     4   8  13  21  36  61  89 113 144 189 230 270
#     4  10  19  33  54  73  92 120 162 205 244 278
#
# _framework density 19.721596000000002
#
# number of rings (size 3 to 8) (size 9 to 14) (size 15 to 20)
#    0.000    3.125    1.250    3.375    1.750    2.000 
#    0.000    0.000    0.000    0.000    0.000    0.875 
#    0.000    8.000    0.000    0.500    0.000    1.750 
#
# Total GULP energy -178165.667903 kJ/mol
# GULP energy per Si atom -5567.677122 kJ/mol
# Density = 1.967671 g / cm^3
# Si number density = 19.721596 Si / 1000 Ang^3
#
#
#
# Elastic Constant Matrix: (Units=GPa)
#
#
# Indices 1 2 3 4 5 6 
#
# 1 95.1982 13.5698 65.9201 0.0000 0.0000 0.0000
# 2 13.5698 26.2146 15.0109 0.0000 0.0000 0.0000
# 3 65.9201 15.0109 223.6142 0.0000 0.0000 0.0000
# 4 0.0000 0.0000 0.0000 -6.3882 0.0000 0.0000
# 5 0.0000 0.0000 0.0000 0.0000 -3.5866 0.0000
# 6 0.0000 0.0000 0.0000 0.0000 0.0000 8.3924
#
#
#
# Elastic Compliance Matrix: (Units=1/GPa)
#
#
# Indices 1 2 3 4 5 6 
#
# 1 0.013803 -0.005008 -0.003733 0.000000 0.000000 0.000000
# 2 -0.005008 0.041488 -0.001309 0.000000 0.000000 0.000000
# 3 -0.003733 -0.001309 0.005660 0.000000 0.000000 0.000000
# 4 0.000000 0.000000 0.000000 -0.156540 0.000000 0.000000
# 5 0.000000 0.000000 0.000000 0.000000 -0.278819 0.000000
# 6 0.000000 0.000000 0.000000 0.000000 0.000000 0.119155
#
#
# Mechanical properties :
#
#
# Convention : Reuss Voigt Hill
#
# Bulk Modulus (GPa) = 24.47798 59.33650 41.90724
# Shear Modulus (GPa) = -22.56978 16.38529 -3.09225
#
# Velocity S-wave (km/s) = -3.38660 2.88554 -1.25354
# Velocity P-wave (km/s) = 1.68919 6.42294 4.38183
#
# Compressibility (1/GPa) = 0.04085304
#
# Stress axis : x y z
#
# Youngs Moduli (GPa) = 72.44782 24.10318 176.66956
#
# Poissons Ratio (x) = 0.12070 0.65949
# Poissons Ratio (y) = 0.36278 0.23124
# Poissons Ratio (z) = 0.27044 0.03155
#
# Static dielectric constant tensor:
#      x y z
#    x 1.681070 0.000000 0.000000 
#    y 0.000000 1.714340 0.000000 
#    z 0.000000 0.000000 1.757940 
# 
# From -- ./inp_files/51250.got.cif
#   From: 2010.05.17/outbox.cif.g08.bks.cpg/sg65_26_cif.got.tgz:51250.got - 2010.06.03 17:01:31.
