data_PCOD9486912
_publ_section_title
;
Structure prediction by ZEFSAII (Michael W. Deem and Ramdas Pophale) SiO2 
 PCOD9486912
Probable space group: C M M M
;
_chemical_formula_sum "Si O2"
_cell_formula_units_Z 80
_cell_length_a 18.637736
_cell_length_b 8.775961
_cell_length_c 26.959932
_cell_angle_alpha 90.000000
_cell_angle_beta 90.000000
_cell_angle_gamma 90.000000
_cell_volume 4409.675511
_symmetry_space_group_name_H-M "C M M M"
_symmetry_group_IT_number 65
_symmetry_cell_setting 'orthorhombic'
loop_
_space_group_symop_operation_xyz
x,y,z
-x,-y,z
x,-y,-z
-x,y,-z
-x,-y,-z
x,y,-z
-x,y,z
x,-y,z
1/2+x,1/2+y,z
1/2-x,1/2-y,z
1/2+x,1/2-y,-z
1/2-x,1/2+y,-z
1/2-x,1/2-y,-z
1/2+x,1/2+y,-z
1/2-x,1/2+y,z
1/2+x,1/2-y,z
loop_
_atom_site_type_symbol
_atom_site_label
_atom_site_fract_x
_atom_site_fract_y
_atom_site_fract_z
Si Si1 0.669398 0.316790 0.391337
Si Si2 0.330072 0.683126 0.500000
Si Si3 0.583286 0.184017 0.299286
Si Si4 0.083493 0.316438 0.896199
Si Si5 0.829488 0.684285 0.201003
Si Si6 0.412904 0.676808 0.000000
O O1 0.673356 0.500000 0.388460
O O2 0.750000 0.250000 0.387101
O O3 0.639171 0.272968 0.446194
O O4 0.621392 0.253494 0.347203
O O5 0.326067 0.500000 0.500000
O O6 0.250000 0.750000 0.500000
O O7 0.500000 0.228321 0.296444
O O8 0.625232 0.230161 0.249439
O O9 0.586677 0.000000 0.302440
O O10 0.084417 0.500000 0.898114
O O11 0.130143 0.266581 0.849241
O O12 0.000000 0.269713 0.889610
O O13 0.110810 0.253906 0.948803
O O14 0.826327 0.500000 0.200586
O O15 0.750000 0.750000 0.203419
O O16 0.393675 0.500000 0.000000
O O17 0.500000 0.689767 0.000000
#
# Coordination Sequence:
#
# PCOD9486912 Si02
#       6
#    16   8  16  16  16   8
#     4  10  19  33  54  79 106 137 174 214 257 306
#     4   8  16  30  49  74 103 135 171 211 253 300
#     4  10  21  37  55  76 104 137 173 215 262 310
#     4   9  17  32  54  76  99 132 172 207 242 293
#     4  10  21  36  54  76 102 133 169 210 256 305
#     4   9  17  29  48  77 108 133 161 203 252 295
#
# _framework density 18.141923999999999
#
# number of rings (size 3 to 8) (size 9 to 14) (size 15 to 20)
#    0.000    2.500    0.000    2.100    0.000    8.000 
#    0.000    1.000    0.000    6.600    0.000    0.000 
#    0.000    0.000    0.000    0.000    0.000    0.000 
#
# Total GULP energy -223063.223400 kJ/mol
# GULP energy per Si atom -5576.580585 kJ/mol
# Density = 1.810063 g / cm^3
# Si number density = 18.141924 Si / 1000 Ang^3
#
#
#
# Elastic Constant Matrix: (Units=GPa)
#
#
# Indices 1 2 3 4 5 6 
#
# 1 110.5198 29.1049 104.6937 0.0000 0.0000 0.0000
# 2 29.1049 15.1252 46.5064 0.0000 0.0000 0.0000
# 3 104.6937 46.5064 234.9113 0.0000 0.0000 0.0000
# 4 0.0000 0.0000 0.0000 95.4412 0.0000 0.0000
# 5 0.0000 0.0000 0.0000 0.0000 33.2297 0.0000
# 6 0.0000 0.0000 0.0000 0.0000 0.0000 25.4824
#
#
#
# Elastic Compliance Matrix: (Units=1/GPa)
#
#
# Indices 1 2 3 4 5 6 
#
# 1 0.019231 -0.027225 -0.003181 0.000000 0.000000 0.000000
# 2 -0.027225 0.207512 -0.028949 0.000000 0.000000 0.000000
# 3 -0.003181 -0.028949 0.011406 0.000000 0.000000 0.000000
# 4 0.000000 0.000000 0.000000 0.010478 0.000000 0.000000
# 5 0.000000 0.000000 0.000000 0.000000 0.030094 0.000000
# 6 0.000000 0.000000 0.000000 0.000000 0.000000 0.039243
#
#
# Mechanical properties :
#
#
# Convention : Reuss Voigt Hill
#
# Bulk Modulus (GPa) = 8.37242 80.12958 44.25100
# Shear Modulus (GPa) = 10.49354 42.84742 26.67048
#
# Velocity S-wave (km/s) = 2.40763 4.86510 3.83835
# Velocity P-wave (km/s) = 3.51481 8.70764 6.63991
#
# Compressibility (1/GPa) = 0.11943981
#
# Stress axis : x y z
#
# Youngs Moduli (GPa) = 51.99979 4.81901 87.67568
#
# Poissons Ratio (x) = 0.13120 0.27889
# Poissons Ratio (y) = 1.41567 2.53810
# Poissons Ratio (z) = 0.16541 0.13950
#
# Static dielectric constant tensor:
#      x y z
#    x 1.590690 0.000000 0.000000 
#    y 0.000000 1.616620 0.000000 
#    z 0.000000 0.000000 1.637120 
# 
# From -- ./inp_files/70866.got.cif
#   From: 2010.05.17/outbox.cif.g08.bks.cpg/sg65_36_cif.got.tgz:70866.got - 2010.06.03 17:01:31.
