data_PCOD9486965
_publ_section_title
;
Structure prediction by ZEFSAII (Michael W. Deem and Ramdas Pophale) SiO2 
 PCOD9486965
Probable space group: C M M M
;
_chemical_formula_sum "Si O2"
_cell_formula_units_Z 88
_cell_length_a 18.912941
_cell_length_b 29.139734
_cell_length_c 8.229143
_cell_angle_alpha 90.000000
_cell_angle_beta 90.000000
_cell_angle_gamma 90.000000
_cell_volume 4535.229407
_symmetry_space_group_name_H-M "C M M M"
_symmetry_group_IT_number 65
_symmetry_cell_setting 'orthorhombic'
loop_
_space_group_symop_operation_xyz
x,y,z
-x,-y,z
x,-y,-z
-x,y,-z
-x,-y,-z
x,y,-z
-x,y,z
x,-y,z
1/2+x,1/2+y,z
1/2-x,1/2-y,z
1/2+x,1/2-y,-z
1/2-x,1/2+y,-z
1/2-x,1/2-y,-z
1/2+x,1/2+y,-z
1/2-x,1/2+y,z
1/2+x,1/2-y,z
loop_
_atom_site_type_symbol
_atom_site_label
_atom_site_fract_x
_atom_site_fract_y
_atom_site_fract_z
Si Si1 0.420483 0.207894 0.804004
Si Si2 0.578783 0.446538 0.696163
Si Si3 0.210027 0.886203 0.806450
Si Si4 0.685218 0.717249 0.801864
Si Si5 0.000000 0.446876 0.698777
Si Si6 0.136004 0.388401 0.693481
O O1 0.500000 0.202511 0.741327
O O2 0.384301 0.255105 0.748850
O O3 0.375931 0.163207 0.757097
O O4 0.422459 0.209111 0.000000
O O5 0.580485 0.444530 0.500000
O O6 0.500000 0.430854 0.748588
O O7 0.585976 0.500000 0.742763
O O8 0.643466 0.417373 0.762342
O O9 0.195440 0.834453 0.743094
O O10 0.285369 0.903749 0.741328
O O11 0.216586 0.883731 0.000000
O O12 0.750000 0.750000 0.754803
O O13 0.684445 0.715458 0.000000
O O14 0.070881 0.420077 0.753022
O O15 0.000000 0.500000 0.749899
O O16 0.000000 0.446540 0.500000
O O17 0.131415 0.387443 0.500000
#
# Coordination Sequence:
#
# PCOD9486965 Si02
#       6
#    16  16  16  16   8  16
#     4  10  19  33  55  78 104 144 192 235 281 336
#     4   9  20  41  65  86 114 153 190 227 284 353
#     4  11  22  36  59  89 119 149 192 241 284 334
#     4   9  17  32  52  76 109 149 186 224 275 335
#     4   9  20  38  57  77 105 145 191 237 284 341
#     4  11  21  35  56  81 110 147 193 238 288 346
#
# _framework density 19.403649000000001
#
# number of rings (size 3 to 8) (size 9 to 14) (size 15 to 20)
#    0.000    2.091    2.727    1.636    0.000    2.182 
#    0.000    7.273    0.000    3.818    0.000    0.000 
#    0.000    0.000    0.000    0.000    0.000    0.000 
#
# Total GULP energy -245551.503365 kJ/mol
# GULP energy per Si atom -5580.715986 kJ/mol
# Density = 1.935949 g / cm^3
# Si number density = 19.403649 Si / 1000 Ang^3
#
#
#
# Elastic Constant Matrix: (Units=GPa)
#
#
# Indices 1 2 3 4 5 6 
#
# 1 153.1251 62.0921 9.9062 0.0000 0.0000 0.0000
# 2 62.0921 95.3215 8.4212 0.0000 0.0000 0.0000
# 3 9.9062 8.4212 13.4279 0.0000 0.0000 0.0000
# 4 0.0000 0.0000 0.0000 27.2951 0.0000 0.0000
# 5 0.0000 0.0000 0.0000 0.0000 25.9390 0.0000
# 6 0.0000 0.0000 0.0000 0.0000 0.0000 33.9414
#
#
#
# Elastic Compliance Matrix: (Units=1/GPa)
#
#
# Indices 1 2 3 4 5 6 
#
# 1 0.008998 -0.005584 -0.003136 0.000000 0.000000 0.000000
# 2 -0.005584 0.014572 -0.005019 0.000000 0.000000 0.000000
# 3 -0.003136 -0.005019 0.079933 0.000000 0.000000 0.000000
# 4 0.000000 0.000000 0.000000 0.036637 0.000000 0.000000
# 5 0.000000 0.000000 0.000000 0.000000 0.038552 0.000000
# 6 0.000000 0.000000 0.000000 0.000000 0.000000 0.029463
#
#
# Mechanical properties :
#
#
# Convention : Reuss Voigt Hill
#
# Bulk Modulus (GPa) = 13.15363 46.96815 30.06089
# Shear Modulus (GPa) = 19.15904 29.53209 24.34557
#
# Velocity S-wave (km/s) = 3.14569 3.90550 3.54600
# Velocity P-wave (km/s) = 4.47074 6.67799 5.68256
#
# Compressibility (1/GPa) = 0.07602463
#
# Stress axis : x y z
#
# Youngs Moduli (GPa) = 111.13777 68.62626 12.51045
#
# Poissons Ratio (x) = 0.38322 0.03923
# Poissons Ratio (y) = 0.62061 0.06279
# Poissons Ratio (z) = 0.34853 0.34443
#
# Static dielectric constant tensor:
#      x y z
#    x 1.694700 0.000000 0.000000 
#    y 0.000000 1.661730 0.000000 
#    z 0.000000 0.000000 1.686010 
# 
# From -- ./inp_files/10166.got.cif
#   From: 2010.05.17/outbox.cif.g08.bks.cpg/sg65_6_cif.got.tgz:10166.got - 2010.06.03 17:01:31.
