data_PCOD9486952
_publ_section_title
;
Structure prediction by ZEFSAII (Michael W. Deem and Ramdas Pophale) SiO2 
 PCOD9486952
Probable space group: C M M M
;
_chemical_formula_sum "Si O2"
_cell_formula_units_Z 88
_cell_length_a 30.683475
_cell_length_b 20.400919
_cell_length_c 7.926996
_cell_angle_alpha 90.000000
_cell_angle_beta 90.000000
_cell_angle_gamma 90.000000
_cell_volume 4962.070312
_symmetry_space_group_name_H-M "C M M M"
_symmetry_group_IT_number 65
_symmetry_cell_setting 'orthorhombic'
loop_
_space_group_symop_operation_xyz
x,y,z
-x,-y,z
x,-y,-z
-x,y,-z
-x,-y,-z
x,y,-z
-x,y,z
x,-y,z
1/2+x,1/2+y,z
1/2-x,1/2-y,z
1/2+x,1/2-y,-z
1/2-x,1/2+y,-z
1/2-x,1/2-y,-z
1/2+x,1/2+y,-z
1/2-x,1/2+y,z
1/2+x,1/2-y,z
loop_
_atom_site_type_symbol
_atom_site_label
_atom_site_fract_x
_atom_site_fract_y
_atom_site_fract_z
Si Si1 0.416579 0.138849 0.800925
Si Si2 0.097018 0.886895 0.805709
Si Si3 0.205519 0.208728 0.500000
Si Si4 0.500000 0.223110 0.701251
Si Si5 0.950686 0.500000 0.698576
Si Si6 0.500000 0.626435 0.703936
Si Si7 0.339490 0.573762 0.500000
Si Si8 0.143609 0.751005 0.801587
O O1 0.458547 0.181880 0.756822
O O2 0.424841 0.065583 0.742037
O O3 0.375985 0.181880 0.740680
O O4 0.412337 0.136633 0.000000
O O5 0.129099 0.916542 0.664090
O O6 0.106798 0.808390 0.791703
O O7 0.046304 0.901616 0.766551
O O8 0.106898 0.905655 0.000000
O O9 0.250000 0.250000 0.500000
O O10 0.198257 0.129363 0.500000
O O11 0.180581 0.229199 0.328825
O O12 0.500000 0.226632 0.500000
O O13 0.500000 0.297571 0.763480
O O14 0.956193 0.500000 0.500000
O O15 0.000000 0.500000 0.775218
O O16 0.500000 0.623731 0.500000
O O17 0.322235 0.500000 0.500000
O O18 0.156447 0.747793 0.000000
#
# Coordination Sequence:
#
# PCOD9486952 Si02
#       8
#    16  16   8   8   8   8   8  16
#     4  11  21  33  48  70 104 147 191 238 285 330
#     4  10  19  33  54  83 116 155 198 234 274 321
#     4  10  22  40  69  95 113 139 175 222 286 356
#     4  11  21  26  46  73 105 147 189 244 286 320
#     4  11  23  33  43  65 102 152 204 244 276 322
#     4  11  19  29  48  78 116 155 195 245 283 311
#     4  10  22  41  62  86 119 148 182 231 276 332
#     4   9  20  35  57  86 114 141 181 235 285 334
#
# _framework density 17.734532999999999
#
# number of rings (size 3 to 8) (size 9 to 14) (size 15 to 20)
#    0.000    1.727    3.636    1.364    2.545    1.818 
#    0.000    0.909    2.000    1.091    0.000    0.000 
#    0.000    0.000    0.000    0.000    0.000    0.000 
#
# Total GULP energy -245279.911809 kJ/mol
# GULP energy per Si atom -5574.543450 kJ/mol
# Density = 1.769417 g / cm^3
# Si number density = 17.734533 Si / 1000 Ang^3
#
#
#
# Elastic Constant Matrix: (Units=GPa)
#
#
# Indices 1 2 3 4 5 6 
#
# 1 77.1268 32.7512 30.2737 0.0000 0.0000 0.0000
# 2 32.7512 106.8893 28.4567 0.0000 0.0000 0.0000
# 3 30.2737 28.4567 74.9772 0.0000 0.0000 0.0000
# 4 0.0000 0.0000 0.0000 6.8367 0.0000 0.0000
# 5 0.0000 0.0000 0.0000 0.0000 18.8875 0.0000
# 6 0.0000 0.0000 0.0000 0.0000 0.0000 12.7960
#
#
#
# Elastic Compliance Matrix: (Units=1/GPa)
#
#
# Indices 1 2 3 4 5 6 
#
# 1 0.016612 -0.003676 -0.005312 0.000000 0.000000 0.000000
# 2 -0.003676 0.011220 -0.002774 0.000000 0.000000 0.000000
# 3 -0.005312 -0.002774 0.016535 0.000000 0.000000 0.000000
# 4 0.000000 0.000000 0.000000 0.146268 0.000000 0.000000
# 5 0.000000 0.000000 0.000000 0.000000 0.052945 0.000000
# 6 0.000000 0.000000 0.000000 0.000000 0.000000 0.078150
#
#
# Mechanical properties :
#
#
# Convention : Reuss Voigt Hill
#
# Bulk Modulus (GPa) = 47.97850 49.10628 48.54239
# Shear Modulus (GPa) = 14.19637 18.87148 16.53393
#
# Velocity S-wave (km/s) = 2.83237 3.26561 3.05667
# Velocity P-wave (km/s) = 6.14889 6.47832 6.31576
#
# Compressibility (1/GPa) = 0.02084267
#
# Stress axis : x y z
#
# Youngs Moduli (GPa) = 60.19872 89.12413 60.47651
#
# Poissons Ratio (x) = 0.32758 0.32127
# Poissons Ratio (y) = 0.22127 0.16779
# Poissons Ratio (z) = 0.31979 0.24727
#
# Static dielectric constant tensor:
#      x y z
#    x 1.596470 0.000000 0.000000 
#    y 0.000000 1.606190 0.000000 
#    z 0.000000 0.000000 1.611450 
# 
# From -- ./inp_files/14123.got.cif
#   From: 2010.05.17/outbox.cif.g08.bks.cpg/sg65_8_cif.got.tgz:14123.got - 2010.06.03 17:01:31.
