data_PCOD9486453
_publ_section_title
;
Structure prediction by ZEFSAII (Michael W. Deem and Ramdas Pophale) SiO2 
 PCOD9486453
Probable space group: C M M M
;
_chemical_formula_sum "Si O2"
_cell_formula_units_Z 88
_cell_length_a 20.954853
_cell_length_b 13.745908
_cell_length_c 15.715492
_cell_angle_alpha 90.000000
_cell_angle_beta 90.000000
_cell_angle_gamma 90.000000
_cell_volume 4526.745029
_symmetry_space_group_name_H-M "C M M M"
_symmetry_group_IT_number 65
_symmetry_cell_setting 'orthorhombic'
loop_
_space_group_symop_operation_xyz
x,y,z
-x,-y,z
x,-y,-z
-x,y,-z
-x,-y,-z
x,y,-z
-x,y,z
x,-y,z
1/2+x,1/2+y,z
1/2-x,1/2-y,z
1/2+x,1/2-y,-z
1/2-x,1/2+y,-z
1/2-x,1/2-y,-z
1/2+x,1/2+y,-z
1/2-x,1/2+y,z
1/2+x,1/2-y,z
loop_
_atom_site_type_symbol
_atom_site_label
_atom_site_fract_x
_atom_site_fract_y
_atom_site_fract_z
Si Si1 0.639112 0.884744 0.093941
Si Si2 0.805272 0.116121 0.705919
Si Si3 0.250000 0.750000 0.849521
Si Si4 0.820093 0.382377 0.403892
Si Si5 0.428015 0.882003 0.269839
Si Si6 0.071915 0.117947 0.596687
O O1 0.702100 0.819143 0.099802
O O2 0.596029 0.857035 0.175008
O O3 0.654698 0.000000 0.103673
O O4 0.609499 0.872773 0.000000
O O5 0.790988 0.179100 0.788677
O O6 0.747608 0.137482 0.640271
O O7 0.872117 0.140685 0.661950
O O8 0.803155 0.000000 0.723922
O O9 0.823985 0.344539 0.500000
O O10 0.824125 0.500000 0.408700
O O11 0.877297 0.351621 0.341529
O O12 0.500000 0.848340 0.285077
O O13 0.428937 0.000000 0.272515
O O14 0.085380 0.151347 0.500000
O O15 0.000000 0.148608 0.619663
O O16 0.071273 0.000000 0.593298
#
# Coordination Sequence:
#
# PCOD9486453 Si02
#       6
#    16  16   8  16  16  16
#     4  10  21  38  59  82 108 137 175 224 274 327
#     4  10  19  32  52  77 108 144 184 225 267 317
#     4  12  21  34  55  82 106 142 173 220 271 330
#     4   9  16  28  48  74 106 146 186 220 259 308
#     4   9  17  31  52  78 107 140 179 222 268 317
#     4   8  14  27  49  75 102 138 186 234 275 314
#
# _framework density 19.440017999999998
#
# number of rings (size 3 to 8) (size 9 to 14) (size 15 to 20)
#    0.000    2.545    1.818    1.909    0.000    2.909 
#    0.000    6.364    0.000    0.000    0.000    0.000 
#    0.000    0.000    0.000   16.364    0.000    0.364 
#
# Total GULP energy -245648.269209 kJ/mol
# GULP energy per Si atom -5582.915209 kJ/mol
# Density = 1.939577 g / cm^3
# Si number density = 19.440018 Si / 1000 Ang^3
#
#
#
# Elastic Constant Matrix: (Units=GPa)
#
#
# Indices 1 2 3 4 5 6 
#
# 1 100.4566 10.9363 36.7464 0.0000 0.0000 0.0000
# 2 10.9363 84.3119 17.9354 0.0000 0.0000 0.0000
# 3 36.7464 17.9354 110.5674 0.0000 0.0000 0.0000
# 4 0.0000 0.0000 0.0000 -7.8852 0.0000 0.0000
# 5 0.0000 0.0000 0.0000 0.0000 14.9381 0.0000
# 6 0.0000 0.0000 0.0000 0.0000 0.0000 -4.2157
#
#
#
# Elastic Compliance Matrix: (Units=1/GPa)
#
#
# Indices 1 2 3 4 5 6 
#
# 1 0.011371 -0.000695 -0.003666 0.000000 0.000000 0.000000
# 2 -0.000695 0.012327 -0.001769 0.000000 0.000000 0.000000
# 3 -0.003666 -0.001769 0.010550 0.000000 0.000000 0.000000
# 4 0.000000 0.000000 0.000000 -0.126820 0.000000 0.000000
# 5 0.000000 0.000000 0.000000 0.000000 0.066943 0.000000
# 6 0.000000 0.000000 0.000000 0.000000 0.000000 -0.237210
#
#
# Mechanical properties :
#
#
# Convention : Reuss Voigt Hill
#
# Bulk Modulus (GPa) = 45.47956 47.39691 46.43824
# Shear Modulus (GPa) = -20.55502 15.88196 -2.33653
#
# Velocity S-wave (km/s) = -3.25523 2.86137 -1.09751
# Velocity P-wave (km/s) = 3.05236 5.94564 4.72586
#
# Compressibility (1/GPa) = 0.02198790
#
# Stress axis : x y z
#
# Youngs Moduli (GPa) = 87.94001 81.12201 94.78962
#
# Poissons Ratio (x) = 0.05638 0.34754
# Poissons Ratio (y) = 0.06112 0.16765
# Poissons Ratio (z) = 0.32243 0.14347
#
# Static dielectric constant tensor:
#      x y z
#    x 1.664330 0.000000 0.000000 
#    y 0.000000 1.716080 0.000000 
#    z 0.000000 0.000000 1.668900 
# 
# From -- ./inp_files/43969.got.cif
#   From: 2010.05.17/outbox.cif.g08.bks.cpg/sg65_22_cif.got.tgz:43969.got - 2010.06.03 17:01:31.
