data_PCOD9486596
_publ_section_title
;
Structure prediction by ZEFSAII (Michael W. Deem and Ramdas Pophale) SiO2 
 PCOD9486596
Probable space group: C M M M
;
_chemical_formula_sum "Si O2"
_cell_formula_units_Z 56
_cell_length_a 18.165854
_cell_length_b 7.847989
_cell_length_c 20.182438
_cell_angle_alpha 90.000000
_cell_angle_beta 90.000000
_cell_angle_gamma 90.000000
_cell_volume 2877.317798
_symmetry_space_group_name_H-M "C M M M"
_symmetry_group_IT_number 65
_symmetry_cell_setting 'orthorhombic'
loop_
_space_group_symop_operation_xyz
x,y,z
-x,-y,z
x,-y,-z
-x,y,-z
-x,-y,-z
x,y,-z
-x,y,z
x,-y,z
1/2+x,1/2+y,z
1/2-x,1/2-y,z
1/2+x,1/2-y,-z
1/2-x,1/2+y,-z
1/2-x,1/2-y,-z
1/2+x,1/2+y,-z
1/2-x,1/2+y,z
1/2+x,1/2-y,z
loop_
_atom_site_type_symbol
_atom_site_label
_atom_site_fract_x
_atom_site_fract_y
_atom_site_fract_z
Si Si1 0.334702 0.193890 0.845585
Si Si2 0.585985 0.299487 0.284215
Si Si3 0.587100 0.205143 0.571540
Si Si4 0.086588 0.000000 0.078906
O O1 0.250000 0.250000 0.843503
O O2 0.368412 0.205196 0.771847
O O3 0.377530 0.331666 0.889648
O O4 0.341161 0.000000 0.870077
O O5 0.500000 0.243652 0.282933
O O6 0.587769 0.500000 0.268764
O O7 0.615808 0.273729 0.358794
O O8 0.617946 0.262551 0.500000
O O9 0.500000 0.250186 0.570792
O O10 0.591808 0.000000 0.573543
O O11 0.000000 0.000000 0.094366
O O12 0.096644 0.000000 0.000000
#
# Coordination Sequence:
#
# PCOD9486596 Si02
#       4
#    16  16  16   8
#     4  12  24  43  67  96 130 172 215 260 318 377
#     4  10  19  32  54  84 120 160 208 265 316 371
#     4   8  14  25  42  70 109 153 204 259 313 368
#     4  11  26  48  72 102 136 166 208 261 310 376
#
# _framework density 19.462569999999999
#
# number of rings (size 3 to 8) (size 9 to 14) (size 15 to 20)
#    0.000    1.857    2.857    2.571    0.000    5.143 
#    0.000    4.286    0.000    0.857    0.000    0.000 
#    0.000    0.000    0.000    0.000    0.000    0.000 
#
# Total GULP energy -156283.181272 kJ/mol
# GULP energy per Si atom -5581.542188 kJ/mol
# Density = 1.941827 g / cm^3
# Si number density = 19.462570 Si / 1000 Ang^3
#
#
#
# Elastic Constant Matrix: (Units=GPa)
#
#
# Indices 1 2 3 4 5 6 
#
# 1 83.7215 48.7090 71.4937 0.0000 0.0000 0.0000
# 2 48.7090 124.9142 57.6444 0.0000 0.0000 0.0000
# 3 71.4937 57.6444 104.1834 0.0000 0.0000 0.0000
# 4 0.0000 0.0000 0.0000 -37.9302 0.0000 0.0000
# 5 0.0000 0.0000 0.0000 0.0000 -16.4315 0.0000
# 6 0.0000 0.0000 0.0000 0.0000 0.0000 22.4513
#
#
#
# Elastic Compliance Matrix: (Units=1/GPa)
#
#
# Indices 1 2 3 4 5 6 
#
# 1 0.029621 -0.002914 -0.018714 0.000000 0.000000 0.000000
# 2 -0.002914 0.011037 -0.004107 0.000000 0.000000 0.000000
# 3 -0.018714 -0.004107 0.024713 0.000000 0.000000 0.000000
# 4 0.000000 0.000000 0.000000 -0.026364 0.000000 0.000000
# 5 0.000000 0.000000 0.000000 0.000000 -0.060859 0.000000
# 6 0.000000 0.000000 0.000000 0.000000 0.000000 0.044541
#
#
# Mechanical properties :
#
#
# Convention : Reuss Voigt Hill
#
# Bulk Modulus (GPa) = 71.94173 74.27927 73.11050
# Shear Modulus (GPa) = 63.45730 2.61607 33.03668
#
# Velocity S-wave (km/s) = 5.71626 1.16063 4.12448
# Velocity P-wave (km/s) = 8.97841 6.32804 7.76711
#
# Compressibility (1/GPa) = 0.01390014
#
# Stress axis : x y z
#
# Youngs Moduli (GPa) = 33.76006 90.60331 40.46438
#
# Poissons Ratio (x) = 0.26404 0.75726
# Poissons Ratio (y) = 0.09838 0.16619
# Poissons Ratio (z) = 0.63179 0.37211
#
# Static dielectric constant tensor:
#      x y z
#    x 1.653210 0.000000 0.000000 
#    y 0.000000 1.681560 0.000000 
#    z 0.000000 0.000000 1.708400 
# 
# From -- ./inp_files/63214.got.cif
#   From: 2010.05.17/outbox.cif.g08.bks.cpg/sg65_32_cif.got.tgz:63214.got - 2010.06.03 17:01:31.
