data_PCOD9486729
_publ_section_title
;
Structure prediction by ZEFSAII (Michael W. Deem and Ramdas Pophale) SiO2 
 PCOD9486729
Probable space group: C M M M
;
_chemical_formula_sum "Si O2"
_cell_formula_units_Z 80
_cell_length_a 23.132121
_cell_length_b 7.887272
_cell_length_c 22.650926
_cell_angle_alpha 90.000000
_cell_angle_beta 90.000000
_cell_angle_gamma 90.000000
_cell_volume 4132.646279
_symmetry_space_group_name_H-M "C M M M"
_symmetry_group_IT_number 65
_symmetry_cell_setting 'orthorhombic'
loop_
_space_group_symop_operation_xyz
x,y,z
-x,-y,z
x,-y,-z
-x,y,-z
-x,-y,-z
x,y,-z
-x,y,z
x,-y,z
1/2+x,1/2+y,z
1/2-x,1/2-y,z
1/2+x,1/2-y,-z
1/2-x,1/2+y,-z
1/2-x,1/2-y,-z
1/2+x,1/2+y,-z
1/2-x,1/2+y,z
1/2+x,1/2-y,z
loop_
_atom_site_type_symbol
_atom_site_label
_atom_site_fract_x
_atom_site_fract_y
_atom_site_fract_z
Si Si1 0.379977 0.296148 0.882955
Si Si2 0.934916 0.706205 0.569295
Si Si3 0.000000 0.792500 0.931614
Si Si4 0.315991 0.794879 0.366198
Si Si5 0.184051 0.796151 0.000000
Si Si6 0.813737 0.299707 0.767997
O O1 0.379141 0.500000 0.885950
O O2 0.443922 0.235659 0.897053
O O3 0.357732 0.251010 0.818606
O O4 0.342969 0.231888 0.938756
O O5 0.931700 0.750258 0.500000
O O6 0.935116 0.500000 0.573492
O O7 0.874656 0.763296 0.600071
O O8 0.000000 0.760897 0.590606
O O9 0.000000 0.000000 0.933126
O O10 0.000000 0.738838 0.000000
O O11 0.250000 0.750000 0.386924
O O12 0.320921 0.730034 0.298393
O O13 0.317675 0.000000 0.367192
O O14 0.250000 0.750000 0.000000
O O15 0.176192 0.000000 0.000000
O O16 0.816201 0.500000 0.761955
O O17 0.750000 0.250000 0.789262
#
# Coordination Sequence:
#
# PCOD9486729 Si02
#       6
#    16  16   8  16   8  16
#     4  10  19  33  53  73  94 124 160 198 238 288
#     4   8  14  27  49  75 101 131 169 208 243 286
#     4   9  16  32  55  73  93 123 158 193 238 294
#     4   9  18  32  50  74 102 133 166 204 249 293
#     4  10  20  31  47  71  93 116 151 196 241 282
#     4  10  20  34  50  71  99 131 162 198 244 291
#
# _framework density 19.358056999999999
#
# number of rings (size 3 to 8) (size 9 to 14) (size 15 to 20)
#    0.000    2.700    1.000    1.800    0.000    3.600 
#    1.800    0.500    0.000    1.200    0.000    1.400 
#    0.000    0.000    0.000    0.000    0.000    0.000 
#
# Total GULP energy -222762.289466 kJ/mol
# GULP energy per Si atom -5569.057237 kJ/mol
# Density = 1.931400 g / cm^3
# Si number density = 19.358057 Si / 1000 Ang^3
#
#
#
# Elastic Constant Matrix: (Units=GPa)
#
#
# Indices 1 2 3 4 5 6 
#
# 1 212.3598 7.6463 92.0507 0.0000 0.0000 0.0000
# 2 7.6463 17.7193 5.5715 0.0000 0.0000 0.0000
# 3 92.0507 5.5715 83.4624 0.0000 0.0000 0.0000
# 4 0.0000 0.0000 0.0000 21.6953 0.0000 0.0000
# 5 0.0000 0.0000 0.0000 0.0000 121.3268 0.0000
# 6 0.0000 0.0000 0.0000 0.0000 0.0000 14.5234
#
#
#
# Elastic Compliance Matrix: (Units=1/GPa)
#
#
# Indices 1 2 3 4 5 6 
#
# 1 0.009033 -0.000782 -0.009910 0.000000 0.000000 0.000000
# 2 -0.000782 0.057713 -0.002990 0.000000 0.000000 0.000000
# 3 -0.009910 -0.002990 0.023111 0.000000 0.000000 0.000000
# 4 0.000000 0.000000 0.000000 0.046093 0.000000 0.000000
# 5 0.000000 0.000000 0.000000 0.000000 0.008242 0.000000
# 6 0.000000 0.000000 0.000000 0.000000 0.000000 0.068854
#
#
# Mechanical properties :
#
#
# Convention : Reuss Voigt Hill
#
# Bulk Modulus (GPa) = 16.00196 58.23094 37.11645
# Shear Modulus (GPa) = 19.13936 45.39397 32.26666
#
# Velocity S-wave (km/s) = 3.14777 4.84774 4.08712
# Velocity P-wave (km/s) = 4.63633 7.84094 6.44112
#
# Compressibility (1/GPa) = 0.06249234
#
# Stress axis : x y z
#
# Youngs Moduli (GPa) = 110.70725 17.32708 43.26961
#
# Poissons Ratio (x) = 0.01355 0.42881
# Poissons Ratio (y) = 0.08655 0.12939
# Poissons Ratio (z) = 1.09712 0.05181
#
# Static dielectric constant tensor:
#      x y z
#    x 1.663170 0.000000 0.000000 
#    y 0.000000 1.710630 0.000000 
#    z 0.000000 0.000000 1.674780 
# 
# From -- ./inp_files/65058.got.cif
#   From: 2010.05.17/outbox.cif.g08.bks.cpg/sg65_33_cif.got.tgz:65058.got - 2010.06.03 17:01:31.
