data_PCOD9486581
_publ_section_title
;
Structure prediction by ZEFSAII (Michael W. Deem and Ramdas Pophale) SiO2 
 PCOD9486581
Probable space group: C M M M
;
_chemical_formula_sum "Si O2"
_cell_formula_units_Z 56
_cell_length_a 29.615691
_cell_length_b 10.260125
_cell_length_c 7.956018
_cell_angle_alpha 90.000000
_cell_angle_beta 90.000000
_cell_angle_gamma 90.000000
_cell_volume 2417.521132
_symmetry_space_group_name_H-M "C M M M"
_symmetry_group_IT_number 65
_symmetry_cell_setting 'orthorhombic'
loop_
_space_group_symop_operation_xyz
x,y,z
-x,-y,z
x,-y,-z
-x,y,-z
-x,-y,-z
x,y,-z
-x,y,z
x,-y,z
1/2+x,1/2+y,z
1/2-x,1/2-y,z
1/2+x,1/2-y,-z
1/2-x,1/2+y,-z
1/2-x,1/2-y,-z
1/2+x,1/2+y,-z
1/2-x,1/2+y,z
1/2+x,1/2-y,z
loop_
_atom_site_type_symbol
_atom_site_label
_atom_site_fract_x
_atom_site_fract_y
_atom_site_fract_z
Si Si1 0.180255 0.500000 0.705373
Si Si2 0.052984 0.500000 0.312808
Si Si3 0.352475 0.280749 0.299444
Si Si4 0.715741 0.500000 0.706228
Si Si5 0.050611 0.790105 0.805292
O O1 0.180775 0.500000 0.500000
O O2 0.156027 0.632978 0.762362
O O3 0.232442 0.500000 0.759656
O O4 0.075281 0.500000 0.500000
O O5 0.058833 0.365118 0.217081
O O6 0.000000 0.500000 0.341539
O O7 0.348373 0.273836 0.500000
O O8 0.312697 0.374422 0.237600
O O9 0.402116 0.340409 0.266211
O O10 0.715918 0.500000 0.500000
O O11 0.000000 0.819726 0.733386
O O12 0.048731 0.824625 0.000000
#
# Coordination Sequence:
#
# PCOD9486581 Si02
#       5
#     8   8  16   8  16
#     4   9  17  31  54  82 107 133 170 217 270 326
#     4   9  16  27  46  72 101 133 172 219 264 305
#     4  10  19  32  54  81 106 137 178 222 267 316
#     4   9  18  33  53  79 109 137 171 221 275 322
#     4  10  20  33  49  72 106 146 182 218 263 315
#
# _framework density 23.164224000000001
#
# number of rings (size 3 to 8) (size 9 to 14) (size 15 to 20)
#    0.000    2.429    0.000    3.000    0.000    8.000 
#    0.000    1.429    0.000    9.429    0.000    0.000 
#    0.000    0.000    0.000    0.000    0.000    0.000 
#
# Total GULP energy -156111.398546 kJ/mol
# GULP energy per Si atom -5575.407091 kJ/mol
# Density = 2.311150 g / cm^3
# Si number density = 23.164224 Si / 1000 Ang^3
#
#
#
# Elastic Constant Matrix: (Units=GPa)
#
#
# Indices 1 2 3 4 5 6 
#
# 1 248.6122 57.8017 -0.1104 0.0000 0.0000 0.0000
# 2 57.8017 100.8162 8.0159 0.0000 0.0000 0.0000
# 3 -0.1104 8.0159 18.3875 0.0000 0.0000 0.0000
# 4 0.0000 0.0000 0.0000 -2.6558 0.0000 0.0000
# 5 0.0000 0.0000 0.0000 0.0000 -55.3321 0.0000
# 6 0.0000 0.0000 0.0000 0.0000 0.0000 156.8522
#
#
#
# Elastic Compliance Matrix: (Units=1/GPa)
#
#
# Indices 1 2 3 4 5 6 
#
# 1 0.004668 -0.002775 0.001238 0.000000 0.000000 0.000000
# 2 -0.002775 0.011925 -0.005215 0.000000 0.000000 0.000000
# 3 0.001238 -0.005215 0.056666 0.000000 0.000000 0.000000
# 4 0.000000 0.000000 0.000000 -0.376534 0.000000 0.000000
# 5 0.000000 0.000000 0.000000 0.000000 -0.018073 0.000000
# 6 0.000000 0.000000 0.000000 0.000000 0.000000 0.006375
#
#
# Mechanical properties :
#
#
# Convention : Reuss Voigt Hill
#
# Bulk Modulus (GPa) = 16.73533 55.47003 36.10268
# Shear Modulus (GPa) = -17.75881 39.91344 11.07732
#
# Velocity S-wave (km/s) = -2.77184 4.15548 2.18917
# Velocity P-wave (km/s) = 1.73316 6.85729 4.69141
#
# Compressibility (1/GPa) = 0.05975382
#
# Stress axis : x y z
#
# Youngs Moduli (GPa) = 214.22459 83.86055 17.64739
#
# Poissons Ratio (x) = 0.23269 -0.02184
# Poissons Ratio (y) = 0.59442 0.09203
# Poissons Ratio (z) = -0.26513 0.43734
#
# Static dielectric constant tensor:
#      x y z
#    x 1.893050 0.000000 0.000000 
#    y 0.000000 2.055110 0.000000 
#    z 0.000000 0.000000 1.863650 
# 
# From -- ./inp_files/17737.got.cif
#   From: 2010.05.17/outbox.cif.g08.bks.cpg/sg65_9_cif.got.tgz:17737.got - 2010.06.03 17:01:31.
