data_PCOD9486198
_publ_section_title
;
Structure prediction by ZEFSAII (Michael W. Deem and Ramdas Pophale) SiO2 
 PCOD9486198
Probable space group: C M M M
;
_chemical_formula_sum "Si O2"
_cell_formula_units_Z 80
_cell_length_a 25.948388
_cell_length_b 8.435698
_cell_length_c 20.823556
_cell_angle_alpha 90.000000
_cell_angle_beta 90.000000
_cell_angle_gamma 90.000000
_cell_volume 4558.125745
_symmetry_space_group_name_H-M "C M M M"
_symmetry_group_IT_number 65
_symmetry_cell_setting 'orthorhombic'
loop_
_space_group_symop_operation_xyz
x,y,z
-x,-y,z
x,-y,-z
-x,y,-z
-x,-y,-z
x,y,-z
-x,y,z
x,-y,z
1/2+x,1/2+y,z
1/2-x,1/2-y,z
1/2+x,1/2-y,-z
1/2-x,1/2+y,-z
1/2-x,1/2-y,-z
1/2+x,1/2+y,-z
1/2-x,1/2+y,z
1/2+x,1/2-y,z
loop_
_atom_site_type_symbol
_atom_site_label
_atom_site_fract_x
_atom_site_fract_y
_atom_site_fract_z
Si Si1 0.113557 0.188414 0.753545
Si Si2 0.691434 0.810462 0.140229
Si Si3 0.887625 0.692318 0.607765
Si Si4 0.691795 0.808606 0.500000
Si Si5 0.191110 0.308725 0.000000
Si Si6 0.500000 0.310043 0.741655
Si Si7 0.000000 0.314736 0.599074
O O1 0.154889 0.255927 0.802604
O O2 0.119225 0.252330 0.680935
O O3 0.054468 0.224395 0.774757
O O4 0.119314 0.000000 0.751278
O O5 0.750000 0.750000 0.148071
O O6 0.670740 0.755844 0.069728
O O7 0.693296 0.000000 0.140004
O O8 0.889496 0.500000 0.607661
O O9 0.841061 0.743203 0.562156
O O10 0.943549 0.749669 0.580982
O O11 0.750000 0.750000 0.500000
O O12 0.692419 0.000000 0.500000
O O13 0.250000 0.250000 0.000000
O O14 0.189871 0.500000 0.000000
O O15 0.500000 0.500000 0.725676
O O16 0.500000 0.209895 0.676056
O O17 0.000000 0.500000 0.581424
#
# Coordination Sequence:
#
# PCOD9486198 Si02
#       7
#    16  16  16   8   8   8   8
#     4  10  19  32  51  75 100 129 163 201 241 285
#     4  10  19  32  50  74 101 129 161 199 242 289
#     4   9  18  33  51  72  95 122 157 200 244 288
#     4  10  22  37  51  67  93 128 163 194 234 288
#     4   8  16  30  48  69  96 127 159 196 240 286
#     4   8  16  30  47  68  98 130 160 194 237 284
#     4   8  14  27  50  74  93 113 147 196 248 289
#
# _framework density 17.551075000000001
#
# number of rings (size 3 to 8) (size 9 to 14) (size 15 to 20)
#    0.000    2.800    0.000    1.200    0.000    3.600 
#    0.000    4.000    0.000    0.600    0.000   11.900 
#    0.000    0.000    0.000    0.000    0.000    0.000 
#
# Total GULP energy -222696.672199 kJ/mol
# GULP energy per Si atom -5567.416805 kJ/mol
# Density = 1.751113 g / cm^3
# Si number density = 17.551075 Si / 1000 Ang^3
#
#
#
# Elastic Constant Matrix: (Units=GPa)
#
#
# Indices 1 2 3 4 5 6 
#
# 1 158.2690 29.3984 91.5688 0.0000 0.0000 0.0000
# 2 29.3984 21.2766 22.9084 0.0000 0.0000 0.0000
# 3 91.5688 22.9084 126.1413 0.0000 0.0000 0.0000
# 4 0.0000 0.0000 0.0000 11.4001 0.0000 0.0000
# 5 0.0000 0.0000 0.0000 0.0000 -67.4281 0.0000
# 6 0.0000 0.0000 0.0000 0.0000 0.0000 21.8234
#
#
#
# Elastic Compliance Matrix: (Units=1/GPa)
#
#
# Indices 1 2 3 4 5 6 
#
# 1 0.012155 -0.009067 -0.007177 0.000000 0.000000 0.000000
# 2 -0.009067 0.065188 -0.005256 0.000000 0.000000 0.000000
# 3 -0.007177 -0.005256 0.014092 0.000000 0.000000 0.000000
# 4 0.000000 0.000000 0.000000 0.087719 0.000000 0.000000
# 5 0.000000 0.000000 0.000000 0.000000 -0.014831 0.000000
# 6 0.000000 0.000000 0.000000 0.000000 0.000000 0.045822
#
#
# Mechanical properties :
#
#
# Convention : Reuss Voigt Hill
#
# Bulk Modulus (GPa) = 20.64680 65.93755 43.29217
# Shear Modulus (GPa) = 18.56724 3.94650 11.25687
#
# Velocity S-wave (km/s) = 3.25606 1.50115 2.53529
# Velocity P-wave (km/s) = 5.09169 6.37614 5.76977
#
# Compressibility (1/GPa) = 0.04843366
#
# Stress axis : x y z
#
# Youngs Moduli (GPa) = 82.27183 15.34021 70.96231
#
# Poissons Ratio (x) = 0.13910 0.50928
# Poissons Ratio (y) = 0.74600 0.37301
# Poissons Ratio (z) = 0.59044 0.08064
#
# Static dielectric constant tensor:
#      x y z
#    x 1.608980 0.000000 0.000000 
#    y 0.000000 1.614150 0.000000 
#    z 0.000000 0.000000 1.605920 
# 
# From -- ./inp_files/65125.got.cif
#   From: 2010.05.17/outbox.cif.g08.bks.cpg/sg65_33_cif.got.tgz:65125.got - 2010.06.03 17:01:31.
