data_PCOD9486413
_publ_section_title
;
Structure prediction by ZEFSAII (Michael W. Deem and Ramdas Pophale) SiO2 
 PCOD9486413
Probable space group: C M M M
;
_chemical_formula_sum "Si O2"
_cell_formula_units_Z 80
_cell_length_a 17.523747
_cell_length_b 17.842597
_cell_length_c 14.472981
_cell_angle_alpha 90.000000
_cell_angle_beta 90.000000
_cell_angle_gamma 90.000000
_cell_volume 4525.254749
_symmetry_space_group_name_H-M "C M M M"
_symmetry_group_IT_number 65
_symmetry_cell_setting 'orthorhombic'
loop_
_space_group_symop_operation_xyz
x,y,z
-x,-y,z
x,-y,-z
-x,y,-z
-x,-y,-z
x,y,-z
-x,y,z
x,-y,z
1/2+x,1/2+y,z
1/2-x,1/2-y,z
1/2+x,1/2-y,-z
1/2-x,1/2+y,-z
1/2-x,1/2-y,-z
1/2+x,1/2+y,-z
1/2-x,1/2+y,z
1/2+x,1/2-y,z
loop_
_atom_site_type_symbol
_atom_site_label
_atom_site_fract_x
_atom_site_fract_y
_atom_site_fract_z
Si Si1 0.914040 0.660503 0.705805
Si Si2 0.770558 0.413358 0.610173
Si Si3 0.686971 0.413808 0.893345
Si Si4 0.177467 0.196982 0.735846
Si Si5 0.871862 0.587648 0.895325
O O1 0.852573 0.612051 0.649360
O O2 0.886936 0.746542 0.701445
O O3 0.906876 0.634909 0.812721
O O4 0.000000 0.649825 0.673538
O O5 0.768753 0.405896 0.500000
O O6 0.757100 0.500000 0.635519
O O7 0.709300 0.359305 0.658330
O O8 0.666743 0.500000 0.870861
O O9 0.654589 0.353225 0.823080
O O10 0.779570 0.408587 0.886653
O O11 0.666722 0.399671 0.000000
O O12 0.250000 0.250000 0.761712
O O13 0.892992 0.500000 0.885121
O O14 0.891851 0.611088 0.000000
#
# Coordination Sequence:
#
# PCOD9486413 Si02
#       5
#    16  16  16  16  16
#     4  11  23  35  49  77 113 143 168 201 251 312
#     4  10  21  38  60  81  98 125 170 218 259 301
#     4   9  16  28  50  77 100 128 173 223 260 289
#     4  10  19  32  52  76 103 137 170 210 253 303
#     4   9  17  30  49  74 105 140 176 212 251 296
#
# _framework density 17.678563
#
# number of rings (size 3 to 8) (size 9 to 14) (size 15 to 20)
#    0.000    2.200    4.000    2.400    0.000    7.200 
#    0.000    2.000    0.000    2.400    0.000    2.800 
#    0.000    0.000    0.000    0.000    0.000    0.000 
#
# Total GULP energy -223198.471935 kJ/mol
# GULP energy per Si atom -5579.961798 kJ/mol
# Density = 1.763833 g / cm^3
# Si number density = 17.678563 Si / 1000 Ang^3
#
#
#
# Elastic Constant Matrix: (Units=GPa)
#
#
# Indices 1 2 3 4 5 6 
#
# 1 24.7154 14.9232 11.5115 0.0000 0.0000 0.0000
# 2 14.9232 109.0099 57.4274 0.0000 0.0000 0.0000
# 3 11.5115 57.4274 72.4528 0.0000 0.0000 0.0000
# 4 0.0000 0.0000 0.0000 -73.5024 0.0000 0.0000
# 5 0.0000 0.0000 0.0000 0.0000 4.7552 0.0000
# 6 0.0000 0.0000 0.0000 0.0000 0.0000 19.8106
#
#
#
# Elastic Compliance Matrix: (Units=1/GPa)
#
#
# Indices 1 2 3 4 5 6 
#
# 1 0.044729 -0.004085 -0.003869 0.000000 0.000000 0.000000
# 2 -0.004085 0.016123 -0.012130 0.000000 0.000000 0.000000
# 3 -0.003869 -0.012130 0.024031 0.000000 0.000000 0.000000
# 4 0.000000 0.000000 0.000000 -0.013605 0.000000 0.000000
# 5 0.000000 0.000000 0.000000 0.000000 0.210298 0.000000
# 6 0.000000 0.000000 0.000000 0.000000 0.000000 0.050478
#
#
# Mechanical properties :
#
#
# Convention : Reuss Voigt Hill
#
# Bulk Modulus (GPa) = 22.36380 41.54470 31.95425
# Shear Modulus (GPa) = 12.91562 -1.63291 5.64135
#
# Velocity S-wave (km/s) = 2.70586 -0.96212 1.78829
# Velocity P-wave (km/s) = 4.73708 4.72407 4.73058
#
# Compressibility (1/GPa) = 0.04471513
#
# Stress axis : x y z
#
# Youngs Moduli (GPa) = 22.35682 62.02270 41.61205
#
# Poissons Ratio (x) = 0.25338 0.16098
# Poissons Ratio (y) = 0.09133 0.50477
# Poissons Ratio (z) = 0.08649 0.75236
#
# Static dielectric constant tensor:
#      x y z
#    x 1.590600 0.000000 0.000000 
#    y 0.000000 1.605440 0.000000 
#    z 0.000000 0.000000 1.606350 
# 
# From -- ./inp_files/39987.got.cif
#   From: 2010.05.17/outbox.cif.g08.bks.cpg/sg65_20_cif.got.tgz:39987.got - 2010.06.03 17:01:31.
