data_PCOD9486541
_publ_section_title
;
Structure prediction by ZEFSAII (Michael W. Deem and Ramdas Pophale) SiO2 
 PCOD9486541
Probable space group: C M M M
;
_chemical_formula_sum "Si O2"
_cell_formula_units_Z 72
_cell_length_a 18.491148
_cell_length_b 24.373499
_cell_length_c 7.768802
_cell_angle_alpha 90.000000
_cell_angle_beta 90.000000
_cell_angle_gamma 90.000000
_cell_volume 3501.352272
_symmetry_space_group_name_H-M "C M M M"
_symmetry_group_IT_number 65
_symmetry_cell_setting 'orthorhombic'
loop_
_space_group_symop_operation_xyz
x,y,z
-x,-y,z
x,-y,-z
-x,y,-z
-x,-y,-z
x,y,-z
-x,y,z
x,-y,z
1/2+x,1/2+y,z
1/2-x,1/2-y,z
1/2+x,1/2-y,-z
1/2-x,1/2+y,-z
1/2-x,1/2-y,-z
1/2+x,1/2+y,-z
1/2-x,1/2+y,z
1/2+x,1/2-y,z
loop_
_atom_site_type_symbol
_atom_site_label
_atom_site_fract_x
_atom_site_fract_y
_atom_site_fract_z
Si Si1 0.784666 0.437814 0.706229
Si Si2 0.082547 0.238845 0.792806
Si Si3 0.500000 0.563668 0.289240
Si Si4 0.855915 0.874380 0.705841
Si Si5 0.582076 0.137685 0.792391
O O1 0.776411 0.441182 0.500000
O O2 0.784406 0.500000 0.773911
O O3 0.716959 0.402326 0.773808
O O4 0.859094 0.406400 0.739591
O O5 0.134971 0.189987 0.740572
O O6 0.101507 0.300357 0.733749
O O7 0.000000 0.226825 0.732908
O O8 0.080769 0.239844 0.000000
O O9 0.500000 0.500000 0.238749
O O10 0.500000 0.565000 0.500000
O O11 0.427843 0.594687 0.229072
O O12 0.855825 0.881201 0.500000
O O13 0.500000 0.125883 0.733596
O O14 0.580586 0.138778 0.000000
#
# Coordination Sequence:
#
# PCOD9486541 Si02
#       5
#    16  16   8  16  16
#     4  10  22  38  54  78 112 143 175 221 272 317
#     4   9  18  34  55  79 109 140 174 221 271 316
#     4   9  16  28  49  75 103 141 184 217 248 297
#     4  10  19  32  53  80 108 142 182 219 258 313
#     4   9  20  39  60  80 103 138 181 221 268 326
#
# _framework density 20.563483999999999
#
# number of rings (size 3 to 8) (size 9 to 14) (size 15 to 20)
#    0.000    2.556    1.111    2.000    0.000    6.667 
#    0.000    8.889    0.000    2.667    0.000    0.000 
#    0.000    0.000    0.000    0.000    0.000    0.000 
#
# Total GULP energy -200951.745609 kJ/mol
# GULP energy per Si atom -5581.992934 kJ/mol
# Density = 2.051668 g / cm^3
# Si number density = 20.563484 Si / 1000 Ang^3
#
#
#
# Elastic Constant Matrix: (Units=GPa)
#
#
# Indices 1 2 3 4 5 6 
#
# 1 143.6566 103.7171 10.1417 0.0000 0.0000 0.0000
# 2 103.7171 153.4430 7.8367 0.0000 0.0000 0.0000
# 3 10.1417 7.8367 26.1110 0.0000 0.0000 0.0000
# 4 0.0000 0.0000 0.0000 28.7174 0.0000 0.0000
# 5 0.0000 0.0000 0.0000 0.0000 5.8332 0.0000
# 6 0.0000 0.0000 0.0000 0.0000 0.0000 28.7115
#
#
#
# Elastic Compliance Matrix: (Units=1/GPa)
#
#
# Indices 1 2 3 4 5 6 
#
# 1 0.013767 -0.009173 -0.002594 0.000000 0.000000 0.000000
# 2 -0.009173 0.012731 -0.000258 0.000000 0.000000 0.000000
# 3 -0.002594 -0.000258 0.039383 0.000000 0.000000 0.000000
# 4 0.000000 0.000000 0.000000 0.034822 0.000000 0.000000
# 5 0.000000 0.000000 0.000000 0.000000 0.171433 0.000000
# 6 0.000000 0.000000 0.000000 0.000000 0.000000 0.034829
#
#
# Mechanical properties :
#
#
# Convention : Reuss Voigt Hill
#
# Bulk Modulus (GPa) = 23.90605 62.95573 43.43089
# Shear Modulus (GPa) = 14.49450 26.08677 20.29063
#
# Velocity S-wave (km/s) = 2.65781 3.56560 3.14464
# Velocity P-wave (km/s) = 4.59013 6.90167 5.86099
#
# Compressibility (1/GPa) = 0.04183042
#
# Stress axis : x y z
#
# Youngs Moduli (GPa) = 72.63805 78.55100 25.39165
#
# Poissons Ratio (x) = 0.72055 0.06587
# Poissons Ratio (y) = 0.66631 0.00655
# Poissons Ratio (z) = 0.18843 0.02026
#
# Static dielectric constant tensor:
#      x y z
#    x 1.715070 0.000000 0.000000 
#    y 0.000000 1.720850 0.000000 
#    z 0.000000 0.000000 1.766120 
# 
# From -- ./inp_files/7256.got.cif
#   From: 2010.05.17/outbox.cif.g08.bks.cpg/sg65_4_cif.got.tgz:7256.got - 2010.06.03 17:01:31.
