data_PCOD9486463
_publ_section_title
;
Structure prediction by ZEFSAII (Michael W. Deem and Ramdas Pophale) SiO2 
 PCOD9486463
Probable space group: C M M M
;
_chemical_formula_sum "Si O2"
_cell_formula_units_Z 88
_cell_length_a 18.583776
_cell_length_b 8.683459
_cell_length_c 29.806219
_cell_angle_alpha 90.000000
_cell_angle_beta 90.000000
_cell_angle_gamma 90.000000
_cell_volume 4809.872987
_symmetry_space_group_name_H-M "C M M M"
_symmetry_group_IT_number 65
_symmetry_cell_setting 'orthorhombic'
loop_
_space_group_symop_operation_xyz
x,y,z
-x,-y,z
x,-y,-z
-x,y,-z
-x,-y,-z
x,y,-z
-x,y,z
x,-y,z
1/2+x,1/2+y,z
1/2-x,1/2-y,z
1/2+x,1/2-y,-z
1/2-x,1/2+y,-z
1/2-x,1/2-y,-z
1/2+x,1/2+y,-z
1/2-x,1/2+y,z
1/2+x,1/2-y,z
loop_
_atom_site_type_symbol
_atom_site_label
_atom_site_fract_x
_atom_site_fract_y
_atom_site_fract_z
Si Si1 0.584486 0.815248 0.414666
Si Si2 0.169045 0.185327 0.231159
Si Si3 0.915149 0.315081 0.950370
Si Si4 0.168402 0.185786 0.670193
Si Si5 0.169331 0.183952 0.500000
Si Si6 0.830712 0.815591 0.866259
O O1 0.500000 0.775479 0.416943
O O2 0.619906 0.753989 0.369009
O O3 0.627138 0.742993 0.456288
O O4 0.591129 0.000000 0.416644
O O5 0.250000 0.250000 0.230901
O O6 0.139193 0.230046 0.279985
O O7 0.137381 0.232043 0.182759
O O8 0.171857 0.000000 0.231211
O O9 0.907472 0.500000 0.948523
O O10 0.874632 0.243110 0.908621
O O11 0.000000 0.280045 0.947636
O O12 0.889396 0.264191 0.000000
O O13 0.250000 0.250000 0.666133
O O14 0.170694 0.000000 0.666870
O O15 0.250000 0.250000 0.500000
O O16 0.172317 0.000000 0.500000
O O17 0.750000 0.750000 0.868796
O O18 0.827594 0.000000 0.867420
#
# Coordination Sequence:
#
# PCOD9486463 Si02
#       6
#    16  16  16  16   8  16
#     4  11  24  41  59  82 115 149 181 222 270 314
#     4   8  16  30  49  75 105 137 172 214 261 307
#     4   9  19  36  54  71  96 132 172 214 262 316
#     4  10  19  34  57  82 109 142 182 222 261 311
#     4  12  25  42  65  89 113 143 183 224 265 318
#     4  10  19  32  52  78 106 135 171 215 263 313
#
# _framework density 18.2957
#
# number of rings (size 3 to 8) (size 9 to 14) (size 15 to 20)
#    0.000    2.182    0.000    3.818    0.000    5.091 
#    0.000    1.818    0.000    5.455    0.000    0.000 
#    0.000    0.000    0.000    0.000    0.000    0.000 
#
# Total GULP energy -245384.076053 kJ/mol
# GULP energy per Si atom -5576.910819 kJ/mol
# Density = 1.825406 g / cm^3
# Si number density = 18.295700 Si / 1000 Ang^3
#
#
#
# Elastic Constant Matrix: (Units=GPa)
#
#
# Indices 1 2 3 4 5 6 
#
# 1 87.7545 47.0855 93.7851 0.0000 0.0000 0.0000
# 2 47.0855 56.7586 64.9928 0.0000 0.0000 0.0000
# 3 93.7851 64.9928 244.0772 0.0000 0.0000 0.0000
# 4 0.0000 0.0000 0.0000 24.6744 0.0000 0.0000
# 5 0.0000 0.0000 0.0000 0.0000 -81.2095 0.0000
# 6 0.0000 0.0000 0.0000 0.0000 0.0000 27.0276
#
#
#
# Elastic Compliance Matrix: (Units=1/GPa)
#
#
# Indices 1 2 3 4 5 6 
#
# 1 0.025429 -0.014253 -0.005976 0.000000 0.000000 0.000000
# 2 -0.014253 0.033336 -0.003400 0.000000 0.000000 0.000000
# 3 -0.005976 -0.003400 0.007299 0.000000 0.000000 0.000000
# 4 0.000000 0.000000 0.000000 0.040528 0.000000 0.000000
# 5 0.000000 0.000000 0.000000 0.000000 -0.012314 0.000000
# 6 0.000000 0.000000 0.000000 0.000000 0.000000 0.036999
#
#
# Mechanical properties :
#
#
# Convention : Reuss Voigt Hill
#
# Bulk Modulus (GPa) = 53.17402 88.92413 71.04907
# Shear Modulus (GPa) = 27.05584 6.28029 16.66807
#
# Velocity S-wave (km/s) = 3.84970 1.85475 3.02161
# Velocity P-wave (km/s) = 6.99193 7.30042 7.14784
#
# Compressibility (1/GPa) = 0.01880618
#
# Stress axis : x y z
#
# Youngs Moduli (GPa) = 39.32452 29.99800 137.01250
#
# Poissons Ratio (x) = 0.42756 0.81877
# Poissons Ratio (y) = 0.56049 0.46585
# Poissons Ratio (z) = 0.23500 0.10199
#
# Static dielectric constant tensor:
#      x y z
#    x 1.586420 0.000000 0.000000 
#    y 0.000000 1.619120 0.000000 
#    z 0.000000 0.000000 1.668560 
# 
# From -- ./inp_files/77897.got.cif
#   From: 2010.05.17/outbox.cif.g08.bks.cpg/sg65_39_cif.got.tgz:77897.got - 2010.06.03 17:01:31.
