data_PCOD9486054
_publ_section_title
;
Structure prediction by ZEFSAII (Michael W. Deem and Ramdas Pophale) SiO2 
 PCOD9486054
Probable space group: C M M M
;
_chemical_formula_sum "Si O2"
_cell_formula_units_Z 112
_cell_length_a 14.175075
_cell_length_b 29.702196
_cell_length_c 14.232079
_cell_angle_alpha 90.000000
_cell_angle_beta 90.000000
_cell_angle_gamma 90.000000
_cell_volume 5992.144404
_symmetry_space_group_name_H-M "C M M M"
_symmetry_group_IT_number 65
_symmetry_cell_setting 'orthorhombic'
loop_
_space_group_symop_operation_xyz
x,y,z
-x,-y,z
x,-y,-z
-x,y,-z
-x,-y,-z
x,y,-z
-x,y,z
x,-y,z
1/2+x,1/2+y,z
1/2-x,1/2-y,z
1/2+x,1/2-y,-z
1/2-x,1/2+y,-z
1/2-x,1/2-y,-z
1/2+x,1/2+y,-z
1/2-x,1/2+y,z
1/2+x,1/2-y,z
loop_
_atom_site_type_symbol
_atom_site_label
_atom_site_fract_x
_atom_site_fract_y
_atom_site_fract_z
Si Si1 0.107894 0.813210 0.718046
Si Si2 0.138023 0.242773 0.893010
Si Si3 0.754892 0.891898 0.757114
Si Si4 0.888255 0.378569 0.387762
Si Si5 0.108959 0.945755 0.108011
Si Si6 0.396157 0.843530 0.887384
Si Si7 0.114212 0.274933 0.607981
O O1 0.108928 0.797395 0.826231
O O2 0.173471 0.856220 0.710300
O O3 0.146618 0.768749 0.664946
O O4 0.000000 0.821840 0.688324
O O5 0.250000 0.250000 0.891279
O O6 0.100249 0.290985 0.859602
O O7 0.109104 0.234996 0.000000
O O8 0.682349 0.907623 0.675877
O O9 0.819101 0.926218 0.815891
O O10 0.687045 0.867572 0.832909
O O11 0.874419 0.383386 0.500000
O O12 0.865054 0.326127 0.361886
O O13 0.000000 0.385797 0.369493
O O14 0.000000 0.931801 0.126812
O O15 0.111469 0.000000 0.110197
O O16 0.131937 0.931870 0.000000
O O17 0.500000 0.863294 0.867931
O O18 0.380405 0.844316 0.000000
O O19 0.143881 0.270567 0.500000
O O20 0.000000 0.272885 0.610723
#
# Coordination Sequence:
#
# PCOD9486054 Si02
#       7
#    16  16  16  16  16  16  16
#     4  11  22  31  44  70 103 136 175 226 279 319
#     4  10  19  32  44  58  92 140 183 218 255 309
#     4  12  21  32  54  82 106 131 176 230 276 323
#     4   9  19  35  54  78 110 151 196 233 265 308
#     4   9  20  41  66  88 111 140 172 210 265 336
#     4  10  20  32  46  67  99 139 177 214 264 322
#     4   8  16  32  49  66  98 145 189 225 262 305
#
# _framework density 18.691139
#
# number of rings (size 3 to 8) (size 9 to 14) (size 15 to 20)
#    0.000    2.143    1.429    3.857    0.000    3.143 
#    0.000    1.429    0.000    3.429    0.000    7.000 
#    0.000    0.000    0.000    0.000    0.000    0.000 
#
# Total GULP energy -312541.181205 kJ/mol
# GULP energy per Si atom -5581.092522 kJ/mol
# Density = 1.864860 g / cm^3
# Si number density = 18.691139 Si / 1000 Ang^3
#
#
#
# Elastic Constant Matrix: (Units=GPa)
#
#
# Indices 1 2 3 4 5 6 
#
# 1 122.2432 28.3891 39.0913 0.0000 0.0000 0.0000
# 2 28.3891 21.2215 19.8371 0.0000 0.0000 0.0000
# 3 39.0913 19.8371 78.9782 0.0000 0.0000 0.0000
# 4 0.0000 0.0000 0.0000 22.1460 0.0000 0.0000
# 5 0.0000 0.0000 0.0000 0.0000 28.3624 0.0000
# 6 0.0000 0.0000 0.0000 0.0000 0.0000 -14.6471
#
#
#
# Elastic Compliance Matrix: (Units=1/GPa)
#
#
# Indices 1 2 3 4 5 6 
#
# 1 0.012246 -0.014004 -0.002544 0.000000 0.000000 0.000000
# 2 -0.014004 0.077595 -0.012558 0.000000 0.000000 0.000000
# 3 -0.002544 -0.012558 0.017075 0.000000 0.000000 0.000000
# 4 0.000000 0.000000 0.000000 0.045155 0.000000 0.000000
# 5 0.000000 0.000000 0.000000 0.000000 0.035258 0.000000
# 6 0.000000 0.000000 0.000000 0.000000 0.000000 -0.068273
#
#
# Mechanical properties :
#
#
# Convention : Reuss Voigt Hill
#
# Bulk Modulus (GPa) = 20.53228 44.11976 32.32602
# Shear Modulus (GPa) = 25.83926 16.18063 21.00995
#
# Velocity S-wave (km/s) = 3.72214 2.94544 3.35634
# Velocity P-wave (km/s) = 5.42967 5.93493 5.68791
#
# Compressibility (1/GPa) = 0.04870379
#
# Stress axis : x y z
#
# Youngs Moduli (GPa) = 81.65787 12.88737 58.56481
#
# Poissons Ratio (x) = 0.18048 0.14898
# Poissons Ratio (y) = 1.14357 0.73546
# Poissons Ratio (z) = 0.20773 0.16184
#
# Static dielectric constant tensor:
#      x y z
#    x 1.701370 0.000000 0.000000 
#    y 0.000000 1.621970 0.000000 
#    z 0.000000 0.000000 1.684310 
# 
# From -- ./inp_files/41369.got.cif
#   From: 2010.05.17/outbox.cif.g08.bks.cpg/sg65_21_cif.got.tgz:41369.got - 2010.06.03 17:01:31.
