data_PCOD9486130
_publ_section_title
;
Structure prediction by ZEFSAII (Michael W. Deem and Ramdas Pophale) SiO2 
 PCOD9486130
Probable space group: C M M M
;
_chemical_formula_sum "Si O2"
_cell_formula_units_Z 120
_cell_length_a 28.985682
_cell_length_b 8.154735
_cell_length_c 27.028319
_cell_angle_alpha 90.000000
_cell_angle_beta 90.000000
_cell_angle_gamma 90.000000
_cell_volume 6388.698776
_symmetry_space_group_name_H-M "C M M M"
_symmetry_group_IT_number 65
_symmetry_cell_setting 'orthorhombic'
loop_
_space_group_symop_operation_xyz
x,y,z
-x,-y,z
x,-y,-z
-x,y,-z
-x,-y,-z
x,y,-z
-x,y,z
x,-y,z
1/2+x,1/2+y,z
1/2-x,1/2-y,z
1/2+x,1/2-y,-z
1/2-x,1/2+y,-z
1/2-x,1/2-y,-z
1/2+x,1/2+y,-z
1/2-x,1/2+y,z
1/2+x,1/2-y,z
loop_
_atom_site_type_symbol
_atom_site_label
_atom_site_fract_x
_atom_site_fract_y
_atom_site_fract_z
Si Si1 0.362789 0.195139 0.711971
Si Si2 0.800614 0.303307 0.913734
Si Si3 0.800669 0.302639 0.798421
Si Si4 0.946059 0.500000 0.939835
Si Si5 0.896795 0.178044 0.942512
Si Si6 0.947291 0.700721 0.351442
Si Si7 0.114274 0.301541 0.555911
Si Si8 0.302355 0.306017 0.620382
O O1 0.340644 0.261757 0.762445
O O2 0.411606 0.258069 0.691028
O O3 0.325473 0.223462 0.668557
O O4 0.368405 0.000000 0.718400
O O5 0.805193 0.500000 0.918214
O O6 0.750000 0.250000 0.930897
O O7 0.804791 0.253780 0.855755
O O8 0.842554 0.215834 0.940690
O O9 0.801843 0.500000 0.797718
O O10 0.750000 0.250000 0.780396
O O11 0.922162 0.335465 0.920055
O O12 0.000000 0.500000 0.929701
O O13 0.939957 0.500000 0.000000
O O14 0.906637 0.000000 0.920022
O O15 0.911060 0.170628 0.000000
O O16 0.947485 0.500000 0.350605
O O17 0.923940 0.749556 0.403654
O O18 0.000000 0.755469 0.346347
O O19 0.104775 0.247318 0.500000
O O20 0.115315 0.500000 0.556510
O O21 0.163695 0.240415 0.575429
O O22 0.303250 0.500000 0.627806
O O23 0.250000 0.250000 0.612983
#
# Coordination Sequence:
#
# PCOD9486130 Si02
#       8
#    16  16  16   8  16  16  16  16
#     4   9  17  31  49  71  97 126 159 201 243 288
#     4  10  19  32  49  72 105 145 183 222 266 321
#     4   9  18  30  47  71  99 132 166 207 249 298
#     4   9  18  34  56  80 106 138 180 234 285 323
#     4  10  20  34  53  79 110 145 186 230 279 333
#     4   8  14  26  47  73  96 119 152 195 238 281
#     4   9  18  32  48  67  92 120 152 191 234 281
#     4  11  21  32  47  67  92 122 155 190 233 284
#
# _framework density 18.783166999999999
#
# number of rings (size 3 to 8) (size 9 to 14) (size 15 to 20)
#    0.000    2.600    0.667    2.800    0.000    3.467 
#    0.000    2.667    0.000    7.200    0.000    3.733 
#    0.000    0.000    0.000    0.000    0.000    0.000 
#
# Total GULP energy -334509.552834 kJ/mol
# GULP energy per Si atom -5575.159214 kJ/mol
# Density = 1.874042 g / cm^3
# Si number density = 18.783167 Si / 1000 Ang^3
#
#
#
# Elastic Constant Matrix: (Units=GPa)
#
#
# Indices 1 2 3 4 5 6 
#
# 1 111.0494 29.9453 9.8864 0.0000 0.0000 0.0000
# 2 29.9453 56.9125 1.4264 0.0000 0.0000 0.0000
# 3 9.8864 1.4264 24.2927 0.0000 0.0000 0.0000
# 4 0.0000 0.0000 0.0000 2.6164 0.0000 0.0000
# 5 0.0000 0.0000 0.0000 0.0000 16.2265 0.0000
# 6 0.0000 0.0000 0.0000 0.0000 0.0000 18.6290
#
#
#
# Elastic Compliance Matrix: (Units=1/GPa)
#
#
# Indices 1 2 3 4 5 6 
#
# 1 0.010887 -0.005626 -0.004100 0.000000 0.000000 0.000000
# 2 -0.005626 0.020504 0.001085 0.000000 0.000000 0.000000
# 3 -0.004100 0.001085 0.042770 0.000000 0.000000 0.000000
# 4 0.000000 0.000000 0.000000 0.382208 0.000000 0.000000
# 5 0.000000 0.000000 0.000000 0.000000 0.061628 0.000000
# 6 0.000000 0.000000 0.000000 0.000000 0.000000 0.053680
#
#
# Mechanical properties :
#
#
# Convention : Reuss Voigt Hill
#
# Bulk Modulus (GPa) = 17.58107 30.53009 24.05558
# Shear Modulus (GPa) = 8.22481 17.56080 12.89280
#
# Velocity S-wave (km/s) = 2.09483 3.06097 2.62277
# Velocity P-wave (km/s) = 3.90275 5.36488 4.69113
#
# Compressibility (1/GPa) = 0.05687937
#
# Stress axis : x y z
#
# Youngs Moduli (GPa) = 91.85243 48.77197 23.38105
#
# Poissons Ratio (x) = 0.27437 0.09587
# Poissons Ratio (y) = 0.51672 -0.02538
# Poissons Ratio (z) = 0.37663 -0.05294
#
# Static dielectric constant tensor:
#      x y z
#    x 1.633840 0.000000 0.000000 
#    y 0.000000 1.676510 0.000000 
#    z 0.000000 0.000000 1.666620 
# 
# From -- ./inp_files/76112.got.cif
#   From: 2010.05.17/outbox.cif.g08.bks.cpg/sg65_39_cif.got.tgz:76112.got - 2010.06.03 17:01:31.
