data_PCOD9486895
_publ_section_title
;
Structure prediction by ZEFSAII (Michael W. Deem and Ramdas Pophale) SiO2 
 PCOD9486895
Probable space group: C M M M
;
_chemical_formula_sum "Si O2"
_cell_formula_units_Z 104
_cell_length_a 8.650020
_cell_length_b 19.005405
_cell_length_c 34.656229
_cell_angle_alpha 90.000000
_cell_angle_beta 90.000000
_cell_angle_gamma 90.000000
_cell_volume 5697.384701
_symmetry_space_group_name_H-M "C M M M"
_symmetry_group_IT_number 65
_symmetry_cell_setting 'orthorhombic'
loop_
_space_group_symop_operation_xyz
x,y,z
-x,-y,z
x,-y,-z
-x,y,-z
-x,-y,-z
x,y,-z
-x,y,z
x,-y,z
1/2+x,1/2+y,z
1/2-x,1/2-y,z
1/2+x,1/2-y,-z
1/2-x,1/2+y,-z
1/2-x,1/2-y,-z
1/2+x,1/2+y,-z
1/2-x,1/2+y,z
1/2+x,1/2-y,z
loop_
_atom_site_type_symbol
_atom_site_label
_atom_site_fract_x
_atom_site_fract_y
_atom_site_fract_z
Si Si1 0.312787 0.581300 0.116654
Si Si2 0.314331 0.829332 0.415825
Si Si3 0.185770 0.671158 0.187833
Si Si4 0.686164 0.170598 0.500000
Si Si5 0.684719 0.417990 0.654850
Si Si6 0.813642 0.418348 0.262319
Si Si7 0.186555 0.172481 0.956150
O O1 0.500000 0.583435 0.118582
O O2 0.264283 0.500000 0.119204
O O3 0.245767 0.626909 0.151477
O O4 0.265333 0.616753 0.076140
O O5 0.500000 0.827130 0.414146
O O6 0.250000 0.750000 0.413326
O O7 0.267247 0.859558 0.458239
O O8 0.251418 0.874056 0.380453
O O9 0.250000 0.750000 0.186850
O O10 0.234934 0.630624 0.226886
O O11 0.000000 0.673245 0.186934
O O12 0.500000 0.172962 0.500000
O O13 0.750000 0.250000 0.500000
O O14 0.500000 0.413214 0.654830
O O15 0.729773 0.500000 0.650601
O O16 0.747356 0.394543 0.696564
O O17 0.765926 0.500000 0.255855
O O18 0.000000 0.417262 0.264368
O O19 0.250000 0.250000 0.946753
O O20 0.000000 0.175614 0.955848
O O21 0.235669 0.154931 0.000000
#
# Coordination Sequence:
#
# PCOD9486895 Si02
#       7
#    16  16  16   8  16  16  16
#     4  10  21  36  55  80 109 142 180 221 266 316
#     4  10  19  33  54  78 105 137 175 219 264 312
#     4  11  23  38  57  81 109 140 175 217 264 314
#     4   8  16  30  49  74 101 133 173 215 261 310
#     4  10  21  36  54  78 108 141 176 214 259 311
#     4   9  19  37  58  77 100 135 176 215 260 313
#     4   9  18  33  53  77 106 141 180 221 265 313
#
# _framework density 18.253990000000002
#
# number of rings (size 3 to 8) (size 9 to 14) (size 15 to 20)
#    0.000    2.308    0.000    2.308    0.000    6.462 
#    0.000    5.000    0.000    2.308    0.000    3.231 
#    0.000    0.000    0.000    0.000    0.000    0.000 
#
# Total GULP energy -290145.123090 kJ/mol
# GULP energy per Si atom -5579.713906 kJ/mol
# Density = 1.821244 g / cm^3
# Si number density = 18.253990 Si / 1000 Ang^3
#
#
#
# Elastic Constant Matrix: (Units=GPa)
#
#
# Indices 1 2 3 4 5 6 
#
# 1 19.1256 29.8411 39.8755 0.0000 0.0000 0.0000
# 2 29.8411 117.1813 113.6237 0.0000 0.0000 0.0000
# 3 39.8755 113.6237 193.5358 0.0000 0.0000 0.0000
# 4 0.0000 0.0000 0.0000 66.0889 0.0000 0.0000
# 5 0.0000 0.0000 0.0000 0.0000 21.3183 0.0000
# 6 0.0000 0.0000 0.0000 0.0000 0.0000 22.6887
#
#
#
# Elastic Compliance Matrix: (Units=1/GPa)
#
#
# Indices 1 2 3 4 5 6 
#
# 1 0.099103 -0.012626 -0.013006 0.000000 0.000000 0.000000
# 2 -0.012626 0.021421 -0.009975 0.000000 0.000000 0.000000
# 3 -0.013006 -0.009975 0.013703 0.000000 0.000000 0.000000
# 4 0.000000 0.000000 0.000000 0.015131 0.000000 0.000000
# 5 0.000000 0.000000 0.000000 0.000000 0.046908 0.000000
# 6 0.000000 0.000000 0.000000 0.000000 0.000000 0.044075
#
#
# Mechanical properties :
#
#
# Convention : Reuss Voigt Hill
#
# Bulk Modulus (GPa) = 15.86976 77.39149 46.63063
# Shear Modulus (GPa) = 15.03494 31.78599 23.41046
#
# Velocity S-wave (km/s) = 2.87305 4.17744 3.58506
# Velocity P-wave (km/s) = 4.44056 8.10907 6.53742
#
# Compressibility (1/GPa) = 0.06301291
#
# Stress axis : x y z
#
# Youngs Moduli (GPa) = 10.09053 46.68328 72.97742
#
# Poissons Ratio (x) = 0.58942 0.94916
# Poissons Ratio (y) = 0.12740 0.72793
# Poissons Ratio (z) = 0.13124 0.46565
#
# Static dielectric constant tensor:
#      x y z
#    x 1.621570 0.000000 0.000000 
#    y 0.000000 1.595100 0.000000 
#    z 0.000000 0.000000 1.634620 
# 
# From -- ./inp_files/73368.got.cif
#   From: 2010.05.17/outbox.cif.g08.bks.cpg/sg65_37_cif.got.tgz:73368.got - 2010.06.03 17:01:31.
