data_PCOD9486407
_publ_section_title
;
Structure prediction by ZEFSAII (Michael W. Deem and Ramdas Pophale) SiO2 
 PCOD9486407
Probable space group: C M M M
;
_chemical_formula_sum "Si O2"
_cell_formula_units_Z 88
_cell_length_a 18.453489
_cell_length_b 7.656214
_cell_length_c 29.974338
_cell_angle_alpha 90.000000
_cell_angle_beta 90.000000
_cell_angle_gamma 90.000000
_cell_volume 4234.890198
_symmetry_space_group_name_H-M "C M M M"
_symmetry_group_IT_number 65
_symmetry_cell_setting 'orthorhombic'
loop_
_space_group_symop_operation_xyz
x,y,z
-x,-y,z
x,-y,-z
-x,y,-z
-x,-y,-z
x,y,-z
-x,y,z
x,-y,z
1/2+x,1/2+y,z
1/2-x,1/2-y,z
1/2+x,1/2-y,-z
1/2-x,1/2+y,-z
1/2-x,1/2-y,-z
1/2+x,1/2+y,-z
1/2-x,1/2+y,z
1/2+x,1/2-y,z
loop_
_atom_site_type_symbol
_atom_site_label
_atom_site_fract_x
_atom_site_fract_y
_atom_site_fract_z
Si Si1 0.917598 0.291044 0.855828
Si Si2 0.587881 0.792527 0.952037
Si Si3 0.583801 0.285824 0.321836
Si Si4 0.583930 0.713985 0.500000
Si Si5 0.665658 0.706635 0.766097
Si Si6 0.834840 0.790365 0.410885
O O1 0.922828 0.500000 0.861071
O O2 0.888579 0.222391 0.903685
O O3 0.868437 0.259616 0.813192
O O4 0.000000 0.225167 0.848208
O O5 0.500000 0.777679 0.951160
O O6 0.604385 0.000000 0.953177
O O7 0.612597 0.718564 0.000000
O O8 0.500000 0.233605 0.323604
O O9 0.585129 0.500000 0.321777
O O10 0.621908 0.222304 0.276525
O O11 0.627204 0.226559 0.365604
O O12 0.585064 0.500000 0.500000
O O13 0.500000 0.766497 0.500000
O O14 0.625103 0.773685 0.455454
O O15 0.658459 0.500000 0.763828
O O16 0.750000 0.750000 0.763213
O O17 0.750000 0.750000 0.411594
O O18 0.842513 0.000000 0.410864
#
# Coordination Sequence:
#
# PCOD9486407 Si02
#       6
#    16  16  16   8  16  16
#     4   9  17  30  50  76 103 129 160 200 244 291
#     4   7  10  19  39  68  98 125 154 190 234 285
#     4   9  18  33  53  75  97 125 163 204 245 292
#     4   9  17  30  51  77 100 129 172 212 242 279
#     4  11  22  35  51  70  96 130 167 206 248 296
#     4  10  19  32  52  76 103 132 163 202 245 292
#
# _framework density 20.77976
#
# number of rings (size 3 to 8) (size 9 to 14) (size 15 to 20)
#    0.000    2.818    0.000    4.091    0.000    3.273 
#    0.000    0.909    0.000    6.000    0.000    2.545 
#    0.000    0.000    0.000    0.000    0.000    0.000 
#
# Total GULP energy -245440.895822 kJ/mol
# GULP energy per Si atom -5578.202178 kJ/mol
# Density = 2.073246 g / cm^3
# Si number density = 20.779760 Si / 1000 Ang^3
#
#
#
# Elastic Constant Matrix: (Units=GPa)
#
#
# Indices 1 2 3 4 5 6 
#
# 1 151.0442 -1.8550 124.8212 0.0000 0.0000 0.0000
# 2 -1.8550 38.0707 10.8182 0.0000 0.0000 0.0000
# 3 124.8212 10.8182 264.8504 0.0000 0.0000 0.0000
# 4 0.0000 0.0000 0.0000 -18.6369 0.0000 0.0000
# 5 0.0000 0.0000 0.0000 0.0000 -11.3468 0.0000
# 6 0.0000 0.0000 0.0000 0.0000 0.0000 113.9095
#
#
#
# Elastic Compliance Matrix: (Units=1/GPa)
#
#
# Indices 1 2 3 4 5 6 
#
# 1 0.010997 0.002032 -0.005266 0.000000 0.000000 0.000000
# 2 0.002032 0.026951 -0.002059 0.000000 0.000000 0.000000
# 3 -0.005266 -0.002059 0.006342 0.000000 0.000000 0.000000
# 4 0.000000 0.000000 0.000000 -0.053657 0.000000 0.000000
# 5 0.000000 0.000000 0.000000 0.000000 -0.088130 0.000000
# 6 0.000000 0.000000 0.000000 0.000000 0.000000 0.008779
#
#
# Mechanical properties :
#
#
# Convention : Reuss Voigt Hill
#
# Bulk Modulus (GPa) = 29.66913 80.17047 54.91980
# Shear Modulus (GPa) = -74.73917 38.13054 -18.30431
#
# Velocity S-wave (km/s) = -6.00378 4.28832 -2.97117
# Velocity P-wave (km/s) = 5.80961 7.94886 3.83619
#
# Compressibility (1/GPa) = 0.03370507
#
# Stress axis : x y z
#
# Youngs Moduli (GPa) = 90.93228 37.10453 157.69010
#
# Poissons Ratio (x) = -0.07540 0.83038
# Poissons Ratio (y) = -0.18479 0.32462
# Poissons Ratio (z) = 0.47884 0.07638
#
# Static dielectric constant tensor:
#      x y z
#    x 1.672200 0.000000 0.000000 
#    y 0.000000 1.803240 0.000000 
#    z 0.000000 0.000000 1.785520 
# 
# From -- ./inp_files/77923.got.cif
#   From: 2010.05.17/outbox.cif.g08.bks.cpg/sg65_39_cif.got.tgz:77923.got - 2010.06.03 17:01:31.
