data_PCOD9486125
_publ_section_title
;
Structure prediction by ZEFSAII (Michael W. Deem and Ramdas Pophale) SiO2 
 PCOD9486125
Probable space group: C M M M
;
_chemical_formula_sum "Si O2"
_cell_formula_units_Z 72
_cell_length_a 18.974123
_cell_length_b 13.561233
_cell_length_c 15.974570
_cell_angle_alpha 90.000000
_cell_angle_beta 90.000000
_cell_angle_gamma 90.000000
_cell_volume 4110.456591
_symmetry_space_group_name_H-M "C M M M"
_symmetry_group_IT_number 65
_symmetry_cell_setting 'orthorhombic'
loop_
_space_group_symop_operation_xyz
x,y,z
-x,-y,z
x,-y,-z
-x,y,-z
-x,-y,-z
x,y,-z
-x,y,z
x,-y,z
1/2+x,1/2+y,z
1/2-x,1/2-y,z
1/2+x,1/2-y,-z
1/2-x,1/2+y,-z
1/2-x,1/2-y,-z
1/2+x,1/2+y,-z
1/2-x,1/2+y,z
1/2+x,1/2-y,z
loop_
_atom_site_type_symbol
_atom_site_label
_atom_site_fract_x
_atom_site_fract_y
_atom_site_fract_z
Si Si1 0.859907 0.308530 0.175005
Si Si2 0.290850 0.615491 0.767958
Si Si3 0.228178 0.381178 0.407764
Si Si4 0.577070 0.119088 0.656790
Si Si5 0.584386 0.884615 0.000000
O O1 0.785625 0.364890 0.190585
O O2 0.843950 0.193210 0.191187
O O3 0.911462 0.347587 0.247500
O O4 0.887224 0.333051 0.083499
O O5 0.309144 0.500000 0.774091
O O6 0.277627 0.644451 0.670514
O O7 0.253197 0.353547 0.500000
O O8 0.225087 0.500000 0.405255
O O9 0.147532 0.347532 0.391661
O O10 0.500000 0.152185 0.625937
O O11 0.577341 0.000000 0.654225
O O12 0.500000 0.880791 0.000000
O O13 0.605626 0.000000 0.000000
#
# Coordination Sequence:
#
# PCOD9486125 Si02
#       5
#    16  16  16  16   8
#     4  10  19  32  49  71  96 126 161 199 239 289
#     4   9  18  32  49  70  99 134 164 194 240 288
#     4   8  14  26  45  69  96 126 162 201 239 283
#     4   9  16  27  44  65  93 127 159 197 247 295
#     4  11  22  35  55  79  99 121 153 196 242 287
#
# _framework density 17.516303000000001
#
# number of rings (size 3 to 8) (size 9 to 14) (size 15 to 20)
#    0.000    2.778    0.000    4.000    0.000    4.000 
#    0.000   12.778    0.000    3.333    0.000    0.000 
#    0.000    0.000    0.000   40.222    0.000    2.000 
#
# Total GULP energy -200642.504303 kJ/mol
# GULP energy per Si atom -5573.402897 kJ/mol
# Density = 1.747643 g / cm^3
# Si number density = 17.516303 Si / 1000 Ang^3
#
#
#
# Elastic Constant Matrix: (Units=GPa)
#
#
# Indices 1 2 3 4 5 6 
#
# 1 37.7039 26.8444 20.4081 0.0000 0.0000 0.0000
# 2 26.8444 104.1593 33.7586 0.0000 0.0000 0.0000
# 3 20.4081 33.7586 125.7537 0.0000 0.0000 0.0000
# 4 0.0000 0.0000 0.0000 70.1707 0.0000 0.0000
# 5 0.0000 0.0000 0.0000 0.0000 1.1994 0.0000
# 6 0.0000 0.0000 0.0000 0.0000 0.0000 21.4401
#
#
#
# Elastic Compliance Matrix: (Units=1/GPa)
#
#
# Indices 1 2 3 4 5 6 
#
# 1 0.033793 -0.007592 -0.003446 0.000000 0.000000 0.000000
# 2 -0.007592 0.012221 -0.002049 0.000000 0.000000 0.000000
# 3 -0.003446 -0.002049 0.009061 0.000000 0.000000 0.000000
# 4 0.000000 0.000000 0.000000 0.014251 0.000000 0.000000
# 5 0.000000 0.000000 0.000000 0.000000 0.833726 0.000000
# 6 0.000000 0.000000 0.000000 0.000000 0.000000 0.046642
#
#
# Mechanical properties :
#
#
# Convention : Reuss Voigt Hill
#
# Bulk Modulus (GPa) = 34.60004 47.73765 41.16885
# Shear Modulus (GPa) = 5.07355 31.00244 18.03800
#
# Velocity S-wave (km/s) = 1.70375 4.21160 3.21251
# Velocity P-wave (km/s) = 4.86480 7.13881 6.10855
#
# Compressibility (1/GPa) = 0.02890170
#
# Stress axis : x y z
#
# Youngs Moduli (GPa) = 29.59163 81.82344 110.35993
#
# Poissons Ratio (x) = 0.62124 0.38030
# Poissons Ratio (y) = 0.22467 0.22609
# Poissons Ratio (z) = 0.10197 0.16763
#
# Static dielectric constant tensor:
#      x y z
#    x 1.596510 0.000000 0.000000 
#    y 0.000000 1.617370 0.000000 
#    z 0.000000 0.000000 1.601070 
# 
# From -- ./inp_files/39815.got.cif
#   From: 2010.05.17/outbox.cif.g08.bks.cpg/sg65_20_cif.got.tgz:39815.got - 2010.06.03 17:01:31.
