data_PCOD9486795
_publ_section_title
;
Structure prediction by ZEFSAII (Michael W. Deem and Ramdas Pophale) SiO2 
 PCOD9486795
Probable space group: C M M M
;
_chemical_formula_sum "Si O2"
_cell_formula_units_Z 104
_cell_length_a 28.063491
_cell_length_b 18.125218
_cell_length_c 12.284750
_cell_angle_alpha 90.000000
_cell_angle_beta 90.000000
_cell_angle_gamma 90.000000
_cell_volume 6248.722757
_symmetry_space_group_name_H-M "C M M M"
_symmetry_group_IT_number 65
_symmetry_cell_setting 'orthorhombic'
loop_
_space_group_symop_operation_xyz
x,y,z
-x,-y,z
x,-y,-z
-x,y,-z
-x,-y,-z
x,y,-z
-x,y,z
x,-y,z
1/2+x,1/2+y,z
1/2-x,1/2-y,z
1/2+x,1/2-y,-z
1/2-x,1/2+y,-z
1/2-x,1/2-y,-z
1/2+x,1/2+y,-z
1/2-x,1/2+y,z
1/2+x,1/2-y,z
loop_
_atom_site_type_symbol
_atom_site_label
_atom_site_fract_x
_atom_site_fract_y
_atom_site_fract_z
Si Si1 0.000000 0.088270 0.374516
Si Si2 0.056420 0.670292 0.220919
Si Si3 0.170886 0.181529 0.372773
Si Si4 0.144128 0.646676 0.626499
Si Si5 0.081570 0.157084 0.226905
Si Si6 0.557448 0.915860 0.000000
Si Si7 0.943882 0.088248 0.000000
Si Si8 0.759184 0.581816 0.631812
O O1 0.955082 0.118035 0.308482
O O2 0.000000 0.113849 0.500000
O O3 0.000000 0.000000 0.373656
O O4 0.094356 0.643344 0.310470
O O5 0.065170 0.758056 0.212440
O O6 0.000000 0.657603 0.244597
O O7 0.069373 0.629510 0.108470
O O8 0.161021 0.160462 0.500000
O O9 0.165607 0.270018 0.369168
O O10 0.131856 0.153376 0.287846
O O11 0.221591 0.146090 0.342211
O O12 0.135610 0.628953 0.500000
O O13 0.187204 0.597016 0.671351
O O14 0.079366 0.119338 0.109535
O O15 0.500000 0.920393 0.000000
O O16 0.575897 0.000000 0.000000
O O17 0.000000 0.110075 0.000000
O O18 0.941844 0.000000 0.000000
O O19 0.762328 0.582605 0.500000
O O20 0.742629 0.500000 0.664919
#
# Coordination Sequence:
#
# PCOD9486795 Si02
#       8
#     8  16  16  16  16   8   8  16
#     4  11  22  33  47  71 107 143 170 208 256 296
#     4  10  19  33  53  78 103 137 173 211 257 307
#     4   9  18  32  51  74 100 133 171 211 257 302
#     4   9  18  31  49  76 107 136 167 205 253 309
#     4  11  20  34  51  74 103 137 179 219 249 301
#     4   9  19  35  55  76 100 129 172 224 267 308
#     4  11  21  33  49  66  95 140 181 215 254 298
#     4   9  17  30  49  72  99 133 171 211 254 305
#
# _framework density 16.643401000000001
#
# number of rings (size 3 to 8) (size 9 to 14) (size 15 to 20)
#    0.000    2.231    1.538    1.846    0.000    5.231 
#    0.000    1.538    0.000    0.923    0.000   10.769 
#    0.000    0.000    0.000    0.000    0.000    0.000 
#
# Total GULP energy -289761.010166 kJ/mol
# GULP energy per Si atom -5572.327119 kJ/mol
# Density = 1.660552 g / cm^3
# Si number density = 16.643401 Si / 1000 Ang^3
#
#
#
# Elastic Constant Matrix: (Units=GPa)
#
#
# Indices 1 2 3 4 5 6 
#
# 1 99.0313 28.5471 44.1583 0.0000 0.0000 0.0000
# 2 28.5471 47.2044 35.9626 0.0000 0.0000 0.0000
# 3 44.1583 35.9626 101.5088 0.0000 0.0000 0.0000
# 4 0.0000 0.0000 0.0000 21.0802 0.0000 0.0000
# 5 0.0000 0.0000 0.0000 0.0000 24.9097 0.0000
# 6 0.0000 0.0000 0.0000 0.0000 0.0000 6.1330
#
#
#
# Elastic Compliance Matrix: (Units=1/GPa)
#
#
# Indices 1 2 3 4 5 6 
#
# 1 0.013335 -0.004992 -0.004032 0.000000 0.000000 0.000000
# 2 -0.004992 0.030885 -0.008770 0.000000 0.000000 0.000000
# 3 -0.004032 -0.008770 0.014713 0.000000 0.000000 0.000000
# 4 0.000000 0.000000 0.000000 0.047438 0.000000 0.000000
# 5 0.000000 0.000000 0.000000 0.000000 0.040145 0.000000
# 6 0.000000 0.000000 0.000000 0.000000 0.000000 0.163053
#
#
# Mechanical properties :
#
#
# Convention : Reuss Voigt Hill
#
# Bulk Modulus (GPa) = 42.83943 51.67559 47.25751
# Shear Modulus (GPa) = 14.16673 19.69637 16.93155
#
# Velocity S-wave (km/s) = 2.92068 3.44384 3.19299
# Velocity P-wave (km/s) = 6.09667 6.85051 6.48455
#
# Compressibility (1/GPa) = 0.02334298
#
# Stress axis : x y z
#
# Youngs Moduli (GPa) = 74.99109 32.37794 67.96902
#
# Poissons Ratio (x) = 0.16164 0.27407
# Poissons Ratio (y) = 0.37439 0.59610
# Poissons Ratio (z) = 0.30238 0.28396
#
# Static dielectric constant tensor:
#      x y z
#    x 1.560770 0.000000 0.000000 
#    y 0.000000 1.578820 0.000000 
#    z 0.000000 0.000000 1.536840 
# 
# From -- ./inp_files/32569.got.cif
#   From: 2010.05.17/outbox.cif.g08.bks.cpg/sg65_17_cif.got.tgz:32569.got - 2010.06.03 17:01:31.
