data_PCOD9486406
_publ_section_title
;
Structure prediction by ZEFSAII (Michael W. Deem and Ramdas Pophale) SiO2 
 PCOD9486406
Probable space group: C M M M
;
_chemical_formula_sum "Si O2"
_cell_formula_units_Z 104
_cell_length_a 9.520499
_cell_length_b 30.159360
_cell_length_c 20.154299
_cell_angle_alpha 90.000000
_cell_angle_beta 90.000000
_cell_angle_gamma 90.000000
_cell_volume 5786.947339
_symmetry_space_group_name_H-M "C M M M"
_symmetry_group_IT_number 65
_symmetry_cell_setting 'orthorhombic'
loop_
_space_group_symop_operation_xyz
x,y,z
-x,-y,z
x,-y,-z
-x,y,-z
-x,-y,-z
x,y,-z
-x,y,z
x,-y,z
1/2+x,1/2+y,z
1/2-x,1/2-y,z
1/2+x,1/2-y,-z
1/2-x,1/2+y,-z
1/2-x,1/2-y,-z
1/2+x,1/2+y,-z
1/2-x,1/2+y,z
1/2+x,1/2-y,z
loop_
_atom_site_type_symbol
_atom_site_label
_atom_site_fract_x
_atom_site_fract_y
_atom_site_fract_z
Si Si1 0.829301 0.948890 0.500000
Si Si2 0.169411 0.107914 0.371362
Si Si3 0.832485 0.794561 0.182705
Si Si4 0.667226 0.634975 0.927006
Si Si5 0.166984 0.205381 0.660802
Si Si6 0.834893 0.550682 0.731022
Si Si7 0.665242 0.950037 0.890236
O O1 0.787946 0.921329 0.434832
O O2 0.000000 0.950223 0.500000
O O3 0.779986 0.000000 0.500000
O O4 0.206656 0.159945 0.376415
O O5 0.241153 0.085575 0.307862
O O6 0.000000 0.105954 0.364516
O O7 0.750000 0.750000 0.165790
O O8 0.787636 0.833617 0.133448
O O9 0.807091 0.803731 0.260639
O O10 0.000000 0.788179 0.174758
O O11 0.500000 0.628320 0.920798
O O12 0.744577 0.588323 0.922132
O O13 0.694289 0.654983 0.000000
O O14 0.250000 0.250000 0.642481
O O15 0.000000 0.212820 0.652571
O O16 0.797509 0.500000 0.711515
O O17 0.818835 0.553593 0.810361
O O18 0.000000 0.557363 0.716208
O O19 0.500000 0.944681 0.905303
O O20 0.706419 0.000000 0.909597
#
# Coordination Sequence:
#
# PCOD9486406 Si02
#       7
#     8  16  16  16  16  16  16
#     4   9  18  32  50  75 107 139 171 207 244 285
#     4  10  19  32  52  76 102 135 173 208 244 290
#     4   9  18  33  51  72  98 126 159 202 251 299
#     4  10  21  35  50  71 100 131 164 205 250 296
#     4   9  18  32  51  74  98 126 163 207 252 296
#     4   9  18  32  50  74 102 129 161 206 257 302
#     4   9  19  35  52  71  97 129 166 208 252 299
#
# _framework density 17.97148
#
# number of rings (size 3 to 8) (size 9 to 14) (size 15 to 20)
#    0.000    2.692    0.000    2.308    0.000    5.231 
#    0.000    6.923    0.000    1.385    0.000    0.000 
#    0.000    0.000    0.000    0.000    0.000    0.000 
#
# Total GULP energy -289982.021981 kJ/mol
# GULP energy per Si atom -5576.577346 kJ/mol
# Density = 1.793058 g / cm^3
# Si number density = 17.971480 Si / 1000 Ang^3
#
#
#
# Elastic Constant Matrix: (Units=GPa)
#
#
# Indices 1 2 3 4 5 6 
#
# 1 13.5590 38.6822 18.6601 0.0000 0.0000 0.0000
# 2 38.6822 143.8000 48.6152 0.0000 0.0000 0.0000
# 3 18.6601 48.6152 40.1515 0.0000 0.0000 0.0000
# 4 0.0000 0.0000 0.0000 0.0088 0.0000 0.0000
# 5 0.0000 0.0000 0.0000 0.0000 11.8214 0.0000
# 6 0.0000 0.0000 0.0000 0.0000 0.0000 34.5163
#
#
#
# Elastic Compliance Matrix: (Units=1/GPa)
#
#
# Indices 1 2 3 4 5 6 
#
# 1 0.543667 -0.102981 -0.127977 0.000000 0.000000 0.000000
# 2 -0.102981 0.031280 0.009986 0.000000 0.000000 0.000000
# 3 -0.127977 0.009986 0.072291 0.000000 0.000000 0.000000
# 4 0.000000 0.000000 0.000000113.147460 0.000000 0.000000
# 5 0.000000 0.000000 0.000000 0.000000 0.084592 0.000000
# 6 0.000000 0.000000 0.000000 0.000000 0.000000 0.028972
#
#
# Mechanical properties :
#
#
# Convention : Reuss Voigt Hill
#
# Bulk Modulus (GPa) = 4.87105 45.49174 25.18140
# Shear Modulus (GPa) = 0.04370 15.37284 7.70827
#
# Velocity S-wave (km/s) = 0.15610 2.92790 2.07328
# Velocity P-wave (km/s) = 1.65795 6.06617 4.44675
#
# Compressibility (1/GPa) = 0.20529454
#
# Stress axis : x y z
#
# Youngs Moduli (GPa) = 1.83936 31.96943 13.83293
#
# Poissons Ratio (x) = 3.29223 1.77030
# Poissons Ratio (y) = 0.18942 -0.13814
# Poissons Ratio (z) = 0.23540 -0.31925
#
# Static dielectric constant tensor:
#      x y z
#    x 1.586200 0.000000 0.000000 
#    y 0.000000 1.603780 0.000000 
#    z 0.000000 0.000000 1.629720 
# 
# From -- ./inp_files/60438.got.cif
#   From: 2010.05.17/outbox.cif.g08.bks.cpg/sg65_31_cif.got.tgz:60438.got - 2010.06.03 17:01:31.
