data_PCOD9486511
_publ_section_title
;
Structure prediction by ZEFSAII (Michael W. Deem and Ramdas Pophale) SiO2 
 PCOD9486511
Probable space group: C M M M
;
_chemical_formula_sum "Si O2"
_cell_formula_units_Z 112
_cell_length_a 25.917274
_cell_length_b 15.008661
_cell_length_c 15.352025
_cell_angle_alpha 90.000000
_cell_angle_beta 90.000000
_cell_angle_gamma 90.000000
_cell_volume 5971.685637
_symmetry_space_group_name_H-M "C M M M"
_symmetry_group_IT_number 65
_symmetry_cell_setting 'orthorhombic'
loop_
_space_group_symop_operation_xyz
x,y,z
-x,-y,z
x,-y,-z
-x,y,-z
-x,-y,-z
x,y,-z
-x,y,z
x,-y,z
1/2+x,1/2+y,z
1/2-x,1/2-y,z
1/2+x,1/2-y,-z
1/2-x,1/2+y,-z
1/2-x,1/2-y,-z
1/2+x,1/2+y,-z
1/2-x,1/2+y,z
1/2+x,1/2-y,z
loop_
_atom_site_type_symbol
_atom_site_label
_atom_site_fract_x
_atom_site_fract_y
_atom_site_fract_z
Si Si1 0.835251 0.899739 0.096075
Si Si2 0.853685 0.891344 0.710276
Si Si3 0.440463 0.702728 0.402256
Si Si4 0.941435 0.399924 0.344875
Si Si5 0.222784 0.345476 0.905694
Si Si6 0.166312 0.395463 0.737086
Si Si7 0.249330 0.108202 0.600497
O O1 0.852505 0.860990 0.188648
O O2 0.773264 0.906186 0.104256
O O3 0.856470 0.000000 0.092967
O O4 0.845712 0.857920 0.000000
O O5 0.900555 0.843340 0.662062
O O6 0.800672 0.868465 0.658848
O O7 0.858025 0.000000 0.708039
O O8 0.429887 0.670657 0.500000
O O9 0.500000 0.681713 0.379953
O O10 0.436623 0.810630 0.401518
O O11 0.934895 0.500000 0.385087
O O12 0.894465 0.389533 0.278219
O O13 0.000000 0.398365 0.309371
O O14 0.250000 0.250000 0.906873
O O15 0.185347 0.351371 0.825065
O O16 0.198457 0.363240 0.000000
O O17 0.179211 0.500000 0.745917
O O18 0.199571 0.362687 0.653736
O O19 0.247087 0.139694 0.500000
O O20 0.250474 0.000000 0.596184
#
# Coordination Sequence:
#
# PCOD9486511 Si02
#       7
#    16  16  16  16  16  16  16
#     4   9  17  31  52  76 105 142 181 218 259 315
#     4  10  19  33  54  80 113 149 178 213 268 327
#     4  10  22  38  56  80 107 141 188 232 270 320
#     4   9  20  38  58  78 101 137 186 237 285 324
#     4  10  20  31  47  77 112 144 176 217 268 321
#     4  10  19  32  53  77 103 138 176 222 275 325
#     4   9  17  29  46  73 108 141 172 206 254 320
#
# _framework density 18.755172999999999
#
# number of rings (size 3 to 8) (size 9 to 14) (size 15 to 20)
#    0.000    2.429    1.429    0.857    2.000    2.857 
#    0.000    3.571    0.000    3.000    0.000    6.000 
#    0.000    0.000    0.000    0.000    0.000    0.286 
#
# Total GULP energy -311920.374823 kJ/mol
# GULP energy per Si atom -5570.006693 kJ/mol
# Density = 1.871249 g / cm^3
# Si number density = 18.755173 Si / 1000 Ang^3
#
#
#
# Elastic Constant Matrix: (Units=GPa)
#
#
# Indices 1 2 3 4 5 6 
#
# 1 101.3457 26.9479 87.1999 0.0000 0.0000 0.0000
# 2 26.9479 54.9448 25.8666 0.0000 0.0000 0.0000
# 3 87.1999 25.8666 174.0076 0.0000 0.0000 0.0000
# 4 0.0000 0.0000 0.0000 7.8844 0.0000 0.0000
# 5 0.0000 0.0000 0.0000 0.0000 1.0608 0.0000
# 6 0.0000 0.0000 0.0000 0.0000 0.0000 16.6535
#
#
#
# Elastic Compliance Matrix: (Units=1/GPa)
#
#
# Indices 1 2 3 4 5 6 
#
# 1 0.018580 -0.005085 -0.008555 0.000000 0.000000 0.000000
# 2 -0.005085 0.020961 -0.000568 0.000000 0.000000 0.000000
# 3 -0.008555 -0.000568 0.010119 0.000000 0.000000 0.000000
# 4 0.000000 0.000000 0.000000 0.126833 0.000000 0.000000
# 5 0.000000 0.000000 0.000000 0.000000 0.942670 0.000000
# 6 0.000000 0.000000 0.000000 0.000000 0.000000 0.060047
#
#
# Mechanical properties :
#
#
# Convention : Reuss Voigt Hill
#
# Bulk Modulus (GPa) = 47.07176 67.81411 57.44294
# Shear Modulus (GPa) = 4.11621 17.80534 10.96078
#
# Velocity S-wave (km/s) = 1.48306 3.08451 2.42009
# Velocity P-wave (km/s) = 5.29954 6.99440 6.20511
#
# Compressibility (1/GPa) = 0.02124416
#
# Stress axis : x y z
#
# Youngs Moduli (GPa) = 53.81991 47.70682 98.82880
#
# Poissons Ratio (x) = 0.24260 0.84550
# Poissons Ratio (y) = 0.27369 0.05609
# Poissons Ratio (z) = 0.46044 0.02708
#
# Static dielectric constant tensor:
#      x y z
#    x 1.616460 0.000000 0.000000 
#    y 0.000000 1.789950 0.000000 
#    z 0.000000 0.000000 1.662770 
# 
# From -- ./inp_files/40838.got.cif
#   From: 2010.05.17/outbox.cif.g08.bks.cpg/sg65_21_cif.got.tgz:40838.got - 2010.06.03 17:01:31.
