data_PCOD9486373
_publ_section_title
;
Structure prediction by ZEFSAII (Michael W. Deem and Ramdas Pophale) SiO2 
 PCOD9486373
Probable space group: C M M M
;
_chemical_formula_sum "Si O2"
_cell_formula_units_Z 80
_cell_length_a 28.186762
_cell_length_b 18.042066
_cell_length_c 9.264708
_cell_angle_alpha 90.000000
_cell_angle_beta 90.000000
_cell_angle_gamma 90.000000
_cell_volume 4711.543354
_symmetry_space_group_name_H-M "C M M M"
_symmetry_group_IT_number 65
_symmetry_cell_setting 'orthorhombic'
loop_
_space_group_symop_operation_xyz
x,y,z
-x,-y,z
x,-y,-z
-x,y,-z
-x,-y,-z
x,y,-z
-x,y,z
x,-y,z
1/2+x,1/2+y,z
1/2-x,1/2-y,z
1/2+x,1/2-y,-z
1/2-x,1/2+y,-z
1/2-x,1/2-y,-z
1/2+x,1/2+y,-z
1/2-x,1/2+y,z
1/2+x,1/2-y,z
loop_
_atom_site_type_symbol
_atom_site_label
_atom_site_fract_x
_atom_site_fract_y
_atom_site_fract_z
Si Si1 0.442491 0.582652 0.334373
Si Si2 0.444001 0.732085 0.829047
Si Si3 0.359133 0.209926 0.328232
Si Si4 0.710234 0.314840 0.835780
Si Si5 0.218746 0.586210 0.671192
O O1 0.427162 0.597164 0.500000
O O2 0.500000 0.579802 0.336625
O O3 0.425875 0.500000 0.292057
O O4 0.430699 0.650334 0.230621
O O5 0.500000 0.743420 0.799524
O O6 0.410212 0.789281 0.746658
O O7 0.436587 0.735842 0.000000
O O8 0.363335 0.216992 0.500000
O O9 0.330845 0.279739 0.261381
O O10 0.326817 0.137851 0.296167
O O11 0.750000 0.250000 0.841256
O O12 0.736811 0.383294 0.761511
O O13 0.694842 0.329948 0.000000
O O14 0.228615 0.595752 0.500000
O O15 0.209733 0.500000 0.699457
#
# Coordination Sequence:
#
# PCOD9486373 Si02
#       5
#    16  16  16  16  16
#     4   8  14  26  44  64  86 114 150 192 237 285
#     4  10  20  32  47  69  98 132 170 212 253 292
#     4  10  19  32  52  74  98 131 167 203 245 292
#     4   9  17  30  49  73 100 127 155 190 235 289
#     4   9  18  33  53  77 103 129 160 200 246 296
#
# _framework density 16.979575000000001
#
# number of rings (size 3 to 8) (size 9 to 14) (size 15 to 20)
#    0.000    2.800    0.000    2.400    0.000    5.200 
#    0.000    3.000    0.000    6.600    0.000    4.200 
#    0.000    0.000    0.000    0.000    0.000    0.000 
#
# Total GULP energy -222889.458079 kJ/mol
# GULP energy per Si atom -5572.236452 kJ/mol
# Density = 1.694093 g / cm^3
# Si number density = 16.979575 Si / 1000 Ang^3
#
#
#
# Elastic Constant Matrix: (Units=GPa)
#
#
# Indices 1 2 3 4 5 6 
#
# 1 70.7793 40.9662 51.9447 0.0000 0.0000 0.0000
# 2 40.9662 90.7606 52.2716 0.0000 0.0000 0.0000
# 3 51.9447 52.2716 85.1051 0.0000 0.0000 0.0000
# 4 0.0000 0.0000 0.0000 16.5114 0.0000 0.0000
# 5 0.0000 0.0000 0.0000 0.0000 27.0468 0.0000
# 6 0.0000 0.0000 0.0000 0.0000 0.0000 18.0792
#
#
#
# Elastic Compliance Matrix: (Units=1/GPa)
#
#
# Indices 1 2 3 4 5 6 
#
# 1 0.026543 -0.004101 -0.013682 0.000000 0.000000 0.000000
# 2 -0.004101 0.017682 -0.008358 0.000000 0.000000 0.000000
# 3 -0.013682 -0.008358 0.025234 0.000000 0.000000 0.000000
# 4 0.000000 0.000000 0.000000 0.060564 0.000000 0.000000
# 5 0.000000 0.000000 0.000000 0.000000 0.036973 0.000000
# 6 0.000000 0.000000 0.000000 0.000000 0.000000 0.055312
#
#
# Mechanical properties :
#
#
# Convention : Reuss Voigt Hill
#
# Bulk Modulus (GPa) = 58.21076 59.66776 58.93926
# Shear Modulus (GPa) = 17.83698 19.09165 18.46431
#
# Velocity S-wave (km/s) = 3.24465 3.35683 3.30122
# Velocity P-wave (km/s) = 6.95660 7.08813 7.02267
#
# Compressibility (1/GPa) = 0.01717896
#
# Stress axis : x y z
#
# Youngs Moduli (GPa) = 37.67442 56.55385 39.62832
#
# Poissons Ratio (x) = 0.23191 0.54220
# Poissons Ratio (y) = 0.15449 0.33120
# Poissons Ratio (z) = 0.51547 0.47265
#
# Static dielectric constant tensor:
#      x y z
#    x 1.593490 0.000000 0.000000 
#    y 0.000000 1.566030 0.000000 
#    z 0.000000 0.000000 1.572020 
# 
# From -- ./inp_files/9629.got.cif
#   From: 2010.05.17/outbox.cif.g08.bks.cpg/sg65_5_cif.got.tgz:9629.got - 2010.06.03 17:01:31.
