data_PCOD9486089
_publ_section_title
;
Structure prediction by ZEFSAII (Michael W. Deem and Ramdas Pophale) SiO2 
 PCOD9486089
Probable space group: C M M M
;
_chemical_formula_sum "Si O2"
_cell_formula_units_Z 64
_cell_length_a 9.050791
_cell_length_b 36.391211
_cell_length_c 12.941410
_cell_angle_alpha 90.000000
_cell_angle_beta 90.000000
_cell_angle_gamma 90.000000
_cell_volume 4262.502441
_symmetry_space_group_name_H-M "C M M M"
_symmetry_group_IT_number 65
_symmetry_cell_setting 'orthorhombic'
loop_
_space_group_symop_operation_xyz
x,y,z
-x,-y,z
x,-y,-z
-x,y,-z
-x,-y,-z
x,y,-z
-x,y,z
x,-y,z
1/2+x,1/2+y,z
1/2-x,1/2-y,z
1/2+x,1/2-y,-z
1/2-x,1/2+y,-z
1/2-x,1/2-y,-z
1/2+x,1/2+y,-z
1/2-x,1/2+y,z
1/2+x,1/2-y,z
loop_
_atom_site_type_symbol
_atom_site_label
_atom_site_fract_x
_atom_site_fract_y
_atom_site_fract_z
Si Si1 0.829105 0.000000 0.626033
Si Si2 0.824405 0.848973 0.623090
Si Si3 0.677771 0.209492 0.772367
Si Si4 0.830054 0.425185 0.374396
Si Si5 0.676378 0.789905 0.000000
O O1 0.747035 0.962894 0.660011
O O2 0.826737 0.000000 0.500000
O O3 0.000000 0.000000 0.657429
O O4 0.798435 0.844464 0.500000
O O5 0.743907 0.817240 0.686690
O O6 0.759144 0.888645 0.654354
O O7 0.000000 0.847900 0.640370
O O8 0.500000 0.212327 0.762742
O O9 0.750000 0.250000 0.764116
O O10 0.714269 0.193845 0.887767
O O11 0.830610 0.426167 0.500000
O O12 0.000000 0.423140 0.340246
O O13 0.750000 0.750000 0.000000
O O14 0.500000 0.785414 0.000000
#
# Coordination Sequence:
#
# PCOD9486089 Si02
#       5
#     8  16  16  16   8
#     4   9  15  23  37  57  81 110 143 178 215 255
#     4  10  20  32  44  61  88 120 151 182 217 258
#     4  10  19  32  49  67  87 112 144 181 221 263
#     4   9  16  26  40  58  81 111 146 181 216 255
#     4   8  16  30  48  68  86 105 134 177 224 264
#
# _framework density 15.014656
#
# number of rings (size 3 to 8) (size 9 to 14) (size 15 to 20)
#    0.000    2.625    0.000    2.625    0.000    7.500 
#    0.000    0.000    0.000    0.000    0.000    0.000 
#    0.000    1.000    0.000   10.750    0.000    8.250 
#
# Total GULP energy -178187.612422 kJ/mol
# GULP energy per Si atom -5568.362888 kJ/mol
# Density = 1.498048 g / cm^3
# Si number density = 15.014656 Si / 1000 Ang^3
#
#
#
# Elastic Constant Matrix: (Units=GPa)
#
#
# Indices 1 2 3 4 5 6 
#
# 1 102.9956 66.2706 49.1716 0.0000 0.0000 0.0000
# 2 66.2706 118.0497 50.3452 0.0000 0.0000 0.0000
# 3 49.1716 50.3452 50.3833 0.0000 0.0000 0.0000
# 4 0.0000 0.0000 0.0000 -1.4812 0.0000 0.0000
# 5 0.0000 0.0000 0.0000 0.0000 13.4528 0.0000
# 6 0.0000 0.0000 0.0000 0.0000 0.0000 31.1080
#
#
#
# Elastic Compliance Matrix: (Units=1/GPa)
#
#
# Indices 1 2 3 4 5 6 
#
# 1 0.019735 -0.004992 -0.014272 0.000000 0.000000 0.000000
# 2 -0.004992 0.016025 -0.011140 0.000000 0.000000 0.000000
# 3 -0.014272 -0.011140 0.044909 0.000000 0.000000 0.000000
# 4 0.000000 0.000000 0.000000 -0.675122 0.000000 0.000000
# 5 0.000000 0.000000 0.000000 0.000000 0.074334 0.000000
# 6 0.000000 0.000000 0.000000 0.000000 0.000000 0.032146
#
#
# Mechanical properties :
#
#
# Convention : Reuss Voigt Hill
#
# Bulk Modulus (GPa) = 50.35476 67.00040 58.67758
# Shear Modulus (GPa) = -11.88932 15.65867 1.88467
#
# Velocity S-wave (km/s) = -2.81703 3.23289 1.12158
# Velocity P-wave (km/s) = 4.79885 7.65870 6.39080
#
# Compressibility (1/GPa) = 0.01985910
#
# Stress axis : x y z
#
# Youngs Moduli (GPa) = 50.67176 62.40409 22.26750
#
# Poissons Ratio (x) = 0.31153 0.31780
# Poissons Ratio (y) = 0.25296 0.24807
# Poissons Ratio (z) = 0.72318 0.69521
#
# Static dielectric constant tensor:
#      x y z
#    x 1.500980 0.000000 0.000000 
#    y 0.000000 1.476300 0.000000 
#    z 0.000000 0.000000 1.498730 
# 
# From -- ./inp_files/20993.got.cif
#   From: 2010.05.17/outbox.cif.g08.bks.cpg/sg65_11_cif.got.tgz:20993.got - 2010.06.03 17:01:31.
