data_PCOD9486773
_publ_section_title
;
Structure prediction by ZEFSAII (Michael W. Deem and Ramdas Pophale) SiO2 
 PCOD9486773
Probable space group: C M M M
;
_chemical_formula_sum "Si O2"
_cell_formula_units_Z 96
_cell_length_a 8.434186
_cell_length_b 23.906033
_cell_length_c 26.531293
_cell_angle_alpha 90.000000
_cell_angle_beta 90.000000
_cell_angle_gamma 90.000000
_cell_volume 5349.449657
_symmetry_space_group_name_H-M "C M M M"
_symmetry_group_IT_number 65
_symmetry_cell_setting 'orthorhombic'
loop_
_space_group_symop_operation_xyz
x,y,z
-x,-y,z
x,-y,-z
-x,y,-z
-x,-y,-z
x,y,-z
-x,y,z
x,-y,z
1/2+x,1/2+y,z
1/2-x,1/2-y,z
1/2+x,1/2-y,-z
1/2-x,1/2+y,-z
1/2-x,1/2-y,-z
1/2+x,1/2+y,-z
1/2-x,1/2+y,z
1/2+x,1/2-y,z
loop_
_atom_site_type_symbol
_atom_site_label
_atom_site_fract_x
_atom_site_fract_y
_atom_site_fract_z
Si Si1 0.306446 0.500000 0.867442
Si Si2 0.692353 0.619963 0.709170
Si Si3 0.689002 0.186901 0.805690
Si Si4 0.189658 0.879371 0.902692
Si Si5 0.306846 0.500000 0.250218
Si Si6 0.687657 0.186417 0.000000
Si Si7 0.191168 0.813836 0.500000
Si Si8 0.691983 0.314068 0.610423
O O1 0.500000 0.500000 0.866627
O O2 0.255215 0.556565 0.895314
O O3 0.255802 0.500000 0.808570
O O4 0.500000 0.620891 0.710253
O O5 0.755026 0.658525 0.754073
O O6 0.743365 0.556583 0.721567
O O7 0.744430 0.646192 0.655984
O O8 0.500000 0.185861 0.809128
O O9 0.750000 0.250000 0.807601
O O10 0.761686 0.152988 0.852215
O O11 0.256404 0.847180 0.950771
O O12 0.000000 0.879844 0.906820
O O13 0.500000 0.500000 0.249364
O O14 0.750000 0.250000 0.000000
O O15 0.500000 0.189320 0.000000
O O16 0.250000 0.750000 0.500000
O O17 0.243218 0.835773 0.554842
O O18 0.000000 0.815202 0.500000
O O19 0.500000 0.312409 0.611094
O O20 0.750000 0.250000 0.617144
#
# Coordination Sequence:
#
# PCOD9486773 Si02
#       8
#     8  16  16  16   8   8   8  16
#     4   9  18  35  63  88 110 143 184 224 263 318
#     4  10  19  33  53  76 103 139 181 223 268 322
#     4  12  24  37  54  80 111 144 177 220 274 327
#     4  11  22  41  65  88 113 147 186 224 264 316
#     4   9  16  32  55  78 104 140 182 220 263 322
#     4  12  26  45  64  89 119 150 184 224 273 322
#     4   8  14  26  42  65  97 133 173 216 269 320
#     4   9  17  28  46  71 101 136 174 221 270 323
#
# _framework density 17.945771000000001
#
# number of rings (size 3 to 8) (size 9 to 14) (size 15 to 20)
#    0.000    1.833    1.667    3.750    0.000    2.333 
#    0.000    4.583    0.000    0.500    0.000    3.500 
#    0.000    0.000    0.000   13.750    0.000   10.167 
#
# Total GULP energy -267899.396353 kJ/mol
# GULP energy per Si atom -5581.237424 kJ/mol
# Density = 1.790493 g / cm^3
# Si number density = 17.945771 Si / 1000 Ang^3
#
#
#
# Elastic Constant Matrix: (Units=GPa)
#
#
# Indices 1 2 3 4 5 6 
#
# 1 42.2564 30.1902 32.3958 0.0000 0.0000 0.0000
# 2 30.1902 168.8899 94.7005 0.0000 0.0000 0.0000
# 3 32.3958 94.7005 184.0945 0.0000 0.0000 0.0000
# 4 0.0000 0.0000 0.0000 -52.3457 0.0000 0.0000
# 5 0.0000 0.0000 0.0000 0.0000 75.6779 0.0000
# 6 0.0000 0.0000 0.0000 0.0000 0.0000 17.7590
#
#
#
# Elastic Compliance Matrix: (Units=1/GPa)
#
#
# Indices 1 2 3 4 5 6 
#
# 1 0.028544 -0.003213 -0.003370 0.000000 0.000000 0.000000
# 2 -0.003213 0.008683 -0.003901 0.000000 0.000000 0.000000
# 3 -0.003370 -0.003901 0.008032 0.000000 0.000000 0.000000
# 4 0.000000 0.000000 0.000000 -0.019104 0.000000 0.000000
# 5 0.000000 0.000000 0.000000 0.000000 0.013214 0.000000
# 6 0.000000 0.000000 0.000000 0.000000 0.000000 0.056309
#
#
# Mechanical properties :
#
#
# Convention : Reuss Voigt Hill
#
# Bulk Modulus (GPa) = 41.16841 78.86819 60.01830
# Shear Modulus (GPa) = 40.08220 24.08187 32.08204
#
# Velocity S-wave (km/s) = 4.73114 3.66720 4.23273
# Velocity P-wave (km/s) = 7.26878 7.87240 7.57660
#
# Compressibility (1/GPa) = 0.02429047
#
# Stress axis : x y z
#
# Youngs Moduli (GPa) = 35.03339 115.17041 124.50308
#
# Poissons Ratio (x) = 0.36999 0.41963
# Poissons Ratio (y) = 0.11255 0.48571
# Poissons Ratio (z) = 0.11808 0.44930
#
# Static dielectric constant tensor:
#      x y z
#    x 1.615940 0.000000 0.000000 
#    y 0.000000 1.594940 0.000000 
#    z 0.000000 0.000000 1.622220 
# 
# From -- ./inp_files/67939.got.cif
#   From: 2010.05.17/outbox.cif.g08.bks.cpg/sg65_34_cif.got.tgz:67939.got - 2010.06.03 17:01:31.
