data_PCOD9486807
_publ_section_title
;
Structure prediction by ZEFSAII (Michael W. Deem and Ramdas Pophale) SiO2 
 PCOD9486807
Probable space group: C M M M
;
_chemical_formula_sum "Si O2"
_cell_formula_units_Z 96
_cell_length_a 14.909416
_cell_length_b 28.744357
_cell_length_c 12.032593
_cell_angle_alpha 90.000000
_cell_angle_beta 90.000000
_cell_angle_gamma 90.000000
_cell_volume 5156.707021
_symmetry_space_group_name_H-M "C M M M"
_symmetry_group_IT_number 65
_symmetry_cell_setting 'orthorhombic'
loop_
_space_group_symop_operation_xyz
x,y,z
-x,-y,z
x,-y,-z
-x,y,-z
-x,-y,-z
x,y,-z
-x,y,z
x,-y,z
1/2+x,1/2+y,z
1/2-x,1/2-y,z
1/2+x,1/2-y,-z
1/2-x,1/2+y,-z
1/2-x,1/2-y,-z
1/2+x,1/2+y,-z
1/2-x,1/2+y,z
1/2+x,1/2-y,z
loop_
_atom_site_type_symbol
_atom_site_label
_atom_site_fract_x
_atom_site_fract_y
_atom_site_fract_z
Si Si1 0.606861 0.909662 0.368730
Si Si2 0.228460 0.052266 0.243853
Si Si3 0.852768 0.765965 0.375226
Si Si4 0.699765 0.946914 0.000000
Si Si5 0.607076 0.850628 0.000000
Si Si6 0.396045 0.820097 0.764351
Si Si7 0.893252 0.873324 0.368604
O O1 0.622139 0.913870 0.500000
O O2 0.500000 0.917586 0.349425
O O3 0.673141 0.942313 0.299867
O O4 0.634484 0.857874 0.326731
O O5 0.242737 0.058558 0.112221
O O6 0.163641 0.090516 0.296967
O O7 0.194968 0.000000 0.264985
O O8 0.891530 0.759170 0.500000
O O9 0.750000 0.750000 0.380876
O O10 0.891362 0.731267 0.284052
O O11 0.864819 0.819892 0.346312
O O12 0.627635 0.905547 0.000000
O O13 0.663438 0.000000 0.000000
O O14 0.645538 0.828838 0.114281
O O15 0.500000 0.843027 0.000000
O O16 0.500000 0.831721 0.777715
O O17 0.876184 0.881710 0.500000
O O18 0.000000 0.877592 0.349483
#
# Coordination Sequence:
#
# PCOD9486807 Si02
#       7
#    16  16  16   8   8  16  16
#     4  10  20  33  53  84 120 156 192 234 293 364
#     4  11  23  40  61  84 114 152 198 254 308 358
#     4  10  20  34  56  87 119 151 188 233 288 354
#     4  10  22  39  60  83 110 153 205 249 298 353
#     4  10  20  35  56  83 116 157 199 242 286 342
#     4  10  19  33  53  78 113 151 188 229 278 339
#     4  10  22  40  62  89 121 157 200 249 299 354
#
# _framework density 18.616531999999999
#
# number of rings (size 3 to 8) (size 9 to 14) (size 15 to 20)
#    0.000    1.833    1.667    2.500    0.000    5.167 
#    0.000    5.000    0.000    1.500    0.000    0.000 
#    0.000    0.000    0.000    0.000    0.000    0.000 
#
# Total GULP energy -267688.597611 kJ/mol
# GULP energy per Si atom -5576.845784 kJ/mol
# Density = 1.857416 g / cm^3
# Si number density = 18.616532 Si / 1000 Ang^3
#
#
#
# Elastic Constant Matrix: (Units=GPa)
#
#
# Indices 1 2 3 4 5 6 
#
# 1 53.9796 21.2897 37.6955 0.0000 0.0000 0.0000
# 2 21.2897 108.6264 74.5820 0.0000 0.0000 0.0000
# 3 37.6955 74.5820 129.9108 0.0000 0.0000 0.0000
# 4 0.0000 0.0000 0.0000 30.5544 0.0000 0.0000
# 5 0.0000 0.0000 0.0000 0.0000 -3.2616 0.0000
# 6 0.0000 0.0000 0.0000 0.0000 0.0000 20.5767
#
#
#
# Elastic Compliance Matrix: (Units=1/GPa)
#
#
# Indices 1 2 3 4 5 6 
#
# 1 0.023234 0.000124 -0.006813 0.000000 0.000000 0.000000
# 2 0.000124 0.015196 -0.008760 0.000000 0.000000 0.000000
# 3 -0.006813 -0.008760 0.014704 0.000000 0.000000 0.000000
# 4 0.000000 0.000000 0.000000 0.032729 0.000000 0.000000
# 5 0.000000 0.000000 0.000000 0.000000 -0.306598 0.000000
# 6 0.000000 0.000000 0.000000 0.000000 0.000000 0.048599
#
#
# Mechanical properties :
#
#
# Convention : Reuss Voigt Hill
#
# Bulk Modulus (GPa) = 44.97210 62.18347 53.57779
# Shear Modulus (GPa) = -37.36183 20.17054 -8.59564
#
# Velocity S-wave (km/s) = -4.48472 3.29519 -2.15110
# Velocity P-wave (km/s) = 1.61476 6.92477 4.76157
#
# Compressibility (1/GPa) = 0.02223601
#
# Stress axis : x y z
#
# Youngs Moduli (GPa) = 43.03979 65.80586 68.01004
#
# Poissons Ratio (x) = -0.00816 0.46335
# Poissons Ratio (y) = -0.00534 0.59578
# Poissons Ratio (z) = 0.29323 0.57647
#
# Static dielectric constant tensor:
#      x y z
#    x 1.668820 0.000000 0.000000 
#    y 0.000000 1.636390 0.000000 
#    z 0.000000 0.000000 1.663830 
# 
# From -- ./inp_files/25477.got.cif
#   From: 2010.05.17/outbox.cif.g08.bks.cpg/sg65_13_cif.got.tgz:25477.got - 2010.06.03 17:01:31.
