data_PCOD9486679
_publ_section_title
;
Structure prediction by ZEFSAII (Michael W. Deem and Ramdas Pophale) SiO2 
 PCOD9486679
Probable space group: C M M M
;
_chemical_formula_sum "Si O2"
_cell_formula_units_Z 80
_cell_length_a 25.338409
_cell_length_b 20.156843
_cell_length_c 7.348460
_cell_angle_alpha 90.000000
_cell_angle_beta 90.000000
_cell_angle_gamma 90.000000
_cell_volume 3753.169598
_symmetry_space_group_name_H-M "C M M M"
_symmetry_group_IT_number 65
_symmetry_cell_setting 'orthorhombic'
loop_
_space_group_symop_operation_xyz
x,y,z
-x,-y,z
x,-y,-z
-x,y,-z
-x,-y,-z
x,y,-z
-x,y,z
x,-y,z
1/2+x,1/2+y,z
1/2-x,1/2-y,z
1/2+x,1/2-y,-z
1/2-x,1/2+y,-z
1/2-x,1/2-y,-z
1/2+x,1/2+y,-z
1/2-x,1/2+y,z
1/2+x,1/2-y,z
loop_
_atom_site_type_symbol
_atom_site_label
_atom_site_fract_x
_atom_site_fract_y
_atom_site_fract_z
Si Si1 0.000000 0.578663 0.723809
Si Si2 0.772770 0.000000 0.719305
Si Si3 0.346376 0.000000 0.796146
Si Si4 0.939447 0.000000 0.277702
Si Si5 0.811787 0.749955 0.277296
Si Si6 0.108609 0.637838 0.704677
Si Si7 0.643525 0.609336 0.720447
O O1 0.051634 0.619296 0.785040
O O2 0.000000 0.500000 0.776570
O O3 0.000000 0.577245 0.500000
O O4 0.806574 0.064030 0.769646
O O5 0.767288 0.000000 0.500000
O O6 0.716048 0.000000 0.802579
O O7 0.364413 0.066175 0.698954
O O8 0.368662 0.000000 0.000000
O O9 0.907198 0.066100 0.220338
O O10 0.938711 0.000000 0.500000
O O11 0.000000 0.000000 0.219506
O O12 0.809599 0.748272 0.500000
O O13 0.750000 0.750000 0.219313
O O14 0.848137 0.688247 0.216082
O O15 0.843062 0.816484 0.221024
O O16 0.098027 0.662845 0.500000
O O17 0.640538 0.611225 0.500000
#
# Coordination Sequence:
#
# PCOD9486679 Si02
#       7
#     8   8   8   8  16  16  16
#     4   9  16  30  50  70  92 117 161 207 232 273
#     4   9  16  29  51  70  93 130 165 196 235 282
#     4  12  23  32  46  72  98 119 159 206 246 293
#     4   8  13  22  36  58  98 137 154 182 238 289
#     4   9  16  26  43  69  95 119 158 203 235 274
#     4  10  19  33  52  69  93 130 163 197 242 285
#     4   8  14  25  42  68  94 123 164 198 228 280
#
# _framework density 21.315318000000001
#
# number of rings (size 3 to 8) (size 9 to 14) (size 15 to 20)
#    0.000    2.800    1.000    3.300    0.000    3.200 
#    1.800    1.000    0.000    5.400    0.000    0.000 
#    0.000    6.400    0.000    0.000    0.000    0.000 
#
# Total GULP energy -223037.254708 kJ/mol
# GULP energy per Si atom -5575.931368 kJ/mol
# Density = 2.126680 g / cm^3
# Si number density = 21.315318 Si / 1000 Ang^3
#
#
#
# Elastic Constant Matrix: (Units=GPa)
#
#
# Indices 1 2 3 4 5 6 
#
# 1 219.4854 101.2538 5.7338 0.0000 0.0000 0.0000
# 2 101.2538 181.2552 -0.3238 0.0000 0.0000 0.0000
# 3 5.7338 -0.3238 79.2345 0.0000 0.0000 0.0000
# 4 0.0000 0.0000 0.0000 -18.3438 0.0000 0.0000
# 5 0.0000 0.0000 0.0000 0.0000 24.1872 0.0000
# 6 0.0000 0.0000 0.0000 0.0000 0.0000 28.6576
#
#
#
# Elastic Compliance Matrix: (Units=1/GPa)
#
#
# Indices 1 2 3 4 5 6 
#
# 1 0.006155 -0.003439 -0.000459 0.000000 0.000000 0.000000
# 2 -0.003439 0.007439 0.000279 0.000000 0.000000 0.000000
# 3 -0.000459 0.000279 0.012655 0.000000 0.000000 0.000000
# 4 0.000000 0.000000 0.000000 -0.054514 0.000000 0.000000
# 5 0.000000 0.000000 0.000000 0.000000 0.041344 0.000000
# 6 0.000000 0.000000 0.000000 0.000000 0.000000 0.034895
#
#
# Mechanical properties :
#
#
# Convention : Reuss Voigt Hill
#
# Bulk Modulus (GPa) = 52.60341 77.03366 64.81853
# Shear Modulus (GPa) = 81.23755 31.78762 56.51258
#
# Velocity S-wave (km/s) = 6.18021 3.86593 5.15463
# Velocity P-wave (km/s) = 8.69822 7.49304 8.11803
#
# Compressibility (1/GPa) = 0.01901018
#
# Stress axis : x y z
#
# Youngs Moduli (GPa) = 162.48087 134.43291 79.01924
#
# Poissons Ratio (x) = 0.46230 0.03630
# Poissons Ratio (y) = 0.55876 -0.02207
# Poissons Ratio (z) = 0.07465 -0.03754
#
# Static dielectric constant tensor:
#      x y z
#    x 1.753640 0.000000 0.000000 
#    y 0.000000 1.734140 0.000000 
#    z 0.000000 0.000000 1.838620 
# 
# From -- ./inp_files/13904.got.cif
#   From: 2010.05.17/outbox.cif.g08.bks.cpg/sg65_7_cif.got.tgz:13904.got - 2010.06.03 17:01:31.
