data_PCOD9486607
_publ_section_title
;
Structure prediction by ZEFSAII (Michael W. Deem and Ramdas Pophale) SiO2 
 PCOD9486607
Probable space group: C M M M
;
_chemical_formula_sum "Si O2"
_cell_formula_units_Z 82
_cell_length_a 25.858830
_cell_length_b 20.416182
_cell_length_c 8.589519
_cell_angle_alpha 90.000000
_cell_angle_beta 90.000000
_cell_angle_gamma 90.000000
_cell_volume 4534.738460
_symmetry_space_group_name_H-M "C M M M"
_symmetry_group_IT_number 65
_symmetry_cell_setting 'orthorhombic'
loop_
_space_group_symop_operation_xyz
x,y,z
-x,-y,z
x,-y,-z
-x,y,-z
-x,-y,-z
x,y,-z
-x,y,z
x,-y,z
1/2+x,1/2+y,z
1/2-x,1/2-y,z
1/2+x,1/2-y,-z
1/2-x,1/2+y,-z
1/2-x,1/2-y,-z
1/2+x,1/2+y,-z
1/2-x,1/2+y,z
1/2+x,1/2-y,z
loop_
_atom_site_type_symbol
_atom_site_label
_atom_site_fract_x
_atom_site_fract_y
_atom_site_fract_z
Si Si1 0.601502 0.299019 0.314089
Si Si2 0.500000 0.073842 0.189700
Si Si3 0.500000 0.636719 0.829696
Si Si4 0.500000 0.500000 0.000000
Si Si5 0.100921 0.652718 0.188326
Si Si6 0.704726 0.924223 0.811792
Si Si7 0.719329 0.683583 0.311915
O O1 0.600774 0.302774 0.500000
O O2 0.552938 0.340451 0.251702
O O3 0.596817 0.224076 0.260791
O O4 0.659464 0.318639 0.260164
O O5 0.551222 0.111468 0.236782
O O6 0.500000 0.000000 0.246640
O O7 0.500000 0.072076 0.000000
O O8 0.500000 0.670539 0.000000
O O9 0.500000 0.559280 0.866996
O O10 0.152292 0.613385 0.235208
O O11 0.101475 0.658578 0.000000
O O12 0.750996 0.880090 0.748052
O O13 0.705501 0.000000 0.760375
O O14 0.706428 0.924362 0.000000
O O15 0.720097 0.684487 0.500000
O O16 0.750000 0.750000 0.260124
#
# Coordination Sequence:
#
# PCOD9486607 Si02
#       7
#    16   8   8   2  16  16  16
#     4  11  22  38  63  91 118 151 195 253 297 349
#     4   9  17  30  49  76 109 148 187 229 277 336
#     4  10  22  44  67  90 117 150 195 239 306 368
#     4   8  24  48  70  88 120 160 184 244 320 382
#     4  10  19  32  55  84 116 154 197 241 292 344
#     4  10  21  36  54  83 120 159 202 250 298 357
#     4  10  21  39  59  83 118 158 203 247 299 359
#
# _framework density 18.082630000000002
#
# number of rings (size 3 to 8) (size 9 to 14) (size 15 to 20)
#    0.293    1.659    1.951    2.049    0.000    5.463 
#    1.756    0.976    0.000    2.341    0.000    0.000 
#    0.000    0.000    0.000    0.000    0.000    0.000 
#
# Total GULP energy -228441.491906 kJ/mol
# GULP energy per Si atom -5571.743705 kJ/mol
# Density = 1.804147 g / cm^3
# Si number density = 18.082630 Si / 1000 Ang^3
#
#
#
# Elastic Constant Matrix: (Units=GPa)
#
#
# Indices 1 2 3 4 5 6 
#
# 1 198.1202 110.1991 37.9499 0.0000 0.0000 0.0000
# 2 110.1991 177.4145 29.1733 0.0000 0.0000 0.0000
# 3 37.9499 29.1733 22.0661 0.0000 0.0000 0.0000
# 4 0.0000 0.0000 0.0000 -14.6695 0.0000 0.0000
# 5 0.0000 0.0000 0.0000 0.0000 13.9855 0.0000
# 6 0.0000 0.0000 0.0000 0.0000 0.0000 -16.0960
#
#
#
# Elastic Compliance Matrix: (Units=1/GPa)
#
#
# Indices 1 2 3 4 5 6 
#
# 1 0.009354 -0.004044 -0.010741 0.000000 0.000000 0.000000
# 2 -0.004044 0.008951 -0.004878 0.000000 0.000000 0.000000
# 3 -0.010741 -0.004878 0.070241 0.000000 0.000000 0.000000
# 4 0.000000 0.000000 0.000000 -0.068169 0.000000 0.000000
# 5 0.000000 0.000000 0.000000 0.000000 0.071503 0.000000
# 6 0.000000 0.000000 0.000000 0.000000 0.000000 -0.062127
#
#
# Mechanical properties :
#
#
# Convention : Reuss Voigt Hill
#
# Bulk Modulus (GPa) = 20.31753 83.58281 51.95017
# Shear Modulus (GPa) = 58.48930 11.32925 34.90927
#
# Velocity S-wave (km/s) = 5.69349 2.50577 4.39856
# Velocity P-wave (km/s) = 7.38115 7.39560 7.38838
#
# Compressibility (1/GPa) = 0.04921859
#
# Stress axis : x y z
#
# Youngs Moduli (GPa) = 106.90223 111.72374 14.23673
#
# Poissons Ratio (x) = 0.45182 0.15292
# Poissons Ratio (y) = 0.43233 0.06945
# Poissons Ratio (z) = 1.14826 0.54503
#
# Static dielectric constant tensor:
#      x y z
#    x 1.634570 0.000000 0.000000 
#    y 0.000000 1.583940 0.000000 
#    z 0.000000 0.000000 1.627880 
# 
# From -- ./inp_files/13931.got.cif
#   From: 2010.05.17/outbox.cif.g08.bks.cpg/sg65_7_cif.got.tgz:13931.got - 2010.06.03 17:01:31.
