data_PCOD9486684
_publ_section_title
;
Structure prediction by ZEFSAII (Michael W. Deem and Ramdas Pophale) SiO2 
 PCOD9486684
Probable space group: C M M M
;
_chemical_formula_sum "Si O2"
_cell_formula_units_Z 104
_cell_length_a 24.382516
_cell_length_b 28.707905
_cell_length_c 9.205318
_cell_angle_alpha 90.000000
_cell_angle_beta 90.000000
_cell_angle_gamma 90.000000
_cell_volume 6443.455213
_symmetry_space_group_name_H-M "C M M M"
_symmetry_group_IT_number 65
_symmetry_cell_setting 'orthorhombic'
loop_
_space_group_symop_operation_xyz
x,y,z
-x,-y,z
x,-y,-z
-x,y,-z
-x,-y,-z
x,y,-z
-x,y,z
x,-y,z
1/2+x,1/2+y,z
1/2-x,1/2-y,z
1/2+x,1/2-y,-z
1/2-x,1/2+y,-z
1/2-x,1/2-y,-z
1/2+x,1/2+y,-z
1/2-x,1/2+y,z
1/2+x,1/2-y,z
loop_
_atom_site_type_symbol
_atom_site_label
_atom_site_fract_x
_atom_site_fract_y
_atom_site_fract_z
Si Si1 0.142775 0.554970 0.327210
Si Si2 0.433358 0.222932 0.333031
Si Si3 0.065223 0.000000 0.672794
Si Si4 0.124038 0.913438 0.174596
Si Si5 0.065484 0.371894 0.827790
Si Si6 0.935164 0.182783 0.826832
Si Si7 0.744140 0.555372 0.829416
O O1 0.140396 0.561757 0.500000
O O2 0.133865 0.500000 0.296624
O O3 0.098255 0.586633 0.247859
O O4 0.203068 0.566970 0.266054
O O5 0.415323 0.220002 0.500000
O O6 0.500000 0.223376 0.331996
O O7 0.417080 0.177242 0.243234
O O8 0.416514 0.271215 0.258098
O O9 0.092033 0.045503 0.744628
O O10 0.074956 0.000000 0.500000
O O11 0.000000 0.000000 0.698374
O O12 0.098437 0.863438 0.211406
O O13 0.188512 0.917798 0.208821
O O14 0.118415 0.920240 0.000000
O O15 0.000000 0.377227 0.804623
O O16 0.075393 0.371311 0.000000
O O17 0.000000 0.174952 0.796881
O O18 0.930016 0.190823 0.000000
O O19 0.732689 0.500000 0.812436
O O20 0.756622 0.563262 0.000000
#
# Coordination Sequence:
#
# PCOD9486684 Si02
#       7
#    16  16   8  16  16  16  16
#     4  10  21  35  52  76 105 136 167 200 243 296
#     4   9  17  30  49  72 100 133 166 201 244 298
#     4  11  23  33  43  67 103 137 168 211 266 315
#     4  10  19  33  52  72  95 131 175 216 257 303
#     4  10  20  34  54  79 105 133 165 201 243 291
#     4   9  17  29  47  72 100 130 167 210 253 300
#     4   9  17  32  52  72  95 127 172 216 251 293
#
# _framework density 16.140408999999998
#
# number of rings (size 3 to 8) (size 9 to 14) (size 15 to 20)
#    0.000    2.385    0.769    2.077    0.000    6.462 
#    0.000    3.077    0.000    0.923    0.000    6.462 
#    0.000    0.000    0.000    0.000    0.000    0.000 
#
# Total GULP energy -290046.404432 kJ/mol
# GULP energy per Si atom -5577.815470 kJ/mol
# Density = 1.610367 g / cm^3
# Si number density = 16.140409 Si / 1000 Ang^3
#
#
#
# Elastic Constant Matrix: (Units=GPa)
#
#
# Indices 1 2 3 4 5 6 
#
# 1 76.2871 77.7380 66.7441 0.0000 0.0000 0.0000
# 2 77.7380 136.0041 88.0698 0.0000 0.0000 0.0000
# 3 66.7441 88.0698 90.1163 0.0000 0.0000 0.0000
# 4 0.0000 0.0000 0.0000 24.0465 0.0000 0.0000
# 5 0.0000 0.0000 0.0000 0.0000 21.2282 0.0000
# 6 0.0000 0.0000 0.0000 0.0000 0.0000 3.6717
#
#
#
# Elastic Compliance Matrix: (Units=1/GPa)
#
#
# Indices 1 2 3 4 5 6 
#
# 1 0.042159 -0.010562 -0.020903 0.000000 0.000000 0.000000
# 2 -0.010562 0.022672 -0.014335 0.000000 0.000000 0.000000
# 3 -0.020903 -0.014335 0.040588 0.000000 0.000000 0.000000
# 4 0.000000 0.000000 0.000000 0.041586 0.000000 0.000000
# 5 0.000000 0.000000 0.000000 0.000000 0.047107 0.000000
# 6 0.000000 0.000000 0.000000 0.000000 0.000000 0.272356
#
#
# Mechanical properties :
#
#
# Convention : Reuss Voigt Hill
#
# Bulk Modulus (GPa) = 72.35938 85.27905 78.81921
# Shear Modulus (GPa) = 8.88613 14.44633 11.66623
#
# Velocity S-wave (km/s) = 2.34893 2.99497 2.69140
# Velocity P-wave (km/s) = 7.23085 8.05669 7.65491
#
# Compressibility (1/GPa) = 0.01381991
#
# Stress axis : x y z
#
# Youngs Moduli (GPa) = 23.71959 44.10677 24.63797
#
# Poissons Ratio (x) = 0.46585 0.51501
# Poissons Ratio (y) = 0.25052 0.35318
# Poissons Ratio (z) = 0.49581 0.63226
#
# Static dielectric constant tensor:
#      x y z
#    x 1.521220 0.000000 0.000000 
#    y 0.000000 1.519570 0.000000 
#    z 0.000000 0.000000 1.538420 
# 
# From -- ./inp_files/14768.got.cif
#   From: 2010.05.17/outbox.cif.g08.bks.cpg/sg65_8_cif.got.tgz:14768.got - 2010.06.03 17:01:31.
