data_PCOD9486863
_publ_section_title
;
Structure prediction by ZEFSAII (Michael W. Deem and Ramdas Pophale) SiO2 
 PCOD9486863
Probable space group: C M M M
;
_chemical_formula_sum "Si O2"
_cell_formula_units_Z 72
_cell_length_a 7.741361
_cell_length_b 18.843359
_cell_length_c 24.852663
_cell_angle_alpha 90.000000
_cell_angle_beta 90.000000
_cell_angle_gamma 90.000000
_cell_volume 3625.338586
_symmetry_space_group_name_H-M "C M M M"
_symmetry_group_IT_number 65
_symmetry_cell_setting 'orthorhombic'
loop_
_space_group_symop_operation_xyz
x,y,z
-x,-y,z
x,-y,-z
-x,y,-z
-x,-y,-z
x,y,-z
-x,y,z
x,-y,z
1/2+x,1/2+y,z
1/2-x,1/2-y,z
1/2+x,1/2-y,-z
1/2-x,1/2+y,-z
1/2-x,1/2-y,-z
1/2+x,1/2+y,-z
1/2-x,1/2+y,z
1/2+x,1/2-y,z
loop_
_atom_site_type_symbol
_atom_site_label
_atom_site_fract_x
_atom_site_fract_y
_atom_site_fract_z
Si Si1 0.708484 0.166681 0.675014
Si Si2 0.792276 0.833808 0.000000
Si Si3 0.206088 0.420144 0.777336
Si Si4 0.205972 0.166717 0.116865
Si Si5 0.707882 0.165977 0.557799
O O1 0.500000 0.161409 0.674333
O O2 0.750000 0.250000 0.680928
O O3 0.775602 0.122879 0.725870
O O4 0.771499 0.140403 0.616156
O O5 0.750000 0.750000 0.000000
O O6 0.727012 0.859480 0.058229
O O7 0.000000 0.842594 0.000000
O O8 0.275836 0.500000 0.780574
O O9 0.232969 0.377679 0.832378
O O10 0.000000 0.424886 0.769685
O O11 0.250000 0.250000 0.123054
O O12 0.000000 0.161556 0.115504
O O13 0.772552 0.137342 0.500000
O O14 0.500000 0.158101 0.557568
O O15 0.750000 0.250000 0.557777
#
# Coordination Sequence:
#
# PCOD9486863 Si02
#       5
#    16   8  16  16  16
#     4   9  17  29  46  67  90 118 152 191 234 278
#     4   8  16  30  49  74  99 121 147 185 231 276
#     4  10  21  35  48  65  94 130 164 198 237 278
#     4  10  19  33  54  77  99 123 154 191 232 279
#     4   8  13  22  38  61  87 112 141 181 228 275
#
# _framework density 19.860213999999999
#
# number of rings (size 3 to 8) (size 9 to 14) (size 15 to 20)
#    0.000    2.889    0.000    1.333    0.000    4.000 
#    0.000    0.556    0.000    4.000    0.000    4.667 
#    0.000    0.000    0.000   38.000    0.000   19.111 
#
# Total GULP energy -200469.381737 kJ/mol
# GULP energy per Si atom -5568.593937 kJ/mol
# Density = 1.981501 g / cm^3
# Si number density = 19.860214 Si / 1000 Ang^3
#
#
#
# Elastic Constant Matrix: (Units=GPa)
#
#
# Indices 1 2 3 4 5 6 
#
# 1 33.1776 1.3371 6.5484 0.0000 0.0000 0.0000
# 2 1.3371 70.9485 88.9407 0.0000 0.0000 0.0000
# 3 6.5484 88.9407 265.4312 0.0000 0.0000 0.0000
# 4 0.0000 0.0000 0.0000 -5.9017 0.0000 0.0000
# 5 0.0000 0.0000 0.0000 0.0000 16.4054 0.0000
# 6 0.0000 0.0000 0.0000 0.0000 0.0000 11.1814
#
#
#
# Elastic Compliance Matrix: (Units=1/GPa)
#
#
# Indices 1 2 3 4 5 6 
#
# 1 0.030305 0.000631 -0.000959 0.000000 0.000000 0.000000
# 2 0.000631 0.024317 -0.008164 0.000000 0.000000 0.000000
# 3 -0.000959 -0.008164 0.006527 0.000000 0.000000 0.000000
# 4 0.000000 0.000000 0.000000 -0.169442 0.000000 0.000000
# 5 0.000000 0.000000 0.000000 0.000000 0.060956 0.000000
# 6 0.000000 0.000000 0.000000 0.000000 0.000000 0.089434
#
#
# Mechanical properties :
#
#
# Convention : Reuss Voigt Hill
#
# Bulk Modulus (GPa) = 22.64236 62.57885 42.61060
# Shear Modulus (GPa) = 67.75028 22.51909 45.13468
#
# Velocity S-wave (km/s) = 5.84702 3.37097 4.77237
# Velocity P-wave (km/s) = 7.55044 6.83588 7.20203
#
# Compressibility (1/GPa) = 0.04416501
#
# Stress axis : x y z
#
# Youngs Moduli (GPa) = 32.99822 41.12395 153.21942
#
# Poissons Ratio (x) = -0.02596 0.14697
# Poissons Ratio (y) = -0.02083 1.25083
# Poissons Ratio (z) = 0.03165 0.33572
#
# Static dielectric constant tensor:
#      x y z
#    x 1.732070 0.000000 0.000000 
#    y 0.000000 1.652080 0.000000 
#    z 0.000000 0.000000 1.785640 
# 
# From -- ./inp_files/67033.got.cif
#   From: 2010.05.17/outbox.cif.g08.bks.cpg/sg65_34_cif.got.tgz:67033.got - 2010.06.03 17:01:31.
