data_PCOD9486144
_publ_section_title
;
Structure prediction by ZEFSAII (Michael W. Deem and Ramdas Pophale) SiO2 
 PCOD9486144
Probable space group: C M M M
;
_chemical_formula_sum "Si O2"
_cell_formula_units_Z 116
_cell_length_a 7.599689
_cell_length_b 30.355411
_cell_length_c 26.035135
_cell_angle_alpha 90.000000
_cell_angle_beta 90.000000
_cell_angle_gamma 90.000000
_cell_volume 6006.089112
_symmetry_space_group_name_H-M "C M M M"
_symmetry_group_IT_number 65
_symmetry_cell_setting 'orthorhombic'
loop_
_space_group_symop_operation_xyz
x,y,z
-x,-y,z
x,-y,-z
-x,y,-z
-x,-y,-z
x,y,-z
-x,y,z
x,-y,z
1/2+x,1/2+y,z
1/2-x,1/2-y,z
1/2+x,1/2-y,-z
1/2-x,1/2+y,-z
1/2-x,1/2-y,-z
1/2+x,1/2+y,-z
1/2-x,1/2+y,z
1/2+x,1/2-y,z
loop_
_atom_site_type_symbol
_atom_site_label
_atom_site_fract_x
_atom_site_fract_y
_atom_site_fract_z
Si Si1 0.215570 0.612297 0.910098
Si Si2 0.711887 0.299857 0.441519
Si Si3 0.500000 0.596120 0.000000
Si Si4 0.209984 0.300783 0.738435
Si Si5 0.209783 0.300166 0.854657
Si Si6 0.290915 0.950868 0.699534
Si Si7 0.213375 0.449579 0.814225
Si Si8 0.702577 0.363615 0.354897
O O1 0.342640 0.597329 0.955465
O O2 0.262258 0.662677 0.894888
O O3 0.258638 0.583458 0.859525
O O4 0.000000 0.609195 0.919719
O O5 0.777934 0.304741 0.500000
O O6 0.500000 0.303388 0.443206
O O7 0.750000 0.250000 0.423916
O O8 0.783968 0.335799 0.401708
O O9 0.250000 0.250000 0.725177
O O10 0.278865 0.307935 0.796607
O O11 0.281439 0.333764 0.696054
O O12 0.000000 0.306875 0.738902
O O13 0.250000 0.250000 0.869533
O O14 0.000000 0.304050 0.850490
O O15 0.500000 0.954808 0.705022
O O16 0.224082 0.937910 0.756673
O O17 0.264570 0.912288 0.659078
O O18 0.222916 0.000000 0.686843
O O19 0.268276 0.500000 0.824779
O O20 0.000000 0.449225 0.813058
O O21 0.500000 0.368740 0.367891
#
# Coordination Sequence:
#
# PCOD9486144 Si02
#       8
#    16  16   4  16  16  16  16  16
#     4  10  21  40  60  79 109 140 177 225 272 321
#     4   9  19  35  52  71 100 142 189 233 272 315
#     4  12  26  40  59  84 106 144 180 226 273 316
#     4  10  19  32  49  77 110 140 171 211 265 330
#     4   9  19  34  56  77 102 137 174 214 263 320
#     4   9  18  34  56  81 109 140 176 216 267 329
#     4   8  15  33  61  85 106 139 174 206 258 326
#     4  11  21  31  48  76 109 142 178 220 273 324
#
# _framework density 19.313732000000002
#
# number of rings (size 3 to 8) (size 9 to 14) (size 15 to 20)
#    0.000    2.483    0.000    3.103    0.966    5.241 
#    3.724    1.379    0.000    2.069    0.000    2.897 
#    0.000    0.000    0.000    0.000    0.000    0.000 
#
# Total GULP energy -322876.237895 kJ/mol
# GULP energy per Si atom -5566.831688 kJ/mol
# Density = 1.926977 g / cm^3
# Si number density = 19.313732 Si / 1000 Ang^3
#
#
#
# Elastic Constant Matrix: (Units=GPa)
#
#
# Indices 1 2 3 4 5 6 
#
# 1 56.9124 16.2818 25.5883 0.0000 0.0000 0.0000
# 2 16.2818 100.6944 67.9497 0.0000 0.0000 0.0000
# 3 25.5883 67.9497 82.5109 0.0000 0.0000 0.0000
# 4 0.0000 0.0000 0.0000 -21.1926 0.0000 0.0000
# 5 0.0000 0.0000 0.0000 0.0000 17.9516 0.0000
# 6 0.0000 0.0000 0.0000 0.0000 0.0000 17.3679
#
#
#
# Elastic Compliance Matrix: (Units=1/GPa)
#
#
# Indices 1 2 3 4 5 6 
#
# 1 0.020634 0.002210 -0.008219 0.000000 0.000000 0.000000
# 2 0.002210 0.022590 -0.019289 0.000000 0.000000 0.000000
# 3 -0.008219 -0.019289 0.030553 0.000000 0.000000 0.000000
# 4 0.000000 0.000000 0.000000 -0.047186 0.000000 0.000000
# 5 0.000000 0.000000 0.000000 0.000000 0.055705 0.000000
# 6 0.000000 0.000000 0.000000 0.000000 0.000000 0.057577
#
#
# Mechanical properties :
#
#
# Convention : Reuss Voigt Hill
#
# Bulk Modulus (GPa) = 43.13770 51.08414 47.11092
# Shear Modulus (GPa) = 25.22756 11.51190 18.36973
#
# Velocity S-wave (km/s) = 3.61806 2.44406 3.08737
# Velocity P-wave (km/s) = 6.31170 5.87125 6.09545
#
# Compressibility (1/GPa) = 0.02318158
#
# Stress axis : x y z
#
# Youngs Moduli (GPa) = 48.46384 44.26757 32.72994
#
# Poissons Ratio (x) = -0.09782 0.26900
# Poissons Ratio (y) = -0.10709 0.63132
# Poissons Ratio (z) = 0.39831 0.85386
#
# Static dielectric constant tensor:
#      x y z
#    x 1.732860 0.000000 0.000000 
#    y 0.000000 1.698320 0.000000 
#    z 0.000000 0.000000 1.681140 
# 
# From -- ./inp_files/68635.got.cif
#   From: 2010.05.17/outbox.cif.g08.bks.cpg/sg65_35_cif.got.tgz:68635.got - 2010.06.03 17:01:31.
