data_PCOD9486911
_publ_section_title
;
Structure prediction by ZEFSAII (Michael W. Deem and Ramdas Pophale) SiO2 
 PCOD9486911
Probable space group: C M M M
;
_chemical_formula_sum "Si O2"
_cell_formula_units_Z 72
_cell_length_a 19.618511
_cell_length_b 8.821677
_cell_length_c 23.854038
_cell_angle_alpha 90.000000
_cell_angle_beta 90.000000
_cell_angle_gamma 90.000000
_cell_volume 4128.374638
_symmetry_space_group_name_H-M "C M M M"
_symmetry_group_IT_number 65
_symmetry_cell_setting 'orthorhombic'
loop_
_space_group_symop_operation_xyz
x,y,z
-x,-y,z
x,-y,-z
-x,y,-z
-x,-y,-z
x,y,-z
-x,y,z
x,-y,z
1/2+x,1/2+y,z
1/2-x,1/2-y,z
1/2+x,1/2-y,-z
1/2-x,1/2+y,-z
1/2-x,1/2-y,-z
1/2+x,1/2+y,-z
1/2-x,1/2+y,z
1/2+x,1/2-y,z
loop_
_atom_site_type_symbol
_atom_site_label
_atom_site_fract_x
_atom_site_fract_y
_atom_site_fract_z
Si Si1 0.674964 0.818637 0.435640
Si Si2 0.673573 0.317472 0.123124
Si Si3 0.919875 0.681301 0.219966
Si Si4 0.919584 0.180543 0.659586
Si Si5 0.325659 0.318100 0.000000
O O1 0.654895 0.782475 0.500000
O O2 0.750000 0.750000 0.426605
O O3 0.623575 0.750123 0.390720
O O4 0.677804 0.000000 0.430092
O O5 0.677172 0.500000 0.126980
O O6 0.750000 0.250000 0.127807
O O7 0.626073 0.252481 0.171557
O O8 0.645006 0.275274 0.060837
O O9 0.912693 0.500000 0.220199
O O10 0.900072 0.746753 0.280748
O O11 0.000000 0.718261 0.211203
O O12 0.000000 0.211252 0.651095
O O13 0.909810 0.000000 0.662070
O O14 0.250000 0.250000 0.000000
O O15 0.321079 0.500000 0.000000
#
# Coordination Sequence:
#
# PCOD9486911 Si02
#       5
#    16  16  16  16   8
#     4  10  21  37  57  81 110 142 175 214 260 308
#     4  10  19  33  54  79 106 136 174 216 260 311
#     4  10  21  37  55  76 105 139 175 217 264 311
#     4  10  21  37  57  80 106 138 176 217 261 310
#     4   8  16  30  49  74 103 135 169 211 259 306
#
# _framework density 17.440277999999999
#
# number of rings (size 3 to 8) (size 9 to 14) (size 15 to 20)
#    0.000    2.222    0.000    2.667    0.000    6.222 
#    0.000    7.222    0.000    3.333    0.000    0.000 
#    0.000    0.000    0.000    0.000    0.000    0.000 
#
# Total GULP energy -200839.979864 kJ/mol
# GULP energy per Si atom -5578.888330 kJ/mol
# Density = 1.740058 g / cm^3
# Si number density = 17.440278 Si / 1000 Ang^3
#
#
#
# Elastic Constant Matrix: (Units=GPa)
#
#
# Indices 1 2 3 4 5 6 
#
# 1 68.7535 50.1889 102.3258 0.0000 0.0000 0.0000
# 2 50.1889 66.4991 81.6510 0.0000 0.0000 0.0000
# 3 102.3258 81.6510 209.9893 0.0000 0.0000 0.0000
# 4 0.0000 0.0000 0.0000 29.9032 0.0000 0.0000
# 5 0.0000 0.0000 0.0000 0.0000 69.9523 0.0000
# 6 0.0000 0.0000 0.0000 0.0000 0.0000 28.6895
#
#
#
# Elastic Compliance Matrix: (Units=1/GPa)
#
#
# Indices 1 2 3 4 5 6 
#
# 1 0.063380 -0.018970 -0.023508 0.000000 0.000000 0.000000
# 2 -0.018970 0.034455 -0.004153 0.000000 0.000000 0.000000
# 3 -0.023508 -0.004153 0.017832 0.000000 0.000000 0.000000
# 4 0.000000 0.000000 0.000000 0.033441 0.000000 0.000000
# 5 0.000000 0.000000 0.000000 0.000000 0.014295 0.000000
# 6 0.000000 0.000000 0.000000 0.000000 0.000000 0.034856
#
#
# Mechanical properties :
#
#
# Convention : Reuss Voigt Hill
#
# Bulk Modulus (GPa) = 44.63520 90.39703 67.51611
# Shear Modulus (GPa) = 16.72298 33.11407 24.91853
#
# Velocity S-wave (km/s) = 3.09992 4.36215 3.78404
# Velocity P-wave (km/s) = 6.20173 8.79295 7.60846
#
# Compressibility (1/GPa) = 0.02240384
#
# Stress axis : x y z
#
# Youngs Moduli (GPa) = 15.77794 29.02370 56.07796
#
# Poissons Ratio (x) = 0.55058 1.31829
# Poissons Ratio (y) = 0.29931 0.23290
# Poissons Ratio (z) = 0.37091 0.12054
#
# Static dielectric constant tensor:
#      x y z
#    x 1.557160 0.000000 0.000000 
#    y 0.000000 1.583270 0.000000 
#    z 0.000000 0.000000 1.597120 
# 
# From -- ./inp_files/59246.got.cif
#   From: 2010.05.17/outbox.cif.g08.bks.cpg/sg65_30_cif.got.tgz:59246.got - 2010.06.03 17:01:31.
