data_PCOD9486618
_publ_section_title
;
Structure prediction by ZEFSAII (Michael W. Deem and Ramdas Pophale) SiO2 
 PCOD9486618
Probable space group: C M M M
;
_chemical_formula_sum "Si O2"
_cell_formula_units_Z 92
_cell_length_a 8.677002
_cell_length_b 26.985805
_cell_length_c 19.180124
_cell_angle_alpha 90.000000
_cell_angle_beta 90.000000
_cell_angle_gamma 90.000000
_cell_volume 4491.138890
_symmetry_space_group_name_H-M "C M M M"
_symmetry_group_IT_number 65
_symmetry_cell_setting 'orthorhombic'
loop_
_space_group_symop_operation_xyz
x,y,z
-x,-y,z
x,-y,-z
-x,y,-z
-x,-y,-z
x,y,-z
-x,y,z
x,-y,z
1/2+x,1/2+y,z
1/2-x,1/2-y,z
1/2+x,1/2-y,-z
1/2-x,1/2+y,-z
1/2-x,1/2-y,-z
1/2+x,1/2+y,-z
1/2-x,1/2+y,z
1/2+x,1/2-y,z
loop_
_atom_site_type_symbol
_atom_site_label
_atom_site_fract_x
_atom_site_fract_y
_atom_site_fract_z
Si Si1 0.184665 0.057196 0.579295
Si Si2 0.814143 0.304531 0.500000
Si Si3 0.316661 0.147029 0.355812
Si Si4 0.500000 0.077295 0.076408
Si Si5 0.177387 0.198573 0.777232
Si Si6 0.500000 0.000000 0.202969
Si Si7 0.171401 0.896944 0.122381
Si Si8 0.332726 0.500000 0.788575
O O1 0.240394 0.069976 0.500000
O O2 0.250192 0.091837 0.639639
O O3 0.000000 0.061971 0.578662
O O4 0.223531 0.000000 0.590080
O O5 0.750000 0.250000 0.500000
O O6 0.761883 0.329965 0.571117
O O7 0.000000 0.304711 0.500000
O O8 0.500000 0.144647 0.354504
O O9 0.260478 0.180188 0.292577
O O10 0.667388 0.103687 0.080631
O O11 0.500000 0.045121 0.147271
O O12 0.500000 0.052664 0.000000
O O13 0.250000 0.250000 0.803810
O O14 0.182174 0.151315 0.828296
O O15 0.000000 0.208891 0.760690
O O16 0.661209 0.000000 0.243992
O O17 0.000000 0.894528 0.087846
O O18 0.167413 0.949492 0.164745
O O19 0.500000 0.500000 0.750054
#
# Coordination Sequence:
#
# PCOD9486618 Si02
#       8
#    16   8  16   8  16   4  16   8
#     4   9  18  34  56  80 109 149 191 232 286 351
#     4  10  22  36  51  76 105 139 174 229 297 344
#     4  11  22  37  56  81 112 144 189 238 292 352
#     4  10  19  32  60  92 126 161 195 237 291 345
#     4  11  24  41  61  86 111 151 199 245 291 350
#     4   8  15  28  48  88 128 160 192 229 276 339
#     4   9  20  37  59  87 120 160 199 240 293 347
#     4   8  14  31  55  81 118 157 193 234 285 346
#
# _framework density 20.484781999999999
#
# number of rings (size 3 to 8) (size 9 to 14) (size 15 to 20)
#    0.000    2.261    0.870    2.217    2.435    3.478 
#    1.565    0.870    0.000    5.739    0.000    0.000 
#    0.000    0.000    0.000    0.000    0.000    0.000 
#
# Total GULP energy -256328.811485 kJ/mol
# GULP energy per Si atom -5572.365467 kJ/mol
# Density = 2.043816 g / cm^3
# Si number density = 20.484782 Si / 1000 Ang^3
#
#
#
# Elastic Constant Matrix: (Units=GPa)
#
#
# Indices 1 2 3 4 5 6 
#
# 1 135.2643 29.6840 27.0003 0.0000 0.0000 0.0000
# 2 29.6840 124.3077 23.6114 0.0000 0.0000 0.0000
# 3 27.0003 23.6114 43.8190 0.0000 0.0000 0.0000
# 4 0.0000 0.0000 0.0000 10.3456 0.0000 0.0000
# 5 0.0000 0.0000 0.0000 0.0000 35.5510 0.0000
# 6 0.0000 0.0000 0.0000 0.0000 0.0000 22.5594
#
#
#
# Elastic Compliance Matrix: (Units=1/GPa)
#
#
# Indices 1 2 3 4 5 6 
#
# 1 0.008578 -0.001164 -0.004659 0.000000 0.000000 0.000000
# 2 -0.001164 0.009120 -0.004197 0.000000 0.000000 0.000000
# 3 -0.004659 -0.004197 0.027953 0.000000 0.000000 0.000000
# 4 0.000000 0.000000 0.000000 0.096659 0.000000 0.000000
# 5 0.000000 0.000000 0.000000 0.000000 0.028129 0.000000
# 6 0.000000 0.000000 0.000000 0.000000 0.000000 0.044327
#
#
# Mechanical properties :
#
#
# Convention : Reuss Voigt Hill
#
# Bulk Modulus (GPa) = 39.04350 51.55359 45.29855
# Shear Modulus (GPa) = 20.54719 28.56424 24.55572
#
# Velocity S-wave (km/s) = 3.17053 3.73823 3.46602
# Velocity P-wave (km/s) = 5.70124 6.62223 6.17892
#
# Compressibility (1/GPa) = 0.02561245
#
# Stress axis : x y z
#
# Youngs Moduli (GPa) = 116.57446 109.65390 35.77392
#
# Poissons Ratio (x) = 0.12759 0.16666
# Poissons Ratio (y) = 0.13564 0.15015
# Poissons Ratio (z) = 0.54309 0.46022
#
# Static dielectric constant tensor:
#      x y z
#    x 1.756940 0.000000 0.000000 
#    y 0.000000 1.768310 0.000000 
#    z 0.000000 0.000000 1.717430 
# 
# From -- ./inp_files/60359.got.cif
#   From: 2010.05.17/outbox.cif.g08.bks.cpg/sg65_31_cif.got.tgz:60359.got - 2010.06.03 17:01:31.
