data_PCOD9486682
_publ_section_title
;
Structure prediction by ZEFSAII (Michael W. Deem and Ramdas Pophale) SiO2 
 PCOD9486682
Probable space group: C M M M
;
_chemical_formula_sum "Si O2"
_cell_formula_units_Z 96
_cell_length_a 14.812985
_cell_length_b 27.549013
_cell_length_c 12.154115
_cell_angle_alpha 90.000000
_cell_angle_beta 90.000000
_cell_angle_gamma 90.000000
_cell_volume 4959.889125
_symmetry_space_group_name_H-M "C M M M"
_symmetry_group_IT_number 65
_symmetry_cell_setting 'orthorhombic'
loop_
_space_group_symop_operation_xyz
x,y,z
-x,-y,z
x,-y,-z
-x,y,-z
-x,-y,-z
x,y,-z
-x,y,z
x,-y,z
1/2+x,1/2+y,z
1/2-x,1/2-y,z
1/2+x,1/2-y,-z
1/2-x,1/2+y,-z
1/2-x,1/2-y,-z
1/2+x,1/2+y,-z
1/2-x,1/2+y,z
1/2+x,1/2-y,z
loop_
_atom_site_type_symbol
_atom_site_label
_atom_site_fract_x
_atom_site_fract_y
_atom_site_fract_z
Si Si1 0.602037 0.912253 0.728175
Si Si2 0.389136 0.000000 0.125708
Si Si3 0.000000 0.944118 0.867194
Si Si4 0.110897 0.373396 0.500000
Si Si5 0.104299 0.237642 0.258233
Si Si6 0.839918 0.328748 0.127319
Si Si7 0.634549 0.359603 0.128037
Si Si8 0.609507 0.760227 0.500000
O O1 0.500000 0.928902 0.703943
O O2 0.642139 0.953398 0.806046
O O3 0.643902 0.899478 0.610663
O O4 0.599082 0.863435 0.799050
O O5 0.500000 0.000000 0.119856
O O6 0.357162 0.000000 0.000000
O O7 0.913145 0.910153 0.838733
O O8 0.000000 0.000000 0.825520
O O9 0.000000 0.947735 0.000000
O O10 0.135985 0.316857 0.500000
O O11 0.000000 0.373641 0.500000
O O12 0.158203 0.276154 0.183782
O O13 0.104429 0.184892 0.204031
O O14 0.138641 0.237322 0.384008
O O15 0.000000 0.255061 0.259797
O O16 0.742617 0.355024 0.131821
O O17 0.867602 0.325041 0.000000
O O18 0.608931 0.350583 0.000000
O O19 0.500000 0.757469 0.500000
#
# Coordination Sequence:
#
# PCOD9486682 Si02
#       8
#    16   8   8   8  16  16  16   8
#     4  10  19  33  52  72 103 146 189 231 276 330
#     4   9  18  31  47  71 103 137 180 231 272 325
#     4   9  18  38  66  87 107 143 189 235 287 336
#     4   9  16  31  51  72 100 135 189 242 265 308
#     4  11  20  34  56  79 112 153 186 222 276 340
#     4  11  22  33  49  79 116 149 180 222 283 344
#     4  10  21  37  55  83 116 139 179 238 283 335
#     4   9  18  32  51  78 106 142 189 234 261 318
#
# _framework density 19.355270000000001
#
# number of rings (size 3 to 8) (size 9 to 14) (size 15 to 20)
#    0.000    2.000    2.500    2.000    0.000    4.333 
#    1.500    4.167    0.000    0.000    0.000    1.167 
#    0.000    0.000    0.000    0.000    0.000    0.000 
#
# Total GULP energy -267597.662979 kJ/mol
# GULP energy per Si atom -5574.951312 kJ/mol
# Density = 1.931122 g / cm^3
# Si number density = 19.355270 Si / 1000 Ang^3
#
#
#
# Elastic Constant Matrix: (Units=GPa)
#
#
# Indices 1 2 3 4 5 6 
#
# 1 49.7511 14.1028 11.3734 0.0000 0.0000 0.0000
# 2 14.1028 154.8066 76.5645 0.0000 0.0000 0.0000
# 3 11.3734 76.5645 170.5703 0.0000 0.0000 0.0000
# 4 0.0000 0.0000 0.0000 20.0199 0.0000 0.0000
# 5 0.0000 0.0000 0.0000 0.0000 10.4453 0.0000
# 6 0.0000 0.0000 0.0000 0.0000 0.0000 12.4498
#
#
#
# Elastic Compliance Matrix: (Units=1/GPa)
#
#
# Indices 1 2 3 4 5 6 
#
# 1 0.020695 -0.001546 -0.000686 0.000000 0.000000 0.000000
# 2 -0.001546 0.008418 -0.003676 0.000000 0.000000 0.000000
# 3 -0.000686 -0.003676 0.007558 0.000000 0.000000 0.000000
# 4 0.000000 0.000000 0.000000 0.049950 0.000000 0.000000
# 5 0.000000 0.000000 0.000000 0.000000 0.095737 0.000000
# 6 0.000000 0.000000 0.000000 0.000000 0.000000 0.080323
#
#
# Mechanical properties :
#
#
# Convention : Reuss Voigt Hill
#
# Bulk Modulus (GPa) = 40.23094 64.35660 52.29377
# Shear Modulus (GPa) = 17.68140 26.78882 22.23511
#
# Velocity S-wave (km/s) = 3.02573 3.72433 3.39306
# Velocity P-wave (km/s) = 5.74781 7.19837 6.51360
#
# Compressibility (1/GPa) = 0.02485649
#
# Stress axis : x y z
#
# Youngs Moduli (GPa) = 48.32056 118.78639 132.30373
#
# Poissons Ratio (x) = 0.18365 0.09075
# Poissons Ratio (y) = 0.07471 0.48631
# Poissons Ratio (z) = 0.03314 0.43663
#
# Static dielectric constant tensor:
#      x y z
#    x 1.770670 0.000000 0.000000 
#    y 0.000000 1.676000 0.000000 
#    z 0.000000 0.000000 1.675470 
# 
# From -- ./inp_files/25506.got.cif
#   From: 2010.05.17/outbox.cif.g08.bks.cpg/sg65_13_cif.got.tgz:25506.got - 2010.06.03 17:01:31.
