data_PCOD9486045
_publ_section_title
;
Structure prediction by ZEFSAII (Michael W. Deem and Ramdas Pophale) SiO2 
 PCOD9486045
Probable space group: C M M M
;
_chemical_formula_sum "Si O2"
_cell_formula_units_Z 120
_cell_length_a 14.688481
_cell_length_b 20.486873
_cell_length_c 21.564167
_cell_angle_alpha 90.000000
_cell_angle_beta 90.000000
_cell_angle_gamma 90.000000
_cell_volume 6489.111664
_symmetry_space_group_name_H-M "C M M M"
_symmetry_group_IT_number 65
_symmetry_cell_setting 'orthorhombic'
loop_
_space_group_symop_operation_xyz
x,y,z
-x,-y,z
x,-y,-z
-x,y,-z
-x,-y,-z
x,y,-z
-x,y,z
x,-y,z
1/2+x,1/2+y,z
1/2-x,1/2-y,z
1/2+x,1/2-y,-z
1/2-x,1/2+y,-z
1/2-x,1/2-y,-z
1/2+x,1/2+y,-z
1/2-x,1/2+y,z
1/2+x,1/2-y,z
loop_
_atom_site_type_symbol
_atom_site_label
_atom_site_fract_x
_atom_site_fract_y
_atom_site_fract_z
Si Si1 0.895337 0.212042 0.833437
Si Si2 0.108724 0.000000 0.427100
Si Si3 0.606860 0.269891 0.304728
Si Si4 0.861442 0.425394 0.830894
Si Si5 0.352141 0.428568 0.197089
Si Si6 0.100327 0.382669 0.692295
Si Si7 0.391638 0.185553 0.930576
Si Si8 0.194989 0.103080 0.337619
O O1 0.855555 0.227812 0.765935
O O2 0.893265 0.133948 0.837126
O O3 0.855863 0.253475 0.889793
O O4 0.000000 0.233588 0.828178
O O5 0.151438 0.937943 0.392391
O O6 0.128748 0.000000 0.500000
O O7 0.000000 0.000000 0.418854
O O8 0.500000 0.292046 0.305634
O O9 0.606144 0.194339 0.322395
O O10 0.668283 0.320604 0.342450
O O11 0.894077 0.500000 0.837804
O O12 0.753168 0.428157 0.822177
O O13 0.897668 0.394462 0.766706
O O14 0.880618 0.379000 0.888875
O O15 0.390982 0.500000 0.183461
O O16 0.350633 0.417816 0.271601
O O17 0.196550 0.410306 0.667812
O O18 0.000000 0.406652 0.670770
O O19 0.500000 0.195357 0.937319
O O20 0.352748 0.180685 0.000000
#
# Coordination Sequence:
#
# PCOD9486045 Si02
#       8
#    16   8  16  16  16  16  16  16
#     4   9  17  30  48  72 101 133 173 224 283 338
#     4  11  24  42  63  87 121 159 187 216 258 318
#     4   9  16  29  52  81 111 143 179 232 291 336
#     4  10  20  33  48  69 105 143 182 229 282 340
#     4   9  18  32  50  77 105 133 165 219 284 331
#     4  10  19  31  53  82 114 147 184 234 291 339
#     4  10  20  34  50  68  96 137 185 231 276 340
#     4  10  19  34  54  84 116 145 185 226 269 322
#
# _framework density 18.492515000000001
#
# number of rings (size 3 to 8) (size 9 to 14) (size 15 to 20)
#    0.000    2.333    2.000    1.200    0.933    2.667 
#    0.000    2.000    0.000    3.600    0.000    3.733 
#    0.000    0.000    0.000    0.000    0.000    0.000 
#
# Total GULP energy -334366.211000 kJ/mol
# GULP energy per Si atom -5572.770183 kJ/mol
# Density = 1.845043 g / cm^3
# Si number density = 18.492515 Si / 1000 Ang^3
#
#
#
# Elastic Constant Matrix: (Units=GPa)
#
#
# Indices 1 2 3 4 5 6 
#
# 1 88.3242 19.5941 42.3786 0.0000 0.0000 0.0000
# 2 19.5941 108.1605 50.1816 0.0000 0.0000 0.0000
# 3 42.3786 50.1816 99.5431 0.0000 0.0000 0.0000
# 4 0.0000 0.0000 0.0000 6.6144 0.0000 0.0000
# 5 0.0000 0.0000 0.0000 0.0000 13.9070 0.0000
# 6 0.0000 0.0000 0.0000 0.0000 0.0000 22.7733
#
#
#
# Elastic Compliance Matrix: (Units=1/GPa)
#
#
# Indices 1 2 3 4 5 6 
#
# 1 0.014236 0.000304 -0.006214 0.000000 0.000000 0.000000
# 2 0.000304 0.012075 -0.006216 0.000000 0.000000 0.000000
# 3 -0.006214 -0.006216 0.015825 0.000000 0.000000 0.000000
# 4 0.000000 0.000000 0.000000 0.151186 0.000000 0.000000
# 5 0.000000 0.000000 0.000000 0.000000 0.071906 0.000000
# 6 0.000000 0.000000 0.000000 0.000000 0.000000 0.043911
#
#
# Mechanical properties :
#
#
# Convention : Reuss Voigt Hill
#
# Bulk Modulus (GPa) = 55.91906 57.81517 56.86711
# Shear Modulus (GPa) = 14.73394 20.91717 17.82556
#
# Velocity S-wave (km/s) = 2.82574 3.36685 3.10810
# Velocity P-wave (km/s) = 6.39928 6.81515 6.61049
#
# Compressibility (1/GPa) = 0.01788299
#
# Stress axis : x y z
#
# Youngs Moduli (GPa) = 70.24452 82.81840 63.19022
#
# Poissons Ratio (x) = -0.02518 0.39266
# Poissons Ratio (y) = -0.02136 0.39282
# Poissons Ratio (z) = 0.43650 0.51484
#
# Static dielectric constant tensor:
#      x y z
#    x 1.694160 0.000000 0.000000 
#    y 0.000000 1.688910 0.000000 
#    z 0.000000 0.000000 1.610450 
# 
# From -- ./inp_files/63030.got.cif
#   From: 2010.05.17/outbox.cif.g08.bks.cpg/sg65_32_cif.got.tgz:63030.got - 2010.06.03 17:01:31.
