data_PCOD9486728
_publ_section_title
;
Structure prediction by ZEFSAII (Michael W. Deem and Ramdas Pophale) SiO2 
 PCOD9486728
Probable space group: C M M M
;
_chemical_formula_sum "Si O2"
_cell_formula_units_Z 96
_cell_length_a 21.037205
_cell_length_b 28.461173
_cell_length_c 10.089196
_cell_angle_alpha 90.000000
_cell_angle_beta 90.000000
_cell_angle_gamma 90.000000
_cell_volume 6040.840837
_symmetry_space_group_name_H-M "C M M M"
_symmetry_group_IT_number 65
_symmetry_cell_setting 'orthorhombic'
loop_
_space_group_symop_operation_xyz
x,y,z
-x,-y,z
x,-y,-z
-x,y,-z
-x,-y,-z
x,y,-z
-x,y,z
x,-y,z
1/2+x,1/2+y,z
1/2-x,1/2-y,z
1/2+x,1/2-y,-z
1/2-x,1/2+y,-z
1/2-x,1/2-y,-z
1/2+x,1/2+y,-z
1/2-x,1/2+y,z
1/2+x,1/2-y,z
loop_
_atom_site_type_symbol
_atom_site_label
_atom_site_fract_x
_atom_site_fract_y
_atom_site_fract_z
Si Si1 0.401503 0.651108 0.143983
Si Si2 0.288864 0.445056 0.645991
Si Si3 0.695680 0.210005 0.655643
Si Si4 0.429762 0.447009 0.257316
Si Si5 0.570240 0.268493 0.654683
Si Si6 0.247928 0.867313 0.846272
O O1 0.424355 0.597473 0.160817
O O2 0.425496 0.684586 0.259034
O O3 0.325011 0.650830 0.151138
O O4 0.421108 0.669001 0.000000
O O5 0.270007 0.427367 0.500000
O O6 0.273141 0.500000 0.656232
O O7 0.365977 0.441859 0.656094
O O8 0.257945 0.415714 0.764300
O O9 0.695742 0.194995 0.500000
O O10 0.750000 0.250000 0.667919
O O11 0.628024 0.233859 0.687017
O O12 0.711818 0.168830 0.758121
O O13 0.500000 0.444310 0.321841
O O14 0.425706 0.500000 0.198275
O O15 0.577666 0.281074 0.500000
O O16 0.500000 0.247359 0.672708
O O17 0.268229 0.872069 0.000000
#
# Coordination Sequence:
#
# PCOD9486728 Si02
#       6
#    16  16  16  16  16  16
#     4  10  20  32  46  65  89 120 160 203 245 287
#     4   9  18  32  49  68  92 123 158 198 242 286
#     4  10  19  33  53  73  93 124 163 200 238 286
#     4   9  18  30  42  60  87 119 158 204 250 290
#     4  10  21  35  50  70  96 124 155 196 244 288
#     4  10  20  32  49  72  96 124 159 201 242 282
#
# _framework density 15.891828
#
# number of rings (size 3 to 8) (size 9 to 14) (size 15 to 20)
#    0.000    2.333    1.667    1.000    0.000    6.000 
#    0.000    5.833    0.000    0.000    0.000    0.000 
#    0.000    0.667    0.000    7.667    0.000    2.333 
#
# Total GULP energy -267347.881085 kJ/mol
# GULP energy per Si atom -5569.747523 kJ/mol
# Density = 1.585566 g / cm^3
# Si number density = 15.891828 Si / 1000 Ang^3
#
#
#
# Elastic Constant Matrix: (Units=GPa)
#
#
# Indices 1 2 3 4 5 6 
#
# 1 74.5988 44.6417 40.3706 0.0000 0.0000 0.0000
# 2 44.6417 79.8922 64.5166 0.0000 0.0000 0.0000
# 3 40.3706 64.5166 104.2586 0.0000 0.0000 0.0000
# 4 0.0000 0.0000 0.0000 -14.0376 0.0000 0.0000
# 5 0.0000 0.0000 0.0000 0.0000 3.2289 0.0000
# 6 0.0000 0.0000 0.0000 0.0000 0.0000 14.8560
#
#
#
# Elastic Compliance Matrix: (Units=1/GPa)
#
#
# Indices 1 2 3 4 5 6 
#
# 1 0.020286 -0.009978 -0.001680 0.000000 0.000000 0.000000
# 2 -0.009978 0.029928 -0.014656 0.000000 0.000000 0.000000
# 3 -0.001680 -0.014656 0.019312 0.000000 0.000000 0.000000
# 4 0.000000 0.000000 0.000000 -0.071237 0.000000 0.000000
# 5 0.000000 0.000000 0.000000 0.000000 0.309702 0.000000
# 6 0.000000 0.000000 0.000000 0.000000 0.000000 0.067313
#
#
# Mechanical properties :
#
#
# Convention : Reuss Voigt Hill
#
# Bulk Modulus (GPa) = 59.18576 61.97861 60.58219
# Shear Modulus (GPa) = 11.53236 8.09084 9.81160
#
# Velocity S-wave (km/s) = 2.69676 2.25882 2.48745
# Velocity P-wave (km/s) = 6.85715 6.77407 6.81573
#
# Compressibility (1/GPa) = 0.01689595
#
# Stress axis : x y z
#
# Youngs Moduli (GPa) = 49.29624 33.41375 51.78258
#
# Poissons Ratio (x) = 0.33341 0.08701
# Poissons Ratio (y) = 0.49188 0.75893
# Poissons Ratio (z) = 0.08283 0.48971
#
# Static dielectric constant tensor:
#      x y z
#    x 1.535300 0.000000 0.000000 
#    y 0.000000 1.518510 0.000000 
#    z 0.000000 0.000000 1.552240 
# 
# From -- ./inp_files/12254.got.cif
#   From: 2010.05.17/outbox.cif.g08.bks.cpg/sg65_7_cif.got.tgz:12254.got - 2010.06.03 17:01:31.
