data_PCOD9486566
_publ_section_title
;
Structure prediction by ZEFSAII (Michael W. Deem and Ramdas Pophale) SiO2 
 PCOD9486566
Probable space group: C M M M
;
_chemical_formula_sum "Si O2"
_cell_formula_units_Z 72
_cell_length_a 19.556770
_cell_length_b 15.226017
_cell_length_c 14.326288
_cell_angle_alpha 90.000000
_cell_angle_beta 90.000000
_cell_angle_gamma 90.000000
_cell_volume 4265.963311
_symmetry_space_group_name_H-M "C M M M"
_symmetry_group_IT_number 65
_symmetry_cell_setting 'orthorhombic'
loop_
_space_group_symop_operation_xyz
x,y,z
-x,-y,z
x,-y,-z
-x,y,-z
-x,-y,-z
x,y,-z
-x,y,z
x,-y,z
1/2+x,1/2+y,z
1/2-x,1/2-y,z
1/2+x,1/2-y,-z
1/2-x,1/2+y,-z
1/2-x,1/2-y,-z
1/2+x,1/2+y,-z
1/2-x,1/2+y,z
1/2+x,1/2-y,z
loop_
_atom_site_type_symbol
_atom_site_label
_atom_site_fract_x
_atom_site_fract_y
_atom_site_fract_z
Si Si1 0.334303 0.000000 0.897393
Si Si2 0.736443 0.500000 0.613026
Si Si3 0.920926 0.304937 0.723926
Si Si4 0.314408 0.191564 0.108349
Si Si5 0.887151 0.500000 0.701458
Si Si6 0.183335 0.191381 0.611711
O O1 0.292578 0.089333 0.888610
O O2 0.387893 0.000000 0.814175
O O3 0.366959 0.000000 0.000000
O O4 0.746900 0.500000 0.500000
O O5 0.809800 0.500000 0.663263
O O6 0.697820 0.590216 0.637992
O O7 0.877150 0.301802 0.820101
O O8 0.916512 0.403646 0.678960
O O9 0.881984 0.236031 0.658235
O O10 0.000000 0.284357 0.739014
O O11 0.250000 0.250000 0.135872
O O12 0.332358 0.211729 0.000000
O O13 0.176439 0.194632 0.500000
O O14 0.250000 0.250000 0.636482
#
# Coordination Sequence:
#
# PCOD9486566 Si02
#       6
#     8   8  16  16   8  16
#     4   8  16  29  47  74 102 130 166 210 259 301
#     4  10  20  35  58  82  99 130 182 229 261 301
#     4  11  22  34  51  79 114 145 172 211 269 327
#     4   9  18  33  53  76 103 138 181 221 256 301
#     4  10  19  32  54  77 107 139 172 218 264 313
#     4  10  20  36  57  78 103 136 177 222 264 309
#
# _framework density 16.877783000000001
#
# number of rings (size 3 to 8) (size 9 to 14) (size 15 to 20)
#    0.000    2.222    2.222    1.000    3.111    0.889 
#    0.000    0.556    0.000   10.667    0.000    0.000 
#    0.000    6.222    0.000    0.000    0.000    0.000 
#
# Total GULP energy -200479.009077 kJ/mol
# GULP energy per Si atom -5568.861363 kJ/mol
# Density = 1.683937 g / cm^3
# Si number density = 16.877783 Si / 1000 Ang^3
#
#
#
# Elastic Constant Matrix: (Units=GPa)
#
#
# Indices 1 2 3 4 5 6 
#
# 1 135.9180 72.1222 41.8600 0.0000 0.0000 0.0000
# 2 72.1222 131.3222 42.6914 0.0000 0.0000 0.0000
# 3 41.8600 42.6914 52.0723 0.0000 0.0000 0.0000
# 4 0.0000 0.0000 0.0000 20.2432 0.0000 0.0000
# 5 0.0000 0.0000 0.0000 0.0000 5.1622 0.0000
# 6 0.0000 0.0000 0.0000 0.0000 0.0000 13.2725
#
#
#
# Elastic Compliance Matrix: (Units=1/GPa)
#
#
# Indices 1 2 3 4 5 6 
#
# 1 0.011438 -0.004489 -0.005514 0.000000 0.000000 0.000000
# 2 -0.004489 0.012144 -0.006347 0.000000 0.000000 0.000000
# 3 -0.005514 -0.006347 0.028841 0.000000 0.000000 0.000000
# 4 0.000000 0.000000 0.000000 0.049399 0.000000 0.000000
# 5 0.000000 0.000000 0.000000 0.000000 0.193715 0.000000
# 6 0.000000 0.000000 0.000000 0.000000 0.000000 0.075344
#
#
# Mechanical properties :
#
#
# Convention : Reuss Voigt Hill
#
# Bulk Modulus (GPa) = 50.70759 70.29552 60.50156
# Shear Modulus (GPa) = 12.19051 18.57817 15.38434
#
# Velocity S-wave (km/s) = 2.69044 3.32135 3.02240
# Velocity P-wave (km/s) = 6.30560 7.51323 6.93575
#
# Compressibility (1/GPa) = 0.01972091
#
# Stress axis : x y z
#
# Youngs Moduli (GPa) = 87.43088 82.34762 34.67312
#
# Poissons Ratio (x) = 0.36965 0.19120
# Poissons Ratio (y) = 0.39247 0.22008
# Poissons Ratio (z) = 0.48212 0.52269
#
# Static dielectric constant tensor:
#      x y z
#    x 1.522300 0.000000 0.000000 
#    y 0.000000 1.607010 0.000000 
#    z 0.000000 0.000000 1.617380 
# 
# From -- ./inp_files/39874.got.cif
#   From: 2010.05.17/outbox.cif.g08.bks.cpg/sg65_20_cif.got.tgz:39874.got - 2010.06.03 17:01:31.
