data_PCOD9486248
_publ_section_title
;
Structure prediction by ZEFSAII (Michael W. Deem and Ramdas Pophale) SiO2 
 PCOD9486248
Probable space group: C M M M
;
_chemical_formula_sum "Si O2"
_cell_formula_units_Z 72
_cell_length_a 28.403418
_cell_length_b 16.394434
_cell_length_c 8.888740
_cell_angle_alpha 90.000000
_cell_angle_beta 90.000000
_cell_angle_gamma 90.000000
_cell_volume 4139.112551
_symmetry_space_group_name_H-M "C M M M"
_symmetry_group_IT_number 65
_symmetry_cell_setting 'orthorhombic'
loop_
_space_group_symop_operation_xyz
x,y,z
-x,-y,z
x,-y,-z
-x,y,-z
-x,-y,-z
x,y,-z
-x,y,z
x,-y,z
1/2+x,1/2+y,z
1/2-x,1/2-y,z
1/2+x,1/2-y,-z
1/2-x,1/2+y,-z
1/2-x,1/2-y,-z
1/2+x,1/2+y,-z
1/2-x,1/2+y,z
1/2+x,1/2-y,z
loop_
_atom_site_type_symbol
_atom_site_label
_atom_site_fract_x
_atom_site_fract_y
_atom_site_fract_z
Si Si1 0.284012 0.676688 0.317548
Si Si2 0.056164 0.670108 0.678157
Si Si3 0.614289 0.500000 0.180471
Si Si4 0.781808 0.000000 0.319828
Si Si5 0.442737 0.000000 0.825744
Si Si6 0.888512 0.179744 0.819947
O O1 0.289173 0.678401 0.500000
O O2 0.250000 0.750000 0.273290
O O3 0.262711 0.588217 0.272118
O O4 0.335483 0.684421 0.244712
O O5 0.064344 0.669508 0.500000
O O6 0.072708 0.583710 0.746771
O O7 0.081416 0.747385 0.751123
O O8 0.000000 0.676135 0.704604
O O9 0.664370 0.500000 0.263788
O O10 0.592138 0.588179 0.217109
O O11 0.622286 0.500000 0.000000
O O12 0.780699 0.000000 0.500000
O O13 0.500000 0.000000 0.818147
O O14 0.429062 0.000000 0.000000
O O15 0.887405 0.187305 0.000000
#
# Coordination Sequence:
#
# PCOD9486248 Si02
#       6
#    16  16   8   8   8  16
#     4   9  17  30  48  69  94 124 159 199 243 293
#     4  10  20  34  52  74 100 130 164 201 242 291
#     4   8  16  30  47  68  93 125 163 200 242 291
#     4   8  14  26  45  66  87 118 158 194 232 283
#     4   9  17  31  52  75  98 127 163 200 240 289
#     4  10  19  32  51  73  98 128 164 206 249 294
#
# _framework density 17.395033000000002
#
# number of rings (size 3 to 8) (size 9 to 14) (size 15 to 20)
#    0.000    2.778    0.000    1.667    0.000    4.000 
#    0.000    1.667    0.000    6.000    0.000    0.000 
#    0.000    0.000    0.000    0.000    0.000    0.000 
#
# Total GULP energy -200429.573932 kJ/mol
# GULP energy per Si atom -5567.488165 kJ/mol
# Density = 1.735544 g / cm^3
# Si number density = 17.395033 Si / 1000 Ang^3
#
#
#
# Elastic Constant Matrix: (Units=GPa)
#
#
# Indices 1 2 3 4 5 6 
#
# 1 18.7327 61.3330 41.5901 0.0000 0.0000 0.0000
# 2 61.3330 238.1936 73.4084 0.0000 0.0000 0.0000
# 3 41.5901 73.4084 38.5592 0.0000 0.0000 0.0000
# 4 0.0000 0.0000 0.0000 23.6808 0.0000 0.0000
# 5 0.0000 0.0000 0.0000 0.0000 13.5905 0.0000
# 6 0.0000 0.0000 0.0000 0.0000 0.0000 32.4108
#
#
#
# Elastic Compliance Matrix: (Units=1/GPa)
#
#
# Indices 1 2 3 4 5 6 
#
# 1 -0.034058 -0.006174 0.048490 0.000000 0.000000 0.000000
# 2 -0.006174 0.009039 -0.010549 0.000000 0.000000 0.000000
# 3 0.048490 -0.010549 -0.006283 0.000000 0.000000 0.000000
# 4 0.000000 0.000000 0.000000 0.042228 0.000000 0.000000
# 5 0.000000 0.000000 0.000000 0.000000 0.073581 0.000000
# 6 0.000000 0.000000 0.000000 0.000000 0.000000 0.030854
#
#
# Mechanical properties :
#
#
# Convention : Reuss Voigt Hill
#
# Bulk Modulus (GPa) = 31.02697 72.01650 51.52173
# Shear Modulus (GPa) = 79.90763 21.88000 50.89381
#
# Velocity S-wave (km/s) = 6.78504 3.55044 5.41490
# Velocity P-wave (km/s) = 8.90268 7.63531 8.29324
#
# Compressibility (1/GPa) = 0.03223003
#
# Stress axis : x y z
#
# Youngs Moduli (GPa) = -29.36161 110.62883 -159.15357
#
# Poissons Ratio (x) = 0.68304 7.71728
# Poissons Ratio (y) = -0.18128 -1.67895
# Poissons Ratio (z) = 1.42373 1.16705
#
# Static dielectric constant tensor:
#      x y z
#    x 1.561690 0.000000 0.000000 
#    y 0.000000 1.641300 0.000000 
#    z 0.000000 0.000000 1.575690 
# 
# From -- ./inp_files/7390.got.cif
#   From: 2010.05.17/outbox.cif.g08.bks.cpg/sg65_4_cif.got.tgz:7390.got - 2010.06.03 17:01:31.
