data_PCOD9486154
_publ_section_title
;
Structure prediction by ZEFSAII (Michael W. Deem and Ramdas Pophale) SiO2 
 PCOD9486154
Probable space group: C M M M
;
_chemical_formula_sum "Si O2"
_cell_formula_units_Z 104
_cell_length_a 26.575590
_cell_length_b 8.270029
_cell_length_c 27.131811
_cell_angle_alpha 90.000000
_cell_angle_beta 90.000000
_cell_angle_gamma 90.000000
_cell_volume 5963.053840
_symmetry_space_group_name_H-M "C M M M"
_symmetry_group_IT_number 65
_symmetry_cell_setting 'orthorhombic'
loop_
_space_group_symop_operation_xyz
x,y,z
-x,-y,z
x,-y,-z
-x,y,-z
-x,-y,-z
x,y,-z
-x,y,z
x,-y,z
1/2+x,1/2+y,z
1/2-x,1/2-y,z
1/2+x,1/2-y,-z
1/2-x,1/2+y,-z
1/2-x,1/2-y,-z
1/2+x,1/2+y,-z
1/2-x,1/2+y,z
1/2+x,1/2-y,z
loop_
_atom_site_type_symbol
_atom_site_label
_atom_site_fract_x
_atom_site_fract_y
_atom_site_fract_z
Si Si1 0.402663 0.304775 0.709356
Si Si2 0.194609 0.695125 0.880425
Si Si3 0.058439 0.805238 0.395189
Si Si4 0.441911 0.192658 0.500000
Si Si5 0.000000 0.695528 0.115999
Si Si6 0.599047 0.197827 0.943250
Si Si7 0.500000 0.695268 0.228710
Si Si8 0.694587 0.806863 0.767258
O O1 0.403994 0.500000 0.709050
O O2 0.411976 0.249380 0.653235
O O3 0.449826 0.248811 0.742765
O O4 0.350394 0.251812 0.732967
O O5 0.193815 0.500000 0.880052
O O6 0.250000 0.750000 0.896415
O O7 0.149657 0.751163 0.915506
O O8 0.186804 0.751496 0.823870
O O9 0.079733 0.750839 0.447957
O O10 0.000000 0.749570 0.391140
O O11 0.057515 0.000000 0.394738
O O12 0.500000 0.254550 0.500000
O O13 0.442696 0.000000 0.500000
O O14 0.049948 0.749738 0.087142
O O15 0.000000 0.500000 0.115759
O O16 0.000000 0.751058 0.172297
O O17 0.599004 0.000000 0.943302
O O18 0.597209 0.249983 0.000000
O O19 0.500000 0.500000 0.230343
O O20 0.750000 0.750000 0.751496
O O21 0.694123 0.000000 0.768182
#
# Coordination Sequence:
#
# PCOD9486154 Si02
#       8
#    16  16  16   8   8  16   8  16
#     4  10  19  32  50  73 101 132 167 206 245 291
#     4   9  18  32  49  69  93 119 151 191 238 291
#     4   9  16  29  47  67  95 133 172 203 238 289
#     4   9  17  27  41  65  98 133 168 207 247 284
#     4  10  19  32  50  70  91 121 162 199 233 283
#     4   9  17  30  49  71  93 118 152 195 239 284
#     4  10  20  33  49  72 103 134 161 195 248 301
#     4  10  20  34  51  72  98 129 164 203 247 296
#
# _framework density 17.440726999999999
#
# number of rings (size 3 to 8) (size 9 to 14) (size 15 to 20)
#    0.000    2.538    0.769    1.846    0.000    5.231 
#    0.000    0.769    0.000    1.846    0.000    0.538 
#    0.000    0.000    0.000    0.000    0.000    0.000 
#
# Total GULP energy -290029.045453 kJ/mol
# GULP energy per Si atom -5577.481643 kJ/mol
# Density = 1.740103 g / cm^3
# Si number density = 17.440727 Si / 1000 Ang^3
#
#
#
# Elastic Constant Matrix: (Units=GPa)
#
#
# Indices 1 2 3 4 5 6 
#
# 1 142.6166 16.5759 109.2702 0.0000 0.0000 0.0000
# 2 16.5759 8.7218 19.2391 0.0000 0.0000 0.0000
# 3 109.2702 19.2391 176.6798 0.0000 0.0000 0.0000
# 4 0.0000 0.0000 0.0000 19.8701 0.0000 0.0000
# 5 0.0000 0.0000 0.0000 0.0000 3.9860 0.0000
# 6 0.0000 0.0000 0.0000 0.0000 0.0000 21.6340
#
#
#
# Elastic Compliance Matrix: (Units=1/GPa)
#
#
# Indices 1 2 3 4 5 6 
#
# 1 0.013940 -0.009839 -0.007550 0.000000 0.000000 0.000000
# 2 -0.009839 0.157847 -0.011103 0.000000 0.000000 0.000000
# 3 -0.007550 -0.011103 0.011538 0.000000 0.000000 0.000000
# 4 0.000000 0.000000 0.000000 0.050327 0.000000 0.000000
# 5 0.000000 0.000000 0.000000 0.000000 0.250876 0.000000
# 6 0.000000 0.000000 0.000000 0.000000 0.000000 0.046224
#
#
# Mechanical properties :
#
#
# Convention : Reuss Voigt Hill
#
# Bulk Modulus (GPa) = 7.91508 68.68762 38.30135
# Shear Modulus (GPa) = 7.93839 21.29355 14.61597
#
# Velocity S-wave (km/s) = 2.13577 3.49794 2.89803
# Velocity P-wave (km/s) = 3.26039 7.46881 5.76252
#
# Compressibility (1/GPa) = 0.12634103
#
# Stress axis : x y z
#
# Youngs Moduli (GPa) = 71.73573 6.33524 86.66659
#
# Poissons Ratio (x) = 0.06233 0.65434
# Poissons Ratio (y) = 0.70580 0.96229
# Poissons Ratio (z) = 0.54161 0.07034
#
# Static dielectric constant tensor:
#      x y z
#    x 1.567910 0.000000 0.000000 
#    y 0.000000 1.611180 0.000000 
#    z 0.000000 0.000000 1.598880 
# 
# From -- ./inp_files/71900.got.cif
#   From: 2010.05.17/outbox.cif.g08.bks.cpg/sg65_36_cif.got.tgz:71900.got - 2010.06.03 17:01:31.
