data_PCOD9486947
_publ_section_title
;
Structure prediction by ZEFSAII (Michael W. Deem and Ramdas Pophale) SiO2 
 PCOD9486947
Probable space group: C M M M
;
_chemical_formula_sum "Si O2"
_cell_formula_units_Z 58
_cell_length_a 30.089585
_cell_length_b 5.503361
_cell_length_c 15.546777
_cell_angle_alpha 90.000000
_cell_angle_beta 90.000000
_cell_angle_gamma 90.000000
_cell_volume 2574.450637
_symmetry_space_group_name_H-M "C M M M"
_symmetry_group_IT_number 65
_symmetry_cell_setting 'orthorhombic'
loop_
_space_group_symop_operation_xyz
x,y,z
-x,-y,z
x,-y,-z
-x,y,-z
-x,-y,-z
x,y,-z
-x,y,z
x,-y,z
1/2+x,1/2+y,z
1/2-x,1/2-y,z
1/2+x,1/2-y,-z
1/2-x,1/2+y,-z
1/2-x,1/2-y,-z
1/2+x,1/2+y,-z
1/2-x,1/2+y,z
1/2+x,1/2-y,z
loop_
_atom_site_type_symbol
_atom_site_label
_atom_site_fract_x
_atom_site_fract_y
_atom_site_fract_z
Si Si1 0.078188 0.500000 0.357904
Si Si2 0.548613 0.500000 0.830771
Si Si3 0.340580 0.000000 0.906362
Si Si4 0.068900 0.500000 0.161293
Si Si5 0.000000 0.500000 0.500000
Si Si6 0.377867 0.500000 0.681045
Si Si7 0.228396 0.000000 0.711194
Si Si8 0.786206 0.000000 0.904396
O O1 0.056161 0.500000 0.261996
O O2 0.107279 0.748045 0.364577
O O3 0.039057 0.500000 0.425880
O O4 0.500000 0.500000 0.787264
O O5 0.552939 0.248199 0.880284
O O6 0.590657 0.500000 0.766193
O O7 0.314265 0.252065 0.901962
O O8 0.377858 0.000000 0.835198
O O9 0.363198 0.000000 0.000000
O O10 0.325147 0.500000 0.700388
O O11 0.250000 0.750000 0.676764
O O12 0.238985 0.000000 0.814056
O O13 0.764015 0.000000 0.000000
#
# Coordination Sequence:
#
# PCOD9486947 Si02
#       8
#     8   8   8   8   2   8   8   8
#     4  10  23  38  63  92 139 166 202 248 314 407
#     4  10  20  32  57  84 111 153 208 244 311 395
#     4  10  19  34  58  84 117 164 223 268 311 381
#     4  10  19  33  54  81 116 164 204 241 301 365
#     4  12  28  42  68 118 138 174 196 254 336 414
#     4  10  22  40  63  89 128 177 209 254 317 379
#     4  12  24  39  63  94 129 170 231 284 314 373
#     4  10  20  34  54  84 123 165 206 270 347 391
#
# _framework density 22.529081000000001
#
# number of rings (size 3 to 8) (size 9 to 14) (size 15 to 20)
#    0.000    1.655    0.000    6.207    7.724    1.655 
#    0.000    0.000    0.000    2.483    0.000    9.655 
#    0.000    0.000    0.000    0.000    0.000    0.000 
#
# Total GULP energy -161550.173598 kJ/mol
# GULP energy per Si atom -5570.695641 kJ/mol
# Density = 2.247780 g / cm^3
# Si number density = 22.529081 Si / 1000 Ang^3
#
#
#
# Elastic Constant Matrix: (Units=GPa)
#
#
# Indices 1 2 3 4 5 6 
#
# 1 166.0732 86.9668 17.9509 0.0000 0.0000 0.0000
# 2 86.9668 274.3406 20.3868 0.0000 0.0000 0.0000
# 3 17.9509 20.3868 47.3027 0.0000 0.0000 0.0000
# 4 0.0000 0.0000 0.0000 -24.6440 0.0000 0.0000
# 5 0.0000 0.0000 0.0000 0.0000 29.4690 0.0000
# 6 0.0000 0.0000 0.0000 0.0000 0.0000 16.6706
#
#
#
# Elastic Compliance Matrix: (Units=1/GPa)
#
#
# Indices 1 2 3 4 5 6 
#
# 1 0.007373 -0.002200 -0.001850 0.000000 0.000000 0.000000
# 2 -0.002200 0.004422 -0.001071 0.000000 0.000000 0.000000
# 3 -0.001850 -0.001071 0.022304 0.000000 0.000000 0.000000
# 4 0.000000 0.000000 0.000000 -0.040578 0.000000 0.000000
# 5 0.000000 0.000000 0.000000 0.000000 0.033934 0.000000
# 6 0.000000 0.000000 0.000000 0.000000 0.000000 0.059986
#
#
# Mechanical properties :
#
#
# Convention : Reuss Voigt Hill
#
# Bulk Modulus (GPa) = 41.91516 82.03619 61.97567
# Shear Modulus (GPa) = 47.33228 28.45990 37.89609
#
# Velocity S-wave (km/s) = 4.58858 3.55808 4.10579
# Velocity P-wave (km/s) = 6.83511 7.30564 7.07429
#
# Compressibility (1/GPa) = 0.02385772
#
# Stress axis : x y z
#
# Youngs Moduli (GPa) = 135.62196 226.13822 44.83483
#
# Poissons Ratio (x) = 0.49749 0.08295
# Poissons Ratio (y) = 0.29836 0.04802
# Poissons Ratio (z) = 0.25090 0.24219
#
# Static dielectric constant tensor:
#      x y z
#    x 1.842460 0.000000 0.000000 
#    y 0.000000 1.932200 0.000000 
#    z 0.000000 0.000000 1.802400 
# 
# From -- ./inp_files/57079.got.cif
#   From: 2010.05.17/outbox.cif.g08.bks.cpg/sg65_29_cif.got.tgz:57079.got - 2010.06.03 17:01:31.
