data_PCOD9486796
_publ_section_title
;
Structure prediction by ZEFSAII (Michael W. Deem and Ramdas Pophale) SiO2 
 PCOD9486796
Probable space group: C M M M
;
_chemical_formula_sum "Si O2"
_cell_formula_units_Z 96
_cell_length_a 19.405069
_cell_length_b 31.151495
_cell_length_c 7.579102
_cell_angle_alpha 90.000000
_cell_angle_beta 90.000000
_cell_angle_gamma 90.000000
_cell_volume 4581.543739
_symmetry_space_group_name_H-M "C M M M"
_symmetry_group_IT_number 65
_symmetry_cell_setting 'orthorhombic'
loop_
_space_group_symop_operation_xyz
x,y,z
-x,-y,z
x,-y,-z
-x,y,-z
-x,-y,-z
x,y,-z
-x,y,z
x,-y,z
1/2+x,1/2+y,z
1/2-x,1/2-y,z
1/2+x,1/2-y,-z
1/2-x,1/2+y,-z
1/2-x,1/2-y,-z
1/2+x,1/2+y,-z
1/2-x,1/2+y,z
1/2+x,1/2-y,z
loop_
_atom_site_type_symbol
_atom_site_label
_atom_site_fract_x
_atom_site_fract_y
_atom_site_fract_z
Si Si1 0.227579 0.297361 0.216210
Si Si2 0.808532 0.119892 0.788991
Si Si3 0.779421 0.544519 0.202906
Si Si4 0.920637 0.048295 0.287830
Si Si5 0.074532 0.431003 0.707544
Si Si6 0.076718 0.329869 0.213332
O O1 0.250000 0.250000 0.272292
O O2 0.284012 0.333189 0.275089
O O3 0.148800 0.308491 0.272342
O O4 0.226366 0.297679 0.000000
O O5 0.750684 0.087304 0.716591
O O6 0.876615 0.090782 0.758307
O O7 0.804275 0.124364 0.000000
O O8 0.758149 0.500000 0.289632
O O9 0.860860 0.547914 0.202644
O O10 0.755488 0.543950 0.000000
O O11 0.919800 0.046371 0.500000
O O12 0.000000 0.053339 0.230168
O O13 0.897768 0.000000 0.225403
O O14 0.078356 0.440619 0.500000
O O15 0.079514 0.379753 0.733028
O O16 0.000000 0.444657 0.774687
O O17 0.000000 0.313596 0.270909
O O18 0.076932 0.328016 0.000000
#
# Coordination Sequence:
#
# PCOD9486796 Si02
#       6
#    16  16  16  16  16  16
#     4   9  17  31  52  79 108 134 166 218 272 312
#     4  10  19  33  53  78 106 134 168 214 263 308
#     4  10  20  33  49  71 100 134 171 208 249 301
#     4   9  19  36  56  78 106 141 178 213 256 317
#     4  10  20  32  47  69  98 131 168 211 253 291
#     4   9  16  30  53  74  95 132 177 211 247 301
#
# _framework density 20.953635999999999
#
# number of rings (size 3 to 8) (size 9 to 14) (size 15 to 20)
#    0.000    2.500    1.667    1.500    0.000    3.667 
#    0.000    3.333    0.000    5.000    0.000    2.333 
#    0.000    0.000    0.000    0.000    0.000    0.000 
#
# Total GULP energy -267348.761577 kJ/mol
# GULP energy per Si atom -5569.765866 kJ/mol
# Density = 2.090594 g / cm^3
# Si number density = 20.953636 Si / 1000 Ang^3
#
#
#
# Elastic Constant Matrix: (Units=GPa)
#
#
# Indices 1 2 3 4 5 6 
#
# 1 148.7194 79.2492 0.5577 0.0000 0.0000 0.0000
# 2 79.2492 176.9154 8.3029 0.0000 0.0000 0.0000
# 3 0.5577 8.3029 50.2843 0.0000 0.0000 0.0000
# 4 0.0000 0.0000 0.0000 9.9080 0.0000 0.0000
# 5 0.0000 0.0000 0.0000 0.0000 24.6690 0.0000
# 6 0.0000 0.0000 0.0000 0.0000 0.0000 -296.6520
#
#
#
# Elastic Compliance Matrix: (Units=1/GPa)
#
#
# Indices 1 2 3 4 5 6 
#
# 1 0.008848 -0.003990 0.000561 0.000000 0.000000 0.000000
# 2 -0.003990 0.007496 -0.001193 0.000000 0.000000 0.000000
# 3 0.000561 -0.001193 0.020078 0.000000 0.000000 0.000000
# 4 0.000000 0.000000 0.000000 0.100929 0.000000 0.000000
# 5 0.000000 0.000000 0.000000 0.000000 0.040537 0.000000
# 6 0.000000 0.000000 0.000000 0.000000 0.000000 -0.003371
#
#
# Mechanical properties :
#
#
# Convention : Reuss Voigt Hill
#
# Bulk Modulus (GPa) = 36.79672 61.34876 49.07274
# Shear Modulus (GPa) = 25.93093 -33.22773 -3.64840
#
# Velocity S-wave (km/s) = 3.52168 -3.98650 -1.32097
# Velocity P-wave (km/s) = 5.84256 2.85523 4.59825
#
# Compressibility (1/GPa) = 0.02717634
#
# Stress axis : x y z
#
# Youngs Moduli (GPa) = 113.01934 133.41062 49.80634
#
# Poissons Ratio (x) = 0.53228 -0.02792
# Poissons Ratio (y) = 0.45092 0.05944
# Poissons Ratio (z) = -0.06337 0.15922
#
# Static dielectric constant tensor:
#      x y z
#    x 1.798880 0.000000 0.000000 
#    y 0.000000 1.767140 0.000000 
#    z 0.000000 0.000000 1.771560 
# 
# From -- ./inp_files/12304.got.cif
#   From: 2010.05.17/outbox.cif.g08.bks.cpg/sg65_7_cif.got.tgz:12304.got - 2010.06.03 17:01:31.
