data_PCOD9486469
_publ_section_title
;
Structure prediction by ZEFSAII (Michael W. Deem and Ramdas Pophale) SiO2 
 PCOD9486469
Probable space group: C M M M
;
_chemical_formula_sum "Si O2"
_cell_formula_units_Z 72
_cell_length_a 8.522658
_cell_length_b 18.811932
_cell_length_c 23.993931
_cell_angle_alpha 90.000000
_cell_angle_beta 90.000000
_cell_angle_gamma 90.000000
_cell_volume 3846.890878
_symmetry_space_group_name_H-M "C M M M"
_symmetry_group_IT_number 65
_symmetry_cell_setting 'orthorhombic'
loop_
_space_group_symop_operation_xyz
x,y,z
-x,-y,z
x,-y,-z
-x,y,-z
-x,-y,-z
x,y,-z
-x,y,z
x,-y,z
1/2+x,1/2+y,z
1/2-x,1/2-y,z
1/2+x,1/2-y,-z
1/2-x,1/2+y,-z
1/2-x,1/2-y,-z
1/2+x,1/2+y,-z
1/2-x,1/2+y,z
1/2+x,1/2-y,z
loop_
_atom_site_type_symbol
_atom_site_label
_atom_site_fract_x
_atom_site_fract_y
_atom_site_fract_z
Si Si1 0.187364 0.330760 0.711403
Si Si2 0.811407 0.082854 0.606247
Si Si3 0.687201 0.830562 0.500000
Si Si4 0.190971 0.917418 0.061285
Si Si5 0.689063 0.669945 0.168742
O O1 0.250000 0.250000 0.703654
O O2 0.250342 0.380624 0.662530
O O3 0.246598 0.356413 0.771918
O O4 0.000000 0.328627 0.710667
O O5 0.746704 0.127314 0.554197
O O6 0.000000 0.085893 0.605320
O O7 0.763975 0.000000 0.602810
O O8 0.500000 0.828551 0.500000
O O9 0.750000 0.750000 0.500000
O O10 0.243672 0.874264 0.115093
O O11 0.000000 0.915212 0.061476
O O12 0.236047 0.000000 0.065836
O O13 0.242114 0.890825 0.000000
O O14 0.500000 0.669541 0.170943
O O15 0.750000 0.750000 0.162665
#
# Coordination Sequence:
#
# PCOD9486469 Si02
#       5
#    16  16   8  16  16
#     4  11  22  38  59  82 112 148 188 232 279 333
#     4  11  24  42  63  88 119 152 188 231 279 330
#     4  12  25  42  65  91 121 155 193 232 275 328
#     4   8  15  29  49  73 101 135 177 223 270 324
#     4  10  19  32  52  78 107 140 179 224 275 329
#
# _framework density 18.716412999999999
#
# number of rings (size 3 to 8) (size 9 to 14) (size 15 to 20)
#    0.000    1.778    0.000    7.333    0.000    4.444 
#    0.000    2.222    0.000    4.000    0.000    6.222 
#    0.000    0.000    0.000    0.000    0.000    0.000 
#
# Total GULP energy -201093.386443 kJ/mol
# GULP energy per Si atom -5585.927401 kJ/mol
# Density = 1.867381 g / cm^3
# Si number density = 18.716413 Si / 1000 Ang^3
#
#
#
# Elastic Constant Matrix: (Units=GPa)
#
#
# Indices 1 2 3 4 5 6 
#
# 1 93.3164 45.5651 54.3181 0.0000 0.0000 0.0000
# 2 45.5651 116.3375 118.8941 0.0000 0.0000 0.0000
# 3 54.3181 118.8941 231.8504 0.0000 0.0000 0.0000
# 4 0.0000 0.0000 0.0000 60.5764 0.0000 0.0000
# 5 0.0000 0.0000 0.0000 0.0000 14.3361 0.0000
# 6 0.0000 0.0000 0.0000 0.0000 0.0000 26.5810
#
#
#
# Elastic Compliance Matrix: (Units=1/GPa)
#
#
# Indices 1 2 3 4 5 6 
#
# 1 0.013347 -0.004269 -0.000938 0.000000 0.000000 0.000000
# 2 -0.004269 0.019427 -0.008962 0.000000 0.000000 0.000000
# 3 -0.000938 -0.008962 0.009128 0.000000 0.000000 0.000000
# 4 0.000000 0.000000 0.000000 0.016508 0.000000 0.000000
# 5 0.000000 0.000000 0.000000 0.000000 0.069754 0.000000
# 6 0.000000 0.000000 0.000000 0.000000 0.000000 0.037621
#
#
# Mechanical properties :
#
#
# Convention : Reuss Voigt Hill
#
# Bulk Modulus (GPa) = 73.72253 97.67320 85.69787
# Shear Modulus (GPa) = 25.17074 35.14715 30.15894
#
# Velocity S-wave (km/s) = 3.67120 4.33815 4.01853
# Velocity P-wave (km/s) = 7.57925 8.79727 8.21087
#
# Compressibility (1/GPa) = 0.01356437
#
# Stress axis : x y z
#
# Youngs Moduli (GPa) = 74.92564 51.47599 109.54740
#
# Poissons Ratio (x) = 0.21976 0.10271
# Poissons Ratio (y) = 0.31987 0.98175
# Poissons Ratio (z) = 0.07025 0.46132
#
# Static dielectric constant tensor:
#      x y z
#    x 1.636950 0.000000 0.000000 
#    y 0.000000 1.608560 0.000000 
#    z 0.000000 0.000000 1.646510 
# 
# From -- ./inp_files/67050.got.cif
#   From: 2010.05.17/outbox.cif.g08.bks.cpg/sg65_34_cif.got.tgz:67050.got - 2010.06.03 17:01:31.
