data_PCOD9486280
_publ_section_title
;
Structure prediction by ZEFSAII (Michael W. Deem and Ramdas Pophale) SiO2 
 PCOD9486280
Probable space group: C M M M
;
_chemical_formula_sum "Si O2"
_cell_formula_units_Z 96
_cell_length_a 18.359596
_cell_length_b 26.465793
_cell_length_c 11.815816
_cell_angle_alpha 90.000000
_cell_angle_beta 90.000000
_cell_angle_gamma 90.000000
_cell_volume 5741.319969
_symmetry_space_group_name_H-M "C M M M"
_symmetry_group_IT_number 65
_symmetry_cell_setting 'orthorhombic'
loop_
_space_group_symop_operation_xyz
x,y,z
-x,-y,z
x,-y,-z
-x,y,-z
-x,-y,-z
x,y,-z
-x,y,z
x,-y,z
1/2+x,1/2+y,z
1/2-x,1/2-y,z
1/2+x,1/2-y,-z
1/2-x,1/2+y,-z
1/2-x,1/2-y,-z
1/2+x,1/2+y,-z
1/2-x,1/2+y,z
1/2+x,1/2-y,z
loop_
_atom_site_type_symbol
_atom_site_label
_atom_site_fract_x
_atom_site_fract_y
_atom_site_fract_z
Si Si1 0.412478 0.866162 0.866388
Si Si2 0.337815 0.556707 0.865063
Si Si3 0.414821 0.651636 0.749319
Si Si4 0.588489 0.751864 0.130874
Si Si5 0.687925 0.058410 0.734413
Si Si6 0.416850 0.615830 0.500000
Si Si7 0.264097 0.560529 0.500000
O O1 0.500000 0.869077 0.855587
O O2 0.388371 0.808658 0.838103
O O3 0.373490 0.905828 0.785455
O O4 0.395652 0.874934 0.000000
O O5 0.365506 0.500000 0.834480
O O6 0.378316 0.602430 0.803769
O O7 0.254840 0.558688 0.822766
O O8 0.342767 0.562130 0.000000
O O9 0.500000 0.649530 0.780729
O O10 0.384914 0.704688 0.795875
O O11 0.409993 0.647894 0.614353
O O12 0.500000 0.752822 0.136740
O O13 0.608097 0.743011 0.000000
O O14 0.721549 0.075984 0.614115
O O15 0.663474 0.000000 0.721983
O O16 0.500000 0.593725 0.500000
O O17 0.347707 0.578701 0.500000
O O18 0.265688 0.500000 0.500000
#
# Coordination Sequence:
#
# PCOD9486280 Si02
#       7
#    16  16  16  16  16   8   8
#     4   9  18  34  57  83 107 132 170 218 262 313
#     4  10  20  32  48  72 102 136 171 209 260 319
#     4  10  19  32  51  74 103 137 175 218 259 303
#     4   8  15  30  52  76 103 136 170 208 260 314
#     4  10  20  35  54  75 104 139 172 210 263 318
#     4  10  20  33  53  78 100 135 188 230 256 292
#     4  10  20  37  56  73 101 146 182 212 259 311
#
# _framework density 16.720893
#
# number of rings (size 3 to 8) (size 9 to 14) (size 15 to 20)
#    0.000    2.500    1.667    2.000    0.000    2.833 
#    0.000    5.417    0.000    7.500    0.000    0.000 
#    0.000    0.000    0.000    0.000    0.000    0.000 
#
# Total GULP energy -267372.985812 kJ/mol
# GULP energy per Si atom -5570.270538 kJ/mol
# Density = 1.668284 g / cm^3
# Si number density = 16.720893 Si / 1000 Ang^3
#
#
#
# Elastic Constant Matrix: (Units=GPa)
#
#
# Indices 1 2 3 4 5 6 
#
# 1 44.9197 49.5033 39.7169 0.0000 0.0000 0.0000
# 2 49.5033 115.9447 70.5364 0.0000 0.0000 0.0000
# 3 39.7169 70.5364 93.1929 0.0000 0.0000 0.0000
# 4 0.0000 0.0000 0.0000 20.8944 0.0000 0.0000
# 5 0.0000 0.0000 0.0000 0.0000 28.1440 0.0000
# 6 0.0000 0.0000 0.0000 0.0000 0.0000 6478.6089
#
#
#
# Elastic Compliance Matrix: (Units=1/GPa)
#
#
# Indices 1 2 3 4 5 6 
#
# 1 0.045557 -0.014159 -0.008699 0.000000 0.000000 0.000000
# 2 -0.014159 0.020386 -0.009396 0.000000 0.000000 0.000000
# 3 -0.008699 -0.009396 0.021549 0.000000 0.000000 0.000000
# 4 0.000000 0.000000 0.000000 0.047860 0.000000 0.000000
# 5 0.000000 0.000000 0.000000 0.000000 0.035531 0.000000
# 6 0.000000 0.000000 0.000000 0.000000 0.000000 0.000154
#
#
# Mechanical properties :
#
#
# Convention : Reuss Voigt Hill
#
# Bulk Modulus (GPa) = 43.50587 63.73002 53.61795
# Shear Modulus (GPa) = 20.55876 1311.81619 666.18748
#
# Velocity S-wave (km/s) = 3.51026 28.03998 19.98202
# Velocity P-wave (km/s) = 6.51956 32.96236 23.75944
#
# Compressibility (1/GPa) = 0.02298540
#
# Stress axis : x y z
#
# Youngs Moduli (GPa) = 21.95070 49.05354 46.40558
#
# Poissons Ratio (x) = 0.69453 0.40367
# Poissons Ratio (y) = 0.31079 0.43601
# Poissons Ratio (z) = 0.19095 0.46089
#
# Static dielectric constant tensor:
#      x y z
#    x 1.557280 0.000000 0.000000 
#    y 0.000000 1.571870 0.000000 
#    z 0.000000 0.000000 1.563620 
# 
# From -- ./inp_files/27198.got.cif
#   From: 2010.05.17/outbox.cif.g08.bks.cpg/sg65_14_cif.got.tgz:27198.got - 2010.06.03 17:01:31.
