data_PCOD9486983
_publ_section_title
;
Structure prediction by ZEFSAII (Michael W. Deem and Ramdas Pophale) SiO2 
 PCOD9486983
Probable space group: C M M M
;
_chemical_formula_sum "Si O2"
_cell_formula_units_Z 88
_cell_length_a 8.386996
_cell_length_b 19.154662
_cell_length_c 29.632639
_cell_angle_alpha 90.000000
_cell_angle_beta 90.000000
_cell_angle_gamma 90.000000
_cell_volume 4760.485636
_symmetry_space_group_name_H-M "C M M M"
_symmetry_group_IT_number 65
_symmetry_cell_setting 'orthorhombic'
loop_
_space_group_symop_operation_xyz
x,y,z
-x,-y,z
x,-y,-z
-x,y,-z
-x,-y,-z
x,y,-z
-x,y,z
x,-y,z
1/2+x,1/2+y,z
1/2-x,1/2-y,z
1/2+x,1/2-y,-z
1/2-x,1/2+y,-z
1/2-x,1/2-y,-z
1/2+x,1/2+y,-z
1/2-x,1/2+y,z
1/2+x,1/2-y,z
loop_
_atom_site_type_symbol
_atom_site_label
_atom_site_fract_x
_atom_site_fract_y
_atom_site_fract_z
Si Si1 0.806884 0.170095 0.281434
Si Si2 0.690982 0.172059 0.551505
Si Si3 0.690760 0.919979 0.000000
Si Si4 0.192206 0.829976 0.817049
Si Si5 0.807332 0.079775 0.633398
Si Si6 0.191524 0.830078 0.915900
O O1 0.750000 0.250000 0.286217
O O2 0.755637 0.141792 0.231874
O O3 0.750565 0.123468 0.323102
O O4 0.000000 0.170786 0.282078
O O5 0.743565 0.156682 0.500000
O O6 0.500000 0.171705 0.552456
O O7 0.750000 0.250000 0.562801
O O8 0.755038 0.118099 0.587910
O O9 0.747335 0.878234 0.955948
O O10 0.500000 0.920976 0.000000
O O11 0.749572 0.000000 0.000000
O O12 0.250000 0.750000 0.816751
O O13 0.244527 0.857313 0.866100
O O14 0.000000 0.831762 0.817187
O O15 0.000000 0.079403 0.634765
O O16 0.751434 0.000000 0.634784
O O17 0.250000 0.750000 0.921235
O O18 0.000000 0.828916 0.917066
#
# Coordination Sequence:
#
# PCOD9486983 Si02
#       6
#    16  16   8  16  16  16
#     4   9  17  31  51  75 102 132 168 207 249 296
#     4  10  21  37  57  79 102 130 167 212 259 306
#     4  11  24  39  52  69  99 137 172 209 256 305
#     4   8  15  28  48  75 102 128 161 204 250 294
#     4  10  21  35  51  74 106 142 175 208 249 298
#     4  10  19  33  55  80 104 131 167 209 252 300
#
# _framework density 18.485509
#
# number of rings (size 3 to 8) (size 9 to 14) (size 15 to 20)
#    0.000    2.455    0.000    2.182    0.000    5.455 
#    0.000    2.727    0.000    3.273    0.000    0.000 
#    0.000    0.000    0.000    0.000    0.000    0.000 
#
# Total GULP energy -245294.638370 kJ/mol
# GULP energy per Si atom -5574.878145 kJ/mol
# Density = 1.844344 g / cm^3
# Si number density = 18.485509 Si / 1000 Ang^3
#
#
#
# Elastic Constant Matrix: (Units=GPa)
#
#
# Indices 1 2 3 4 5 6 
#
# 1 18.2410 18.1016 23.2871 0.0000 0.0000 0.0000
# 2 18.1016 112.4762 109.8559 0.0000 0.0000 0.0000
# 3 23.2871 109.8559 188.6170 0.0000 0.0000 0.0000
# 4 0.0000 0.0000 0.0000 -6.3307 0.0000 0.0000
# 5 0.0000 0.0000 0.0000 0.0000 -5.1442 0.0000
# 6 0.0000 0.0000 0.0000 0.0000 0.0000 19.8001
#
#
#
# Elastic Compliance Matrix: (Units=1/GPa)
#
#
# Indices 1 2 3 4 5 6 
#
# 1 0.066929 -0.006264 -0.004615 0.000000 0.000000 0.000000
# 2 -0.006264 0.021208 -0.011579 0.000000 0.000000 0.000000
# 3 -0.004615 -0.011579 0.012615 0.000000 0.000000 0.000000
# 4 0.000000 0.000000 0.000000 -0.157960 0.000000 0.000000
# 5 0.000000 0.000000 0.000000 0.000000 -0.194393 0.000000
# 6 0.000000 0.000000 0.000000 0.000000 0.000000 0.050505
#
#
# Mechanical properties :
#
#
# Convention : Reuss Voigt Hill
#
# Bulk Modulus (GPa) = 17.90925 69.09149 43.50037
# Shear Modulus (GPa) = -36.34550 12.87102 -11.73724
#
# Velocity S-wave (km/s) = -4.43895 2.64157 -2.52254
# Velocity P-wave (km/s) = 4.06978 6.83820 3.88574
#
# Compressibility (1/GPa) = 0.05583708
#
# Stress axis : x y z
#
# Youngs Moduli (GPa) = 14.94117 47.15252 79.26925
#
# Poissons Ratio (x) = 0.29537 0.36582
# Poissons Ratio (y) = 0.09359 0.91783
# Poissons Ratio (z) = 0.06895 0.54596
#
# Static dielectric constant tensor:
#      x y z
#    x 1.654450 0.000000 0.000000 
#    y 0.000000 1.588590 0.000000 
#    z 0.000000 0.000000 1.681710 
# 
# From -- ./inp_files/76515.got.cif
#   From: 2010.05.17/outbox.cif.g08.bks.cpg/sg65_39_cif.got.tgz:76515.got - 2010.06.03 17:01:31.
