data_PCOD9486857
_publ_section_title
;
Structure prediction by ZEFSAII (Michael W. Deem and Ramdas Pophale) SiO2 
 PCOD9486857
Probable space group: C M M M
;
_chemical_formula_sum "Si O2"
_cell_formula_units_Z 80
_cell_length_a 18.118127
_cell_length_b 20.363035
_cell_length_c 11.721343
_cell_angle_alpha 90.000000
_cell_angle_beta 90.000000
_cell_angle_gamma 90.000000
_cell_volume 4324.472922
_symmetry_space_group_name_H-M "C M M M"
_symmetry_group_IT_number 65
_symmetry_cell_setting 'orthorhombic'
loop_
_space_group_symop_operation_xyz
x,y,z
-x,-y,z
x,-y,-z
-x,y,-z
-x,-y,-z
x,y,-z
-x,y,z
x,-y,z
1/2+x,1/2+y,z
1/2-x,1/2-y,z
1/2+x,1/2-y,-z
1/2-x,1/2+y,-z
1/2-x,1/2-y,-z
1/2+x,1/2+y,-z
1/2-x,1/2+y,z
1/2+x,1/2-y,z
loop_
_atom_site_type_symbol
_atom_site_label
_atom_site_fract_x
_atom_site_fract_y
_atom_site_fract_z
Si Si1 0.798693 0.646326 0.000000
Si Si2 0.418360 0.272980 0.756207
Si Si3 0.874260 0.500000 0.368576
Si Si4 0.140684 0.796650 0.000000
Si Si5 0.641784 0.130059 0.242677
Si Si6 0.797689 0.142478 0.637007
Si Si7 0.305631 0.500000 0.369096
O O1 0.830362 0.614523 0.885267
O O2 0.826439 0.722235 0.000000
O O3 0.710110 0.653730 0.000000
O O4 0.500000 0.290005 0.715206
O O5 0.408755 0.194328 0.760616
O O6 0.353843 0.302894 0.679121
O O7 0.404817 0.300600 0.883642
O O8 0.898970 0.500000 0.500000
O O9 0.893662 0.433075 0.303184
O O10 0.784070 0.500000 0.369930
O O11 0.716309 0.150279 0.310887
O O12 0.791982 0.141348 0.500000
O O13 0.826397 0.070761 0.679449
O O14 0.331537 0.500000 0.500000
#
# Coordination Sequence:
#
# PCOD9486857 Si02
#       7
#     8  16   8   8  16  16   8
#     4   9  16  29  56  83 100 126 174 224 265 310
#     4  11  22  34  52  78 108 141 178 221 267 319
#     4   9  18  33  54  78 106 143 178 215 272 325
#     4   9  17  34  52  75 105 136 170 212 272 324
#     4  10  19  34  55  79 106 136 178 224 266 317
#     4  10  19  33  54  77 102 137 177 221 270 317
#     4   7  14  30  50  72  96 125 168 212 254 309
#
# _framework density 18.499365000000001
#
# number of rings (size 3 to 8) (size 9 to 14) (size 15 to 20)
#    0.000    2.400    2.000    2.700    0.000    3.200 
#    0.000    1.000    0.000    3.000    0.000    5.600 
#    0.000    0.000    0.000    0.000    0.000    0.000 
#
# Total GULP energy -222962.274661 kJ/mol
# GULP energy per Si atom -5574.056867 kJ/mol
# Density = 1.845726 g / cm^3
# Si number density = 18.499365 Si / 1000 Ang^3
#
#
#
# Elastic Constant Matrix: (Units=GPa)
#
#
# Indices 1 2 3 4 5 6 
#
# 1 38.4258 0.0082 3.2449 0.0000 0.0000 0.0000
# 2 0.0082 61.4325 14.6875 0.0000 0.0000 0.0000
# 3 3.2449 14.6875 98.0831 0.0000 0.0000 0.0000
# 4 0.0000 0.0000 0.0000 23.8503 0.0000 0.0000
# 5 0.0000 0.0000 0.0000 0.0000 0.6934 0.0000
# 6 0.0000 0.0000 0.0000 0.0000 0.0000 4.0040
#
#
#
# Elastic Compliance Matrix: (Units=1/GPa)
#
#
# Indices 1 2 3 4 5 6 
#
# 1 0.026100 0.000210 -0.000895 0.000000 0.000000 0.000000
# 2 0.000210 0.016884 -0.002535 0.000000 0.000000 0.000000
# 3 -0.000895 -0.002535 0.010605 0.000000 0.000000 0.000000
# 4 0.000000 0.000000 0.000000 0.041928 0.000000 0.000000
# 5 0.000000 0.000000 0.000000 0.000000 1.442221 0.000000
# 6 0.000000 0.000000 0.000000 0.000000 0.000000 0.249750
#
#
# Mechanical properties :
#
#
# Convention : Reuss Voigt Hill
#
# Bulk Modulus (GPa) = 21.20937 25.98029 23.59483
# Shear Modulus (GPa) = 2.76297 17.70958 10.23628
#
# Velocity S-wave (km/s) = 1.22344 3.09740 2.35485
# Velocity P-wave (km/s) = 3.67226 5.18326 4.49175
#
# Compressibility (1/GPa) = 0.04714898
#
# Stress axis : x y z
#
# Youngs Moduli (GPa) = 38.31459 59.22720 94.29785
#
# Poissons Ratio (x) = -0.01247 0.08439
# Poissons Ratio (y) = -0.00806 0.23907
# Poissons Ratio (z) = 0.03429 0.15016
#
# Static dielectric constant tensor:
#      x y z
#    x 1.619350 0.000000 0.000000 
#    y 0.000000 1.675090 0.000000 
#    z 0.000000 0.000000 1.641030 
# 
# From -- ./inp_files/26730.got.cif
#   From: 2010.05.17/outbox.cif.g08.bks.cpg/sg65_14_cif.got.tgz:26730.got - 2010.06.03 17:01:31.
