data_PCOD9486674
_publ_section_title
;
Structure prediction by ZEFSAII (Michael W. Deem and Ramdas Pophale) SiO2 
 PCOD9486674
Probable space group: C M M M
;
_chemical_formula_sum "Si O2"
_cell_formula_units_Z 104
_cell_length_a 31.046371
_cell_length_b 12.010583
_cell_length_c 12.963951
_cell_angle_alpha 90.000000
_cell_angle_beta 90.000000
_cell_angle_gamma 90.000000
_cell_volume 4834.063073
_symmetry_space_group_name_H-M "C M M M"
_symmetry_group_IT_number 65
_symmetry_cell_setting 'orthorhombic'
loop_
_space_group_symop_operation_xyz
x,y,z
-x,-y,z
x,-y,-z
-x,y,-z
-x,-y,-z
x,y,-z
-x,y,z
x,-y,z
1/2+x,1/2+y,z
1/2-x,1/2-y,z
1/2+x,1/2-y,-z
1/2-x,1/2+y,-z
1/2-x,1/2-y,-z
1/2+x,1/2+y,-z
1/2-x,1/2+y,z
1/2+x,1/2-y,z
loop_
_atom_site_type_symbol
_atom_site_label
_atom_site_fract_x
_atom_site_fract_y
_atom_site_fract_z
Si Si1 0.122739 0.706978 0.112546
Si Si2 0.258320 0.873984 0.675630
Si Si3 0.424912 0.292212 0.616092
Si Si4 0.203200 0.125859 0.116275
Si Si5 0.000000 0.621541 0.623446
Si Si6 0.138988 0.618551 0.673505
Si Si7 0.448876 0.623377 0.827720
O O1 0.164470 0.787025 0.127303
O O2 0.122741 0.626275 0.209212
O O3 0.080653 0.784814 0.119059
O O4 0.125887 0.654655 0.000000
O O5 0.250000 0.750000 0.627526
O O6 0.236972 0.866520 0.790116
O O7 0.309737 0.879763 0.676877
O O8 0.244368 0.000000 0.635933
O O9 0.433786 0.332240 0.500000
O O10 0.458170 0.193722 0.645469
O O11 0.379416 0.229053 0.620408
O O12 0.432541 0.376484 0.708533
O O13 0.185126 0.000000 0.121322
O O14 0.221887 0.138738 0.000000
O O15 0.000000 0.500000 0.671678
O O16 0.000000 0.610250 0.500000
O O17 0.124747 0.500000 0.626592
O O18 0.500000 0.647274 0.830824
O O19 0.442257 0.500000 0.871207
#
# Coordination Sequence:
#
# PCOD9486674 Si02
#       7
#    16  16  16  16   8  16  16
#     4  10  20  34  53  77 111 150 192 230 272 325
#     4  10  19  33  51  76 108 146 187 231 287 344
#     4  10  20  36  56  82 110 137 176 225 281 340
#     4   9  17  29  48  74 103 138 185 235 278 322
#     4   9  16  28  51  79 102 127 163 211 267 321
#     4  10  21  35  53  80 111 144 185 232 285 340
#     4  10  21  36  55  82 114 147 183 225 276 334
#
# _framework density 21.513994
#
# number of rings (size 3 to 8) (size 9 to 14) (size 15 to 20)
#    0.000    2.231    2.308    0.923    0.000    3.692 
#    0.000    3.077    0.000    0.462    0.000    2.154 
#    0.000    0.000    0.000    0.000    0.000    0.000 
#
# Total GULP energy -289812.168580 kJ/mol
# GULP energy per Si atom -5573.310934 kJ/mol
# Density = 2.146503 g / cm^3
# Si number density = 21.513994 Si / 1000 Ang^3
#
#
#
# Elastic Constant Matrix: (Units=GPa)
#
#
# Indices 1 2 3 4 5 6 
#
# 1 77.4109 14.0351 -2.4041 0.0000 0.0000 0.0000
# 2 14.0351 111.6050 5.0466 0.0000 0.0000 0.0000
# 3 -2.4041 5.0466 68.8665 0.0000 0.0000 0.0000
# 4 0.0000 0.0000 0.0000 103.3881 0.0000 0.0000
# 5 0.0000 0.0000 0.0000 0.0000 13.3553 0.0000
# 6 0.0000 0.0000 0.0000 0.0000 0.0000 21.8712
#
#
#
# Elastic Compliance Matrix: (Units=1/GPa)
#
#
# Indices 1 2 3 4 5 6 
#
# 1 0.013243 -0.001692 0.000586 0.000000 0.000000 0.000000
# 2 -0.001692 0.009206 -0.000734 0.000000 0.000000 0.000000
# 3 0.000586 -0.000734 0.014595 0.000000 0.000000 0.000000
# 4 0.000000 0.000000 0.000000 0.009672 0.000000 0.000000
# 5 0.000000 0.000000 0.000000 0.000000 0.074877 0.000000
# 6 0.000000 0.000000 0.000000 0.000000 0.000000 0.045722
#
#
# Mechanical properties :
#
#
# Convention : Reuss Voigt Hill
#
# Bulk Modulus (GPa) = 29.97097 32.35973 31.16535
# Shear Modulus (GPa) = 27.45500 43.80323 35.62912
#
# Velocity S-wave (km/s) = 3.57619 4.51714 4.07392
# Velocity P-wave (km/s) = 5.56897 6.50230 6.05365
#
# Compressibility (1/GPa) = 0.03336562
#
# Stress axis : x y z
#
# Youngs Moduli (GPa) = 75.51135 108.62345 68.51621
#
# Poissons Ratio (x) = 0.18378 -0.04017
# Poissons Ratio (y) = 0.12776 0.05027
# Poissons Ratio (z) = -0.04427 0.07970
#
# Static dielectric constant tensor:
#      x y z
#    x 1.778310 0.000000 0.000000 
#    y 0.000000 1.827200 0.000000 
#    z 0.000000 0.000000 1.783890 
# 
# From -- ./inp_files/38970.got.cif
#   From: 2010.05.17/outbox.cif.g08.bks.cpg/sg65_20_cif.got.tgz:38970.got - 2010.06.03 17:01:31.
