data_PCOD9486913
_publ_section_title
;
Structure prediction by ZEFSAII (Michael W. Deem and Ramdas Pophale) SiO2 
 PCOD9486913
Probable space group: C M M M
;
_chemical_formula_sum "Si O2"
_cell_formula_units_Z 88
_cell_length_a 18.803338
_cell_length_b 8.393720
_cell_length_c 29.343623
_cell_angle_alpha 90.000000
_cell_angle_beta 90.000000
_cell_angle_gamma 90.000000
_cell_volume 4631.302675
_symmetry_space_group_name_H-M "C M M M"
_symmetry_group_IT_number 65
_symmetry_cell_setting 'orthorhombic'
loop_
_space_group_symop_operation_xyz
x,y,z
-x,-y,z
x,-y,-z
-x,y,-z
-x,-y,-z
x,y,-z
-x,y,z
x,-y,z
1/2+x,1/2+y,z
1/2-x,1/2-y,z
1/2+x,1/2-y,-z
1/2-x,1/2+y,-z
1/2-x,1/2-y,-z
1/2+x,1/2+y,-z
1/2-x,1/2+y,z
1/2+x,1/2-y,z
loop_
_atom_site_type_symbol
_atom_site_label
_atom_site_fract_x
_atom_site_fract_y
_atom_site_fract_z
Si Si1 0.418698 0.692350 0.636420
Si Si2 0.669201 0.692812 0.724750
Si Si3 0.829629 0.309167 0.448110
Si Si4 0.831577 0.308579 0.900341
Si Si5 0.668581 0.192005 0.000000
Si Si6 0.081636 0.807566 0.186420
O O1 0.500000 0.747717 0.640697
O O2 0.419233 0.500000 0.637607
O O3 0.371026 0.747443 0.679022
O O4 0.383784 0.745600 0.589247
O O5 0.669141 0.500000 0.724688
O O6 0.750000 0.750000 0.725844
O O7 0.626065 0.746730 0.769443
O O8 0.846242 0.256711 0.500000
O O9 0.829839 0.500000 0.447143
O O10 0.750000 0.250000 0.437329
O O11 0.830853 0.500000 0.899033
O O12 0.750000 0.250000 0.895527
O O13 0.859891 0.256153 0.950554
O O14 0.879121 0.245547 0.859385
O O15 0.750000 0.250000 0.000000
O O16 0.667093 0.000000 0.000000
O O17 0.000000 0.751894 0.188084
O O18 0.080763 0.000000 0.187517
#
# Coordination Sequence:
#
# PCOD9486913 Si02
#       6
#    16  16  16  16   8  16
#     4  10  21  37  57  81 110 144 180 218 263 316
#     4  10  21  37  57  80 106 138 176 218 264 314
#     4  10  21  37  57  81 110 144 182 224 268 314
#     4  10  19  33  54  79 106 137 176 219 263 313
#     4   8  16  30  49  74 103 135 171 215 263 308
#     4  10  21  37  55  76 106 142 177 216 264 315
#
# _framework density 19.001132999999999
#
# number of rings (size 3 to 8) (size 9 to 14) (size 15 to 20)
#    0.000    2.182    0.000    2.727    0.000    9.455 
#    0.000    2.273    0.000    6.000    0.000    0.000 
#    0.000    0.000    0.000    0.000    0.000    0.000 
#
# Total GULP energy -245598.050378 kJ/mol
# GULP energy per Si atom -5581.773872 kJ/mol
# Density = 1.895789 g / cm^3
# Si number density = 19.001133 Si / 1000 Ang^3
#
#
#
# Elastic Constant Matrix: (Units=GPa)
#
#
# Indices 1 2 3 4 5 6 
#
# 1 163.3097 20.1179 117.7543 0.0000 0.0000 0.0000
# 2 20.1179 10.2710 20.4621 0.0000 0.0000 0.0000
# 3 117.7543 20.4621 173.9562 0.0000 0.0000 0.0000
# 4 0.0000 0.0000 0.0000 28.5485 0.0000 0.0000
# 5 0.0000 0.0000 0.0000 0.0000 -11.4130 0.0000
# 6 0.0000 0.0000 0.0000 0.0000 0.0000 28.4494
#
#
#
# Elastic Compliance Matrix: (Units=1/GPa)
#
#
# Indices 1 2 3 4 5 6 
#
# 1 0.012722 -0.010138 -0.007419 0.000000 0.000000 0.000000
# 2 -0.010138 0.135239 -0.009045 0.000000 0.000000 0.000000
# 3 -0.007419 -0.009045 0.011835 0.000000 0.000000 0.000000
# 4 0.000000 0.000000 0.000000 0.035028 0.000000 0.000000
# 5 0.000000 0.000000 0.000000 0.000000 -0.087620 0.000000
# 6 0.000000 0.000000 0.000000 0.000000 0.000000 0.035150
#
#
# Mechanical properties :
#
#
# Convention : Reuss Voigt Hill
#
# Bulk Modulus (GPa) = 9.38169 73.80060 41.59114
# Shear Modulus (GPa) = 21.63678 21.73050 21.68364
#
# Velocity S-wave (km/s) = 3.37814 3.38545 3.38179
# Velocity P-wave (km/s) = 4.49043 7.36248 6.09795
#
# Compressibility (1/GPa) = 0.10659061
#
# Stress axis : x y z
#
# Youngs Moduli (GPa) = 78.60578 7.39434 84.49721
#
# Poissons Ratio (x) = 0.07496 0.62689
# Poissons Ratio (y) = 0.79687 0.76432
# Poissons Ratio (z) = 0.58319 0.06689
#
# Static dielectric constant tensor:
#      x y z
#    x 1.617220 0.000000 0.000000 
#    y 0.000000 1.659380 0.000000 
#    z 0.000000 0.000000 1.670960 
# 
# From -- ./inp_files/77800.got.cif
#   From: 2010.05.17/outbox.cif.g08.bks.cpg/sg65_39_cif.got.tgz:77800.got - 2010.06.03 17:01:31.
