data_PCOD9486642
_publ_section_title
;
Structure prediction by ZEFSAII (Michael W. Deem and Ramdas Pophale) SiO2 
 PCOD9486642
Probable space group: C M M M
;
_chemical_formula_sum "Si O2"
_cell_formula_units_Z 82
_cell_length_a 20.629221
_cell_length_b 24.796097
_cell_length_c 10.101570
_cell_angle_alpha 90.000000
_cell_angle_beta 90.000000
_cell_angle_gamma 90.000000
_cell_volume 5167.197159
_symmetry_space_group_name_H-M "C M M M"
_symmetry_group_IT_number 65
_symmetry_cell_setting 'orthorhombic'
loop_
_space_group_symop_operation_xyz
x,y,z
-x,-y,z
x,-y,-z
-x,y,-z
-x,-y,-z
x,y,-z
-x,y,z
x,-y,z
1/2+x,1/2+y,z
1/2-x,1/2-y,z
1/2+x,1/2-y,-z
1/2-x,1/2+y,-z
1/2-x,1/2-y,-z
1/2+x,1/2+y,-z
1/2-x,1/2+y,z
1/2+x,1/2-y,z
loop_
_atom_site_type_symbol
_atom_site_label
_atom_site_fract_x
_atom_site_fract_y
_atom_site_fract_z
Si Si1 0.238614 0.000000 0.343067
Si Si2 0.573195 0.712909 0.154504
Si Si3 0.596356 0.500000 0.748193
Si Si4 0.000000 0.000000 0.000000
Si Si5 0.737597 0.118143 0.348655
Si Si6 0.605201 0.381993 0.350606
Si Si7 0.810294 0.291065 0.845318
O O1 0.277169 0.944820 0.324289
O O2 0.216143 0.000000 0.500000
O O3 0.175294 0.000000 0.249705
O O4 0.500000 0.733810 0.164199
O O5 0.579128 0.659702 0.243176
O O6 0.625966 0.757386 0.193703
O O7 0.585856 0.698882 0.000000
O O8 0.556846 0.500000 0.883664
O O9 0.582534 0.556778 0.675682
O O10 0.720411 0.132189 0.500000
O O11 0.816242 0.120481 0.339550
O O12 0.704855 0.158302 0.246509
O O13 0.587556 0.366267 0.500000
O O14 0.750000 0.250000 0.833639
O O15 0.815956 0.306495 0.000000
#
# Coordination Sequence:
#
# PCOD9486642 Si02
#       7
#     8  16   8   2  16  16  16
#     4   8  16  36  55  74 100 126 159 206 265 306
#     4  10  22  36  51  69 100 136 168 204 251 300
#     4  10  22  36  47  63  95 129 171 210 249 292
#     4  12  28  36  42  68  92 140 190 212 246 306
#     4   9  17  31  54  77  99 128 160 202 252 303
#     4  10  20  35  53  71  95 128 169 214 255 295
#     4  10  19  33  50  74 101 129 166 208 249 292
#
# _framework density 15.869339
#
# number of rings (size 3 to 8) (size 9 to 14) (size 15 to 20)
#    0.000    2.341    1.951    2.049    2.732    1.561 
#    5.268    1.707    0.000    0.000    0.000    0.683 
#    0.000    5.463    0.000    0.000    0.000    0.000 
#
# Total GULP energy -228263.490289 kJ/mol
# GULP energy per Si atom -5567.402202 kJ/mol
# Density = 1.583322 g / cm^3
# Si number density = 15.869339 Si / 1000 Ang^3
#
#
#
# Elastic Constant Matrix: (Units=GPa)
#
#
# Indices 1 2 3 4 5 6 
#
# 1 63.2261 48.4267 37.6028 0.0000 0.0000 0.0000
# 2 48.4267 113.1422 69.3306 0.0000 0.0000 0.0000
# 3 37.6028 69.3306 84.4704 0.0000 0.0000 0.0000
# 4 0.0000 0.0000 0.000044543.5492 0.0000 0.0000
# 5 0.0000 0.0000 0.0000 0.0000 16.9571 0.0000
# 6 0.0000 0.0000 0.0000 0.0000 0.0000 5.1479
#
#
#
# Elastic Compliance Matrix: (Units=1/GPa)
#
#
# Indices 1 2 3 4 5 6 
#
# 1 0.024389 -0.007617 -0.004605 0.000000 0.000000 0.000000
# 2 -0.007617 0.020160 -0.013156 0.000000 0.000000 0.000000
# 3 -0.004605 -0.013156 0.024687 0.000000 0.000000 0.000000
# 4 0.000000 0.000000 0.000000 0.000022 0.000000 0.000000
# 5 0.000000 0.000000 0.000000 0.000000 0.058972 0.000000
# 6 0.000000 0.000000 0.000000 0.000000 0.000000 0.194255
#
#
# Mechanical properties :
#
#
# Convention : Reuss Voigt Hill
#
# Bulk Modulus (GPa) = 54.11444 63.50655 58.81050
# Shear Modulus (GPa) = 13.17857 8920.16274 4466.67065
#
# Velocity S-wave (km/s) = 2.88487 75.05470 53.11087
# Velocity P-wave (km/s) = 6.72834 86.89677 61.62921
#
# Compressibility (1/GPa) = 0.01847935
#
# Stress axis : x y z
#
# Youngs Moduli (GPa) = 41.00158 49.60200 40.50735
#
# Poissons Ratio (x) = 0.37782 0.18655
# Poissons Ratio (y) = 0.31231 0.53293
# Poissons Ratio (z) = 0.18883 0.65258
#
# Static dielectric constant tensor:
#      x y z
#    x 1.534510 0.000000 0.000000 
#    y 0.000000 1.525340 0.000000 
#    z 0.000000 0.000000 1.532080 
# 
# From -- ./inp_files/14258.got.cif
#   From: 2010.05.17/outbox.cif.g08.bks.cpg/sg65_8_cif.got.tgz:14258.got - 2010.06.03 17:01:31.
