data_PCOD9486759
_publ_section_title
;
Structure prediction by ZEFSAII (Michael W. Deem and Ramdas Pophale) SiO2 
 PCOD9486759
Probable space group: C M M M
;
_chemical_formula_sum "Si O2"
_cell_formula_units_Z 104
_cell_length_a 15.150429
_cell_length_b 9.169100
_cell_length_c 35.167332
_cell_angle_alpha 90.000000
_cell_angle_beta 90.000000
_cell_angle_gamma 90.000000
_cell_volume 4885.298007
_symmetry_space_group_name_H-M "C M M M"
_symmetry_group_IT_number 65
_symmetry_cell_setting 'orthorhombic'
loop_
_space_group_symop_operation_xyz
x,y,z
-x,-y,z
x,-y,-z
-x,y,-z
-x,-y,-z
x,y,-z
-x,y,z
x,-y,z
1/2+x,1/2+y,z
1/2-x,1/2-y,z
1/2+x,1/2-y,-z
1/2-x,1/2+y,-z
1/2-x,1/2-y,-z
1/2+x,1/2+y,-z
1/2-x,1/2+y,z
1/2+x,1/2-y,z
loop_
_atom_site_type_symbol
_atom_site_label
_atom_site_fract_x
_atom_site_fract_y
_atom_site_fract_z
Si Si1 0.896068 0.836925 0.658092
Si Si2 0.345897 0.174555 0.500000
Si Si3 0.891747 0.167190 0.808897
Si Si4 0.891758 0.332779 0.267785
Si Si5 0.654071 0.824753 0.417555
Si Si6 0.103792 0.663005 0.882944
Si Si7 0.345467 0.325611 0.958239
O O1 0.860295 0.751106 0.694566
O O2 0.888300 0.745466 0.619518
O O3 0.000000 0.852679 0.665470
O O4 0.857666 0.000000 0.653840
O O5 0.250000 0.250000 0.500000
O O6 0.388407 0.209228 0.459044
O O7 0.332678 0.000000 0.500000
O O8 0.865372 0.250319 0.770605
O O9 0.860212 0.250405 0.846641
O O10 0.000000 0.165246 0.809345
O O11 0.862291 0.000000 0.808708
O O12 0.862343 0.500000 0.267783
O O13 0.000000 0.334588 0.268242
O O14 0.750000 0.750000 0.418846
O O15 0.658831 0.000000 0.413722
O O16 0.142288 0.500000 0.887132
O O17 0.110889 0.753905 0.921637
O O18 0.000000 0.647020 0.875306
O O19 0.338933 0.500000 0.953844
O O20 0.250000 0.250000 0.959337
O O21 0.387114 0.297731 0.000000
#
# Coordination Sequence:
#
# PCOD9486759 Si02
#       7
#    16   8  16  16  16  16  16
#     4  10  20  33  49  72 102 134 169 208 249 293
#     4   8  16  30  49  72  95 123 161 203 245 294
#     4   9  16  27  45  70 100 132 166 205 248 293
#     4   9  16  27  45  69  97 130 167 205 246 293
#     4  10  19  33  53  75  99 128 164 205 250 299
#     4  10  20  33  51  77 107 136 168 209 254 297
#     4  10  21  37  56  76 100 133 172 211 252 302
#
# _framework density 21.288363
#
# number of rings (size 3 to 8) (size 9 to 14) (size 15 to 20)
#    0.000    2.462    0.000    2.769    0.000    7.385 
#    0.000    1.923    0.000    3.231    0.000    6.462 
#    0.000    0.000    0.000    0.000    0.000    0.000 
#
# Total GULP energy -290128.633557 kJ/mol
# GULP energy per Si atom -5579.396799 kJ/mol
# Density = 2.123991 g / cm^3
# Si number density = 21.288363 Si / 1000 Ang^3
#
#
#
# Elastic Constant Matrix: (Units=GPa)
#
#
# Indices 1 2 3 4 5 6 
#
# 1 26.1658 8.0950 6.9660 0.0000 0.0000 0.0000
# 2 8.0950 188.2124 128.5083 0.0000 0.0000 0.0000
# 3 6.9660 128.5083 232.9251 0.0000 0.0000 0.0000
# 4 0.0000 0.0000 0.0000 36.9222 0.0000 0.0000
# 5 0.0000 0.0000 0.0000 0.0000 -9.4143 0.0000
# 6 0.0000 0.0000 0.0000 0.0000 0.0000 16.3014
#
#
#
# Elastic Compliance Matrix: (Units=1/GPa)
#
#
# Indices 1 2 3 4 5 6 
#
# 1 0.038755 -0.001405 -0.000384 0.000000 0.000000 0.000000
# 2 -0.001405 0.008575 -0.004689 0.000000 0.000000 0.000000
# 3 -0.000384 -0.004689 0.006892 0.000000 0.000000 0.000000
# 4 0.000000 0.000000 0.000000 0.027084 0.000000 0.000000
# 5 0.000000 0.000000 0.000000 0.000000 -0.106221 0.000000
# 6 0.000000 0.000000 0.000000 0.000000 0.000000 0.061344
#
#
# Mechanical properties :
#
#
# Convention : Reuss Voigt Hill
#
# Bulk Modulus (GPa) = 24.23300 81.60467 52.91883
# Shear Modulus (GPa) = 79.19018 29.01080 54.10049
#
# Velocity S-wave (km/s) = 6.10570 3.69555 5.04662
# Velocity P-wave (km/s) = 7.81755 7.52501 7.67267
#
# Compressibility (1/GPa) = 0.04126604
#
# Stress axis : x y z
#
# Youngs Moduli (GPa) = 25.80339 116.61595 145.10152
#
# Poissons Ratio (x) = 0.16380 0.05573
# Poissons Ratio (y) = 0.03624 0.68039
# Poissons Ratio (z) = 0.00991 0.54682
#
# Static dielectric constant tensor:
#      x y z
#    x 1.833210 0.000000 0.000000 
#    y 0.000000 1.710330 0.000000 
#    z 0.000000 0.000000 1.777360 
# 
# From -- ./inp_files/76926.got.cif
#   From: 2010.05.17/outbox.cif.g08.bks.cpg/sg65_39_cif.got.tgz:76926.got - 2010.06.03 17:01:31.
