data_PCOD9486580
_publ_section_title
;
Structure prediction by ZEFSAII (Michael W. Deem and Ramdas Pophale) SiO2 
 PCOD9486580
Probable space group: C M M M
;
_chemical_formula_sum "Si O2"
_cell_formula_units_Z 104
_cell_length_a 26.454306
_cell_length_b 22.717946
_cell_length_c 7.398262
_cell_angle_alpha 90.000000
_cell_angle_beta 90.000000
_cell_angle_gamma 90.000000
_cell_volume 4446.262948
_symmetry_space_group_name_H-M "C M M M"
_symmetry_group_IT_number 65
_symmetry_cell_setting 'orthorhombic'
loop_
_space_group_symop_operation_xyz
x,y,z
-x,-y,z
x,-y,-z
-x,y,-z
-x,-y,-z
x,y,-z
-x,y,z
x,-y,z
1/2+x,1/2+y,z
1/2-x,1/2-y,z
1/2+x,1/2-y,-z
1/2-x,1/2+y,-z
1/2-x,1/2-y,-z
1/2+x,1/2+y,-z
1/2-x,1/2+y,z
1/2+x,1/2-y,z
loop_
_atom_site_type_symbol
_atom_site_label
_atom_site_fract_x
_atom_site_fract_y
_atom_site_fract_z
Si Si1 0.868641 0.105093 0.706624
Si Si2 0.723884 0.191443 0.791309
Si Si3 0.941929 0.000000 0.217989
Si Si4 0.556015 0.700960 0.279634
Si Si5 0.258426 0.566031 0.793107
Si Si6 0.608972 0.182922 0.281382
Si Si7 0.441348 0.935143 0.720156
O O1 0.853931 0.118044 0.500000
O O2 0.896835 0.161943 0.784994
O O3 0.818560 0.078984 0.794819
O O4 0.912073 0.056252 0.712087
O O5 0.750000 0.250000 0.711765
O O6 0.735368 0.126330 0.711765
O O7 0.664085 0.199939 0.785573
O O8 0.742038 0.188091 0.000000
O O9 0.000000 0.000000 0.273694
O O10 0.939641 0.000000 0.000000
O O11 0.556062 0.696235 0.500000
O O12 0.500000 0.682313 0.218900
O O13 0.567797 0.768110 0.231890
O O14 0.250117 0.500000 0.714533
O O15 0.240029 0.563050 0.000000
O O16 0.611341 0.182256 0.500000
O O17 0.592379 0.118725 0.217599
O O18 0.440725 0.934504 0.500000
O O19 0.500000 0.927366 0.772455
O O20 0.424363 0.000000 0.777924
#
# Coordination Sequence:
#
# PCOD9486580 Si02
#       7
#    16  16   8  16  16  16  16
#     4  11  21  34  55  81 107 137 177 226 274 312
#     4  10  22  39  56  75 103 141 181 222 273 328
#     4  11  23  37  53  75 107 145 181 215 256 315
#     4   9  18  32  51  78 111 143 175 215 268 327
#     4  10  21  38  58  77 103 142 183 222 270 331
#     4  10  19  32  54  81 106 136 176 224 271 315
#     4   8  14  26  47  77 111 143 174 209 255 315
#
# _framework density 23.390429999999999
#
# number of rings (size 3 to 8) (size 9 to 14) (size 15 to 20)
#    0.000    2.231    0.769    3.000    0.000    4.615 
#    0.000    0.769    0.000    3.692    0.000    1.077 
#    0.000    0.000    0.000    0.000    0.000    0.000 
#
# Total GULP energy -290450.505082 kJ/mol
# GULP energy per Si atom -5585.586636 kJ/mol
# Density = 2.333719 g / cm^3
# Si number density = 23.390430 Si / 1000 Ang^3
#
#
#
# Elastic Constant Matrix: (Units=GPa)
#
#
# Indices 1 2 3 4 5 6 
#
# 1 45.7200 17.2872 -9.3722 0.0000 0.0000 0.0000
# 2 17.2872 159.1666 5.9444 0.0000 0.0000 0.0000
# 3 -9.3722 5.9444 81.2706 0.0000 0.0000 0.0000
# 4 0.0000 0.0000 0.0000 -17.6001 0.0000 0.0000
# 5 0.0000 0.0000 0.0000 0.0000 -6.1634 0.0000
# 6 0.0000 0.0000 0.0000 0.0000 0.0000-1206.9266
#
#
#
# Elastic Compliance Matrix: (Units=1/GPa)
#
#
# Indices 1 2 3 4 5 6 
#
# 1 0.023472 -0.002658 0.002901 0.000000 0.000000 0.000000
# 2 -0.002658 0.006601 -0.000789 0.000000 0.000000 0.000000
# 3 0.002901 -0.000789 0.012697 0.000000 0.000000 0.000000
# 4 0.000000 0.000000 0.000000 -0.056818 0.000000 0.000000
# 5 0.000000 0.000000 0.000000 0.000000 -0.162248 0.000000
# 6 0.000000 0.000000 0.000000 0.000000 0.000000 -0.000829
#
#
# Mechanical properties :
#
#
# Convention : Reuss Voigt Hill
#
# Bulk Modulus (GPa) = 23.99345 34.87511 29.43428
# Shear Modulus (GPa) = -30.83742 -227.98483 -129.41112
#
# Velocity S-wave (km/s) = -3.63489 -9.88336 -7.44625
# Velocity P-wave (km/s) = 2.70859 10.73773 7.83056
#
# Compressibility (1/GPa) = 0.04167805
#
# Stress axis : x y z
#
# Youngs Moduli (GPa) = 42.60423 151.49563 78.75960
#
# Poissons Ratio (x) = 0.40262 -0.22849
# Poissons Ratio (y) = 0.11323 0.06216
# Poissons Ratio (z) = -0.12360 0.11957
#
# Static dielectric constant tensor:
#      x y z
#    x 1.832330 0.000000 0.000000 
#    y 0.000000 1.910080 0.000000 
#    z 0.000000 0.000000 1.993420 
# 
# From -- ./inp_files/16520.got.cif
#   From: 2010.05.17/outbox.cif.g08.bks.cpg/sg65_9_cif.got.tgz:16520.got - 2010.06.03 17:01:31.
