data_PCOD9486570
_publ_section_title
;
Structure prediction by ZEFSAII (Michael W. Deem and Ramdas Pophale) SiO2 
 PCOD9486570
Probable space group: C M M M
;
_chemical_formula_sum "Si O2"
_cell_formula_units_Z 64
_cell_length_a 7.398987
_cell_length_b 36.298402
_cell_length_c 10.835001
_cell_angle_alpha 90.000000
_cell_angle_beta 90.000000
_cell_angle_gamma 90.000000
_cell_volume 2909.971437
_symmetry_space_group_name_H-M "C M M M"
_symmetry_group_IT_number 65
_symmetry_cell_setting 'orthorhombic'
loop_
_space_group_symop_operation_xyz
x,y,z
-x,-y,z
x,-y,-z
-x,y,-z
-x,-y,-z
x,y,-z
-x,y,z
x,-y,z
1/2+x,1/2+y,z
1/2-x,1/2-y,z
1/2+x,1/2-y,-z
1/2-x,1/2+y,-z
1/2-x,1/2-y,-z
1/2+x,1/2+y,-z
1/2-x,1/2+y,z
1/2+x,1/2-y,z
loop_
_atom_site_type_symbol
_atom_site_label
_atom_site_fract_x
_atom_site_fract_y
_atom_site_fract_z
Si Si1 0.778694 0.654190 0.141992
Si Si2 0.215905 0.706574 0.362481
Si Si3 0.790041 0.575108 0.236992
Si Si4 0.794605 0.500000 0.855436
Si Si5 0.782856 0.043696 0.500000
O O1 0.717357 0.683458 0.245233
O O2 0.718442 0.613849 0.189126
O O3 0.000000 0.654917 0.141941
O O4 0.723024 0.660830 0.000000
O O5 0.284824 0.695979 0.500000
O O6 0.250000 0.750000 0.346519
O O7 0.000000 0.701156 0.366024
O O8 0.705212 0.537987 0.182932
O O9 0.780259 0.566804 0.381779
O O10 0.000000 0.575540 0.196471
O O11 0.000000 0.500000 0.799802
O O12 0.811111 0.500000 0.000000
O O13 0.000000 0.042678 0.500000
O O14 0.723965 0.000000 0.500000
#
# Coordination Sequence:
#
# PCOD9486570 Si02
#       5
#    16  16  16   8   8
#     4   9  18  32  53  82 111 136 169 218 270 314
#     4   9  18  33  53  77 106 140 176 213 257 310
#     4  10  19  32  54  79 103 132 173 219 261 308
#     4   9  16  27  47  76 104 129 164 213 262 303
#     4  11  23  37  51  71 104 141 178 219 266 311
#
# _framework density 21.993342999999999
#
# number of rings (size 3 to 8) (size 9 to 14) (size 15 to 20)
#    0.000    2.500    1.250    1.125    1.750    4.000 
#    0.000    1.250    0.000    5.250    0.000    0.000 
#    0.000    0.000    0.000    0.000    0.000    0.000 
#
# Total GULP energy -178506.225567 kJ/mol
# GULP energy per Si atom -5578.319549 kJ/mol
# Density = 2.194328 g / cm^3
# Si number density = 21.993343 Si / 1000 Ang^3
#
#
#
# Elastic Constant Matrix: (Units=GPa)
#
#
# Indices 1 2 3 4 5 6 
#
# 1 80.1083 4.0942 -2.4209 0.0000 0.0000 0.0000
# 2 4.0942 153.0480 125.2290 0.0000 0.0000 0.0000
# 3 -2.4209 125.2290 212.5829 0.0000 0.0000 0.0000
# 4 0.0000 0.0000 0.0000 26.2244 0.0000 0.0000
# 5 0.0000 0.0000 0.0000 0.0000 -51.7156 0.0000
# 6 0.0000 0.0000 0.0000 0.0000 0.0000 13.0006
#
#
#
# Elastic Compliance Matrix: (Units=1/GPa)
#
#
# Indices 1 2 3 4 5 6 
#
# 1 0.012548 -0.000874 0.000658 0.000000 0.000000 0.000000
# 2 -0.000874 0.012675 -0.007476 0.000000 0.000000 0.000000
# 3 0.000658 -0.007476 0.009116 0.000000 0.000000 0.000000
# 4 0.000000 0.000000 0.000000 0.038132 0.000000 0.000000
# 5 0.000000 0.000000 0.000000 0.000000 -0.019337 0.000000
# 6 0.000000 0.000000 0.000000 0.000000 0.000000 0.076919
#
#
# Mechanical properties :
#
#
# Convention : Reuss Voigt Hill
#
# Bulk Modulus (GPa) = 52.76206 77.72708 65.24457
# Shear Modulus (GPa) = 32.94760 18.75770 25.85265
#
# Velocity S-wave (km/s) = 3.87469 2.92358 3.43224
# Velocity P-wave (km/s) = 6.63775 6.84210 6.74070
#
# Compressibility (1/GPa) = 0.01895301
#
# Stress axis : x y z
#
# Youngs Moduli (GPa) = 79.69639 78.89719 109.70006
#
# Poissons Ratio (x) = 0.06893 -0.07214
# Poissons Ratio (y) = 0.06963 0.82016
# Poissons Ratio (z) = -0.05241 0.58987
#
# Static dielectric constant tensor:
#      x y z
#    x 1.933740 0.000000 0.000000 
#    y 0.000000 1.789190 0.000000 
#    z 0.000000 0.000000 1.866660 
# 
# From -- ./inp_files/21029.got.cif
#   From: 2010.05.17/outbox.cif.g08.bks.cpg/sg65_11_cif.got.tgz:21029.got - 2010.06.03 17:01:31.
