data_PCOD9486440
_publ_section_title
;
Structure prediction by ZEFSAII (Michael W. Deem and Ramdas Pophale) SiO2 
 PCOD9486440
Probable space group: C M M M
;
_chemical_formula_sum "Si O2"
_cell_formula_units_Z 120
_cell_length_a 8.898754
_cell_length_b 27.238722
_cell_length_c 28.271261
_cell_angle_alpha 90.000000
_cell_angle_beta 90.000000
_cell_angle_gamma 90.000000
_cell_volume 6852.690358
_symmetry_space_group_name_H-M "C M M M"
_symmetry_group_IT_number 65
_symmetry_cell_setting 'orthorhombic'
loop_
_space_group_symop_operation_xyz
x,y,z
-x,-y,z
x,-y,-z
-x,y,-z
-x,-y,-z
x,y,-z
-x,y,z
x,-y,z
1/2+x,1/2+y,z
1/2-x,1/2-y,z
1/2+x,1/2-y,-z
1/2-x,1/2+y,-z
1/2-x,1/2-y,-z
1/2+x,1/2+y,-z
1/2-x,1/2+y,z
1/2+x,1/2-y,z
loop_
_atom_site_type_symbol
_atom_site_label
_atom_site_fract_x
_atom_site_fract_y
_atom_site_fract_z
Si Si1 0.820984 0.945174 0.797317
Si Si2 0.322888 0.200594 0.766581
Si Si3 0.680387 0.398765 0.605463
Si Si4 0.823061 0.601684 0.707829
Si Si5 0.320364 0.650081 0.144229
Si Si6 0.820627 0.303966 0.054050
Si Si7 0.321251 0.197404 0.443422
Si Si8 0.682826 0.500000 0.554392
O O1 0.735822 0.934552 0.748518
O O2 0.781100 0.903624 0.835322
O O3 0.000000 0.940540 0.788305
O O4 0.789742 0.000000 0.814173
O O5 0.500000 0.206758 0.774546
O O6 0.250000 0.250000 0.747475
O O7 0.300850 0.155563 0.730755
O O8 0.243690 0.186943 0.816050
O O9 0.500000 0.395400 0.602276
O O10 0.732397 0.402612 0.659597
O O11 0.750591 0.349756 0.582379
O O12 0.729544 0.449231 0.579438
O O13 0.000000 0.594501 0.699240
O O14 0.500000 0.654873 0.141633
O O15 0.248104 0.661456 0.093946
O O16 0.750000 0.250000 0.060614
O O17 0.000000 0.300833 0.059416
O O18 0.787198 0.319465 0.000000
O O19 0.295747 0.192175 0.500000
O O20 0.500000 0.198706 0.434914
O O21 0.250000 0.250000 0.429070
O O22 0.500000 0.500000 0.555144
O O23 0.732052 0.500000 0.500000
#
# Coordination Sequence:
#
# PCOD9486440 Si02
#       8
#    16  16  16  16  16  16  16   8
#     4   9  19  36  57  78 102 134 176 222 267 319
#     4  10  20  34  52  73 103 140 177 216 258 312
#     4  11  22  37  59  84 112 146 183 225 273 327
#     4  10  22  37  52  77 109 140 176 217 266 319
#     4  10  19  32  52  77 104 136 175 219 266 315
#     4  10  20  33  50  74 106 142 178 217 261 312
#     4  10  21  38  60  85 112 143 181 225 272 324
#     4   9  20  38  59  83 109 141 181 221 266 323
#
# _framework density 17.511369999999999
#
# number of rings (size 3 to 8) (size 9 to 14) (size 15 to 20)
#    0.000    2.067    0.000    3.200    0.933    5.067 
#    0.000    2.333    0.000    2.800    0.000    2.800 
#    0.000    0.000    0.000    0.000    0.000    0.000 
#
# Total GULP energy -334985.724467 kJ/mol
# GULP energy per Si atom -5583.095408 kJ/mol
# Density = 1.747151 g / cm^3
# Si number density = 17.511370 Si / 1000 Ang^3
#
#
#
# Elastic Constant Matrix: (Units=GPa)
#
#
# Indices 1 2 3 4 5 6 
#
# 1 60.0417 46.8266 55.7513 0.0000 0.0000 0.0000
# 2 46.8266 113.4344 58.3323 0.0000 0.0000 0.0000
# 3 55.7513 58.3323 115.8914 0.0000 0.0000 0.0000
# 4 0.0000 0.0000 0.0000 2.9877 0.0000 0.0000
# 5 0.0000 0.0000 0.0000 0.0000 32.8001 0.0000
# 6 0.0000 0.0000 0.0000 0.0000 0.0000 25.9486
#
#
#
# Elastic Compliance Matrix: (Units=1/GPa)
#
#
# Indices 1 2 3 4 5 6 
#
# 1 0.034443 -0.007688 -0.012700 0.000000 0.000000 0.000000
# 2 -0.007688 0.013610 -0.003152 0.000000 0.000000 0.000000
# 3 -0.012700 -0.003152 0.016325 0.000000 0.000000 0.000000
# 4 0.000000 0.000000 0.000000 0.334703 0.000000 0.000000
# 5 0.000000 0.000000 0.000000 0.000000 0.030488 0.000000
# 6 0.000000 0.000000 0.000000 0.000000 0.000000 0.038538
#
#
# Mechanical properties :
#
#
# Convention : Reuss Voigt Hill
#
# Bulk Modulus (GPa) = 57.80813 67.90977 62.85895
# Shear Modulus (GPa) = 9.59782 20.91112 15.25447
#
# Velocity S-wave (km/s) = 2.34367 3.45939 2.95467
# Velocity P-wave (km/s) = 6.35666 7.40413 6.90030
#
# Compressibility (1/GPa) = 0.01729861
#
# Stress axis : x y z
#
# Youngs Moduli (GPa) = 29.03345 73.47449 61.25617
#
# Poissons Ratio (x) = 0.56484 0.77795
# Poissons Ratio (y) = 0.22320 0.19309
# Poissons Ratio (z) = 0.36872 0.23161
#
# Static dielectric constant tensor:
#      x y z
#    x 1.588270 0.000000 0.000000 
#    y 0.000000 1.591920 0.000000 
#    z 0.000000 0.000000 1.570920 
# 
# From -- ./inp_files/73943.got.cif
#   From: 2010.05.17/outbox.cif.g08.bks.cpg/sg65_37_cif.got.tgz:73943.got - 2010.06.03 17:01:31.
