data_PCOD9486052
_publ_section_title
;
Structure prediction by ZEFSAII (Michael W. Deem and Ramdas Pophale) SiO2 
 PCOD9486052
Probable space group: C M M M
;
_chemical_formula_sum "Si O2"
_cell_formula_units_Z 52
_cell_length_a 12.357536
_cell_length_b 24.947638
_cell_length_c 7.488099
_cell_angle_alpha 90.000000
_cell_angle_beta 90.000000
_cell_angle_gamma 90.000000
_cell_volume 2308.516035
_symmetry_space_group_name_H-M "C M M M"
_symmetry_group_IT_number 65
_symmetry_cell_setting 'orthorhombic'
loop_
_space_group_symop_operation_xyz
x,y,z
-x,-y,z
x,-y,-z
-x,y,-z
-x,-y,-z
x,y,-z
-x,y,z
x,-y,z
1/2+x,1/2+y,z
1/2-x,1/2-y,z
1/2+x,1/2-y,-z
1/2-x,1/2+y,-z
1/2-x,1/2-y,-z
1/2+x,1/2+y,-z
1/2-x,1/2+y,z
1/2+x,1/2-y,z
loop_
_atom_site_type_symbol
_atom_site_label
_atom_site_fract_x
_atom_site_fract_y
_atom_site_fract_z
Si Si1 0.500000 0.000000 0.746125
Si Si2 0.500000 0.126091 0.280831
Si Si3 0.773647 0.500000 0.197126
Si Si4 0.377527 0.598347 0.284052
Si Si5 0.780978 0.690434 0.282797
O O1 0.500000 0.934530 0.797159
O O2 0.622944 0.000000 0.678065
O O3 0.500000 0.119947 0.500000
O O4 0.392994 0.160693 0.230095
O O5 0.697919 0.449379 0.220602
O O6 0.824827 0.500000 0.000000
O O7 0.379455 0.596014 0.500000
O O8 0.500000 0.593523 0.220268
O O9 0.318780 0.652696 0.231416
O O10 0.786549 0.692464 0.500000
O O11 0.750000 0.750000 0.221118
#
# Coordination Sequence:
#
# PCOD9486052 Si02
#       5
#     4   8   8  16  16
#     4  12  22  38  56  82 113 152 195 242 287 346
#     4  10  19  31  55  86 117 153 190 236 291 348
#     4  12  25  40  58  81 112 149 191 239 291 344
#     4  10  21  37  58  85 115 149 186 233 285 339
#     4   9  18  31  51  83 118 149 185 231 284 338
#
# _framework density 22.525293000000001
#
# number of rings (size 3 to 8) (size 9 to 14) (size 15 to 20)
#    0.000    1.846    3.077    1.385    2.154    3.692 
#    0.000    0.000    0.000    0.923    0.000    0.000 
#    0.000    0.000    0.000    0.000    0.000    0.000 
#
# Total GULP energy -144982.305201 kJ/mol
# GULP energy per Si atom -5576.242508 kJ/mol
# Density = 2.247402 g / cm^3
# Si number density = 22.525293 Si / 1000 Ang^3
#
#
#
# Elastic Constant Matrix: (Units=GPa)
#
#
# Indices 1 2 3 4 5 6 
#
# 1 213.4718 100.9878 25.3913 0.0000 0.0000 0.0000
# 2 100.9878 237.0179 18.5483 0.0000 0.0000 0.0000
# 3 25.3913 18.5483 81.4725 0.0000 0.0000 0.0000
# 4 0.0000 0.0000 0.0000 13.5933 0.0000 0.0000
# 5 0.0000 0.0000 0.0000 0.0000 -14.7408 0.0000
# 6 0.0000 0.0000 0.0000 0.0000 0.0000 29.6739
#
#
#
# Elastic Compliance Matrix: (Units=1/GPa)
#
#
# Indices 1 2 3 4 5 6 
#
# 1 0.006002 -0.002455 -0.001312 0.000000 0.000000 0.000000
# 2 -0.002455 0.005299 -0.000442 0.000000 0.000000 0.000000
# 3 -0.001312 -0.000442 0.012783 0.000000 0.000000 0.000000
# 4 0.000000 0.000000 0.000000 0.073566 0.000000 0.000000
# 5 0.000000 0.000000 0.000000 0.000000 -0.067839 0.000000
# 6 0.000000 0.000000 0.000000 0.000000 0.000000 0.033700
#
#
# Mechanical properties :
#
#
# Convention : Reuss Voigt Hill
#
# Bulk Modulus (GPa) = 63.81984 91.31300 77.56642
# Shear Modulus (GPa) = 64.80932 31.50759 48.15846
#
# Velocity S-wave (km/s) = 5.36975 3.74406 4.62884
# Velocity P-wave (km/s) = 8.17556 7.70173 7.94218
#
# Compressibility (1/GPa) = 0.01566911
#
# Stress axis : x y z
#
# Youngs Moduli (GPa) = 166.62134 188.69875 78.22659
#
# Poissons Ratio (x) = 0.46316 0.10260
# Poissons Ratio (y) = 0.40897 0.03454
# Poissons Ratio (z) = 0.21855 0.08332
#
# Static dielectric constant tensor:
#      x y z
#    x 1.772680 0.000000 0.000000 
#    y 0.000000 1.797630 0.000000 
#    z 0.000000 0.000000 2.304910 
# 
# From -- ./inp_files/4306.got.cif
#   From: 2010.05.17/outbox.cif.g08.bks.cpg/sg65_3_cif.got.tgz:4306.got - 2010.06.03 17:01:31.
