data_PCOD9486498
_publ_section_title
;
Structure prediction by ZEFSAII (Michael W. Deem and Ramdas Pophale) SiO2 
 PCOD9486498
Probable space group: C M M M
;
_chemical_formula_sum "Si O2"
_cell_formula_units_Z 120
_cell_length_a 18.331300
_cell_length_b 18.557478
_cell_length_c 22.770478
_cell_angle_alpha 90.000000
_cell_angle_beta 90.000000
_cell_angle_gamma 90.000000
_cell_volume 7746.122606
_symmetry_space_group_name_H-M "C M M M"
_symmetry_group_IT_number 65
_symmetry_cell_setting 'orthorhombic'
loop_
_space_group_symop_operation_xyz
x,y,z
-x,-y,z
x,-y,-z
-x,y,-z
-x,-y,-z
x,y,-z
-x,y,z
x,-y,z
1/2+x,1/2+y,z
1/2-x,1/2-y,z
1/2+x,1/2-y,-z
1/2-x,1/2+y,-z
1/2-x,1/2-y,-z
1/2+x,1/2+y,-z
1/2-x,1/2+y,z
1/2+x,1/2-y,z
loop_
_atom_site_type_symbol
_atom_site_label
_atom_site_fract_x
_atom_site_fract_y
_atom_site_fract_z
Si Si1 0.411803 0.659892 0.931018
Si Si2 0.167195 0.223400 0.825201
Si Si3 0.335054 0.581247 0.253562
Si Si4 0.689950 0.082786 0.333063
Si Si5 0.416750 0.343287 0.645478
Si Si6 0.274651 0.332987 0.569059
Si Si7 0.917294 0.000000 0.928848
Si Si8 0.415335 0.197793 0.722198
O O1 0.500000 0.661671 0.923888
O O2 0.372914 0.714487 0.887268
O O3 0.385702 0.578306 0.914922
O O4 0.396810 0.672378 0.000000
O O5 0.250000 0.250000 0.831074
O O6 0.163713 0.145182 0.793482
O O7 0.125004 0.277062 0.781370
O O8 0.345575 0.500000 0.230677
O O9 0.257542 0.585345 0.287227
O O10 0.394318 0.599876 0.303920
O O11 0.720969 0.117477 0.392726
O O12 0.625961 0.131293 0.307010
O O13 0.668955 0.000000 0.341423
O O14 0.500000 0.353781 0.625948
O O15 0.355719 0.344635 0.595109
O O16 0.410794 0.265714 0.677678
O O17 0.271889 0.348283 0.500000
O O18 0.250000 0.250000 0.578461
O O19 0.000000 0.000000 0.905091
O O20 0.922416 0.000000 0.000000
O O21 0.500000 0.183019 0.733431
#
# Coordination Sequence:
#
# PCOD9486498 Si02
#       8
#    16  16  16  16  16  16   8  16
#     4   9  18  32  48  69 100 135 169 204 246 295
#     4  11  20  31  51  74 102 133 163 211 249 293
#     4   9  19  32  49  72  99 133 166 199 250 304
#     4  10  19  34  54  73  97 129 165 207 253 299
#     4   9  18  31  50  73 102 134 164 205 249 294
#     4  10  19  32  53  75  99 134 172 206 245 299
#     4   7  12  26  46  66  92 128 165 197 230 280
#     4  10  19  33  51  73  99 129 166 204 252 301
#
# _framework density 15.491621
#
# number of rings (size 3 to 8) (size 9 to 14) (size 15 to 20)
#    0.000    2.467    2.667    1.200    0.933    1.867 
#    0.000    0.000    0.000    0.400    0.000    4.667 
#    0.000    0.000    0.000    4.533    0.000    0.000 
#
# Total GULP energy -334330.749171 kJ/mol
# GULP energy per Si atom -5572.179153 kJ/mol
# Density = 1.545636 g / cm^3
# Si number density = 15.491621 Si / 1000 Ang^3
#
#
#
# Elastic Constant Matrix: (Units=GPa)
#
#
# Indices 1 2 3 4 5 6 
#
# 1 106.1932 50.1572 55.1343 0.0000 0.0000 0.0000
# 2 50.1572 91.4585 47.4668 0.0000 0.0000 0.0000
# 3 55.1343 47.4668 96.8450 0.0000 0.0000 0.0000
# 4 0.0000 0.0000 0.0000 19.2359 0.0000 0.0000
# 5 0.0000 0.0000 0.0000 0.0000 16.9116 0.0000
# 6 0.0000 0.0000 0.0000 0.0000 0.0000 15.0404
#
#
#
# Elastic Compliance Matrix: (Units=1/GPa)
#
#
# Indices 1 2 3 4 5 6 
#
# 1 0.014935 -0.005067 -0.006019 0.000000 0.000000 0.000000
# 2 -0.005067 0.016383 -0.005145 0.000000 0.000000 0.000000
# 3 -0.006019 -0.005145 0.016274 0.000000 0.000000 0.000000
# 4 0.000000 0.000000 0.000000 0.051986 0.000000 0.000000
# 5 0.000000 0.000000 0.000000 0.000000 0.059131 0.000000
# 6 0.000000 0.000000 0.000000 0.000000 0.000000 0.066487
#
#
# Mechanical properties :
#
#
# Convention : Reuss Voigt Hill
#
# Bulk Modulus (GPa) = 66.09395 66.66816 66.38106
# Shear Modulus (GPa) = 19.03290 19.68680 19.35985
#
# Velocity S-wave (km/s) = 3.50893 3.56870 3.53894
# Velocity P-wave (km/s) = 7.69245 7.75301 7.72279
#
# Compressibility (1/GPa) = 0.01512998
#
# Stress axis : x y z
#
# Youngs Moduli (GPa) = 66.95684 61.03907 61.44588
#
# Poissons Ratio (x) = 0.30926 0.36986
# Poissons Ratio (y) = 0.33924 0.31616
# Poissons Ratio (z) = 0.40303 0.31407
#
# Static dielectric constant tensor:
#      x y z
#    x 1.500690 0.000000 0.000000 
#    y 0.000000 1.518780 0.000000 
#    z 0.000000 0.000000 1.502480 
# 
# From -- ./inp_files/64013.got.cif
#   From: 2010.05.17/outbox.cif.g08.bks.cpg/sg65_33_cif.got.tgz:64013.got - 2010.06.03 17:01:31.
