data_PCOD9486447
_publ_section_title
;
Structure prediction by ZEFSAII (Michael W. Deem and Ramdas Pophale) SiO2 
 PCOD9486447
Probable space group: C M M M
;
_chemical_formula_sum "Si O2"
_cell_formula_units_Z 88
_cell_length_a 18.486332
_cell_length_b 8.571268
_cell_length_c 29.563546
_cell_angle_alpha 90.000000
_cell_angle_beta 90.000000
_cell_angle_gamma 90.000000
_cell_volume 4684.382471
_symmetry_space_group_name_H-M "C M M M"
_symmetry_group_IT_number 65
_symmetry_cell_setting 'orthorhombic'
loop_
_space_group_symop_operation_xyz
x,y,z
-x,-y,z
x,-y,-z
-x,y,-z
-x,-y,-z
x,y,-z
-x,y,z
x,-y,z
1/2+x,1/2+y,z
1/2-x,1/2-y,z
1/2+x,1/2-y,-z
1/2-x,1/2+y,-z
1/2-x,1/2-y,-z
1/2+x,1/2+y,-z
1/2-x,1/2+y,z
1/2+x,1/2-y,z
loop_
_atom_site_type_symbol
_atom_site_label
_atom_site_fract_x
_atom_site_fract_y
_atom_site_fract_z
Si Si1 0.587331 0.185023 0.950694
Si Si2 0.583344 0.809598 0.500000
Si Si3 0.668978 0.186731 0.230750
Si Si4 0.415682 0.314113 0.855163
Si Si5 0.916757 0.690407 0.679873
Si Si6 0.668584 0.188841 0.589964
O O1 0.500000 0.204919 0.951419
O O2 0.612498 0.266434 0.904907
O O3 0.601309 0.000000 0.947611
O O4 0.614252 0.241044 0.000000
O O5 0.500000 0.758241 0.500000
O O6 0.625422 0.760257 0.454858
O O7 0.582570 0.000000 0.500000
O O8 0.750000 0.250000 0.233049
O O9 0.630125 0.240636 0.184993
O O10 0.623390 0.241239 0.274454
O O11 0.670949 0.000000 0.231646
O O12 0.500000 0.262518 0.851473
O O13 0.414019 0.500000 0.851283
O O14 0.917319 0.500000 0.679846
O O15 0.873332 0.739779 0.635235
O O16 0.000000 0.741963 0.678820
O O17 0.750000 0.250000 0.589535
O O18 0.670124 0.000000 0.589940
#
# Coordination Sequence:
#
# PCOD9486447 Si02
#       6
#    16   8  16  16  16  16
#     4   8  14  26  46  73 104 137 173 212 254 302
#     4   9  17  30  51  77 102 135 180 222 256 297
#     4  11  22  36  54  74 100 134 172 214 261 314
#     4  10  20  33  51  77 107 137 172 215 260 307
#     4   9  18  33  54  78 101 130 171 215 257 306
#     4  10  19  32  52  77 106 137 171 213 259 310
#
# _framework density 18.785827000000001
#
# number of rings (size 3 to 8) (size 9 to 14) (size 15 to 20)
#    0.000    2.455    0.000    3.545    0.000    4.364 
#    0.000    2.727    0.000    5.455    0.000    0.000 
#    0.000    0.000    0.000    0.000    0.000    0.000 
#
# Total GULP energy -245520.358963 kJ/mol
# GULP energy per Si atom -5580.008158 kJ/mol
# Density = 1.874307 g / cm^3
# Si number density = 18.785827 Si / 1000 Ang^3
#
#
#
# Elastic Constant Matrix: (Units=GPa)
#
#
# Indices 1 2 3 4 5 6 
#
# 1 150.2466 24.5827 111.3503 0.0000 0.0000 0.0000
# 2 24.5827 16.3975 39.6917 0.0000 0.0000 0.0000
# 3 111.3503 39.6917 216.8864 0.0000 0.0000 0.0000
# 4 0.0000 0.0000 0.0000 -0.6747 0.0000 0.0000
# 5 0.0000 0.0000 0.0000 0.0000 -12.8062 0.0000
# 6 0.0000 0.0000 0.0000 0.0000 0.0000 23.8376
#
#
#
# Elastic Compliance Matrix: (Units=1/GPa)
#
#
# Indices 1 2 3 4 5 6 
#
# 1 0.010972 -0.005051 -0.004709 0.000000 0.000000 0.000000
# 2 -0.005051 0.111810 -0.017869 0.000000 0.000000 0.000000
# 3 -0.004709 -0.017869 0.010298 0.000000 0.000000 0.000000
# 4 0.000000 0.000000 0.000000 -1.482034 0.000000 0.000000
# 5 0.000000 0.000000 0.000000 0.000000 -0.078087 0.000000
# 6 0.000000 0.000000 0.000000 0.000000 0.000000 0.041951
#
#
# Mechanical properties :
#
#
# Convention : Reuss Voigt Hill
#
# Bulk Modulus (GPa) = 12.84963 81.64221 47.24592
# Shear Modulus (GPa) = -3.83467 15.93172 6.04852
#
# Velocity S-wave (km/s) = -1.43028 2.91533 1.79631
# Velocity P-wave (km/s) = 2.03158 7.40851 5.43200
#
# Compressibility (1/GPa) = 0.07782324
#
# Stress axis : x y z
#
# Youngs Moduli (GPa) = 91.14313 8.94375 97.10423
#
# Poissons Ratio (x) = 0.04517 0.45722
# Poissons Ratio (y) = 0.46036 1.73513
# Poissons Ratio (z) = 0.42915 0.15981
#
# Static dielectric constant tensor:
#      x y z
#    x 1.618800 0.000000 0.000000 
#    y 0.000000 1.639020 0.000000 
#    z 0.000000 0.000000 1.652950 
# 
# From -- ./inp_files/76691.got.cif
#   From: 2010.05.17/outbox.cif.g08.bks.cpg/sg65_39_cif.got.tgz:76691.got - 2010.06.03 17:01:31.
