data_PCOD9486071
_publ_section_title
;
Structure prediction by ZEFSAII (Michael W. Deem and Ramdas Pophale) SiO2 
 PCOD9486071
Probable space group: C M M M
;
_chemical_formula_sum "Si O2"
_cell_formula_units_Z 88
_cell_length_a 30.470828
_cell_length_b 21.140836
_cell_length_c 7.557395
_cell_angle_alpha 90.000000
_cell_angle_beta 90.000000
_cell_angle_gamma 90.000000
_cell_volume 4868.313472
_symmetry_space_group_name_H-M "C M M M"
_symmetry_group_IT_number 65
_symmetry_cell_setting 'orthorhombic'
loop_
_space_group_symop_operation_xyz
x,y,z
-x,-y,z
x,-y,-z
-x,y,-z
-x,-y,-z
x,y,-z
-x,y,z
x,-y,z
1/2+x,1/2+y,z
1/2-x,1/2-y,z
1/2+x,1/2-y,-z
1/2-x,1/2+y,-z
1/2-x,1/2-y,-z
1/2+x,1/2+y,-z
1/2-x,1/2+y,z
1/2+x,1/2-y,z
loop_
_atom_site_type_symbol
_atom_site_label
_atom_site_fract_x
_atom_site_fract_y
_atom_site_fract_z
Si Si1 0.789903 0.206875 0.706280
Si Si2 0.364033 0.198267 0.208684
Si Si3 0.053588 0.500000 0.293603
Si Si4 0.049964 0.638281 0.286631
Si Si5 0.220493 0.068502 0.708836
Si Si6 0.823873 0.568081 0.785922
O O1 0.778111 0.197292 0.500000
O O2 0.750000 0.250000 0.782181
O O3 0.835038 0.245447 0.715394
O O4 0.794430 0.136306 0.783653
O O5 0.415894 0.192701 0.238015
O O6 0.346084 0.131476 0.282493
O O7 0.355714 0.199857 0.000000
O O8 0.066241 0.500000 0.500000
O O9 0.065509 0.568832 0.216499
O O10 0.000000 0.500000 0.289550
O O11 0.049014 0.633465 0.500000
O O12 0.000000 0.649156 0.227113
O O13 0.209584 0.067118 0.500000
O O14 0.273144 0.069891 0.730365
O O15 0.205854 0.000000 0.783451
O O16 0.842461 0.500000 0.726891
O O17 0.825636 0.568968 0.000000
#
# Coordination Sequence:
#
# PCOD9486071 Si02
#       6
#    16  16   8  16  16  16
#     4  10  19  32  48  67  93 122 154 192 231 273
#     4  11  22  31  45  67  92 124 157 193 234 277
#     4   7  12  26  47  67  85 111 151 197 239 273
#     4   9  18  33  50  66  87 117 155 197 237 276
#     4   9  17  30  48  67  87 116 155 195 230 265
#     4   9  18  30  41  58  88 123 156 189 227 271
#
# _framework density 18.076076
#
# number of rings (size 3 to 8) (size 9 to 14) (size 15 to 20)
#    0.000    2.636    1.818    1.636    1.273    2.182 
#    0.000    0.000    0.000    1.636    0.000    0.000 
#    0.000    0.727    0.000    8.364    0.000    2.364 
#
# Total GULP energy -245269.737711 kJ/mol
# GULP energy per Si atom -5574.312221 kJ/mol
# Density = 1.803493 g / cm^3
# Si number density = 18.076076 Si / 1000 Ang^3
#
#
#
# Elastic Constant Matrix: (Units=GPa)
#
#
# Indices 1 2 3 4 5 6 
#
# 1 67.9461 56.2403 -11.4024 0.0000 0.0000 0.0000
# 2 56.2403 160.5321 5.3881 0.0000 0.0000 0.0000
# 3 -11.4024 5.3881 47.3246 0.0000 0.0000 0.0000
# 4 0.0000 0.0000 0.0000 -1.2126 0.0000 0.0000
# 5 0.0000 0.0000 0.0000 0.0000 21.9369 0.0000
# 6 0.0000 0.0000 0.0000 0.0000 0.0000 28.8718
#
#
#
# Elastic Compliance Matrix: (Units=1/GPa)
#
#
# Indices 1 2 3 4 5 6 
#
# 1 0.022474 -0.008086 0.006335 0.000000 0.000000 0.000000
# 2 -0.008086 0.009163 -0.002991 0.000000 0.000000 0.000000
# 3 0.006335 -0.002991 0.022998 0.000000 0.000000 0.000000
# 4 0.000000 0.000000 0.000000 -0.824656 0.000000 0.000000
# 5 0.000000 0.000000 0.000000 0.000000 0.045585 0.000000
# 6 0.000000 0.000000 0.000000 0.000000 0.000000 0.034636
#
#
# Mechanical properties :
#
#
# Convention : Reuss Voigt Hill
#
# Bulk Modulus (GPa) = 22.14845 41.80608 31.97726
# Shear Modulus (GPa) = -7.51578 24.95768 8.72095
#
# Velocity S-wave (km/s) = -2.04129 3.71981 2.19888
# Velocity P-wave (km/s) = 2.59300 6.45193 4.91686
#
# Compressibility (1/GPa) = 0.04514989
#
# Stress axis : x y z
#
# Youngs Moduli (GPa) = 44.49655 109.14052 43.48262
#
# Poissons Ratio (x) = 0.88251 -0.27548
# Poissons Ratio (y) = 0.35980 0.13007
# Poissons Ratio (z) = -0.28190 0.32648
#
# Static dielectric constant tensor:
#      x y z
#    x 1.628810 0.000000 0.000000 
#    y 0.000000 1.678160 0.000000 
#    z 0.000000 0.000000 1.705650 
# 
# From -- ./inp_files/12653.got.cif
#   From: 2010.05.17/outbox.cif.g08.bks.cpg/sg65_7_cif.got.tgz:12653.got - 2010.06.03 17:01:31.
