data_PCOD9486586
_publ_section_title
;
Structure prediction by ZEFSAII (Michael W. Deem and Ramdas Pophale) SiO2 
 PCOD9486586
Probable space group: C M M M
;
_chemical_formula_sum "Si O2"
_cell_formula_units_Z 88
_cell_length_a 14.272980
_cell_length_b 11.538720
_cell_length_c 24.000366
_cell_angle_alpha 90.000000
_cell_angle_beta 90.000000
_cell_angle_gamma 90.000000
_cell_volume 3952.666352
_symmetry_space_group_name_H-M "C M M M"
_symmetry_group_IT_number 65
_symmetry_cell_setting 'orthorhombic'
loop_
_space_group_symop_operation_xyz
x,y,z
-x,-y,z
x,-y,-z
-x,y,-z
-x,-y,-z
x,y,-z
-x,y,z
x,-y,z
1/2+x,1/2+y,z
1/2-x,1/2-y,z
1/2+x,1/2-y,-z
1/2-x,1/2+y,-z
1/2-x,1/2-y,-z
1/2+x,1/2+y,-z
1/2-x,1/2+y,z
1/2+x,1/2-y,z
loop_
_atom_site_type_symbol
_atom_site_label
_atom_site_fract_x
_atom_site_fract_y
_atom_site_fract_z
Si Si1 0.385935 0.761109 0.386838
Si Si2 0.611287 0.752504 0.167224
Si Si3 0.684786 0.634104 0.938940
Si Si4 0.885782 0.500000 0.329967
Si Si5 0.885340 0.864621 0.500000
Si Si6 0.885877 0.129911 0.277583
Si Si7 0.385136 0.000000 0.197490
O O1 0.500000 0.763990 0.389016
O O2 0.356669 0.887433 0.365163
O O3 0.355716 0.706748 0.445273
O O4 0.357059 0.676638 0.337057
O O5 0.500000 0.762220 0.171491
O O6 0.629187 0.665104 0.116847
O O7 0.646517 0.704356 0.225780
O O8 0.647612 0.884569 0.165175
O O9 0.721296 0.500000 0.935292
O O10 0.750000 0.750000 0.940751
O O11 0.635583 0.637237 0.000000
O O12 0.860142 0.500000 0.263825
O O13 0.000000 0.500000 0.328458
O O14 0.000000 0.867915 0.500000
O O15 0.854921 0.000000 0.500000
O O16 0.000000 0.132815 0.277380
O O17 0.855374 0.000000 0.269341
O O18 0.500000 0.000000 0.196946
#
# Coordination Sequence:
#
# PCOD9486586 Si02
#       7
#    16  16  16   8   8  16   8
#     4   9  15  22  32  47  73 111 155 200 246 298
#     4  10  19  32  54  82 107 135 175 224 270 311
#     4  10  23  42  61  81 109 145 179 212 257 316
#     4   9  14  23  36  52  80 115 153 198 251 305
#     4   9  16  23  29  41  67 108 158 205 246 293
#     4   9  15  23  38  61  88 117 154 204 259 307
#     4   9  16  28  46  74 106 132 162 211 271 321
#
# _framework density 22.263452000000001
#
# number of rings (size 3 to 8) (size 9 to 14) (size 15 to 20)
#    0.000    2.636    1.818    1.091    1.273    4.000 
#    0.000    2.727    0.000    1.636    0.000    0.000 
#    0.000    0.000    0.000    0.818    0.000    7.091 
#
# Total GULP energy -245336.704005 kJ/mol
# GULP energy per Si atom -5575.834182 kJ/mol
# Density = 2.221278 g / cm^3
# Si number density = 22.263452 Si / 1000 Ang^3
#
#
#
# Elastic Constant Matrix: (Units=GPa)
#
#
# Indices 1 2 3 4 5 6 
#
# 1 61.8788 19.3863 14.5575 0.0000 0.0000 0.0000
# 2 19.3863 173.0437 59.9630 0.0000 0.0000 0.0000
# 3 14.5575 59.9630 159.9279 0.0000 0.0000 0.0000
# 4 0.0000 0.0000 0.0000 39.7744 0.0000 0.0000
# 5 0.0000 0.0000 0.0000 0.0000 12.4562 0.0000
# 6 0.0000 0.0000 0.0000 0.0000 0.0000 9.3326
#
#
#
# Elastic Compliance Matrix: (Units=1/GPa)
#
#
# Indices 1 2 3 4 5 6 
#
# 1 0.016873 -0.001561 -0.000951 0.000000 0.000000 0.000000
# 2 -0.001561 0.006786 -0.002402 0.000000 0.000000 0.000000
# 3 -0.000951 -0.002402 0.007240 0.000000 0.000000 0.000000
# 4 0.000000 0.000000 0.000000 0.025142 0.000000 0.000000
# 5 0.000000 0.000000 0.000000 0.000000 0.080281 0.000000
# 6 0.000000 0.000000 0.000000 0.000000 0.000000 0.107151
#
#
# Mechanical properties :
#
#
# Convention : Reuss Voigt Hill
#
# Bulk Modulus (GPa) = 47.45681 64.74045 56.09863
# Shear Modulus (GPa) = 19.20672 32.37555 25.79113
#
# Velocity S-wave (km/s) = 2.94036 3.81754 3.40730
# Velocity P-wave (km/s) = 5.73498 6.96949 6.38215
#
# Compressibility (1/GPa) = 0.02107179
#
# Stress axis : x y z
#
# Youngs Moduli (GPa) = 59.26528 147.35764 138.12010
#
# Poissons Ratio (x) = 0.23001 0.13130
# Poissons Ratio (y) = 0.09251 0.33181
# Poissons Ratio (z) = 0.05634 0.35400
#
# Static dielectric constant tensor:
#      x y z
#    x 1.895610 0.000000 0.000000 
#    y 0.000000 1.841860 0.000000 
#    z 0.000000 0.000000 1.783450 
# 
# From -- ./inp_files/63676.got.cif
#   From: 2010.05.17/outbox.cif.g08.bks.cpg/sg65_32_cif.got.tgz:63676.got - 2010.06.03 17:01:31.
