data_PCOD9486624
_publ_section_title
;
Structure prediction by ZEFSAII (Michael W. Deem and Ramdas Pophale) SiO2 
 PCOD9486624
Probable space group: C M M M
;
_chemical_formula_sum "Si O2"
_cell_formula_units_Z 88
_cell_length_a 21.922992
_cell_length_b 16.943413
_cell_length_c 17.178997
_cell_angle_alpha 90.000000
_cell_angle_beta 90.000000
_cell_angle_gamma 90.000000
_cell_volume 6381.143721
_symmetry_space_group_name_H-M "C M M M"
_symmetry_group_IT_number 65
_symmetry_cell_setting 'orthorhombic'
loop_
_space_group_symop_operation_xyz
x,y,z
-x,-y,z
x,-y,-z
-x,y,-z
-x,-y,-z
x,y,-z
-x,y,z
x,-y,z
1/2+x,1/2+y,z
1/2-x,1/2-y,z
1/2+x,1/2-y,-z
1/2-x,1/2+y,-z
1/2-x,1/2-y,-z
1/2+x,1/2+y,-z
1/2-x,1/2+y,z
1/2+x,1/2-y,z
loop_
_atom_site_type_symbol
_atom_site_label
_atom_site_fract_x
_atom_site_fract_y
_atom_site_fract_z
Si Si1 0.926183 0.909643 0.000000
Si Si2 0.864022 0.855091 0.674142
Si Si3 0.118698 0.689070 0.592334
Si Si4 0.572651 0.500000 0.588721
Si Si5 0.255490 0.094523 0.589907
Si Si6 0.000000 0.410180 0.405552
Si Si7 0.927639 0.903883 0.827639
O O1 0.910389 0.876458 0.084814
O O2 0.000000 0.912892 0.000000
O O3 0.903843 0.000000 0.000000
O O4 0.878459 0.769234 0.640605
O O5 0.902731 0.922300 0.630050
O O6 0.794530 0.874918 0.650660
O O7 0.884514 0.865469 0.763151
O O8 0.112732 0.707892 0.500000
O O9 0.180439 0.638505 0.601230
O O10 0.060720 0.636875 0.616432
O O11 0.500000 0.500000 0.590784
O O12 0.594406 0.500000 0.500000
O O13 0.235426 0.111332 0.500000
O O14 0.262203 0.000000 0.596615
O O15 0.000000 0.500000 0.376808
O O16 0.000000 0.413672 0.500000
O O17 0.000000 0.887031 0.813683
O O18 0.922219 0.000000 0.824075
#
# Coordination Sequence:
#
# PCOD9486624 Si02
#       7
#     8  16  16   8  16   8  16
#     4   7  12  24  42  60  81 114 152 181 210 251
#     4  12  20  29  43  65  92 120 150 182 220 265
#     4  10  21  32  46  64  85 114 154 198 231 261
#     4  11  22  30  38  55  91 132 156 171 203 257
#     4  10  19  33  48  61  82 117 159 196 228 262
#     4   9  18  34  50  63  79 108 153 199 239 266
#     4   9  16  27  42  62  89 120 150 180 213 261
#
# _framework density 13.790630999999999
#
# number of rings (size 3 to 8) (size 9 to 14) (size 15 to 20)
#    0.000    2.091    1.818    4.364    2.545    3.636 
#    0.000    0.000    0.000    0.000    0.000    2.545 
#    0.000    0.000    0.000    3.273    0.000    0.000 
#
# Total GULP energy -245237.232242 kJ/mol
# GULP energy per Si atom -5573.573460 kJ/mol
# Density = 1.375924 g / cm^3
# Si number density = 13.790631 Si / 1000 Ang^3
#
#
#
# Elastic Constant Matrix: (Units=GPa)
#
#
# Indices 1 2 3 4 5 6 
#
# 1 83.1060 40.0431 53.0989 0.0000 0.0000 0.0000
# 2 40.0431 88.1940 42.5379 0.0000 0.0000 0.0000
# 3 53.0989 42.5379 111.3681 0.0000 0.0000 0.0000
# 4 0.0000 0.0000 0.0000 7.6430 0.0000 0.0000
# 5 0.0000 0.0000 0.0000 0.0000 18.4840 0.0000
# 6 0.0000 0.0000 0.0000 0.0000 0.0000 78.1916
#
#
#
# Elastic Compliance Matrix: (Units=1/GPa)
#
#
# Indices 1 2 3 4 5 6 
#
# 1 0.019098 -0.005246 -0.007102 0.000000 0.000000 0.000000
# 2 -0.005246 0.015340 -0.003358 0.000000 0.000000 0.000000
# 3 -0.007102 -0.003358 0.013648 0.000000 0.000000 0.000000
# 4 0.000000 0.000000 0.000000 0.130839 0.000000 0.000000
# 5 0.000000 0.000000 0.000000 0.000000 0.054101 0.000000
# 6 0.000000 0.000000 0.000000 0.000000 0.000000 0.012789
#
#
# Mechanical properties :
#
#
# Convention : Reuss Voigt Hill
#
# Bulk Modulus (GPa) = 59.97239 61.55866 60.76552
# Shear Modulus (GPa) = 17.68124 30.66293 24.17208
#
# Velocity S-wave (km/s) = 3.58455 4.72047 4.19118
# Velocity P-wave (km/s) = 7.79193 8.62818 8.22070
#
# Compressibility (1/GPa) = 0.01667434
#
# Stress axis : x y z
#
# Youngs Moduli (GPa) = 52.36120 65.18863 73.27024
#
# Poissons Ratio (x) = 0.34196 0.52037
# Poissons Ratio (y) = 0.27467 0.24606
# Poissons Ratio (z) = 0.37187 0.21892
#
# Static dielectric constant tensor:
#      x y z
#    x 1.455030 0.000000 0.000000 
#    y 0.000000 1.436870 0.000000 
#    z 0.000000 0.000000 1.464480 
# 
# From -- ./inp_files/55789.got.cif
#   From: 2010.05.17/outbox.cif.g08.bks.cpg/sg65_28_cif.got.tgz:55789.got - 2010.06.03 17:01:31.
