data_PCOD9486743
_publ_section_title
;
Structure prediction by ZEFSAII (Michael W. Deem and Ramdas Pophale) SiO2 
 PCOD9486743
Probable space group: C M M M
;
_chemical_formula_sum "Si O2"
_cell_formula_units_Z 104
_cell_length_a 26.142203
_cell_length_b 7.978668
_cell_length_c 23.934559
_cell_angle_alpha 90.000000
_cell_angle_beta 90.000000
_cell_angle_gamma 90.000000
_cell_volume 4992.269324
_symmetry_space_group_name_H-M "C M M M"
_symmetry_group_IT_number 65
_symmetry_cell_setting 'orthorhombic'
loop_
_space_group_symop_operation_xyz
x,y,z
-x,-y,z
x,-y,-z
-x,y,-z
-x,-y,-z
x,y,-z
-x,y,z
x,-y,z
1/2+x,1/2+y,z
1/2-x,1/2-y,z
1/2+x,1/2-y,-z
1/2-x,1/2+y,-z
1/2-x,1/2-y,-z
1/2+x,1/2+y,-z
1/2-x,1/2+y,z
1/2+x,1/2-y,z
loop_
_atom_site_type_symbol
_atom_site_label
_atom_site_fract_x
_atom_site_fract_y
_atom_site_fract_z
Si Si1 0.693548 0.304276 0.597675
Si Si2 0.888505 0.705676 0.181966
Si Si3 0.000000 0.705210 0.775513
Si Si4 0.806337 0.299257 0.726404
Si Si5 0.387460 0.804803 0.062561
Si Si6 0.414828 0.297188 0.560987
Si Si7 0.000000 0.811746 0.066139
Si Si8 0.000000 0.301540 0.648087
O O1 0.691651 0.500000 0.586787
O O2 0.750000 0.250000 0.579642
O O3 0.688806 0.273215 0.664136
O O4 0.642799 0.230797 0.569706
O O5 0.888521 0.500000 0.180371
O O6 0.946810 0.758475 0.195677
O O7 0.850903 0.756871 0.231904
O O8 0.867379 0.765818 0.121472
O O9 0.000000 0.500000 0.776578
O O10 0.000000 0.764879 0.711253
O O11 0.808863 0.500000 0.721380
O O12 0.750000 0.250000 0.747619
O O13 0.448223 0.789982 0.074892
O O14 0.373223 0.000000 0.059315
O O15 0.377752 0.731835 0.000000
O O16 0.434169 0.242281 0.500000
O O17 0.414102 0.500000 0.560671
O O18 0.450811 0.247549 0.611910
O O19 0.000000 0.000000 0.091175
O O20 0.000000 0.835999 0.000000
O O21 0.000000 0.500000 0.653704
#
# Coordination Sequence:
#
# PCOD9486743 Si02
#       8
#    16  16   8  16  16  16   8   8
#     4  10  20  35  56  80 105 133 167 209 257 307
#     4   9  17  29  48  73  99 127 160 202 251 297
#     4   9  17  29  46  72 104 129 154 198 253 298
#     4  10  19  33  53  75 100 131 167 207 252 300
#     4   9  16  27  45  67  90 121 163 205 242 287
#     4  10  22  39  56  75 104 141 173 204 251 307
#     4   9  16  25  37  57  88 123 154 185 229 285
#     4  11  22  35  54  78 102 135 179 220 252 288
#
# _framework density 20.832211000000001
#
# number of rings (size 3 to 8) (size 9 to 14) (size 15 to 20)
#    0.000    2.385    0.000    3.923    0.000    6.154 
#    0.000    1.538    0.000    6.000    0.000    0.000 
#    0.000    0.000    0.000    0.000    0.000    0.615 
#
# Total GULP energy -289887.340462 kJ/mol
# GULP energy per Si atom -5574.756547 kJ/mol
# Density = 2.078480 g / cm^3
# Si number density = 20.832211 Si / 1000 Ang^3
#
#
#
# Elastic Constant Matrix: (Units=GPa)
#
#
# Indices 1 2 3 4 5 6 
#
# 1 86.8266 0.6065 38.5462 0.0000 0.0000 0.0000
# 2 0.6065 19.4940 -3.2753 0.0000 0.0000 0.0000
# 3 38.5462 -3.2753 124.0288 0.0000 0.0000 0.0000
# 4 0.0000 0.0000 0.0000 9.4041 0.0000 0.0000
# 5 0.0000 0.0000 0.0000 0.0000 37.4033 0.0000
# 6 0.0000 0.0000 0.0000 0.0000 0.0000 6.6996
#
#
#
# Elastic Compliance Matrix: (Units=1/GPa)
#
#
# Indices 1 2 3 4 5 6 
#
# 1 0.013385 -0.001120 -0.004189 0.000000 0.000000 0.000000
# 2 -0.001120 0.051620 0.001711 0.000000 0.000000 0.000000
# 3 -0.004189 0.001711 0.009410 0.000000 0.000000 0.000000
# 4 0.000000 0.000000 0.000000 0.106337 0.000000 0.000000
# 5 0.000000 0.000000 0.000000 0.000000 0.026736 0.000000
# 6 0.000000 0.000000 0.000000 0.000000 0.000000 0.149262
#
#
# Mechanical properties :
#
#
# Convention : Reuss Voigt Hill
#
# Bulk Modulus (GPa) = 14.87694 33.56714 24.22204
# Shear Modulus (GPa) = 12.94156 23.66620 18.30388
#
# Velocity S-wave (km/s) = 2.49515 3.37417 2.96739
# Velocity P-wave (km/s) = 3.93165 5.59715 4.83663
#
# Compressibility (1/GPa) = 0.06721815
#
# Stress axis : x y z
#
# Youngs Moduli (GPa) = 74.71107 19.37226 106.27186
#
# Poissons Ratio (x) = 0.02170 0.44521
# Poissons Ratio (y) = 0.08370 -0.18187
# Poissons Ratio (z) = 0.31299 -0.03315
#
# Static dielectric constant tensor:
#      x y z
#    x 1.769460 0.000000 0.000000 
#    y 0.000000 1.768110 0.000000 
#    z 0.000000 0.000000 1.787310 
# 
# From -- ./inp_files/71884.got.cif
#   From: 2010.05.17/outbox.cif.g08.bks.cpg/sg65_36_cif.got.tgz:71884.got - 2010.06.03 17:01:31.
