data_PCOD9486532
_publ_section_title
;
Structure prediction by ZEFSAII (Michael W. Deem and Ramdas Pophale) SiO2 
 PCOD9486532
Probable space group: C M M M
;
_chemical_formula_sum "Si O2"
_cell_formula_units_Z 128
_cell_length_a 17.689929
_cell_length_b 17.331204
_cell_length_c 23.858858
_cell_angle_alpha 90.000000
_cell_angle_beta 90.000000
_cell_angle_gamma 90.000000
_cell_volume 7314.834027
_symmetry_space_group_name_H-M "C M M M"
_symmetry_group_IT_number 65
_symmetry_cell_setting 'orthorhombic'
loop_
_space_group_symop_operation_xyz
x,y,z
-x,-y,z
x,-y,-z
-x,y,-z
-x,-y,-z
x,y,-z
-x,y,z
x,-y,z
1/2+x,1/2+y,z
1/2-x,1/2-y,z
1/2+x,1/2-y,-z
1/2-x,1/2+y,-z
1/2-x,1/2-y,-z
1/2+x,1/2+y,-z
1/2-x,1/2+y,z
1/2+x,1/2-y,z
loop_
_atom_site_type_symbol
_atom_site_label
_atom_site_fract_x
_atom_site_fract_y
_atom_site_fract_z
Si Si1 0.413439 0.215902 0.638384
Si Si2 0.589416 0.755074 0.932983
Si Si3 0.587335 0.718944 0.236242
Si Si4 0.289972 0.410916 0.228745
Si Si5 0.908913 0.083241 0.932978
Si Si6 0.783166 0.409184 0.350468
Si Si7 0.186491 0.817587 0.563720
Si Si8 0.686779 0.816694 0.844157
O O1 0.500000 0.192756 0.629435
O O2 0.407574 0.257674 0.698660
O O3 0.356717 0.143435 0.639456
O O4 0.385200 0.276658 0.592027
O O5 0.500000 0.764192 0.920375
O O6 0.614637 0.668466 0.912926
O O7 0.641948 0.816843 0.902335
O O8 0.597146 0.757713 0.000000
O O9 0.500000 0.707763 0.221023
O O10 0.637179 0.643441 0.225161
O O11 0.624886 0.787491 0.200668
O O12 0.310564 0.500000 0.228153
O O13 0.249282 0.393032 0.288256
O O14 0.230759 0.389893 0.179793
O O15 0.000000 0.083012 0.926853
O O16 0.880866 0.000000 0.910239
O O17 0.894081 0.082789 0.000000
O O18 0.799010 0.500000 0.354829
O O19 0.720655 0.382695 0.395763
O O20 0.173607 0.843101 0.500000
O O21 0.250000 0.750000 0.562834
O O22 0.750000 0.750000 0.846763
#
# Coordination Sequence:
#
# PCOD9486532 Si02
#       8
#    16  16  16  16  16  16  16  16
#     4  10  19  32  53  79 110 145 181 226 272 320
#     4   9  17  30  49  74 104 139 181 223 264 319
#     4  10  19  33  55  80 105 137 177 221 269 323
#     4  10  20  35  55  78 105 140 178 223 276 322
#     4   7  10  19  38  65  97 131 164 200 245 295
#     4  10  19  33  54  78 110 145 182 228 273 324
#     4   9  18  32  53  78 105 142 186 227 265 317
#     4  10  20  33  53  76 103 140 175 222 271 320
#
# _framework density 17.498688000000001
#
# number of rings (size 3 to 8) (size 9 to 14) (size 15 to 20)
#    0.000    2.625    2.500    1.500    0.000    1.250 
#    0.000    2.500    0.000    5.250    0.000    5.250 
#    0.000    0.000    0.000    1.875    0.000    0.000 
#
# Total GULP energy -356696.287049 kJ/mol
# GULP energy per Si atom -5573.379485 kJ/mol
# Density = 1.745886 g / cm^3
# Si number density = 17.498688 Si / 1000 Ang^3
#
#
#
# Elastic Constant Matrix: (Units=GPa)
#
#
# Indices 1 2 3 4 5 6 
#
# 1 85.9963 37.2128 26.2168 0.0000 0.0000 0.0000
# 2 37.2128 50.5905 10.0816 0.0000 0.0000 0.0000
# 3 26.2168 10.0816 72.1586 0.0000 0.0000 0.0000
# 4 0.0000 0.0000 0.0000 12.3488 0.0000 0.0000
# 5 0.0000 0.0000 0.0000 0.0000 17.9913 0.0000
# 6 0.0000 0.0000 0.0000 0.0000 0.0000 12.5574
#
#
#
# Elastic Compliance Matrix: (Units=1/GPa)
#
#
# Indices 1 2 3 4 5 6 
#
# 1 0.018662 -0.012730 -0.005002 0.000000 0.000000 0.000000
# 2 -0.012730 0.029017 0.000571 0.000000 0.000000 0.000000
# 3 -0.005002 0.000571 0.015596 0.000000 0.000000 0.000000
# 4 0.000000 0.000000 0.000000 0.080980 0.000000 0.000000
# 5 0.000000 0.000000 0.000000 0.000000 0.055583 0.000000
# 6 0.000000 0.000000 0.000000 0.000000 0.000000 0.079634
#
#
# Mechanical properties :
#
#
# Convention : Reuss Voigt Hill
#
# Bulk Modulus (GPa) = 34.53907 39.52975 37.03441
# Shear Modulus (GPa) = 15.45863 17.59511 16.52687
#
# Velocity S-wave (km/s) = 2.97546 3.17442 3.07655
# Velocity P-wave (km/s) = 5.62009 6.00625 5.81638
#
# Compressibility (1/GPa) = 0.02895272
#
# Stress axis : x y z
#
# Youngs Moduli (GPa) = 53.58480 34.46269 64.11996
#
# Poissons Ratio (x) = 0.43873 0.32071
# Poissons Ratio (y) = 0.68216 -0.03662
# Poissons Ratio (z) = 0.26801 -0.01968
#
# Static dielectric constant tensor:
#      x y z
#    x 1.580350 0.000000 0.000000 
#    y 0.000000 1.597340 0.000000 
#    z 0.000000 0.000000 1.629190 
# 
# From -- ./inp_files/70685.got.cif
#   From: 2010.05.17/outbox.cif.g08.bks.cpg/sg65_36_cif.got.tgz:70685.got - 2010.06.03 17:01:31.
