data_PCOD9486018
_publ_section_title
;
Structure prediction by ZEFSAII (Michael W. Deem and Ramdas Pophale) SiO2 
 PCOD9486018
Probable space group: C M M M
;
_chemical_formula_sum "Si O2"
_cell_formula_units_Z 104
_cell_length_a 24.087266
_cell_length_b 26.030159
_cell_length_c 9.241318
_cell_angle_alpha 90.000000
_cell_angle_beta 90.000000
_cell_angle_gamma 90.000000
_cell_volume 5794.263542
_symmetry_space_group_name_H-M "C M M M"
_symmetry_group_IT_number 65
_symmetry_cell_setting 'orthorhombic'
loop_
_space_group_symop_operation_xyz
x,y,z
-x,-y,z
x,-y,-z
-x,y,-z
-x,-y,-z
x,y,-z
-x,y,z
x,-y,z
1/2+x,1/2+y,z
1/2-x,1/2-y,z
1/2+x,1/2-y,-z
1/2-x,1/2+y,-z
1/2-x,1/2-y,-z
1/2+x,1/2+y,-z
1/2-x,1/2+y,z
1/2+x,1/2-y,z
loop_
_atom_site_type_symbol
_atom_site_label
_atom_site_fract_x
_atom_site_fract_y
_atom_site_fract_z
Si Si1 0.935632 0.500000 0.828074
Si Si2 0.274751 0.151302 0.330847
Si Si3 0.106148 0.402957 0.665880
Si Si4 0.832415 0.132638 0.825146
Si Si5 0.940148 0.312862 0.835500
Si Si6 0.827456 0.747006 0.830054
Si Si7 0.936137 0.059927 0.175786
O O1 0.904799 0.549273 0.766887
O O2 0.000000 0.500000 0.779081
O O3 0.935402 0.500000 0.000000
O O4 0.261606 0.159722 0.500000
O O5 0.331782 0.119387 0.321048
O O6 0.225762 0.119820 0.252234
O O7 0.288510 0.206317 0.254533
O O8 0.095556 0.416410 0.500000
O O9 0.066290 0.357888 0.721237
O O10 0.834050 0.193518 0.787721
O O11 0.886298 0.098836 0.780073
O O12 0.827917 0.128403 0.000000
O O13 0.889283 0.275229 0.815611
O O14 0.000000 0.287225 0.823000
O O15 0.935854 0.334212 0.000000
O O16 0.812204 0.744872 0.000000
O O17 0.000000 0.073089 0.221307
O O18 0.925572 0.000000 0.217505
O O19 0.936461 0.061114 0.000000
#
# Coordination Sequence:
#
# PCOD9486018 Si02
#       7
#     8  16  16  16  16  16  16
#     4  11  23  37  55  79 103 129 166 211 258 303
#     4  10  21  36  52  72 102 139 174 211 256 306
#     4  10  21  36  52  71  98 134 173 212 254 301
#     4  10  19  31  52  80 105 133 173 215 256 307
#     4   9  17  30  48  70  99 133 168 209 259 311
#     4   9  18  31  48  73 105 137 170 213 259 306
#     4   8  15  30  52  78 108 137 167 210 261 312
#
# _framework density 17.948786999999999
#
# number of rings (size 3 to 8) (size 9 to 14) (size 15 to 20)
#    0.000    2.538    0.000    2.538    0.000    7.692 
#    1.385    3.077    0.000    0.462    0.000    3.231 
#    0.000    0.000    0.000    0.000    0.000    0.000 
#
# Total GULP energy -289636.172882 kJ/mol
# GULP energy per Si atom -5569.926402 kJ/mol
# Density = 1.790793 g / cm^3
# Si number density = 17.948787 Si / 1000 Ang^3
#
#
#
# Elastic Constant Matrix: (Units=GPa)
#
#
# Indices 1 2 3 4 5 6 
#
# 1 133.7123 46.7070 32.2600 0.0000 0.0000 0.0000
# 2 46.7070 73.0423 27.6824 0.0000 0.0000 0.0000
# 3 32.2600 27.6824 41.1979 0.0000 0.0000 0.0000
# 4 0.0000 0.0000 0.0000 15.5470 0.0000 0.0000
# 5 0.0000 0.0000 0.0000 0.0000 18.1774 0.0000
# 6 0.0000 0.0000 0.0000 0.0000 0.0000 23.0766
#
#
#
# Elastic Compliance Matrix: (Units=1/GPa)
#
#
# Indices 1 2 3 4 5 6 
#
# 1 0.010315 -0.004743 -0.004891 0.000000 0.000000 0.000000
# 2 -0.004743 0.020549 -0.010094 0.000000 0.000000 0.000000
# 3 -0.004891 -0.010094 0.034885 0.000000 0.000000 0.000000
# 4 0.000000 0.000000 0.000000 0.064321 0.000000 0.000000
# 5 0.000000 0.000000 0.000000 0.000000 0.055013 0.000000
# 6 0.000000 0.000000 0.000000 0.000000 0.000000 0.043334
#
#
# Mechanical properties :
#
#
# Convention : Reuss Voigt Hill
#
# Bulk Modulus (GPa) = 38.02994 51.25017 44.64006
# Shear Modulus (GPa) = 18.07422 20.78040 19.42731
#
# Velocity S-wave (km/s) = 3.17675 3.40628 3.29352
# Velocity P-wave (km/s) = 5.88979 6.63972 6.27597
#
# Compressibility (1/GPa) = 0.02629507
#
# Stress axis : x y z
#
# Youngs Moduli (GPa) = 96.94300 48.66453 28.66549
#
# Poissons Ratio (x) = 0.23080 0.14019
# Poissons Ratio (y) = 0.45977 0.28934
# Poissons Ratio (z) = 0.47412 0.49121
#
# Static dielectric constant tensor:
#      x y z
#    x 1.630120 0.000000 0.000000 
#    y 0.000000 1.376150 0.000000 
#    z 0.000000 0.000000 1.610630 
# 
# From -- ./inp_files/14718.got.cif
#   From: 2010.05.17/outbox.cif.g08.bks.cpg/sg65_8_cif.got.tgz:14718.got - 2010.06.03 17:01:31.
