data_PCOD9486917
_publ_section_title
;
Structure prediction by ZEFSAII (Michael W. Deem and Ramdas Pophale) SiO2 
 PCOD9486917
Probable space group: C M M M
;
_chemical_formula_sum "Si O2"
_cell_formula_units_Z 56
_cell_length_a 13.994158
_cell_length_b 13.856032
_cell_length_c 14.139873
_cell_angle_alpha 90.000000
_cell_angle_beta 90.000000
_cell_angle_gamma 90.000000
_cell_volume 2741.770879
_symmetry_space_group_name_H-M "C M M M"
_symmetry_group_IT_number 65
_symmetry_cell_setting 'orthorhombic'
loop_
_space_group_symop_operation_xyz
x,y,z
-x,-y,z
x,-y,-z
-x,y,-z
-x,-y,-z
x,y,-z
-x,y,z
x,-y,z
1/2+x,1/2+y,z
1/2-x,1/2-y,z
1/2+x,1/2-y,-z
1/2-x,1/2+y,-z
1/2-x,1/2-y,-z
1/2+x,1/2+y,-z
1/2-x,1/2+y,z
1/2+x,1/2-y,z
loop_
_atom_site_type_symbol
_atom_site_label
_atom_site_fract_x
_atom_site_fract_y
_atom_site_fract_z
Si Si1 0.688580 0.884363 0.221313
Si Si2 0.604139 0.384857 0.762590
Si Si3 0.000000 0.381870 0.108621
Si Si4 0.109604 0.726500 0.391137
O O1 0.795656 0.858370 0.187200
O O2 0.597114 0.850338 0.161184
O O3 0.673338 0.842228 0.326067
O O4 0.683397 0.000000 0.223613
O O5 0.500000 0.361466 0.806635
O O6 0.606207 0.500000 0.749090
O O7 0.607738 0.328573 0.663166
O O8 0.000000 0.500000 0.109965
O O9 0.000000 0.351349 0.000000
O O10 0.137980 0.733095 0.500000
O O11 0.000000 0.689397 0.387786
#
# Coordination Sequence:
#
# PCOD9486917 Si02
#       4
#    16  16   8  16
#     4  10  19  33  54  79 107 137 172 218 266 315
#     4   9  19  34  51  73 102 144 186 216 250 297
#     4   9  18  34  57  83 106 131 169 217 273 328
#     4  10  20  33  51  77 109 145 180 216 260 310
#
# _framework density 20.424755000000001
#
# number of rings (size 3 to 8) (size 9 to 14) (size 15 to 20)
#    0.000    2.429    1.429    0.857    0.000    3.429 
#    0.000    7.143    0.000    4.286    0.000    6.000 
#    0.000    0.000    0.000    0.000    0.000    0.000 
#
# Total GULP energy -156054.977159 kJ/mol
# GULP energy per Si atom -5573.392041 kJ/mol
# Density = 2.037827 g / cm^3
# Si number density = 20.424755 Si / 1000 Ang^3
#
#
#
# Elastic Constant Matrix: (Units=GPa)
#
#
# Indices 1 2 3 4 5 6 
#
# 1 236.3371 37.2198 47.3247 0.0000 0.0000 0.0000
# 2 37.2198 50.1983 4.6797 0.0000 0.0000 0.0000
# 3 47.3247 4.6797 42.0812 0.0000 0.0000 0.0000
# 4 0.0000 0.0000 0.0000 8.4648 0.0000 0.0000
# 5 0.0000 0.0000 0.0000 0.0000 5.9222 0.0000
# 6 0.0000 0.0000 0.0000 0.0000 0.0000 30.9575
#
#
#
# Elastic Compliance Matrix: (Units=1/GPa)
#
#
# Indices 1 2 3 4 5 6 
#
# 1 0.006152 -0.003957 -0.006478 0.000000 0.000000 0.000000
# 2 -0.003957 0.022675 0.001929 0.000000 0.000000 0.000000
# 3 -0.006478 0.001929 0.030834 0.000000 0.000000 0.000000
# 4 0.000000 0.000000 0.000000 0.118136 0.000000 0.000000
# 5 0.000000 0.000000 0.000000 0.000000 0.168855 0.000000
# 6 0.000000 0.000000 0.000000 0.000000 0.000000 0.032302
#
#
# Mechanical properties :
#
#
# Convention : Reuss Voigt Hill
#
# Bulk Modulus (GPa) = 23.44770 56.34054 39.89412
# Shear Modulus (GPa) = 12.18965 25.02840 18.60903
#
# Velocity S-wave (km/s) = 2.44561 3.50436 3.02172
# Velocity P-wave (km/s) = 4.41358 6.63464 5.63463
#
# Compressibility (1/GPa) = 0.04264810
#
# Stress axis : x y z
#
# Youngs Moduli (GPa) = 162.55808 44.10076 32.43135
#
# Poissons Ratio (x) = 0.17452 0.21009
# Poissons Ratio (y) = 0.64329 -0.06255
# Poissons Ratio (z) = 1.05307 -0.08506
#
# Static dielectric constant tensor:
#      x y z
#    x 1.857470 0.000000 0.000000 
#    y 0.000000 1.728000 0.000000 
#    z 0.000000 0.000000 1.653030 
# 
# From -- ./inp_files/23529.got.cif
#   From: 2010.05.17/outbox.cif.g08.bks.cpg/sg65_12_cif.got.tgz:23529.got - 2010.06.03 17:01:31.
