data_PCOD9486677
_publ_section_title
;
Structure prediction by ZEFSAII (Michael W. Deem and Ramdas Pophale) SiO2 
 PCOD9486677
Probable space group: C M M M
;
_chemical_formula_sum "Si O2"
_cell_formula_units_Z 88
_cell_length_a 17.682440
_cell_length_b 15.583691
_cell_length_c 18.210174
_cell_angle_alpha 90.000000
_cell_angle_beta 90.000000
_cell_angle_gamma 90.000000
_cell_volume 5017.953320
_symmetry_space_group_name_H-M "C M M M"
_symmetry_group_IT_number 65
_symmetry_cell_setting 'orthorhombic'
loop_
_space_group_symop_operation_xyz
x,y,z
-x,-y,z
x,-y,-z
-x,y,-z
-x,-y,-z
x,y,-z
-x,y,z
x,-y,z
1/2+x,1/2+y,z
1/2-x,1/2-y,z
1/2+x,1/2-y,-z
1/2-x,1/2+y,-z
1/2-x,1/2-y,-z
1/2+x,1/2+y,-z
1/2-x,1/2+y,z
1/2+x,1/2-y,z
loop_
_atom_site_type_symbol
_atom_site_label
_atom_site_fract_x
_atom_site_fract_y
_atom_site_fract_z
Si Si1 0.260780 0.000000 0.237558
Si Si2 0.175667 0.000000 0.913377
Si Si3 0.908826 0.169973 0.858509
Si Si4 0.089169 0.898838 0.413044
Si Si5 0.591170 0.851194 0.078902
Si Si6 0.186375 0.176041 0.288268
Si Si7 0.911558 0.500000 0.807440
O O1 0.240674 0.000000 0.149663
O O2 0.225569 0.085584 0.270083
O O3 0.349657 0.000000 0.254953
O O4 0.126165 0.915364 0.894307
O O5 0.196472 0.000000 0.000000
O O6 0.886329 0.254075 0.904831
O O7 0.873609 0.186604 0.778174
O O8 0.000000 0.163486 0.855392
O O9 0.101720 0.887228 0.500000
O O10 0.140606 0.838021 0.363441
O O11 0.000000 0.884185 0.398265
O O12 0.103731 0.000000 0.396012
O O13 0.500000 0.851405 0.074684
O O14 0.606832 0.916405 0.143857
O O15 0.621351 0.880435 0.000000
O O16 0.250000 0.250000 0.289366
O O17 0.000000 0.500000 0.788534
#
# Coordination Sequence:
#
# PCOD9486677 Si02
#       7
#     8   8  16  16  16  16   8
#     4  10  22  37  49  74 107 141 178 225 277 329
#     4  10  21  34  50  74 104 136 173 227 294 348
#     4  10  20  33  50  73 102 139 178 219 268 325
#     4   9  18  35  61  90 116 142 176 219 265 315
#     4   9  17  29  46  68  91 119 167 225 267 301
#     4  11  21  35  54  79 114 147 177 215 268 326
#     4  10  19  33  52  68  88 128 183 232 269 308
#
# _framework density 17.537029
#
# number of rings (size 3 to 8) (size 9 to 14) (size 15 to 20)
#    0.000    2.182    0.909    3.273    0.000    3.636 
#    0.000    0.909    0.000    6.000    0.000    0.000 
#    0.000    2.182    0.000    0.000    0.000    0.000 
#
# Total GULP energy -245302.824570 kJ/mol
# GULP energy per Si atom -5575.064195 kJ/mol
# Density = 1.749711 g / cm^3
# Si number density = 17.537029 Si / 1000 Ang^3
#
#
#
# Elastic Constant Matrix: (Units=GPa)
#
#
# Indices 1 2 3 4 5 6 
#
# 1 77.4933 26.5597 33.1150 0.0000 0.0000 0.0000
# 2 26.5597 78.9466 16.6995 0.0000 0.0000 0.0000
# 3 33.1150 16.6995 70.2237 0.0000 0.0000 0.0000
# 4 0.0000 0.0000 0.0000 -1.0441 0.0000 0.0000
# 5 0.0000 0.0000 0.0000 0.0000 9.6690 0.0000
# 6 0.0000 0.0000 0.0000 0.0000 0.0000 30.7795
#
#
#
# Elastic Compliance Matrix: (Units=1/GPa)
#
#
# Indices 1 2 3 4 5 6 
#
# 1 0.017476 -0.004355 -0.007205 0.000000 0.000000 0.000000
# 2 -0.004355 0.014423 -0.001376 0.000000 0.000000 0.000000
# 3 -0.007205 -0.001376 0.017965 0.000000 0.000000 0.000000
# 4 0.000000 0.000000 0.000000 -0.957765 0.000000 0.000000
# 5 0.000000 0.000000 0.000000 0.000000 0.103423 0.000000
# 6 0.000000 0.000000 0.000000 0.000000 0.000000 0.032489
#
#
# Mechanical properties :
#
#
# Convention : Reuss Voigt Hill
#
# Bulk Modulus (GPa) = 41.68242 42.15691 41.91967
# Shear Modulus (GPa) = -6.77399 17.90016 5.56309
#
# Velocity S-wave (km/s) = -1.96750 3.19832 1.78300
# Velocity P-wave (km/s) = 4.31954 6.14247 5.30982
#
# Compressibility (1/GPa) = 0.02399093
#
# Stress axis : x y z
#
# Youngs Moduli (GPa) = 57.22090 69.33319 55.66299
#
# Poissons Ratio (x) = 0.30197 0.40108
# Poissons Ratio (y) = 0.24921 0.07660
# Poissons Ratio (z) = 0.41230 0.09541
#
# Static dielectric constant tensor:
#      x y z
#    x 1.594140 0.000000 0.000000 
#    y 0.000000 1.599610 0.000000 
#    z 0.000000 0.000000 1.604240 
# 
# From -- ./inp_files/54349.got.cif
#   From: 2010.05.17/outbox.cif.g08.bks.cpg/sg65_28_cif.got.tgz:54349.got - 2010.06.03 17:01:31.
