data_PCOD9486151
_publ_section_title
;
Structure prediction by ZEFSAII (Michael W. Deem and Ramdas Pophale) SiO2 
 PCOD9486151
Probable space group: C M M M
;
_chemical_formula_sum "Si O2"
_cell_formula_units_Z 128
_cell_length_a 20.274237
_cell_length_b 19.526566
_cell_length_c 17.708748
_cell_angle_alpha 90.000000
_cell_angle_beta 90.000000
_cell_angle_gamma 90.000000
_cell_volume 7010.649428
_symmetry_space_group_name_H-M "C M M M"
_symmetry_group_IT_number 65
_symmetry_cell_setting 'orthorhombic'
loop_
_space_group_symop_operation_xyz
x,y,z
-x,-y,z
x,-y,-z
-x,y,-z
-x,-y,-z
x,y,-z
-x,y,z
x,-y,z
1/2+x,1/2+y,z
1/2-x,1/2-y,z
1/2+x,1/2-y,-z
1/2-x,1/2+y,-z
1/2-x,1/2-y,-z
1/2+x,1/2+y,-z
1/2-x,1/2+y,z
1/2+x,1/2-y,z
loop_
_atom_site_type_symbol
_atom_site_label
_atom_site_fract_x
_atom_site_fract_y
_atom_site_fract_z
Si Si1 0.657332 0.580428 0.580650
Si Si2 0.213163 0.676050 0.211160
Si Si3 0.718541 0.418060 0.913883
Si Si4 0.573345 0.217555 0.255672
Si Si5 0.924669 0.644147 0.586679
Si Si6 0.072971 0.875645 0.282090
Si Si7 0.295601 0.077803 0.353756
Si Si8 0.927320 0.078110 0.882490
O O1 0.635193 0.609041 0.500000
O O2 0.639808 0.500000 0.583668
O O3 0.625468 0.614210 0.653191
O O4 0.736028 0.584543 0.587574
O O5 0.250000 0.750000 0.214606
O O6 0.241674 0.629300 0.144085
O O7 0.134252 0.688038 0.208892
O O8 0.220161 0.632127 0.288051
O O9 0.720095 0.500000 0.893683
O O10 0.641783 0.393880 0.912100
O O11 0.742548 0.412018 0.000000
O O12 0.500000 0.193776 0.232685
O O13 0.580336 0.199063 0.345089
O O14 0.576161 0.298978 0.250714
O O15 0.915765 0.668780 0.500000
O O16 0.865948 0.592531 0.607778
O O17 0.000000 0.616469 0.591023
O O18 0.080636 0.921763 0.208285
O O19 0.000000 0.887722 0.314431
O O20 0.294417 0.000000 0.323671
O O21 0.000000 0.109416 0.898871
O O22 0.930105 0.000000 0.909567
#
# Coordination Sequence:
#
# PCOD9486151 Si02
#       8
#    16  16  16  16  16  16  16  16
#     4  10  20  31  43  64  97 134 172 215 258 301
#     4  11  21  35  57  81 104 134 173 213 253 303
#     4  10  21  36  55  82 114 142 168 204 252 303
#     4   9  19  34  51  72  99 133 172 214 261 311
#     4   9  18  32  49  71  99 128 164 216 272 319
#     4  10  19  32  50  69  93 130 174 215 254 300
#     4  10  20  34  52  73  99 133 171 211 259 310
#     4   9  17  30  50  75 103 137 174 210 249 295
#
# _framework density 18.257937999999999
#
# number of rings (size 3 to 8) (size 9 to 14) (size 15 to 20)
#    0.000    2.250    0.000    3.375    0.000    5.000 
#    0.000    3.750    0.000    5.625    0.000    0.875 
#    0.000    0.000    0.000    0.000    0.000    0.000 
#
# Total GULP energy -356473.535421 kJ/mol
# GULP energy per Si atom -5569.898991 kJ/mol
# Density = 1.821638 g / cm^3
# Si number density = 18.257938 Si / 1000 Ang^3
#
#
#
# Elastic Constant Matrix: (Units=GPa)
#
#
# Indices 1 2 3 4 5 6 
#
# 1 120.1481 34.2955 56.1811 0.0000 0.0000 0.0000
# 2 34.2955 64.9686 32.6341 0.0000 0.0000 0.0000
# 3 56.1811 32.6341 80.6839 0.0000 0.0000 0.0000
# 4 0.0000 0.0000 0.0000 -0.3002 0.0000 0.0000
# 5 0.0000 0.0000 0.0000 0.0000 7.4375 0.0000
# 6 0.0000 0.0000 0.0000 0.0000 0.0000 22.1086
#
#
#
# Elastic Compliance Matrix: (Units=1/GPa)
#
#
# Indices 1 2 3 4 5 6 
#
# 1 0.012748 -0.002850 -0.007724 0.000000 0.000000 0.000000
# 2 -0.002850 0.019953 -0.006086 0.000000 0.000000 0.000000
# 3 -0.007724 -0.006086 0.020234 0.000000 0.000000 0.000000
# 4 0.000000 0.000000 0.000000 -3.331296 0.000000 0.000000
# 5 0.000000 0.000000 0.000000 0.000000 0.134454 0.000000
# 6 0.000000 0.000000 0.000000 0.000000 0.000000 0.045231
#
#
# Mechanical properties :
#
#
# Convention : Reuss Voigt Hill
#
# Bulk Modulus (GPa) = 50.97957 56.89131 53.93544
# Shear Modulus (GPa) = -1.63462 15.36186 6.86362
#
# Velocity S-wave (km/s) = -0.94723 2.90380 1.94098
# Velocity P-wave (km/s) = 5.17554 6.51691 5.88457
#
# Compressibility (1/GPa) = 0.01961570
#
# Stress axis : x y z
#
# Youngs Moduli (GPa) = 78.44192 50.11655 49.42132
#
# Poissons Ratio (x) = 0.14281 0.38174
# Poissons Ratio (y) = 0.22353 0.30079
# Poissons Ratio (z) = 0.60590 0.30502
#
# Static dielectric constant tensor:
#      x y z
#    x 1.674180 0.000000 0.000000 
#    y 0.000000 1.633610 0.000000 
#    z 0.000000 0.000000 1.628540 
# 
# From -- ./inp_files/56227.got.cif
#   From: 2010.05.17/outbox.cif.g08.bks.cpg/sg65_29_cif.got.tgz:56227.got - 2010.06.03 17:01:31.
