data_PCOD9486283
_publ_section_title
;
Structure prediction by ZEFSAII (Michael W. Deem and Ramdas Pophale) SiO2 
 PCOD9486283
Probable space group: C M M M
;
_chemical_formula_sum "Si O2"
_cell_formula_units_Z 112
_cell_length_a 13.458483
_cell_length_b 27.395780
_cell_length_c 16.117407
_cell_angle_alpha 90.000000
_cell_angle_beta 90.000000
_cell_angle_gamma 90.000000
_cell_volume 5942.578853
_symmetry_space_group_name_H-M "C M M M"
_symmetry_group_IT_number 65
_symmetry_cell_setting 'orthorhombic'
loop_
_space_group_symop_operation_xyz
x,y,z
-x,-y,z
x,-y,-z
-x,y,-z
-x,-y,-z
x,y,-z
-x,y,z
x,-y,z
1/2+x,1/2+y,z
1/2-x,1/2-y,z
1/2+x,1/2-y,-z
1/2-x,1/2+y,-z
1/2-x,1/2-y,-z
1/2+x,1/2+y,-z
1/2-x,1/2+y,z
1/2+x,1/2-y,z
loop_
_atom_site_type_symbol
_atom_site_label
_atom_site_fract_x
_atom_site_fract_y
_atom_site_fract_z
Si Si1 0.389261 0.942803 0.672448
Si Si2 0.303956 0.557800 0.907310
Si Si3 0.888596 0.881240 0.241454
Si Si4 0.709122 0.804008 0.228616
Si Si5 0.696791 0.403005 0.590277
Si Si6 0.194896 0.698251 0.588534
Si Si7 0.887224 0.611315 0.150104
O O1 0.500000 0.933268 0.638428
O O2 0.301534 0.928851 0.610601
O O3 0.378536 0.912086 0.757067
O O4 0.382477 0.000000 0.693182
O O5 0.294951 0.500000 0.893269
O O6 0.367640 0.582685 0.834982
O O7 0.195611 0.582963 0.901557
O O8 0.344736 0.565676 0.000000
O O9 0.806204 0.838778 0.236073
O O10 0.870948 0.908687 0.329024
O O11 0.000000 0.861863 0.238433
O O12 0.750000 0.750000 0.210867
O O13 0.652060 0.804574 0.318207
O O14 0.641783 0.831914 0.161717
O O15 0.657955 0.417932 0.500000
O O16 0.725909 0.345747 0.586241
O O17 0.137763 0.694366 0.500000
O O18 0.250000 0.750000 0.587675
O O19 0.000000 0.604922 0.121668
#
# Coordination Sequence:
#
# PCOD9486283 Si02
#       7
#    16  16  16  16  16  16  16
#     4  10  19  32  51  74 104 143 184 225 272 325
#     4  10  21  38  61  87 111 139 179 225 278 334
#     4  10  21  37  55  80 112 146 184 228 279 326
#     4   9  17  32  53  79 109 143 184 227 272 325
#     4  10  19  33  52  75 106 145 189 231 271 323
#     4   8  13  24  44  67  94 131 173 221 274 316
#     4  10  19  33  54  83 114 143 176 218 273 333
#
# _framework density 18.847037
#
# number of rings (size 3 to 8) (size 9 to 14) (size 15 to 20)
#    0.000    2.429    4.286    0.429    0.000    3.143 
#    0.000    2.143    0.000    7.286    0.000   18.000 
#    0.000    0.000    0.000    0.000    0.000    0.000 
#
# Total GULP energy -311757.148067 kJ/mol
# GULP energy per Si atom -5567.091930 kJ/mol
# Density = 1.880414 g / cm^3
# Si number density = 18.847037 Si / 1000 Ang^3
#
#
#
# Elastic Constant Matrix: (Units=GPa)
#
#
# Indices 1 2 3 4 5 6 
#
# 1 57.6259 4.8825 4.5602 0.0000 0.0000 0.0000
# 2 4.8825 80.7333 33.5878 0.0000 0.0000 0.0000
# 3 4.5602 33.5878 75.2684 0.0000 0.0000 0.0000
# 4 0.0000 0.0000 0.0000 24.6853 0.0000 0.0000
# 5 0.0000 0.0000 0.0000 0.0000 0.4360 0.0000
# 6 0.0000 0.0000 0.0000 0.0000 0.0000 9.1572
#
#
#
# Elastic Compliance Matrix: (Units=1/GPa)
#
#
# Indices 1 2 3 4 5 6 
#
# 1 0.017474 -0.000757 -0.000721 0.000000 0.000000 0.000000
# 2 -0.000757 0.015243 -0.006756 0.000000 0.000000 0.000000
# 3 -0.000721 -0.006756 0.016344 0.000000 0.000000 0.000000
# 4 0.000000 0.000000 0.000000 0.040510 0.000000 0.000000
# 5 0.000000 0.000000 0.000000 0.000000 2.293777 0.000000
# 6 0.000000 0.000000 0.000000 0.000000 0.000000 0.109204
#
#
# Mechanical properties :
#
#
# Convention : Reuss Voigt Hill
#
# Bulk Modulus (GPa) = 30.68065 33.29872 31.98968
# Shear Modulus (GPa) = 1.98422 18.22882 10.10652
#
# Velocity S-wave (km/s) = 1.02717 3.11336 2.31820
# Velocity P-wave (km/s) = 4.20962 5.53446 4.91686
#
# Compressibility (1/GPa) = 0.03259384
#
# Stress axis : x y z
#
# Youngs Moduli (GPa) = 57.22633 65.60365 61.18316
#
# Poissons Ratio (x) = 0.04965 0.04411
# Poissons Ratio (y) = 0.04331 0.41337
# Poissons Ratio (z) = 0.04126 0.44323
#
# Static dielectric constant tensor:
#      x y z
#    x 1.648430 0.000000 0.000000 
#    y 0.000000 1.653000 0.000000 
#    z 0.000000 0.000000 1.718890 
# 
# From -- ./inp_files/41322.got.cif
#   From: 2010.05.17/outbox.cif.g08.bks.cpg/sg65_21_cif.got.tgz:41322.got - 2010.06.03 17:01:31.
