data_PCOD9486023
_publ_section_title
;
Structure prediction by ZEFSAII (Michael W. Deem and Ramdas Pophale) SiO2 
 PCOD9486023
Probable space group: C M M M
;
_chemical_formula_sum "Si O2"
_cell_formula_units_Z 120
_cell_length_a 21.950721
_cell_length_b 14.218448
_cell_length_c 22.288479
_cell_angle_alpha 90.000000
_cell_angle_beta 90.000000
_cell_angle_gamma 90.000000
_cell_volume 6956.349864
_symmetry_space_group_name_H-M "C M M M"
_symmetry_group_IT_number 65
_symmetry_cell_setting 'orthorhombic'
loop_
_space_group_symop_operation_xyz
x,y,z
-x,-y,z
x,-y,-z
-x,y,-z
-x,-y,-z
x,y,-z
-x,y,z
x,-y,z
1/2+x,1/2+y,z
1/2-x,1/2-y,z
1/2+x,1/2-y,-z
1/2-x,1/2+y,-z
1/2-x,1/2-y,-z
1/2+x,1/2+y,-z
1/2-x,1/2+y,z
1/2+x,1/2-y,z
loop_
_atom_site_type_symbol
_atom_site_label
_atom_site_fract_x
_atom_site_fract_y
_atom_site_fract_z
Si Si1 0.779277 0.612400 0.799724
Si Si2 0.372617 0.197708 0.432001
Si Si3 0.000000 0.392579 0.572757
Si Si4 0.361296 0.395218 0.611724
Si Si5 0.152321 0.791568 0.832728
Si Si6 0.429099 0.610371 0.071635
Si Si7 0.222640 0.608762 0.342193
Si Si8 0.572023 0.392324 0.262738
O O1 0.787285 0.500000 0.808053
O O2 0.828122 0.682523 0.829764
O O3 0.713685 0.646816 0.823802
O O4 0.780961 0.633340 0.728066
O O5 0.360662 0.162860 0.500000
O O6 0.437463 0.158037 0.410028
O O7 0.374736 0.310020 0.431839
O O8 0.320461 0.167531 0.385727
O O9 0.000000 0.500000 0.593804
O O10 0.000000 0.392774 0.500000
O O11 0.367708 0.500000 0.586270
O O12 0.292469 0.385292 0.636680
O O13 0.405280 0.386167 0.669109
O O14 0.116418 0.824250 0.891683
O O15 0.108662 0.819791 0.777701
O O16 0.500000 0.628666 0.087836
O O17 0.417262 0.500000 0.085329
O O18 0.423281 0.622007 0.000000
O O19 0.203584 0.500000 0.347936
O O20 0.500000 0.378588 0.258519
O O21 0.586058 0.500000 0.242499
#
# Coordination Sequence:
#
# PCOD9486023 Si02
#       8
#    16  16   8  16  16  16  16  16
#     4  10  21  35  52  79 111 145 181 224 277 325
#     4  11  23  37  56  79 102 135 178 222 271 330
#     4   9  20  40  59  75  95 123 170 224 266 313
#     4  10  21  35  52  77 109 139 169 214 270 330
#     4  11  19  31  57  82 108 149 185 223 267 319
#     4   9  18  33  55  86 121 151 184 230 274 309
#     4  10  20  36  57  78 106 138 174 224 279 327
#     4  10  19  31  52  81 106 134 177 224 269 322
#
# _framework density 17.250426999999998
#
# number of rings (size 3 to 8) (size 9 to 14) (size 15 to 20)
#    0.000    1.933    1.333    3.600    2.800    3.200 
#    0.000    2.667    0.000    4.000    0.000    0.933 
#    0.000    0.000    0.000    0.000    0.000    0.000 
#
# Total GULP energy -334880.046056 kJ/mol
# GULP energy per Si atom -5581.334101 kJ/mol
# Density = 1.721116 g / cm^3
# Si number density = 17.250427 Si / 1000 Ang^3
#
#
#
# Elastic Constant Matrix: (Units=GPa)
#
#
# Indices 1 2 3 4 5 6 
#
# 1 76.7991 55.6915 30.8799 0.0000 0.0000 0.0000
# 2 55.6915 117.8839 39.8959 0.0000 0.0000 0.0000
# 3 30.8799 39.8959 57.8270 0.0000 0.0000 0.0000
# 4 0.0000 0.0000 0.0000 21.3859 0.0000 0.0000
# 5 0.0000 0.0000 0.0000 0.0000 23.9220 0.0000
# 6 0.0000 0.0000 0.0000 0.0000 0.0000 26.3252
#
#
#
# Elastic Compliance Matrix: (Units=1/GPa)
#
#
# Indices 1 2 3 4 5 6 
#
# 1 0.021176 -0.008059 -0.005748 0.000000 0.000000 0.000000
# 2 -0.008059 0.014134 -0.005448 0.000000 0.000000 0.000000
# 3 -0.005748 -0.005448 0.024121 0.000000 0.000000 0.000000
# 4 0.000000 0.000000 0.000000 0.046760 0.000000 0.000000
# 5 0.000000 0.000000 0.000000 0.000000 0.041803 0.000000
# 6 0.000000 0.000000 0.000000 0.000000 0.000000 0.037986
#
#
# Mechanical properties :
#
#
# Convention : Reuss Voigt Hill
#
# Bulk Modulus (GPa) = 47.79786 56.16053 51.97919
# Shear Modulus (GPa) = 21.60168 22.72944 22.16556
#
# Velocity S-wave (km/s) = 3.54254 3.63384 3.58848
# Velocity P-wave (km/s) = 6.67092 7.08753 6.88238
#
# Compressibility (1/GPa) = 0.02092144
#
# Stress axis : x y z
#
# Youngs Moduli (GPa) = 47.22284 70.75235 41.45751
#
# Poissons Ratio (x) = 0.57018 0.23831
# Poissons Ratio (y) = 0.38056 0.22585
# Poissons Ratio (z) = 0.27145 0.38544
#
# Static dielectric constant tensor:
#      x y z
#    x 1.568690 0.000000 0.000000 
#    y 0.000000 1.605080 0.000000 
#    z 0.000000 0.000000 1.579920 
# 
# From -- ./inp_files/64754.got.cif
#   From: 2010.05.17/outbox.cif.g08.bks.cpg/sg65_33_cif.got.tgz:64754.got - 2010.06.03 17:01:31.
