data_PCOD9486985
_publ_section_title
;
Structure prediction by ZEFSAII (Michael W. Deem and Ramdas Pophale) SiO2 
 PCOD9486985
Probable space group: C M M M
;
_chemical_formula_sum "Si O2"
_cell_formula_units_Z 80
_cell_length_a 8.430245
_cell_length_b 18.654805
_cell_length_c 27.168627
_cell_angle_alpha 90.000000
_cell_angle_beta 90.000000
_cell_angle_gamma 90.000000
_cell_volume 4272.662621
_symmetry_space_group_name_H-M "C M M M"
_symmetry_group_IT_number 65
_symmetry_cell_setting 'orthorhombic'
loop_
_space_group_symop_operation_xyz
x,y,z
-x,-y,z
x,-y,-z
-x,y,-z
-x,-y,-z
x,y,-z
-x,y,z
x,-y,z
1/2+x,1/2+y,z
1/2-x,1/2-y,z
1/2+x,1/2-y,-z
1/2-x,1/2+y,-z
1/2-x,1/2-y,-z
1/2+x,1/2+y,-z
1/2-x,1/2+y,z
1/2+x,1/2-y,z
loop_
_atom_site_type_symbol
_atom_site_label
_atom_site_fract_x
_atom_site_fract_y
_atom_site_fract_z
Si Si1 0.689769 0.418201 0.000000
Si Si2 0.692197 0.082649 0.594805
Si Si3 0.807960 0.331961 0.691238
Si Si4 0.191320 0.332034 0.798660
Si Si5 0.811280 0.831277 0.500000
Si Si6 0.190485 0.331916 0.093976
O O1 0.747260 0.377575 0.951327
O O2 0.747880 0.500000 0.000000
O O3 0.500000 0.418196 0.000000
O O4 0.500000 0.083348 0.594323
O O5 0.745651 0.120281 0.645442
O O6 0.750962 0.127350 0.548240
O O7 0.743943 0.000000 0.592052
O O8 0.750000 0.250000 0.685946
O O9 0.756975 0.360972 0.745268
O O10 0.000000 0.330770 0.690649
O O11 0.250000 0.250000 0.798606
O O12 0.242422 0.361322 0.851988
O O13 0.000000 0.333129 0.798740
O O14 0.750000 0.750000 0.500000
O O15 0.000000 0.830432 0.500000
O O16 0.250000 0.250000 0.089665
O O17 0.000000 0.331093 0.092531
#
# Coordination Sequence:
#
# PCOD9486985 Si02
#       6
#     8  16  16  16   8  16
#     4  11  24  39  52  69  99 137 174 215 264 315
#     4  10  21  37  56  79 110 145 177 212 257 308
#     4   9  17  31  52  78 106 137 173 211 253 301
#     4   8  15  28  48  76 105 132 166 209 254 299
#     4  12  25  40  59  81 105 135 175 222 267 312
#     4  10  19  33  55  80 105 134 171 214 258 307
#
# _framework density 18.723687999999999
#
# number of rings (size 3 to 8) (size 9 to 14) (size 15 to 20)
#    0.000    2.300    0.000    3.000    0.000    5.600 
#    0.000    1.000    0.000    3.600    0.000    0.000 
#    0.000    0.000    0.000    0.000    0.000    0.000 
#
# Total GULP energy -223048.052747 kJ/mol
# GULP energy per Si atom -5576.201319 kJ/mol
# Density = 1.868107 g / cm^3
# Si number density = 18.723688 Si / 1000 Ang^3
#
#
#
# Elastic Constant Matrix: (Units=GPa)
#
#
# Indices 1 2 3 4 5 6 
#
# 1 23.5358 21.1307 32.5374 0.0000 0.0000 0.0000
# 2 21.1307 114.6143 105.1264 0.0000 0.0000 0.0000
# 3 32.5374 105.1264 247.6360 0.0000 0.0000 0.0000
# 4 0.0000 0.0000 0.0000 -10.9650 0.0000 0.0000
# 5 0.0000 0.0000 0.0000 0.0000 280.3844 0.0000
# 6 0.0000 0.0000 0.0000 0.0000 0.0000 18.9806
#
#
#
# Elastic Compliance Matrix: (Units=1/GPa)
#
#
# Indices 1 2 3 4 5 6 
#
# 1 0.054067 -0.005653 -0.004704 0.000000 0.000000 0.000000
# 2 -0.005653 0.014880 -0.005574 0.000000 0.000000 0.000000
# 3 -0.004704 -0.005574 0.007022 0.000000 0.000000 0.000000
# 4 0.000000 0.000000 0.000000 -0.091200 0.000000 0.000000
# 5 0.000000 0.000000 0.000000 0.000000 0.003567 0.000000
# 6 0.000000 0.000000 0.000000 0.000000 0.000000 0.052685
#
#
# Mechanical properties :
#
#
# Convention : Reuss Voigt Hill
#
# Bulk Modulus (GPa) = 22.67228 78.15277 50.41252
# Shear Modulus (GPa) = 57.08637 72.81280 64.94958
#
# Velocity S-wave (km/s) = 5.52766 6.24279 5.89608
# Velocity P-wave (km/s) = 7.27153 9.68473 8.56356
#
# Compressibility (1/GPa) = 0.04410673
#
# Stress axis : x y z
#
# Youngs Moduli (GPa) = 18.49550 67.20565 142.39966
#
# Poissons Ratio (x) = 0.37994 0.66985
# Poissons Ratio (y) = 0.10456 0.79372
# Poissons Ratio (z) = 0.08700 0.37460
#
# Static dielectric constant tensor:
#      x y z
#    x 1.644120 0.000000 0.000000 
#    y 0.000000 1.601060 0.000000 
#    z 0.000000 0.000000 1.689690 
# 
# From -- ./inp_files/72878.got.cif
#   From: 2010.05.17/outbox.cif.g08.bks.cpg/sg65_37_cif.got.tgz:72878.got - 2010.06.03 17:01:31.
