data_PCOD9486358
_publ_section_title
;
Structure prediction by ZEFSAII (Michael W. Deem and Ramdas Pophale) SiO2 
 PCOD9486358
Probable space group: C M M M
;
_chemical_formula_sum "Si O2"
_cell_formula_units_Z 96
_cell_length_a 20.915322
_cell_length_b 26.754956
_cell_length_c 8.864458
_cell_angle_alpha 90.000000
_cell_angle_beta 90.000000
_cell_angle_gamma 90.000000
_cell_volume 4960.448931
_symmetry_space_group_name_H-M "C M M M"
_symmetry_group_IT_number 65
_symmetry_cell_setting 'orthorhombic'
loop_
_space_group_symop_operation_xyz
x,y,z
-x,-y,z
x,-y,-z
-x,y,-z
-x,-y,-z
x,y,-z
-x,y,z
x,-y,z
1/2+x,1/2+y,z
1/2-x,1/2-y,z
1/2+x,1/2-y,-z
1/2-x,1/2+y,-z
1/2-x,1/2-y,-z
1/2+x,1/2+y,-z
1/2-x,1/2+y,z
1/2+x,1/2-y,z
loop_
_atom_site_type_symbol
_atom_site_label
_atom_site_fract_x
_atom_site_fract_y
_atom_site_fract_z
Si Si1 0.568957 0.884849 0.179825
Si Si2 0.690563 0.607249 0.826267
Si Si3 0.286995 0.199057 0.837437
Si Si4 0.926329 0.834710 0.318387
Si Si5 0.405917 0.781202 0.326222
Si Si6 0.309284 0.058427 0.677534
O O1 0.500000 0.907370 0.230140
O O2 0.566204 0.826852 0.230641
O O3 0.633339 0.909699 0.246619
O O4 0.571975 0.889344 0.000000
O O5 0.736218 0.655689 0.824848
O O6 0.624775 0.627038 0.752598
O O7 0.738000 0.568800 0.742552
O O8 0.679596 0.592099 0.000000
O O9 0.250000 0.250000 0.848621
O O10 0.331665 0.205661 0.694460
O O11 0.322068 0.191952 0.000000
O O12 0.918424 0.835582 0.500000
O O13 0.916143 0.776050 0.272487
O O14 0.000000 0.847563 0.282559
O O15 0.426169 0.783835 0.500000
O O16 0.308652 0.070243 0.500000
O O17 0.324034 0.000000 0.698792
#
# Coordination Sequence:
#
# PCOD9486358 Si02
#       6
#    16  16  16  16  16  16
#     4  11  24  40  59  85 120 161 200 241 290 341
#     4  11  22  37  61  88 117 153 195 244 296 352
#     4  10  19  32  51  79 116 153 193 236 283 339
#     4  10  22  38  56  84 124 165 202 241 288 345
#     4  11  21  33  55  84 119 161 203 240 278 331
#     4  11  25  44  66  90 114 145 190 244 301 358
#
# _framework density 19.353086000000001
#
# number of rings (size 3 to 8) (size 9 to 14) (size 15 to 20)
#    0.000    1.333    3.333    2.500    0.000    5.667 
#    0.000    1.667    0.000    0.500    0.000    3.500 
#    0.000    0.000    0.000    0.000    0.000    0.000 
#
# Total GULP energy -267492.574667 kJ/mol
# GULP energy per Si atom -5572.761972 kJ/mol
# Density = 1.930904 g / cm^3
# Si number density = 19.353086 Si / 1000 Ang^3
#
#
#
# Elastic Constant Matrix: (Units=GPa)
#
#
# Indices 1 2 3 4 5 6 
#
# 1 146.8370 36.7883 60.3740 0.0000 0.0000 0.0000
# 2 36.7883 50.5697 29.7077 0.0000 0.0000 0.0000
# 3 60.3740 29.7077 82.6528 0.0000 0.0000 0.0000
# 4 0.0000 0.0000 0.0000 19.6703 0.0000 0.0000
# 5 0.0000 0.0000 0.0000 0.0000 16.6652 0.0000
# 6 0.0000 0.0000 0.0000 0.0000 0.0000 9.3463
#
#
#
# Elastic Compliance Matrix: (Units=1/GPa)
#
#
# Indices 1 2 3 4 5 6 
#
# 1 0.010306 -0.003898 -0.006127 0.000000 0.000000 0.000000
# 2 -0.003898 0.026542 -0.006693 0.000000 0.000000 0.000000
# 3 -0.006127 -0.006693 0.018980 0.000000 0.000000 0.000000
# 4 0.000000 0.000000 0.000000 0.050838 0.000000 0.000000
# 5 0.000000 0.000000 0.000000 0.000000 0.060005 0.000000
# 6 0.000000 0.000000 0.000000 0.000000 0.000000 0.106994
#
#
# Mechanical properties :
#
#
# Convention : Reuss Voigt Hill
#
# Bulk Modulus (GPa) = 44.65766 59.31105 51.98436
# Shear Modulus (GPa) = 15.89493 19.34898 17.62196
#
# Velocity S-wave (km/s) = 2.86896 3.16537 3.02081
# Velocity P-wave (km/s) = 5.83951 6.63873 6.25191
#
# Compressibility (1/GPa) = 0.02239257
#
# Stress axis : x y z
#
# Youngs Moduli (GPa) = 97.02990 37.67601 52.68749
#
# Poissons Ratio (x) = 0.14686 0.32282
# Poissons Ratio (y) = 0.37823 0.35262
# Poissons Ratio (z) = 0.59451 0.25215
#
# Static dielectric constant tensor:
#      x y z
#    x 1.727630 0.000000 0.000000 
#    y 0.000000 0.563450 0.000000 
#    z 0.000000 0.000000 1.726010 
# 
# From -- ./inp_files/12203.got.cif
#   From: 2010.05.17/outbox.cif.g08.bks.cpg/sg65_7_cif.got.tgz:12203.got - 2010.06.03 17:01:31.
