data_PCOD9486387
_publ_section_title
;
Structure prediction by ZEFSAII (Michael W. Deem and Ramdas Pophale) SiO2 
 PCOD9486387
Probable space group: C M M M
;
_chemical_formula_sum "Si O2"
_cell_formula_units_Z 112
_cell_length_a 17.724767
_cell_length_b 18.775010
_cell_length_c 19.771323
_cell_angle_alpha 90.000000
_cell_angle_beta 90.000000
_cell_angle_gamma 90.000000
_cell_volume 6579.553809
_symmetry_space_group_name_H-M "C M M M"
_symmetry_group_IT_number 65
_symmetry_cell_setting 'orthorhombic'
loop_
_space_group_symop_operation_xyz
x,y,z
-x,-y,z
x,-y,-z
-x,y,-z
-x,-y,-z
x,y,-z
-x,y,z
x,-y,z
1/2+x,1/2+y,z
1/2-x,1/2-y,z
1/2+x,1/2-y,-z
1/2-x,1/2+y,-z
1/2-x,1/2-y,-z
1/2+x,1/2+y,-z
1/2-x,1/2+y,z
1/2+x,1/2-y,z
loop_
_atom_site_type_symbol
_atom_site_label
_atom_site_fract_x
_atom_site_fract_y
_atom_site_fract_z
Si Si1 0.338134 0.228598 0.290770
Si Si2 0.089143 0.215670 0.576897
Si Si3 0.309566 0.582368 0.424111
Si Si4 0.793407 0.082343 0.848855
Si Si5 0.711786 0.080086 0.291251
Si Si6 0.314914 0.189016 0.077674
Si Si7 0.088796 0.205268 0.838151
O O1 0.250000 0.250000 0.282194
O O2 0.365448 0.242415 0.366397
O O3 0.344110 0.144659 0.276304
O O4 0.386022 0.274402 0.237968
O O5 0.104205 0.240246 0.500000
O O6 0.120327 0.135261 0.581939
O O7 0.000000 0.219145 0.588886
O O8 0.277043 0.593065 0.500000
O O9 0.332535 0.500000 0.418698
O O10 0.251852 0.595790 0.363012
O O11 0.772805 0.081683 0.769152
O O12 0.723059 0.121081 0.886103
O O13 0.864801 0.134330 0.859035
O O14 0.803866 0.000000 0.870066
O O15 0.680112 0.000000 0.293299
O O16 0.250000 0.250000 0.078734
O O17 0.382418 0.227667 0.117282
O O18 0.333826 0.173322 0.000000
O O19 0.000000 0.194976 0.843457
#
# Coordination Sequence:
#
# PCOD9486387 Si02
#       7
#    16  16  16  16  16  16  16
#     4  12  19  34  55  75 101 139 186 227 270 314
#     4  10  21  33  47  73 105 138 176 221 276 332
#     4   9  17  29  46  71 103 138 172 208 259 320
#     4  10  19  34  56  82 112 144 180 222 268 320
#     4  10  19  32  52  75 102 131 172 227 268 309
#     4   9  18  35  57  80 106 142 186 222 255 305
#     4  11  21  34  54  83 115 147 180 217 271 330
#
# _framework density 17.02243
#
# number of rings (size 3 to 8) (size 9 to 14) (size 15 to 20)
#    0.000    1.857    4.286    0.857    0.000    2.000 
#    0.000    1.429    0.000    7.286    0.000    6.000 
#    0.000    0.000    0.000    0.000    0.000    0.000 
#
# Total GULP energy -312092.827283 kJ/mol
# GULP energy per Si atom -5573.086201 kJ/mol
# Density = 1.698369 g / cm^3
# Si number density = 17.022430 Si / 1000 Ang^3
#
#
#
# Elastic Constant Matrix: (Units=GPa)
#
#
# Indices 1 2 3 4 5 6 
#
# 1 54.2253 41.4582 28.3020 0.0000 0.0000 0.0000
# 2 41.4582 119.2682 27.1966 0.0000 0.0000 0.0000
# 3 28.3020 27.1966 81.4991 0.0000 0.0000 0.0000
# 4 0.0000 0.0000 0.0000 17.9263 0.0000 0.0000
# 5 0.0000 0.0000 0.0000 0.0000 14.4916 0.0000
# 6 0.0000 0.0000 0.0000 0.0000 0.0000 12.7254
#
#
#
# Elastic Compliance Matrix: (Units=1/GPa)
#
#
# Indices 1 2 3 4 5 6 
#
# 1 0.028493 -0.008278 -0.007132 0.000000 0.000000 0.000000
# 2 -0.008278 0.011480 -0.000956 0.000000 0.000000 0.000000
# 3 -0.007132 -0.000956 0.015066 0.000000 0.000000 0.000000
# 4 0.000000 0.000000 0.000000 0.055784 0.000000 0.000000
# 5 0.000000 0.000000 0.000000 0.000000 0.069006 0.000000
# 6 0.000000 0.000000 0.000000 0.000000 0.000000 0.078583
#
#
# Mechanical properties :
#
#
# Convention : Reuss Voigt Hill
#
# Bulk Modulus (GPa) = 44.83101 49.87847 47.35474
# Shear Modulus (GPa) = 16.74594 19.56438 18.15516
#
# Velocity S-wave (km/s) = 3.13989 3.39385 3.26934
# Velocity P-wave (km/s) = 6.28799 6.68752 6.49083
#
# Compressibility (1/GPa) = 0.02230599
#
# Stress axis : x y z
#
# Youngs Moduli (GPa) = 35.09620 87.10817 66.37453
#
# Poissons Ratio (x) = 0.72108 0.47341
# Poissons Ratio (y) = 0.29052 0.06347
# Poissons Ratio (z) = 0.25032 0.08330
#
# Static dielectric constant tensor:
#      x y z
#    x 1.542200 0.000000 0.000000 
#    y 0.000000 1.600570 0.000000 
#    z 0.000000 0.000000 1.607970 
# 
# From -- ./inp_files/54832.got.cif
#   From: 2010.05.17/outbox.cif.g08.bks.cpg/sg65_28_cif.got.tgz:54832.got - 2010.06.03 17:01:31.
