data_PCOD9486350
_publ_section_title
;
Structure prediction by ZEFSAII (Michael W. Deem and Ramdas Pophale) SiO2 
 PCOD9486350
Probable space group: C M M M
;
_chemical_formula_sum "Si O2"
_cell_formula_units_Z 104
_cell_length_a 9.104041
_cell_length_b 29.152309
_cell_length_c 23.353650
_cell_angle_alpha 90.000000
_cell_angle_beta 90.000000
_cell_angle_gamma 90.000000
_cell_volume 6198.147836
_symmetry_space_group_name_H-M "C M M M"
_symmetry_group_IT_number 65
_symmetry_cell_setting 'orthorhombic'
loop_
_space_group_symop_operation_xyz
x,y,z
-x,-y,z
x,-y,-z
-x,y,-z
-x,-y,-z
x,y,-z
-x,y,z
x,-y,z
1/2+x,1/2+y,z
1/2-x,1/2-y,z
1/2+x,1/2-y,-z
1/2-x,1/2+y,-z
1/2-x,1/2-y,-z
1/2+x,1/2+y,-z
1/2-x,1/2+y,z
1/2+x,1/2-y,z
loop_
_atom_site_type_symbol
_atom_site_label
_atom_site_fract_x
_atom_site_fract_y
_atom_site_fract_z
Si Si1 0.176203 0.799488 0.776773
Si Si2 0.675443 0.052294 0.849281
Si Si3 0.323349 0.358623 0.888414
Si Si4 0.825404 0.298548 0.432784
Si Si5 0.824115 0.856762 0.337518
Si Si6 0.674202 0.447723 0.726009
Si Si7 0.176560 0.200368 0.000000
O O1 0.250000 0.750000 0.779507
O O2 0.218876 0.830854 0.830931
O O3 0.212435 0.825421 0.717756
O O4 0.000000 0.794142 0.778862
O O5 0.500000 0.056715 0.848964
O O6 0.747760 0.091934 0.886947
O O7 0.737744 0.058409 0.784885
O O8 0.712991 0.000000 0.866802
O O9 0.500000 0.364462 0.887703
O O10 0.283394 0.328491 0.943538
O O11 0.795950 0.307462 0.500000
O O12 0.750000 0.250000 0.417936
O O13 0.759301 0.337261 0.392087
O O14 0.000000 0.294657 0.424917
O O15 0.786728 0.908711 0.319459
O O16 0.000000 0.853953 0.346684
O O17 0.500000 0.441800 0.739145
O O18 0.696407 0.500000 0.705987
O O19 0.250000 0.250000 0.000000
O O20 0.000000 0.206024 0.000000
#
# Coordination Sequence:
#
# PCOD9486350 Si02
#       7
#    16  16  16  16  16  16   8
#     4  10  20  32  47  72 104 133 165 208 257 307
#     4  10  20  33  52  80 108 135 171 214 263 316
#     4  10  20  37  55  75 103 138 178 216 257 311
#     4  10  21  36  53  74 102 139 179 216 257 305
#     4  10  19  32  51  78 106 134 171 212 259 310
#     4   9  17  32  54  78 107 141 172 208 258 312
#     4  10  22  38  59  80 103 139 182 221 259 312
#
# _framework density 16.779205999999999
#
# number of rings (size 3 to 8) (size 9 to 14) (size 15 to 20)
#    0.000    2.154    1.538    1.846    0.000    5.538 
#    0.000    0.385    0.000    2.769    0.000    3.231 
#    0.000    0.000    0.000    0.000    0.000    0.000 
#
# Total GULP energy -290220.809095 kJ/mol
# GULP energy per Si atom -5581.169406 kJ/mol
# Density = 1.674102 g / cm^3
# Si number density = 16.779206 Si / 1000 Ang^3
#
#
#
# Elastic Constant Matrix: (Units=GPa)
#
#
# Indices 1 2 3 4 5 6 
#
# 1 33.8073 58.2218 40.0629 0.0000 0.0000 0.0000
# 2 58.2218 162.0195 68.5381 0.0000 0.0000 0.0000
# 3 40.0629 68.5381 81.2067 0.0000 0.0000 0.0000
# 4 0.0000 0.0000 0.0000 30.5831 0.0000 0.0000
# 5 0.0000 0.0000 0.0000 0.0000 18.4570 0.0000
# 6 0.0000 0.0000 0.0000 0.0000 0.0000 31.6960
#
#
#
# Elastic Compliance Matrix: (Units=1/GPa)
#
#
# Indices 1 2 3 4 5 6 
#
# 1 0.120145 -0.028151 -0.035513 0.000000 0.000000 0.000000
# 2 -0.028151 0.016195 0.000219 0.000000 0.000000 0.000000
# 3 -0.035513 0.000219 0.029650 0.000000 0.000000 0.000000
# 4 0.000000 0.000000 0.000000 0.032698 0.000000 0.000000
# 5 0.000000 0.000000 0.000000 0.000000 0.054180 0.000000
# 6 0.000000 0.000000 0.000000 0.000000 0.000000 0.031550
#
#
# Mechanical properties :
#
#
# Convention : Reuss Voigt Hill
#
# Bulk Modulus (GPa) = 25.57576 67.85323 46.71450
# Shear Modulus (GPa) = 11.78296 23.49461 17.63878
#
# Velocity S-wave (km/s) = 2.65285 3.74601 3.24578
# Velocity P-wave (km/s) = 4.96579 7.69655 6.47672
#
# Compressibility (1/GPa) = 0.03909952
#
# Stress axis : x y z
#
# Youngs Moduli (GPa) = 8.32325 61.74559 33.72737
#
# Poissons Ratio (x) = 1.73822 1.19778
# Poissons Ratio (y) = 0.23431 -0.00740
# Poissons Ratio (z) = 0.29559 -0.01354
#
# Static dielectric constant tensor:
#      x y z
#    x 1.559780 0.000000 0.000000 
#    y 0.000000 1.561860 0.000000 
#    z 0.000000 0.000000 1.546740 
# 
# From -- ./inp_files/60850.got.cif
#   From: 2010.05.17/outbox.cif.g08.bks.cpg/sg65_31_cif.got.tgz:60850.got - 2010.06.03 17:01:31.
