data_PCOD9486429
_publ_section_title
;
Structure prediction by ZEFSAII (Michael W. Deem and Ramdas Pophale) SiO2 
 PCOD9486429
Probable space group: C M M M
;
_chemical_formula_sum "Si O2"
_cell_formula_units_Z 88
_cell_length_a 18.787613
_cell_length_b 8.581242
_cell_length_c 29.905848
_cell_angle_alpha 90.000000
_cell_angle_beta 90.000000
_cell_angle_gamma 90.000000
_cell_volume 4821.452328
_symmetry_space_group_name_H-M "C M M M"
_symmetry_group_IT_number 65
_symmetry_cell_setting 'orthorhombic'
loop_
_space_group_symop_operation_xyz
x,y,z
-x,-y,z
x,-y,-z
-x,y,-z
-x,-y,-z
x,y,-z
-x,y,z
x,-y,z
1/2+x,1/2+y,z
1/2-x,1/2-y,z
1/2+x,1/2-y,-z
1/2-x,1/2+y,-z
1/2-x,1/2-y,-z
1/2+x,1/2+y,-z
1/2-x,1/2+y,z
1/2+x,1/2-y,z
loop_
_atom_site_type_symbol
_atom_site_label
_atom_site_fract_x
_atom_site_fract_y
_atom_site_fract_z
Si Si1 0.582275 0.811555 0.412224
Si Si2 0.330675 0.312194 0.230205
Si Si3 0.916720 0.312366 0.950485
Si Si4 0.169079 0.812586 0.671707
Si Si5 0.169771 0.311498 0.500000
Si Si6 0.830326 0.813379 0.866906
O O1 0.500000 0.761290 0.414962
O O2 0.620496 0.750623 0.367851
O O3 0.626995 0.761219 0.455744
O O4 0.583058 0.000000 0.411510
O O5 0.329630 0.500000 0.230286
O O6 0.250000 0.250000 0.229929
O O7 0.359572 0.264267 0.278836
O O8 0.361339 0.263392 0.181932
O O9 0.911999 0.500000 0.949255
O O10 0.874148 0.245308 0.909051
O O11 0.000000 0.270638 0.946972
O O12 0.891286 0.261409 0.000000
O O13 0.250000 0.750000 0.667067
O O14 0.171443 0.000000 0.669726
O O15 0.171877 0.500000 0.500000
O O16 0.250000 0.250000 0.500000
O O17 0.750000 0.750000 0.869779
O O18 0.828133 0.000000 0.867723
#
# Coordination Sequence:
#
# PCOD9486429 Si02
#       6
#    16  16  16  16   8  16
#     4  10  21  37  55  76 105 139 173 210 254 301
#     4   8  16  30  48  72 101 132 165 204 250 296
#     4   9  19  36  54  71  96 131 168 207 253 303
#     4  10  19  33  54  78 104 135 172 211 251 298
#     4  10  21  37  57  79 103 134 171 212 256 302
#     4  10  19  32  52  77 103 131 166 208 252 299
#
# _framework density 18.251760999999998
#
# number of rings (size 3 to 8) (size 9 to 14) (size 15 to 20)
#    0.000    2.545    0.000    2.455    0.000    6.182 
#    0.000    1.818    0.000    7.091    0.000    0.000 
#    0.000    0.000    0.000    0.000    0.000    0.000 
#
# Total GULP energy -245221.990769 kJ/mol
# GULP energy per Si atom -5573.227063 kJ/mol
# Density = 1.821022 g / cm^3
# Si number density = 18.251761 Si / 1000 Ang^3
#
#
#
# Elastic Constant Matrix: (Units=GPa)
#
#
# Indices 1 2 3 4 5 6 
#
# 1 93.7470 23.5163 98.8428 0.0000 0.0000 0.0000
# 2 23.5163 15.2885 38.6706 0.0000 0.0000 0.0000
# 3 98.8428 38.6706 245.9366 0.0000 0.0000 0.0000
# 4 0.0000 0.0000 0.0000 26.0427 0.0000 0.0000
# 5 0.0000 0.0000 0.0000 0.0000 -28.9255 0.0000
# 6 0.0000 0.0000 0.0000 0.0000 0.0000 25.6532
#
#
#
# Elastic Compliance Matrix: (Units=1/GPa)
#
#
# Indices 1 2 3 4 5 6 
#
# 1 0.021224 -0.018381 -0.005640 0.000000 0.000000 0.000000
# 2 -0.018381 0.124520 -0.012192 0.000000 0.000000 0.000000
# 3 -0.005640 -0.012192 0.008250 0.000000 0.000000 0.000000
# 4 0.000000 0.000000 0.000000 0.038398 0.000000 0.000000
# 5 0.000000 0.000000 0.000000 0.000000 -0.034572 0.000000
# 6 0.000000 0.000000 0.000000 0.000000 0.000000 0.038981
#
#
# Mechanical properties :
#
#
# Convention : Reuss Voigt Hill
#
# Bulk Modulus (GPa) = 12.25963 75.22572 43.74267
# Shear Modulus (GPa) = 16.86808 17.48359 17.17584
#
# Velocity S-wave (km/s) = 3.04335 3.09837 3.07098
# Velocity P-wave (km/s) = 4.36816 7.35561 6.04921
#
# Compressibility (1/GPa) = 0.08156855
#
# Stress axis : x y z
#
# Youngs Moduli (GPa) = 47.11562 8.03083 121.21448
#
# Poissons Ratio (x) = 0.14761 0.68364
# Poissons Ratio (y) = 0.86603 1.47784
# Poissons Ratio (z) = 0.26573 0.09791
#
# Static dielectric constant tensor:
#      x y z
#    x 1.581830 0.000000 0.000000 
#    y 0.000000 1.627200 0.000000 
#    z 0.000000 0.000000 1.669950 
# 
# From -- ./inp_files/70958.got.cif
#   From: 2010.05.17/outbox.cif.g08.bks.cpg/sg65_36_cif.got.tgz:70958.got - 2010.06.03 17:01:31.
