data_PCOD9486322
_publ_section_title
;
Structure prediction by ZEFSAII (Michael W. Deem and Ramdas Pophale) SiO2 
 PCOD9486322
Probable space group: C M M M
;
_chemical_formula_sum "Si O2"
_cell_formula_units_Z 104
_cell_length_a 20.990129
_cell_length_b 18.953481
_cell_length_c 15.344334
_cell_angle_alpha 90.000000
_cell_angle_beta 90.000000
_cell_angle_gamma 90.000000
_cell_volume 6104.528633
_symmetry_space_group_name_H-M "C M M M"
_symmetry_group_IT_number 65
_symmetry_cell_setting 'orthorhombic'
loop_
_space_group_symop_operation_xyz
x,y,z
-x,-y,z
x,-y,-z
-x,y,-z
-x,-y,-z
x,y,-z
-x,y,z
x,-y,z
1/2+x,1/2+y,z
1/2-x,1/2-y,z
1/2+x,1/2-y,-z
1/2-x,1/2+y,-z
1/2-x,1/2-y,-z
1/2+x,1/2+y,-z
1/2-x,1/2+y,z
1/2+x,1/2-y,z
loop_
_atom_site_type_symbol
_atom_site_label
_atom_site_fract_x
_atom_site_fract_y
_atom_site_fract_z
Si Si1 0.650288 0.079177 0.752050
Si Si2 0.353207 0.721645 0.599196
Si Si3 0.231350 0.634748 0.598872
Si Si4 0.745423 0.581686 0.101789
Si Si5 0.122287 0.825539 0.895693
Si Si6 0.500000 0.580130 0.894511
Si Si7 0.425023 0.220838 0.758639
O O1 0.698448 0.086500 0.670369
O O2 0.694043 0.091524 0.836878
O O3 0.598557 0.140786 0.745848
O O4 0.623827 0.000000 0.755030
O O5 0.377033 0.712563 0.500000
O O6 0.303478 0.658824 0.619547
O O7 0.310185 0.792911 0.599375
O O8 0.405300 0.734622 0.672879
O O9 0.229551 0.606888 0.500000
O O10 0.723545 0.500000 0.112060
O O11 0.688348 0.634859 0.123588
O O12 0.761501 0.591467 0.000000
O O13 0.063442 0.876902 0.871134
O O14 0.112614 0.755728 0.839237
O O15 0.119396 0.812733 0.000000
O O16 0.500000 0.500000 0.861291
O O17 0.500000 0.576439 0.000000
O O18 0.500000 0.223981 0.774290
#
# Coordination Sequence:
#
# PCOD9486322 Si02
#       7
#    16  16  16  16  16   8  16
#     4  10  21  35  50  70  98 133 174 220 262 297
#     4   8  15  29  50  74  98 124 156 199 251 304
#     4   8  14  28  51  76  98 120 152 200 258 310
#     4   9  18  33  53  77 103 129 160 200 251 312
#     4  10  19  32  51  76 104 131 161 203 254 305
#     4   9  16  28  48  74 104 134 156 183 236 304
#     4  11  22  34  49  70 100 137 178 217 250 292
#
# _framework density 17.036532000000001
#
# number of rings (size 3 to 8) (size 9 to 14) (size 15 to 20)
#    0.000    2.692    0.769    2.308    0.000    5.231 
#    0.000    1.538    0.000    0.000    0.000    7.538 
#    0.000    0.615    0.000    0.000    0.000    0.000 
#
# Total GULP energy -289783.090045 kJ/mol
# GULP energy per Si atom -5572.751732 kJ/mol
# Density = 1.699776 g / cm^3
# Si number density = 17.036532 Si / 1000 Ang^3
#
#
#
# Elastic Constant Matrix: (Units=GPa)
#
#
# Indices 1 2 3 4 5 6 
#
# 1 30.8290 10.8078 19.7471 0.0000 0.0000 0.0000
# 2 10.8078 53.7695 21.3707 0.0000 0.0000 0.0000
# 3 19.7471 21.3707 53.6954 0.0000 0.0000 0.0000
# 4 0.0000 0.0000 0.0000 18.3297 0.0000 0.0000
# 5 0.0000 0.0000 0.0000 0.0000 18.8545 0.0000
# 6 0.0000 0.0000 0.0000 0.0000 0.0000 17.8128
#
#
#
# Elastic Compliance Matrix: (Units=1/GPa)
#
#
# Indices 1 2 3 4 5 6 
#
# 1 0.042781 -0.002787 -0.014624 0.000000 0.000000 0.000000
# 2 -0.002787 0.022274 -0.007840 0.000000 0.000000 0.000000
# 3 -0.014624 -0.007840 0.027122 0.000000 0.000000 0.000000
# 4 0.000000 0.000000 0.000000 0.054556 0.000000 0.000000
# 5 0.000000 0.000000 0.000000 0.000000 0.053038 0.000000
# 6 0.000000 0.000000 0.000000 0.000000 0.000000 0.056139
#
#
# Mechanical properties :
#
#
# Convention : Reuss Voigt Hill
#
# Bulk Modulus (GPa) = 23.99505 26.90501 25.45003
# Shear Modulus (GPa) = 15.61013 16.75729 16.18371
#
# Velocity S-wave (km/s) = 3.03029 3.13966 3.08546
# Velocity P-wave (km/s) = 5.13406 5.38239 5.25969
#
# Compressibility (1/GPa) = 0.04167526
#
# Stress axis : x y z
#
# Youngs Moduli (GPa) = 23.37475 44.89508 36.87021
#
# Poissons Ratio (x) = 0.12511 0.53920
# Poissons Ratio (y) = 0.06514 0.28907
# Poissons Ratio (z) = 0.34184 0.35199
#
# Static dielectric constant tensor:
#      x y z
#    x 1.552900 0.000000 0.000000 
#    y 0.000000 1.593120 0.000000 
#    z 0.000000 0.000000 1.585880 
# 
# From -- ./inp_files/42839.got.cif
#   From: 2010.05.17/outbox.cif.g08.bks.cpg/sg65_22_cif.got.tgz:42839.got - 2010.06.03 17:01:31.
