data_PCOD9486680
_publ_section_title
;
Structure prediction by ZEFSAII (Michael W. Deem and Ramdas Pophale) SiO2 
 PCOD9486680
Probable space group: C M M M
;
_chemical_formula_sum "Si O2"
_cell_formula_units_Z 80
_cell_length_a 19.878680
_cell_length_b 26.910464
_cell_length_c 8.178702
_cell_angle_alpha 90.000000
_cell_angle_beta 90.000000
_cell_angle_gamma 90.000000
_cell_volume 4375.151673
_symmetry_space_group_name_H-M "C M M M"
_symmetry_group_IT_number 65
_symmetry_cell_setting 'orthorhombic'
loop_
_space_group_symop_operation_xyz
x,y,z
-x,-y,z
x,-y,-z
-x,y,-z
-x,-y,-z
x,y,-z
-x,y,z
x,-y,z
1/2+x,1/2+y,z
1/2-x,1/2-y,z
1/2+x,1/2-y,-z
1/2-x,1/2+y,-z
1/2-x,1/2-y,-z
1/2+x,1/2+y,-z
1/2-x,1/2+y,z
1/2+x,1/2-y,z
loop_
_atom_site_type_symbol
_atom_site_label
_atom_site_fract_x
_atom_site_fract_y
_atom_site_fract_z
Si Si1 0.581844 0.500000 0.810426
Si Si2 0.077497 0.391653 0.200612
Si Si3 0.680278 0.807179 0.192589
Si Si4 0.581813 0.000000 0.811240
Si Si5 0.422226 0.391536 0.801817
Si Si6 0.169111 0.800625 0.309871
O O1 0.500000 0.500000 0.811652
O O2 0.601080 0.553775 0.739999
O O3 0.604203 0.500000 0.000000
O O4 0.126758 0.347736 0.251145
O O5 0.100567 0.446392 0.259778
O O6 0.000000 0.383433 0.250212
O O7 0.077313 0.393184 0.000000
O O8 0.752098 0.811526 0.279800
O O9 0.654503 0.751009 0.217535
O O10 0.692152 0.815072 0.000000
O O11 0.500000 0.000000 0.814317
O O12 0.605089 0.000000 0.000000
O O13 0.500000 0.383885 0.750962
O O14 0.375596 0.346647 0.747244
O O15 0.421937 0.393683 0.000000
O O16 0.157734 0.791586 0.500000
#
# Coordination Sequence:
#
# PCOD9486680 Si02
#       6
#     8  16  16   8  16  16
#     4   7  12  26  50  77 100 122 152 195 244 287
#     4   8  14  25  45  73  99 121 149 190 237 282
#     4  10  19  33  52  71  94 127 168 207 244 287
#     4   7  10  20  39  66 100 126 142 175 234 289
#     4   9  17  32  55  79 100 124 159 202 244 289
#     4  11  22  35  49  67  97 133 166 200 245 297
#
# _framework density 18.285079
#
# number of rings (size 3 to 8) (size 9 to 14) (size 15 to 20)
#    0.000    3.000    0.000    6.000    0.000    1.200 
#    0.000    3.500    0.000    7.200    0.000    2.100 
#    0.000    9.600    0.000    0.000    0.000    0.000 
#
# Total GULP energy -222783.957700 kJ/mol
# GULP energy per Si atom -5569.598942 kJ/mol
# Density = 1.824346 g / cm^3
# Si number density = 18.285079 Si / 1000 Ang^3
#
#
#
# Elastic Constant Matrix: (Units=GPa)
#
#
# Indices 1 2 3 4 5 6 
#
# 1 55.4935 77.7131 -2.0935 0.0000 0.0000 0.0000
# 2 77.7131 169.6115 -9.1751 0.0000 0.0000 0.0000
# 3 -2.0935 -9.1751 13.7328 0.0000 0.0000 0.0000
# 4 0.0000 0.0000 0.0000 -12.5395 0.0000 0.0000
# 5 0.0000 0.0000 0.0000 0.0000 -372.9202 0.0000
# 6 0.0000 0.0000 0.0000 0.0000 0.0000 -41.6500
#
#
#
# Elastic Compliance Matrix: (Units=1/GPa)
#
#
# Indices 1 2 3 4 5 6 
#
# 1 0.051151 -0.023878 -0.008155 0.000000 0.000000 0.000000
# 2 -0.023878 0.017263 0.007894 0.000000 0.000000 0.000000
# 3 -0.008155 0.007894 0.076849 0.000000 0.000000 0.000000
# 4 0.000000 0.000000 0.000000 -0.079748 0.000000 0.000000
# 5 0.000000 0.000000 0.000000 0.000000 -0.002682 0.000000
# 6 0.000000 0.000000 0.000000 0.000000 0.000000 -0.024010
#
#
# Mechanical properties :
#
#
# Convention : Reuss Voigt Hill
#
# Bulk Modulus (GPa) = 10.31088 41.30297 25.80692
# Shear Modulus (GPa) = 41.86537 -73.92907 -16.03185
#
# Velocity S-wave (km/s) = 4.79016 -6.36546 -2.96425
# Velocity P-wave (km/s) = 6.02041 5.60251 1.55840
#
# Compressibility (1/GPa) = 0.09698494
#
# Stress axis : x y z
#
# Youngs Moduli (GPa) = 19.55012 57.92696 13.01248
#
# Poissons Ratio (x) = 1.38315 0.10612
# Poissons Ratio (y) = 0.46681 -0.10272
# Poissons Ratio (z) = 0.15944 -0.45726
#
# Static dielectric constant tensor:
#      x y z
#    x 1.595300 0.000000 0.000000 
#    y 0.000000 1.665090 0.000000 
#    z 0.000000 0.000000 1.628730 
# 
# From -- ./inp_files/12114.got.cif
#   From: 2010.05.17/outbox.cif.g08.bks.cpg/sg65_7_cif.got.tgz:12114.got - 2010.06.03 17:01:31.
