data_PCOD9486644
_publ_section_title
;
Structure prediction by ZEFSAII (Michael W. Deem and Ramdas Pophale) SiO2 
 PCOD9486644
Probable space group: C M M M
;
_chemical_formula_sum "Si O2"
_cell_formula_units_Z 90
_cell_length_a 21.159744
_cell_length_b 7.463837
_cell_length_c 25.638197
_cell_angle_alpha 90.000000
_cell_angle_beta 90.000000
_cell_angle_gamma 90.000000
_cell_volume 4049.114295
_symmetry_space_group_name_H-M "C M M M"
_symmetry_group_IT_number 65
_symmetry_cell_setting 'orthorhombic'
loop_
_space_group_symop_operation_xyz
x,y,z
-x,-y,z
x,-y,-z
-x,y,-z
-x,-y,-z
x,y,-z
-x,y,z
x,-y,z
1/2+x,1/2+y,z
1/2-x,1/2-y,z
1/2+x,1/2-y,-z
1/2-x,1/2+y,-z
1/2-x,1/2-y,-z
1/2+x,1/2+y,-z
1/2-x,1/2+y,z
1/2+x,1/2-y,z
loop_
_atom_site_type_symbol
_atom_site_label
_atom_site_fract_x
_atom_site_fract_y
_atom_site_fract_z
Si Si1 0.361845 0.287296 0.386952
Si Si2 0.500000 0.707552 0.407372
Si Si3 0.000000 0.500000 0.500000
Si Si4 0.429856 0.284381 0.795550
Si Si5 0.674364 0.214871 0.000000
Si Si6 0.571296 0.786695 0.917714
Si Si7 0.175906 0.213285 0.500000
Si Si8 0.319259 0.285460 0.278562
O O1 0.347159 0.500000 0.391047
O O2 0.435933 0.268309 0.375375
O O3 0.350152 0.213109 0.445166
O O4 0.324229 0.213274 0.337835
O O5 0.500000 0.500000 0.426362
O O6 0.500000 0.843575 0.454755
O O7 0.500000 0.218283 0.781705
O O8 0.430695 0.500000 0.790876
O O9 0.418744 0.243657 0.856315
O O10 0.374720 0.216035 0.758232
O O11 0.750000 0.250000 0.000000
O O12 0.631359 0.279601 0.950982
O O13 0.671698 0.000000 0.000000
O O14 0.500000 0.717236 0.930946
O O15 0.568334 0.000000 0.926585
O O16 0.250000 0.250000 0.500000
O O17 0.162875 0.000000 0.500000
O O18 0.327200 0.500000 0.282407
O O19 0.250000 0.250000 0.256947
#
# Coordination Sequence:
#
# PCOD9486644 Si02
#       8
#    16   8   2  16   8  16   8  16
#     4   9  19  36  59  79 104 143 186 223 280 346
#     4  10  21  39  61  84 115 151 184 240 294 351
#     4  12  22  36  56  90 124 140 198 232 298 364
#     4   9  19  35  57  83 111 145 192 241 283 338
#     4  10  21  35  53  81 115 152 188 230 280 338
#     4   9  18  35  58  81 108 145 191 235 281 333
#     4  10  19  33  50  74  99 131 173 214 265 332
#     4  10  21  37  57  83 113 148 189 234 288 348
#
# _framework density 22.227083
#
# number of rings (size 3 to 8) (size 9 to 14) (size 15 to 20)
#    0.000    2.489    0.000    1.467    1.244    4.622 
#    4.800    3.556    0.000    2.667    0.000    0.000 
#    0.000    0.000    0.000    0.000    0.000    0.000 
#
# Total GULP energy -250883.514271 kJ/mol
# GULP energy per Si atom -5575.189206 kJ/mol
# Density = 2.217649 g / cm^3
# Si number density = 22.227083 Si / 1000 Ang^3
#
#
#
# Elastic Constant Matrix: (Units=GPa)
#
#
# Indices 1 2 3 4 5 6 
#
# 1 194.8969 6.1644 107.3853 0.0000 0.0000 0.0000
# 2 6.1644 75.6470 -0.7604 0.0000 0.0000 0.0000
# 3 107.3853 -0.7604 124.6189 0.0000 0.0000 0.0000
# 4 0.0000 0.0000 0.0000 23.3703 0.0000 0.0000
# 5 0.0000 0.0000 0.0000 0.0000 22.2043 0.0000
# 6 0.0000 0.0000 0.0000 0.0000 0.0000 17.4100
#
#
#
# Elastic Compliance Matrix: (Units=1/GPa)
#
#
# Indices 1 2 3 4 5 6 
#
# 1 0.009828 -0.000886 -0.008475 0.000000 0.000000 0.000000
# 2 -0.000886 0.013300 0.000845 0.000000 0.000000 0.000000
# 3 -0.008475 0.000845 0.015332 0.000000 0.000000 0.000000
# 4 0.000000 0.000000 0.000000 0.042789 0.000000 0.000000
# 5 0.000000 0.000000 0.000000 0.000000 0.045036 0.000000
# 6 0.000000 0.000000 0.000000 0.000000 0.000000 0.057438
#
#
# Mechanical properties :
#
#
# Convention : Reuss Voigt Hill
#
# Bulk Modulus (GPa) = 46.66649 68.97127 57.81888
# Shear Modulus (GPa) = 24.05010 31.42181 27.73595
#
# Velocity S-wave (km/s) = 3.29297 3.76396 3.53632
# Velocity P-wave (km/s) = 5.95811 7.07019 6.53784
#
# Compressibility (1/GPa) = 0.02142865
#
# Stress axis : x y z
#
# Youngs Moduli (GPa) = 101.74705 75.18801 65.22212
#
# Poissons Ratio (x) = 0.06662 0.55273
# Poissons Ratio (y) = 0.09016 -0.05509
# Poissons Ratio (z) = 0.86226 -0.06351
#
# Static dielectric constant tensor:
#      x y z
#    x 1.833060 0.000000 0.000000 
#    y 0.000000 1.868960 0.000000 
#    z 0.000000 0.000000 1.813610 
# 
# From -- ./inp_files/75457.got.cif
#   From: 2010.05.17/outbox.cif.g08.bks.cpg/sg65_38_cif.got.tgz:75457.got - 2010.06.03 17:01:31.
