data_PCOD9486909
_publ_section_title
;
Structure prediction by ZEFSAII (Michael W. Deem and Ramdas Pophale) SiO2 
 PCOD9486909
Probable space group: C M M M
;
_chemical_formula_sum "Si O2"
_cell_formula_units_Z 104
_cell_length_a 8.588811
_cell_length_b 20.192053
_cell_length_c 34.309344
_cell_angle_alpha 90.000000
_cell_angle_beta 90.000000
_cell_angle_gamma 90.000000
_cell_volume 5950.122923
_symmetry_space_group_name_H-M "C M M M"
_symmetry_group_IT_number 65
_symmetry_cell_setting 'orthorhombic'
loop_
_space_group_symop_operation_xyz
x,y,z
-x,-y,z
x,-y,-z
-x,y,-z
-x,-y,-z
x,y,-z
-x,y,z
x,-y,z
1/2+x,1/2+y,z
1/2-x,1/2-y,z
1/2+x,1/2-y,-z
1/2-x,1/2+y,-z
1/2-x,1/2-y,-z
1/2+x,1/2+y,-z
1/2-x,1/2+y,z
1/2+x,1/2-y,z
loop_
_atom_site_type_symbol
_atom_site_label
_atom_site_fract_x
_atom_site_fract_y
_atom_site_fract_z
Si Si1 0.312638 0.824748 0.000000
Si Si2 0.313288 0.676343 0.699135
Si Si3 0.312776 0.825224 0.085599
Si Si4 0.689821 0.423842 0.456085
Si Si5 0.186420 0.576516 0.763387
Si Si6 0.811897 0.823353 0.389781
Si Si7 0.813436 0.076571 0.151035
O O1 0.250000 0.750000 0.000000
O O2 0.264420 0.851729 0.042354
O O3 0.500000 0.823994 0.000000
O O4 0.500000 0.677428 0.700915
O O5 0.250000 0.750000 0.707180
O O6 0.249338 0.624575 0.730182
O O7 0.266051 0.659006 0.654602
O O8 0.500000 0.822751 0.087196
O O9 0.250000 0.750000 0.089927
O O10 0.250923 0.873339 0.118935
O O11 0.737694 0.404296 0.500000
O O12 0.500000 0.423134 0.455644
O O13 0.737223 0.500000 0.449484
O O14 0.743820 0.375083 0.422197
O O15 0.232146 0.500000 0.755686
O O16 0.252398 0.594387 0.805929
O O17 0.000000 0.580054 0.764646
O O18 0.750000 0.750000 0.398007
O O19 0.000000 0.821941 0.390817
O O20 0.000000 0.079074 0.151041
O O21 0.765169 0.000000 0.143379
#
# Coordination Sequence:
#
# PCOD9486909 Si02
#       7
#     8  16  16  16  16  16  16
#     4   8  16  30  49  74 103 135 169 209 253 296
#     4  10  20  34  52  74 102 133 166 207 252 298
#     4  10  19  33  54  79 106 136 173 213 254 300
#     4   8  14  26  45  69  96 126 163 205 243 282
#     4  10  21  37  56  77 101 130 165 205 251 303
#     4   9  18  31  48  71  98 128 161 199 244 292
#     4  10  21  37  55  76 104 136 170 209 253 300
#
# _framework density 17.478631
#
# number of rings (size 3 to 8) (size 9 to 14) (size 15 to 20)
#    0.000    2.615    0.000    2.308    0.000    4.615 
#    0.000    5.000    0.000    2.769    0.000    1.077 
#    0.000    0.000    0.000    0.000    0.000    0.000 
#
# Total GULP energy -289904.170855 kJ/mol
# GULP energy per Si atom -5575.080209 kJ/mol
# Density = 1.743885 g / cm^3
# Si number density = 17.478631 Si / 1000 Ang^3
#
#
#
# Elastic Constant Matrix: (Units=GPa)
#
#
# Indices 1 2 3 4 5 6 
#
# 1 32.1399 30.6649 42.3063 0.0000 0.0000 0.0000
# 2 30.6649 104.5218 128.3525 0.0000 0.0000 0.0000
# 3 42.3063 128.3525 197.5903 0.0000 0.0000 0.0000
# 4 0.0000 0.0000 0.0000 76.6637 0.0000 0.0000
# 5 0.0000 0.0000 0.0000 0.0000 13.3190 0.0000
# 6 0.0000 0.0000 0.0000 0.0000 0.0000 25.8367
#
#
#
# Elastic Compliance Matrix: (Units=1/GPa)
#
#
# Indices 1 2 3 4 5 6 
#
# 1 0.044243 -0.006660 -0.005146 0.000000 0.000000 0.000000
# 2 -0.006660 0.048294 -0.029945 0.000000 0.000000 0.000000
# 3 -0.005146 -0.029945 0.025615 0.000000 0.000000 0.000000
# 4 0.000000 0.000000 0.000000 0.013044 0.000000 0.000000
# 5 0.000000 0.000000 0.000000 0.000000 0.075081 0.000000
# 6 0.000000 0.000000 0.000000 0.000000 0.000000 0.038705
#
#
# Mechanical properties :
#
#
# Convention : Reuss Voigt Hill
#
# Bulk Modulus (GPa) = 28.86164 81.87769 55.36967
# Shear Modulus (GPa) = 14.70436 32.02575 23.36505
#
# Velocity S-wave (km/s) = 2.90362 4.28516 3.66016
# Velocity P-wave (km/s) = 5.27160 8.45160 7.04341
#
# Compressibility (1/GPa) = 0.03464806
#
# Stress axis : x y z
#
# Youngs Moduli (GPa) = 22.60243 20.70642 39.03954
#
# Poissons Ratio (x) = 0.13791 0.20091
# Poissons Ratio (y) = 0.15054 1.16905
# Poissons Ratio (z) = 0.11632 0.62006
#
# Static dielectric constant tensor:
#      x y z
#    x 1.591210 0.000000 0.000000 
#    y 0.000000 1.562420 0.000000 
#    z 0.000000 0.000000 1.601560 
# 
# From -- ./inp_files/76839.got.cif
#   From: 2010.05.17/outbox.cif.g08.bks.cpg/sg65_39_cif.got.tgz:76839.got - 2010.06.03 17:01:31.
