data_PCOD9486516
_publ_section_title
;
Structure prediction by ZEFSAII (Michael W. Deem and Ramdas Pophale) SiO2 
 PCOD9486516
Probable space group: C M M M
;
_chemical_formula_sum "Si O2"
_cell_formula_units_Z 88
_cell_length_a 8.433007
_cell_length_b 19.372781
_cell_length_c 29.383135
_cell_angle_alpha 90.000000
_cell_angle_beta 90.000000
_cell_angle_gamma 90.000000
_cell_volume 4800.346206
_symmetry_space_group_name_H-M "C M M M"
_symmetry_group_IT_number 65
_symmetry_cell_setting 'orthorhombic'
loop_
_space_group_symop_operation_xyz
x,y,z
-x,-y,z
x,-y,-z
-x,y,-z
-x,-y,-z
x,y,-z
-x,y,z
x,-y,z
1/2+x,1/2+y,z
1/2-x,1/2-y,z
1/2+x,1/2-y,-z
1/2-x,1/2+y,-z
1/2-x,1/2-y,-z
1/2+x,1/2+y,-z
1/2-x,1/2+y,z
1/2+x,1/2-y,z
loop_
_atom_site_type_symbol
_atom_site_label
_atom_site_fract_x
_atom_site_fract_y
_atom_site_fract_z
Si Si1 0.309829 0.826967 0.186959
Si Si2 0.808477 0.329160 0.451169
Si Si3 0.694047 0.921135 0.000000
Si Si4 0.808610 0.673424 0.083114
Si Si5 0.189815 0.920840 0.268032
Si Si6 0.309483 0.828944 0.351227
O O1 0.500000 0.826531 0.188206
O O2 0.250000 0.750000 0.198710
O O3 0.257422 0.841964 0.134958
O O4 0.247478 0.882034 0.222793
O O5 0.755877 0.360225 0.500000
O O6 0.750000 0.250000 0.451521
O O7 0.757830 0.355869 0.401554
O O8 0.000000 0.329800 0.451201
O O9 0.745600 0.880498 0.954826
O O10 0.500000 0.921016 0.000000
O O11 0.746618 0.000000 0.000000
O O12 0.750000 0.750000 0.071466
O O13 0.000000 0.673835 0.082945
O O14 0.247853 0.877188 0.311264
O O15 0.000000 0.921174 0.268160
O O16 0.246990 0.000000 0.269665
O O17 0.500000 0.827486 0.349765
O O18 0.250000 0.750000 0.345834
#
# Coordination Sequence:
#
# PCOD9486516 Si02
#       6
#    16  16   8  16  16  16
#     4  10  20  35  56  80 104 131 168 211 254 303
#     4   8  14  25  43  70 101 129 159 198 244 291
#     4   9  17  30  49  75 106 137 170 206 244 287
#     4   9  18  32  53  78 102 132 166 204 247 292
#     4  11  24  39  53  71  99 134 170 211 258 304
#     4  10  19  32  53  78 104 134 168 207 249 297
#
# _framework density 18.332011999999999
#
# number of rings (size 3 to 8) (size 9 to 14) (size 15 to 20)
#    0.000    2.455    0.000    2.455    0.000    3.636 
#    0.000    1.818    0.000    1.636    0.000    3.818 
#    0.000    0.000    0.000    0.000    0.000    0.000 
#
# Total GULP energy -245319.364518 kJ/mol
# GULP energy per Si atom -5575.440103 kJ/mol
# Density = 1.829029 g / cm^3
# Si number density = 18.332012 Si / 1000 Ang^3
#
#
#
# Elastic Constant Matrix: (Units=GPa)
#
#
# Indices 1 2 3 4 5 6 
#
# 1 26.3987 23.2267 26.1827 0.0000 0.0000 0.0000
# 2 23.2267 127.6779 119.2757 0.0000 0.0000 0.0000
# 3 26.1827 119.2757 171.5032 0.0000 0.0000 0.0000
# 4 0.0000 0.0000 0.0000 -5.5293 0.0000 0.0000
# 5 0.0000 0.0000 0.0000 0.0000 -7.5023 0.0000
# 6 0.0000 0.0000 0.0000 0.0000 0.0000 21.1825
#
#
#
# Elastic Compliance Matrix: (Units=1/GPa)
#
#
# Indices 1 2 3 4 5 6 
#
# 1 0.045790 -0.005137 -0.003418 0.000000 0.000000 0.000000
# 2 -0.005137 0.022935 -0.015166 0.000000 0.000000 0.000000
# 3 -0.003418 -0.015166 0.016901 0.000000 0.000000 0.000000
# 4 0.000000 0.000000 0.000000 -0.180853 0.000000 0.000000
# 5 0.000000 0.000000 0.000000 0.000000 -0.133293 0.000000
# 6 0.000000 0.000000 0.000000 0.000000 0.000000 0.047209
#
#
# Mechanical properties :
#
#
# Convention : Reuss Voigt Hill
#
# Bulk Modulus (GPa) = 26.18958 73.66111 49.92534
# Shear Modulus (GPa) = -41.27423 12.08982 -14.59221
#
# Velocity S-wave (km/s) = -4.75013 2.57084 -2.82440
# Velocity P-wave (km/s) = 3.97086 7.00580 4.08127
#
# Compressibility (1/GPa) = 0.03818313
#
# Stress axis : x y z
#
# Youngs Moduli (GPa) = 21.83860 43.60128 59.16985
#
# Poissons Ratio (x) = 0.22397 0.20225
# Poissons Ratio (y) = 0.11218 0.89740
# Poissons Ratio (z) = 0.07465 0.66128
#
# Static dielectric constant tensor:
#      x y z
#    x 1.628560 0.000000 0.000000 
#    y 0.000000 1.585720 0.000000 
#    z 0.000000 0.000000 1.674080 
# 
# From -- ./inp_files/76700.got.cif
#   From: 2010.05.17/outbox.cif.g08.bks.cpg/sg65_39_cif.got.tgz:76700.got - 2010.06.03 17:01:31.
