data_PCOD9486305
_publ_section_title
;
Structure prediction by ZEFSAII (Michael W. Deem and Ramdas Pophale) SiO2 
 PCOD9486305
Probable space group: C M M M
;
_chemical_formula_sum "Si O2"
_cell_formula_units_Z 88
_cell_length_a 24.091685
_cell_length_b 7.575733
_cell_length_c 23.837950
_cell_angle_alpha 90.000000
_cell_angle_beta 90.000000
_cell_angle_gamma 90.000000
_cell_volume 4350.716056
_symmetry_space_group_name_H-M "C M M M"
_symmetry_group_IT_number 65
_symmetry_cell_setting 'orthorhombic'
loop_
_space_group_symop_operation_xyz
x,y,z
-x,-y,z
x,-y,-z
-x,y,-z
-x,-y,-z
x,y,-z
-x,y,z
x,-y,z
1/2+x,1/2+y,z
1/2-x,1/2-y,z
1/2+x,1/2-y,-z
1/2-x,1/2+y,-z
1/2-x,1/2-y,-z
1/2+x,1/2+y,-z
1/2-x,1/2+y,z
1/2+x,1/2-y,z
loop_
_atom_site_type_symbol
_atom_site_label
_atom_site_fract_x
_atom_site_fract_y
_atom_site_fract_z
Si Si1 0.500000 0.715679 0.138163
Si Si2 0.116103 0.295265 0.325806
Si Si3 0.814991 0.290051 0.222259
Si Si4 0.879834 0.209289 0.891815
Si Si5 0.564091 0.215813 0.563605
Si Si6 0.685128 0.287603 0.000000
Si Si7 0.500000 0.712959 0.730830
O O1 0.500000 0.500000 0.135528
O O2 0.557556 0.780002 0.111918
O O3 0.500000 0.760700 0.203832
O O4 0.132111 0.500000 0.333652
O O5 0.158284 0.216869 0.279992
O O6 0.105285 0.219600 0.387847
O O7 0.055441 0.285303 0.297444
O O8 0.821933 0.500000 0.223817
O O9 0.750000 0.250000 0.217544
O O10 0.848514 0.229835 0.167400
O O11 0.844256 0.281065 0.943603
O O12 0.885155 0.000000 0.901006
O O13 0.577912 0.268363 0.500000
O O14 0.500000 0.269428 0.574990
O O15 0.564109 0.000000 0.565196
O O16 0.750000 0.250000 0.000000
O O17 0.680078 0.500000 0.000000
O O18 0.500000 0.500000 0.726007
#
# Coordination Sequence:
#
# PCOD9486305 Si02
#       7
#     8  16  16  16  16   8   8
#     4   9  18  32  53  79 108 135 163 200 251 309
#     4  10  19  32  51  75 103 134 171 213 252 299
#     4  11  23  36  53  76 101 134 172 215 259 300
#     4  10  20  37  57  80 107 136 169 209 254 306
#     4   8  13  23  44  73 101 129 163 205 249 295
#     4  10  22  37  57  77 101 138 179 218 253 292
#     4  11  19  29  49  78 107 139 166 199 255 311
#
# _framework density 20.226555999999999
#
# number of rings (size 3 to 8) (size 9 to 14) (size 15 to 20)
#    0.000    2.182    2.727    1.909    0.000    3.273 
#    0.000    2.273    0.000    1.636    0.000    1.909 
#    0.000    0.000    0.000    0.000    0.000    0.182 
#
# Total GULP energy -245571.608801 kJ/mol
# GULP energy per Si atom -5581.172927 kJ/mol
# Density = 2.018052 g / cm^3
# Si number density = 20.226556 Si / 1000 Ang^3
#
#
#
# Elastic Constant Matrix: (Units=GPa)
#
#
# Indices 1 2 3 4 5 6 
#
# 1 148.7120 -9.7468 89.4040 0.0000 0.0000 0.0000
# 2 -9.7468 46.1312 2.8688 0.0000 0.0000 0.0000
# 3 89.4040 2.8688 181.0231 0.0000 0.0000 0.0000
# 4 0.0000 0.0000 0.0000 15.1331 0.0000 0.0000
# 5 0.0000 0.0000 0.0000 0.0000 20.4158 0.0000
# 6 0.0000 0.0000 0.0000 0.0000 0.0000 -1.7775
#
#
#
# Elastic Compliance Matrix: (Units=1/GPa)
#
#
# Indices 1 2 3 4 5 6 
#
# 1 0.009818 0.002378 -0.004887 0.000000 0.000000 0.000000
# 2 0.002378 0.022275 -0.001528 0.000000 0.000000 0.000000
# 3 -0.004887 -0.001528 0.007962 0.000000 0.000000 0.000000
# 4 0.000000 0.000000 0.000000 0.066080 0.000000 0.000000
# 5 0.000000 0.000000 0.000000 0.000000 0.048982 0.000000
# 6 0.000000 0.000000 0.000000 0.000000 0.000000 -0.562601
#
#
# Mechanical properties :
#
#
# Convention : Reuss Voigt Hill
#
# Bulk Modulus (GPa) = 31.26686 60.10205 45.68445
# Shear Modulus (GPa) = -12.86169 26.31032 6.72431
#
# Velocity S-wave (km/s) = -2.52440 3.61055 1.82530
# Velocity P-wave (km/s) = 2.64482 6.86734 5.20362
#
# Compressibility (1/GPa) = 0.03198274
#
# Stress axis : x y z
#
# Youngs Moduli (GPa) = 101.85276 44.89379 125.59969
#
# Poissons Ratio (x) = -0.10677 0.61376
# Poissons Ratio (y) = -0.24224 0.19187
# Poissons Ratio (z) = 0.49772 0.06858
#
# Static dielectric constant tensor:
#      x y z
#    x 1.689130 0.000000 0.000000 
#    y 0.000000 1.778750 0.000000 
#    z 0.000000 0.000000 1.738890 
# 
# From -- ./inp_files/65275.got.cif
#   From: 2010.05.17/outbox.cif.g08.bks.cpg/sg65_33_cif.got.tgz:65275.got - 2010.06.03 17:01:31.
