data_PCOD9486404
_publ_section_title
;
Structure prediction by ZEFSAII (Michael W. Deem and Ramdas Pophale) SiO2 
 PCOD9486404
Probable space group: C M M M
;
_chemical_formula_sum "Si O2"
_cell_formula_units_Z 80
_cell_length_a 8.740108
_cell_length_b 18.906117
_cell_length_c 26.806582
_cell_angle_alpha 90.000000
_cell_angle_beta 90.000000
_cell_angle_gamma 90.000000
_cell_volume 4429.559939
_symmetry_space_group_name_H-M "C M M M"
_symmetry_group_IT_number 65
_symmetry_cell_setting 'orthorhombic'
loop_
_space_group_symop_operation_xyz
x,y,z
-x,-y,z
x,-y,-z
-x,y,-z
-x,-y,-z
x,y,-z
-x,y,z
x,-y,z
1/2+x,1/2+y,z
1/2-x,1/2-y,z
1/2+x,1/2-y,-z
1/2-x,1/2+y,-z
1/2-x,1/2-y,-z
1/2+x,1/2+y,-z
1/2-x,1/2+y,z
1/2+x,1/2-y,z
loop_
_atom_site_type_symbol
_atom_site_label
_atom_site_fract_x
_atom_site_fract_y
_atom_site_fract_z
Si Si1 0.683656 0.671231 0.596808
Si Si2 0.683206 0.670973 0.891439
Si Si3 0.816462 0.582910 0.800831
Si Si4 0.813721 0.081437 0.500000
Si Si5 0.184642 0.416928 0.687875
Si Si6 0.315660 0.329457 0.000000
O O1 0.500000 0.674953 0.596632
O O2 0.750000 0.750000 0.593542
O O3 0.733701 0.624148 0.549281
O O4 0.739913 0.631947 0.646533
O O5 0.500000 0.674662 0.889975
O O6 0.750000 0.750000 0.888443
O O7 0.741845 0.626699 0.844884
O O8 0.729879 0.639727 0.946048
O O9 0.780367 0.500000 0.806502
O O10 0.770130 0.603507 0.744446
O O11 0.000000 0.590548 0.803624
O O12 0.000000 0.079752 0.500000
O O13 0.760729 0.000000 0.500000
O O14 0.224095 0.500000 0.680382
O O15 0.000000 0.411741 0.684618
O O16 0.250000 0.250000 0.000000
O O17 0.500000 0.326198 0.000000
#
# Coordination Sequence:
#
# PCOD9486404 Si02
#       6
#    16  16  16   8  16   8
#     4  11  22  36  56  81 111 143 175 215 260 306
#     4  10  19  32  52  76 102 133 171 214 258 308
#     4   9  19  36  55  75 103 137 171 212 261 309
#     4   9  19  36  57  81 108 139 176 217 260 306
#     4   9  19  37  58  78 103 136 174 216 261 310
#     4   8  16  30  47  70  99 131 167 209 257 304
#
# _framework density 18.060485
#
# number of rings (size 3 to 8) (size 9 to 14) (size 15 to 20)
#    0.000    2.500    0.000    3.300    0.000    4.000 
#    0.000    4.000    0.000    6.600    0.000    0.000 
#    0.000    0.000    0.000    0.000    0.000    0.000 
#
# Total GULP energy -223068.397747 kJ/mol
# GULP energy per Si atom -5576.709944 kJ/mol
# Density = 1.801938 g / cm^3
# Si number density = 18.060485 Si / 1000 Ang^3
#
#
#
# Elastic Constant Matrix: (Units=GPa)
#
#
# Indices 1 2 3 4 5 6 
#
# 1 27.7102 40.5074 53.6296 0.0000 0.0000 0.0000
# 2 40.5074 107.8035 114.6231 0.0000 0.0000 0.0000
# 3 53.6296 114.6231 219.9051 0.0000 0.0000 0.0000
# 4 0.0000 0.0000 0.0000 35.8058 0.0000 0.0000
# 5 0.0000 0.0000 0.0000 0.0000 24.4251 0.0000
# 6 0.0000 0.0000 0.0000 0.0000 0.0000 18.2556
#
#
#
# Elastic Compliance Matrix: (Units=1/GPa)
#
#
# Indices 1 2 3 4 5 6 
#
# 1 0.088090 -0.023011 -0.009489 0.000000 0.000000 0.000000
# 2 -0.023011 0.026819 -0.008367 0.000000 0.000000 0.000000
# 3 -0.009489 -0.008367 0.011223 0.000000 0.000000 0.000000
# 4 0.000000 0.000000 0.000000 0.027928 0.000000 0.000000
# 5 0.000000 0.000000 0.000000 0.000000 0.040941 0.000000
# 6 0.000000 0.000000 0.000000 0.000000 0.000000 0.054778
#
#
# Mechanical properties :
#
#
# Convention : Reuss Voigt Hill
#
# Bulk Modulus (GPa) = 22.52356 85.88210 54.20283
# Shear Modulus (GPa) = 14.43775 25.47454 19.95614
#
# Velocity S-wave (km/s) = 2.83045 3.75975 3.32770
# Velocity P-wave (km/s) = 4.81458 8.15496 6.69640
#
# Compressibility (1/GPa) = 0.04439795
#
# Stress axis : x y z
#
# Youngs Moduli (GPa) = 11.35199 37.28651 89.10291
#
# Poissons Ratio (x) = 0.85800 0.84549
# Poissons Ratio (y) = 0.26122 0.74557
# Poissons Ratio (z) = 0.10772 0.31199
#
# Static dielectric constant tensor:
#      x y z
#    x 1.611200 0.000000 0.000000 
#    y 0.000000 1.575930 0.000000 
#    z 0.000000 0.000000 1.637970 
# 
# From -- ./inp_files/67353.got.cif
#   From: 2010.05.17/outbox.cif.g08.bks.cpg/sg65_34_cif.got.tgz:67353.got - 2010.06.03 17:01:31.
