data_PCOD9486702
_publ_section_title
;
Structure prediction by ZEFSAII (Michael W. Deem and Ramdas Pophale) SiO2 
 PCOD9486702
Probable space group: C M M M
;
_chemical_formula_sum "Si O2"
_cell_formula_units_Z 80
_cell_length_a 8.726480
_cell_length_b 29.316849
_cell_length_c 18.866401
_cell_angle_alpha 90.000000
_cell_angle_beta 90.000000
_cell_angle_gamma 90.000000
_cell_volume 4826.646014
_symmetry_space_group_name_H-M "C M M M"
_symmetry_group_IT_number 65
_symmetry_cell_setting 'orthorhombic'
loop_
_space_group_symop_operation_xyz
x,y,z
-x,-y,z
x,-y,-z
-x,y,-z
-x,-y,-z
x,y,-z
-x,y,z
x,-y,z
1/2+x,1/2+y,z
1/2-x,1/2-y,z
1/2+x,1/2-y,-z
1/2-x,1/2+y,-z
1/2-x,1/2-y,-z
1/2+x,1/2+y,-z
1/2-x,1/2+y,z
1/2+x,1/2-y,z
loop_
_atom_site_type_symbol
_atom_site_label
_atom_site_fract_x
_atom_site_fract_y
_atom_site_fract_z
Si Si1 0.315782 0.948248 0.850075
Si Si2 0.184208 0.801365 0.344537
Si Si3 0.827256 0.944640 0.000000
Si Si4 0.183933 0.356207 0.212861
Si Si5 0.184165 0.801022 0.500000
Si Si6 0.683940 0.301229 0.080164
O O1 0.500000 0.949595 0.852676
O O2 0.270477 0.909336 0.794739
O O3 0.260820 0.000000 0.835960
O O4 0.256981 0.933015 0.927383
O O5 0.250000 0.750000 0.337860
O O6 0.247536 0.831958 0.281436
O O7 0.229063 0.820201 0.422966
O O8 0.000000 0.798997 0.340280
O O9 0.000000 0.926382 0.000000
O O10 0.833589 0.000000 0.000000
O O11 0.243856 0.330952 0.142401
O O12 0.000000 0.353065 0.214876
O O13 0.250000 0.750000 0.500000
O O14 0.000000 0.798876 0.500000
O O15 0.500000 0.300077 0.087749
O O16 0.750000 0.250000 0.085895
O O17 0.719721 0.317825 0.000000
#
# Coordination Sequence:
#
# PCOD9486702 Si02
#       6
#    16  16   8  16   8  16
#     4   9  19  35  51  67  91 125 163 202 246 294
#     4  10  19  33  52  75 104 132 161 195 234 284
#     4   9  17  29  47  69  90 113 148 199 251 293
#     4  11  22  33  49  72  97 127 163 201 244 289
#     4   8  16  30  50  74  99 130 159 189 232 281
#     4  10  21  36  51  67  91 126 165 204 241 282
#
# _framework density 16.574656000000001
#
# number of rings (size 3 to 8) (size 9 to 14) (size 15 to 20)
#    0.000    2.300    0.000    2.700    1.400    4.800 
#    0.000    0.000    0.000    0.000    0.000    0.700 
#    0.000    5.600    0.000    0.000    0.000    0.000 
#
# Total GULP energy -223066.266099 kJ/mol
# GULP energy per Si atom -5576.656652 kJ/mol
# Density = 1.653693 g / cm^3
# Si number density = 16.574656 Si / 1000 Ang^3
#
#
#
# Elastic Constant Matrix: (Units=GPa)
#
#
# Indices 1 2 3 4 5 6 
#
# 1 39.8987 29.8988 42.7788 0.0000 0.0000 0.0000
# 2 29.8988 88.9827 79.2919 0.0000 0.0000 0.0000
# 3 42.7788 79.2919 152.8972 0.0000 0.0000 0.0000
# 4 0.0000 0.0000 0.0000 12.3524 0.0000 0.0000
# 5 0.0000 0.0000 0.0000 0.0000 8.1030 0.0000
# 6 0.0000 0.0000 0.0000 0.0000 0.0000 15.6925
#
#
#
# Elastic Compliance Matrix: (Units=1/GPa)
#
#
# Indices 1 2 3 4 5 6 
#
# 1 0.037472 -0.006039 -0.007352 0.000000 0.000000 0.000000
# 2 -0.006039 0.021867 -0.009650 0.000000 0.000000 0.000000
# 3 -0.007352 -0.009650 0.013602 0.000000 0.000000 0.000000
# 4 0.000000 0.000000 0.000000 0.080956 0.000000 0.000000
# 5 0.000000 0.000000 0.000000 0.000000 0.123411 0.000000
# 6 0.000000 0.000000 0.000000 0.000000 0.000000 0.063725
#
#
# Mechanical properties :
#
#
# Convention : Reuss Voigt Hill
#
# Bulk Modulus (GPa) = 37.23408 65.07974 51.15691
# Shear Modulus (GPa) = 12.62407 15.88351 14.25379
#
# Velocity S-wave (km/s) = 2.76279 3.09900 2.93571
# Velocity P-wave (km/s) = 5.71757 7.22184 6.51328
#
# Compressibility (1/GPa) = 0.02685712
#
# Stress axis : x y z
#
# Youngs Moduli (GPa) = 26.68651 45.73178 73.51852
#
# Poissons Ratio (x) = 0.27619 0.54053
# Poissons Ratio (y) = 0.16117 0.70947
# Poissons Ratio (z) = 0.19621 0.44132
#
# Static dielectric constant tensor:
#      x y z
#    x 1.559640 0.000000 0.000000 
#    y 0.000000 1.571540 0.000000 
#    z 0.000000 0.000000 1.562300 
# 
# From -- ./inp_files/49966.got.cif
#   From: 2010.05.17/outbox.cif.g08.bks.cpg/sg65_25_cif.got.tgz:49966.got - 2010.06.03 17:01:31.
