data_PCOD9486678
_publ_section_title
;
Structure prediction by ZEFSAII (Michael W. Deem and Ramdas Pophale) SiO2 
 PCOD9486678
Probable space group: C M M M
;
_chemical_formula_sum "Si O2"
_cell_formula_units_Z 112
_cell_length_a 30.543163
_cell_length_b 13.401081
_cell_length_c 14.123573
_cell_angle_alpha 90.000000
_cell_angle_beta 90.000000
_cell_angle_gamma 90.000000
_cell_volume 5780.939457
_symmetry_space_group_name_H-M "C M M M"
_symmetry_group_IT_number 65
_symmetry_cell_setting 'orthorhombic'
loop_
_space_group_symop_operation_xyz
x,y,z
-x,-y,z
x,-y,-z
-x,y,-z
-x,-y,-z
x,y,-z
-x,y,z
x,-y,z
1/2+x,1/2+y,z
1/2-x,1/2-y,z
1/2+x,1/2-y,-z
1/2-x,1/2+y,-z
1/2-x,1/2-y,-z
1/2+x,1/2+y,-z
1/2-x,1/2+y,z
1/2+x,1/2-y,z
loop_
_atom_site_type_symbol
_atom_site_label
_atom_site_fract_x
_atom_site_fract_y
_atom_site_fract_z
Si Si1 0.276119 0.114621 0.204056
Si Si2 0.949375 0.610495 0.114496
Si Si3 0.452432 0.384277 0.707886
Si Si4 0.311466 0.690200 0.886729
Si Si5 0.730852 0.620409 0.608537
Si Si6 0.910619 0.821129 0.112263
Si Si7 0.634175 0.617190 0.386454
O O1 0.305302 0.197793 0.153462
O O2 0.227869 0.125823 0.156641
O O3 0.267168 0.142985 0.313481
O O4 0.290930 0.000000 0.195892
O O5 0.935739 0.500000 0.148092
O O6 0.919464 0.704768 0.137375
O O7 0.000000 0.628001 0.144068
O O8 0.949901 0.606711 0.000000
O O9 0.500000 0.339286 0.686271
O O10 0.454162 0.500000 0.677441
O O11 0.443021 0.379976 0.819727
O O12 0.409341 0.337716 0.659686
O O13 0.360262 0.652059 0.866380
O O14 0.306451 0.693466 0.000000
O O15 0.740482 0.647319 0.500000
O O16 0.727340 0.500000 0.609438
O O17 0.682347 0.658419 0.636828
O O18 0.918283 0.834646 0.000000
O O19 0.630457 0.621181 0.500000
O O20 0.634923 0.500000 0.358546
#
# Coordination Sequence:
#
# PCOD9486678 Si02
#       7
#    16  16  16  16  16  16  16
#     4  10  19  33  52  69  92 123 151 192 244 282
#     4   8  14  26  45  66  84 106 142 187 233 275
#     4  10  20  31  45  69  98 127 159 189 221 272
#     4  10  22  35  46  67  93 120 163 203 230 278
#     4   8  14  26  47  73  95 118 151 188 230 283
#     4  10  20  33  47  63  91 127 156 190 233 272
#     4   8  14  26  44  66  93 123 155 192 229 264
#
# _framework density 19.374013000000001
#
# number of rings (size 3 to 8) (size 9 to 14) (size 15 to 20)
#    0.000    2.857    0.000    3.429    0.000    4.857 
#    0.000    6.429    0.000    0.857    0.000    0.000 
#    0.000    0.571    0.000    3.000    0.000    0.857 
#
# Total GULP energy -312082.963152 kJ/mol
# GULP energy per Si atom -5572.910056 kJ/mol
# Density = 1.932992 g / cm^3
# Si number density = 19.374013 Si / 1000 Ang^3
#
#
#
# Elastic Constant Matrix: (Units=GPa)
#
#
# Indices 1 2 3 4 5 6 
#
# 1 37.7060 3.7208 17.7903 0.0000 0.0000 0.0000
# 2 3.7208 45.0877 -5.1860 0.0000 0.0000 0.0000
# 3 17.7903 -5.1860 50.3904 0.0000 0.0000 0.0000
# 4 0.0000 0.0000 0.0000 -166.3491 0.0000 0.0000
# 5 0.0000 0.0000 0.0000 0.0000 14.8221 0.0000
# 6 0.0000 0.0000 0.0000 0.0000 0.0000 11.8871
#
#
#
# Elastic Compliance Matrix: (Units=1/GPa)
#
#
# Indices 1 2 3 4 5 6 
#
# 1 0.032538 -0.004054 -0.011905 0.000000 0.000000 0.000000
# 2 -0.004054 0.022950 0.003793 0.000000 0.000000 0.000000
# 3 -0.011905 0.003793 0.024438 0.000000 0.000000 0.000000
# 4 0.000000 0.000000 0.000000 -0.006011 0.000000 0.000000
# 5 0.000000 0.000000 0.000000 0.000000 0.067467 0.000000
# 6 0.000000 0.000000 0.000000 0.000000 0.000000 0.084124
#
#
# Mechanical properties :
#
#
# Convention : Reuss Voigt Hill
#
# Bulk Modulus (GPa) = 17.98739 18.42604 18.20672
# Shear Modulus (GPa) = 18.63106 -20.13737 -0.75316
#
# Velocity S-wave (km/s) = 3.10442 -3.22747 -0.62417
# Velocity P-wave (km/s) = 4.70684 2.08744 2.98303
#
# Compressibility (1/GPa) = 0.05559449
#
# Stress axis : x y z
#
# Youngs Moduli (GPa) = 30.73337 43.57324 40.91921
#
# Poissons Ratio (x) = 0.17666 0.48713
# Poissons Ratio (y) = 0.12461 -0.15522
# Poissons Ratio (z) = 0.36587 -0.16529
#
# Static dielectric constant tensor:
#      x y z
#    x 1.714060 0.000000 0.000000 
#    y 0.000000 1.712240 0.000000 
#    z 0.000000 0.000000 1.696080 
# 
# From -- ./inp_files/48006.got.cif
#   From: 2010.05.17/outbox.cif.g08.bks.cpg/sg65_25_cif.got.tgz:48006.got - 2010.06.03 17:01:31.
