data_PCOD9486318
_publ_section_title
;
Structure prediction by ZEFSAII (Michael W. Deem and Ramdas Pophale) SiO2 
 PCOD9486318
Probable space group: C M M M
;
_chemical_formula_sum "Si O2"
_cell_formula_units_Z 96
_cell_length_a 9.976946
_cell_length_b 14.286789
_cell_length_c 29.959105
_cell_angle_alpha 90.000000
_cell_angle_beta 90.000000
_cell_angle_gamma 90.000000
_cell_volume 4270.326558
_symmetry_space_group_name_H-M "C M M M"
_symmetry_group_IT_number 65
_symmetry_cell_setting 'orthorhombic'
loop_
_space_group_symop_operation_xyz
x,y,z
-x,-y,z
x,-y,-z
-x,y,-z
-x,-y,-z
x,y,-z
-x,y,z
x,-y,z
1/2+x,1/2+y,z
1/2-x,1/2-y,z
1/2+x,1/2-y,-z
1/2-x,1/2+y,-z
1/2-x,1/2-y,-z
1/2+x,1/2+y,-z
1/2-x,1/2+y,z
1/2+x,1/2-y,z
loop_
_atom_site_type_symbol
_atom_site_label
_atom_site_fract_x
_atom_site_fract_y
_atom_site_fract_z
Si Si1 0.500000 0.361957 0.449509
Si Si2 0.246495 0.862481 0.609398
Si Si3 0.345941 0.385898 0.129386
Si Si4 0.154660 0.385675 0.211894
Si Si5 0.651036 0.885834 0.051399
Si Si6 0.000000 0.365852 0.447974
Si Si7 0.152771 0.891133 0.290699
O O1 0.500000 0.393476 0.500000
O O2 0.374096 0.392857 0.421610
O O3 0.500000 0.248008 0.450315
O O4 0.250000 0.750000 0.610058
O O5 0.375595 0.894117 0.582442
O O6 0.217106 0.888951 0.660145
O O7 0.500000 0.353096 0.133668
O O8 0.351646 0.500000 0.129643
O O9 0.246536 0.359631 0.169654
O O10 0.270588 0.356988 0.084003
O O11 0.147016 0.500000 0.212150
O O12 0.238634 0.354687 0.255359
O O13 0.000000 0.352274 0.210436
O O14 0.500000 0.857253 0.065941
O O15 0.650378 0.000000 0.051973
O O16 0.670278 0.857190 0.000000
O O17 0.000000 0.395947 0.500000
O O18 0.000000 0.850414 0.290809
O O19 0.136612 0.000000 0.278479
#
# Coordination Sequence:
#
# PCOD9486318 Si02
#       7
#     8  16  16  16  16   8  16
#     4   9  16  30  51  73  97 123 155 189 222 265
#     4  10  19  32  51  75  99 123 153 189 228 271
#     4   9  15  22  33  49  70  97 133 178 222 266
#     4   9  17  28  42  59  78 106 144 183 224 270
#     4   8  13  20  29  42  63  93 129 172 222 270
#     4   9  18  30  49  75  97 121 153 191 226 261
#     4  10  20  34  50  68  93 123 155 191 232 276
#
# _framework density 22.480716000000001
#
# number of rings (size 3 to 8) (size 9 to 14) (size 15 to 20)
#    0.000    2.833    0.833    2.000    1.167    6.333 
#    0.000    1.667    0.000    3.000    0.000    0.000 
#    0.000    0.000    0.000    0.000    0.000    0.833 
#
# Total GULP energy -267986.823044 kJ/mol
# GULP energy per Si atom -5583.058813 kJ/mol
# Density = 2.242955 g / cm^3
# Si number density = 22.480716 Si / 1000 Ang^3
#
#
#
# Elastic Constant Matrix: (Units=GPa)
#
#
# Indices 1 2 3 4 5 6 
#
# 1 274.5684 8.2567 141.1138 0.0000 0.0000 0.0000
# 2 8.2567 81.0389 -5.2877 0.0000 0.0000 0.0000
# 3 141.1138 -5.2877 189.4305 0.0000 0.0000 0.0000
# 4 0.0000 0.0000 0.0000 14.4757 0.0000 0.0000
# 5 0.0000 0.0000 0.0000 0.0000 38.7302 0.0000
# 6 0.0000 0.0000 0.0000 0.0000 0.0000 -24.6821
#
#
#
# Elastic Compliance Matrix: (Units=1/GPa)
#
#
# Indices 1 2 3 4 5 6 
#
# 1 0.005966 -0.000900 -0.004470 0.000000 0.000000 0.000000
# 2 -0.000900 0.012498 0.001019 0.000000 0.000000 0.000000
# 3 -0.004470 0.001019 0.008637 0.000000 0.000000 0.000000
# 4 0.000000 0.000000 0.000000 0.069082 0.000000 0.000000
# 5 0.000000 0.000000 0.000000 0.000000 0.025820 0.000000
# 6 0.000000 0.000000 0.000000 0.000000 0.000000 -0.040515
#
#
# Mechanical properties :
#
#
# Convention : Reuss Voigt Hill
#
# Bulk Modulus (GPa) = 54.34547 92.57815 73.46181
# Shear Modulus (GPa) = 51.90969 32.43508 42.17239
#
# Velocity S-wave (km/s) = 4.81050 3.80254 4.33591
# Velocity P-wave (km/s) = 7.42168 7.78136 7.60365
#
# Compressibility (1/GPa) = 0.01840080
#
# Stress axis : x y z
#
# Youngs Moduli (GPa) = 167.60890 80.01358 115.78102
#
# Poissons Ratio (x) = 0.07197 0.51750
# Poissons Ratio (y) = 0.15077 -0.11797
# Poissons Ratio (z) = 0.74915 -0.08153
#
# Static dielectric constant tensor:
#      x y z
#    x 1.782700 0.000000 0.000000 
#    y 0.000000 1.947930 0.000000 
#    z 0.000000 0.000000 1.782460 
# 
# From -- ./inp_files/73509.got.cif
#   From: 2010.05.17/outbox.cif.g08.bks.cpg/sg65_37_cif.got.tgz:73509.got - 2010.06.03 17:01:31.
