data_PCOD9486240
_publ_section_title
;
Structure prediction by ZEFSAII (Michael W. Deem and Ramdas Pophale) SiO2 
 PCOD9486240
Probable space group: C M M M
;
_chemical_formula_sum "Si O2"
_cell_formula_units_Z 104
_cell_length_a 22.669258
_cell_length_b 8.890247
_cell_length_c 29.943971
_cell_angle_alpha 90.000000
_cell_angle_beta 90.000000
_cell_angle_gamma 90.000000
_cell_volume 6034.767266
_symmetry_space_group_name_H-M "C M M M"
_symmetry_group_IT_number 65
_symmetry_cell_setting 'orthorhombic'
loop_
_space_group_symop_operation_xyz
x,y,z
-x,-y,z
x,-y,-z
-x,y,-z
-x,-y,-z
x,y,-z
-x,y,z
x,-y,z
1/2+x,1/2+y,z
1/2-x,1/2-y,z
1/2+x,1/2-y,-z
1/2-x,1/2+y,-z
1/2-x,1/2-y,-z
1/2+x,1/2+y,-z
1/2-x,1/2+y,z
1/2+x,1/2-y,z
loop_
_atom_site_type_symbol
_atom_site_label
_atom_site_fract_x
_atom_site_fract_y
_atom_site_fract_z
Si Si1 0.571177 0.671221 0.201838
Si Si2 0.813059 0.318996 0.052718
Si Si3 0.571537 0.174059 0.293308
Si Si4 0.431383 0.181457 0.893702
Si Si5 0.186056 0.679814 0.548806
Si Si6 0.899722 0.178291 0.386753
Si Si7 0.500000 0.819312 0.448322
O O1 0.500000 0.664778 0.205583
O O2 0.593130 0.500000 0.199196
O O3 0.592081 0.753399 0.246724
O O4 0.582060 0.760204 0.156161
O O5 0.809072 0.500000 0.057493
O O6 0.750000 0.250000 0.068629
O O7 0.874983 0.270915 0.076114
O O8 0.817843 0.283149 0.000000
O O9 0.500000 0.178584 0.293929
O O10 0.592524 0.263331 0.336651
O O11 0.589261 0.000000 0.296108
O O12 0.500000 0.229714 0.905235
O O13 0.432580 0.000000 0.894343
O O14 0.155454 0.705715 0.500000
O O15 0.186357 0.500000 0.555466
O O16 0.250000 0.750000 0.544206
O O17 0.159789 0.765871 0.590793
O O18 0.945803 0.257361 0.419946
O O19 0.907013 0.000000 0.388032
O O20 0.500000 0.770768 0.500000
O O21 0.500000 0.000000 0.447504
#
# Coordination Sequence:
#
# PCOD9486240 Si02
#       7
#    16  16  16  16  16  16   8
#     4   9  17  29  47  72 102 132 166 209 257 306
#     4   9  18  32  50  73 103 141 182 222 264 315
#     4  10  19  32  51  73 102 137 172 207 251 308
#     4   9  17  30  49  74 103 135 175 220 268 317
#     4  10  21  38  58  77  98 127 166 209 251 299
#     4  12  23  34  52  77 105 134 167 207 253 305
#     4  11  23  37  51  71 103 139 171 205 250 303
#
# _framework density 17.233474000000001
#
# number of rings (size 3 to 8) (size 9 to 14) (size 15 to 20)
#    0.000    2.077    0.769    3.462    0.000    6.769 
#    0.000    1.538    0.000    0.923    0.000    8.615 
#    0.000    0.000    0.000    0.000    0.000    0.000 
#
# Total GULP energy -289644.343455 kJ/mol
# GULP energy per Si atom -5570.083528 kJ/mol
# Density = 1.719425 g / cm^3
# Si number density = 17.233474 Si / 1000 Ang^3
#
#
#
# Elastic Constant Matrix: (Units=GPa)
#
#
# Indices 1 2 3 4 5 6 
#
# 1 83.6322 25.0251 58.4356 0.0000 0.0000 0.0000
# 2 25.0251 64.3746 40.1246 0.0000 0.0000 0.0000
# 3 58.4356 40.1246 115.9336 0.0000 0.0000 0.0000
# 4 0.0000 0.0000 0.0000 18.5372 0.0000 0.0000
# 5 0.0000 0.0000 0.0000 0.0000 16.4753 0.0000
# 6 0.0000 0.0000 0.0000 0.0000 0.0000 21.5269
#
#
#
# Elastic Compliance Matrix: (Units=1/GPa)
#
#
# Indices 1 2 3 4 5 6 
#
# 1 0.018614 -0.001770 -0.008770 0.000000 0.000000 0.000000
# 2 -0.001770 0.019975 -0.006021 0.000000 0.000000 0.000000
# 3 -0.008770 -0.006021 0.015130 0.000000 0.000000 0.000000
# 4 0.000000 0.000000 0.000000 0.053946 0.000000 0.000000
# 5 0.000000 0.000000 0.000000 0.000000 0.060697 0.000000
# 6 0.000000 0.000000 0.000000 0.000000 0.000000 0.046453
#
#
# Mechanical properties :
#
#
# Convention : Reuss Voigt Hill
#
# Bulk Modulus (GPa) = 48.54984 56.79009 52.66997
# Shear Modulus (GPa) = 19.62293 20.66488 20.14391
#
# Velocity S-wave (km/s) = 3.37805 3.46658 3.42260
# Velocity P-wave (km/s) = 6.59151 7.00341 6.80058
#
# Compressibility (1/GPa) = 0.02059739
#
# Stress axis : x y z
#
# Youngs Moduli (GPa) = 53.72162 50.06208 66.09370
#
# Poissons Ratio (x) = 0.08861 0.57964
# Poissons Ratio (y) = 0.09508 0.39797
# Poissons Ratio (z) = 0.47114 0.30144
#
# Static dielectric constant tensor:
#      x y z
#    x 1.706580 0.000000 0.000000 
#    y 0.000000 1.578730 0.000000 
#    z 0.000000 0.000000 1.573780 
# 
# From -- ./inp_files/73553.got.cif
#   From: 2010.05.17/outbox.cif.g08.bks.cpg/sg65_37_cif.got.tgz:73553.got - 2010.06.03 17:01:31.
