data_PCOD9486664
_publ_section_title
;
Structure prediction by ZEFSAII (Michael W. Deem and Ramdas Pophale) SiO2 
 PCOD9486664
Probable space group: C M M M
;
_chemical_formula_sum "Si O2"
_cell_formula_units_Z 120
_cell_length_a 29.185298
_cell_length_b 8.725091
_cell_length_c 28.988503
_cell_angle_alpha 90.000000
_cell_angle_beta 90.000000
_cell_angle_gamma 90.000000
_cell_volume 7381.759400
_symmetry_space_group_name_H-M "C M M M"
_symmetry_group_IT_number 65
_symmetry_cell_setting 'orthorhombic'
loop_
_space_group_symop_operation_xyz
x,y,z
-x,-y,z
x,-y,-z
-x,y,-z
-x,-y,-z
x,y,-z
-x,y,z
x,-y,z
1/2+x,1/2+y,z
1/2-x,1/2-y,z
1/2+x,1/2-y,-z
1/2-x,1/2+y,-z
1/2-x,1/2-y,-z
1/2+x,1/2+y,-z
1/2-x,1/2+y,z
1/2+x,1/2-y,z
loop_
_atom_site_type_symbol
_atom_site_label
_atom_site_fract_x
_atom_site_fract_y
_atom_site_fract_z
Si Si1 0.801184 0.183924 0.500000
Si Si2 0.645222 0.817747 0.311661
Si Si3 0.552219 0.316417 0.280751
Si Si4 0.447737 0.683302 0.171152
Si Si5 0.801770 0.184825 0.398639
Si Si6 0.698780 0.683457 0.776474
Si Si7 0.800345 0.183190 0.053780
Si Si8 0.856020 0.318332 0.863433
O O1 0.750000 0.250000 0.500000
O O2 0.820593 0.227732 0.449861
O O3 0.798663 0.000000 0.500000
O O4 0.592210 0.769700 0.307292
O O5 0.667861 0.753342 0.358046
O O6 0.671531 0.743771 0.268123
O O7 0.650165 0.000000 0.309570
O O8 0.500000 0.275394 0.293617
O O9 0.557411 0.500000 0.286687
O O10 0.557502 0.285432 0.225929
O O11 0.500000 0.722383 0.158323
O O12 0.441835 0.500000 0.165236
O O13 0.408671 0.771347 0.143951
O O14 0.750000 0.250000 0.394733
O O15 0.800116 0.000000 0.394901
O O16 0.700059 0.500000 0.775728
O O17 0.750000 0.750000 0.776053
O O18 0.672571 0.739913 0.822112
O O19 0.750000 0.250000 0.064293
O O20 0.836214 0.257199 0.088541
O O21 0.799570 0.000000 0.059704
O O22 0.810180 0.217087 0.000000
O O23 0.850415 0.500000 0.860230
#
# Coordination Sequence:
#
# PCOD9486664 Si02
#       8
#     8  16  16  16  16  16  16  16
#     4   8  16  30  50  72  95 128 173 218 258 301
#     4  12  23  34  49  75 106 138 173 209 256 309
#     4   9  18  34  55  76 100 134 173 214 258 303
#     4   9  18  34  56  79 104 136 174 214 257 305
#     4  10  19  33  51  73 102 137 175 216 259 305
#     4  12  24  38  52  70 102 140 177 213 252 302
#     4  10  21  38  59  81 106 138 176 217 259 304
#     4  12  23  35  54  81 109 138 172 211 258 309
#
# _framework density 16.256285999999999
#
# number of rings (size 3 to 8) (size 9 to 14) (size 15 to 20)
#    0.000    1.600    1.333    6.000    0.000    1.867 
#    0.000    1.333    0.000    0.400    0.000    3.267 
#    0.000    3.733    0.000    0.000    0.000    0.000 
#
# Total GULP energy -335053.042210 kJ/mol
# GULP energy per Si atom -5584.217370 kJ/mol
# Density = 1.621929 g / cm^3
# Si number density = 16.256286 Si / 1000 Ang^3
#
#
#
# Elastic Constant Matrix: (Units=GPa)
#
#
# Indices 1 2 3 4 5 6 
#
# 1 114.6367 61.9973 66.8242 0.0000 0.0000 0.0000
# 2 61.9973 106.7849 59.0431 0.0000 0.0000 0.0000
# 3 66.8242 59.0431 100.4614 0.0000 0.0000 0.0000
# 4 0.0000 0.0000 0.0000 18.2532 0.0000 0.0000
# 5 0.0000 0.0000 0.0000 0.0000 4.6204 0.0000
# 6 0.0000 0.0000 0.0000 0.0000 0.0000 30.1602
#
#
#
# Elastic Compliance Matrix: (Units=1/GPa)
#
#
# Indices 1 2 3 4 5 6 
#
# 1 0.015867 -0.005002 -0.007615 0.000000 0.000000 0.000000
# 2 -0.005002 0.015449 -0.005753 0.000000 0.000000 0.000000
# 3 -0.007615 -0.005753 0.018400 0.000000 0.000000 0.000000
# 4 0.000000 0.000000 0.000000 0.054785 0.000000 0.000000
# 5 0.000000 0.000000 0.000000 0.000000 0.216432 0.000000
# 6 0.000000 0.000000 0.000000 0.000000 0.000000 0.033156
#
#
# Mechanical properties :
#
#
# Convention : Reuss Voigt Hill
#
# Bulk Modulus (GPa) = 77.05351 77.51249 77.28300
# Shear Modulus (GPa) = 12.65329 19.54130 16.09729
#
# Velocity S-wave (km/s) = 2.79294 3.47086 3.15019
# Velocity P-wave (km/s) = 7.60939 7.99047 7.80225
#
# Compressibility (1/GPa) = 0.01297799
#
# Stress axis : x y z
#
# Youngs Moduli (GPa) = 63.02374 64.72724 54.34726
#
# Poissons Ratio (x) = 0.32376 0.41384
# Poissons Ratio (y) = 0.31524 0.31265
# Poissons Ratio (z) = 0.47990 0.37237
#
# Static dielectric constant tensor:
#      x y z
#    x 1.529770 0.000000 0.000000 
#    y 0.000000 1.542500 0.000000 
#    z 0.000000 0.000000 1.541540 
# 
# From -- ./inp_files/76185.got.cif
#   From: 2010.05.17/outbox.cif.g08.bks.cpg/sg65_39_cif.got.tgz:76185.got - 2010.06.03 17:01:31.
