data_PCOD9486272
_publ_section_title
;
Structure prediction by ZEFSAII (Michael W. Deem and Ramdas Pophale) SiO2 
 PCOD9486272
Probable space group: C M M M
;
_chemical_formula_sum "Si O2"
_cell_formula_units_Z 80
_cell_length_a 26.311954
_cell_length_b 19.028728
_cell_length_c 7.544584
_cell_angle_alpha 90.000000
_cell_angle_beta 90.000000
_cell_angle_gamma 90.000000
_cell_volume 3777.445070
_symmetry_space_group_name_H-M "C M M M"
_symmetry_group_IT_number 65
_symmetry_cell_setting 'orthorhombic'
loop_
_space_group_symop_operation_xyz
x,y,z
-x,-y,z
x,-y,-z
-x,y,-z
-x,-y,-z
x,y,-z
-x,y,z
x,-y,z
1/2+x,1/2+y,z
1/2-x,1/2-y,z
1/2+x,1/2-y,-z
1/2-x,1/2+y,-z
1/2-x,1/2-y,-z
1/2+x,1/2+y,-z
1/2-x,1/2+y,z
1/2+x,1/2-y,z
loop_
_atom_site_type_symbol
_atom_site_label
_atom_site_fract_x
_atom_site_fract_y
_atom_site_fract_z
Si Si1 0.906423 0.673250 0.293839
Si Si2 0.000000 0.419465 0.282207
Si Si3 0.696283 0.580177 0.713344
Si Si4 0.000000 0.919019 0.716250
Si Si5 0.599548 0.332041 0.717522
Si Si6 0.188240 0.419892 0.209387
O O1 0.919803 0.682748 0.500000
O O2 0.950238 0.622674 0.221037
O O3 0.904186 0.751793 0.219230
O O4 0.852852 0.633507 0.284203
O O5 0.000000 0.500000 0.223153
O O6 0.000000 0.421690 0.500000
O O7 0.693300 0.578202 0.500000
O O8 0.689169 0.500000 0.778020
O O9 0.651525 0.630648 0.776385
O O10 0.753534 0.602126 0.759445
O O11 0.949419 0.877440 0.770821
O O12 0.000000 0.919847 0.500000
O O13 0.000000 0.000000 0.774609
O O14 0.600403 0.331666 0.500000
O O15 0.182371 0.500000 0.280095
O O16 0.179638 0.422554 0.000000
#
# Coordination Sequence:
#
# PCOD9486272 Si02
#       6
#    16   8  16   8  16  16
#     4  10  19  32  51  74 102 132 162 201 247 294
#     4   9  17  29  48  73  96 122 160 199 236 285
#     4   9  17  31  51  73  98 130 167 203 240 287
#     4   9  15  25  45  74 108 139 164 198 246 293
#     4   9  17  28  45  73 105 133 163 201 245 291
#     4  10  21  36  52  71  96 127 166 209 249 292
#
# _framework density 21.178336000000002
#
# number of rings (size 3 to 8) (size 9 to 14) (size 15 to 20)
#    0.000    2.600    0.000    2.400    0.000    7.600 
#    0.000    5.500    0.000    1.800    0.000    2.100 
#    0.000    6.400    0.000    0.000    0.000    0.000 
#
# Total GULP energy -223393.657865 kJ/mol
# GULP energy per Si atom -5584.841447 kJ/mol
# Density = 2.113013 g / cm^3
# Si number density = 21.178336 Si / 1000 Ang^3
#
#
#
# Elastic Constant Matrix: (Units=GPa)
#
#
# Indices 1 2 3 4 5 6 
#
# 1 171.3209 136.4380 -11.4819 0.0000 0.0000 0.0000
# 2 136.4380 196.7156 -0.0117 0.0000 0.0000 0.0000
# 3 -11.4819 -0.0117 48.8654 0.0000 0.0000 0.0000
# 4 0.0000 0.0000 0.0000 -2.9080 0.0000 0.0000
# 5 0.0000 0.0000 0.0000 0.0000 -72.2972 0.0000
# 6 0.0000 0.0000 0.0000 0.0000 0.0000 -318.4330
#
#
#
# Elastic Compliance Matrix: (Units=1/GPa)
#
#
# Indices 1 2 3 4 5 6 
#
# 1 0.013514 -0.009373 0.003173 0.000000 0.000000 0.000000
# 2 -0.009373 0.011584 -0.002200 0.000000 0.000000 0.000000
# 3 0.003173 -0.002200 0.021209 0.000000 0.000000 0.000000
# 4 0.000000 0.000000 0.000000 -0.343885 0.000000 0.000000
# 5 0.000000 0.000000 0.000000 0.000000 -0.013832 0.000000
# 6 0.000000 0.000000 0.000000 0.000000 0.000000 -0.003140
#
#
# Mechanical properties :
#
#
# Convention : Reuss Voigt Hill
#
# Bulk Modulus (GPa) = 33.88783 74.08785 53.98784
# Shear Modulus (GPa) = -17.36631 -59.26378 -38.31504
#
# Velocity S-wave (km/s) = -2.86668 -5.29565 -4.25804
# Velocity P-wave (km/s) = 2.25362 1.52747 1.17168
#
# Compressibility (1/GPa) = 0.02950912
#
# Stress axis : x y z
#
# Youngs Moduli (GPa) = 73.99621 86.32399 47.14880
#
# Poissons Ratio (x) = 0.80911 -0.14961
# Poissons Ratio (y) = 0.69357 0.10371
# Poissons Ratio (z) = -0.23480 0.18988
#
# Static dielectric constant tensor:
#      x y z
#    x 1.715900 0.000000 0.000000 
#    y 0.000000 1.738880 0.000000 
#    z 0.000000 0.000000 1.788080 
# 
# From -- ./inp_files/16114.got.cif
#   From: 2010.05.17/outbox.cif.g08.bks.cpg/sg65_9_cif.got.tgz:16114.got - 2010.06.03 17:01:31.
