data_PCOD9486014
_publ_section_title
;
Structure prediction by ZEFSAII (Michael W. Deem and Ramdas Pophale) SiO2 
 PCOD9486014
Probable space group: C M M M
;
_chemical_formula_sum "Si O2"
_cell_formula_units_Z 72
_cell_length_a 14.580543
_cell_length_b 29.953292
_cell_length_c 7.454233
_cell_angle_alpha 90.000000
_cell_angle_beta 90.000000
_cell_angle_gamma 90.000000
_cell_volume 3255.526402
_symmetry_space_group_name_H-M "C M M M"
_symmetry_group_IT_number 65
_symmetry_cell_setting 'orthorhombic'
loop_
_space_group_symop_operation_xyz
x,y,z
-x,-y,z
x,-y,-z
-x,y,-z
-x,-y,-z
x,y,-z
-x,y,z
x,-y,z
1/2+x,1/2+y,z
1/2-x,1/2-y,z
1/2+x,1/2-y,-z
1/2-x,1/2+y,-z
1/2-x,1/2-y,-z
1/2+x,1/2+y,-z
1/2-x,1/2+y,z
1/2+x,1/2-y,z
loop_
_atom_site_type_symbol
_atom_site_label
_atom_site_fract_x
_atom_site_fract_y
_atom_site_fract_z
Si Si1 0.887967 0.226324 0.792651
Si Si2 0.397046 0.000000 0.711508
Si Si3 0.286816 0.910106 0.213768
Si Si4 0.393207 0.177209 0.219732
Si Si5 0.396160 0.627505 0.780087
O O1 0.857544 0.274197 0.717844
O O2 0.866729 0.177408 0.718723
O O3 0.000000 0.228244 0.792468
O O4 0.857236 0.225212 0.000000
O O5 0.340724 0.044474 0.755280
O O6 0.500000 0.000000 0.791037
O O7 0.406982 0.000000 0.500000
O O8 0.339940 0.866376 0.282379
O O9 0.181703 0.907107 0.276482
O O10 0.283389 0.904660 0.000000
O O11 0.500000 0.172955 0.269254
O O12 0.390177 0.178531 0.000000
O O13 0.500000 0.618465 0.721118
O O14 0.399224 0.629025 0.000000
#
# Coordination Sequence:
#
# PCOD9486014 Si02
#       5
#    16   8  16  16  16
#     4   7  10  18  33  58  99 141 163 183 226 279
#     4  11  25  43  58  71  92 122 153 193 252 313
#     4  10  19  31  52  78  99 125 164 207 245 280
#     4   8  13  21  36  64 100 131 160 197 238 278
#     4   8  14  25  42  69 106 140 165 192 231 279
#
# _framework density 22.116240000000001
#
# number of rings (size 3 to 8) (size 9 to 14) (size 15 to 20)
#    0.000    3.444    0.000    3.667    0.000    2.667 
#    0.000    5.000    0.000    4.000    0.000    3.111 
#    0.000    5.333    0.000    0.000    0.000    0.000 
#
# Total GULP energy -200778.959295 kJ/mol
# GULP energy per Si atom -5577.193314 kJ/mol
# Density = 2.206590 g / cm^3
# Si number density = 22.116240 Si / 1000 Ang^3
#
#
#
# Elastic Constant Matrix: (Units=GPa)
#
#
# Indices 1 2 3 4 5 6 
#
# 1 157.2878 115.8463 6.1205 0.0000 0.0000 0.0000
# 2 115.8463 149.1425 0.1898 0.0000 0.0000 0.0000
# 3 6.1205 0.1898 61.5166 0.0000 0.0000 0.0000
# 4 0.0000 0.0000 0.0000 -399.3524 0.0000 0.0000
# 5 0.0000 0.0000 0.0000 0.0000 -38.8497 0.0000
# 6 0.0000 0.0000 0.0000 0.0000 0.0000 40.0664
#
#
#
# Elastic Compliance Matrix: (Units=1/GPa)
#
#
# Indices 1 2 3 4 5 6 
#
# 1 0.014987 -0.011639 -0.001455 0.000000 0.000000 0.000000
# 2 -0.011639 0.015744 0.001109 0.000000 0.000000 0.000000
# 3 -0.001455 0.001109 0.016397 0.000000 0.000000 0.000000
# 4 0.000000 0.000000 0.000000 -0.002504 0.000000 0.000000
# 5 0.000000 0.000000 0.000000 0.000000 -0.025740 0.000000
# 6 0.000000 0.000000 0.000000 0.000000 0.000000 0.024959
#
#
# Mechanical properties :
#
#
# Convention : Reuss Voigt Hill
#
# Bulk Modulus (GPa) = 43.18073 68.02888 55.60481
# Shear Modulus (GPa) = 66.19669 -63.24112 1.47779
#
# Velocity S-wave (km/s) = 5.47688 -5.35322 0.81832
# Velocity P-wave (km/s) = 7.71763 2.71713 5.10779
#
# Compressibility (1/GPa) = 0.02315848
#
# Stress axis : x y z
#
# Youngs Moduli (GPa) = 66.72436 63.51460 60.98627
#
# Poissons Ratio (x) = 0.73927 0.08875
# Poissons Ratio (y) = 0.77663 -0.06766
# Poissons Ratio (z) = 0.09710 -0.07047
#
# Static dielectric constant tensor:
#      x y z
#    x 1.848280 0.000000 0.000000 
#    y 0.000000 1.897330 0.000000 
#    z 0.000000 0.000000 1.863750 
# 
# From -- ./inp_files/7672.got.cif
#   From: 2010.05.17/outbox.cif.g08.bks.cpg/sg65_4_cif.got.tgz:7672.got - 2010.06.03 17:01:31.
