data_PCOD9486630
_publ_section_title
;
Structure prediction by ZEFSAII (Michael W. Deem and Ramdas Pophale) SiO2 
 PCOD9486630
Probable space group: C M M M
;
_chemical_formula_sum "Si O2"
_cell_formula_units_Z 80
_cell_length_a 29.133412
_cell_length_b 9.340444
_cell_length_c 21.124049
_cell_angle_alpha 90.000000
_cell_angle_beta 90.000000
_cell_angle_gamma 90.000000
_cell_volume 5748.255160
_symmetry_space_group_name_H-M "C M M M"
_symmetry_group_IT_number 65
_symmetry_cell_setting 'orthorhombic'
loop_
_space_group_symop_operation_xyz
x,y,z
-x,-y,z
x,-y,-z
-x,y,-z
-x,-y,-z
x,y,-z
-x,y,z
x,-y,z
1/2+x,1/2+y,z
1/2-x,1/2-y,z
1/2+x,1/2-y,-z
1/2-x,1/2+y,-z
1/2-x,1/2-y,-z
1/2+x,1/2+y,-z
1/2-x,1/2+y,z
1/2+x,1/2-y,z
loop_
_atom_site_type_symbol
_atom_site_label
_atom_site_fract_x
_atom_site_fract_y
_atom_site_fract_z
Si Si1 0.445695 0.169868 0.751985
Si Si2 0.444132 0.664909 0.374671
Si Si3 0.396609 0.827945 0.116253
Si Si4 0.555974 0.834726 0.500000
Si Si5 0.795950 0.329599 0.925302
Si Si6 0.054863 0.830262 0.000000
O O1 0.500000 0.197170 0.763113
O O2 0.430668 0.258473 0.690580
O O3 0.417796 0.204589 0.815301
O O4 0.440916 0.000000 0.739138
O O5 0.500000 0.665993 0.375446
O O6 0.429396 0.500000 0.377264
O O7 0.429198 0.752418 0.436611
O O8 0.342752 0.791914 0.110608
O O9 0.423541 0.744678 0.061565
O O10 0.401079 0.000000 0.105469
O O11 0.500000 0.834070 0.500000
O O12 0.570439 0.000000 0.500000
O O13 0.789144 0.500000 0.920417
O O14 0.750000 0.250000 0.904020
O O15 0.803155 0.295846 0.000000
O O16 0.000000 0.811134 0.000000
O O17 0.064765 0.000000 0.000000
#
# Coordination Sequence:
#
# PCOD9486630 Si02
#       6
#    16  16  16   8  16   8
#     4   9  17  28  42  59  79 107 142 175 206 242
#     4   9  16  25  37  54  78 107 137 170 208 246
#     4  10  19  33  49  63  80 108 144 177 210 254
#     4   9  15  23  37  55  75 101 138 179 208 235
#     4   9  17  30  47  66  84 102 130 170 216 263
#     4  11  23  33  42  61  86 109 138 177 216 251
#
# _framework density 13.917267000000001
#
# number of rings (size 3 to 8) (size 9 to 14) (size 15 to 20)
#    0.000    2.600    1.000    1.800    0.000    6.800 
#    0.000    2.000    0.000    0.000    0.000    0.000 
#    0.000    0.000    0.000    0.900    0.000   10.900 
#
# Total GULP energy -222915.866049 kJ/mol
# GULP energy per Si atom -5572.896651 kJ/mol
# Density = 1.388559 g / cm^3
# Si number density = 13.917267 Si / 1000 Ang^3
#
#
#
# Elastic Constant Matrix: (Units=GPa)
#
#
# Indices 1 2 3 4 5 6 
#
# 1 67.5495 45.3523 55.8827 0.0000 0.0000 0.0000
# 2 45.3523 78.7587 80.7945 0.0000 0.0000 0.0000
# 3 55.8827 80.7945 136.3971 0.0000 0.0000 0.0000
# 4 0.0000 0.0000 0.0000 13.0769 0.0000 0.0000
# 5 0.0000 0.0000 0.0000 0.0000 1.9334 0.0000
# 6 0.0000 0.0000 0.0000 0.0000 0.0000 17.2698
#
#
#
# Elastic Compliance Matrix: (Units=1/GPa)
#
#
# Indices 1 2 3 4 5 6 
#
# 1 0.025127 -0.009962 -0.004394 0.000000 0.000000 0.000000
# 2 -0.009962 0.036311 -0.017428 0.000000 0.000000 0.000000
# 3 -0.004394 -0.017428 0.019455 0.000000 0.000000 0.000000
# 4 0.000000 0.000000 0.000000 0.076471 0.000000 0.000000
# 5 0.000000 0.000000 0.000000 0.000000 0.517236 0.000000
# 6 0.000000 0.000000 0.000000 0.000000 0.000000 0.057905
#
#
# Mechanical properties :
#
#
# Convention : Reuss Voigt Hill
#
# Bulk Modulus (GPa) = 57.71316 71.86272 64.78794
# Shear Modulus (GPa) = 6.23560 13.16772 9.70166
#
# Velocity S-wave (km/s) = 2.11901 3.07928 2.64312
# Velocity P-wave (km/s) = 6.89534 8.02436 7.48118
#
# Compressibility (1/GPa) = 0.01732707
#
# Stress axis : x y z
#
# Youngs Moduli (GPa) = 39.79740 27.53949 51.40059
#
# Poissons Ratio (x) = 0.27434 0.22586
# Poissons Ratio (y) = 0.39645 0.89579
# Poissons Ratio (z) = 0.17487 0.47995
#
# Static dielectric constant tensor:
#      x y z
#    x 1.430240 0.000000 0.000000 
#    y 0.000000 1.466440 0.000000 
#    z 0.000000 0.000000 1.443040 
# 
# From -- ./inp_files/60539.got.cif
#   From: 2010.05.17/outbox.cif.g08.bks.cpg/sg65_31_cif.got.tgz:60539.got - 2010.06.03 17:01:31.
