data_PCOD9486899
_publ_section_title
;
Structure prediction by ZEFSAII (Michael W. Deem and Ramdas Pophale) SiO2 
 PCOD9486899
Probable space group: C M M M
;
_chemical_formula_sum "Si O2"
_cell_formula_units_Z 64
_cell_length_a 14.575465
_cell_length_b 15.310231
_cell_length_c 12.495510
_cell_angle_alpha 90.000000
_cell_angle_beta 90.000000
_cell_angle_gamma 90.000000
_cell_volume 2788.419741
_symmetry_space_group_name_H-M "C M M M"
_symmetry_group_IT_number 65
_symmetry_cell_setting 'orthorhombic'
loop_
_space_group_symop_operation_xyz
x,y,z
-x,-y,z
x,-y,-z
-x,y,-z
-x,-y,-z
x,y,-z
-x,y,z
x,-y,z
1/2+x,1/2+y,z
1/2-x,1/2-y,z
1/2+x,1/2-y,-z
1/2-x,1/2+y,-z
1/2-x,1/2-y,-z
1/2+x,1/2+y,-z
1/2-x,1/2+y,z
1/2+x,1/2-y,z
loop_
_atom_site_type_symbol
_atom_site_label
_atom_site_fract_x
_atom_site_fract_y
_atom_site_fract_z
Si Si1 0.130134 0.094205 0.261932
Si Si2 0.859000 0.903690 0.500000
Si Si3 0.361643 0.758725 0.877351
Si Si4 0.351010 0.100024 0.290041
Si Si5 0.608050 0.213617 0.500000
O O1 0.095035 0.094932 0.383550
O O2 0.104011 0.175688 0.190000
O O3 0.240404 0.098521 0.279030
O O4 0.108448 0.000000 0.212630
O O5 0.830267 0.801658 0.500000
O O6 0.807046 0.000000 0.500000
O O7 0.250000 0.750000 0.877863
O O8 0.385582 0.845933 0.812245
O O9 0.391436 0.759201 0.000000
O O10 0.374420 0.155018 0.395544
O O11 0.382855 0.000000 0.296045
O O12 0.500000 0.239215 0.500000
#
# Coordination Sequence:
#
# PCOD9486899 Si02
#       5
#    16   8  16  16   8
#     4   9  17  30  52  80 106 133 162 202 261 318
#     4  10  19  33  54  79 102 125 161 207 261 321
#     4   9  17  29  48  76 107 137 166 200 248 308
#     4  10  20  33  50  75 106 137 169 209 255 304
#     4  12  24  36  53  74  99 137 178 218 259 298
#
# _framework density 22.952069000000002
#
# number of rings (size 3 to 8) (size 9 to 14) (size 15 to 20)
#    0.000    2.250    2.500    1.125    0.000    5.250 
#    0.000    5.000    0.000    0.750    0.000    1.750 
#    0.000    4.000    0.000    0.000    0.000    0.000 
#
# Total GULP energy -178589.009497 kJ/mol
# GULP energy per Si atom -5580.906547 kJ/mol
# Density = 2.289983 g / cm^3
# Si number density = 22.952069 Si / 1000 Ang^3
#
#
#
# Elastic Constant Matrix: (Units=GPa)
#
#
# Indices 1 2 3 4 5 6 
#
# 1 91.8815 19.7344 2.5021 0.0000 0.0000 0.0000
# 2 19.7344 257.4787 111.1678 0.0000 0.0000 0.0000
# 3 2.5021 111.1678 195.6363 0.0000 0.0000 0.0000
# 4 0.0000 0.0000 0.0000 17.8646 0.0000 0.0000
# 5 0.0000 0.0000 0.0000 0.0000 -80.5611 0.0000
# 6 0.0000 0.0000 0.0000 0.0000 0.0000 -14.9220
#
#
#
# Elastic Compliance Matrix: (Units=1/GPa)
#
#
# Indices 1 2 3 4 5 6 
#
# 1 0.011096 -0.001046 0.000452 0.000000 0.000000 0.000000
# 2 -0.001046 0.005245 -0.002967 0.000000 0.000000 0.000000
# 3 0.000452 -0.002967 0.006792 0.000000 0.000000 0.000000
# 4 0.000000 0.000000 0.000000 0.055977 0.000000 0.000000
# 5 0.000000 0.000000 0.000000 0.000000 -0.012413 0.000000
# 6 0.000000 0.000000 0.000000 0.000000 0.000000 -0.067015
#
#
# Mechanical properties :
#
#
# Convention : Reuss Voigt Hill
#
# Bulk Modulus (GPa) = 62.45435 90.20056 76.32746
# Shear Modulus (GPa) = 411.89030 11.91577 211.90304
#
# Velocity S-wave (km/s) = 13.41068 2.28098 9.61897
# Velocity P-wave (km/s) = 16.34212 6.80603 12.51773
#
# Compressibility (1/GPa) = 0.01601170
#
# Stress axis : x y z
#
# Youngs Moduli (GPa) = 90.12360 190.65789 147.23817
#
# Poissons Ratio (x) = 0.19938 -0.06660
# Poissons Ratio (y) = 0.09424 0.43686
# Poissons Ratio (z) = -0.04076 0.56569
#
# Static dielectric constant tensor:
#      x y z
#    x 1.943550 0.000000 0.000000 
#    y 0.000000 1.852320 0.000000 
#    z 0.000000 0.000000 1.784580 
# 
# From -- ./inp_files/26115.got.cif
#   From: 2010.05.17/outbox.cif.g08.bks.cpg/sg65_14_cif.got.tgz:26115.got - 2010.06.03 17:01:31.
