data_PCOD9486349
_publ_section_title
;
Structure prediction by ZEFSAII (Michael W. Deem and Ramdas Pophale) SiO2 
 PCOD9486349
Probable space group: C M M M
;
_chemical_formula_sum "Si O2"
_cell_formula_units_Z 80
_cell_length_a 22.587885
_cell_length_b 13.866433
_cell_length_c 13.285987
_cell_angle_alpha 90.000000
_cell_angle_beta 90.000000
_cell_angle_gamma 90.000000
_cell_volume 4161.349080
_symmetry_space_group_name_H-M "C M M M"
_symmetry_group_IT_number 65
_symmetry_cell_setting 'orthorhombic'
loop_
_space_group_symop_operation_xyz
x,y,z
-x,-y,z
x,-y,-z
-x,y,-z
-x,-y,-z
x,y,-z
-x,y,z
x,-y,z
1/2+x,1/2+y,z
1/2-x,1/2-y,z
1/2+x,1/2-y,-z
1/2-x,1/2+y,-z
1/2-x,1/2-y,-z
1/2+x,1/2+y,-z
1/2-x,1/2+y,z
1/2+x,1/2-y,z
loop_
_atom_site_type_symbol
_atom_site_label
_atom_site_fract_x
_atom_site_fract_y
_atom_site_fract_z
Si Si1 0.432551 0.267078 0.192468
Si Si2 0.141080 0.383954 0.702690
Si Si3 0.428064 0.390409 0.000000
Si Si4 0.931925 0.616655 0.500000
Si Si5 0.738220 0.383681 0.613565
Si Si6 0.399557 0.616264 0.615406
O O1 0.500000 0.236102 0.172622
O O2 0.390989 0.175727 0.211070
O O3 0.432098 0.330829 0.294394
O O4 0.411232 0.333161 0.100443
O O5 0.138236 0.500000 0.715680
O O6 0.104764 0.359099 0.600208
O O7 0.209293 0.353372 0.686848
O O8 0.405882 0.500000 0.000000
O O9 0.500000 0.394804 0.000000
O O10 0.935086 0.500000 0.500000
O O11 0.000000 0.652176 0.500000
O O12 0.755022 0.355229 0.500000
O O13 0.739253 0.500000 0.614925
O O14 0.670042 0.358376 0.629919
O O15 0.416132 0.642275 0.500000
O O16 0.406036 0.500000 0.623155
#
# Coordination Sequence:
#
# PCOD9486349 Si02
#       6
#    16  16   8   8  16  16
#     4  11  23  36  55  81 106 137 182 225 273 331
#     4  10  19  32  51  77 112 150 183 218 256 306
#     4   9  20  42  65  78  95 133 186 236 274 323
#     4   9  16  26  42  67 105 151 184 207 245 295
#     4   8  14  29  51  74 106 150 191 216 249 311
#     4   9  19  34  53  80 112 141 174 225 280 327
#
# _framework density 19.224536000000001
#
# number of rings (size 3 to 8) (size 9 to 14) (size 15 to 20)
#    0.000    2.600    1.000    2.400    1.400    3.600 
#    0.000    3.500    0.000    4.200    0.000    4.200 
#    0.000    0.000    0.000    0.000    0.000    0.000 
#
# Total GULP energy -223311.777058 kJ/mol
# GULP energy per Si atom -5582.794426 kJ/mol
# Density = 1.918078 g / cm^3
# Si number density = 19.224536 Si / 1000 Ang^3
#
#
#
# Elastic Constant Matrix: (Units=GPa)
#
#
# Indices 1 2 3 4 5 6 
#
# 1 73.9200 13.3222 20.3705 0.0000 0.0000 0.0000
# 2 13.3222 81.5862 39.1236 0.0000 0.0000 0.0000
# 3 20.3705 39.1236 85.1085 0.0000 0.0000 0.0000
# 4 0.0000 0.0000 0.0000 29.1378 0.0000 0.0000
# 5 0.0000 0.0000 0.0000 0.0000 8.7781 0.0000
# 6 0.0000 0.0000 0.0000 0.0000 0.0000 26.6578
#
#
#
# Elastic Compliance Matrix: (Units=1/GPa)
#
#
# Indices 1 2 3 4 5 6 
#
# 1 0.014535 -0.000905 -0.003063 0.000000 0.000000 0.000000
# 2 -0.000905 0.015779 -0.007037 0.000000 0.000000 0.000000
# 3 -0.003063 -0.007037 0.015718 0.000000 0.000000 0.000000
# 4 0.000000 0.000000 0.000000 0.034320 0.000000 0.000000
# 5 0.000000 0.000000 0.000000 0.000000 0.113920 0.000000
# 6 0.000000 0.000000 0.000000 0.000000 0.000000 0.037512
#
#
# Mechanical properties :
#
#
# Convention : Reuss Voigt Hill
#
# Bulk Modulus (GPa) = 41.62735 42.91638 42.27186
# Shear Modulus (GPa) = 19.09841 24.10128 21.59985
#
# Velocity S-wave (km/s) = 3.15531 3.54457 3.35559
# Velocity P-wave (km/s) = 5.91395 6.25493 6.08683
#
# Compressibility (1/GPa) = 0.02402267
#
# Stress axis : x y z
#
# Youngs Moduli (GPa) = 68.79803 63.37447 63.62233
#
# Poissons Ratio (x) = 0.05733 0.19489
# Poissons Ratio (y) = 0.06223 0.44771
# Poissons Ratio (z) = 0.21074 0.44597
#
# Static dielectric constant tensor:
#      x y z
#    x 1.684370 0.000000 0.000000 
#    y 0.000000 1.732760 0.000000 
#    z 0.000000 0.000000 1.631600 
# 
# From -- ./inp_files/30414.got.cif
#   From: 2010.05.17/outbox.cif.g08.bks.cpg/sg65_16_cif.got.tgz:30414.got - 2010.06.03 17:01:31.
