data_PCOD9486414
_publ_section_title
;
Structure prediction by ZEFSAII (Michael W. Deem and Ramdas Pophale) SiO2 
 PCOD9486414
Probable space group: C M M M
;
_chemical_formula_sum "Si O2"
_cell_formula_units_Z 112
_cell_length_a 16.432704
_cell_length_b 13.982357
_cell_length_c 23.744829
_cell_angle_alpha 90.000000
_cell_angle_beta 90.000000
_cell_angle_gamma 90.000000
_cell_volume 5455.800298
_symmetry_space_group_name_H-M "C M M M"
_symmetry_group_IT_number 65
_symmetry_cell_setting 'orthorhombic'
loop_
_space_group_symop_operation_xyz
x,y,z
-x,-y,z
x,-y,-z
-x,y,-z
-x,-y,-z
x,y,-z
-x,y,z
x,-y,z
1/2+x,1/2+y,z
1/2-x,1/2-y,z
1/2+x,1/2-y,-z
1/2-x,1/2+y,-z
1/2-x,1/2-y,-z
1/2+x,1/2+y,-z
1/2-x,1/2+y,z
1/2+x,1/2-y,z
loop_
_atom_site_type_symbol
_atom_site_label
_atom_site_fract_x
_atom_site_fract_y
_atom_site_fract_z
Si Si1 0.411911 0.113737 0.431780
Si Si2 0.402731 0.217275 0.936840
Si Si3 0.176624 0.391089 0.832864
Si Si4 0.595660 0.387743 0.346616
Si Si5 0.133310 0.890624 0.863390
Si Si6 0.733669 0.615741 0.564351
Si Si7 0.091200 0.760792 0.761301
O O1 0.410890 0.121788 0.500000
O O2 0.500000 0.153910 0.412027
O O3 0.322542 0.149762 0.413677
O O4 0.413942 0.000000 0.418946
O O5 0.500000 0.208752 0.935816
O O6 0.366586 0.148865 0.888991
O O7 0.380012 0.324591 0.917711
O O8 0.373453 0.196293 0.000000
O O9 0.152687 0.500000 0.821506
O O10 0.272136 0.387631 0.845730
O O11 0.151500 0.321712 0.782005
O O12 0.500000 0.378927 0.361518
O O13 0.608526 0.500000 0.330799
O O14 0.656609 0.364227 0.397020
O O15 0.613276 0.318283 0.294532
O O16 0.089354 0.837716 0.811971
O O17 0.108216 0.000000 0.870970
O O18 0.720957 0.647699 0.500000
O O19 0.739974 0.500000 0.562440
O O20 0.000000 0.720570 0.754872
#
# Coordination Sequence:
#
# PCOD9486414 Si02
#       7
#    16  16  16  16  16  16  16
#     4   7   9  14  26  46  74 112 164 223 270 307
#     4  10  21  35  52  78 113 151 187 223 266 319
#     4  10  21  36  55  79 105 137 182 233 283 333
#     4   9  17  27  40  64  99 140 187 233 278 334
#     4  10  20  34  54  79 107 141 181 223 270 324
#     4   8  13  21  34  56  92 140 186 223 268 330
#     4  10  19  32  52  76 105 140 179 229 284 332
#
# _framework density 20.528611000000001
#
# number of rings (size 3 to 8) (size 9 to 14) (size 15 to 20)
#    0.000    2.857    0.000    5.143    0.000    4.857 
#    0.000    4.286    0.000    0.000    0.000    8.000 
#    0.000   21.143    0.000    6.571    0.000    3.000 
#
# Total GULP energy -312502.323373 kJ/mol
# GULP energy per Si atom -5580.398632 kJ/mol
# Density = 2.048189 g / cm^3
# Si number density = 20.528611 Si / 1000 Ang^3
#
#
#
# Elastic Constant Matrix: (Units=GPa)
#
#
# Indices 1 2 3 4 5 6 
#
# 1 107.8960 37.2808 65.6770 0.0000 0.0000 0.0000
# 2 37.2808 106.0478 31.9463 0.0000 0.0000 0.0000
# 3 65.6770 31.9463 82.9402 0.0000 0.0000 0.0000
# 4 0.0000 0.0000 0.0000 3.4864 0.0000 0.0000
# 5 0.0000 0.0000 0.0000 0.0000 81.0268 0.0000
# 6 0.0000 0.0000 0.0000 0.0000 0.0000 -6.9104
#
#
#
# Elastic Compliance Matrix: (Units=1/GPa)
#
#
# Indices 1 2 3 4 5 6 
#
# 1 0.018397 -0.002352 -0.013662 0.000000 0.000000 0.000000
# 2 -0.002352 0.010968 -0.002362 0.000000 0.000000 0.000000
# 3 -0.013662 -0.002362 0.023785 0.000000 0.000000 0.000000
# 4 0.000000 0.000000 0.000000 0.286826 0.000000 0.000000
# 5 0.000000 0.000000 0.000000 0.000000 0.012342 0.000000
# 6 0.000000 0.000000 0.000000 0.000000 0.000000 -0.144709
#
#
# Mechanical properties :
#
#
# Convention : Reuss Voigt Hill
#
# Bulk Modulus (GPa) = 60.98291 62.96582 61.97436
# Shear Modulus (GPa) = 20.01386 26.31921 23.16654
#
# Velocity S-wave (km/s) = 3.12577 3.58449 3.36296
# Velocity P-wave (km/s) = 6.54202 6.91883 6.73306
#
# Compressibility (1/GPa) = 0.01639804
#
# Stress axis : x y z
#
# Youngs Moduli (GPa) = 54.35702 91.17335 42.04310
#
# Poissons Ratio (x) = 0.21442 0.57439
# Poissons Ratio (y) = 0.12784 0.09932
# Poissons Ratio (z) = 0.74262 0.21538
#
# Static dielectric constant tensor:
#      x y z
#    x 1.760570 0.000000 0.000000 
#    y 0.000000 1.740280 0.000000 
#    z 0.000000 0.000000 1.702810 
# 
# From -- ./inp_files/70023.got.cif
#   From: 2010.05.17/outbox.cif.g08.bks.cpg/sg65_36_cif.got.tgz:70023.got - 2010.06.03 17:01:31.
