data_PCOD9486790
_publ_section_title
;
Structure prediction by ZEFSAII (Michael W. Deem and Ramdas Pophale) SiO2 
 PCOD9486790
Probable space group: C M M M
;
_chemical_formula_sum "Si O2"
_cell_formula_units_Z 80
_cell_length_a 28.614224
_cell_length_b 8.834214
_cell_length_c 18.560792
_cell_angle_alpha 90.000000
_cell_angle_beta 90.000000
_cell_angle_gamma 90.000000
_cell_volume 4691.874554
_symmetry_space_group_name_H-M "C M M M"
_symmetry_group_IT_number 65
_symmetry_cell_setting 'orthorhombic'
loop_
_space_group_symop_operation_xyz
x,y,z
-x,-y,z
x,-y,-z
-x,y,-z
-x,-y,-z
x,y,-z
-x,y,z
x,-y,z
1/2+x,1/2+y,z
1/2-x,1/2-y,z
1/2+x,1/2-y,-z
1/2-x,1/2+y,-z
1/2-x,1/2-y,-z
1/2+x,1/2+y,-z
1/2-x,1/2+y,z
1/2+x,1/2-y,z
loop_
_atom_site_type_symbol
_atom_site_label
_atom_site_fract_x
_atom_site_fract_y
_atom_site_fract_z
Si Si1 0.608172 0.816807 0.856436
Si Si2 0.109888 0.180510 0.419846
Si Si3 0.946098 0.317467 0.287947
Si Si4 0.199520 0.818965 0.915960
Si Si5 0.553278 0.184261 0.000000
Si Si6 0.801297 0.818274 0.500000
O O1 0.580656 0.769610 0.784793
O O2 0.659356 0.747651 0.865593
O O3 0.579520 0.768994 0.927518
O O4 0.611380 0.000000 0.856598
O O5 0.089131 0.210472 0.500000
O O6 0.082639 0.262233 0.356998
O O7 0.164698 0.223343 0.432432
O O8 0.108153 0.000000 0.408084
O O9 0.947021 0.500000 0.287771
O O10 0.000000 0.264503 0.289026
O O11 0.250000 0.750000 0.898846
O O12 0.201012 0.000000 0.911274
O O13 0.189176 0.777652 0.000000
O O14 0.500000 0.236540 0.000000
O O15 0.552782 0.000000 0.000000
O O16 0.750000 0.750000 0.500000
O O17 0.797573 0.000000 0.500000
#
# Coordination Sequence:
#
# PCOD9486790 Si02
#       6
#    16  16  16  16   8   8
#     4  10  19  33  53  77 106 140 179 221 264 313
#     4   8  18  36  55  78 106 139 179 216 256 315
#     4  10  21  35  52  79 112 141 176 222 265 308
#     4  10  20  34  54  78 104 134 174 222 271 320
#     4   9  16  28  50  75  98 135 182 221 260 307
#     4   8  16  32  55  82 107 133 170 213 255 308
#
# _framework density 17.050754999999999
#
# number of rings (size 3 to 8) (size 9 to 14) (size 15 to 20)
#    0.600    2.100    1.000    1.200    0.000    6.000 
#    0.000    3.000    0.000    4.800    0.000    0.000 
#    0.000    0.000    0.000    0.000    0.000    0.000 
#
# Total GULP energy -222746.006084 kJ/mol
# GULP energy per Si atom -5568.650152 kJ/mol
# Density = 1.701195 g / cm^3
# Si number density = 17.050755 Si / 1000 Ang^3
#
#
#
# Elastic Constant Matrix: (Units=GPa)
#
#
# Indices 1 2 3 4 5 6 
#
# 1 173.3556 37.4832 90.7110 0.0000 0.0000 0.0000
# 2 37.4832 16.5278 29.3030 0.0000 0.0000 0.0000
# 3 90.7110 29.3030 123.8599 0.0000 0.0000 0.0000
# 4 0.0000 0.0000 0.0000 20.2328 0.0000 0.0000
# 5 0.0000 0.0000 0.0000 0.0000 28.0187 0.0000
# 6 0.0000 0.0000 0.0000 0.0000 0.0000 26.8798
#
#
#
# Elastic Compliance Matrix: (Units=1/GPa)
#
#
# Indices 1 2 3 4 5 6 
#
# 1 0.012474 -0.020830 -0.004208 0.000000 0.000000 0.000000
# 2 -0.020830 0.139000 -0.017630 0.000000 0.000000 0.000000
# 3 -0.004208 -0.017630 0.015326 0.000000 0.000000 0.000000
# 4 0.000000 0.000000 0.000000 0.049425 0.000000 0.000000
# 5 0.000000 0.000000 0.000000 0.000000 0.035690 0.000000
# 6 0.000000 0.000000 0.000000 0.000000 0.000000 0.037203
#
#
# Mechanical properties :
#
#
# Convention : Reuss Voigt Hill
#
# Bulk Modulus (GPa) = 12.27511 69.85975 41.06743
# Shear Modulus (GPa) = 12.44996 25.44267 18.94631
#
# Velocity S-wave (km/s) = 2.70510 3.86706 3.33704
# Velocity P-wave (km/s) = 4.11965 7.81021 6.24383
#
# Compressibility (1/GPa) = 0.08146569
#
# Stress axis : x y z
#
# Youngs Moduli (GPa) = 80.16663 7.19424 65.24803
#
# Poissons Ratio (x) = 0.14985 0.27454
# Poissons Ratio (y) = 1.66984 1.15032
# Poissons Ratio (z) = 0.33731 0.12683
#
# Static dielectric constant tensor:
#      x y z
#    x 1.574890 0.000000 0.000000 
#    y 0.000000 1.572240 0.000000 
#    z 0.000000 0.000000 1.566930 
# 
# From -- ./inp_files/57916.got.cif
#   From: 2010.05.17/outbox.cif.g08.bks.cpg/sg65_29_cif.got.tgz:57916.got - 2010.06.03 17:01:31.
