data_PCOD9486490
_publ_section_title
;
Structure prediction by ZEFSAII (Michael W. Deem and Ramdas Pophale) SiO2 
 PCOD9486490
Probable space group: C M M M
;
_chemical_formula_sum "Si O2"
_cell_formula_units_Z 96
_cell_length_a 19.979371
_cell_length_b 11.779737
_cell_length_c 18.355962
_cell_angle_alpha 90.000000
_cell_angle_beta 90.000000
_cell_angle_gamma 90.000000
_cell_volume 4320.107519
_symmetry_space_group_name_H-M "C M M M"
_symmetry_group_IT_number 65
_symmetry_cell_setting 'orthorhombic'
loop_
_space_group_symop_operation_xyz
x,y,z
-x,-y,z
x,-y,-z
-x,y,-z
-x,-y,-z
x,y,-z
-x,y,z
x,-y,z
1/2+x,1/2+y,z
1/2-x,1/2-y,z
1/2+x,1/2-y,-z
1/2-x,1/2+y,-z
1/2-x,1/2-y,-z
1/2+x,1/2+y,-z
1/2-x,1/2+y,z
1/2+x,1/2-y,z
loop_
_atom_site_type_symbol
_atom_site_label
_atom_site_fract_x
_atom_site_fract_y
_atom_site_fract_z
Si Si1 0.247751 0.375360 0.213182
Si Si2 0.604180 0.626359 0.276907
Si Si3 0.581926 0.000000 0.086088
Si Si4 0.075628 0.267290 0.417659
Si Si5 0.922409 0.734577 0.863311
Si Si6 0.417738 0.373233 0.000000
Si Si7 0.208526 0.630108 0.369523
O O1 0.243491 0.500000 0.176184
O O2 0.250000 0.250000 0.175590
O O3 0.317287 0.379606 0.258950
O O4 0.197188 0.369056 0.281727
O O5 0.577007 0.500000 0.266173
O O6 0.588185 0.672217 0.356406
O O7 0.578826 0.710818 0.215069
O O8 0.608002 0.889044 0.126998
O O9 0.500000 0.000000 0.089157
O O10 0.598407 0.000000 0.000000
O O11 0.079519 0.222278 0.500000
O O12 0.136419 0.354377 0.406525
O O13 0.000000 0.312982 0.407110
O O14 0.893728 0.813650 0.926527
O O15 0.000000 0.722701 0.883553
O O16 0.393702 0.500000 0.000000
O O17 0.500000 0.375885 0.000000
O O18 0.234693 0.500000 0.386910
O O19 0.250000 0.750000 0.386604
#
# Coordination Sequence:
#
# PCOD9486490 Si02
#       7
#    16  16   8  16  16   8  16
#     4   9  17  35  61  87 115 150 202 263 322 376
#     4  11  22  39  60  88 127 168 213 267 324 387
#     4   9  16  32  54  78 119 167 211 259 307 368
#     4  11  25  43  62  90 131 176 220 273 339 401
#     4  10  19  32  52  81 119 164 205 250 312 374
#     4   9  16  27  47  77 112 152 199 242 293 370
#     4  10  20  41  69  95 123 161 217 275 333 400
#
# _framework density 22.22167
#
# number of rings (size 3 to 8) (size 9 to 14) (size 15 to 20)
#    0.000    2.000    4.167    1.000    0.000    3.333 
#    3.000    1.667    0.000    0.000    0.000    0.583 
#    0.000    0.000    0.000    0.000    0.000    0.000 
#
# Total GULP energy -267380.059716 kJ/mol
# GULP energy per Si atom -5570.417911 kJ/mol
# Density = 2.217109 g / cm^3
# Si number density = 22.221670 Si / 1000 Ang^3
#
#
#
# Elastic Constant Matrix: (Units=GPa)
#
#
# Indices 1 2 3 4 5 6 
#
# 1 55.8700 31.5860 -5.6882 0.0000 0.0000 0.0000
# 2 31.5860 238.1413 71.7245 0.0000 0.0000 0.0000
# 3 -5.6882 71.7245 78.6986 0.0000 0.0000 0.0000
# 4 0.0000 0.0000 0.0000 42.6654 0.0000 0.0000
# 5 0.0000 0.0000 0.0000 0.0000 52.8844 0.0000
# 6 0.0000 0.0000 0.0000 0.0000 0.0000 12.9004
#
#
#
# Elastic Compliance Matrix: (Units=1/GPa)
#
#
# Indices 1 2 3 4 5 6 
#
# 1 0.020994 -0.004468 0.005589 0.000000 0.000000 0.000000
# 2 -0.004468 0.006739 -0.006465 0.000000 0.000000 0.000000
# 3 0.005589 -0.006465 0.019002 0.000000 0.000000 0.000000
# 4 0.000000 0.000000 0.000000 0.023438 0.000000 0.000000
# 5 0.000000 0.000000 0.000000 0.000000 0.018909 0.000000
# 6 0.000000 0.000000 0.000000 0.000000 0.000000 0.077517
#
#
# Mechanical properties :
#
#
# Convention : Reuss Voigt Hill
#
# Bulk Modulus (GPa) = 27.74029 63.10607 45.42318
# Shear Modulus (GPa) = 26.41281 40.02919 33.22100
#
# Velocity S-wave (km/s) = 3.45136 4.24885 3.87069
# Velocity P-wave (km/s) = 5.32851 7.24778 6.36095
#
# Compressibility (1/GPa) = 0.03604865
#
# Stress axis : x y z
#
# Youngs Moduli (GPa) = 47.63334 148.39357 52.62486
#
# Poissons Ratio (x) = 0.66302 -0.29414
# Poissons Ratio (y) = 0.21282 0.34020
# Poissons Ratio (z) = -0.26624 0.95930
#
# Static dielectric constant tensor:
#      x y z
#    x 1.964190 0.000000 0.000000 
#    y 0.000000 1.921550 0.000000 
#    z 0.000000 0.000000 1.925910 
# 
# From -- ./inp_files/56701.got.cif
#   From: 2010.05.17/outbox.cif.g08.bks.cpg/sg65_29_cif.got.tgz:56701.got - 2010.06.03 17:01:31.
