data_PCOD9486777
_publ_section_title
;
Structure prediction by ZEFSAII (Michael W. Deem and Ramdas Pophale) SiO2 
 PCOD9486777
Probable space group: C M M M
;
_chemical_formula_sum "Si O2"
_cell_formula_units_Z 104
_cell_length_a 15.151528
_cell_length_b 18.452872
_cell_length_c 21.468905
_cell_angle_alpha 90.000000
_cell_angle_beta 90.000000
_cell_angle_gamma 90.000000
_cell_volume 6002.474120
_symmetry_space_group_name_H-M "C M M M"
_symmetry_group_IT_number 65
_symmetry_cell_setting 'orthorhombic'
loop_
_space_group_symop_operation_xyz
x,y,z
-x,-y,z
x,-y,-z
-x,y,-z
-x,-y,-z
x,y,-z
-x,y,z
x,-y,z
1/2+x,1/2+y,z
1/2-x,1/2-y,z
1/2+x,1/2-y,-z
1/2-x,1/2+y,-z
1/2-x,1/2-y,-z
1/2+x,1/2+y,-z
1/2-x,1/2+y,z
1/2+x,1/2-y,z
loop_
_atom_site_type_symbol
_atom_site_label
_atom_site_fract_x
_atom_site_fract_y
_atom_site_fract_z
Si Si1 0.334858 0.195921 0.070521
Si Si2 0.738078 0.417049 0.848479
Si Si3 0.603281 0.212313 0.300653
Si Si4 0.228054 0.580980 0.703610
Si Si5 0.896672 0.862699 0.635421
Si Si6 0.606780 0.582765 0.500000
Si Si7 0.099139 0.792760 0.824595
O O1 0.250000 0.250000 0.068617
O O2 0.302845 0.121609 0.102439
O O3 0.398696 0.237539 0.117691
O O4 0.366610 0.186481 0.000000
O O5 0.716860 0.500000 0.865513
O O6 0.776975 0.417865 0.778692
O O7 0.655084 0.363043 0.842238
O O8 0.500000 0.191650 0.292826
O O9 0.663649 0.144756 0.318219
O O10 0.608301 0.277598 0.349680
O O11 0.634928 0.248899 0.235365
O O12 0.204230 0.500000 0.682286
O O13 0.327830 0.597886 0.681192
O O14 0.868811 0.879765 0.564790
O O15 0.000000 0.884847 0.644391
O O16 0.638673 0.500000 0.500000
O O17 0.500000 0.581336 0.500000
O O18 0.000000 0.814450 0.808211
#
# Coordination Sequence:
#
# PCOD9486777 Si02
#       7
#    16  16  16  16  16   8  16
#     4   9  18  33  53  73  97 135 181 217 254 317
#     4  10  20  32  50  77 107 138 173 215 270 328
#     4  10  20  35  54  77 106 144 187 230 269 316
#     4  11  21  33  53  79 109 145 183 226 272 323
#     4  10  20  34  57  85 111 146 180 214 268 323
#     4   9  18  34  53  80 122 154 175 213 264 324
#     4  10  19  33  53  76 105 137 174 221 270 320
#
# _framework density 17.326188999999999
#
# number of rings (size 3 to 8) (size 9 to 14) (size 15 to 20)
#    0.000    2.077    3.077    0.923    0.000    2.154 
#    0.000    3.077    0.000    0.462    0.000    5.385 
#    0.000    4.923    0.000    0.000    0.000    0.000 
#
# Total GULP energy -289819.811864 kJ/mol
# GULP energy per Si atom -5573.457920 kJ/mol
# Density = 1.728675 g / cm^3
# Si number density = 17.326189 Si / 1000 Ang^3
#
#
#
# Elastic Constant Matrix: (Units=GPa)
#
#
# Indices 1 2 3 4 5 6 
#
# 1 42.6642 37.5166 9.7496 0.0000 0.0000 0.0000
# 2 37.5166 132.0004 38.0434 0.0000 0.0000 0.0000
# 3 9.7496 38.0434 98.9992 0.0000 0.0000 0.0000
# 4 0.0000 0.0000 0.0000 14.0760 0.0000 0.0000
# 5 0.0000 0.0000 0.0000 0.0000 15.1265 0.0000
# 6 0.0000 0.0000 0.0000 0.0000 0.0000 14.5134
#
#
#
# Elastic Compliance Matrix: (Units=1/GPa)
#
#
# Indices 1 2 3 4 5 6 
#
# 1 0.031261 -0.008994 0.000377 0.000000 0.000000 0.000000
# 2 -0.008994 0.011107 -0.003382 0.000000 0.000000 0.000000
# 3 0.000377 -0.003382 0.011364 0.000000 0.000000 0.000000
# 4 0.000000 0.000000 0.000000 0.071043 0.000000 0.000000
# 5 0.000000 0.000000 0.000000 0.000000 0.066109 0.000000
# 6 0.000000 0.000000 0.000000 0.000000 0.000000 0.068902
#
#
# Mechanical properties :
#
#
# Convention : Reuss Voigt Hill
#
# Bulk Modulus (GPa) = 33.63113 49.36479 41.49796
# Shear Modulus (GPa) = 17.02449 21.30011 19.16230
#
# Velocity S-wave (km/s) = 3.13803 3.51003 3.32923
# Velocity P-wave (km/s) = 5.70809 6.70674 6.22746
#
# Compressibility (1/GPa) = 0.02973436
#
# Stress axis : x y z
#
# Youngs Moduli (GPa) = 31.98852 90.03564 87.99949
#
# Poissons Ratio (x) = 0.80976 -0.03322
# Poissons Ratio (y) = 0.28770 0.29765
# Poissons Ratio (z) = -0.01207 0.30453
#
# Static dielectric constant tensor:
#      x y z
#    x 1.595040 0.000000 0.000000 
#    y 0.000000 1.584210 0.000000 
#    z 0.000000 0.000000 1.598600 
# 
# From -- ./inp_files/62873.got.cif
#   From: 2010.05.17/outbox.cif.g08.bks.cpg/sg65_32_cif.got.tgz:62873.got - 2010.06.03 17:01:31.
