data_PCOD9486443
_publ_section_title
;
Structure prediction by ZEFSAII (Michael W. Deem and Ramdas Pophale) SiO2 
 PCOD9486443
Probable space group: C M M M
;
_chemical_formula_sum "Si O2"
_cell_formula_units_Z 88
_cell_length_a 15.470627
_cell_length_b 29.443206
_cell_length_c 8.732395
_cell_angle_alpha 90.000000
_cell_angle_beta 90.000000
_cell_angle_gamma 90.000000
_cell_volume 3977.648342
_symmetry_space_group_name_H-M "C M M M"
_symmetry_group_IT_number 65
_symmetry_cell_setting 'orthorhombic'
loop_
_space_group_symop_operation_xyz
x,y,z
-x,-y,z
x,-y,-z
-x,y,-z
-x,-y,-z
x,y,-z
-x,y,z
x,-y,z
1/2+x,1/2+y,z
1/2-x,1/2-y,z
1/2+x,1/2-y,-z
1/2-x,1/2+y,-z
1/2-x,1/2-y,-z
1/2+x,1/2+y,-z
1/2-x,1/2+y,z
1/2+x,1/2-y,z
loop_
_atom_site_type_symbol
_atom_site_label
_atom_site_fract_x
_atom_site_fract_y
_atom_site_fract_z
Si Si1 0.831979 0.144965 0.317544
Si Si2 0.649719 0.736937 0.819719
Si Si3 0.359305 0.824961 0.674194
Si Si4 0.598269 0.053426 0.000000
Si Si5 0.902840 0.425657 0.668685
Si Si6 0.604074 0.449782 0.818461
O O1 0.835737 0.143274 0.500000
O O2 0.880260 0.190422 0.259329
O O3 0.733827 0.156637 0.269173
O O4 0.859755 0.096122 0.255272
O O5 0.750000 0.750000 0.777185
O O6 0.604218 0.783534 0.770881
O O7 0.646175 0.729966 0.000000
O O8 0.348286 0.807841 0.500000
O O9 0.410797 0.871413 0.668577
O O10 0.639610 0.063835 0.833657
O O11 0.500000 0.074263 0.000000
O O12 0.589624 0.000000 0.000000
O O13 0.863883 0.437800 0.500000
O O14 0.000000 0.445653 0.672548
O O15 0.500000 0.448748 0.799423
O O16 0.633862 0.500000 0.761683
O O17 0.622220 0.448180 0.000000
#
# Coordination Sequence:
#
# PCOD9486443 Si02
#       6
#    16  16  16   8  16  16
#     4  10  19  32  52  77 105 134 169 215 260 310
#     4   9  17  29  48  74 101 135 175 211 251 306
#     4   9  18  32  50  74 104 138 173 213 261 310
#     4   9  18  32  50  72  95 124 169 215 251 300
#     4   9  18  33  52  73 101 138 175 214 262 312
#     4   9  19  37  58  77 101 135 173 215 265 321
#
# _framework density 22.123625000000001
#
# number of rings (size 3 to 8) (size 9 to 14) (size 15 to 20)
#    0.000    2.818    0.000    1.636    1.273    4.000 
#    0.000    4.545    0.000    6.545    0.000    0.000 
#    0.000    0.000    0.000    0.000    0.000    0.000 
#
# Total GULP energy -245011.692160 kJ/mol
# GULP energy per Si atom -5568.447549 kJ/mol
# Density = 2.207327 g / cm^3
# Si number density = 22.123625 Si / 1000 Ang^3
#
#
#
# Elastic Constant Matrix: (Units=GPa)
#
#
# Indices 1 2 3 4 5 6 
#
# 1 21.4797 25.5106 14.7818 0.0000 0.0000 0.0000
# 2 25.5106 207.3426 74.6392 0.0000 0.0000 0.0000
# 3 14.7818 74.6392 108.5372 0.0000 0.0000 0.0000
# 4 0.0000 0.0000 0.0000 60.7715 0.0000 0.0000
# 5 0.0000 0.0000 0.0000 0.0000 -14.6799 0.0000
# 6 0.0000 0.0000 0.0000 0.0000 0.0000 41.4556
#
#
#
# Elastic Compliance Matrix: (Units=1/GPa)
#
#
# Indices 1 2 3 4 5 6 
#
# 1 0.055688 -0.005477 -0.003818 0.000000 0.000000 0.000000
# 2 -0.005477 0.006948 -0.004032 0.000000 0.000000 0.000000
# 3 -0.003818 -0.004032 0.012506 0.000000 0.000000 0.000000
# 4 0.000000 0.000000 0.000000 0.016455 0.000000 0.000000
# 5 0.000000 0.000000 0.000000 0.000000 -0.068120 0.000000
# 6 0.000000 0.000000 0.000000 0.000000 0.000000 0.024122
#
#
# Mechanical properties :
#
#
# Convention : Reuss Voigt Hill
#
# Bulk Modulus (GPa) = 20.62355 63.02475 41.82415
# Shear Modulus (GPa) = 55.29930 32.33797 43.81863
#
# Velocity S-wave (km/s) = 5.00498 3.82736 4.45525
# Velocity P-wave (km/s) = 6.53774 6.93404 6.73880
#
# Compressibility (1/GPa) = 0.04848826
#
# Stress axis : x y z
#
# Youngs Moduli (GPa) = 17.95719 143.91779 79.95959
#
# Poissons Ratio (x) = 0.78829 0.30525
# Poissons Ratio (y) = 0.09836 0.32242
# Poissons Ratio (z) = 0.06855 0.58032
#
# Static dielectric constant tensor:
#      x y z
#    x 1.906770 0.000000 0.000000 
#    y 0.000000 1.839850 0.000000 
#    z 0.000000 0.000000 1.837390 
# 
# From -- ./inp_files/11819.got.cif
#   From: 2010.05.17/outbox.cif.g08.bks.cpg/sg65_6_cif.got.tgz:11819.got - 2010.06.03 17:01:31.
