data_PCOD9486132
_publ_section_title
;
Structure prediction by ZEFSAII (Michael W. Deem and Ramdas Pophale) SiO2 
 PCOD9486132
Probable space group: C M M M
;
_chemical_formula_sum "Si O2"
_cell_formula_units_Z 56
_cell_length_a 8.513538
_cell_length_b 25.170809
_cell_length_c 14.853243
_cell_angle_alpha 90.000000
_cell_angle_beta 90.000000
_cell_angle_gamma 90.000000
_cell_volume 3182.940639
_symmetry_space_group_name_H-M "C M M M"
_symmetry_group_IT_number 65
_symmetry_cell_setting 'orthorhombic'
loop_
_space_group_symop_operation_xyz
x,y,z
-x,-y,z
x,-y,-z
-x,y,-z
-x,-y,-z
x,y,-z
-x,y,z
x,-y,z
1/2+x,1/2+y,z
1/2-x,1/2-y,z
1/2+x,1/2-y,-z
1/2-x,1/2+y,-z
1/2-x,1/2-y,-z
1/2+x,1/2+y,-z
1/2-x,1/2+y,z
1/2+x,1/2-y,z
loop_
_atom_site_type_symbol
_atom_site_label
_atom_site_fract_x
_atom_site_fract_y
_atom_site_fract_z
Si Si1 0.811704 0.809949 0.803083
Si Si2 0.188512 0.000000 0.603847
Si Si3 0.808821 0.500000 0.104634
Si Si4 0.312087 0.916368 0.256153
Si Si5 0.311142 0.309942 0.000000
O O1 0.750000 0.750000 0.788274
O O2 0.750210 0.856472 0.740220
O O3 0.757602 0.829897 0.903098
O O4 0.000000 0.807724 0.801296
O O5 0.251873 0.949702 0.659126
O O6 0.238769 0.000000 0.500000
O O7 0.000000 0.000000 0.607046
O O8 0.760259 0.449184 0.165851
O O9 0.000000 0.500000 0.101693
O O10 0.754358 0.500000 0.000000
O O11 0.500000 0.916196 0.255210
O O12 0.250000 0.250000 0.000000
O O13 0.500000 0.311382 0.000000
#
# Coordination Sequence:
#
# PCOD9486132 Si02
#       5
#    16   8   8  16   8
#     4  10  19  32  49  72 106 144 185 225 263 309
#     4  10  21  39  62  83 104 133 170 217 270 322
#     4   8  16  30  46  69 102 139 175 212 256 306
#     4  10  20  33  53  80 108 139 176 218 267 317
#     4   8  16  28  42  63  94 137 184 222 254 290
#
# _framework density 17.593793000000002
#
# number of rings (size 3 to 8) (size 9 to 14) (size 15 to 20)
#    0.000    2.571    0.000    3.000    2.000    2.286 
#    0.000    0.000    0.000    3.429    0.000    0.000 
#    0.000    0.000    0.000    0.000    0.000    0.000 
#
# Total GULP energy -155931.723429 kJ/mol
# GULP energy per Si atom -5568.990122 kJ/mol
# Density = 1.755375 g / cm^3
# Si number density = 17.593793 Si / 1000 Ang^3
#
#
#
# Elastic Constant Matrix: (Units=GPa)
#
#
# Indices 1 2 3 4 5 6 
#
# 1 40.7375 38.2030 29.6496 0.0000 0.0000 0.0000
# 2 38.2030 150.9030 69.4018 0.0000 0.0000 0.0000
# 3 29.6496 69.4018 119.4489 0.0000 0.0000 0.0000
# 4 0.0000 0.0000 0.0000 15.1965 0.0000 0.0000
# 5 0.0000 0.0000 0.0000 0.0000 20.4403 0.0000
# 6 0.0000 0.0000 0.0000 0.0000 0.0000 26.1836
#
#
#
# Elastic Compliance Matrix: (Units=1/GPa)
#
#
# Indices 1 2 3 4 5 6 
#
# 1 0.034015 -0.006452 -0.004694 0.000000 0.000000 0.000000
# 2 -0.006452 0.010267 -0.004364 0.000000 0.000000 0.000000
# 3 -0.004694 -0.004364 0.012072 0.000000 0.000000 0.000000
# 4 0.000000 0.000000 0.000000 0.065805 0.000000 0.000000
# 5 0.000000 0.000000 0.000000 0.000000 0.048923 0.000000
# 6 0.000000 0.000000 0.000000 0.000000 0.000000 0.038192
#
#
# Mechanical properties :
#
#
# Convention : Reuss Voigt Hill
#
# Bulk Modulus (GPa) = 39.47311 65.06647 52.26979
# Shear Modulus (GPa) = 20.10135 23.95309 22.02722
#
# Velocity S-wave (km/s) = 3.38379 3.69379 3.54218
# Velocity P-wave (km/s) = 6.14421 7.43337 6.81932
#
# Compressibility (1/GPa) = 0.02533370
#
# Stress axis : x y z
#
# Youngs Moduli (GPa) = 29.39884 97.39713 82.83327
#
# Poissons Ratio (x) = 0.62844 0.38884
# Poissons Ratio (y) = 0.18969 0.36147
# Poissons Ratio (z) = 0.13801 0.42502
#
# Static dielectric constant tensor:
#      x y z
#    x 1.585200 0.000000 0.000000 
#    y 0.000000 1.543450 0.000000 
#    z 0.000000 0.000000 1.627620 
# 
# From -- ./inp_files/35530.got.cif
#   From: 2010.05.17/outbox.cif.g08.bks.cpg/sg65_18_cif.got.tgz:35530.got - 2010.06.03 17:01:31.
