data_PCOD9486074
_publ_section_title
;
Structure prediction by ZEFSAII (Michael W. Deem and Ramdas Pophale) SiO2 
 PCOD9486074
Probable space group: C M M M
;
_chemical_formula_sum "Si O2"
_cell_formula_units_Z 80
_cell_length_a 17.988920
_cell_length_b 22.327612
_cell_length_c 12.879091
_cell_angle_alpha 90.000000
_cell_angle_beta 90.000000
_cell_angle_gamma 90.000000
_cell_volume 5172.882084
_symmetry_space_group_name_H-M "C M M M"
_symmetry_group_IT_number 65
_symmetry_cell_setting 'orthorhombic'
loop_
_space_group_symop_operation_xyz
x,y,z
-x,-y,z
x,-y,-z
-x,y,-z
-x,-y,-z
x,y,-z
-x,y,z
x,-y,z
1/2+x,1/2+y,z
1/2-x,1/2-y,z
1/2+x,1/2-y,-z
1/2-x,1/2+y,-z
1/2-x,1/2-y,-z
1/2+x,1/2+y,-z
1/2-x,1/2+y,z
1/2+x,1/2-y,z
loop_
_atom_site_type_symbol
_atom_site_label
_atom_site_fract_x
_atom_site_fract_y
_atom_site_fract_z
Si Si1 0.167666 0.377854 0.374953
Si Si2 0.586694 0.753915 0.624415
Si Si3 0.587771 0.428312 0.500000
Si Si4 0.334868 0.363166 0.305704
Si Si5 0.412734 0.429066 0.877943
Si Si6 0.585604 0.000000 0.626236
O O1 0.179806 0.380255 0.500000
O O2 0.115147 0.320895 0.354579
O O3 0.247061 0.368597 0.322143
O O4 0.128579 0.439738 0.342803
O O5 0.593874 0.743999 0.500000
O O6 0.500000 0.746913 0.651308
O O7 0.636763 0.704578 0.680327
O O8 0.596280 0.500000 0.500000
O O9 0.500000 0.413900 0.500000
O O10 0.625553 0.400521 0.601714
O O11 0.362301 0.390667 0.197897
O O12 0.500000 0.417117 0.855780
O O13 0.400662 0.500000 0.859766
O O14 0.400117 0.417543 0.000000
O O15 0.500000 0.000000 0.661457
O O16 0.583954 0.000000 0.500000
#
# Coordination Sequence:
#
# PCOD9486074 Si02
#       6
#    16  16   8  16  16   8
#     4  10  20  31  47  71 103 135 169 208 251 293
#     4  10  19  32  48  68 100 141 177 202 239 303
#     4  11  22  30  41  68 106 139 160 187 241 313
#     4  12  20  30  50  73 104 128 164 207 256 299
#     4   9  19  35  52  70  96 134 177 211 243 293
#     4   9  18  32  48  66  95 138 179 207 238 288
#
# _framework density 15.465267000000001
#
# number of rings (size 3 to 8) (size 9 to 14) (size 15 to 20)
#    0.000    1.800    2.000    4.200    2.800    5.600 
#    0.000    0.000    0.000    2.400    0.000    0.000 
#    0.000    3.200    0.000    0.000    0.000    0.200 
#
# Total GULP energy -223304.382914 kJ/mol
# GULP energy per Si atom -5582.609573 kJ/mol
# Density = 1.543007 g / cm^3
# Si number density = 15.465267 Si / 1000 Ang^3
#
#
#
# Elastic Constant Matrix: (Units=GPa)
#
#
# Indices 1 2 3 4 5 6 
#
# 1 120.0640 71.6517 28.4265 0.0000 0.0000 0.0000
# 2 71.6517 117.0261 31.4001 0.0000 0.0000 0.0000
# 3 28.4265 31.4001 33.5293 0.0000 0.0000 0.0000
# 4 0.0000 0.0000 0.0000 19.4659 0.0000 0.0000
# 5 0.0000 0.0000 0.0000 0.0000 18.9557 0.0000
# 6 0.0000 0.0000 0.0000 0.0000 0.0000 45.6996
#
#
#
# Elastic Compliance Matrix: (Units=1/GPa)
#
#
# Indices 1 2 3 4 5 6 
#
# 1 0.013732 -0.007057 -0.005033 0.000000 0.000000 0.000000
# 2 -0.007057 0.015040 -0.008102 0.000000 0.000000 0.000000
# 3 -0.005033 -0.008102 0.041679 0.000000 0.000000 0.000000
# 4 0.000000 0.000000 0.000000 0.051372 0.000000 0.000000
# 5 0.000000 0.000000 0.000000 0.000000 0.052755 0.000000
# 6 0.000000 0.000000 0.000000 0.000000 0.000000 0.021882
#
#
# Mechanical properties :
#
#
# Convention : Reuss Voigt Hill
#
# Bulk Modulus (GPa) = 33.25905 59.28623 46.27264
# Shear Modulus (GPa) = 20.25391 26.10032 23.17712
#
# Velocity S-wave (km/s) = 3.62282 4.11259 3.87545
# Velocity P-wave (km/s) = 6.24917 7.80829 7.07183
#
# Compressibility (1/GPa) = 0.03006700
#
# Stress axis : x y z
#
# Youngs Moduli (GPa) = 72.82141 66.48973 23.99294
#
# Poissons Ratio (x) = 0.46924 0.12076
# Poissons Ratio (y) = 0.51393 0.19438
# Poissons Ratio (z) = 0.36652 0.53867
#
# Static dielectric constant tensor:
#      x y z
#    x 1.506770 0.000000 0.000000 
#    y 0.000000 1.520360 0.000000 
#    z 0.000000 0.000000 1.477900 
# 
# From -- ./inp_files/24646.got.cif
#   From: 2010.05.17/outbox.cif.g08.bks.cpg/sg65_13_cif.got.tgz:24646.got - 2010.06.03 17:01:31.
