data_PCOD9486126
_publ_section_title
;
Structure prediction by ZEFSAII (Michael W. Deem and Ramdas Pophale) SiO2 
 PCOD9486126
Probable space group: C M M M
;
_chemical_formula_sum "Si O2"
_cell_formula_units_Z 104
_cell_length_a 22.663170
_cell_length_b 28.475641
_cell_length_c 7.723635
_cell_angle_alpha 90.000000
_cell_angle_beta 90.000000
_cell_angle_gamma 90.000000
_cell_volume 4984.434662
_symmetry_space_group_name_H-M "C M M M"
_symmetry_group_IT_number 65
_symmetry_cell_setting 'orthorhombic'
loop_
_space_group_symop_operation_xyz
x,y,z
-x,-y,z
x,-y,-z
-x,y,-z
-x,-y,-z
x,y,-z
-x,y,z
x,-y,z
1/2+x,1/2+y,z
1/2-x,1/2-y,z
1/2+x,1/2-y,-z
1/2-x,1/2+y,-z
1/2-x,1/2-y,-z
1/2+x,1/2+y,-z
1/2-x,1/2+y,z
1/2+x,1/2-y,z
loop_
_atom_site_type_symbol
_atom_site_label
_atom_site_fract_x
_atom_site_fract_y
_atom_site_fract_z
Si Si1 0.000000 0.944836 0.203426
Si Si2 0.885648 0.100042 0.199730
Si Si3 0.103903 0.200541 0.692923
Si Si4 0.236444 0.945163 0.211949
Si Si5 0.432595 0.806496 0.208559
Si Si6 0.667344 0.876852 0.197139
Si Si7 0.743753 0.300901 0.301636
O O1 0.939111 0.927813 0.284653
O O2 0.000000 0.000000 0.200117
O O3 0.000000 0.928500 0.000000
O O4 0.909410 0.153687 0.201667
O O5 0.820841 0.085473 0.271001
O O6 0.880088 0.085224 0.000000
O O7 0.079227 0.195378 0.500000
O O8 0.088397 0.253127 0.751976
O O9 0.174327 0.194052 0.686413
O O10 0.298086 0.921599 0.275328
O O11 0.230168 0.000000 0.259000
O O12 0.239496 0.942898 0.000000
O O13 0.500000 0.812366 0.269892
O O14 0.387509 0.846947 0.273969
O O15 0.432401 0.809986 0.000000
O O16 0.720495 0.839022 0.197897
O O17 0.650295 0.888976 0.000000
O O18 0.767784 0.300373 0.500000
O O19 0.750000 0.250000 0.220206
#
# Coordination Sequence:
#
# PCOD9486126 Si02
#       7
#     8  16  16  16  16  16  16
#     4   9  18  32  51  73  97 133 179 219 254 295
#     4  10  19  32  51  75 104 137 174 214 253 297
#     4  11  22  34  50  74 105 138 169 205 252 305
#     4   9  17  30  51  78 103 128 166 216 262 304
#     4  10  22  37  52  72 102 139 176 213 254 305
#     4  10  19  32  53  77 100 130 170 214 256 301
#     4  10  19  32  49  72 103 134 161 197 247 299
#
# _framework density 20.864954000000001
#
# number of rings (size 3 to 8) (size 9 to 14) (size 15 to 20)
#    0.000    2.077    3.077    0.923    1.077    3.077 
#    0.000    0.000    0.000    4.154    0.000    3.231 
#    0.000    0.000    0.000    2.769    0.000    3.077 
#
# Total GULP energy -289480.573403 kJ/mol
# GULP energy per Si atom -5566.934104 kJ/mol
# Density = 2.081746 g / cm^3
# Si number density = 20.864954 Si / 1000 Ang^3
#
#
#
# Elastic Constant Matrix: (Units=GPa)
#
#
# Indices 1 2 3 4 5 6 
#
# 1 138.9879 60.8428 8.0198 0.0000 0.0000 0.0000
# 2 60.8428 113.9892 1.4322 0.0000 0.0000 0.0000
# 3 8.0198 1.4322 40.0218 0.0000 0.0000 0.0000
# 4 0.0000 0.0000 0.0000 7.8331 0.0000 0.0000
# 5 0.0000 0.0000 0.0000 0.0000 -18.0043 0.0000
# 6 0.0000 0.0000 0.0000 0.0000 0.0000 30.1708
#
#
#
# Elastic Compliance Matrix: (Units=1/GPa)
#
#
# Indices 1 2 3 4 5 6 
#
# 1 0.009506 -0.005052 -0.001724 0.000000 0.000000 0.000000
# 2 -0.005052 0.011462 0.000602 0.000000 0.000000 0.000000
# 3 -0.001724 0.000602 0.025310 0.000000 0.000000 0.000000
# 4 0.000000 0.000000 0.000000 0.127663 0.000000 0.000000
# 5 0.000000 0.000000 0.000000 0.000000 -0.055542 0.000000
# 6 0.000000 0.000000 0.000000 0.000000 0.000000 0.033145
#
#
# Mechanical properties :
#
#
# Convention : Reuss Voigt Hill
#
# Bulk Modulus (GPa) = 29.47243 48.17649 38.82446
# Shear Modulus (GPa) = 28.53856 18.84687 23.69272
#
# Velocity S-wave (km/s) = 3.70236 3.00872 3.37341
# Velocity P-wave (km/s) = 5.69496 5.93377 5.81559
#
# Compressibility (1/GPa) = 0.03393002
#
# Stress axis : x y z
#
# Youngs Moduli (GPa) = 105.19664 87.24571 39.50960
#
# Poissons Ratio (x) = 0.44079 0.06812
# Poissons Ratio (y) = 0.53148 -0.02379
# Poissons Ratio (z) = 0.18137 -0.05254
#
# Static dielectric constant tensor:
#      x y z
#    x 1.855710 0.000000 0.000000 
#    y 0.000000 1.827410 0.000000 
#    z 0.000000 0.000000 1.811940 
# 
# From -- ./inp_files/14791.got.cif
#   From: 2010.05.17/outbox.cif.g08.bks.cpg/sg65_8_cif.got.tgz:14791.got - 2010.06.03 17:01:31.
