data_PCOD9486718
_publ_section_title
;
Structure prediction by ZEFSAII (Michael W. Deem and Ramdas Pophale) SiO2 
 PCOD9486718
Probable space group: C M M M
;
_chemical_formula_sum "Si O2"
_cell_formula_units_Z 58
_cell_length_a 24.236022
_cell_length_b 7.976706
_cell_length_c 16.030928
_cell_angle_alpha 90.000000
_cell_angle_beta 90.000000
_cell_angle_gamma 90.000000
_cell_volume 3099.157067
_symmetry_space_group_name_H-M "C M M M"
_symmetry_group_IT_number 65
_symmetry_cell_setting 'orthorhombic'
loop_
_space_group_symop_operation_xyz
x,y,z
-x,-y,z
x,-y,-z
-x,y,-z
-x,-y,-z
x,y,-z
-x,y,z
x,-y,z
1/2+x,1/2+y,z
1/2-x,1/2-y,z
1/2+x,1/2-y,-z
1/2-x,1/2+y,-z
1/2-x,1/2-y,-z
1/2+x,1/2+y,-z
1/2-x,1/2+y,z
1/2+x,1/2-y,z
loop_
_atom_site_type_symbol
_atom_site_label
_atom_site_fract_x
_atom_site_fract_y
_atom_site_fract_z
Si Si1 0.000000 0.812909 0.631053
Si Si2 0.000000 0.200796 0.094892
Si Si3 0.814433 0.201425 0.500000
Si Si4 0.185953 0.799253 0.317577
Si Si5 0.917657 0.694428 0.234121
Si Si6 0.500000 0.000000 0.500000
O O1 0.947961 0.797912 0.693269
O O2 0.000000 0.652051 0.571390
O O3 0.000000 0.000000 0.593227
O O4 0.053417 0.257940 0.147533
O O5 0.000000 0.000000 0.093921
O O6 0.000000 0.263036 0.000000
O O7 0.750000 0.250000 0.500000
O O8 0.835140 0.262611 0.409813
O O9 0.819811 0.000000 0.500000
O O10 0.250000 0.750000 0.309656
O O11 0.146897 0.728014 0.246059
O O12 0.182791 0.000000 0.317143
O O13 0.929007 0.500000 0.248944
#
# Coordination Sequence:
#
# PCOD9486718 Si02
#       6
#     8   8   8  16  16   2
#     4  11  22  39  58  78 115 155 197 249 298 349
#     4  10  21  39  65  92 112 140 184 235 296 365
#     4   8  16  29  46  67  98 138 191 239 273 317
#     4  10  19  33  52  79 111 154 202 244 296 338
#     4  11  21  37  57  84 118 151 192 240 290 356
#     4  12  22  40  52  86 114 152 206 244 300 368
#
# _framework density 18.714766999999998
#
# number of rings (size 3 to 8) (size 9 to 14) (size 15 to 20)
#    0.000    1.793    1.379    5.586    0.000    3.310 
#    0.000    2.759    0.000    0.828    0.000    0.000 
#    0.000    0.000    0.000    0.000    0.000    0.000 
#
# Total GULP energy -161514.588496 kJ/mol
# GULP energy per Si atom -5569.468569 kJ/mol
# Density = 1.867217 g / cm^3
# Si number density = 18.714767 Si / 1000 Ang^3
#
#
#
# Elastic Constant Matrix: (Units=GPa)
#
#
# Indices 1 2 3 4 5 6 
#
# 1 93.1007 12.5107 60.0040 0.0000 0.0000 0.0000
# 2 12.5107 115.7083 36.7429 0.0000 0.0000 0.0000
# 3 60.0040 36.7429 139.5333 0.0000 0.0000 0.0000
# 4 0.0000 0.0000 0.0000 22.4180 0.0000 0.0000
# 5 0.0000 0.0000 0.0000 0.0000 18.0091 0.0000
# 6 0.0000 0.0000 0.0000 0.0000 0.0000 21.8231
#
#
#
# Elastic Compliance Matrix: (Units=1/GPa)
#
#
# Indices 1 2 3 4 5 6 
#
# 1 0.014882 0.000462 -0.006521 0.000000 0.000000 0.000000
# 2 0.000462 0.009445 -0.002686 0.000000 0.000000 0.000000
# 3 -0.006521 -0.002686 0.010678 0.000000 0.000000 0.000000
# 4 0.000000 0.000000 0.000000 0.044607 0.000000 0.000000
# 5 0.000000 0.000000 0.000000 0.000000 0.055527 0.000000
# 6 0.000000 0.000000 0.000000 0.000000 0.000000 0.045823
#
#
# Mechanical properties :
#
#
# Convention : Reuss Voigt Hill
#
# Bulk Modulus (GPa) = 57.09389 62.98416 60.03903
# Shear Modulus (GPa) = 24.47471 28.38902 26.43186
#
# Velocity S-wave (km/s) = 3.62024 3.89901 3.76221
# Velocity P-wave (km/s) = 6.93170 7.34830 7.14304
#
# Compressibility (1/GPa) = 0.01751501
#
# Stress axis : x y z
#
# Youngs Moduli (GPa) = 67.19492 105.87202 93.64692
#
# Poissons Ratio (x) = -0.04889 0.61071
# Poissons Ratio (y) = -0.03103 0.25152
# Poissons Ratio (z) = 0.43820 0.28435
#
# Static dielectric constant tensor:
#      x y z
#    x 1.685660 0.000000 0.000000 
#    y 0.000000 1.657530 0.000000 
#    z 0.000000 0.000000 1.653960 
# 
# From -- ./inp_files/45039.got.cif
#   From: 2010.05.17/outbox.cif.g08.bks.cpg/sg65_23_cif.got.tgz:45039.got - 2010.06.03 17:01:31.
