data_PCOD9486928
_publ_section_title
;
Structure prediction by ZEFSAII (Michael W. Deem and Ramdas Pophale) SiO2 
 PCOD9486928
Probable space group: C M M M
;
_chemical_formula_sum "Si O2"
_cell_formula_units_Z 64
_cell_length_a 17.243093
_cell_length_b 22.946663
_cell_length_c 7.403091
_cell_angle_alpha 90.000000
_cell_angle_beta 90.000000
_cell_angle_gamma 90.000000
_cell_volume 2929.191707
_symmetry_space_group_name_H-M "C M M M"
_symmetry_group_IT_number 65
_symmetry_cell_setting 'orthorhombic'
loop_
_space_group_symop_operation_xyz
x,y,z
-x,-y,z
x,-y,-z
-x,y,-z
-x,-y,-z
x,y,-z
-x,y,z
x,-y,z
1/2+x,1/2+y,z
1/2-x,1/2-y,z
1/2+x,1/2-y,-z
1/2-x,1/2+y,-z
1/2-x,1/2-y,-z
1/2+x,1/2+y,-z
1/2-x,1/2+y,z
1/2+x,1/2-y,z
loop_
_atom_site_type_symbol
_atom_site_label
_atom_site_fract_x
_atom_site_fract_y
_atom_site_fract_z
Si Si1 0.910320 0.231421 0.220732
Si Si2 0.649627 0.855738 0.213150
Si Si3 0.000000 0.566016 0.284857
Si Si4 0.910454 0.000000 0.220788
Si Si5 0.319485 0.615295 0.779261
O O1 0.872318 0.291792 0.284706
O O2 0.863262 0.174324 0.275688
O O3 0.000000 0.228765 0.276341
O O4 0.910079 0.232287 0.000000
O O5 0.576730 0.898395 0.232951
O O6 0.730370 0.881518 0.282754
O O7 0.662031 0.847274 0.000000
O O8 0.000000 0.500000 0.213063
O O9 0.000000 0.562897 0.500000
O O10 0.865289 0.057919 0.279492
O O11 0.000000 0.000000 0.277808
O O12 0.910796 0.000000 0.000000
O O13 0.320282 0.613832 0.000000
#
# Coordination Sequence:
#
# PCOD9486928 Si02
#       5
#    16  16   8   8  16
#     4   9  15  26  45  73 106 139 170 207 259 308
#     4  10  19  33  54  80 104 131 174 220 261 304
#     4  11  25  41  55  73 103 140 173 210 266 323
#     4   9  16  26  38  63 107 150 172 193 249 317
#     4   9  17  26  43  72 108 141 170 211 257 306
#
# _framework density 21.849032000000001
#
# number of rings (size 3 to 8) (size 9 to 14) (size 15 to 20)
#    0.000    2.500    1.250    1.875    1.750    7.000 
#    0.000    0.000    0.000    3.000    0.000    0.000 
#    0.000    1.000    0.000    0.000    0.000    0.000 
#
# Total GULP energy -178838.586721 kJ/mol
# GULP energy per Si atom -5588.705835 kJ/mol
# Density = 2.179930 g / cm^3
# Si number density = 21.849032 Si / 1000 Ang^3
#
#
#
# Elastic Constant Matrix: (Units=GPa)
#
#
# Indices 1 2 3 4 5 6 
#
# 1 253.5229 150.8705 -0.4077 0.0000 0.0000 0.0000
# 2 150.8705 242.6388 -2.7835 0.0000 0.0000 0.0000
# 3 -0.4077 -2.7835 69.4038 0.0000 0.0000 0.0000
# 4 0.0000 0.0000 0.0000 47.4765 0.0000 0.0000
# 5 0.0000 0.0000 0.0000 0.0000 -32.6420 0.0000
# 6 0.0000 0.0000 0.0000 0.0000 0.0000 23.1851
#
#
#
# Elastic Compliance Matrix: (Units=1/GPa)
#
#
# Indices 1 2 3 4 5 6 
#
# 1 0.006262 -0.003895 -0.000119 0.000000 0.000000 0.000000
# 2 -0.003895 0.006546 0.000240 0.000000 0.000000 0.000000
# 3 -0.000119 0.000240 0.014417 0.000000 0.000000 0.000000
# 4 0.000000 0.000000 0.000000 0.021063 0.000000 0.000000
# 5 0.000000 0.000000 0.000000 0.000000 -0.030635 0.000000
# 6 0.000000 0.000000 0.000000 0.000000 0.000000 0.043131
#
#
# Mechanical properties :
#
#
# Convention : Reuss Voigt Hill
#
# Bulk Modulus (GPa) = 50.82394 95.65822 73.24108
# Shear Modulus (GPa) = 66.76204 35.46301 51.11253
#
# Velocity S-wave (km/s) = 5.53375 4.03313 4.84193
# Velocity P-wave (km/s) = 8.00886 8.09720 8.05315
#
# Compressibility (1/GPa) = 0.01967577
#
# Stress axis : x y z
#
# Youngs Moduli (GPa) = 159.68779 152.76330 69.36088
#
# Poissons Ratio (x) = 0.59504 0.00828
# Poissons Ratio (y) = 0.62201 -0.01662
# Poissons Ratio (z) = 0.01907 -0.03661
#
# Static dielectric constant tensor:
#      x y z
#    x 1.537050 0.000000 0.000000 
#    y 0.000000 1.745710 0.000000 
#    z 0.000000 0.000000 1.834040 
# 
# From -- ./inp_files/6769.got.cif
#   From: 2010.05.17/outbox.cif.g08.bks.cpg/sg65_4_cif.got.tgz:6769.got - 2010.06.03 17:01:31.
