data_PCOD9486209
_publ_section_title
;
Structure prediction by ZEFSAII (Michael W. Deem and Ramdas Pophale) SiO2 
 PCOD9486209
Probable space group: C M M M
;
_chemical_formula_sum "Si O2"
_cell_formula_units_Z 104
_cell_length_a 8.590453
_cell_length_b 29.500849
_cell_length_c 24.222407
_cell_angle_alpha 90.000000
_cell_angle_beta 90.000000
_cell_angle_gamma 90.000000
_cell_volume 6138.579403
_symmetry_space_group_name_H-M "C M M M"
_symmetry_group_IT_number 65
_symmetry_cell_setting 'orthorhombic'
loop_
_space_group_symop_operation_xyz
x,y,z
-x,-y,z
x,-y,-z
-x,y,-z
-x,-y,-z
x,y,-z
-x,y,z
x,-y,z
1/2+x,1/2+y,z
1/2-x,1/2-y,z
1/2+x,1/2-y,-z
1/2-x,1/2+y,-z
1/2-x,1/2-y,-z
1/2+x,1/2+y,-z
1/2-x,1/2+y,z
1/2+x,1/2-y,z
loop_
_atom_site_type_symbol
_atom_site_label
_atom_site_fract_x
_atom_site_fract_y
_atom_site_fract_z
Si Si1 0.687418 0.301194 0.000000
Si Si2 0.186935 0.801415 0.121044
Si Si3 0.686050 0.143113 0.776018
Si Si4 0.687455 0.550956 0.734012
Si Si5 0.687579 0.449069 0.604248
Si Si6 0.687470 0.856397 0.439305
Si Si7 0.811563 0.300848 0.667595
O O1 0.750000 0.250000 0.000000
O O2 0.735621 0.319652 0.939967
O O3 0.500000 0.300591 0.000000
O O4 0.250000 0.750000 0.127205
O O5 0.247611 0.832570 0.170090
O O6 0.000000 0.799490 0.123117
O O7 0.500000 0.144867 0.777861
O O8 0.740306 0.091546 0.768494
O O9 0.738525 0.170598 0.721262
O O10 0.500000 0.553399 0.737249
O O11 0.734824 0.500000 0.750659
O O12 0.729008 0.556452 0.669126
O O13 0.500000 0.446687 0.600168
O O14 0.734708 0.500000 0.587101
O O15 0.760860 0.407952 0.571120
O O16 0.741325 0.841244 0.500000
O O17 0.500000 0.854866 0.438551
O O18 0.743325 0.825776 0.388289
O O19 0.750000 0.250000 0.670612
O O20 0.000000 0.300062 0.667192
#
# Coordination Sequence:
#
# PCOD9486209 Si02
#       7
#     8  16  16  16  16  16  16
#     4   8  16  30  48  70 101 140 177 212 248 289
#     4  10  19  32  50  75 107 142 178 213 250 293
#     4  11  21  33  51  77 105 134 169 206 251 301
#     4   9  18  33  53  76 101 130 163 202 251 303
#     4   9  18  33  53  76 100 125 156 197 247 301
#     4  10  21  37  53  70  95 127 164 205 250 301
#     4  10  22  37  51  70  95 126 163 206 250 294
#
# _framework density 16.942029999999999
#
# number of rings (size 3 to 8) (size 9 to 14) (size 15 to 20)
#    0.000    2.308    1.538    2.308    0.000    5.231 
#    0.000    3.077    0.000    0.000    0.000    0.538 
#    0.000    4.308    0.000    0.000    0.000    0.000 
#
# Total GULP energy -290018.739682 kJ/mol
# GULP energy per Si atom -5577.283455 kJ/mol
# Density = 1.690347 g / cm^3
# Si number density = 16.942030 Si / 1000 Ang^3
#
#
#
# Elastic Constant Matrix: (Units=GPa)
#
#
# Indices 1 2 3 4 5 6 
#
# 1 14.8582 19.6379 31.3181 0.0000 0.0000 0.0000
# 2 19.6379 108.2884 74.6934 0.0000 0.0000 0.0000
# 3 31.3181 74.6934 153.2942 0.0000 0.0000 0.0000
# 4 0.0000 0.0000 0.0000 22.7139 0.0000 0.0000
# 5 0.0000 0.0000 0.0000 0.0000 21.0759 0.0000
# 6 0.0000 0.0000 0.0000 0.0000 0.0000 29.5477
#
#
#
# Elastic Compliance Matrix: (Units=1/GPa)
#
#
# Indices 1 2 3 4 5 6 
#
# 1 0.122051 -0.007432 -0.021314 0.000000 0.000000 0.000000
# 2 -0.007432 0.014362 -0.005480 0.000000 0.000000 0.000000
# 3 -0.021314 -0.005480 0.013548 0.000000 0.000000 0.000000
# 4 0.000000 0.000000 0.000000 0.044026 0.000000 0.000000
# 5 0.000000 0.000000 0.000000 0.000000 0.047448 0.000000
# 6 0.000000 0.000000 0.000000 0.000000 0.000000 0.033844
#
#
# Mechanical properties :
#
#
# Convention : Reuss Voigt Hill
#
# Bulk Modulus (GPa) = 12.26849 58.63774 35.45311
# Shear Modulus (GPa) = 13.48077 24.72027 19.10052
#
# Velocity S-wave (km/s) = 2.82388 3.82397 3.36133
# Velocity P-wave (km/s) = 4.22960 7.36091 6.00302
#
# Compressibility (1/GPa) = 0.08150964
#
# Stress axis : x y z
#
# Youngs Moduli (GPa) = 8.19330 69.62799 73.81327
#
# Poissons Ratio (x) = 0.51751 1.57322
# Poissons Ratio (y) = 0.06090 0.40446
# Poissons Ratio (z) = 0.17463 0.38153
#
# Static dielectric constant tensor:
#      x y z
#    x 1.577690 0.000000 0.000000 
#    y 0.000000 1.543610 0.000000 
#    z 0.000000 0.000000 1.597940 
# 
# From -- ./inp_files/68156.got.cif
#   From: 2010.05.17/outbox.cif.g08.bks.cpg/sg65_35_cif.got.tgz:68156.got - 2010.06.03 17:01:31.
