data_PCOD9486042
_publ_section_title
;
Structure prediction by ZEFSAII (Michael W. Deem and Ramdas Pophale) SiO2 
 PCOD9486042
Probable space group: C M M M
;
_chemical_formula_sum "Si O2"
_cell_formula_units_Z 80
_cell_length_a 23.460084
_cell_length_b 20.548406
_cell_length_c 7.615761
_cell_angle_alpha 90.000000
_cell_angle_beta 90.000000
_cell_angle_gamma 90.000000
_cell_volume 3671.309577
_symmetry_space_group_name_H-M "C M M M"
_symmetry_group_IT_number 65
_symmetry_cell_setting 'orthorhombic'
loop_
_space_group_symop_operation_xyz
x,y,z
-x,-y,z
x,-y,-z
-x,y,-z
-x,-y,-z
x,y,-z
-x,y,z
x,-y,z
1/2+x,1/2+y,z
1/2-x,1/2-y,z
1/2+x,1/2-y,-z
1/2-x,1/2+y,-z
1/2-x,1/2-y,-z
1/2+x,1/2+y,-z
1/2-x,1/2+y,z
1/2+x,1/2-y,z
loop_
_atom_site_type_symbol
_atom_site_label
_atom_site_fract_x
_atom_site_fract_y
_atom_site_fract_z
Si Si1 0.102409 0.798417 0.699482
Si Si2 0.065361 0.343564 0.288092
Si Si3 0.932312 0.068248 0.704213
Si Si4 0.323416 0.074137 0.209838
Si Si5 0.272278 0.323585 0.203564
O O1 0.078879 0.796288 0.500000
O O2 0.087314 0.727734 0.774839
O O3 0.078930 0.862740 0.790978
O O4 0.168936 0.815286 0.695463
O O5 0.064219 0.342505 0.500000
O O6 0.113771 0.395907 0.240940
O O7 0.000000 0.355423 0.228411
O O8 0.911779 0.070612 0.500000
O O9 0.000000 0.063733 0.697151
O O10 0.909934 0.000000 0.780835
O O11 0.274785 0.125218 0.272934
O O12 0.318153 0.000000 0.277726
O O13 0.316350 0.071538 0.000000
O O14 0.250000 0.250000 0.202456
O O15 0.284903 0.341254 0.000000
#
# Coordination Sequence:
#
# PCOD9486042 Si02
#       5
#    16  16  16  16  16
#     4  10  19  31  53  82 109 137 176 219 259 309
#     4  10  21  36  55  81 112 144 178 220 270 319
#     4   8  14  26  45  71 105 141 173 208 252 301
#     4  10  22  40  59  79 105 140 182 224 267 320
#     4  10  20  36  56  76 102 137 173 212 261 313
#
# _framework density 21.790589000000001
#
# number of rings (size 3 to 8) (size 9 to 14) (size 15 to 20)
#    0.000    2.400    2.000    1.200    0.000    5.600 
#    0.000    2.000    0.000    1.800    0.000    1.400 
#    0.000    0.000    0.000    0.000    0.000    0.000 
#
# Total GULP energy -222772.692937 kJ/mol
# GULP energy per Si atom -5569.317323 kJ/mol
# Density = 2.174099 g / cm^3
# Si number density = 21.790589 Si / 1000 Ang^3
#
#
#
# Elastic Constant Matrix: (Units=GPa)
#
#
# Indices 1 2 3 4 5 6 
#
# 1 91.6900 36.3663 0.9259 0.0000 0.0000 0.0000
# 2 36.3663 149.7485 10.4570 0.0000 0.0000 0.0000
# 3 0.9259 10.4570 48.6044 0.0000 0.0000 0.0000
# 4 0.0000 0.0000 0.0000 7.3464 0.0000 0.0000
# 5 0.0000 0.0000 0.0000 0.0000 32.6380 0.0000
# 6 0.0000 0.0000 0.0000 0.0000 0.0000 34.8856
#
#
#
# Elastic Compliance Matrix: (Units=1/GPa)
#
#
# Indices 1 2 3 4 5 6 
#
# 1 0.012077 -0.002961 0.000407 0.000000 0.000000 0.000000
# 2 -0.002961 0.007506 -0.001558 0.000000 0.000000 0.000000
# 3 0.000407 -0.001558 0.020902 0.000000 0.000000 0.000000
# 4 0.000000 0.000000 0.000000 0.136122 0.000000 0.000000
# 5 0.000000 0.000000 0.000000 0.000000 0.030639 0.000000
# 6 0.000000 0.000000 0.000000 0.000000 0.000000 0.028665
#
#
# Mechanical properties :
#
#
# Convention : Reuss Voigt Hill
#
# Bulk Modulus (GPa) = 30.99905 42.83793 36.91849
# Shear Modulus (GPa) = 19.61639 31.12690 25.37165
#
# Velocity S-wave (km/s) = 3.00363 3.78359 3.41594
# Velocity P-wave (km/s) = 5.12697 6.22808 5.70416
#
# Compressibility (1/GPa) = 0.03225905
#
# Stress axis : x y z
#
# Youngs Moduli (GPa) = 82.80411 133.22992 47.84277
#
# Poissons Ratio (x) = 0.39453 -0.01947
# Poissons Ratio (y) = 0.24520 0.07456
# Poissons Ratio (z) = -0.03370 0.20763
#
# Static dielectric constant tensor:
#      x y z
#    x 1.447370 0.000000 0.000000 
#    y 0.000000 1.896100 0.000000 
#    z 0.000000 0.000000 1.893450 
# 
# From -- ./inp_files/16051.got.cif
#   From: 2010.05.17/outbox.cif.g08.bks.cpg/sg65_9_cif.got.tgz:16051.got - 2010.06.03 17:01:31.
