data_PCOD9486472
_publ_section_title
;
Structure prediction by ZEFSAII (Michael W. Deem and Ramdas Pophale) SiO2 
 PCOD9486472
Probable space group: C M M M
;
_chemical_formula_sum "Si O2"
_cell_formula_units_Z 72
_cell_length_a 14.089453
_cell_length_b 30.167587
_cell_length_c 7.473188
_cell_angle_alpha 90.000000
_cell_angle_beta 90.000000
_cell_angle_gamma 90.000000
_cell_volume 3176.439693
_symmetry_space_group_name_H-M "C M M M"
_symmetry_group_IT_number 65
_symmetry_cell_setting 'orthorhombic'
loop_
_space_group_symop_operation_xyz
x,y,z
-x,-y,z
x,-y,-z
-x,y,-z
-x,-y,-z
x,y,-z
-x,y,z
x,-y,z
1/2+x,1/2+y,z
1/2-x,1/2-y,z
1/2+x,1/2-y,-z
1/2-x,1/2+y,-z
1/2-x,1/2-y,-z
1/2+x,1/2+y,-z
1/2-x,1/2+y,z
1/2+x,1/2-y,z
loop_
_atom_site_type_symbol
_atom_site_label
_atom_site_fract_x
_atom_site_fract_y
_atom_site_fract_z
Si Si1 0.837378 0.620369 0.699496
Si Si2 0.716581 0.701852 0.714336
Si Si3 0.795712 0.953314 0.216429
Si Si4 0.500000 0.571998 0.217353
Si Si5 0.500000 0.327364 0.212540
Si Si6 0.000000 0.552519 0.719145
O O1 0.873637 0.631739 0.500000
O O2 0.791651 0.664599 0.784538
O O3 0.746815 0.588960 0.691901
O O4 0.912414 0.584531 0.777415
O O5 0.728272 0.700271 0.500000
O O6 0.750000 0.750000 0.778489
O O7 0.603566 0.693683 0.743385
O O8 0.905156 0.952739 0.265907
O O9 0.749658 0.000000 0.268648
O O10 0.787726 0.948961 0.000000
O O11 0.500000 0.622411 0.284268
O O12 0.500000 0.574090 0.000000
O O13 0.500000 0.329689 0.000000
O O14 0.000000 0.500000 0.777210
O O15 0.000000 0.550445 0.500000
#
# Coordination Sequence:
#
# PCOD9486472 Si02
#       6
#    16  16  16   8   8   8
#     4  10  20  35  56  79 106 143 188 236 287 341
#     4  10  22  39  60  86 115 150 192 242 295 349
#     4  10  19  32  52  78 110 147 184 222 270 332
#     4   9  17  31  51  76 107 145 179 212 262 322
#     4  11  21  37  62  86 115 152 187 232 286 344
#     4   9  18  33  53  77 106 141 183 233 287 343
#
# _framework density 22.666886000000002
#
# number of rings (size 3 to 8) (size 9 to 14) (size 15 to 20)
#    0.000    2.111    2.222    1.333    0.000    4.000 
#    0.000    4.444    0.000    3.333    0.000    0.000 
#    0.000    0.000    0.000    0.000    0.000    0.000 
#
# Total GULP energy -200463.034867 kJ/mol
# GULP energy per Si atom -5568.417635 kJ/mol
# Density = 2.261530 g / cm^3
# Si number density = 22.666886 Si / 1000 Ang^3
#
#
#
# Elastic Constant Matrix: (Units=GPa)
#
#
# Indices 1 2 3 4 5 6 
#
# 1 130.1140 81.5841 -3.4482 0.0000 0.0000 0.0000
# 2 81.5841 219.9700 10.3394 0.0000 0.0000 0.0000
# 3 -3.4482 10.3394 68.7613 0.0000 0.0000 0.0000
# 4 0.0000 0.0000 0.0000 2.8164 0.0000 0.0000
# 5 0.0000 0.0000 0.0000 0.0000 10.8382 0.0000
# 6 0.0000 0.0000 0.0000 0.0000 0.0000 30.3988
#
#
#
# Elastic Compliance Matrix: (Units=1/GPa)
#
#
# Indices 1 2 3 4 5 6 
#
# 1 0.010093 -0.003794 0.001077 0.000000 0.000000 0.000000
# 2 -0.003794 0.006005 -0.001093 0.000000 0.000000 0.000000
# 3 0.001077 -0.001093 0.014761 0.000000 0.000000 0.000000
# 4 0.000000 0.000000 0.000000 0.355069 0.000000 0.000000
# 5 0.000000 0.000000 0.000000 0.000000 0.092266 0.000000
# 6 0.000000 0.000000 0.000000 0.000000 0.000000 0.032896
#
#
# Mechanical properties :
#
#
# Convention : Reuss Voigt Hill
#
# Bulk Modulus (GPa) = 43.03289 66.19953 54.61621
# Shear Modulus (GPa) = 9.49745 30.83534 20.16640
#
# Velocity S-wave (km/s) = 2.04917 3.69232 2.98600
# Velocity P-wave (km/s) = 4.96235 6.88814 6.00297
#
# Compressibility (1/GPa) = 0.02323804
#
# Stress axis : x y z
#
# Youngs Moduli (GPa) = 99.07864 166.53918 67.74409
#
# Poissons Ratio (x) = 0.63184 -0.07294
# Poissons Ratio (y) = 0.37590 0.07405
# Poissons Ratio (z) = -0.10667 0.18205
#
# Static dielectric constant tensor:
#      x y z
#    x 1.917720 0.000000 0.000000 
#    y 0.000000 1.822410 0.000000 
#    z 0.000000 0.000000 1.925660 
# 
# From -- ./inp_files/7432.got.cif
#   From: 2010.05.17/outbox.cif.g08.bks.cpg/sg65_4_cif.got.tgz:7432.got - 2010.06.03 17:01:31.
