data_PCOD9486815
_publ_section_title
;
Structure prediction by ZEFSAII (Michael W. Deem and Ramdas Pophale) SiO2 
 PCOD9486815
Probable space group: C M M M
;
_chemical_formula_sum "Si O2"
_cell_formula_units_Z 120
_cell_length_a 26.653555
_cell_length_b 19.521403
_cell_length_c 13.209201
_cell_angle_alpha 90.000000
_cell_angle_beta 90.000000
_cell_angle_gamma 90.000000
_cell_volume 6872.942625
_symmetry_space_group_name_H-M "C M M M"
_symmetry_group_IT_number 65
_symmetry_cell_setting 'orthorhombic'
loop_
_space_group_symop_operation_xyz
x,y,z
-x,-y,z
x,-y,-z
-x,y,-z
-x,-y,-z
x,y,-z
-x,y,z
x,-y,z
1/2+x,1/2+y,z
1/2-x,1/2-y,z
1/2+x,1/2-y,-z
1/2-x,1/2+y,-z
1/2-x,1/2-y,-z
1/2+x,1/2+y,-z
1/2-x,1/2+y,z
1/2+x,1/2-y,z
loop_
_atom_site_type_symbol
_atom_site_label
_atom_site_fract_x
_atom_site_fract_y
_atom_site_fract_z
Si Si1 0.939352 0.500000 0.614815
Si Si2 0.720847 0.918541 0.301152
Si Si3 0.441591 0.146369 0.307429
Si Si4 0.058526 0.734063 0.882680
Si Si5 0.165453 0.080066 0.384933
Si Si6 0.156234 0.702601 0.386210
Si Si7 0.356343 0.682755 0.773373
Si Si8 0.257083 0.667862 0.883259
O O1 0.919333 0.500000 0.500000
O O2 0.926233 0.431469 0.673254
O O3 0.000000 0.500000 0.607621
O O4 0.776070 0.912864 0.352202
O O5 0.683280 0.869586 0.362934
O O6 0.725866 0.880789 0.192172
O O7 0.708291 0.000000 0.296778
O O8 0.500000 0.155461 0.335922
O O9 0.436177 0.168409 0.190699
O O10 0.403459 0.191160 0.373221
O O11 0.096259 0.788110 0.832839
O O12 0.000000 0.755092 0.877086
O O13 0.070882 0.721277 0.000000
O O14 0.159376 0.103901 0.500000
O O15 0.132972 0.122966 0.306135
O O16 0.153508 0.000000 0.380015
O O17 0.168974 0.724604 0.500000
O O18 0.168034 0.757949 0.298910
O O19 0.314980 0.657338 0.852580
O O20 0.250000 0.750000 0.870026
O O21 0.246747 0.651963 0.000000
#
# Coordination Sequence:
#
# PCOD9486815 Si02
#       8
#     8  16  16  16  16  16  16  16
#     4   9  16  28  45  63  89 127 168 212 257 295
#     4  10  21  35  48  72 105 135 170 211 255 303
#     4   9  19  33  47  68  97 130 174 218 257 302
#     4   9  18  34  55  76 100 130 164 209 261 305
#     4   9  18  33  53  75 104 139 167 198 247 305
#     4  11  21  31  48  73 101 136 173 212 255 298
#     4  10  19  33  53  80 103 130 169 213 246 300
#     4  10  19  34  54  73  96 130 167 207 256 302
#
# _framework density 17.459769999999999
#
# number of rings (size 3 to 8) (size 9 to 14) (size 15 to 20)
#    0.000    2.333    1.333    1.600    0.933    1.867 
#    0.000    2.333    0.000    4.800    0.000    1.867 
#    0.000    0.000    0.000    0.000    0.000    0.000 
#
# Total GULP energy -334328.514612 kJ/mol
# GULP energy per Si atom -5572.141910 kJ/mol
# Density = 1.742003 g / cm^3
# Si number density = 17.459770 Si / 1000 Ang^3
#
#
#
# Elastic Constant Matrix: (Units=GPa)
#
#
# Indices 1 2 3 4 5 6 
#
# 1 29.1461 11.7369 27.3841 0.0000 0.0000 0.0000
# 2 11.7369 60.9660 28.7847 0.0000 0.0000 0.0000
# 3 27.3841 28.7847 114.8379 0.0000 0.0000 0.0000
# 4 0.0000 0.0000 0.0000 23.1163 0.0000 0.0000
# 5 0.0000 0.0000 0.0000 0.0000 15.5102 0.0000
# 6 0.0000 0.0000 0.0000 0.0000 0.0000 20.8357
#
#
#
# Elastic Compliance Matrix: (Units=1/GPa)
#
#
# Indices 1 2 3 4 5 6 
#
# 1 0.045097 -0.004088 -0.009729 0.000000 0.000000 0.000000
# 2 -0.004088 0.018975 -0.003781 0.000000 0.000000 0.000000
# 3 -0.009729 -0.003781 0.011976 0.000000 0.000000 0.000000
# 4 0.000000 0.000000 0.000000 0.043259 0.000000 0.000000
# 5 0.000000 0.000000 0.000000 0.000000 0.064474 0.000000
# 6 0.000000 0.000000 0.000000 0.000000 0.000000 0.047995
#
#
# Mechanical properties :
#
#
# Convention : Reuss Voigt Hill
#
# Bulk Modulus (GPa) = 24.47954 37.86238 31.17096
# Shear Modulus (GPa) = 17.81962 21.02874 19.42418
#
# Velocity S-wave (km/s) = 3.19816 3.47423 3.33905
# Velocity P-wave (km/s) = 5.26200 6.15031 5.72341
#
# Compressibility (1/GPa) = 0.04085044
#
# Stress axis : x y z
#
# Youngs Moduli (GPa) = 22.17430 52.70105 83.50247
#
# Poissons Ratio (x) = 0.21546 0.81240
# Poissons Ratio (y) = 0.09066 0.31574
# Poissons Ratio (z) = 0.21573 0.19928
#
# Static dielectric constant tensor:
#      x y z
#    x 1.604520 0.000000 0.000000 
#    y 0.000000 1.607370 0.000000 
#    z 0.000000 0.000000 1.595870 
# 
# From -- ./inp_files/34274.got.cif
#   From: 2010.05.17/outbox.cif.g08.bks.cpg/sg65_18_cif.got.tgz:34274.got - 2010.06.03 17:01:31.
