data_PCOD9486316
_publ_section_title
;
Structure prediction by ZEFSAII (Michael W. Deem and Ramdas Pophale) SiO2 
 PCOD9486316
Probable space group: C M M M
;
_chemical_formula_sum "Si O2"
_cell_formula_units_Z 104
_cell_length_a 10.056449
_cell_length_b 14.416732
_cell_length_c 33.618421
_cell_angle_alpha 90.000000
_cell_angle_beta 90.000000
_cell_angle_gamma 90.000000
_cell_volume 4874.036669
_symmetry_space_group_name_H-M "C M M M"
_symmetry_group_IT_number 65
_symmetry_cell_setting 'orthorhombic'
loop_
_space_group_symop_operation_xyz
x,y,z
-x,-y,z
x,-y,-z
-x,y,-z
-x,-y,-z
x,y,-z
-x,y,z
x,-y,z
1/2+x,1/2+y,z
1/2-x,1/2-y,z
1/2+x,1/2-y,-z
1/2-x,1/2+y,-z
1/2-x,1/2-y,-z
1/2+x,1/2+y,-z
1/2-x,1/2+y,z
1/2+x,1/2-y,z
loop_
_atom_site_type_symbol
_atom_site_label
_atom_site_fract_x
_atom_site_fract_y
_atom_site_fract_z
Si Si1 0.346159 0.113549 0.326850
Si Si2 0.000000 0.864937 0.953631
Si Si3 0.848320 0.391712 0.185518
Si Si4 0.661570 0.108087 0.585368
Si Si5 0.500000 0.138857 0.954960
Si Si6 0.843742 0.613498 0.500000
Si Si7 0.246661 0.361593 0.096782
Si Si8 0.846561 0.886575 0.255106
O O1 0.500000 0.141723 0.318194
O O2 0.305213 0.146135 0.371131
O O3 0.238104 0.140059 0.294043
O O4 0.349179 0.000000 0.327601
O O5 0.875578 0.893227 0.926893
O O6 0.000000 0.751933 0.955522
O O7 0.000000 0.894729 0.000000
O O8 0.864003 0.500000 0.195727
O O9 0.782197 0.387894 0.142029
O O10 0.742717 0.355444 0.217614
O O11 0.000000 0.351736 0.185116
O O12 0.500000 0.110190 0.583880
O O13 0.712325 0.144755 0.542768
O O14 0.701374 0.000000 0.586199
O O15 0.625833 0.107983 0.930442
O O16 0.500000 0.107763 0.000000
O O17 0.839101 0.500000 0.500000
O O18 0.000000 0.638534 0.500000
O O19 0.250000 0.250000 0.097072
O O20 0.000000 0.854029 0.254542
O O21 0.852454 0.000000 0.254440
#
# Coordination Sequence:
#
# PCOD9486316 Si02
#       8
#    16   8  16  16   8   8  16  16
#     4   8  12  19  31  46  64  88 121 161 203 247
#     4   9  18  30  49  75  97 121 149 181 217 248
#     4  10  20  34  50  67  90 120 151 182 219 262
#     4   7   9  12  20  35  55  79 108 147 195 242
#     4   9  16  30  51  73  97 121 151 185 211 246
#     4   7   8  10  16  30  53  77 103 141 192 243
#     4  10  19  32  51  75  98 120 149 182 216 254
#     4   9  17  27  39  56  76 101 134 171 213 258
#
# _framework density 21.337548999999999
#
# number of rings (size 3 to 8) (size 9 to 14) (size 15 to 20)
#    0.000    3.308    0.769    2.769    1.077    3.692 
#    0.000    0.000    0.000    2.769    0.000    0.538 
#    0.000    4.308    0.000    0.000    0.000    0.000 
#
# Total GULP energy -289744.450950 kJ/mol
# GULP energy per Si atom -5572.008672 kJ/mol
# Density = 2.128898 g / cm^3
# Si number density = 21.337549 Si / 1000 Ang^3
#
#
#
# Elastic Constant Matrix: (Units=GPa)
#
#
# Indices 1 2 3 4 5 6 
#
# 1 173.5470 10.9265 125.0793 0.0000 0.0000 0.0000
# 2 10.9265 69.7303 -0.1325 0.0000 0.0000 0.0000
# 3 125.0793 -0.1325 255.2117 0.0000 0.0000 0.0000
# 4 0.0000 0.0000 0.0000 8.8749 0.0000 0.0000
# 5 0.0000 0.0000 0.0000 0.0000 -1.3115 0.0000
# 6 0.0000 0.0000 0.0000 0.0000 0.0000 -10.6916
#
#
#
# Elastic Compliance Matrix: (Units=1/GPa)
#
#
# Indices 1 2 3 4 5 6 
#
# 1 0.009049 -0.001426 -0.004436 0.000000 0.000000 0.000000
# 2 -0.001426 0.014566 0.000707 0.000000 0.000000 0.000000
# 3 -0.004436 0.000707 0.006093 0.000000 0.000000 0.000000
# 4 0.000000 0.000000 0.000000 0.112678 0.000000 0.000000
# 5 0.000000 0.000000 0.000000 0.000000 -0.762469 0.000000
# 6 0.000000 0.000000 0.000000 0.000000 0.000000 -0.093531
#
#
# Mechanical properties :
#
#
# Convention : Reuss Voigt Hill
#
# Bulk Modulus (GPa) = 51.55552 85.58173 68.56862
# Shear Modulus (GPa) = -7.17526 23.54872 8.18673
#
# Velocity S-wave (km/s) = -1.83577 3.32569 1.96089
# Velocity P-wave (km/s) = 4.44083 7.41233 6.10997
#
# Compressibility (1/GPa) = 0.01939657
#
# Stress axis : x y z
#
# Youngs Moduli (GPa) = 110.51301 68.65395 164.13543
#
# Poissons Ratio (x) = 0.09792 0.72803
# Poissons Ratio (y) = 0.15763 -0.11598
# Poissons Ratio (z) = 0.49018 -0.04851
#
# Static dielectric constant tensor:
#      x y z
#    x 1.744350 0.000000 0.000000 
#    y 0.000000 1.879300 0.000000 
#    z 0.000000 0.000000 1.785890 
# 
# From -- ./inp_files/77076.got.cif
#   From: 2010.05.17/outbox.cif.g08.bks.cpg/sg65_39_cif.got.tgz:77076.got - 2010.06.03 17:01:31.
