data_PCOD9486496
_publ_section_title
;
Structure prediction by ZEFSAII (Michael W. Deem and Ramdas Pophale) SiO2 
 PCOD9486496
Probable space group: C M M M
;
_chemical_formula_sum "Si O2"
_cell_formula_units_Z 64
_cell_length_a 22.398549
_cell_length_b 10.102907
_cell_length_c 17.039556
_cell_angle_alpha 90.000000
_cell_angle_beta 90.000000
_cell_angle_gamma 90.000000
_cell_volume 3855.888923
_symmetry_space_group_name_H-M "C M M M"
_symmetry_group_IT_number 65
_symmetry_cell_setting 'orthorhombic'
loop_
_space_group_symop_operation_xyz
x,y,z
-x,-y,z
x,-y,-z
-x,y,-z
-x,-y,-z
x,y,-z
-x,y,z
x,-y,z
1/2+x,1/2+y,z
1/2-x,1/2-y,z
1/2+x,1/2-y,-z
1/2-x,1/2+y,-z
1/2-x,1/2-y,-z
1/2+x,1/2+y,-z
1/2-x,1/2+y,z
1/2+x,1/2-y,z
loop_
_atom_site_type_symbol
_atom_site_label
_atom_site_fract_x
_atom_site_fract_y
_atom_site_fract_z
Si Si1 0.672430 0.500000 0.591233
Si Si2 0.803170 0.352230 0.000000
Si Si3 0.183318 0.500000 0.587446
Si Si4 0.322072 0.753917 0.694653
Si Si5 0.609904 0.157718 0.149089
Si Si6 0.000000 0.841107 0.904855
O O1 0.650135 0.500000 0.500000
O O2 0.744538 0.500000 0.583590
O O3 0.658253 0.374618 0.645820
O O4 0.750000 0.250000 0.000000
O O5 0.844494 0.338015 0.076223
O O6 0.777417 0.500000 0.000000
O O7 0.159458 0.500000 0.500000
O O8 0.165643 0.627147 0.635554
O O9 0.250000 0.750000 0.709308
O O10 0.356489 0.786229 0.774403
O O11 0.556215 0.257290 0.127729
O O12 0.593257 0.000000 0.159071
O O13 0.000000 0.000000 0.884894
O O14 0.000000 0.833487 0.000000
#
# Coordination Sequence:
#
# PCOD9486496 Si02
#       6
#     8   8   8  16  16   8
#     4   9  18  30  50  80 117 158 188 222 279 333
#     4  10  22  37  56  83 117 154 186 218 275 340
#     4   9  16  30  50  76 115 154 188 226 271 337
#     4  10  19  32  52  84 120 151 188 230 277 337
#     4  11  22  39  59  82 112 152 192 232 283 332
#     4  11  25  43  63  85 104 139 192 249 290 331
#
# _framework density 16.597988999999998
#
# number of rings (size 3 to 8) (size 9 to 14) (size 15 to 20)
#    0.000    1.875    2.500    1.875    1.750    4.500 
#    0.000    0.000    0.000    0.000    0.000    5.250 
#    0.000    0.000    0.000    0.000    0.000    0.000 
#
# Total GULP energy -178284.906798 kJ/mol
# GULP energy per Si atom -5571.403337 kJ/mol
# Density = 1.656021 g / cm^3
# Si number density = 16.597989 Si / 1000 Ang^3
#
#
#
# Elastic Constant Matrix: (Units=GPa)
#
#
# Indices 1 2 3 4 5 6 
#
# 1 69.9736 71.0906 49.8930 0.0000 0.0000 0.0000
# 2 71.0906 201.9761 95.1349 0.0000 0.0000 0.0000
# 3 49.8930 95.1349 172.2870 0.0000 0.0000 0.0000
# 4 0.0000 0.0000 0.0000 57.7865 0.0000 0.0000
# 5 0.0000 0.0000 0.0000 0.0000 -6.8976 0.0000
# 6 0.0000 0.0000 0.0000 0.0000 0.0000 25.3815
#
#
#
# Elastic Compliance Matrix: (Units=1/GPa)
#
#
# Indices 1 2 3 4 5 6 
#
# 1 0.023343 -0.006801 -0.003005 0.000000 0.000000 0.000000
# 2 -0.006801 0.008673 -0.002820 0.000000 0.000000 0.000000
# 3 -0.003005 -0.002820 0.008231 0.000000 0.000000 0.000000
# 4 0.000000 0.000000 0.000000 0.017305 0.000000 0.000000
# 5 0.000000 0.000000 0.000000 0.000000 -0.144978 0.000000
# 6 0.000000 0.000000 0.000000 0.000000 0.000000 0.039399
#
#
# Mechanical properties :
#
#
# Convention : Reuss Voigt Hill
#
# Bulk Modulus (GPa) = 66.67990 97.38596 82.03293
# Shear Modulus (GPa) = -281.23955 30.46198 -125.38879
#
# Velocity S-wave (km/s) = -13.03111 4.28867 -8.70107
# Velocity P-wave (km/s) = 13.64377 9.12821 7.17036
#
# Compressibility (1/GPa) = 0.01499702
#
# Stress axis : x y z
#
# Youngs Moduli (GPa) = 42.83961 115.30140 121.48741
#
# Poissons Ratio (x) = 0.78416 0.36501
# Poissons Ratio (y) = 0.29135 0.34255
# Poissons Ratio (z) = 0.12871 0.32510
#
# Static dielectric constant tensor:
#      x y z
#    x 1.536950 0.000000 0.000000 
#    y 0.000000 1.585610 0.000000 
#    z 0.000000 0.000000 1.543550 
# 
# From -- ./inp_files/36130.got.cif
#   From: 2010.05.17/outbox.cif.g08.bks.cpg/sg65_19_cif.got.tgz:36130.got - 2010.06.03 17:01:31.
