data_PCOD9486869
_publ_section_title
;
Structure prediction by ZEFSAII (Michael W. Deem and Ramdas Pophale) SiO2 
 PCOD9486869
Probable space group: C M M M
;
_chemical_formula_sum "Si O2"
_cell_formula_units_Z 88
_cell_length_a 18.669106
_cell_length_b 7.606714
_cell_length_c 30.225959
_cell_angle_alpha 90.000000
_cell_angle_beta 90.000000
_cell_angle_gamma 90.000000
_cell_volume 4292.405061
_symmetry_space_group_name_H-M "C M M M"
_symmetry_group_IT_number 65
_symmetry_cell_setting 'orthorhombic'
loop_
_space_group_symop_operation_xyz
x,y,z
-x,-y,z
x,-y,-z
-x,y,-z
-x,-y,-z
x,y,-z
-x,y,z
x,-y,z
1/2+x,1/2+y,z
1/2-x,1/2-y,z
1/2+x,1/2-y,-z
1/2-x,1/2+y,-z
1/2-x,1/2-y,-z
1/2+x,1/2+y,-z
1/2-x,1/2+y,z
1/2+x,1/2-y,z
loop_
_atom_site_type_symbol
_atom_site_label
_atom_site_fract_x
_atom_site_fract_y
_atom_site_fract_z
Si Si1 0.165593 0.209097 0.403987
Si Si2 0.419481 0.208722 0.315694
Si Si3 0.416371 0.784916 0.143891
Si Si4 0.833694 0.711284 0.769349
Si Si5 0.334979 0.711009 0.500000
Si Si6 0.586120 0.788739 0.047508
O O1 0.250000 0.250000 0.398791
O O2 0.121310 0.269552 0.361883
O O3 0.139680 0.278734 0.452127
O O4 0.159206 0.000000 0.405527
O O5 0.500000 0.281366 0.317316
O O6 0.373975 0.279799 0.274368
O O7 0.425244 0.000000 0.308423
O O8 0.500000 0.735438 0.149070
O O9 0.370406 0.723703 0.185503
O O10 0.388841 0.724374 0.095539
O O11 0.415176 0.000000 0.143229
O O12 0.841299 0.500000 0.769787
O O13 0.750000 0.750000 0.767637
O O14 0.345171 0.500000 0.500000
O O15 0.250000 0.750000 0.500000
O O16 0.500000 0.761302 0.047858
O O17 0.596839 0.000000 0.046995
O O18 0.613357 0.719931 0.000000
#
# Coordination Sequence:
#
# PCOD9486869 Si02
#       6
#    16  16  16  16   8  16
#     4  10  19  33  54  78 103 131 163 197 234 277
#     4  10  21  36  52  71  96 125 159 200 244 288
#     4   8  13  23  41  63  86 115 151 188 227 271
#     4  10  20  33  49  68  91 121 155 191 232 280
#     4   8  16  30  49  74 101 129 161 195 229 270
#     4   7   9  14  28  54  85 111 138 179 227 267
#
# _framework density 20.501325999999999
#
# number of rings (size 3 to 8) (size 9 to 14) (size 15 to 20)
#    0.000    3.091    0.000    3.273    0.000    5.455 
#    0.000    0.455    0.000    4.909    0.000    0.000 
#    0.000    0.000    0.000    4.545    0.000    3.636 
#
# Total GULP energy -245169.004615 kJ/mol
# GULP energy per Si atom -5572.022832 kJ/mol
# Density = 2.045466 g / cm^3
# Si number density = 20.501326 Si / 1000 Ang^3
#
#
#
# Elastic Constant Matrix: (Units=GPa)
#
#
# Indices 1 2 3 4 5 6 
#
# 1 100.0242 0.6562 107.0005 0.0000 0.0000 0.0000
# 2 0.6562 43.2557 7.5315 0.0000 0.0000 0.0000
# 3 107.0005 7.5315 271.5364 0.0000 0.0000 0.0000
# 4 0.0000 0.0000 0.0000 13.2655 0.0000 0.0000
# 5 0.0000 0.0000 0.0000 0.0000 29.4959 0.0000
# 6 0.0000 0.0000 0.0000 0.0000 0.0000 13.9536
#
#
#
# Elastic Compliance Matrix: (Units=1/GPa)
#
#
# Indices 1 2 3 4 5 6 
#
# 1 0.017320 0.000930 -0.006851 0.000000 0.000000 0.000000
# 2 0.000930 0.023280 -0.001012 0.000000 0.000000 0.000000
# 3 -0.006851 -0.001012 0.006410 0.000000 0.000000 0.000000
# 4 0.000000 0.000000 0.000000 0.075383 0.000000 0.000000
# 5 0.000000 0.000000 0.000000 0.000000 0.033903 0.000000
# 6 0.000000 0.000000 0.000000 0.000000 0.000000 0.071666
#
#
# Mechanical properties :
#
#
# Convention : Reuss Voigt Hill
#
# Bulk Modulus (GPa) = 30.17047 71.68809 50.92928
# Shear Modulus (GPa) = 19.77240 31.31823 25.54531
#
# Velocity S-wave (km/s) = 3.10892 3.91272 3.53375
# Velocity P-wave (km/s) = 5.25695 7.44687 6.44560
#
# Compressibility (1/GPa) = 0.03314500
#
# Stress axis : x y z
#
# Youngs Moduli (GPa) = 57.73595 42.95450 155.99471
#
# Poissons Ratio (x) = -0.03995 1.06871
# Poissons Ratio (y) = -0.05370 0.15790
# Poissons Ratio (z) = 0.39555 0.04348
#
# Static dielectric constant tensor:
#      x y z
#    x 1.678380 0.000000 0.000000 
#    y 0.000000 1.791350 0.000000 
#    z 0.000000 0.000000 1.793340 
# 
# From -- ./inp_files/77863.got.cif
#   From: 2010.05.17/outbox.cif.g08.bks.cpg/sg65_39_cif.got.tgz:77863.got - 2010.06.03 17:01:31.
