data_PCOD9486891
_publ_section_title
;
Structure prediction by ZEFSAII (Michael W. Deem and Ramdas Pophale) SiO2 
 PCOD9486891
Probable space group: C M M M
;
_chemical_formula_sum "Si O2"
_cell_formula_units_Z 96
_cell_length_a 18.764741
_cell_length_b 23.334080
_cell_length_c 13.364603
_cell_angle_alpha 90.000000
_cell_angle_beta 90.000000
_cell_angle_gamma 90.000000
_cell_volume 5851.797908
_symmetry_space_group_name_H-M "C M M M"
_symmetry_group_IT_number 65
_symmetry_cell_setting 'orthorhombic'
loop_
_space_group_symop_operation_xyz
x,y,z
-x,-y,z
x,-y,-z
-x,y,-z
-x,-y,-z
x,y,-z
-x,y,z
x,-y,z
1/2+x,1/2+y,z
1/2-x,1/2-y,z
1/2+x,1/2-y,-z
1/2-x,1/2+y,-z
1/2-x,1/2-y,-z
1/2+x,1/2+y,-z
1/2-x,1/2+y,z
1/2+x,1/2-y,z
loop_
_atom_site_type_symbol
_atom_site_label
_atom_site_fract_x
_atom_site_fract_y
_atom_site_fract_z
Si Si1 0.854186 0.431708 0.886008
Si Si2 0.750000 0.750000 0.229237
Si Si3 0.787477 0.134214 0.880065
Si Si4 0.915889 0.116579 0.270518
Si Si5 0.122685 0.766009 0.618286
Si Si6 0.000000 0.672144 0.386112
Si Si7 0.586033 0.500000 0.386897
Si Si8 0.000000 0.568571 0.234030
O O1 0.846908 0.500000 0.887533
O O2 0.779050 0.406360 0.849547
O O3 0.926971 0.419803 0.826927
O O4 0.863684 0.410782 0.000000
O O5 0.761975 0.803978 0.157978
O O6 0.815520 0.748122 0.305901
O O7 0.861200 0.121398 0.822145
O O8 0.796759 0.131152 0.000000
O O9 0.905504 0.172428 0.341523
O O10 0.000000 0.113707 0.242668
O O11 0.895695 0.058459 0.329481
O O12 0.141705 0.770935 0.500000
O O13 0.065816 0.715206 0.628381
O O14 0.000000 0.652739 0.500000
O O15 0.000000 0.615427 0.320634
O O16 0.500000 0.500000 0.392821
O O17 0.614515 0.500000 0.500000
O O18 0.000000 0.500000 0.259848
#
# Coordination Sequence:
#
# PCOD9486891 Si02
#       8
#    16   8  16  16  16   8   8   8
#     4   9  18  33  54  78 101 129 169 214 261 308
#     4  10  20  34  52  76 104 138 176 220 264 316
#     4  10  21  35  53  75 107 146 179 218 265 315
#     4  10  20  34  53  79 107 141 181 221 263 314
#     4  10  19  33  54  78 105 135 175 220 264 316
#     4  10  20  32  51  75 102 135 169 205 251 311
#     4   9  18  32  53  79 107 136 172 221 276 321
#     4  10  19  33  54  79 104 133 167 216 261 311
#
# _framework density 16.405214999999998
#
# number of rings (size 3 to 8) (size 9 to 14) (size 15 to 20)
#    0.000    2.250    0.833    2.250    1.167    2.167 
#    0.000    0.000    0.000    3.500    0.000    0.000 
#    0.000    0.000    0.000    0.000    0.000    0.000 
#
# Total GULP energy -267274.687126 kJ/mol
# GULP energy per Si atom -5568.222648 kJ/mol
# Density = 1.636788 g / cm^3
# Si number density = 16.405215 Si / 1000 Ang^3
#
#
#
# Elastic Constant Matrix: (Units=GPa)
#
#
# Indices 1 2 3 4 5 6 
#
# 1 95.7839 44.4353 55.3507 0.0000 0.0000 0.0000
# 2 44.4353 85.0312 60.6783 0.0000 0.0000 0.0000
# 3 55.3507 60.6783 93.6768 0.0000 0.0000 0.0000
# 4 0.0000 0.0000 0.0000 25.8314 0.0000 0.0000
# 5 0.0000 0.0000 0.0000 0.0000 8.5966 0.0000
# 6 0.0000 0.0000 0.0000 0.0000 0.0000 29.0319
#
#
#
# Elastic Compliance Matrix: (Units=1/GPa)
#
#
# Indices 1 2 3 4 5 6 
#
# 1 0.016269 -0.003053 -0.007635 0.000000 0.000000 0.000000
# 2 -0.003053 0.022442 -0.012732 0.000000 0.000000 0.000000
# 3 -0.007635 -0.012732 0.023433 0.000000 0.000000 0.000000
# 4 0.000000 0.000000 0.000000 0.038713 0.000000 0.000000
# 5 0.000000 0.000000 0.000000 0.000000 0.116325 0.000000
# 6 0.000000 0.000000 0.000000 0.000000 0.000000 0.034445
#
#
# Mechanical properties :
#
#
# Convention : Reuss Voigt Hill
#
# Bulk Modulus (GPa) = 65.34757 66.15785 65.75271
# Shear Modulus (GPa) = 16.47076 20.29382 18.38229
#
# Velocity S-wave (km/s) = 3.17203 3.52097 3.35104
# Velocity P-wave (km/s) = 7.30312 7.54616 7.42563
#
# Compressibility (1/GPa) = 0.01530279
#
# Stress axis : x y z
#
# Youngs Moduli (GPa) = 61.46804 44.55965 42.67408
#
# Poissons Ratio (x) = 0.13606 0.32581
# Poissons Ratio (y) = 0.18769 0.54334
# Poissons Ratio (z) = 0.46930 0.56735
#
# Static dielectric constant tensor:
#      x y z
#    x 1.543810 0.000000 0.000000 
#    y 0.000000 1.538090 0.000000 
#    z 0.000000 0.000000 1.542560 
# 
# From -- ./inp_files/27230.got.cif
#   From: 2010.05.17/outbox.cif.g08.bks.cpg/sg65_14_cif.got.tgz:27230.got - 2010.06.03 17:01:31.
