data_PCOD9486391
_publ_section_title
;
Structure prediction by ZEFSAII (Michael W. Deem and Ramdas Pophale) SiO2 
 PCOD9486391
Probable space group: C M M M
;
_chemical_formula_sum "Si O2"
_cell_formula_units_Z 96
_cell_length_a 29.801798
_cell_length_b 7.513438
_cell_length_c 21.115610
_cell_angle_alpha 90.000000
_cell_angle_beta 90.000000
_cell_angle_gamma 90.000000
_cell_volume 4728.079886
_symmetry_space_group_name_H-M "C M M M"
_symmetry_group_IT_number 65
_symmetry_cell_setting 'orthorhombic'
loop_
_space_group_symop_operation_xyz
x,y,z
-x,-y,z
x,-y,-z
-x,y,-z
-x,-y,-z
x,y,-z
-x,y,z
x,-y,z
1/2+x,1/2+y,z
1/2-x,1/2-y,z
1/2+x,1/2-y,-z
1/2-x,1/2+y,-z
1/2-x,1/2-y,-z
1/2+x,1/2+y,-z
1/2-x,1/2+y,z
1/2+x,1/2-y,z
loop_
_atom_site_type_symbol
_atom_site_label
_atom_site_fract_x
_atom_site_fract_y
_atom_site_fract_z
Si Si1 0.801340 0.286139 0.928174
Si Si2 0.138245 0.706692 0.184122
Si Si3 0.147157 0.217731 0.568887
Si Si4 0.197340 0.211792 0.695274
Si Si5 0.950256 0.715931 0.249501
Si Si6 0.450823 0.292014 0.602012
O O1 0.805747 0.500000 0.930123
O O2 0.750000 0.250000 0.908670
O O3 0.836197 0.215308 0.876463
O O4 0.807492 0.218806 0.000000
O O5 0.129389 0.500000 0.169014
O O6 0.171460 0.712985 0.244160
O O7 0.090850 0.783179 0.207385
O O8 0.165350 0.269613 0.500000
O O9 0.175339 0.277530 0.629634
O O10 0.095521 0.280296 0.574638
O O11 0.146532 0.000000 0.570995
O O12 0.250000 0.250000 0.697339
O O13 0.190841 0.000000 0.697854
O O14 0.948081 0.500000 0.252218
O O15 0.946021 0.779754 0.321874
O O16 0.000000 0.765882 0.226696
O O17 0.500000 0.215291 0.585525
O O18 0.452239 0.500000 0.584144
#
# Coordination Sequence:
#
# PCOD9486391 Si02
#       6
#    16  16  16  16  16  16
#     4   9  18  32  49  71  99 129 160 195 236 282
#     4  10  19  32  52  75  99 128 161 197 237 282
#     4   9  18  32  48  68  95 125 157 196 242 288
#     4  11  22  35  51  71  95 124 160 204 245 286
#     4   9  17  29  47  71  99 128 156 190 235 284
#     4   9  16  28  48  72  95 120 154 195 239 286
#
# _framework density 20.304227000000001
#
# number of rings (size 3 to 8) (size 9 to 14) (size 15 to 20)
#    0.000    2.500    1.667    1.000    0.000    2.667 
#    0.000    1.667    0.000    4.500    0.000    5.833 
#    0.000    0.000    0.000    9.833    0.000   10.333 
#
# Total GULP energy -267892.983449 kJ/mol
# GULP energy per Si atom -5581.103822 kJ/mol
# Density = 2.025801 g / cm^3
# Si number density = 20.304227 Si / 1000 Ang^3
#
#
#
# Elastic Constant Matrix: (Units=GPa)
#
#
# Indices 1 2 3 4 5 6 
#
# 1 132.7622 -7.2728 62.0988 0.0000 0.0000 0.0000
# 2 -7.2728 57.2110 -5.1142 0.0000 0.0000 0.0000
# 3 62.0988 -5.1142 99.8483 0.0000 0.0000 0.0000
# 4 0.0000 0.0000 0.0000 10.4311 0.0000 0.0000
# 5 0.0000 0.0000 0.0000 0.0000 40.5693 0.0000
# 6 0.0000 0.0000 0.0000 0.0000 0.0000 -2.4606
#
#
#
# Elastic Compliance Matrix: (Units=1/GPa)
#
#
# Indices 1 2 3 4 5 6 
#
# 1 0.010656 0.000766 -0.006588 0.000000 0.000000 0.000000
# 2 0.000766 0.017615 0.000426 0.000000 0.000000 0.000000
# 3 -0.006588 0.000426 0.014134 0.000000 0.000000 0.000000
# 4 0.000000 0.000000 0.000000 0.095868 0.000000 0.000000
# 5 0.000000 0.000000 0.000000 0.000000 0.024649 0.000000
# 6 0.000000 0.000000 0.000000 0.000000 0.000000 -0.406404
#
#
# Mechanical properties :
#
#
# Convention : Reuss Voigt Hill
#
# Bulk Modulus (GPa) = 31.63347 43.24944 37.44145
# Shear Modulus (GPa) = -22.50704 25.71527 1.60411
#
# Velocity S-wave (km/s) = -3.33301 3.56265 0.88981
# Velocity P-wave (km/s) = 0.89533 6.18630 4.41995
#
# Compressibility (1/GPa) = 0.03161209
#
# Stress axis : x y z
#
# Youngs Moduli (GPa) = 93.84696 56.77122 70.75029
#
# Poissons Ratio (x) = -0.04347 0.46609
# Poissons Ratio (y) = -0.07186 -0.03014
# Poissons Ratio (z) = 0.61825 -0.02419
#
# Static dielectric constant tensor:
#      x y z
#    x 1.727440 0.000000 0.000000 
#    y 0.000000 1.748810 0.000000 
#    z 0.000000 0.000000 1.709470 
# 
# From -- ./inp_files/65741.got.cif
#   From: 2010.05.17/outbox.cif.g08.bks.cpg/sg65_33_cif.got.tgz:65741.got - 2010.06.03 17:01:31.
