data_PCOD9486687
_publ_section_title
;
Structure prediction by ZEFSAII (Michael W. Deem and Ramdas Pophale) SiO2 
 PCOD9486687
Probable space group: C M M M
;
_chemical_formula_sum "Si O2"
_cell_formula_units_Z 80
_cell_length_a 13.528829
_cell_length_b 16.652708
_cell_length_c 18.544444
_cell_angle_alpha 90.000000
_cell_angle_beta 90.000000
_cell_angle_gamma 90.000000
_cell_volume 4177.908182
_symmetry_space_group_name_H-M "C M M M"
_symmetry_group_IT_number 65
_symmetry_cell_setting 'orthorhombic'
loop_
_space_group_symop_operation_xyz
x,y,z
-x,-y,z
x,-y,-z
-x,y,-z
-x,-y,-z
x,y,-z
-x,y,z
x,-y,z
1/2+x,1/2+y,z
1/2-x,1/2-y,z
1/2+x,1/2-y,-z
1/2-x,1/2+y,-z
1/2-x,1/2-y,-z
1/2+x,1/2+y,-z
1/2-x,1/2+y,z
1/2+x,1/2-y,z
loop_
_atom_site_type_symbol
_atom_site_label
_atom_site_fract_x
_atom_site_fract_y
_atom_site_fract_z
Si Si1 0.893658 0.591501 0.378601
Si Si2 0.618847 0.093548 0.921185
Si Si3 0.388849 0.674300 0.276149
Si Si4 0.176242 0.096832 0.581963
Si Si5 0.323601 0.146112 0.765876
O O1 0.897265 0.500000 0.405021
O O2 0.791060 0.624722 0.409415
O O3 0.878922 0.590455 0.291913
O O4 0.000000 0.630053 0.395528
O O5 0.500000 0.095411 0.922074
O O6 0.651181 0.137927 0.849241
O O7 0.648490 0.000000 0.915046
O O8 0.653257 0.123747 0.000000
O O9 0.500000 0.659658 0.248809
O O10 0.383542 0.646573 0.359107
O O11 0.359151 0.766751 0.262693
O O12 0.293705 0.630537 0.241770
O O13 0.144045 0.108280 0.500000
O O14 0.172003 0.000000 0.597439
#
# Coordination Sequence:
#
# PCOD9486687 Si02
#       5
#    16  16  16  16  16
#     4   9  16  27  48  76 102 131 165 201 248 304
#     4   9  17  30  53  85 113 136 165 201 242 288
#     4  10  21  35  51  73  98 129 172 212 250 300
#     4   9  19  35  52  71  96 127 168 217 262 302
#     4  10  19  33  52  73 103 136 165 204 249 294
#
# _framework density 19.148339
#
# number of rings (size 3 to 8) (size 9 to 14) (size 15 to 20)
#    0.000    2.600    0.000    3.000    0.000    3.600 
#    0.000   13.000    0.000    9.000    0.000    1.400 
#    0.000    0.000    0.000    0.000    0.000    0.000 
#
# Total GULP energy -222693.977658 kJ/mol
# GULP energy per Si atom -5567.349441 kJ/mol
# Density = 1.910476 g / cm^3
# Si number density = 19.148339 Si / 1000 Ang^3
#
#
#
# Elastic Constant Matrix: (Units=GPa)
#
#
# Indices 1 2 3 4 5 6 
#
# 1 101.9025 8.3073 14.2305 0.0000 0.0000 0.0000
# 2 8.3073 36.6581 42.7253 0.0000 0.0000 0.0000
# 3 14.2305 42.7253 141.6457 0.0000 0.0000 0.0000
# 4 0.0000 0.0000 0.0000 2.8296 0.0000 0.0000
# 5 0.0000 0.0000 0.0000 0.0000 2.0783 0.0000
# 6 0.0000 0.0000 0.0000 0.0000 0.0000 11.9937
#
#
#
# Elastic Compliance Matrix: (Units=1/GPa)
#
#
# Indices 1 2 3 4 5 6 
#
# 1 0.010021 -0.001692 -0.000496 0.000000 0.000000 0.000000
# 2 -0.001692 0.042355 -0.012606 0.000000 0.000000 0.000000
# 3 -0.000496 -0.012606 0.010912 0.000000 0.000000 0.000000
# 4 0.000000 0.000000 0.000000 0.353408 0.000000 0.000000
# 5 0.000000 0.000000 0.000000 0.000000 0.481173 0.000000
# 6 0.000000 0.000000 0.000000 0.000000 0.000000 0.083377
#
#
# Mechanical properties :
#
#
# Convention : Reuss Voigt Hill
#
# Bulk Modulus (GPa) = 29.67488 45.63696 37.65592
# Shear Modulus (GPa) = 4.89205 17.70987 11.30096
#
# Velocity S-wave (km/s) = 1.60011 3.04448 2.43200
# Velocity P-wave (km/s) = 4.35257 6.02026 5.25302
#
# Compressibility (1/GPa) = 0.03369854
#
# Stress axis : x y z
#
# Youngs Moduli (GPa) = 99.79474 23.61024 91.64220
#
# Poissons Ratio (x) = 0.03996 0.04547
# Poissons Ratio (y) = 0.16890 1.15520
# Poissons Ratio (z) = 0.04952 0.29762
#
# Static dielectric constant tensor:
#      x y z
#    x 1.715370 0.000000 0.000000 
#    y 0.000000 1.738720 0.000000 
#    z 0.000000 0.000000 1.673410 
# 
# From -- ./inp_files/52871.got.cif
#   From: 2010.05.17/outbox.cif.g08.bks.cpg/sg65_27_cif.got.tgz:52871.got - 2010.06.03 17:01:31.
