data_PCOD9486133
_publ_section_title
;
Structure prediction by ZEFSAII (Michael W. Deem and Ramdas Pophale) SiO2 
 PCOD9486133
Probable space group: C M M M
;
_chemical_formula_sum "Si O2"
_cell_formula_units_Z 104
_cell_length_a 9.339481
_cell_length_b 30.133221
_cell_length_c 22.736790
_cell_angle_alpha 90.000000
_cell_angle_beta 90.000000
_cell_angle_gamma 90.000000
_cell_volume 6398.784001
_symmetry_space_group_name_H-M "C M M M"
_symmetry_group_IT_number 65
_symmetry_cell_setting 'orthorhombic'
loop_
_space_group_symop_operation_xyz
x,y,z
-x,-y,z
x,-y,-z
-x,y,-z
-x,-y,-z
x,y,-z
-x,y,z
x,-y,z
1/2+x,1/2+y,z
1/2-x,1/2-y,z
1/2+x,1/2-y,-z
1/2-x,1/2+y,-z
1/2-x,1/2-y,-z
1/2+x,1/2+y,-z
1/2-x,1/2+y,z
1/2+x,1/2-y,z
loop_
_atom_site_type_symbol
_atom_site_label
_atom_site_fract_x
_atom_site_fract_y
_atom_site_fract_z
Si Si1 0.830063 0.203904 0.850201
Si Si2 0.161676 0.950011 0.071302
Si Si3 0.328243 0.702479 0.500000
Si Si4 0.333307 0.865351 0.070542
Si Si5 0.672085 0.361629 0.389998
Si Si6 0.829479 0.796258 0.286567
Si Si7 0.828802 0.449519 0.570300
O O1 0.750000 0.250000 0.861061
O O2 0.764641 0.168483 0.894291
O O3 0.802914 0.192125 0.781694
O O4 0.000000 0.208541 0.858182
O O5 0.279271 0.914298 0.087852
O O6 0.000000 0.936904 0.089502
O O7 0.189649 0.000000 0.091980
O O8 0.160338 0.951354 0.000000
O O9 0.500000 0.709971 0.500000
O O10 0.250000 0.750000 0.500000
O O11 0.292464 0.672254 0.443310
O O12 0.500000 0.858802 0.083973
O O13 0.314697 0.860433 0.000000
O O14 0.500000 0.368201 0.390856
O O15 0.712398 0.335669 0.330451
O O16 0.748296 0.408806 0.399024
O O17 0.750000 0.750000 0.299930
O O18 0.000000 0.789012 0.293711
O O19 0.802421 0.445925 0.500000
O O20 0.786692 0.500000 0.588026
O O21 0.000000 0.445584 0.579077
#
# Coordination Sequence:
#
# PCOD9486133 Si02
#       7
#    16  16   8  16  16  16  16
#     4  10  20  35  53  71  94 127 165 205 246 290
#     4   8  14  26  45  69  97 128 159 190 229 281
#     4  10  20  30  43  68 101 131 156 189 233 282
#     4  10  20  32  48  73 102 129 159 199 247 296
#     4  10  19  32  49  73 101 128 161 199 242 288
#     4   9  19  34  52  73  97 126 164 204 240 288
#     4   9  18  32  49  71  99 130 166 205 244 290
#
# _framework density 16.253088000000002
#
# number of rings (size 3 to 8) (size 9 to 14) (size 15 to 20)
#    0.000    2.615    0.769    2.308    0.000    3.692 
#    0.000    2.308    0.000    0.923    0.000    2.154 
#    0.000    0.000    0.000    0.000    0.000    0.000 
#
# Total GULP energy -289787.073064 kJ/mol
# GULP energy per Si atom -5572.828328 kJ/mol
# Density = 1.621610 g / cm^3
# Si number density = 16.253088 Si / 1000 Ang^3
#
#
#
# Elastic Constant Matrix: (Units=GPa)
#
#
# Indices 1 2 3 4 5 6 
#
# 1 66.5077 66.8094 42.1902 0.0000 0.0000 0.0000
# 2 66.8094 125.3304 48.7997 0.0000 0.0000 0.0000
# 3 42.1902 48.7997 36.6744 0.0000 0.0000 0.0000
# 4 0.0000 0.0000 0.0000 2.9392 0.0000 0.0000
# 5 0.0000 0.0000 0.0000 0.0000 17.6724 0.0000
# 6 0.0000 0.0000 0.0000 0.0000 0.0000 37.2446
#
#
#
# Elastic Compliance Matrix: (Units=1/GPa)
#
#
# Indices 1 2 3 4 5 6 
#
# 1 0.062162 -0.010982 -0.056898 0.000000 0.000000 0.000000
# 2 -0.010982 0.018497 -0.011979 0.000000 0.000000 0.000000
# 3 -0.056898 -0.011979 0.108662 0.000000 0.000000 0.000000
# 4 0.000000 0.000000 0.000000 0.340233 0.000000 0.000000
# 5 0.000000 0.000000 0.000000 0.000000 0.056585 0.000000
# 6 0.000000 0.000000 0.000000 0.000000 0.000000 0.026850
#
#
# Mechanical properties :
#
#
# Convention : Reuss Voigt Hill
#
# Bulk Modulus (GPa) = 33.78055 60.45679 47.11867
# Shear Modulus (GPa) = 6.38916 16.28543 11.33730
#
# Velocity S-wave (km/s) = 1.98484 3.16886 2.64398
# Velocity P-wave (km/s) = 5.10705 7.11806 6.19470
#
# Compressibility (1/GPa) = 0.02960283
#
# Stress axis : x y z
#
# Youngs Moduli (GPa) = 16.08700 54.06139 9.20284
#
# Poissons Ratio (x) = 0.59371 0.52362
# Poissons Ratio (y) = 0.17667 0.11024
# Poissons Ratio (z) = 0.91532 0.64761
#
# Static dielectric constant tensor:
#      x y z
#    x 1.541330 0.000000 0.000000 
#    y 0.000000 1.538230 0.000000 
#    z 0.000000 0.000000 1.541780 
# 
# From -- ./inp_files/68231.got.cif
#   From: 2010.05.17/outbox.cif.g08.bks.cpg/sg65_35_cif.got.tgz:68231.got - 2010.06.03 17:01:31.
