data_PCOD9486128
_publ_section_title
;
Structure prediction by ZEFSAII (Michael W. Deem and Ramdas Pophale) SiO2 
 PCOD9486128
Probable space group: C M M M
;
_chemical_formula_sum "Si O2"
_cell_formula_units_Z 116
_cell_length_a 8.711507
_cell_length_b 26.948084
_cell_length_c 26.507569
_cell_angle_alpha 90.000000
_cell_angle_beta 90.000000
_cell_angle_gamma 90.000000
_cell_volume 6222.875080
_symmetry_space_group_name_H-M "C M M M"
_symmetry_group_IT_number 65
_symmetry_cell_setting 'orthorhombic'
loop_
_space_group_symop_operation_xyz
x,y,z
-x,-y,z
x,-y,-z
-x,y,-z
-x,-y,-z
x,y,-z
-x,y,z
x,-y,z
1/2+x,1/2+y,z
1/2-x,1/2-y,z
1/2+x,1/2-y,-z
1/2-x,1/2+y,-z
1/2-x,1/2-y,-z
1/2+x,1/2+y,-z
1/2-x,1/2+y,z
1/2+x,1/2-y,z
loop_
_atom_site_type_symbol
_atom_site_label
_atom_site_fract_x
_atom_site_fract_y
_atom_site_fract_z
Si Si1 0.183841 0.805496 0.944461
Si Si2 0.315787 0.946924 0.204693
Si Si3 0.315387 0.844149 0.840826
Si Si4 0.683198 0.698633 0.260957
Si Si5 0.186700 0.913937 0.420323
Si Si6 0.235145 0.500000 0.500000
Si Si7 0.826586 0.198576 0.560825
Si Si8 0.183308 0.907212 0.694892
O O1 0.250000 0.750000 0.944227
O O2 0.255083 0.831115 0.895812
O O3 0.000000 0.803897 0.939708
O O4 0.221320 0.827264 0.000000
O O5 0.500000 0.946697 0.202711
O O6 0.262891 0.899649 0.173352
O O7 0.265427 0.938420 0.262099
O O8 0.258381 0.000000 0.186322
O O9 0.500000 0.840570 0.839547
O O10 0.249185 0.810762 0.795336
O O11 0.500000 0.701572 0.258242
O O12 0.750000 0.750000 0.280979
O O13 0.724866 0.650541 0.294521
O O14 0.238690 0.856664 0.429229
O O15 0.217475 0.923750 0.361635
O O16 0.000000 0.915412 0.429211
O O17 0.256317 0.955739 0.456304
O O18 0.832835 0.202151 0.500000
O O19 0.750000 0.250000 0.578681
O O20 0.000000 0.197604 0.581476
O O21 0.000000 0.911077 0.702050
#
# Coordination Sequence:
#
# PCOD9486128 Si02
#       8
#    16  16  16  16  16   4  16  16
#     4  10  20  33  50  75 109 146 181 216 256 304
#     4   9  19  36  55  75 100 132 171 212 260 314
#     4  10  19  32  52  76 103 138 178 219 262 308
#     4  10  19  32  49  72 105 138 170 210 257 311
#     4  10  19  32  50  78 107 131 166 209 256 309
#     4  12  21  32  54  80 107 138 167 210 265 314
#     4   9  17  31  50  72  97 124 158 199 240 289
#     4   9  20  34  50  76 104 128 163 211 255 303
#
# _framework density 18.640900999999999
#
# number of rings (size 3 to 8) (size 9 to 14) (size 15 to 20)
#    0.000    2.345    0.690    2.276    0.966    2.759 
#    0.000    0.690    0.000    0.414    0.000    4.828 
#    0.000    0.000    0.000    0.000    0.000    0.000 
#
# Total GULP energy -322931.833500 kJ/mol
# GULP energy per Si atom -5567.790233 kJ/mol
# Density = 1.859847 g / cm^3
# Si number density = 18.640901 Si / 1000 Ang^3
#
#
#
# Elastic Constant Matrix: (Units=GPa)
#
#
# Indices 1 2 3 4 5 6 
#
# 1 19.1431 14.8759 13.0600 0.0000 0.0000 0.0000
# 2 14.8759 119.8820 31.8291 0.0000 0.0000 0.0000
# 3 13.0600 31.8291 98.7597 0.0000 0.0000 0.0000
# 4 0.0000 0.0000 0.0000 -2.4727 0.0000 0.0000
# 5 0.0000 0.0000 0.0000 0.0000 5.6262 0.0000
# 6 0.0000 0.0000 0.0000 0.0000 0.0000 9.8901
#
#
#
# Elastic Compliance Matrix: (Units=1/GPa)
#
#
# Indices 1 2 3 4 5 6 
#
# 1 0.061057 -0.005941 -0.006159 0.000000 0.000000 0.000000
# 2 -0.005941 0.009700 -0.002341 0.000000 0.000000 0.000000
# 3 -0.006159 -0.002341 0.011694 0.000000 0.000000 0.000000
# 4 0.000000 0.000000 0.000000 -0.404419 0.000000 0.000000
# 5 0.000000 0.000000 0.000000 0.000000 0.177741 0.000000
# 6 0.000000 0.000000 0.000000 0.000000 0.000000 0.101111
#
#
# Mechanical properties :
#
#
# Convention : Reuss Voigt Hill
#
# Bulk Modulus (GPa) = 18.66733 39.70165 29.18449
# Shear Modulus (GPa) = 1379.82185 14.47671 697.14928
#
# Velocity S-wave (km/s) = 27.23635 2.78980 19.35978
# Velocity P-wave (km/s) = 31.60898 5.63220 22.70297
#
# Compressibility (1/GPa) = 0.05356954
#
# Stress axis : x y z
#
# Youngs Moduli (GPa) = 16.37808 103.09074 85.51057
#
# Poissons Ratio (x) = 0.61247 0.52670
# Poissons Ratio (y) = 0.09730 0.20015
# Poissons Ratio (z) = 0.10088 0.24129
#
# Static dielectric constant tensor:
#      x y z
#    x 1.650100 0.000000 0.000000 
#    y 0.000000 1.673390 0.000000 
#    z 0.000000 0.000000 1.634230 
# 
# From -- ./inp_files/73677.got.cif
#   From: 2010.05.17/outbox.cif.g08.bks.cpg/sg65_37_cif.got.tgz:73677.got - 2010.06.03 17:01:31.
