data_PCOD9486817
_publ_section_title
;
Structure prediction by ZEFSAII (Michael W. Deem and Ramdas Pophale) SiO2 
 PCOD9486817
Probable space group: C M M M
;
_chemical_formula_sum "Si O2"
_cell_formula_units_Z 88
_cell_length_a 26.346128
_cell_length_b 10.153655
_cell_length_c 18.686506
_cell_angle_alpha 90.000000
_cell_angle_beta 90.000000
_cell_angle_gamma 90.000000
_cell_volume 4998.817770
_symmetry_space_group_name_H-M "C M M M"
_symmetry_group_IT_number 65
_symmetry_cell_setting 'orthorhombic'
loop_
_space_group_symop_operation_xyz
x,y,z
-x,-y,z
x,-y,-z
-x,y,-z
-x,-y,-z
x,y,-z
-x,y,z
x,-y,z
1/2+x,1/2+y,z
1/2-x,1/2-y,z
1/2+x,1/2-y,-z
1/2-x,1/2+y,-z
1/2-x,1/2-y,-z
1/2+x,1/2+y,-z
1/2-x,1/2+y,z
1/2+x,1/2-y,z
loop_
_atom_site_type_symbol
_atom_site_label
_atom_site_fract_x
_atom_site_fract_y
_atom_site_fract_z
Si Si1 0.306859 0.500000 0.913520
Si Si2 0.795038 0.152106 0.413564
Si Si3 0.500000 0.157437 0.586124
Si Si4 0.942153 0.154172 0.199944
Si Si5 0.192853 0.500000 0.913335
Si Si6 0.373890 0.750938 0.914469
Si Si7 0.408312 0.657006 0.357401
O O1 0.249896 0.500000 0.884630
O O2 0.339156 0.626649 0.894802
O O3 0.303144 0.500000 0.000000
O O4 0.796797 0.157893 0.500000
O O5 0.750000 0.250000 0.389640
O O6 0.851701 0.184477 0.386005
O O7 0.784178 0.000000 0.393074
O O8 0.500000 0.157245 0.500000
O O9 0.450655 0.242342 0.611844
O O10 0.500000 0.000000 0.608471
O O11 0.923396 0.239171 0.133513
O O12 0.909650 0.171458 0.271512
O O13 0.000000 0.184396 0.219485
O O14 0.939963 0.000000 0.179173
O O15 0.160097 0.625550 0.894605
O O16 0.196979 0.500000 0.000000
O O17 0.383779 0.750620 0.000000
O O18 0.420225 0.500000 0.372820
#
# Coordination Sequence:
#
# PCOD9486817 Si02
#       7
#     8  16   8  16   8  16  16
#     4   9  16  30  53  77 103 139 178 227 282 329
#     4   9  18  33  56  84 112 144 180 221 271 327
#     4  11  23  37  57  91 122 143 180 236 284 328
#     4  10  20  36  57  78 104 143 186 234 281 321
#     4   9  18  32  51  77 109 137 172 225 286 339
#     4  10  19  33  53  80 109 141 184 233 280 332
#     4  10  20  38  60  81 110 152 195 231 273 333
#
# _framework density 17.604163
#
# number of rings (size 3 to 8) (size 9 to 14) (size 15 to 20)
#    0.000    2.273    1.818    1.364    0.000    4.727 
#    1.636    5.000    0.000    1.636    0.000    0.000 
#    0.000    0.000    0.000    0.000    0.000    0.000 
#
# Total GULP energy -245124.714806 kJ/mol
# GULP energy per Si atom -5571.016246 kJ/mol
# Density = 1.756409 g / cm^3
# Si number density = 17.604163 Si / 1000 Ang^3
#
#
#
# Elastic Constant Matrix: (Units=GPa)
#
#
# Indices 1 2 3 4 5 6 
#
# 1 115.1781 60.2725 29.7158 0.0000 0.0000 0.0000
# 2 60.2725 113.9454 22.4631 0.0000 0.0000 0.0000
# 3 29.7158 22.4631 36.7089 0.0000 0.0000 0.0000
# 4 0.0000 0.0000 0.0000 20.8523 0.0000 0.0000
# 5 0.0000 0.0000 0.0000 0.0000 25.2735 0.0000
# 6 0.0000 0.0000 0.0000 0.0000 0.0000 -27.4510
#
#
#
# Elastic Compliance Matrix: (Units=1/GPa)
#
#
# Indices 1 2 3 4 5 6 
#
# 1 0.013616 -0.005719 -0.007522 0.000000 0.000000 0.000000
# 2 -0.005719 0.012382 -0.002947 0.000000 0.000000 0.000000
# 3 -0.007522 -0.002947 0.035134 0.000000 0.000000 0.000000
# 4 0.000000 0.000000 0.000000 0.047956 0.000000 0.000000
# 5 0.000000 0.000000 0.000000 0.000000 0.039567 0.000000
# 6 0.000000 0.000000 0.000000 0.000000 0.000000 -0.036429
#
#
# Mechanical properties :
#
#
# Convention : Reuss Voigt Hill
#
# Bulk Modulus (GPa) = 34.77699 54.52614 44.65156
# Shear Modulus (GPa) = 32.42756 13.96037 23.19396
#
# Velocity S-wave (km/s) = 4.29655 2.81911 3.63371
# Velocity P-wave (km/s) = 6.66421 6.45269 6.55930
#
# Compressibility (1/GPa) = 0.02875465
#
# Stress axis : x y z
#
# Youngs Moduli (GPa) = 73.44397 80.75944 28.46239
#
# Poissons Ratio (x) = 0.46189 0.21410
# Poissons Ratio (y) = 0.42005 0.08389
# Poissons Ratio (z) = 0.55246 0.23803
#
# Static dielectric constant tensor:
#      x y z
#    x 1.603780 0.000000 0.000000 
#    y 0.000000 1.704640 0.000000 
#    z 0.000000 0.000000 1.586420 
# 
# From -- ./inp_files/65210.got.cif
#   From: 2010.05.17/outbox.cif.g08.bks.cpg/sg65_33_cif.got.tgz:65210.got - 2010.06.03 17:01:31.
