data_PCOD9486299
_publ_section_title
;
Structure prediction by ZEFSAII (Michael W. Deem and Ramdas Pophale) SiO2 
 PCOD9486299
Probable space group: C M M M
;
_chemical_formula_sum "Si O2"
_cell_formula_units_Z 72
_cell_length_a 14.443719
_cell_length_b 9.967760
_cell_length_c 22.308265
_cell_angle_alpha 90.000000
_cell_angle_beta 90.000000
_cell_angle_gamma 90.000000
_cell_volume 3211.754921
_symmetry_space_group_name_H-M "C M M M"
_symmetry_group_IT_number 65
_symmetry_cell_setting 'orthorhombic'
loop_
_space_group_symop_operation_xyz
x,y,z
-x,-y,z
x,-y,-z
-x,y,-z
-x,-y,-z
x,y,-z
-x,y,z
x,-y,z
1/2+x,1/2+y,z
1/2-x,1/2-y,z
1/2+x,1/2-y,-z
1/2-x,1/2+y,-z
1/2-x,1/2-y,-z
1/2+x,1/2+y,-z
1/2-x,1/2+y,z
1/2+x,1/2-y,z
loop_
_atom_site_type_symbol
_atom_site_label
_atom_site_fract_x
_atom_site_fract_y
_atom_site_fract_z
Si Si1 0.860606 0.500000 0.067732
Si Si2 0.113159 0.155845 0.387620
Si Si3 0.861449 0.253694 0.147054
Si Si4 0.892025 0.653411 0.718715
Si Si5 0.365042 0.500000 0.930103
Si Si6 0.387327 0.843531 0.500000
O O1 0.891370 0.374002 0.105123
O O2 0.747740 0.500000 0.066684
O O3 0.892065 0.500000 0.000000
O O4 0.144000 0.236136 0.328163
O O5 0.139165 0.253668 0.442571
O O6 0.000000 0.148223 0.387758
O O7 0.145389 0.000000 0.391573
O O8 0.750000 0.250000 0.148303
O O9 0.888617 0.283937 0.214975
O O10 0.892967 0.124438 0.110867
O O11 0.852265 0.500000 0.717808
O O12 0.000000 0.638130 0.702692
O O13 0.395032 0.500000 0.000000
O O14 0.500000 0.850833 0.500000
O O15 0.354937 0.000000 0.500000
#
# Coordination Sequence:
#
# PCOD9486299 Si02
#       6
#     8  16  16  16   8   8
#     4   9  16  30  51  73  97 124 161 208 252 295
#     4   9  17  28  44  68  97 130 166 205 248 291
#     4  10  19  32  51  75 100 127 164 207 250 298
#     4  10  20  34  50  70 100 136 170 202 244 297
#     4   9  18  30  49  75  97 122 159 208 258 297
#     4   9  15  25  43  67  96 129 166 207 246 285
#
# _framework density 22.417650999999999
#
# number of rings (size 3 to 8) (size 9 to 14) (size 15 to 20)
#    0.000    2.556    1.111    1.667    1.556    6.667 
#    0.000    0.000    0.000    4.000    0.000    0.778 
#    0.000    0.000    0.000    0.000    0.000    0.000 
#
# Total GULP energy -200926.727814 kJ/mol
# GULP energy per Si atom -5581.297995 kJ/mol
# Density = 2.236663 g / cm^3
# Si number density = 22.417651 Si / 1000 Ang^3
#
#
#
# Elastic Constant Matrix: (Units=GPa)
#
#
# Indices 1 2 3 4 5 6 
#
# 1 76.1026 6.7921 -7.7848 0.0000 0.0000 0.0000
# 2 6.7921 284.2676 147.6392 0.0000 0.0000 0.0000
# 3 -7.7848 147.6392 233.8473 0.0000 0.0000 0.0000
# 4 0.0000 0.0000 0.0000 33.4867 0.0000 0.0000
# 5 0.0000 0.0000 0.0000 0.0000 20.7058 0.0000
# 6 0.0000 0.0000 0.0000 0.0000 0.0000 -0.6432
#
#
#
# Elastic Compliance Matrix: (Units=1/GPa)
#
#
# Indices 1 2 3 4 5 6 
#
# 1 0.013311 -0.000816 0.000958 0.000000 0.000000 0.000000
# 2 -0.000816 0.005284 -0.003363 0.000000 0.000000 0.000000
# 3 0.000958 -0.003363 0.006432 0.000000 0.000000 0.000000
# 4 0.000000 0.000000 0.000000 0.029863 0.000000 0.000000
# 5 0.000000 0.000000 0.000000 0.000000 0.048296 0.000000
# 6 0.000000 0.000000 0.000000 0.000000 0.000000 -1.554678
#
#
# Mechanical properties :
#
#
# Convention : Reuss Voigt Hill
#
# Bulk Modulus (GPa) = 53.80690 98.61230 76.20960
# Shear Modulus (GPa) = -3.47498 40.54791 18.53646
#
# Velocity S-wave (km/s) = -1.24638 4.25755 2.87865
# Velocity P-wave (km/s) = 4.68859 8.26155 6.71699
#
# Compressibility (1/GPa) = 0.01858498
#
# Stress axis : x y z
#
# Youngs Moduli (GPa) = 75.12608 189.24872 155.48323
#
# Poissons Ratio (x) = 0.15436 -0.14896
# Poissons Ratio (y) = 0.06128 0.52293
# Poissons Ratio (z) = -0.07198 0.63649
#
# Static dielectric constant tensor:
#      x y z
#    x 1.908630 0.000000 0.000000 
#    y 0.000000 1.773240 0.000000 
#    z 0.000000 0.000000 1.777400 
# 
# From -- ./inp_files/59407.got.cif
#   From: 2010.05.17/outbox.cif.g08.bks.cpg/sg65_30_cif.got.tgz:59407.got - 2010.06.03 17:01:31.
