data_PCOD9486096
_publ_section_title
;
Structure prediction by ZEFSAII (Michael W. Deem and Ramdas Pophale) SiO2 
 PCOD9486096
Probable space group: C M M M
;
_chemical_formula_sum "Si O2"
_cell_formula_units_Z 96
_cell_length_a 16.850577
_cell_length_b 18.743282
_cell_length_c 18.428880
_cell_angle_alpha 90.000000
_cell_angle_beta 90.000000
_cell_angle_gamma 90.000000
_cell_volume 5820.487463
_symmetry_space_group_name_H-M "C M M M"
_symmetry_group_IT_number 65
_symmetry_cell_setting 'orthorhombic'
loop_
_space_group_symop_operation_xyz
x,y,z
-x,-y,z
x,-y,-z
-x,y,-z
-x,-y,-z
x,y,-z
-x,y,z
x,-y,z
1/2+x,1/2+y,z
1/2-x,1/2-y,z
1/2+x,1/2-y,-z
1/2-x,1/2+y,-z
1/2-x,1/2-y,-z
1/2+x,1/2+y,-z
1/2-x,1/2+y,z
1/2+x,1/2-y,z
loop_
_atom_site_type_symbol
_atom_site_label
_atom_site_fract_x
_atom_site_fract_y
_atom_site_fract_z
Si Si1 0.721168 0.083182 0.587303
Si Si2 0.090446 0.171520 0.913739
Si Si3 0.671244 0.204734 0.822794
Si Si4 0.592341 0.824463 0.670401
Si Si5 0.831979 0.795872 0.416945
Si Si6 0.255560 0.417343 0.913303
O O1 0.712417 0.092069 0.500000
O O2 0.646578 0.119547 0.626459
O O3 0.800738 0.126966 0.607780
O O4 0.726703 0.000000 0.603916
O O5 0.118976 0.241288 0.870745
O O6 0.154340 0.109337 0.899395
O O7 0.000000 0.152767 0.895202
O O8 0.094209 0.186305 0.000000
O O9 0.750000 0.250000 0.801150
O O10 0.624633 0.180341 0.751920
O O11 0.700092 0.137349 0.869883
O O12 0.500000 0.842277 0.667424
O O13 0.608659 0.747313 0.633490
O O14 0.860886 0.798937 0.500000
O O15 0.750000 0.750000 0.417142
O O16 0.244857 0.500000 0.893280
O O17 0.241663 0.410345 0.000000
#
# Coordination Sequence:
#
# PCOD9486096 Si02
#       6
#    16  16  16  16  16  16
#     4   9  18  33  52  72  95 125 159 193 231 279
#     4   9  17  30  50  74  97 121 151 192 241 286
#     4  10  19  32  49  68  93 127 165 197 226 272
#     4  11  21  31  47  72  99 125 155 196 242 280
#     4   8  15  30  50  70  92 121 157 191 226 275
#     4   9  18  32  50  72  96 123 156 193 234 281
#
# _framework density 16.493463999999999
#
# number of rings (size 3 to 8) (size 9 to 14) (size 15 to 20)
#    0.000    2.667    0.000    4.000    0.000    4.667 
#    0.000    2.500    0.000    2.000    0.000    8.167 
#    0.000    0.000    0.000    0.000    0.000    0.000 
#
# Total GULP energy -267524.816713 kJ/mol
# GULP energy per Si atom -5573.433682 kJ/mol
# Density = 1.645592 g / cm^3
# Si number density = 16.493464 Si / 1000 Ang^3
#
#
#
# Elastic Constant Matrix: (Units=GPa)
#
#
# Indices 1 2 3 4 5 6 
#
# 1 33.3010 19.6003 20.3915 0.0000 0.0000 0.0000
# 2 19.6003 117.9061 35.0796 0.0000 0.0000 0.0000
# 3 20.3915 35.0796 38.4376 0.0000 0.0000 0.0000
# 4 0.0000 0.0000 0.0000 7.4805 0.0000 0.0000
# 5 0.0000 0.0000 0.0000 0.0000 -7.8955 0.0000
# 6 0.0000 0.0000 0.0000 0.0000 0.0000 13.5391
#
#
#
# Elastic Compliance Matrix: (Units=1/GPa)
#
#
# Indices 1 2 3 4 5 6 
#
# 1 0.044500 -0.000513 -0.023140 0.000000 0.000000 0.000000
# 2 -0.000513 0.011649 -0.010359 0.000000 0.000000 0.000000
# 3 -0.023140 -0.010359 0.047746 0.000000 0.000000 0.000000
# 4 0.000000 0.000000 0.000000 0.133681 0.000000 0.000000
# 5 0.000000 0.000000 0.000000 0.000000 -0.126654 0.000000
# 6 0.000000 0.000000 0.000000 0.000000 0.000000 0.073860
#
#
# Mechanical properties :
#
#
# Convention : Reuss Voigt Hill
#
# Bulk Modulus (GPa) = 27.87701 37.75417 32.81559
# Shear Modulus (GPa) = 18.88489 10.26304 14.57397
#
# Velocity S-wave (km/s) = 3.38744 2.49720 2.97580
# Velocity P-wave (km/s) = 5.67787 5.59059 5.63440
#
# Compressibility (1/GPa) = 0.03587185
#
# Stress axis : x y z
#
# Youngs Moduli (GPa) = 22.47175 85.84749 20.94428
#
# Poissons Ratio (x) = 0.04404 0.48464
# Poissons Ratio (y) = 0.01153 0.21696
# Poissons Ratio (z) = 0.51999 0.88927
#
# Static dielectric constant tensor:
#      x y z
#    x 1.537460 0.000000 0.000000 
#    y 0.000000 1.558490 0.000000 
#    z 0.000000 0.000000 1.553840 
# 
# From -- ./inp_files/54476.got.cif
#   From: 2010.05.17/outbox.cif.g08.bks.cpg/sg65_28_cif.got.tgz:54476.got - 2010.06.03 17:01:31.
