data_PCOD9486736
_publ_section_title
;
Structure prediction by ZEFSAII (Michael W. Deem and Ramdas Pophale) SiO2 
 PCOD9486736
Probable space group: C M M M
;
_chemical_formula_sum "Si O2"
_cell_formula_units_Z 104
_cell_length_a 15.683286
_cell_length_b 17.366499
_cell_length_c 20.425772
_cell_angle_alpha 90.000000
_cell_angle_beta 90.000000
_cell_angle_gamma 90.000000
_cell_volume 5563.240280
_symmetry_space_group_name_H-M "C M M M"
_symmetry_group_IT_number 65
_symmetry_cell_setting 'orthorhombic'
loop_
_space_group_symop_operation_xyz
x,y,z
-x,-y,z
x,-y,-z
-x,y,-z
-x,-y,-z
x,y,-z
-x,y,z
x,-y,z
1/2+x,1/2+y,z
1/2-x,1/2-y,z
1/2+x,1/2-y,-z
1/2-x,1/2+y,-z
1/2-x,1/2-y,-z
1/2+x,1/2+y,-z
1/2-x,1/2+y,z
1/2+x,1/2-y,z
loop_
_atom_site_type_symbol
_atom_site_label
_atom_site_fract_x
_atom_site_fract_y
_atom_site_fract_z
Si Si1 0.098609 0.284672 0.125879
Si Si2 0.268751 0.085510 0.147787
Si Si3 0.597253 0.620854 0.074654
Si Si4 0.398273 0.408437 0.500000
Si Si5 0.671786 0.912431 0.295145
Si Si6 0.404322 0.752852 0.273886
Si Si7 0.795506 0.173363 0.614151
O O1 0.168617 0.350497 0.117285
O O2 0.103164 0.213860 0.076609
O O3 0.117089 0.247191 0.197347
O O4 0.000000 0.313290 0.127864
O O5 0.173312 0.092200 0.120415
O O6 0.275383 0.093241 0.226718
O O7 0.301256 0.000000 0.131953
O O8 0.500000 0.601380 0.095740
O O9 0.608605 0.594248 0.000000
O O10 0.379714 0.500000 0.500000
O O11 0.500000 0.398788 0.500000
O O12 0.357137 0.367223 0.437017
O O13 0.603490 0.844013 0.289202
O O14 0.729065 0.888318 0.356888
O O15 0.640341 0.000000 0.300232
O O16 0.500000 0.725592 0.283738
O O17 0.343524 0.707133 0.322123
O O18 0.750000 0.250000 0.585440
#
# Coordination Sequence:
#
# PCOD9486736 Si02
#       7
#    16  16  16   8  16  16  16
#     4   9  18  33  53  77 102 129 164 202 243 295
#     4  10  20  33  51  76 104 132 161 198 248 302
#     4  10  21  36  53  71  93 127 171 215 254 293
#     4  11  23  36  50  70  99 133 166 202 244 289
#     4   9  18  32  50  73 101 130 159 194 239 292
#     4   9  17  30  51  76 100 127 158 197 241 285
#     4  10  19  33  53  74  97 127 165 204 240 281
#
# _framework density 18.694140999999998
#
# number of rings (size 3 to 8) (size 9 to 14) (size 15 to 20)
#    0.000    2.385    0.000    2.538    0.000    4.923 
#    0.000    4.615    0.000    1.846    0.000    3.231 
#    0.000   11.077    0.000    0.000    0.000    0.000 
#
# Total GULP energy -289947.235467 kJ/mol
# GULP energy per Si atom -5575.908374 kJ/mol
# Density = 1.865159 g / cm^3
# Si number density = 18.694141 Si / 1000 Ang^3
#
#
#
# Elastic Constant Matrix: (Units=GPa)
#
#
# Indices 1 2 3 4 5 6 
#
# 1 65.9159 19.4282 26.0632 0.0000 0.0000 0.0000
# 2 19.4282 83.2902 16.5946 0.0000 0.0000 0.0000
# 3 26.0632 16.5946 46.9201 0.0000 0.0000 0.0000
# 4 0.0000 0.0000 0.0000 2.2334 0.0000 0.0000
# 5 0.0000 0.0000 0.0000 0.0000 22.7472 0.0000
# 6 0.0000 0.0000 0.0000 0.0000 0.0000 11.4964
#
#
#
# Elastic Compliance Matrix: (Units=1/GPa)
#
#
# Indices 1 2 3 4 5 6 
#
# 1 0.019963 -0.002633 -0.010158 0.000000 0.000000 0.000000
# 2 -0.002633 0.013264 -0.003229 0.000000 0.000000 0.000000
# 3 -0.010158 -0.003229 0.028097 0.000000 0.000000 0.000000
# 4 0.000000 0.000000 0.000000 0.447748 0.000000 0.000000
# 5 0.000000 0.000000 0.000000 0.000000 0.043961 0.000000
# 6 0.000000 0.000000 0.000000 0.000000 0.000000 0.086984
#
#
# Mechanical properties :
#
#
# Convention : Reuss Voigt Hill
#
# Bulk Modulus (GPa) = 34.14673 35.58869 34.86771
# Shear Modulus (GPa) = 7.33333 16.23140 11.78236
#
# Velocity S-wave (km/s) = 1.98275 2.94982 2.51324
# Velocity P-wave (km/s) = 4.85257 5.53901 5.20711
#
# Compressibility (1/GPa) = 0.02928538
#
# Stress axis : x y z
#
# Youngs Moduli (GPa) = 50.09176 75.39441 35.59049
#
# Poissons Ratio (x) = 0.19849 0.36153
# Poissons Ratio (y) = 0.13188 0.11491
# Poissons Ratio (z) = 0.50884 0.24342
#
# Static dielectric constant tensor:
#      x y z
#    x 1.635040 0.000000 0.000000 
#    y 0.000000 1.657340 0.000000 
#    z 0.000000 0.000000 1.639080 
# 
# From -- ./inp_files/62833.got.cif
#   From: 2010.05.17/outbox.cif.g08.bks.cpg/sg65_32_cif.got.tgz:62833.got - 2010.06.03 17:01:31.
