data_PCOD9486263
_publ_section_title
;
Structure prediction by ZEFSAII (Michael W. Deem and Ramdas Pophale) SiO2 
 PCOD9486263
Probable space group: C M M M
;
_chemical_formula_sum "Si O2"
_cell_formula_units_Z 104
_cell_length_a 7.657301
_cell_length_b 30.215912
_cell_length_c 21.263669
_cell_angle_alpha 90.000000
_cell_angle_beta 90.000000
_cell_angle_gamma 90.000000
_cell_volume 4919.824708
_symmetry_space_group_name_H-M "C M M M"
_symmetry_group_IT_number 65
_symmetry_cell_setting 'orthorhombic'
loop_
_space_group_symop_operation_xyz
x,y,z
-x,-y,z
x,-y,-z
-x,y,-z
-x,-y,-z
x,y,-z
-x,y,z
x,-y,z
1/2+x,1/2+y,z
1/2-x,1/2-y,z
1/2+x,1/2-y,-z
1/2-x,1/2+y,-z
1/2-x,1/2-y,-z
1/2+x,1/2+y,-z
1/2-x,1/2+y,z
1/2+x,1/2-y,z
loop_
_atom_site_type_symbol
_atom_site_label
_atom_site_fract_x
_atom_site_fract_y
_atom_site_fract_z
Si Si1 0.285288 0.551182 0.500000
Si Si2 0.293830 0.699301 0.185707
Si Si3 0.786648 0.549415 0.126840
Si Si4 0.789216 0.801011 0.672840
Si Si5 0.208699 0.638287 0.931940
Si Si6 0.789047 0.449440 0.728117
Si Si7 0.797423 0.888387 0.385993
O O1 0.227502 0.500000 0.500000
O O2 0.500000 0.549451 0.500000
O O3 0.224692 0.579043 0.560743
O O4 0.500000 0.694983 0.191191
O O5 0.250000 0.750000 0.170794
O O6 0.221123 0.690210 0.255862
O O7 0.239994 0.668569 0.128405
O O8 0.729293 0.500000 0.109559
O O9 0.724357 0.589124 0.083534
O O10 0.737115 0.558292 0.199501
O O11 0.000000 0.549064 0.125714
O O12 0.750000 0.750000 0.656765
O O13 0.722214 0.839477 0.626650
O O14 0.000000 0.804894 0.674186
O O15 0.000000 0.635117 0.936487
O O16 0.274817 0.654330 0.000000
O O17 0.738801 0.500000 0.711521
O O18 0.713351 0.414537 0.679751
O O19 0.000000 0.446878 0.725247
O O20 0.000000 0.882086 0.403474
#
# Coordination Sequence:
#
# PCOD9486263 Si02
#       7
#     8  16  16  16  16  16  16
#     4   9  18  32  50  73 103 139 171 197 232 279
#     4  10  20  35  54  74  97 125 158 199 249 298
#     4   8  15  29  48  70  97 128 162 201 244 290
#     4   9  19  34  53  77 100 124 159 204 249 292
#     4  10  20  32  48  72  99 128 164 202 241 289
#     4   9  17  29  47  72  99 127 161 202 249 294
#     4  10  19  32  51  74 100 131 168 204 238 282
#
# _framework density 21.138963
#
# number of rings (size 3 to 8) (size 9 to 14) (size 15 to 20)
#    0.000    2.692    0.000    2.769    0.000    3.077 
#    0.000    2.308    0.000    2.769    0.000    1.077 
#    0.000    0.000    0.000    0.000    0.000    0.000 
#
# Total GULP energy -290124.201788 kJ/mol
# GULP energy per Si atom -5579.311573 kJ/mol
# Density = 2.109085 g / cm^3
# Si number density = 21.138963 Si / 1000 Ang^3
#
#
#
# Elastic Constant Matrix: (Units=GPa)
#
#
# Indices 1 2 3 4 5 6 
#
# 1 36.9839 6.1333 11.3019 0.0000 0.0000 0.0000
# 2 6.1333 156.1085 93.7541 0.0000 0.0000 0.0000
# 3 11.3019 93.7541 71.7574 0.0000 0.0000 0.0000
# 4 0.0000 0.0000 0.0000 17.7559 0.0000 0.0000
# 5 0.0000 0.0000 0.0000 0.0000 -6.6637 0.0000
# 6 0.0000 0.0000 0.0000 0.0000 0.0000 -2.0743
#
#
#
# Elastic Compliance Matrix: (Units=1/GPa)
#
#
# Indices 1 2 3 4 5 6 
#
# 1 0.030315 0.007786 -0.014947 0.000000 0.000000 0.000000
# 2 0.007786 0.031748 -0.042707 0.000000 0.000000 0.000000
# 3 -0.014947 -0.042707 0.072088 0.000000 0.000000 0.000000
# 4 0.000000 0.000000 0.000000 0.056319 0.000000 0.000000
# 5 0.000000 0.000000 0.000000 0.000000 -0.150066 0.000000
# 6 0.000000 0.000000 0.000000 0.000000 0.000000 -0.482093
#
#
# Mechanical properties :
#
#
# Convention : Reuss Voigt Hill
#
# Bulk Modulus (GPa) = 29.05660 54.13648 41.59654
# Shear Modulus (GPa) = -15.12949 12.04762 -1.54093
#
# Velocity S-wave (km/s) = -2.67819 2.38990 -0.85471
# Velocity P-wave (km/s) = 2.05226 5.76896 4.32970
#
# Compressibility (1/GPa) = 0.03441559
#
# Stress axis : x y z
#
# Youngs Moduli (GPa) = 32.98669 31.49775 13.87190
#
# Poissons Ratio (x) = -0.24523 0.20734
# Poissons Ratio (y) = -0.25682 0.59242
# Poissons Ratio (z) = 0.49305 1.34517
#
# Static dielectric constant tensor:
#      x y z
#    x 1.802800 0.000000 0.000000 
#    y 0.000000 1.753530 0.000000 
#    z 0.000000 0.000000 1.774120 
# 
# From -- ./inp_files/60441.got.cif
#   From: 2010.05.17/outbox.cif.g08.bks.cpg/sg65_31_cif.got.tgz:60441.got - 2010.06.03 17:01:31.
