data_PCOD9486906
_publ_section_title
;
Structure prediction by ZEFSAII (Michael W. Deem and Ramdas Pophale) SiO2 
 PCOD9486906
Probable space group: C M M M
;
_chemical_formula_sum "Si O2"
_cell_formula_units_Z 80
_cell_length_a 26.953462
_cell_length_b 8.708576
_cell_length_c 19.391207
_cell_angle_alpha 90.000000
_cell_angle_beta 90.000000
_cell_angle_gamma 90.000000
_cell_volume 4551.625734
_symmetry_space_group_name_H-M "C M M M"
_symmetry_group_IT_number 65
_symmetry_cell_setting 'orthorhombic'
loop_
_space_group_symop_operation_xyz
x,y,z
-x,-y,z
x,-y,-z
-x,y,-z
-x,-y,-z
x,y,-z
-x,y,z
x,-y,z
1/2+x,1/2+y,z
1/2-x,1/2-y,z
1/2+x,1/2-y,-z
1/2-x,1/2+y,-z
1/2-x,1/2-y,-z
1/2+x,1/2+y,-z
1/2-x,1/2+y,z
1/2+x,1/2-y,z
loop_
_atom_site_type_symbol
_atom_site_label
_atom_site_fract_x
_atom_site_fract_y
_atom_site_fract_z
Si Si1 0.803499 0.183507 0.918944
Si Si2 0.000000 0.816672 0.681078
Si Si3 0.890575 0.183354 0.327064
Si Si4 0.303137 0.816337 0.419586
Si Si5 0.391934 0.185268 0.827972
Si Si6 0.500000 0.182416 0.833305
O O1 0.750000 0.250000 0.897937
O O2 0.847330 0.254944 0.874314
O O3 0.803166 0.000000 0.911405
O O4 0.810463 0.220704 0.000000
O O5 0.053065 0.783804 0.646557
O O6 0.000000 0.722340 0.752106
O O7 0.000000 0.000000 0.697450
O O8 0.848266 0.254029 0.374529
O O9 0.887110 0.249875 0.249591
O O10 0.884535 0.000000 0.324276
O O11 0.309659 0.771587 0.500000
O O12 0.250000 0.750000 0.396387
O O13 0.301532 0.000000 0.415517
O O14 0.445936 0.238187 0.857503
O O15 0.391419 0.000000 0.825129
O O16 0.500000 0.000000 0.843521
#
# Coordination Sequence:
#
# PCOD9486906 Si02
#       6
#    16   8  16  16  16   8
#     4  10  21  37  55  75 101 134 171 211 257 306
#     4   8  16  30  49  74 103 135 167 203 249 298
#     4  10  19  33  54  79 106 135 170 210 252 299
#     4  10  21  37  55  75 101 134 171 211 257 306
#     4  10  19  33  54  79 106 135 170 210 252 299
#     4   8  16  30  49  74 103 135 167 203 249 298
#
# _framework density 17.576138
#
# number of rings (size 3 to 8) (size 9 to 14) (size 15 to 20)
#    0.000    2.400    0.000    2.400    0.000    4.800 
#    0.000    5.000    0.000    6.000    0.000    0.000 
#    0.000    0.000    0.000    0.000    0.000    0.000 
#
# Total GULP energy -222961.742569 kJ/mol
# GULP energy per Si atom -5574.043564 kJ/mol
# Density = 1.753613 g / cm^3
# Si number density = 17.576138 Si / 1000 Ang^3
#
#
#
# Elastic Constant Matrix: (Units=GPa)
#
#
# Indices 1 2 3 4 5 6 
#
# 1 216.0907 52.9256 81.2200 0.0000 0.0000 0.0000
# 2 52.9256 43.9317 28.0298 0.0000 0.0000 0.0000
# 3 81.2200 28.0298 49.8758 0.0000 0.0000 0.0000
# 4 0.0000 0.0000 0.0000 24.7245 0.0000 0.0000
# 5 0.0000 0.0000 0.0000 0.0000 -120.6669 0.0000
# 6 0.0000 0.0000 0.0000 0.0000 0.0000 24.9985
#
#
#
# Elastic Compliance Matrix: (Units=1/GPa)
#
#
# Indices 1 2 3 4 5 6 
#
# 1 0.012203 -0.003153 -0.018100 0.000000 0.000000 0.000000
# 2 -0.003153 0.036302 -0.015267 0.000000 0.000000 0.000000
# 3 -0.018100 -0.015267 0.058104 0.000000 0.000000 0.000000
# 4 0.000000 0.000000 0.000000 0.040446 0.000000 0.000000
# 5 0.000000 0.000000 0.000000 0.000000 -0.008287 0.000000
# 6 0.000000 0.000000 0.000000 0.000000 0.000000 0.040002
#
#
# Mechanical properties :
#
#
# Convention : Reuss Voigt Hill
#
# Bulk Modulus (GPa) = 29.78887 70.47211 50.13049
# Shear Modulus (GPa) = 19.01143 -4.34059 7.33542
#
# Velocity S-wave (km/s) = 3.29243 -1.57320 2.04513
# Velocity P-wave (km/s) = 5.60703 6.07309 5.84471
#
# Compressibility (1/GPa) = 0.03356958
#
# Stress axis : x y z
#
# Youngs Moduli (GPa) = 81.94733 27.54681 17.21038
#
# Poissons Ratio (x) = 0.08685 0.31151
# Poissons Ratio (y) = 0.25837 0.26275
# Poissons Ratio (z) = 1.48324 0.42056
#
# Static dielectric constant tensor:
#      x y z
#    x 1.624750 0.000000 0.000000 
#    y 0.000000 1.597050 0.000000 
#    z 0.000000 0.000000 1.562090 
# 
# From -- ./inp_files/9709.got.cif
#   From: 2010.05.17/outbox.cif.g08.bks.cpg/sg65_5_cif.got.tgz:9709.got - 2010.06.03 17:01:31.
