data_PCOD9486002
_publ_section_title
;
Structure prediction by ZEFSAII (Michael W. Deem and Ramdas Pophale) SiO2 
 PCOD9486002
Probable space group: C M M M
;
_chemical_formula_sum "Si O2"
_cell_formula_units_Z 88
_cell_length_a 20.106246
_cell_length_b 24.965378
_cell_length_c 9.666988
_cell_angle_alpha 90.000000
_cell_angle_beta 90.000000
_cell_angle_gamma 90.000000
_cell_volume 4852.441601
_symmetry_space_group_name_H-M "C M M M"
_symmetry_group_IT_number 65
_symmetry_cell_setting 'orthorhombic'
loop_
_space_group_symop_operation_xyz
x,y,z
-x,-y,z
x,-y,-z
-x,y,-z
-x,-y,-z
x,y,-z
-x,y,z
x,-y,z
1/2+x,1/2+y,z
1/2-x,1/2-y,z
1/2+x,1/2-y,-z
1/2-x,1/2+y,-z
1/2-x,1/2-y,-z
1/2+x,1/2+y,-z
1/2-x,1/2+y,z
1/2+x,1/2-y,z
loop_
_atom_site_type_symbol
_atom_site_label
_atom_site_fract_x
_atom_site_fract_y
_atom_site_fract_z
Si Si1 0.500000 0.562535 0.168354
Si Si2 0.266000 0.562184 0.657817
Si Si3 0.867413 0.127297 0.166762
Si Si4 0.073977 0.662315 0.836662
Si Si5 0.393790 0.939386 0.661598
Si Si6 0.673248 0.745760 0.831680
O O1 0.500000 0.500000 0.213964
O O2 0.434149 0.595638 0.210358
O O3 0.500000 0.561407 0.000000
O O4 0.282600 0.578019 0.500000
O O5 0.285213 0.500000 0.675982
O O6 0.304592 0.597797 0.766703
O O7 0.186443 0.564730 0.672132
O O8 0.861337 0.189673 0.207289
O O9 0.864121 0.124763 0.000000
O O10 0.077263 0.606971 0.755192
O O11 0.129585 0.703756 0.785749
O O12 0.000000 0.686086 0.821806
O O13 0.084919 0.652443 0.000000
O O14 0.411303 0.932322 0.500000
O O15 0.412759 0.000000 0.701811
O O16 0.750000 0.750000 0.785659
O O17 0.673894 0.746993 0.000000
#
# Coordination Sequence:
#
# PCOD9486002 Si02
#       6
#     8  16  16  16  16  16
#     4   9  18  30  45  73 107 135 172 217 258 310
#     4   9  18  33  52  75 104 135 170 217 269 315
#     4  10  19  31  52  75 102 139 177 219 264 312
#     4  10  21  35  53  78 109 139 171 215 263 310
#     4   9  19  36  56  77 103 137 175 214 260 315
#     4   9  18  32  51  76 104 135 174 216 261 314
#
# _framework density 18.135199
#
# number of rings (size 3 to 8) (size 9 to 14) (size 15 to 20)
#    0.000    2.636    0.000    2.727    1.273    4.364 
#    0.000    5.000    0.000    4.909    0.000    0.000 
#    0.000    0.000    0.000    0.000    0.000    0.000 
#
# Total GULP energy -245343.498989 kJ/mol
# GULP energy per Si atom -5575.988613 kJ/mol
# Density = 1.809392 g / cm^3
# Si number density = 18.135199 Si / 1000 Ang^3
#
#
#
# Elastic Constant Matrix: (Units=GPa)
#
#
# Indices 1 2 3 4 5 6 
#
# 1 89.3352 70.2497 26.3375 0.0000 0.0000 0.0000
# 2 70.2497 131.7932 35.3878 0.0000 0.0000 0.0000
# 3 26.3375 35.3878 19.2513 0.0000 0.0000 0.0000
# 4 0.0000 0.0000 0.0000 6.9041 0.0000 0.0000
# 5 0.0000 0.0000 0.0000 0.0000 13.0133 0.0000
# 6 0.0000 0.0000 0.0000 0.0000 0.0000 28.6547
#
#
#
# Elastic Compliance Matrix: (Units=1/GPa)
#
#
# Indices 1 2 3 4 5 6 
#
# 1 0.021664 -0.007088 -0.016610 0.000000 0.000000 0.000000
# 2 -0.007088 0.017302 -0.022107 0.000000 0.000000 0.000000
# 3 -0.016610 -0.022107 0.115307 0.000000 0.000000 0.000000
# 4 0.000000 0.000000 0.000000 0.144841 0.000000 0.000000
# 5 0.000000 0.000000 0.000000 0.000000 0.076844 0.000000
# 6 0.000000 0.000000 0.000000 0.000000 0.000000 0.034898
#
#
# Mechanical properties :
#
#
# Convention : Reuss Voigt Hill
#
# Bulk Modulus (GPa) = 15.95856 56.03664 35.99760
# Shear Modulus (GPa) = 9.55377 16.94141 13.24759
#
# Velocity S-wave (km/s) = 2.29772 3.05974 2.70569
# Velocity P-wave (km/s) = 3.98224 6.59160 5.44552
#
# Compressibility (1/GPa) = 0.06266231
#
# Stress axis : x y z
#
# Youngs Moduli (GPa) = 46.15909 57.79801 8.67253
#
# Poissons Ratio (x) = 0.40966 0.14405
# Poissons Ratio (y) = 0.32716 0.19173
# Poissons Ratio (z) = 0.76670 1.27776
#
# Static dielectric constant tensor:
#      x y z
#    x 1.636210 0.000000 0.000000 
#    y 0.000000 1.618680 0.000000 
#    z 0.000000 0.000000 1.589780 
# 
# From -- ./inp_files/11718.got.cif
#   From: 2010.05.17/outbox.cif.g08.bks.cpg/sg65_6_cif.got.tgz:11718.got - 2010.06.03 17:01:31.
