data_PCOD9486834
_publ_section_title
;
Structure prediction by ZEFSAII (Michael W. Deem and Ramdas Pophale) SiO2 
 PCOD9486834
Probable space group: C M M M
;
_chemical_formula_sum "Si O2"
_cell_formula_units_Z 104
_cell_length_a 25.300164
_cell_length_b 23.758074
_cell_length_c 7.722050
_cell_angle_alpha 90.000000
_cell_angle_beta 90.000000
_cell_angle_gamma 90.000000
_cell_volume 4641.594282
_symmetry_space_group_name_H-M "C M M M"
_symmetry_group_IT_number 65
_symmetry_cell_setting 'orthorhombic'
loop_
_space_group_symop_operation_xyz
x,y,z
-x,-y,z
x,-y,-z
-x,y,-z
-x,-y,-z
x,y,-z
-x,y,z
x,-y,z
1/2+x,1/2+y,z
1/2-x,1/2-y,z
1/2+x,1/2-y,-z
1/2-x,1/2+y,-z
1/2-x,1/2-y,-z
1/2+x,1/2+y,-z
1/2-x,1/2+y,z
1/2+x,1/2-y,z
loop_
_atom_site_type_symbol
_atom_site_label
_atom_site_fract_x
_atom_site_fract_y
_atom_site_fract_z
Si Si1 0.166863 0.098628 0.193270
Si Si2 0.442348 0.360044 0.794244
Si Si3 0.085922 0.266085 0.303344
Si Si4 0.615977 0.883314 0.287719
Si Si5 0.060614 0.500000 0.710834
Si Si6 0.780911 0.438557 0.295109
Si Si7 0.199922 0.217039 0.699366
O O1 0.108610 0.105990 0.277712
O O2 0.218279 0.069979 0.273405
O O3 0.185146 0.163456 0.190275
O O4 0.160794 0.075518 0.000000
O O5 0.500000 0.375720 0.723969
O O6 0.435534 0.292297 0.774181
O O7 0.441846 0.370670 0.000000
O O8 0.065219 0.267436 0.500000
O O9 0.083737 0.328444 0.223746
O O10 0.149015 0.256229 0.308703
O O11 0.614656 0.878073 0.500000
O O12 0.677695 0.891070 0.232406
O O13 0.588882 0.942066 0.237792
O O14 0.061859 0.500000 0.500000
O O15 0.000000 0.500000 0.766869
O O16 0.790585 0.440741 0.500000
O O17 0.794563 0.500000 0.221075
O O18 0.211232 0.197971 0.500000
O O19 0.250000 0.250000 0.764904
#
# Coordination Sequence:
#
# PCOD9486834 Si02
#       7
#    16  16  16  16   8  16  16
#     4  10  20  32  49  74 100 126 162 210 257 302
#     4   9  19  36  53  69  96 134 169 200 246 309
#     4   9  17  27  45  72  99 123 157 204 244 283
#     4   9  16  29  46  70 101 133 167 204 249 294
#     4   9  16  26  42  66  97 131 168 209 246 280
#     4  10  19  33  54  75 100 136 172 205 248 305
#     4   9  16  28  45  67  96 130 161 193 240 300
#
# _framework density 22.406096000000002
#
# number of rings (size 3 to 8) (size 9 to 14) (size 15 to 20)
#    0.000    2.692    0.769    1.385    0.000    4.615 
#    0.000    5.385    0.000    0.462    0.000    3.231 
#    0.000    2.462    0.000    0.000    0.000    0.000 
#
# Total GULP energy -289644.779928 kJ/mol
# GULP energy per Si atom -5570.091922 kJ/mol
# Density = 2.235510 g / cm^3
# Si number density = 22.406096 Si / 1000 Ang^3
#
#
#
# Elastic Constant Matrix: (Units=GPa)
#
#
# Indices 1 2 3 4 5 6 
#
# 1 122.3223 -8.2222 -3.2119 0.0000 0.0000 0.0000
# 2 -8.2222 39.9273 -1.7031 0.0000 0.0000 0.0000
# 3 -3.2119 -1.7031 33.0203 0.0000 0.0000 0.0000
# 4 0.0000 0.0000 0.0000 27.0525 0.0000 0.0000
# 5 0.0000 0.0000 0.0000 0.0000 11.4635 0.0000
# 6 0.0000 0.0000 0.0000 0.0000 0.0000 17.3977
#
#
#
# Elastic Compliance Matrix: (Units=1/GPa)
#
#
# Indices 1 2 3 4 5 6 
#
# 1 0.008316 0.001751 0.000899 0.000000 0.000000 0.000000
# 2 0.001751 0.025469 0.001484 0.000000 0.000000 0.000000
# 3 0.000899 0.001484 0.030448 0.000000 0.000000 0.000000
# 4 0.000000 0.000000 0.000000 0.036965 0.000000 0.000000
# 5 0.000000 0.000000 0.000000 0.000000 0.087234 0.000000
# 6 0.000000 0.000000 0.000000 0.000000 0.000000 0.057479
#
#
# Mechanical properties :
#
#
# Convention : Reuss Voigt Hill
#
# Bulk Modulus (GPa) = 13.79261 18.77726 16.28493
# Shear Modulus (GPa) = 19.09774 25.07654 22.08714
#
# Velocity S-wave (km/s) = 2.92266 3.34905 3.14310
# Velocity P-wave (km/s) = 4.19027 4.83254 4.52282
#
# Compressibility (1/GPa) = 0.07250261
#
# Stress axis : x y z
#
# Youngs Moduli (GPa) = 120.24382 39.26285 32.84246
#
# Poissons Ratio (x) = -0.06875 -0.02953
# Poissons Ratio (y) = -0.21054 -0.04874
# Poissons Ratio (z) = -0.10813 -0.05827
#
# Static dielectric constant tensor:
#      x y z
#    x 1.879750 0.000000 0.000000 
#    y 0.000000 1.847600 0.000000 
#    z 0.000000 0.000000 1.879920 
# 
# From -- ./inp_files/14709.got.cif
#   From: 2010.05.17/outbox.cif.g08.bks.cpg/sg65_8_cif.got.tgz:14709.got - 2010.06.03 17:01:31.
