data_PCOD9486668
_publ_section_title
;
Structure prediction by ZEFSAII (Michael W. Deem and Ramdas Pophale) SiO2 
 PCOD9486668
Probable space group: C M M M
;
_chemical_formula_sum "Si O2"
_cell_formula_units_Z 104
_cell_length_a 29.305812
_cell_length_b 8.783188
_cell_length_c 23.674269
_cell_angle_alpha 90.000000
_cell_angle_beta 90.000000
_cell_angle_gamma 90.000000
_cell_volume 6093.720294
_symmetry_space_group_name_H-M "C M M M"
_symmetry_group_IT_number 65
_symmetry_cell_setting 'orthorhombic'
loop_
_space_group_symop_operation_xyz
x,y,z
-x,-y,z
x,-y,-z
-x,y,-z
-x,-y,-z
x,y,-z
-x,y,z
x,-y,z
1/2+x,1/2+y,z
1/2-x,1/2-y,z
1/2+x,1/2-y,-z
1/2-x,1/2+y,-z
1/2-x,1/2-y,-z
1/2+x,1/2+y,-z
1/2-x,1/2+y,z
1/2+x,1/2-y,z
loop_
_atom_site_type_symbol
_atom_site_label
_atom_site_fract_x
_atom_site_fract_y
_atom_site_fract_z
Si Si1 0.800523 0.183105 0.277801
Si Si2 0.853288 0.183759 0.393230
Si Si3 0.860326 0.816095 0.830559
Si Si4 0.551391 0.683591 0.653778
Si Si5 0.800832 0.681301 0.500000
Si Si6 0.799805 0.816342 0.935544
Si Si7 0.948116 0.318172 0.778932
O O1 0.750000 0.250000 0.278311
O O2 0.827863 0.223971 0.334657
O O3 0.828550 0.231537 0.222336
O O4 0.797479 0.000000 0.276346
O O5 0.906476 0.227518 0.386049
O O6 0.828000 0.261397 0.445063
O O7 0.850835 0.000000 0.399970
O O8 0.836300 0.768380 0.888708
O O9 0.910029 0.748687 0.819852
O O10 0.863203 0.000000 0.829654
O O11 0.500000 0.726948 0.635389
O O12 0.552799 0.500000 0.658874
O O13 0.559188 0.751376 0.716059
O O14 0.797613 0.500000 0.500000
O O15 0.750000 0.750000 0.500000
O O16 0.750000 0.750000 0.921990
O O17 0.796898 0.000000 0.933793
O O18 0.811260 0.771300 0.000000
O O19 0.944442 0.500000 0.776382
O O20 0.000000 0.277862 0.795484
#
# Coordination Sequence:
#
# PCOD9486668 Si02
#       7
#    16  16  16  16   8  16  16
#     4  10  20  32  48  74 103 133 166 209 258 305
#     4  10  20  37  57  79 106 136 174 216 256 307
#     4  10  19  33  51  74 104 137 176 215 258 310
#     4   9  17  33  58  83 108 139 172 208 256 311
#     4  12  26  42  59  78 101 139 182 217 261 310
#     4   9  18  32  51  75 105 141 179 218 259 307
#     4  10  20  32  49  77 109 137 170 213 262 315
#
# _framework density 17.066749999999999
#
# number of rings (size 3 to 8) (size 9 to 14) (size 15 to 20)
#    0.000    2.154    1.538    2.077    0.000    4.615 
#    0.000    0.385    0.000    2.769    0.000    3.231 
#    0.000    0.000    0.000    0.000    0.000    0.000 
#
# Total GULP energy -290181.447846 kJ/mol
# GULP energy per Si atom -5580.412459 kJ/mol
# Density = 1.702791 g / cm^3
# Si number density = 17.066750 Si / 1000 Ang^3
#
#
#
# Elastic Constant Matrix: (Units=GPa)
#
#
# Indices 1 2 3 4 5 6 
#
# 1 177.8511 44.4338 95.9209 0.0000 0.0000 0.0000
# 2 44.4338 17.6429 36.4169 0.0000 0.0000 0.0000
# 3 95.9209 36.4169 116.7392 0.0000 0.0000 0.0000
# 4 0.0000 0.0000 0.0000 14.1707 0.0000 0.0000
# 5 0.0000 0.0000 0.0000 0.0000 31.1293 0.0000
# 6 0.0000 0.0000 0.0000 0.0000 0.0000 29.6439
#
#
#
# Elastic Compliance Matrix: (Units=1/GPa)
#
#
# Indices 1 2 3 4 5 6 
#
# 1 0.015263 -0.035253 -0.001544 0.000000 0.000000 0.000000
# 2 -0.035253 0.240594 -0.046087 0.000000 0.000000 0.000000
# 3 -0.001544 -0.046087 0.024212 0.000000 0.000000 0.000000
# 4 0.000000 0.000000 0.000000 0.070568 0.000000 0.000000
# 5 0.000000 0.000000 0.000000 0.000000 0.032124 0.000000
# 6 0.000000 0.000000 0.000000 0.000000 0.000000 0.033734
#
#
# Mechanical properties :
#
#
# Convention : Reuss Voigt Hill
#
# Bulk Modulus (GPa) = 8.74886 73.97515 41.36200
# Shear Modulus (GPa) = 8.05979 24.01956 16.03967
#
# Velocity S-wave (km/s) = 2.17549 3.75559 3.06897
# Velocity P-wave (km/s) = 3.38345 7.88953 6.07011
#
# Compressibility (1/GPa) = 0.11430064
#
# Stress axis : x y z
#
# Youngs Moduli (GPa) = 65.51890 4.15637 41.30261
#
# Poissons Ratio (x) = 0.14652 0.06376
# Poissons Ratio (y) = 2.30973 1.90353
# Poissons Ratio (z) = 0.10115 0.19156
#
# Static dielectric constant tensor:
#      x y z
#    x 1.576580 0.000000 0.000000 
#    y 0.000000 1.552130 0.000000 
#    z 0.000000 0.000000 1.560230 
# 
# From -- ./inp_files/71835.got.cif
#   From: 2010.05.17/outbox.cif.g08.bks.cpg/sg65_36_cif.got.tgz:71835.got - 2010.06.03 17:01:31.
