data_PCOD9486117
_publ_section_title
;
Structure prediction by ZEFSAII (Michael W. Deem and Ramdas Pophale) SiO2 
 PCOD9486117
Probable space group: C M M M
;
_chemical_formula_sum "Si O2"
_cell_formula_units_Z 120
_cell_length_a 29.390636
_cell_length_b 8.641414
_cell_length_c 29.340268
_cell_angle_alpha 90.000000
_cell_angle_beta 90.000000
_cell_angle_gamma 90.000000
_cell_volume 7451.743076
_symmetry_space_group_name_H-M "C M M M"
_symmetry_group_IT_number 65
_symmetry_cell_setting 'orthorhombic'
loop_
_space_group_symop_operation_xyz
x,y,z
-x,-y,z
x,-y,-z
-x,y,-z
-x,-y,-z
x,y,-z
-x,y,z
x,-y,z
1/2+x,1/2+y,z
1/2-x,1/2-y,z
1/2+x,1/2-y,-z
1/2-x,1/2+y,-z
1/2-x,1/2-y,-z
1/2+x,1/2+y,-z
1/2-x,1/2+y,z
1/2+x,1/2-y,z
loop_
_atom_site_type_symbol
_atom_site_label
_atom_site_fract_x
_atom_site_fract_y
_atom_site_fract_z
Si Si1 0.801194 0.186103 0.500000
Si Si2 0.646452 0.185769 0.313221
Si Si3 0.550984 0.186240 0.274604
Si Si4 0.448410 0.684854 0.172651
Si Si5 0.698437 0.313845 0.400030
Si Si6 0.801110 0.814944 0.775065
Si Si7 0.699609 0.186688 0.051450
Si Si8 0.856920 0.685401 0.860995
O O1 0.750000 0.250000 0.500000
O O2 0.820055 0.232632 0.450460
O O3 0.799820 0.000000 0.500000
O O4 0.593460 0.229308 0.306160
O O5 0.668008 0.249638 0.359394
O O6 0.674182 0.251319 0.270093
O O7 0.649985 0.000000 0.312748
O O8 0.500000 0.227104 0.290934
O O9 0.557537 0.262197 0.225094
O O10 0.552447 0.000000 0.268595
O O11 0.500000 0.727680 0.159252
O O12 0.443912 0.500000 0.170370
O O13 0.409010 0.763555 0.143686
O O14 0.700253 0.500000 0.397454
O O15 0.750000 0.250000 0.395558
O O16 0.750000 0.750000 0.777293
O O17 0.829134 0.759243 0.819143
O O18 0.800061 0.000000 0.773622
O O19 0.750000 0.250000 0.061019
O O20 0.665503 0.235043 0.091284
O O21 0.701549 0.000000 0.051817
O O22 0.686855 0.236030 0.000000
O O23 0.853658 0.500000 0.857054
#
# Coordination Sequence:
#
# PCOD9486117 Si02
#       8
#     8  16  16  16  16  16  16  16
#     4   8  16  30  48  68  91 124 165 209 248 291
#     4  11  21  33  49  72 101 131 165 201 246 298
#     4   9  18  33  52  71  95 128 165 205 247 294
#     4  10  20  33  51  75 101 129 165 207 248 293
#     4  10  19  32  49  70  98 131 168 206 249 293
#     4  12  24  36  49  68 100 136 169 202 240 290
#     4   9  19  35  54  76 101 129 164 205 247 293
#     4  11  21  34  53  76 101 131 166 203 248 298
#
# _framework density 16.103615000000001
#
# number of rings (size 3 to 8) (size 9 to 14) (size 15 to 20)
#    0.000    1.867    1.333    3.600    0.000    4.000 
#    0.000    0.000    0.000    0.400    0.000    3.267 
#    0.000    3.733    0.000    0.000    0.000    0.000 
#
# Total GULP energy -334777.894870 kJ/mol
# GULP energy per Si atom -5579.631581 kJ/mol
# Density = 1.606696 g / cm^3
# Si number density = 16.103615 Si / 1000 Ang^3
#
#
#
# Elastic Constant Matrix: (Units=GPa)
#
#
# Indices 1 2 3 4 5 6 
#
# 1 126.6654 41.8631 87.5746 0.0000 0.0000 0.0000
# 2 41.8631 51.2138 41.6895 0.0000 0.0000 0.0000
# 3 87.5746 41.6895 142.8252 0.0000 0.0000 0.0000
# 4 0.0000 0.0000 0.0000 20.0892 0.0000 0.0000
# 5 0.0000 0.0000 0.0000 0.0000 10.1407 0.0000
# 6 0.0000 0.0000 0.0000 0.0000 0.0000 19.5975
#
#
#
# Elastic Compliance Matrix: (Units=1/GPa)
#
#
# Indices 1 2 3 4 5 6 
#
# 1 0.015114 -0.006310 -0.007426 0.000000 0.000000 0.000000
# 2 -0.006310 0.028246 -0.004376 0.000000 0.000000 0.000000
# 3 -0.007426 -0.004376 0.012832 0.000000 0.000000 0.000000
# 4 0.000000 0.000000 0.000000 0.049778 0.000000 0.000000
# 5 0.000000 0.000000 0.000000 0.000000 0.098613 0.000000
# 6 0.000000 0.000000 0.000000 0.000000 0.000000 0.051027
#
#
# Mechanical properties :
#
#
# Convention : Reuss Voigt Hill
#
# Bulk Modulus (GPa) = 50.07675 73.66210 61.86942
# Shear Modulus (GPa) = 16.75106 19.93729 18.34418
#
# Velocity S-wave (km/s) = 3.22872 3.52243 3.37877
# Velocity P-wave (km/s) = 6.71294 7.89843 7.32969
#
# Compressibility (1/GPa) = 0.01996935
#
# Stress axis : x y z
#
# Youngs Moduli (GPa) = 66.16285 35.40348 77.93104
#
# Poissons Ratio (x) = 0.22340 0.57868
# Poissons Ratio (y) = 0.41749 0.34100
# Poissons Ratio (z) = 0.49130 0.15491
#
# Static dielectric constant tensor:
#      x y z
#    x 1.532740 0.000000 0.000000 
#    y 0.000000 1.537640 0.000000 
#    z 0.000000 0.000000 1.536440 
# 
# From -- ./inp_files/76184.got.cif
#   From: 2010.05.17/outbox.cif.g08.bks.cpg/sg65_39_cif.got.tgz:76184.got - 2010.06.03 17:01:31.
