data_PCOD9486812
_publ_section_title
;
Structure prediction by ZEFSAII (Michael W. Deem and Ramdas Pophale) SiO2 
 PCOD9486812
Probable space group: C M M M
;
_chemical_formula_sum "Si O2"
_cell_formula_units_Z 66
_cell_length_a 8.605974
_cell_length_b 16.108078
_cell_length_c 26.319529
_cell_angle_alpha 90.000000
_cell_angle_beta 90.000000
_cell_angle_gamma 90.000000
_cell_volume 3648.563143
_symmetry_space_group_name_H-M "C M M M"
_symmetry_group_IT_number 65
_symmetry_cell_setting 'orthorhombic'
loop_
_space_group_symop_operation_xyz
x,y,z
-x,-y,z
x,-y,-z
-x,y,-z
-x,-y,-z
x,y,-z
-x,y,z
x,-y,z
1/2+x,1/2+y,z
1/2-x,1/2-y,z
1/2+x,1/2-y,-z
1/2-x,1/2+y,-z
1/2-x,1/2-y,-z
1/2+x,1/2+y,-z
1/2-x,1/2+y,z
1/2+x,1/2-y,z
loop_
_atom_site_type_symbol
_atom_site_label
_atom_site_fract_x
_atom_site_fract_y
_atom_site_fract_z
Si Si1 0.685719 0.339147 0.377851
Si Si2 0.500000 0.000000 0.000000
Si Si3 0.189640 0.000000 0.441481
Si Si4 0.812766 0.339342 0.839242
Si Si5 0.312967 0.902424 0.272191
Si Si6 0.173273 0.500000 0.895125
O O1 0.500000 0.336629 0.379840
O O2 0.750000 0.250000 0.394359
O O3 0.740367 0.416887 0.412063
O O4 0.738316 0.357879 0.320343
O O5 0.366744 0.000000 0.954429
O O6 0.239252 0.000000 0.500000
O O7 0.000000 0.000000 0.440732
O O8 0.750000 0.250000 0.854193
O O9 0.767848 0.361772 0.781405
O O10 0.755445 0.414679 0.874992
O O11 0.000000 0.334518 0.841814
O O12 0.500000 0.897222 0.276498
O O13 0.270432 0.000000 0.272080
O O14 0.000000 0.500000 0.869134
#
# Coordination Sequence:
#
# PCOD9486812 Si02
#       6
#    16   2   8  16  16   8
#     4  11  22  37  57  82 111 143 182 225 271 330
#     4   8  16  32  64  76  98 146 196 224 260 324
#     4   9  20  39  59  78 105 142 181 226 278 327
#     4  10  19  33  53  79 111 143 179 220 264 323
#     4  10  19  33  55  80 109 148 180 220 270 325
#     4   8  16  33  54  74 102 138 185 215 263 313
#
# _framework density 18.089312
#
# number of rings (size 3 to 8) (size 9 to 14) (size 15 to 20)
#    0.364    1.818    2.424    1.455    0.000    3.394 
#    0.000    1.212    0.000    5.091    0.000    0.848 
#    0.000    0.000    0.000    0.000    0.000    0.000 
#
# Total GULP energy -183739.429396 kJ/mol
# GULP energy per Si atom -5567.861497 kJ/mol
# Density = 1.804814 g / cm^3
# Si number density = 18.089312 Si / 1000 Ang^3
#
#
#
# Elastic Constant Matrix: (Units=GPa)
#
#
# Indices 1 2 3 4 5 6 
#
# 1 10.0737 26.9642 19.6083 0.0000 0.0000 0.0000
# 2 26.9642 192.5645 84.3930 0.0000 0.0000 0.0000
# 3 19.6083 84.3930 141.0711 0.0000 0.0000 0.0000
# 4 0.0000 0.0000 0.0000 2.2391 0.0000 0.0000
# 5 0.0000 0.0000 0.0000 0.0000 32.5069 0.0000
# 6 0.0000 0.0000 0.0000 0.0000 0.0000 26.8052
#
#
#
# Elastic Compliance Matrix: (Units=1/GPa)
#
#
# Indices 1 2 3 4 5 6 
#
# 1 0.174984 -0.018762 -0.013098 0.000000 0.000000 0.000000
# 2 -0.018762 0.009050 -0.002806 0.000000 0.000000 0.000000
# 3 -0.013098 -0.002806 0.010588 0.000000 0.000000 0.000000
# 4 0.000000 0.000000 0.000000 0.446615 0.000000 0.000000
# 5 0.000000 0.000000 0.000000 0.000000 0.030763 0.000000
# 6 0.000000 0.000000 0.000000 0.000000 0.000000 0.037306
#
#
# Mechanical properties :
#
#
# Convention : Reuss Voigt Hill
#
# Bulk Modulus (GPa) = 7.98151 67.29336 37.63743
# Shear Modulus (GPa) = 6.09457 26.49316 16.29387
#
# Velocity S-wave (km/s) = 1.83752 3.83113 3.00450
# Velocity P-wave (km/s) = 2.98728 7.53999 5.73477
#
# Compressibility (1/GPa) = 0.12528956
#
# Stress axis : x y z
#
# Youngs Moduli (GPa) = 5.71480 110.49593 94.44722
#
# Poissons Ratio (x) = 2.07315 1.23706
# Poissons Ratio (y) = 0.10722 0.26504
# Poissons Ratio (z) = 0.07485 0.31007
#
# Static dielectric constant tensor:
#      x y z
#    x 1.632010 0.000000 0.000000 
#    y 0.000000 1.651750 0.000000 
#    z 0.000000 0.000000 1.594170 
# 
# From -- ./inp_files/72436.got.cif
#   From: 2010.05.17/outbox.cif.g08.bks.cpg/sg65_37_cif.got.tgz:72436.got - 2010.06.03 17:01:31.
