data_PCOD9486504
_publ_section_title
;
Structure prediction by ZEFSAII (Michael W. Deem and Ramdas Pophale) SiO2 
 PCOD9486504
Probable space group: C M M M
;
_chemical_formula_sum "Si O2"
_cell_formula_units_Z 104
_cell_length_a 23.713706
_cell_length_b 28.829435
_cell_length_c 7.513008
_cell_angle_alpha 90.000000
_cell_angle_beta 90.000000
_cell_angle_gamma 90.000000
_cell_volume 5136.288548
_symmetry_space_group_name_H-M "C M M M"
_symmetry_group_IT_number 65
_symmetry_cell_setting 'orthorhombic'
loop_
_space_group_symop_operation_xyz
x,y,z
-x,-y,z
x,-y,-z
-x,y,-z
-x,-y,-z
x,y,-z
-x,y,z
x,-y,z
1/2+x,1/2+y,z
1/2-x,1/2-y,z
1/2+x,1/2-y,-z
1/2-x,1/2+y,-z
1/2-x,1/2-y,-z
1/2+x,1/2+y,-z
1/2-x,1/2+y,z
1/2+x,1/2-y,z
loop_
_atom_site_type_symbol
_atom_site_label
_atom_site_fract_x
_atom_site_fract_y
_atom_site_fract_z
Si Si1 0.436413 0.732406 0.215540
Si Si2 0.735713 0.699367 0.296079
Si Si3 0.068621 0.500000 0.293103
Si Si4 0.643673 0.185515 0.793239
Si Si5 0.369602 0.357733 0.291119
Si Si6 0.935231 0.600217 0.283906
Si Si7 0.434829 0.447165 0.282632
O O1 0.500000 0.743680 0.274551
O O2 0.390146 0.769721 0.278885
O O3 0.417822 0.681300 0.272923
O O4 0.436093 0.734005 0.000000
O O5 0.717542 0.708626 0.500000
O O6 0.750000 0.750000 0.215355
O O7 0.796585 0.675579 0.295643
O O8 0.686593 0.667433 0.215467
O O9 0.086083 0.500000 0.500000
O O10 0.085242 0.450236 0.217712
O O11 0.000000 0.500000 0.291122
O O12 0.602819 0.142054 0.776644
O O13 0.655405 0.194238 0.000000
O O14 0.358119 0.366183 0.500000
O O15 0.393410 0.406348 0.218796
O O16 0.935162 0.598962 0.500000
O O17 0.000000 0.607129 0.227627
O O18 0.434390 0.446220 0.500000
O O19 0.500000 0.438269 0.229501
O O20 0.420119 0.500000 0.229611
#
# Coordination Sequence:
#
# PCOD9486504 Si02
#       7
#    16  16   8  16  16  16  16
#     4  10  21  34  47  69 103 135 161 197 245 298
#     4  10  20  35  52  71  97 128 169 218 255 289
#     4   7  12  26  49  75  99 125 159 199 246 299
#     4  11  22  34  50  71 100 137 173 207 248 303
#     4  10  19  32  53  76  97 128 168 208 247 297
#     4   9  17  31  53  78 103 131 164 206 256 305
#     4   8  14  26  47  77 107 127 150 196 255 306
#
# _framework density 20.248083000000001
#
# number of rings (size 3 to 8) (size 9 to 14) (size 15 to 20)
#    0.000    2.538    1.538    2.769    0.000    3.385 
#    0.000    0.385    1.692    1.846    0.000    2.154 
#    0.000    0.000    0.000    0.000    0.000    0.000 
#
# Total GULP energy -290025.528993 kJ/mol
# GULP energy per Si atom -5577.414019 kJ/mol
# Density = 2.020200 g / cm^3
# Si number density = 20.248083 Si / 1000 Ang^3
#
#
#
# Elastic Constant Matrix: (Units=GPa)
#
#
# Indices 1 2 3 4 5 6 
#
# 1 116.5525 68.8016 8.9949 0.0000 0.0000 0.0000
# 2 68.8016 164.4856 5.8439 0.0000 0.0000 0.0000
# 3 8.9949 5.8439 56.3583 0.0000 0.0000 0.0000
# 4 0.0000 0.0000 0.0000 51.6647 0.0000 0.0000
# 5 0.0000 0.0000 0.0000 0.0000 31.4515 0.0000
# 6 0.0000 0.0000 0.0000 0.0000 0.0000 25.2622
#
#
#
# Elastic Compliance Matrix: (Units=1/GPa)
#
#
# Indices 1 2 3 4 5 6 
#
# 1 0.011493 -0.004760 -0.001341 0.000000 0.000000 0.000000
# 2 -0.004760 0.008073 -0.000077 0.000000 0.000000 0.000000
# 3 -0.001341 -0.000077 0.017966 0.000000 0.000000 0.000000
# 4 0.000000 0.000000 0.000000 0.019356 0.000000 0.000000
# 5 0.000000 0.000000 0.000000 0.000000 0.031795 0.000000
# 6 0.000000 0.000000 0.000000 0.000000 0.000000 0.039585
#
#
# Mechanical properties :
#
#
# Convention : Reuss Voigt Hill
#
# Bulk Modulus (GPa) = 39.72040 56.07525 47.89782
# Shear Modulus (GPa) = 33.55364 38.59273 36.07318
#
# Velocity S-wave (km/s) = 4.07520 4.37051 4.22543
# Velocity P-wave (km/s) = 6.46548 7.29539 6.89293
#
# Compressibility (1/GPa) = 0.02517598
#
# Stress axis : x y z
#
# Youngs Moduli (GPa) = 87.00974 123.86651 55.66180
#
# Poissons Ratio (x) = 0.58957 0.07463
# Poissons Ratio (y) = 0.41414 0.00431
# Poissons Ratio (z) = 0.11666 0.00960
#
# Static dielectric constant tensor:
#      x y z
#    x 1.719030 0.000000 0.000000 
#    y 0.000000 1.734030 0.000000 
#    z 0.000000 0.000000 1.780570 
# 
# From -- ./inp_files/14728.got.cif
#   From: 2010.05.17/outbox.cif.g08.bks.cpg/sg65_8_cif.got.tgz:14728.got - 2010.06.03 17:01:31.
