data_PCOD9486286
_publ_section_title
;
Structure prediction by ZEFSAII (Michael W. Deem and Ramdas Pophale) SiO2 
 PCOD9486286
Probable space group: C M M M
;
_chemical_formula_sum "Si O2"
_cell_formula_units_Z 68
_cell_length_a 16.595119
_cell_length_b 18.716914
_cell_length_c 11.381918
_cell_angle_alpha 90.000000
_cell_angle_beta 90.000000
_cell_angle_gamma 90.000000
_cell_volume 3535.330893
_symmetry_space_group_name_H-M "C M M M"
_symmetry_group_IT_number 65
_symmetry_cell_setting 'orthorhombic'
loop_
_space_group_symop_operation_xyz
x,y,z
-x,-y,z
x,-y,-z
-x,y,-z
-x,-y,-z
x,y,-z
-x,y,z
x,-y,z
1/2+x,1/2+y,z
1/2-x,1/2-y,z
1/2+x,1/2-y,-z
1/2-x,1/2+y,-z
1/2-x,1/2-y,-z
1/2+x,1/2+y,-z
1/2-x,1/2+y,z
1/2+x,1/2-y,z
loop_
_atom_site_type_symbol
_atom_site_label
_atom_site_fract_x
_atom_site_fract_y
_atom_site_fract_z
Si Si1 0.908446 0.226565 0.358327
Si Si2 0.668053 0.579320 0.358345
Si Si3 0.167204 0.364048 0.743280
Si Si4 0.000000 0.308347 0.000000
Si Si5 0.322259 0.193363 0.000000
Si Si6 0.500000 0.080617 0.785922
O O1 0.904149 0.230160 0.500000
O O2 0.886631 0.146236 0.320815
O O3 0.847589 0.284280 0.305873
O O4 0.000000 0.244127 0.322499
O O5 0.666977 0.579074 0.500000
O O6 0.643466 0.500000 0.318364
O O7 0.757642 0.597629 0.315348
O O8 0.083640 0.405465 0.719221
O O9 0.181592 0.354419 0.882573
O O10 0.087504 0.270998 0.000000
O O11 0.000000 0.360854 0.111402
O O12 0.250000 0.250000 0.000000
O O13 0.500000 0.000000 0.831939
#
# Coordination Sequence:
#
# PCOD9486286 Si02
#       6
#    16  16  16   4   8   8
#     4  10  20  35  56  80 107 141 181 225 272 323
#     4  10  21  36  55  79 108 143 181 224 273 323
#     4  11  20  36  54  80 110 141 181 224 269 325
#     4   8  19  32  48  72 104 140 179 214 263 322
#     4  10  20  33  53  80 109 142 182 227 271 319
#     4  10  19  32  51  74 106 141 171 214 265 318
#
# _framework density 19.234408999999999
#
# number of rings (size 3 to 8) (size 9 to 14) (size 15 to 20)
#    0.000    1.882    1.176    3.706    0.000    2.353 
#    0.000    4.118    0.000    2.824    0.000    0.000 
#    0.000    5.647    0.000    0.000    0.000    0.000 
#
# Total GULP energy -189717.209669 kJ/mol
# GULP energy per Si atom -5579.917931 kJ/mol
# Density = 1.919063 g / cm^3
# Si number density = 19.234409 Si / 1000 Ang^3
#
#
#
# Elastic Constant Matrix: (Units=GPa)
#
#
# Indices 1 2 3 4 5 6 
#
# 1 57.2146 9.8727 -3.2930 0.0000 0.0000 0.0000
# 2 9.8727 97.4202 22.4201 0.0000 0.0000 0.0000
# 3 -3.2930 22.4201 15.7935 0.0000 0.0000 0.0000
# 4 0.0000 0.0000 0.0000 -3.0177 0.0000 0.0000
# 5 0.0000 0.0000 0.0000 0.0000 22.2764 0.0000
# 6 0.0000 0.0000 0.0000 0.0000 0.0000 16.2613
#
#
#
# Elastic Compliance Matrix: (Units=1/GPa)
#
#
# Indices 1 2 3 4 5 6 
#
# 1 0.018761 -0.004161 0.009818 0.000000 0.000000 0.000000
# 2 -0.004161 0.016168 -0.023820 0.000000 0.000000 0.000000
# 3 0.009818 -0.023820 0.099178 0.000000 0.000000 0.000000
# 4 0.000000 0.000000 0.000000 -0.331379 0.000000 0.000000
# 5 0.000000 0.000000 0.000000 0.000000 0.044891 0.000000
# 6 0.000000 0.000000 0.000000 0.000000 0.000000 0.061496
#
#
# Mechanical properties :
#
#
# Convention : Reuss Voigt Hill
#
# Bulk Modulus (GPa) = 10.22671 25.38089 17.80380
# Shear Modulus (GPa) = -227.61581 16.53256 -105.54162
#
# Velocity S-wave (km/s) = -10.89012 2.93496 -7.41555
# Velocity P-wave (km/s) = 12.36114 4.97087 8.00276
#
# Compressibility (1/GPa) = 0.09778313
#
# Stress axis : x y z
#
# Youngs Moduli (GPa) = 53.30165 61.84944 10.08289
#
# Poissons Ratio (x) = 0.25735 -0.09900
# Poissons Ratio (y) = 0.22178 0.24017
# Poissons Ratio (z) = -0.52334 1.47323
#
# Static dielectric constant tensor:
#      x y z
#    x 1.697050 0.000000 0.000000 
#    y 0.000000 1.681020 0.000000 
#    z 0.000000 0.000000 1.669840 
# 
# From -- ./inp_files/26377.got.cif
#   From: 2010.05.17/outbox.cif.g08.bks.cpg/sg65_14_cif.got.tgz:26377.got - 2010.06.03 17:01:31.
