data_PCOD9486599
_publ_section_title
;
Structure prediction by ZEFSAII (Michael W. Deem and Ramdas Pophale) SiO2 
 PCOD9486599
Probable space group: C M M M
;
_chemical_formula_sum "Si O2"
_cell_formula_units_Z 68
_cell_length_a 17.316453
_cell_length_b 22.504753
_cell_length_c 8.874351
_cell_angle_alpha 90.000000
_cell_angle_beta 90.000000
_cell_angle_gamma 90.000000
_cell_volume 3458.356749
_symmetry_space_group_name_H-M "C M M M"
_symmetry_group_IT_number 65
_symmetry_cell_setting 'orthorhombic'
loop_
_space_group_symop_operation_xyz
x,y,z
-x,-y,z
x,-y,-z
-x,y,-z
-x,-y,-z
x,y,-z
-x,y,z
x,-y,z
1/2+x,1/2+y,z
1/2-x,1/2-y,z
1/2+x,1/2-y,-z
1/2-x,1/2+y,-z
1/2-x,1/2-y,-z
1/2+x,1/2+y,-z
1/2-x,1/2+y,z
1/2+x,1/2-y,z
loop_
_atom_site_type_symbol
_atom_site_label
_atom_site_fract_x
_atom_site_fract_y
_atom_site_fract_z
Si Si1 0.000000 0.000000 0.738588
Si Si2 0.319212 0.500000 0.671885
Si Si3 0.744548 0.883998 0.179859
Si Si4 0.145343 0.791249 0.323569
Si Si5 0.587902 0.168281 0.181507
Si Si6 0.500000 0.621726 0.674546
O O1 0.000000 0.068199 0.794522
O O2 0.087454 0.000000 0.672434
O O3 0.293209 0.500000 0.500000
O O4 0.286734 0.559011 0.750787
O O5 0.784188 0.823868 0.241539
O O6 0.653692 0.879877 0.219294
O O7 0.752509 0.885788 0.000000
O O8 0.162712 0.782714 0.500000
O O9 0.116126 0.730341 0.251513
O O10 0.074688 0.837676 0.311325
O O11 0.500000 0.155165 0.229636
O O12 0.587888 0.174413 0.000000
O O13 0.500000 0.597499 0.500000
#
# Coordination Sequence:
#
# PCOD9486599 Si02
#       6
#     4   8  16  16  16   8
#     4  12  21  38  63  86 121 160 195 236 281 344
#     4  12  24  41  65  90 118 155 200 246 296 353
#     4  11  24  41  60  87 122 157 198 248 301 358
#     4  11  21  36  60  91 124 158 199 244 296 354
#     4  10  22  41  63  86 116 158 203 249 302 356
#     4  10  19  32  54  87 122 158 194 236 284 339
#
# _framework density 19.662517000000001
#
# number of rings (size 3 to 8) (size 9 to 14) (size 15 to 20)
#    0.000    1.176    3.529    3.529    0.000    4.706 
#    0.000    2.941    0.000    3.529    0.000    0.000 
#    0.000    0.000    0.000    0.000    0.000    0.000 
#
# Total GULP energy -189743.498549 kJ/mol
# GULP energy per Si atom -5580.691134 kJ/mol
# Density = 1.961776 g / cm^3
# Si number density = 19.662517 Si / 1000 Ang^3
#
#
#
# Elastic Constant Matrix: (Units=GPa)
#
#
# Indices 1 2 3 4 5 6 
#
# 1 172.5342 52.1266 48.0602 0.0000 0.0000 0.0000
# 2 52.1266 70.7497 17.5722 0.0000 0.0000 0.0000
# 3 48.0602 17.5722 45.7729 0.0000 0.0000 0.0000
# 4 0.0000 0.0000 0.0000 20.2065 0.0000 0.0000
# 5 0.0000 0.0000 0.0000 0.0000 12.0443 0.0000
# 6 0.0000 0.0000 0.0000 0.0000 0.0000 24.9409
#
#
#
# Elastic Compliance Matrix: (Units=1/GPa)
#
#
# Indices 1 2 3 4 5 6 
#
# 1 0.009583 -0.005042 -0.008126 0.000000 0.000000 0.000000
# 2 -0.005042 0.018277 -0.001722 0.000000 0.000000 0.000000
# 3 -0.008126 -0.001722 0.031040 0.000000 0.000000 0.000000
# 4 0.000000 0.000000 0.000000 0.049489 0.000000 0.000000
# 5 0.000000 0.000000 0.000000 0.000000 0.083027 0.000000
# 6 0.000000 0.000000 0.000000 0.000000 0.000000 0.040095
#
#
# Mechanical properties :
#
#
# Convention : Reuss Voigt Hill
#
# Bulk Modulus (GPa) = 34.34184 58.28611 46.31397
# Shear Modulus (GPa) = 18.45028 22.85819 20.65424
#
# Velocity S-wave (km/s) = 3.06657 3.41328 3.24456
# Velocity P-wave (km/s) = 5.48106 6.72619 6.13529
#
# Compressibility (1/GPa) = 0.02911900
#
# Stress axis : x y z
#
# Youngs Moduli (GPa) = 104.35312 54.71334 32.21608
#
# Poissons Ratio (x) = 0.27587 0.26179
# Poissons Ratio (y) = 0.52616 0.05549
# Poissons Ratio (z) = 0.84798 0.09424
#
# Static dielectric constant tensor:
#      x y z
#    x 1.710010 0.000000 0.000000 
#    y 0.000000 1.673320 0.000000 
#    z 0.000000 0.000000 1.681690 
# 
# From -- ./inp_files/8986.got.cif
#   From: 2010.05.17/outbox.cif.g08.bks.cpg/sg65_5_cif.got.tgz:8986.got - 2010.06.03 17:01:31.
