data_PCOD9486733
_publ_section_title
;
Structure prediction by ZEFSAII (Michael W. Deem and Ramdas Pophale) SiO2 
 PCOD9486733
Probable space group: C M M M
;
_chemical_formula_sum "Si O2"
_cell_formula_units_Z 120
_cell_length_a 8.760804
_cell_length_b 29.068699
_cell_length_c 29.371849
_cell_angle_alpha 90.000000
_cell_angle_beta 90.000000
_cell_angle_gamma 90.000000
_cell_volume 7479.987050
_symmetry_space_group_name_H-M "C M M M"
_symmetry_group_IT_number 65
_symmetry_cell_setting 'orthorhombic'
loop_
_space_group_symop_operation_xyz
x,y,z
-x,-y,z
x,-y,-z
-x,y,-z
-x,-y,-z
x,y,-z
-x,y,z
x,-y,z
1/2+x,1/2+y,z
1/2-x,1/2-y,z
1/2+x,1/2-y,-z
1/2-x,1/2+y,-z
1/2-x,1/2-y,-z
1/2+x,1/2+y,-z
1/2-x,1/2+y,z
1/2+x,1/2-y,z
loop_
_atom_site_type_symbol
_atom_site_label
_atom_site_fract_x
_atom_site_fract_y
_atom_site_fract_z
Si Si1 0.683325 0.446128 0.500000
Si Si2 0.819056 0.444527 0.950334
Si Si3 0.814108 0.105503 0.765183
Si Si4 0.316015 0.553529 0.855222
Si Si5 0.316564 0.299081 0.724610
Si Si6 0.181472 0.606743 0.413551
Si Si7 0.682462 0.445503 0.672458
Si Si8 0.182972 0.200425 0.382394
O O1 0.726780 0.500000 0.500000
O O2 0.500000 0.443546 0.500000
O O3 0.747651 0.420957 0.455573
O O4 0.799004 0.500000 0.950812
O O5 0.739754 0.428512 0.904169
O O6 0.000000 0.435741 0.947619
O O7 0.763678 0.427590 0.000000
O O8 0.761193 0.083539 0.812495
O O9 0.763558 0.157352 0.753993
O O10 0.773331 0.074046 0.721862
O O11 0.000000 0.106033 0.766707
O O12 0.500000 0.553576 0.855094
O O13 0.267153 0.500000 0.849770
O O14 0.500000 0.296980 0.726889
O O15 0.250000 0.250000 0.738655
O O16 0.277057 0.306779 0.671267
O O17 0.231015 0.580794 0.367401
O O18 0.247736 0.658232 0.410182
O O19 0.000000 0.608131 0.417504
O O20 0.500000 0.437046 0.666706
O O21 0.707925 0.500000 0.670029
O O22 0.250000 0.250000 0.395609
O O23 0.000000 0.200608 0.386094
#
# Coordination Sequence:
#
# PCOD9486733 Si02
#       8
#     8  16  16  16  16  16  16  16
#     4  11  25  45  66  83 102 135 175 211 251 299
#     4   8  14  25  39  54  78 117 160 197 237 285
#     4   9  16  29  46  68  96 128 161 197 241 288
#     4   9  16  25  40  63  90 121 159 201 240 278
#     4   9  17  30  49  70  96 126 161 200 238 283
#     4  12  24  38  57  82 110 136 165 206 253 296
#     4  10  19  33  53  73  97 134 175 206 237 289
#     4  10  19  35  58  83 108 135 169 205 246 295
#
# _framework density 16.042808000000001
#
# number of rings (size 3 to 8) (size 9 to 14) (size 15 to 20)
#    0.000    2.333    1.333    3.000    0.000    4.800 
#    0.000    3.000    0.000    1.600    0.000    0.000 
#    0.000    0.533    0.000    1.200    0.000    2.133 
#
# Total GULP energy -334608.709352 kJ/mol
# GULP energy per Si atom -5576.811823 kJ/mol
# Density = 1.600629 g / cm^3
# Si number density = 16.042808 Si / 1000 Ang^3
#
#
#
# Elastic Constant Matrix: (Units=GPa)
#
#
# Indices 1 2 3 4 5 6 
#
# 1 35.5404 43.3006 37.7736 0.0000 0.0000 0.0000
# 2 43.3006 119.5021 72.6666 0.0000 0.0000 0.0000
# 3 37.7736 72.6666 130.1610 0.0000 0.0000 0.0000
# 4 0.0000 0.0000 0.0000 10.5105 0.0000 0.0000
# 5 0.0000 0.0000 0.0000 0.0000 -29.9519 0.0000
# 6 0.0000 0.0000 0.0000 0.0000 0.0000 22.1821
#
#
#
# Elastic Compliance Matrix: (Units=1/GPa)
#
#
# Indices 1 2 3 4 5 6 
#
# 1 0.054562 -0.015354 -0.007262 0.000000 0.000000 0.000000
# 2 -0.015354 0.016990 -0.005029 0.000000 0.000000 0.000000
# 3 -0.007262 -0.005029 0.012598 0.000000 0.000000 0.000000
# 4 0.000000 0.000000 0.000000 0.095143 0.000000 0.000000
# 5 0.000000 0.000000 0.000000 0.000000 -0.033387 0.000000
# 6 0.000000 0.000000 0.000000 0.000000 0.000000 0.045081
#
#
# Mechanical properties :
#
#
# Convention : Reuss Voigt Hill
#
# Bulk Modulus (GPa) = 34.65157 65.85390 50.25273
# Shear Modulus (GPa) = 19.53897 9.31231 14.42564
#
# Velocity S-wave (km/s) = 3.49367 2.41190 3.00191
# Velocity P-wave (km/s) = 6.15797 6.99245 6.58843
#
# Compressibility (1/GPa) = 0.02885873
#
# Stress axis : x y z
#
# Youngs Moduli (GPa) = 18.32762 58.85957 79.37710
#
# Poissons Ratio (x) = 0.90374 0.57647
# Poissons Ratio (y) = 0.28140 0.39920
# Poissons Ratio (z) = 0.13310 0.29601
#
# Static dielectric constant tensor:
#      x y z
#    x 1.540490 0.000000 0.000000 
#    y 0.000000 1.527220 0.000000 
#    z 0.000000 0.000000 1.541460 
# 
# From -- ./inp_files/73991.got.cif
#   From: 2010.05.17/outbox.cif.g08.bks.cpg/sg65_37_cif.got.tgz:73991.got - 2010.06.03 17:01:31.
