data_PCOD9486094
_publ_section_title
;
Structure prediction by ZEFSAII (Michael W. Deem and Ramdas Pophale) SiO2 
 PCOD9486094
Probable space group: C M M M
;
_chemical_formula_sum "Si O2"
_cell_formula_units_Z 96
_cell_length_a 8.509323
_cell_length_b 28.458515
_cell_length_c 24.541286
_cell_angle_alpha 90.000000
_cell_angle_beta 90.000000
_cell_angle_gamma 90.000000
_cell_volume 5942.983987
_symmetry_space_group_name_H-M "C M M M"
_symmetry_group_IT_number 65
_symmetry_cell_setting 'orthorhombic'
loop_
_space_group_symop_operation_xyz
x,y,z
-x,-y,z
x,-y,-z
-x,y,-z
-x,-y,-z
x,y,-z
-x,y,z
x,-y,z
1/2+x,1/2+y,z
1/2-x,1/2-y,z
1/2+x,1/2-y,-z
1/2-x,1/2+y,-z
1/2-x,1/2-y,-z
1/2+x,1/2+y,-z
1/2-x,1/2+y,z
1/2+x,1/2-y,z
loop_
_atom_site_type_symbol
_atom_site_label
_atom_site_fract_x
_atom_site_fract_y
_atom_site_fract_z
Si Si1 0.191263 0.856166 0.167733
Si Si2 0.690181 0.553150 0.769685
Si Si3 0.810379 0.054269 0.562622
Si Si4 0.186473 0.607777 0.665337
Si Si5 0.311770 0.302192 0.276906
Si Si6 0.690180 0.302764 0.938545
O O1 0.242019 0.908303 0.185728
O O2 0.238178 0.821397 0.217053
O O3 0.245619 0.836906 0.109628
O O4 0.000000 0.856431 0.166674
O O5 0.500000 0.552969 0.769488
O O6 0.744868 0.500000 0.778935
O O7 0.744556 0.572880 0.711406
O O8 0.765888 0.064574 0.500000
O O9 0.738576 0.088887 0.606756
O O10 0.000000 0.056498 0.565989
O O11 0.764946 0.000000 0.574357
O O12 0.250482 0.659354 0.680302
O O13 0.000000 0.607954 0.669629
O O14 0.500000 0.302265 0.278186
O O15 0.250000 0.250000 0.286132
O O16 0.500000 0.301980 0.937576
O O17 0.750000 0.250000 0.928241
O O18 0.739407 0.316240 0.000000
#
# Coordination Sequence:
#
# PCOD9486094 Si02
#       6
#    16  16  16  16  16  16
#     4   8  15  27  43  64  88 116 149 184 224 270
#     4   9  17  30  47  64  86 119 155 189 227 273
#     4   9  18  33  52  72  95 125 158 189 224 268
#     4  11  21  31  46  70  98 124 151 186 228 272
#     4  10  19  32  49  68  92 121 154 190 228 272
#     4   9  16  26  41  61  86 114 144 181 225 272
#
# _framework density 16.153502
#
# number of rings (size 3 to 8) (size 9 to 14) (size 15 to 20)
#    0.000    2.667    0.000    4.500    0.000    3.000 
#    0.000    4.167    0.000    1.000    0.000    3.500 
#    0.000    0.000    0.000   10.167    0.000   11.000 
#
# Total GULP energy -267589.059438 kJ/mol
# GULP energy per Si atom -5574.772072 kJ/mol
# Density = 1.611674 g / cm^3
# Si number density = 16.153502 Si / 1000 Ang^3
#
#
#
# Elastic Constant Matrix: (Units=GPa)
#
#
# Indices 1 2 3 4 5 6 
#
# 1 21.0491 26.8793 22.8033 0.0000 0.0000 0.0000
# 2 26.8793 153.0367 93.1062 0.0000 0.0000 0.0000
# 3 22.8033 93.1062 123.4992 0.0000 0.0000 0.0000
# 4 0.0000 0.0000 0.0000 21.4225 0.0000 0.0000
# 5 0.0000 0.0000 0.0000 0.0000 6.1003 0.0000
# 6 0.0000 0.0000 0.0000 0.0000 0.0000 21.1102
#
#
#
# Elastic Compliance Matrix: (Units=1/GPa)
#
#
# Indices 1 2 3 4 5 6 
#
# 1 0.063671 -0.007446 -0.006143 0.000000 0.000000 0.000000
# 2 -0.007446 0.012942 -0.008382 0.000000 0.000000 0.000000
# 3 -0.006143 -0.008382 0.015551 0.000000 0.000000 0.000000
# 4 0.000000 0.000000 0.000000 0.046680 0.000000 0.000000
# 5 0.000000 0.000000 0.000000 0.000000 0.163926 0.000000
# 6 0.000000 0.000000 0.000000 0.000000 0.000000 0.047370
#
#
# Mechanical properties :
#
#
# Convention : Reuss Voigt Hill
#
# Bulk Modulus (GPa) = 20.73752 64.79585 42.76668
# Shear Modulus (GPa) = 12.19053 20.04635 16.11844
#
# Velocity S-wave (km/s) = 2.75010 3.52659 3.16227
# Velocity P-wave (km/s) = 4.79059 7.53539 6.31395
#
# Compressibility (1/GPa) = 0.04822177
#
# Stress axis : x y z
#
# Youngs Moduli (GPa) = 15.70576 77.26996 64.30619
#
# Poissons Ratio (x) = 0.57534 0.39503
# Poissons Ratio (y) = 0.11694 0.53901
# Poissons Ratio (z) = 0.09648 0.64767
#
# Static dielectric constant tensor:
#      x y z
#    x 1.551180 0.000000 0.000000 
#    y 0.000000 1.531620 0.000000 
#    z 0.000000 0.000000 1.538360 
# 
# From -- ./inp_files/68058.got.cif
#   From: 2010.05.17/outbox.cif.g08.bks.cpg/sg65_35_cif.got.tgz:68058.got - 2010.06.03 17:01:31.
