data_PCOD9486100
_publ_section_title
;
Structure prediction by ZEFSAII (Michael W. Deem and Ramdas Pophale) SiO2 
 PCOD9486100
Probable space group: C M M M
;
_chemical_formula_sum "Si O2"
_cell_formula_units_Z 88
_cell_length_a 28.044422
_cell_length_b 8.496015
_cell_length_c 21.974628
_cell_angle_alpha 90.000000
_cell_angle_beta 90.000000
_cell_angle_gamma 90.000000
_cell_volume 5235.802979
_symmetry_space_group_name_H-M "C M M M"
_symmetry_group_IT_number 65
_symmetry_cell_setting 'orthorhombic'
loop_
_space_group_symop_operation_xyz
x,y,z
-x,-y,z
x,-y,-z
-x,y,-z
-x,-y,-z
x,y,-z
-x,y,z
x,-y,z
1/2+x,1/2+y,z
1/2-x,1/2-y,z
1/2+x,1/2-y,-z
1/2-x,1/2+y,-z
1/2-x,1/2-y,-z
1/2+x,1/2+y,-z
1/2-x,1/2+y,z
1/2+x,1/2-y,z
loop_
_atom_site_type_symbol
_atom_site_label
_atom_site_fract_x
_atom_site_fract_y
_atom_site_fract_z
Si Si1 0.148095 0.687383 0.377435
Si Si2 0.695825 0.687351 0.500000
Si Si3 0.554264 0.309468 0.316372
Si Si4 0.555677 0.308136 0.067484
Si Si5 0.603385 0.308512 0.809297
Si Si6 0.802123 0.188718 0.256525
O O1 0.149600 0.500000 0.379005
O O2 0.168229 0.754212 0.440184
O O3 0.094574 0.743390 0.361155
O O4 0.181030 0.748235 0.322080
O O5 0.697442 0.500000 0.500000
O O6 0.750000 0.750000 0.500000
O O7 0.500000 0.260603 0.329113
O O8 0.556394 0.500000 0.319008
O O9 0.569720 0.263014 0.247587
O O10 0.500000 0.266241 0.074748
O O11 0.557571 0.500000 0.067706
O O12 0.585132 0.251131 0.125600
O O13 0.571546 0.256565 0.000000
O O14 0.602363 0.500000 0.811018
O O15 0.656789 0.261103 0.790845
O O16 0.750000 0.250000 0.241252
O O17 0.801867 0.000000 0.259214
#
# Coordination Sequence:
#
# PCOD9486100 Si02
#       6
#    16   8  16  16  16  16
#     4  11  22  36  53  76 103 128 158 196 239 285
#     4  12  24  40  59  78 101 128 160 195 237 287
#     4   9  17  31  51  73  99 132 167 201 239 284
#     4   8  12  18  32  58  91 123 154 191 236 283
#     4   8  14  24  40  63  91 124 160 197 238 285
#     4  10  19  32  49  69  93 123 159 199 244 290
#
# _framework density 16.807355000000001
#
# number of rings (size 3 to 8) (size 9 to 14) (size 15 to 20)
#    0.000    2.545    0.000    5.727    0.000    2.545 
#    0.000    0.455    0.000    3.273    0.000    0.000 
#    0.000   17.455    0.000   58.364    0.000   53.455 
#
# Total GULP energy -245361.711369 kJ/mol
# GULP energy per Si atom -5576.402531 kJ/mol
# Density = 1.676910 g / cm^3
# Si number density = 16.807355 Si / 1000 Ang^3
#
#
#
# Elastic Constant Matrix: (Units=GPa)
#
#
# Indices 1 2 3 4 5 6 
#
# 1 145.5361 38.2154 92.8403 0.0000 0.0000 0.0000
# 2 38.2154 56.9257 33.1272 0.0000 0.0000 0.0000
# 3 92.8403 33.1272 163.7121 0.0000 0.0000 0.0000
# 4 0.0000 0.0000 0.0000 2.9285 0.0000 0.0000
# 5 0.0000 0.0000 0.0000 0.0000 19.4737 0.0000
# 6 0.0000 0.0000 0.0000 0.0000 0.0000 24.7381
#
#
#
# Elastic Compliance Matrix: (Units=1/GPa)
#
#
# Indices 1 2 3 4 5 6 
#
# 1 0.011714 -0.004532 -0.005726 0.000000 0.000000 0.000000
# 2 -0.004532 0.021665 -0.001814 0.000000 0.000000 0.000000
# 3 -0.005726 -0.001814 0.009722 0.000000 0.000000 0.000000
# 4 0.000000 0.000000 0.000000 0.341469 0.000000 0.000000
# 5 0.000000 0.000000 0.000000 0.000000 0.051351 0.000000
# 6 0.000000 0.000000 0.000000 0.000000 0.000000 0.040423
#
#
# Mechanical properties :
#
#
# Convention : Reuss Voigt Hill
#
# Bulk Modulus (GPa) = 52.74850 77.17108 64.95979
# Shear Modulus (GPa) = 9.86570 22.89414 16.37992
#
# Velocity S-wave (km/s) = 2.42541 3.69474 3.12519
# Velocity P-wave (km/s) = 6.26864 8.01350 7.19416
#
# Compressibility (1/GPa) = 0.01895788
#
# Stress axis : x y z
#
# Youngs Moduli (GPa) = 85.37049 46.15841 102.85517
#
# Poissons Ratio (x) = 0.20917 0.58893
# Poissons Ratio (y) = 0.38686 0.18658
# Poissons Ratio (z) = 0.48881 0.08373
#
# Static dielectric constant tensor:
#      x y z
#    x 1.559720 0.000000 0.000000 
#    y 0.000000 1.575370 0.000000 
#    z 0.000000 0.000000 1.559920 
# 
# From -- ./inp_files/65748.got.cif
#   From: 2010.05.17/outbox.cif.g08.bks.cpg/sg65_33_cif.got.tgz:65748.got - 2010.06.03 17:01:31.
