data_PCOD9486270
_publ_section_title
;
Structure prediction by ZEFSAII (Michael W. Deem and Ramdas Pophale) SiO2 
 PCOD9486270
Probable space group: C M M M
;
_chemical_formula_sum "Si O2"
_cell_formula_units_Z 96
_cell_length_a 20.706977
_cell_length_b 8.646045
_cell_length_c 30.608631
_cell_angle_alpha 90.000000
_cell_angle_beta 90.000000
_cell_angle_gamma 90.000000
_cell_volume 5479.968959
_symmetry_space_group_name_H-M "C M M M"
_symmetry_group_IT_number 65
_symmetry_cell_setting 'orthorhombic'
loop_
_space_group_symop_operation_xyz
x,y,z
-x,-y,z
x,-y,-z
-x,y,-z
-x,-y,-z
x,y,-z
-x,y,z
x,-y,z
1/2+x,1/2+y,z
1/2-x,1/2-y,z
1/2+x,1/2-y,-z
1/2-x,1/2+y,-z
1/2-x,1/2-y,-z
1/2+x,1/2+y,-z
1/2-x,1/2+y,z
1/2+x,1/2-y,z
loop_
_atom_site_type_symbol
_atom_site_label
_atom_site_fract_x
_atom_site_fract_y
_atom_site_fract_z
Si Si1 0.320274 0.315045 0.050290
Si Si2 0.679261 0.813605 0.620183
Si Si3 0.073764 0.313542 0.115810
Si Si4 0.679507 0.315754 0.716644
Si Si5 0.073600 0.311649 0.549765
Si Si6 0.425220 0.186453 0.782993
O O1 0.317944 0.500000 0.051394
O O2 0.250000 0.250000 0.062658
O O3 0.375027 0.255833 0.082694
O O4 0.333079 0.265889 0.000000
O O5 0.750000 0.750000 0.608376
O O6 0.664352 0.752746 0.668737
O O7 0.625718 0.761592 0.585296
O O8 0.681197 0.000000 0.621155
O O9 0.076333 0.500000 0.113417
O O10 0.087035 0.271160 0.166339
O O11 0.000000 0.266171 0.105606
O O12 0.683528 0.500000 0.713753
O O13 0.750000 0.250000 0.729308
O O14 0.625281 0.264574 0.750811
O O15 0.088917 0.263434 0.500000
O O16 0.073863 0.500000 0.549985
O O17 0.000000 0.263314 0.559854
O O18 0.500000 0.226146 0.772990
O O19 0.419469 0.000000 0.779488
#
# Coordination Sequence:
#
# PCOD9486270 Si02
#       6
#    16  16  16  16  16  16
#     4  10  21  36  54  77 106 140 177 217 259 304
#     4  10  19  32  51  74 101 133 167 207 255 303
#     4   9  19  36  57  80 106 137 172 211 256 307
#     4  11  22  36  54  76 104 137 174 215 258 306
#     4   8  15  29  49  73  99 128 166 208 247 294
#     4   9  19  37  58  79 105 136 171 211 256 308
#
# _framework density 17.518349000000001
#
# number of rings (size 3 to 8) (size 9 to 14) (size 15 to 20)
#    0.000    2.500    0.000    5.000    0.000    4.333 
#    0.000    5.000    0.000    3.000    0.000    4.667 
#    0.000    0.000    0.000    0.000    0.000    0.000 
#
# Total GULP energy -267810.151773 kJ/mol
# GULP energy per Si atom -5579.378162 kJ/mol
# Density = 1.747848 g / cm^3
# Si number density = 17.518349 Si / 1000 Ang^3
#
#
#
# Elastic Constant Matrix: (Units=GPa)
#
#
# Indices 1 2 3 4 5 6 
#
# 1 166.8147 52.4614 134.5289 0.0000 0.0000 0.0000
# 2 52.4614 55.4507 46.3023 0.0000 0.0000 0.0000
# 3 134.5289 46.3023 125.9396 0.0000 0.0000 0.0000
# 4 0.0000 0.0000 0.0000 22.1277 0.0000 0.0000
# 5 0.0000 0.0000 0.0000 0.0000 43.8488 0.0000
# 6 0.0000 0.0000 0.0000 0.0000 0.0000 32.3896
#
#
#
# Elastic Compliance Matrix: (Units=1/GPa)
#
#
# Indices 1 2 3 4 5 6 
#
# 1 0.043713 -0.003414 -0.045439 0.000000 0.000000 0.000000
# 2 -0.003414 0.026290 -0.006019 0.000000 0.000000 0.000000
# 3 -0.045439 -0.006019 0.058691 0.000000 0.000000 0.000000
# 4 0.000000 0.000000 0.000000 0.045192 0.000000 0.000000
# 5 0.000000 0.000000 0.000000 0.000000 0.022806 0.000000
# 6 0.000000 0.000000 0.000000 0.000000 0.000000 0.030874
#
#
# Mechanical properties :
#
#
# Convention : Reuss Voigt Hill
#
# Bulk Modulus (GPa) = 52.76955 90.53225 71.65090
# Shear Modulus (GPa) = 14.55066 27.33404 20.94235
#
# Velocity S-wave (km/s) = 2.88513 3.95436 3.46128
# Velocity P-wave (km/s) = 6.42546 8.52291 7.54740
#
# Compressibility (1/GPa) = 0.01895032
#
# Stress axis : x y z
#
# Youngs Moduli (GPa) = 22.87643 38.03764 17.03827
#
# Poissons Ratio (x) = 0.12986 0.77421
# Poissons Ratio (y) = 0.07810 0.10255
# Poissons Ratio (z) = 1.03949 0.22894
#
# Static dielectric constant tensor:
#      x y z
#    x 1.574630 0.000000 0.000000 
#    y 0.000000 1.595680 0.000000 
#    z 0.000000 0.000000 1.580780 
# 
# From -- ./inp_files/73190.got.cif
#   From: 2010.05.17/outbox.cif.g08.bks.cpg/sg65_37_cif.got.tgz:73190.got - 2010.06.03 17:01:31.
