data_PCOD9486594
_publ_section_title
;
Structure prediction by ZEFSAII (Michael W. Deem and Ramdas Pophale) SiO2 
 PCOD9486594
Probable space group: C M M M
;
_chemical_formula_sum "Si O2"
_cell_formula_units_Z 90
_cell_length_a 24.330941
_cell_length_b 23.672869
_cell_length_c 7.586524
_cell_angle_alpha 90.000000
_cell_angle_beta 90.000000
_cell_angle_gamma 90.000000
_cell_volume 4369.710211
_symmetry_space_group_name_H-M "C M M M"
_symmetry_group_IT_number 65
_symmetry_cell_setting 'orthorhombic'
loop_
_space_group_symop_operation_xyz
x,y,z
-x,-y,z
x,-y,-z
-x,y,-z
-x,-y,-z
x,y,-z
-x,y,z
x,-y,z
1/2+x,1/2+y,z
1/2-x,1/2-y,z
1/2+x,1/2-y,-z
1/2-x,1/2+y,-z
1/2-x,1/2-y,-z
1/2+x,1/2+y,-z
1/2-x,1/2+y,z
1/2+x,1/2-y,z
loop_
_atom_site_type_symbol
_atom_site_label
_atom_site_fract_x
_atom_site_fract_y
_atom_site_fract_z
Si Si1 0.869462 0.829823 0.213649
Si Si2 0.936381 0.281422 0.213393
Si Si3 0.642838 0.883553 0.292598
Si Si4 0.063577 0.938185 0.785097
Si Si5 0.092249 0.500000 0.807674
Si Si6 0.754199 0.687113 0.292587
Si Si7 0.000000 0.500000 0.500000
O O1 0.899137 0.771812 0.272687
O O2 0.903203 0.884132 0.275269
O O3 0.806974 0.835942 0.273617
O O4 0.869848 0.828680 0.000000
O O5 0.907257 0.339239 0.270839
O O6 0.000000 0.277124 0.271560
O O7 0.936783 0.280582 0.000000
O O8 0.650779 0.894270 0.500000
O O9 0.697190 0.851927 0.220194
O O10 0.628226 0.943174 0.208388
O O11 0.000000 0.933481 0.732866
O O12 0.084375 0.000000 0.729519
O O13 0.064518 0.937461 0.000000
O O14 0.047926 0.500000 0.653364
O O15 0.065833 0.500000 0.000000
O O16 0.767652 0.693711 0.500000
O O17 0.750000 0.750000 0.213656
#
# Coordination Sequence:
#
# PCOD9486594 Si02
#       7
#    16  16  16  16   8  16   2
#     4  10  19  32  54  84 116 148 198 258 308 370
#     4  10  21  34  53  85 121 155 195 253 326 394
#     4  11  23  43  64  87 124 164 215 268 323 386
#     4   8  14  27  49  77 112 152 188 231 295 364
#     4  12  27  47  73 102 135 177 221 274 332 396
#     4  10  21  39  61  82 113 160 205 250 307 374
#     4  12  26  52  76 106 136 172 226 272 332 410
#
# _framework density 20.596330999999999
#
# number of rings (size 3 to 8) (size 9 to 14) (size 15 to 20)
#    0.000    1.956    2.667    1.733    1.244    4.267 
#    1.600    0.000    0.000    1.600    0.000    1.244 
#    0.000    0.000    0.000    0.000    0.000    0.000 
#
# Total GULP energy -251071.290566 kJ/mol
# GULP energy per Si atom -5579.362013 kJ/mol
# Density = 2.054945 g / cm^3
# Si number density = 20.596331 Si / 1000 Ang^3
#
#
#
# Elastic Constant Matrix: (Units=GPa)
#
#
# Indices 1 2 3 4 5 6 
#
# 1 135.4459 71.8607 11.5267 0.0000 0.0000 0.0000
# 2 71.8607 161.6830 17.7680 0.0000 0.0000 0.0000
# 3 11.5267 17.7680 80.5149 0.0000 0.0000 0.0000
# 4 0.0000 0.0000 0.0000 -67.7931 0.0000 0.0000
# 5 0.0000 0.0000 0.0000 0.0000 7.6277 0.0000
# 6 0.0000 0.0000 0.0000 0.0000 0.0000 5.5379
#
#
#
# Elastic Compliance Matrix: (Units=1/GPa)
#
#
# Indices 1 2 3 4 5 6 
#
# 1 0.009677 -0.004252 -0.000447 0.000000 0.000000 0.000000
# 2 -0.004252 0.008207 -0.001202 0.000000 0.000000 0.000000
# 3 -0.000447 -0.001202 0.012749 0.000000 0.000000 0.000000
# 4 0.000000 0.000000 0.000000 -0.014751 0.000000 0.000000
# 5 0.000000 0.000000 0.000000 0.000000 0.131101 0.000000
# 6 0.000000 0.000000 0.000000 0.000000 0.000000 0.180574
#
#
# Mechanical properties :
#
#
# Convention : Reuss Voigt Hill
#
# Bulk Modulus (GPa) = 53.10512 64.43940 58.77226
# Shear Modulus (GPa) = 14.46606 7.50706 10.98656
#
# Velocity S-wave (km/s) = 2.65308 1.91122 2.31210
# Velocity P-wave (km/s) = 5.93506 6.01873 5.97704
#
# Compressibility (1/GPa) = 0.01883057
#
# Stress axis : x y z
#
# Youngs Moduli (GPa) = 103.33945 121.85017 78.43501
#
# Poissons Ratio (x) = 0.51808 0.03507
# Poissons Ratio (y) = 0.43938 0.09431
# Poissons Ratio (z) = 0.04620 0.14651
#
# Static dielectric constant tensor:
#      x y z
#    x 1.729660 0.000000 0.000000 
#    y 0.000000 1.727570 0.000000 
#    z 0.000000 0.000000 1.774870 
# 
# From -- ./inp_files/11859.got.cif
#   From: 2010.05.17/outbox.cif.g08.bks.cpg/sg65_6_cif.got.tgz:11859.got - 2010.06.03 17:01:31.
