data_PCOD9486445
_publ_section_title
;
Structure prediction by ZEFSAII (Michael W. Deem and Ramdas Pophale) SiO2 
 PCOD9486445
Probable space group: C M M M
;
_chemical_formula_sum "Si O2"
_cell_formula_units_Z 120
_cell_length_a 28.094993
_cell_length_b 25.933900
_cell_length_c 7.575636
_cell_angle_alpha 90.000000
_cell_angle_beta 90.000000
_cell_angle_gamma 90.000000
_cell_volume 5519.704895
_symmetry_space_group_name_H-M "C M M M"
_symmetry_group_IT_number 65
_symmetry_cell_setting 'orthorhombic'
loop_
_space_group_symop_operation_xyz
x,y,z
-x,-y,z
x,-y,-z
-x,y,-z
-x,-y,-z
x,y,-z
-x,y,z
x,-y,z
1/2+x,1/2+y,z
1/2-x,1/2-y,z
1/2+x,1/2-y,-z
1/2-x,1/2+y,-z
1/2-x,1/2-y,-z
1/2+x,1/2+y,-z
1/2-x,1/2+y,z
1/2+x,1/2-y,z
loop_
_atom_site_type_symbol
_atom_site_label
_atom_site_fract_x
_atom_site_fract_y
_atom_site_fract_z
Si Si1 0.389145 0.260797 0.288014
Si Si2 0.945147 0.557509 0.213436
Si Si3 0.410137 0.372765 0.788840
Si Si4 0.000000 0.940354 0.783812
Si Si5 0.730998 0.106607 0.287519
Si Si6 0.786206 0.794351 0.714410
Si Si7 0.871484 0.354399 0.293612
Si Si8 0.824749 0.056332 0.210894
O O1 0.390532 0.257486 0.500000
O O2 0.419750 0.312026 0.248085
O O3 0.337848 0.280060 0.222092
O O4 0.390773 0.201052 0.223104
O O5 0.929550 0.500000 0.269605
O O6 0.911889 0.602738 0.279065
O O7 0.000000 0.564356 0.268048
O O8 0.944147 0.558377 0.000000
O O9 0.453118 0.409065 0.726893
O O10 0.359867 0.397808 0.720939
O O11 0.408432 0.376278 0.000000
O O12 0.000000 0.000000 0.728135
O O13 0.000000 0.940490 0.000000
O O14 0.727580 0.106706 0.500000
O O15 0.763217 0.153704 0.221348
O O16 0.677544 0.119623 0.221233
O O17 0.767974 0.061181 0.245912
O O18 0.788444 0.796629 0.500000
O O19 0.750000 0.750000 0.762058
O O20 0.860940 0.344327 0.500000
O O21 0.841152 0.000000 0.275655
O O22 0.829770 0.056769 0.000000
#
# Coordination Sequence:
#
# PCOD9486445 Si02
#       8
#    16  16  16   8  16  16  16  16
#     4  10  19  33  54  79 110 146 179 214 268 329
#     4   9  20  41  65  84 105 140 184 225 269 323
#     4  10  20  35  56  80 104 136 182 233 278 324
#     4   9  18  36  61  81  99 135 188 237 280 327
#     4  10  19  32  52  77 105 140 182 220 257 313
#     4   9  14  26  50  73  97 137 180 211 243 297
#     4  10  21  35  56  87 116 144 181 223 266 317
#     4  10  21  35  50  73 107 143 180 226 279 329
#
# _framework density 21.740293999999999
#
# number of rings (size 3 to 8) (size 9 to 14) (size 15 to 20)
#    0.000    2.333    2.667    0.800    0.000    4.000 
#    1.200    3.667    0.000    4.000    0.000    0.000 
#    0.000    0.000    0.000    0.000    0.000    0.000 
#
# Total GULP energy -334159.935850 kJ/mol
# GULP energy per Si atom -5569.332264 kJ/mol
# Density = 2.169081 g / cm^3
# Si number density = 21.740294 Si / 1000 Ang^3
#
#
#
# Elastic Constant Matrix: (Units=GPa)
#
#
# Indices 1 2 3 4 5 6 
#
# 1 95.1506 78.6193 1.9703 0.0000 0.0000 0.0000
# 2 78.6193 170.7741 3.7945 0.0000 0.0000 0.0000
# 3 1.9703 3.7945 50.5183 0.0000 0.0000 0.0000
# 4 0.0000 0.0000 0.0000 20.3090 0.0000 0.0000
# 5 0.0000 0.0000 0.0000 0.0000 16.0803 0.0000
# 6 0.0000 0.0000 0.0000 0.0000 0.0000 35.2234
#
#
#
# Elastic Compliance Matrix: (Units=1/GPa)
#
#
# Indices 1 2 3 4 5 6 
#
# 1 0.016962 -0.007807 -0.000075 0.000000 0.000000 0.000000
# 2 -0.007807 0.009459 -0.000406 0.000000 0.000000 0.000000
# 3 -0.000075 -0.000406 0.019828 0.000000 0.000000 0.000000
# 4 0.000000 0.000000 0.000000 0.049239 0.000000 0.000000
# 5 0.000000 0.000000 0.000000 0.000000 0.062188 0.000000
# 6 0.000000 0.000000 0.000000 0.000000 0.000000 0.028390
#
#
# Mechanical properties :
#
#
# Convention : Reuss Voigt Hill
#
# Bulk Modulus (GPa) = 33.70116 53.91237 43.80677
# Shear Modulus (GPa) = 23.52571 29.79314 26.65942
#
# Velocity S-wave (km/s) = 3.29313 3.70592 3.50561
# Velocity P-wave (km/s) = 5.47677 6.56993 6.04810
#
# Compressibility (1/GPa) = 0.02967257
#
# Stress axis : x y z
#
# Youngs Moduli (GPa) = 58.95562 105.72096 50.43314
#
# Poissons Ratio (x) = 0.82537 0.00379
# Poissons Ratio (y) = 0.46027 0.02047
# Poissons Ratio (z) = 0.00443 0.04292
#
# Static dielectric constant tensor:
#      x y z
#    x 1.796610 0.000000 0.000000 
#    y 0.000000 1.828040 0.000000 
#    z 0.000000 0.000000 1.837070 
# 
# From -- ./inp_files/17069.got.cif
#   From: 2010.05.17/outbox.cif.g08.bks.cpg/sg65_9_cif.got.tgz:17069.got - 2010.06.03 17:01:31.
