data_PCOD9486484
_publ_section_title
;
Structure prediction by ZEFSAII (Michael W. Deem and Ramdas Pophale) SiO2 
 PCOD9486484
Probable space group: C M M M
;
_chemical_formula_sum "Si O2"
_cell_formula_units_Z 104
_cell_length_a 15.560959
_cell_length_b 23.589034
_cell_length_c 16.086412
_cell_angle_alpha 90.000000
_cell_angle_beta 90.000000
_cell_angle_gamma 90.000000
_cell_volume 5904.806934
_symmetry_space_group_name_H-M "C M M M"
_symmetry_group_IT_number 65
_symmetry_cell_setting 'orthorhombic'
loop_
_space_group_symop_operation_xyz
x,y,z
-x,-y,z
x,-y,-z
-x,y,-z
-x,-y,-z
x,y,-z
-x,y,z
x,-y,z
1/2+x,1/2+y,z
1/2-x,1/2-y,z
1/2+x,1/2-y,-z
1/2-x,1/2+y,-z
1/2-x,1/2-y,-z
1/2+x,1/2+y,-z
1/2-x,1/2+y,z
1/2+x,1/2-y,z
loop_
_atom_site_type_symbol
_atom_site_label
_atom_site_fract_x
_atom_site_fract_y
_atom_site_fract_z
Si Si1 0.601135 0.567421 0.665535
Si Si2 0.845495 0.130800 0.831703
Si Si3 0.597094 0.932613 0.260616
Si Si4 0.842237 0.373675 0.097436
Si Si5 0.500000 0.562096 0.903839
Si Si6 0.603213 0.256827 0.094267
Si Si7 0.220442 0.431831 0.590422
O O1 0.500000 0.579115 0.646331
O O2 0.605739 0.500000 0.686535
O O3 0.634555 0.606100 0.741090
O O4 0.676836 0.576974 0.598930
O O5 0.754796 0.116009 0.872273
O O6 0.918160 0.098956 0.883030
O O7 0.859313 0.197949 0.841683
O O8 0.500000 0.923715 0.292343
O O9 0.604605 0.904971 0.169465
O O10 0.666411 0.911240 0.329092
O O11 0.610991 0.000000 0.250333
O O12 0.862298 0.306657 0.103326
O O13 0.855786 0.389851 0.000000
O O14 0.500000 0.500000 0.861416
O O15 0.500000 0.553582 0.000000
O O16 0.500000 0.255778 0.100850
O O17 0.625710 0.276156 0.000000
O O18 0.191099 0.410138 0.500000
O O19 0.207715 0.500000 0.590492
#
# Coordination Sequence:
#
# PCOD9486484 Si02
#       7
#    16  16  16  16   8  16  16
#     4  10  19  32  52  79 112 146 179 218 271 337
#     4  12  20  33  52  73 105 145 186 230 275 321
#     4  10  21  37  56  79 109 143 181 227 277 329
#     4  11  23  36  53  77 107 146 190 231 276 327
#     4  11  22  32  46  72 105 145 188 226 273 328
#     4  10  20  35  53  73 101 138 186 239 281 319
#     4   9  18  34  56  81 109 140 176 222 277 335
#
# _framework density 17.612767999999999
#
# number of rings (size 3 to 8) (size 9 to 14) (size 15 to 20)
#    0.000    1.615    3.077    2.769    0.000    3.692 
#    0.000    3.846    0.000    0.000    0.000    2.154 
#    0.000    3.692    0.000    0.000    0.000    0.000 
#
# Total GULP energy -289678.829396 kJ/mol
# GULP energy per Si atom -5570.746719 kJ/mol
# Density = 1.757268 g / cm^3
# Si number density = 17.612768 Si / 1000 Ang^3
#
#
#
# Elastic Constant Matrix: (Units=GPa)
#
#
# Indices 1 2 3 4 5 6 
#
# 1 81.2974 19.6838 36.9357 0.0000 0.0000 0.0000
# 2 19.6838 36.9364 28.8087 0.0000 0.0000 0.0000
# 3 36.9357 28.8087 98.5439 0.0000 0.0000 0.0000
# 4 0.0000 0.0000 0.0000 13.9592 0.0000 0.0000
# 5 0.0000 0.0000 0.0000 0.0000 10.9922 0.0000
# 6 0.0000 0.0000 0.0000 0.0000 0.0000 32.8125
#
#
#
# Elastic Compliance Matrix: (Units=1/GPa)
#
#
# Indices 1 2 3 4 5 6 
#
# 1 0.015460 -0.004818 -0.004386 0.000000 0.000000 0.000000
# 2 -0.004818 0.036571 -0.008886 0.000000 0.000000 0.000000
# 3 -0.004386 -0.008886 0.014389 0.000000 0.000000 0.000000
# 4 0.000000 0.000000 0.000000 0.071637 0.000000 0.000000
# 5 0.000000 0.000000 0.000000 0.000000 0.090973 0.000000
# 6 0.000000 0.000000 0.000000 0.000000 0.000000 0.030476
#
#
# Mechanical properties :
#
#
# Convention : Reuss Voigt Hill
#
# Bulk Modulus (GPa) = 33.06706 43.07045 38.06876
# Shear Modulus (GPa) = 16.35234 20.30942 18.33088
#
# Velocity S-wave (km/s) = 3.05033 3.39943 3.22960
# Velocity P-wave (km/s) = 5.58760 6.31786 5.96392
#
# Compressibility (1/GPa) = 0.03024157
#
# Stress axis : x y z
#
# Youngs Moduli (GPa) = 64.68433 27.34379 69.49561
#
# Poissons Ratio (x) = 0.13173 0.30481
# Poissons Ratio (y) = 0.31163 0.61752
# Poissons Ratio (z) = 0.28371 0.24297
#
# Static dielectric constant tensor:
#      x y z
#    x 1.654930 0.000000 0.000000 
#    y 0.000000 1.590450 0.000000 
#    z 0.000000 0.000000 1.630420 
# 
# From -- ./inp_files/40854.got.cif
#   From: 2010.05.17/outbox.cif.g08.bks.cpg/sg65_21_cif.got.tgz:40854.got - 2010.06.03 17:01:31.
