data_PCOD9486361
_publ_section_title
;
Structure prediction by ZEFSAII (Michael W. Deem and Ramdas Pophale) SiO2 
 PCOD9486361
Probable space group: C M M M
;
_chemical_formula_sum "Si O2"
_cell_formula_units_Z 56
_cell_length_a 25.391634
_cell_length_b 9.608327
_cell_length_c 12.068761
_cell_angle_alpha 90.000000
_cell_angle_beta 90.000000
_cell_angle_gamma 90.000000
_cell_volume 2944.429169
_symmetry_space_group_name_H-M "C M M M"
_symmetry_group_IT_number 65
_symmetry_cell_setting 'orthorhombic'
loop_
_space_group_symop_operation_xyz
x,y,z
-x,-y,z
x,-y,-z
-x,y,-z
-x,-y,-z
x,y,-z
-x,y,z
x,-y,z
1/2+x,1/2+y,z
1/2-x,1/2-y,z
1/2+x,1/2-y,-z
1/2-x,1/2+y,-z
1/2-x,1/2-y,-z
1/2+x,1/2+y,-z
1/2-x,1/2+y,z
1/2+x,1/2-y,z
loop_
_atom_site_type_symbol
_atom_site_label
_atom_site_fract_x
_atom_site_fract_y
_atom_site_fract_z
Si Si1 0.000000 0.165002 0.629112
Si Si2 0.797111 0.335642 0.782413
Si Si3 0.582378 0.846585 0.247587
Si Si4 0.560717 0.245235 0.000000
Si Si5 0.324993 0.658571 0.000000
O O1 0.050056 0.229422 0.690665
O O2 0.000000 0.202758 0.500000
O O3 0.000000 0.000000 0.639279
O O4 0.784509 0.500000 0.798958
O O5 0.750000 0.250000 0.724515
O O6 0.855401 0.331749 0.730678
O O7 0.806494 0.248212 0.895242
O O8 0.569866 0.836445 0.115530
O O9 0.565720 0.000000 0.284911
O O10 0.500000 0.296894 0.000000
O O11 0.611163 0.346641 0.000000
O O12 0.305124 0.500000 0.000000
#
# Coordination Sequence:
#
# PCOD9486361 Si02
#       5
#     8  16  16   8   8
#     4  11  25  42  59  82 114 149 186 233 284 331
#     4  10  20  34  52  77 109 146 186 230 277 328
#     4  10  21  37  59  86 114 150 190 228 276 335
#     4  10  19  32  51  85 118 149 182 228 280 332
#     4  10  20  31  45  70 108 154 195 229 268 323
#
# _framework density 19.018967
#
# number of rings (size 3 to 8) (size 9 to 14) (size 15 to 20)
#    0.000    1.857    1.429    2.571    0.000   11.143 
#    0.000    0.000    0.000    0.857    0.000    0.000 
#    0.000    0.000    0.000    0.000    0.000    0.000 
#
# Total GULP energy -156054.723126 kJ/mol
# GULP energy per Si atom -5573.382969 kJ/mol
# Density = 1.897568 g / cm^3
# Si number density = 19.018967 Si / 1000 Ang^3
#
#
#
# Elastic Constant Matrix: (Units=GPa)
#
#
# Indices 1 2 3 4 5 6 
#
# 1 153.5576 46.8279 20.1951 0.0000 0.0000 0.0000
# 2 46.8279 129.4861 37.6085 0.0000 0.0000 0.0000
# 3 20.1951 37.6085 51.9064 0.0000 0.0000 0.0000
# 4 0.0000 0.0000 0.0000 -124.6370 0.0000 0.0000
# 5 0.0000 0.0000 0.0000 0.0000 -4.0941 0.0000
# 6 0.0000 0.0000 0.0000 0.0000 0.0000 30.7029
#
#
#
# Elastic Compliance Matrix: (Units=1/GPa)
#
#
# Indices 1 2 3 4 5 6 
#
# 1 0.007377 -0.002323 -0.001187 0.000000 0.000000 0.000000
# 2 -0.002323 0.010513 -0.006713 0.000000 0.000000 0.000000
# 3 -0.001187 -0.006713 0.024591 0.000000 0.000000 0.000000
# 4 0.000000 0.000000 0.000000 -0.008023 0.000000 0.000000
# 5 0.000000 0.000000 0.000000 0.000000 -0.244255 0.000000
# 6 0.000000 0.000000 0.000000 0.000000 0.000000 0.032570
#
#
# Mechanical properties :
#
#
# Convention : Reuss Voigt Hill
#
# Bulk Modulus (GPa) = 45.38332 60.46812 52.92572
# Shear Modulus (GPa) = -33.45896 -4.25105 -18.85501
#
# Velocity S-wave (km/s) = -4.19888 -1.49667 -3.15203
# Velocity P-wave (km/s) = 0.63754 5.37363 3.82638
#
# Compressibility (1/GPa) = 0.02203453
#
# Stress axis : x y z
#
# Youngs Moduli (GPa) = 135.56161 95.12286 40.66496
#
# Poissons Ratio (x) = 0.22097 0.04827
# Poissons Ratio (y) = 0.31491 0.27299
# Poissons Ratio (z) = 0.16090 0.63857
#
# Static dielectric constant tensor:
#      x y z
#    x 1.732010 0.000000 0.000000 
#    y 0.000000 1.635210 0.000000 
#    z 0.000000 0.000000 1.633580 
# 
# From -- ./inp_files/31787.got.cif
#   From: 2010.05.17/outbox.cif.g08.bks.cpg/sg65_16_cif.got.tgz:31787.got - 2010.06.03 17:01:31.
