data_PCOD9486737
_publ_section_title
;
Structure prediction by ZEFSAII (Michael W. Deem and Ramdas Pophale) SiO2 
 PCOD9486737
Probable space group: C M M M
;
_chemical_formula_sum "Si O2"
_cell_formula_units_Z 88
_cell_length_a 25.286986
_cell_length_b 20.751319
_cell_length_c 7.388218
_cell_angle_alpha 90.000000
_cell_angle_beta 90.000000
_cell_angle_gamma 90.000000
_cell_volume 3876.881050
_symmetry_space_group_name_H-M "C M M M"
_symmetry_group_IT_number 65
_symmetry_cell_setting 'orthorhombic'
loop_
_space_group_symop_operation_xyz
x,y,z
-x,-y,z
x,-y,-z
-x,y,-z
-x,-y,-z
x,y,-z
-x,y,z
x,-y,z
1/2+x,1/2+y,z
1/2-x,1/2-y,z
1/2+x,1/2-y,-z
1/2-x,1/2+y,-z
1/2-x,1/2-y,-z
1/2+x,1/2+y,-z
1/2-x,1/2+y,z
1/2+x,1/2-y,z
loop_
_atom_site_type_symbol
_atom_site_label
_atom_site_fract_x
_atom_site_fract_y
_atom_site_fract_z
Si Si1 0.797970 0.930676 0.717958
Si Si2 0.604769 0.844980 0.295857
Si Si3 0.438818 0.710244 0.792394
Si Si4 0.579700 0.569833 0.792370
Si Si5 0.722120 0.816917 0.278345
Si Si6 0.000000 0.576701 0.720771
O O1 0.803213 0.927246 0.500000
O O2 0.856921 0.928771 0.792535
O O3 0.762553 0.872241 0.776287
O O4 0.774004 0.000000 0.763968
O O5 0.611493 0.870668 0.500000
O O6 0.588759 0.769719 0.301713
O O7 0.663725 0.838911 0.214087
O O8 0.554306 0.885729 0.219744
O O9 0.500000 0.727286 0.798883
O O10 0.435400 0.638609 0.711216
O O11 0.418328 0.706896 0.000000
O O12 0.564106 0.500000 0.713554
O O13 0.560370 0.570409 0.000000
O O14 0.718556 0.813837 0.500000
O O15 0.750000 0.750000 0.221985
O O16 0.000000 0.500000 0.768529
O O17 0.000000 0.580630 0.500000
#
# Coordination Sequence:
#
# PCOD9486737 Si02
#       6
#    16  16  16  16  16   8
#     4   9  17  30  48  70  96 126 160 197 240 288
#     4  10  19  33  53  74  99 131 166 206 251 299
#     4  10  20  33  50  71  97 128 162 204 249 293
#     4   9  18  32  49  70  97 130 165 200 242 291
#     4   9  17  28  45  71  99 126 158 196 239 290
#     4   9  18  32  51  77 102 125 162 210 255 297
#
# _framework density 22.69866
#
# number of rings (size 3 to 8) (size 9 to 14) (size 15 to 20)
#    0.000    2.636    0.909    1.091    0.000    3.273 
#    0.000    6.364    0.000    4.364    0.000    3.818 
#    0.000    0.000    0.000    0.000    0.000    0.000 
#
# Total GULP energy -245245.098984 kJ/mol
# GULP energy per Si atom -5573.752250 kJ/mol
# Density = 2.264700 g / cm^3
# Si number density = 22.698660 Si / 1000 Ang^3
#
#
#
# Elastic Constant Matrix: (Units=GPa)
#
#
# Indices 1 2 3 4 5 6 
#
# 1 156.6193 71.4778 6.3134 0.0000 0.0000 0.0000
# 2 71.4778 142.3960 7.5780 0.0000 0.0000 0.0000
# 3 6.3134 7.5780 75.6876 0.0000 0.0000 0.0000
# 4 0.0000 0.0000 0.0000 -1.0436 0.0000 0.0000
# 5 0.0000 0.0000 0.0000 0.0000 -6.5029 0.0000
# 6 0.0000 0.0000 0.0000 0.0000 0.0000 40.1962
#
#
#
# Elastic Compliance Matrix: (Units=1/GPa)
#
#
# Indices 1 2 3 4 5 6 
#
# 1 0.008288 -0.004146 -0.000276 0.000000 0.000000 0.000000
# 2 -0.004146 0.009134 -0.000569 0.000000 0.000000 0.000000
# 3 -0.000276 -0.000569 0.013292 0.000000 0.000000 0.000000
# 4 0.000000 0.000000 0.000000 -0.958179 0.000000 0.000000
# 5 0.000000 0.000000 0.000000 0.000000 -0.153778 0.000000
# 6 0.000000 0.000000 0.000000 0.000000 0.000000 0.024878
#
#
# Mechanical properties :
#
#
# Convention : Reuss Voigt Hill
#
# Bulk Modulus (GPa) = 48.23242 60.60458 54.41850
# Shear Modulus (GPa) = -4.81013 25.81885 10.50436
#
# Velocity S-wave (km/s) = -1.45730 3.37629 2.15355
# Velocity P-wave (km/s) = 4.29692 6.47740 5.49637
#
# Compressibility (1/GPa) = 0.02073294
#
# Stress axis : x y z
#
# Youngs Moduli (GPa) = 120.65634 109.48261 75.23220
#
# Poissons Ratio (x) = 0.45387 0.02078
# Poissons Ratio (y) = 0.50019 0.04278
# Poissons Ratio (z) = 0.03333 0.06226
#
# Static dielectric constant tensor:
#      x y z
#    x 1.830650 0.000000 0.000000 
#    y 0.000000 1.855170 0.000000 
#    z 0.000000 0.000000 1.878710 
# 
# From -- ./inp_files/14001.got.cif
#   From: 2010.05.17/outbox.cif.g08.bks.cpg/sg65_8_cif.got.tgz:14001.got - 2010.06.03 17:01:31.
