data_PCOD9486483
_publ_section_title
;
Structure prediction by ZEFSAII (Michael W. Deem and Ramdas Pophale) SiO2 
 PCOD9486483
Probable space group: C M M M
;
_chemical_formula_sum "Si O2"
_cell_formula_units_Z 120
_cell_length_a 19.462279
_cell_length_b 15.239198
_cell_length_c 21.066015
_cell_angle_alpha 90.000000
_cell_angle_beta 90.000000
_cell_angle_gamma 90.000000
_cell_volume 6247.959345
_symmetry_space_group_name_H-M "C M M M"
_symmetry_group_IT_number 65
_symmetry_cell_setting 'orthorhombic'
loop_
_space_group_symop_operation_xyz
x,y,z
-x,-y,z
x,-y,-z
-x,y,-z
-x,-y,-z
x,y,-z
-x,y,z
x,-y,z
1/2+x,1/2+y,z
1/2-x,1/2-y,z
1/2+x,1/2-y,-z
1/2-x,1/2+y,-z
1/2-x,1/2-y,-z
1/2+x,1/2+y,-z
1/2-x,1/2+y,z
1/2+x,1/2-y,z
loop_
_atom_site_type_symbol
_atom_site_label
_atom_site_fract_x
_atom_site_fract_y
_atom_site_fract_z
Si Si1 0.212607 0.655550 0.930385
Si Si2 0.191027 0.172844 0.694953
Si Si3 0.827505 0.100264 0.835237
Si Si4 0.000000 0.598967 0.425331
Si Si5 0.871339 0.322305 0.362356
Si Si6 0.420010 0.097006 0.244193
Si Si7 0.918168 0.268172 0.129856
Si Si8 0.750865 0.899978 0.428704
O O1 0.250000 0.750000 0.932673
O O2 0.255990 0.608755 0.874834
O O3 0.132858 0.677462 0.916417
O O4 0.220209 0.613801 0.000000
O O5 0.250000 0.250000 0.700681
O O6 0.185894 0.125057 0.761724
O O7 0.125802 0.230160 0.673449
O O8 0.203269 0.111431 0.634030
O O9 0.882333 0.172842 0.860633
O O10 0.851889 0.000000 0.840721
O O11 0.935676 0.652205 0.402367
O O12 0.000000 0.500000 0.398778
O O13 0.000000 0.591796 0.500000
O O14 0.869601 0.390710 0.303681
O O15 0.809031 0.332076 0.411179
O O16 0.500000 0.101824 0.266103
O O17 0.411349 0.174994 0.194405
O O18 0.410133 0.000000 0.215708
O O19 0.000000 0.263418 0.114041
O O20 0.778741 0.884158 0.500000
O O21 0.723527 0.000000 0.428989
#
# Coordination Sequence:
#
# PCOD9486483 Si02
#       8
#    16  16  16   8  16  16  16  16
#     4   9  20  39  62  88 121 160 201 245 297 356
#     4  10  21  36  55  78 109 146 199 251 299 350
#     4  11  22  38  61  90 126 165 209 255 303 362
#     4  11  22  34  50  78 115 153 192 235 297 375
#     4  11  20  32  52  75 108 143 184 233 289 358
#     4  10  19  32  52  79 111 147 185 232 291 354
#     4  10  21  38  61  90 127 159 201 251 302 365
#     4  10  21  35  51  74 104 141 188 242 301 360
#
# _framework density 19.206271999999998
#
# number of rings (size 3 to 8) (size 9 to 14) (size 15 to 20)
#    0.000    1.800    2.000    3.200    1.867    5.333 
#    0.000    0.000    0.000    0.000    0.000    6.533 
#    0.000    2.133    0.000    0.000    0.000    0.000 
#
# Total GULP energy -334115.153324 kJ/mol
# GULP energy per Si atom -5568.585889 kJ/mol
# Density = 1.916256 g / cm^3
# Si number density = 19.206272 Si / 1000 Ang^3
#
#
#
# Elastic Constant Matrix: (Units=GPa)
#
#
# Indices 1 2 3 4 5 6 
#
# 1 82.2208 21.4058 35.3244 0.0000 0.0000 0.0000
# 2 21.4058 89.0005 31.4296 0.0000 0.0000 0.0000
# 3 35.3244 31.4296 120.0613 0.0000 0.0000 0.0000
# 4 0.0000 0.0000 0.0000 -1.9914 0.0000 0.0000
# 5 0.0000 0.0000 0.0000 0.0000 20.6977 0.0000
# 6 0.0000 0.0000 0.0000 0.0000 0.0000 20.3994
#
#
#
# Elastic Compliance Matrix: (Units=1/GPa)
#
#
# Indices 1 2 3 4 5 6 
#
# 1 0.014286 -0.002150 -0.003640 0.000000 0.000000 0.000000
# 2 -0.002150 0.012704 -0.002693 0.000000 0.000000 0.000000
# 3 -0.003640 -0.002693 0.010105 0.000000 0.000000 0.000000
# 4 0.000000 0.000000 0.000000 -0.502150 0.000000 0.000000
# 5 0.000000 0.000000 0.000000 0.000000 0.048315 0.000000
# 6 0.000000 0.000000 0.000000 0.000000 0.000000 0.049021
#
#
# Mechanical properties :
#
#
# Convention : Reuss Voigt Hill
#
# Bulk Modulus (GPa) = 49.68233 51.95580 50.81906
# Shear Modulus (GPa) = -14.53312 21.36264 3.41476
#
# Velocity S-wave (km/s) = -2.75378 3.33870 1.33484
# Velocity P-wave (km/s) = 3.97654 6.47864 5.37520
#
# Compressibility (1/GPa) = 0.02012788
#
# Stress axis : x y z
#
# Youngs Moduli (GPa) = 69.99745 78.71470 98.95988
#
# Poissons Ratio (x) = 0.16927 0.36025
# Poissons Ratio (y) = 0.15053 0.26650
# Poissons Ratio (z) = 0.25481 0.21198
#
# Static dielectric constant tensor:
#      x y z
#    x 1.691160 0.000000 0.000000 
#    y 0.000000 1.695320 0.000000 
#    z 0.000000 0.000000 1.704000 
# 
# From -- ./inp_files/64785.got.cif
#   From: 2010.05.17/outbox.cif.g08.bks.cpg/sg65_33_cif.got.tgz:64785.got - 2010.06.03 17:01:31.
