data_PCOD9486849
_publ_section_title
;
Structure prediction by ZEFSAII (Michael W. Deem and Ramdas Pophale) SiO2 
 PCOD9486849
Probable space group: C M M M
;
_chemical_formula_sum "Si O2"
_cell_formula_units_Z 64
_cell_length_a 16.185734
_cell_length_b 7.344632
_cell_length_c 23.471599
_cell_angle_alpha 90.000000
_cell_angle_beta 90.000000
_cell_angle_gamma 90.000000
_cell_volume 2790.262846
_symmetry_space_group_name_H-M "C M M M"
_symmetry_group_IT_number 65
_symmetry_cell_setting 'orthorhombic'
loop_
_space_group_symop_operation_xyz
x,y,z
-x,-y,z
x,-y,-z
-x,y,-z
-x,-y,-z
x,y,-z
-x,y,z
x,-y,z
1/2+x,1/2+y,z
1/2-x,1/2-y,z
1/2+x,1/2-y,-z
1/2-x,1/2+y,-z
1/2-x,1/2-y,-z
1/2+x,1/2+y,-z
1/2-x,1/2+y,z
1/2+x,1/2-y,z
loop_
_atom_site_type_symbol
_atom_site_label
_atom_site_fract_x
_atom_site_fract_y
_atom_site_fract_z
Si Si1 0.158259 0.783144 0.136977
Si Si2 0.150734 0.782397 0.500000
Si Si3 0.905381 0.779242 0.745217
Si Si4 0.651757 0.282616 0.377046
Si Si5 0.500000 0.277126 0.065625
O O1 0.250000 0.750000 0.114482
O O2 0.149518 0.713828 0.202017
O O3 0.082633 0.716486 0.098483
O O4 0.147616 0.000000 0.140159
O O5 0.250000 0.750000 0.500000
O O6 0.120458 0.712787 0.438569
O O7 0.137535 0.000000 0.500000
O O8 0.884357 0.711142 0.682092
O O9 0.000000 0.737432 0.759364
O O10 0.897877 0.000000 0.742491
O O11 0.637307 0.500000 0.377723
O O12 0.750000 0.250000 0.375082
O O13 0.500000 0.500000 0.066133
O O14 0.500000 0.220757 0.000000
#
# Coordination Sequence:
#
# PCOD9486849 Si02
#       5
#    16   8  16  16   8
#     4  10  19  33  54  77 101 131 168 205 243 289
#     4   8  14  24  37  57  83 111 143 184 232 279
#     4   9  16  28  46  67  91 122 158 195 236 285
#     4   9  16  26  42  62  85 113 149 190 233 281
#     4   9  18  34  55  77 103 136 170 200 235 291
#
# _framework density 22.936907999999999
#
# number of rings (size 3 to 8) (size 9 to 14) (size 15 to 20)
#    0.000    2.875    1.250    0.750    0.000    0.500 
#    0.000    1.250    0.000    6.750    0.000    0.000 
#    0.000   10.000    0.000    0.000    0.000    0.000 
#
# Total GULP energy -178572.440991 kJ/mol
# GULP energy per Si atom -5580.388781 kJ/mol
# Density = 2.288470 g / cm^3
# Si number density = 22.936908 Si / 1000 Ang^3
#
#
#
# Elastic Constant Matrix: (Units=GPa)
#
#
# Indices 1 2 3 4 5 6 
#
# 1 118.4296 -5.6429 82.2811 0.0000 0.0000 0.0000
# 2 -5.6429 90.9459 12.1310 0.0000 0.0000 0.0000
# 3 82.2811 12.1310 193.1411 0.0000 0.0000 0.0000
# 4 0.0000 0.0000 0.0000 -29.0124 0.0000 0.0000
# 5 0.0000 0.0000 0.0000 0.0000 27.2371 0.0000
# 6 0.0000 0.0000 0.0000 0.0000 0.0000 9.5562
#
#
#
# Elastic Compliance Matrix: (Units=1/GPa)
#
#
# Indices 1 2 3 4 5 6 
#
# 1 0.012183 0.001460 -0.005282 0.000000 0.000000 0.000000
# 2 0.001460 0.011264 -0.001330 0.000000 0.000000 0.000000
# 3 -0.005282 -0.001330 0.007511 0.000000 0.000000 0.000000
# 4 0.000000 0.000000 0.000000 -0.034468 0.000000 0.000000
# 5 0.000000 0.000000 0.000000 0.000000 0.036715 0.000000
# 6 0.000000 0.000000 0.000000 0.000000 0.000000 0.104644
#
#
# Mechanical properties :
#
#
# Convention : Reuss Voigt Hill
#
# Bulk Modulus (GPa) = 48.41275 64.45055 56.43165
# Shear Modulus (GPa) = 32.25065 22.47268 27.36167
#
# Velocity S-wave (km/s) = 3.75381 3.13351 3.45760
# Velocity P-wave (km/s) = 6.31988 6.42276 6.37153
#
# Compressibility (1/GPa) = 0.02065572
#
# Stress axis : x y z
#
# Youngs Moduli (GPa) = 82.08061 88.78218 133.13342
#
# Poissons Ratio (x) = -0.12966 0.70320
# Poissons Ratio (y) = -0.11988 0.17702
# Poissons Ratio (z) = 0.43354 0.11805
#
# Static dielectric constant tensor:
#      x y z
#    x 1.811590 0.000000 0.000000 
#    y 0.000000 1.859960 0.000000 
#    z 0.000000 0.000000 1.876630 
# 
# From -- ./inp_files/68717.got.cif
#   From: 2010.05.17/outbox.cif.g08.bks.cpg/sg65_35_cif.got.tgz:68717.got - 2010.06.03 17:01:31.
