data_PCOD9486706
_publ_section_title
;
Structure prediction by ZEFSAII (Michael W. Deem and Ramdas Pophale) SiO2 
 PCOD9486706
Probable space group: C M M M
;
_chemical_formula_sum "Si O2"
_cell_formula_units_Z 96
_cell_length_a 29.886202
_cell_length_b 8.014601
_cell_length_c 21.342548
_cell_angle_alpha 90.000000
_cell_angle_beta 90.000000
_cell_angle_gamma 90.000000
_cell_volume 5112.094820
_symmetry_space_group_name_H-M "C M M M"
_symmetry_group_IT_number 65
_symmetry_cell_setting 'orthorhombic'
loop_
_space_group_symop_operation_xyz
x,y,z
-x,-y,z
x,-y,-z
-x,y,-z
-x,-y,-z
x,y,-z
-x,y,z
x,-y,z
1/2+x,1/2+y,z
1/2-x,1/2-y,z
1/2+x,1/2-y,-z
1/2-x,1/2+y,-z
1/2-x,1/2-y,-z
1/2+x,1/2+y,-z
1/2-x,1/2+y,z
1/2+x,1/2-y,z
loop_
_atom_site_type_symbol
_atom_site_label
_atom_site_fract_x
_atom_site_fract_y
_atom_site_fract_z
Si Si1 0.893146 0.301784 0.689140
Si Si2 0.701145 0.301148 0.264318
Si Si3 0.551587 0.796337 0.429314
Si Si4 0.050680 0.799519 0.810617
Si Si5 0.393694 0.704306 0.930624
Si Si6 0.298791 0.299288 0.120020
O O1 0.898025 0.500000 0.688677
O O2 0.841085 0.260158 0.696724
O O3 0.916007 0.236063 0.625606
O O4 0.919580 0.238213 0.750028
O O5 0.698881 0.500000 0.261650
O O6 0.750000 0.250000 0.288237
O O7 0.697590 0.237635 0.192185
O O8 0.563213 0.742149 0.500000
O O9 0.500000 0.748512 0.416498
O O10 0.552611 0.000000 0.429608
O O11 0.075158 0.738062 0.873616
O O12 0.000000 0.735304 0.804174
O O13 0.048435 0.000000 0.815814
O O14 0.394110 0.500000 0.929657
O O15 0.342512 0.757074 0.917257
O O16 0.407981 0.756873 0.000000
O O17 0.300165 0.500000 0.121518
O O18 0.250000 0.250000 0.095269
#
# Coordination Sequence:
#
# PCOD9486706 Si02
#       6
#    16  16  16  16  16  16
#     4  11  20  31  53  81 106 134 169 208 254 304
#     4  10  19  33  52  76 106 135 168 209 255 302
#     4   8  15  29  49  75 107 139 171 208 249 296
#     4  10  20  34  51  72  99 132 171 216 262 303
#     4   9  17  31  49  69  95 128 167 211 257 304
#     4   9  17  30  48  69  95 124 157 200 250 300
#
# _framework density 18.778993
#
# number of rings (size 3 to 8) (size 9 to 14) (size 15 to 20)
#    0.000    2.500    1.667    2.000    0.000    2.333 
#    0.000    1.667    0.000    4.000    0.000    7.000 
#    0.000    0.000    0.000    0.000    0.000    0.000 
#
# Total GULP energy -267781.903917 kJ/mol
# GULP energy per Si atom -5578.789665 kJ/mol
# Density = 1.873625 g / cm^3
# Si number density = 18.778993 Si / 1000 Ang^3
#
#
#
# Elastic Constant Matrix: (Units=GPa)
#
#
# Indices 1 2 3 4 5 6 
#
# 1 141.3665 2.9979 86.1239 0.0000 0.0000 0.0000
# 2 2.9979 12.1015 6.0666 0.0000 0.0000 0.0000
# 3 86.1239 6.0666 136.2964 0.0000 0.0000 0.0000
# 4 0.0000 0.0000 0.0000 9.4583 0.0000 0.0000
# 5 0.0000 0.0000 0.0000 0.0000 28.1989 0.0000
# 6 0.0000 0.0000 0.0000 0.0000 0.0000 21.9594
#
#
#
# Elastic Compliance Matrix: (Units=1/GPa)
#
#
# Indices 1 2 3 4 5 6 
#
# 1 0.011509 0.000813 -0.007309 0.000000 0.000000 0.000000
# 2 0.000813 0.084578 -0.004278 0.000000 0.000000 0.000000
# 3 -0.007309 -0.004278 0.012146 0.000000 0.000000 0.000000
# 4 0.000000 0.000000 0.000000 0.105727 0.000000 0.000000
# 5 0.000000 0.000000 0.000000 0.000000 0.035462 0.000000
# 6 0.000000 0.000000 0.000000 0.000000 0.000000 0.045539
#
#
# Mechanical properties :
#
#
# Convention : Reuss Voigt Hill
#
# Bulk Modulus (GPa) = 11.53609 53.34901 32.44255
# Shear Modulus (GPa) = 14.47582 24.89506 19.68544
#
# Velocity S-wave (km/s) = 2.77943 3.64495 3.24121
# Velocity P-wave (km/s) = 4.05669 6.79594 5.59649
#
# Compressibility (1/GPa) = 0.08668448
#
# Stress axis : x y z
#
# Youngs Moduli (GPa) = 86.88693 11.82344 82.33401
#
# Poissons Ratio (x) = -0.00961 0.60175
# Poissons Ratio (y) = -0.07062 0.35224
# Poissons Ratio (z) = 0.63503 0.05058
#
# Static dielectric constant tensor:
#      x y z
#    x 1.636520 0.000000 0.000000 
#    y 0.000000 1.683220 0.000000 
#    z 0.000000 0.000000 1.649230 
# 
# From -- ./inp_files/60191.got.cif
#   From: 2010.05.17/outbox.cif.g08.bks.cpg/sg65_31_cif.got.tgz:60191.got - 2010.06.03 17:01:31.
