data_PCOD9486526
_publ_section_title
;
Structure prediction by ZEFSAII (Michael W. Deem and Ramdas Pophale) SiO2 
 PCOD9486526
Probable space group: C M M M
;
_chemical_formula_sum "Si O2"
_cell_formula_units_Z 80
_cell_length_a 18.791403
_cell_length_b 8.362580
_cell_length_c 27.057734
_cell_angle_alpha 90.000000
_cell_angle_beta 90.000000
_cell_angle_gamma 90.000000
_cell_volume 4251.977081
_symmetry_space_group_name_H-M "C M M M"
_symmetry_group_IT_number 65
_symmetry_cell_setting 'orthorhombic'
loop_
_space_group_symop_operation_xyz
x,y,z
-x,-y,z
x,-y,-z
-x,y,-z
-x,-y,-z
x,y,-z
-x,y,z
x,-y,z
1/2+x,1/2+y,z
1/2-x,1/2-y,z
1/2+x,1/2-y,-z
1/2-x,1/2+y,-z
1/2-x,1/2-y,-z
1/2+x,1/2+y,-z
1/2-x,1/2+y,z
1/2+x,1/2-y,z
loop_
_atom_site_type_symbol
_atom_site_label
_atom_site_fract_x
_atom_site_fract_y
_atom_site_fract_z
Si Si1 0.668010 0.806832 0.053050
Si Si2 0.831732 0.692207 0.838705
Si Si3 0.169540 0.308596 0.650102
Si Si4 0.917715 0.694889 0.444510
Si Si5 0.418488 0.691375 0.744382
O O1 0.750000 0.750000 0.052797
O O2 0.640176 0.755145 0.106818
O O3 0.666698 0.000000 0.053014
O O4 0.636423 0.753047 0.000000
O O5 0.831546 0.500000 0.837078
O O6 0.750000 0.750000 0.833615
O O7 0.878787 0.756218 0.794174
O O8 0.169687 0.500000 0.648830
O O9 0.250000 0.250000 0.654262
O O10 0.132578 0.248745 0.599534
O O11 0.123971 0.254639 0.697083
O O12 0.897072 0.746314 0.500000
O O13 0.916522 0.500000 0.444358
O O14 0.000000 0.741777 0.435884
O O15 0.500000 0.749506 0.743793
O O16 0.418777 0.500000 0.742286
#
# Coordination Sequence:
#
# PCOD9486526 Si02
#       5
#    16  16  16  16  16
#     4   8  14  25  43  70 102 133 165 203 248 297
#     4  10  19  32  53  79 107 137 171 212 256 306
#     4  11  22  36  56  81 109 140 175 215 259 308
#     4   8  15  30  53  80 108 139 176 215 254 299
#     4  11  24  40  56  74 100 134 173 219 267 314
#
# _framework density 18.814775999999998
#
# number of rings (size 3 to 8) (size 9 to 14) (size 15 to 20)
#    0.000    2.400    0.000    3.600    0.000    3.600 
#    0.000    0.000    0.000    2.400    0.000   11.200 
#    0.000    0.000    0.000    0.000    0.000    0.000 
#
# Total GULP energy -223050.009930 kJ/mol
# GULP energy per Si atom -5576.250248 kJ/mol
# Density = 1.877195 g / cm^3
# Si number density = 18.814776 Si / 1000 Ang^3
#
#
#
# Elastic Constant Matrix: (Units=GPa)
#
#
# Indices 1 2 3 4 5 6 
#
# 1 117.3547 21.3181 110.5190 0.0000 0.0000 0.0000
# 2 21.3181 30.3851 29.0424 0.0000 0.0000 0.0000
# 3 110.5190 29.0424 223.2427 0.0000 0.0000 0.0000
# 4 0.0000 0.0000 0.0000 -12.2147 0.0000 0.0000
# 5 0.0000 0.0000 0.0000 0.0000 -50.4112 0.0000
# 6 0.0000 0.0000 0.0000 0.0000 0.0000 10.0496
#
#
#
# Elastic Compliance Matrix: (Units=1/GPa)
#
#
# Indices 1 2 3 4 5 6 
#
# 1 0.016439 -0.004288 -0.007581 0.000000 0.000000 0.000000
# 2 -0.004288 0.038703 -0.002912 0.000000 0.000000 0.000000
# 3 -0.007581 -0.002912 0.008611 0.000000 0.000000 0.000000
# 4 0.000000 0.000000 0.000000 -0.081868 0.000000 0.000000
# 5 0.000000 0.000000 0.000000 0.000000 -0.019837 0.000000
# 6 0.000000 0.000000 0.000000 0.000000 0.000000 0.099507
#
#
# Mechanical properties :
#
#
# Convention : Reuss Voigt Hill
#
# Bulk Modulus (GPa) = 29.24697 76.97129 53.10913
# Shear Modulus (GPa) = 48.77430 3.49158 26.13294
#
# Velocity S-wave (km/s) = 5.09703 1.36374 3.73092
# Velocity P-wave (km/s) = 7.08647 6.59383 6.84458
#
# Compressibility (1/GPa) = 0.03419158
#
# Stress axis : x y z
#
# Youngs Moduli (GPa) = 60.83053 25.83792 116.12900
#
# Poissons Ratio (x) = 0.11079 0.88032
# Poissons Ratio (y) = 0.26085 0.33818
# Poissons Ratio (z) = 0.46113 0.07524
#
# Static dielectric constant tensor:
#      x y z
#    x 1.628500 0.000000 0.000000 
#    y 0.000000 1.671670 0.000000 
#    z 0.000000 0.000000 1.689650 
# 
# From -- ./inp_files/72789.got.cif
#   From: 2010.05.17/outbox.cif.g08.bks.cpg/sg65_37_cif.got.tgz:72789.got - 2010.06.03 17:01:31.
