data_PCOD9486585
_publ_section_title
;
Structure prediction by ZEFSAII (Michael W. Deem and Ramdas Pophale) SiO2 
 PCOD9486585
Probable space group: C M M M
;
_chemical_formula_sum "Si O2"
_cell_formula_units_Z 104
_cell_length_a 27.389529
_cell_length_b 24.557336
_cell_length_c 8.644554
_cell_angle_alpha 90.000000
_cell_angle_beta 90.000000
_cell_angle_gamma 90.000000
_cell_volume 5814.446890
_symmetry_space_group_name_H-M "C M M M"
_symmetry_group_IT_number 65
_symmetry_cell_setting 'orthorhombic'
loop_
_space_group_symop_operation_xyz
x,y,z
-x,-y,z
x,-y,-z
-x,y,-z
-x,-y,-z
x,y,-z
-x,y,z
x,-y,z
1/2+x,1/2+y,z
1/2-x,1/2-y,z
1/2+x,1/2-y,-z
1/2-x,1/2+y,-z
1/2-x,1/2-y,-z
1/2+x,1/2+y,-z
1/2-x,1/2+y,z
1/2+x,1/2-y,z
loop_
_atom_site_type_symbol
_atom_site_label
_atom_site_fract_x
_atom_site_fract_y
_atom_site_fract_z
Si Si1 0.124801 0.562590 0.187462
Si Si2 0.000000 0.933848 0.821548
Si Si3 0.397194 0.563316 0.684533
Si Si4 0.322224 0.351328 0.186980
Si Si5 0.788919 0.360913 0.187615
Si Si6 0.637104 0.234650 0.813049
Si Si7 0.443430 0.157477 0.314459
O O1 0.119039 0.500000 0.236679
O O2 0.177294 0.588088 0.234989
O O3 0.083778 0.603648 0.250398
O O4 0.122766 0.564236 0.000000
O O5 0.049799 0.916265 0.740261
O O6 0.000000 0.000000 0.815043
O O7 0.000000 0.917180 0.000000
O O8 0.394999 0.565943 0.500000
O O9 0.392479 0.500000 0.731700
O O10 0.355068 0.599047 0.758212
O O11 0.266522 0.357917 0.243457
O O12 0.347325 0.294781 0.237705
O O13 0.320937 0.350030 0.000000
O O14 0.819476 0.307138 0.229855
O O15 0.786860 0.362181 0.000000
O O16 0.587836 0.209009 0.744954
O O17 0.633055 0.234126 0.000000
O O18 0.441632 0.156266 0.500000
O O19 0.500000 0.159433 0.265445
#
# Coordination Sequence:
#
# PCOD9486585 Si02
#       7
#    16   8  16  16  16  16  16
#     4   9  18  33  54  80 107 138 177 217 261 314
#     4   9  17  33  57  77  93 121 165 211 250 293
#     4  10  21  36  52  73 105 141 171 204 254 311
#     4  10  19  32  54  82 105 132 173 218 259 305
#     4   8  15  30  53  78 105 134 168 214 264 307
#     4   9  18  34  55  78 102 132 172 218 265 312
#     4  10  21  36  53  74 103 140 178 217 264 316
#
# _framework density 17.886482000000001
#
# number of rings (size 3 to 8) (size 9 to 14) (size 15 to 20)
#    0.000    2.692    0.000    2.538    0.000    6.769 
#    1.385    6.154    0.000    4.615    0.000    0.000 
#    0.000    0.000    0.000    0.000    0.000    0.000 
#
# Total GULP energy -289939.920587 kJ/mol
# GULP energy per Si atom -5575.767704 kJ/mol
# Density = 1.784577 g / cm^3
# Si number density = 17.886482 Si / 1000 Ang^3
#
#
#
# Elastic Constant Matrix: (Units=GPa)
#
#
# Indices 1 2 3 4 5 6 
#
# 1 184.1841 96.2331 29.8895 0.0000 0.0000 0.0000
# 2 96.2331 81.7165 21.9750 0.0000 0.0000 0.0000
# 3 29.8895 21.9750 14.6270 0.0000 0.0000 0.0000
# 4 0.0000 0.0000 0.0000 15.2976 0.0000 0.0000
# 5 0.0000 0.0000 0.0000 0.0000 387.8342 0.0000
# 6 0.0000 0.0000 0.0000 0.0000 0.0000 7.3711
#
#
#
# Elastic Compliance Matrix: (Units=1/GPa)
#
#
# Indices 1 2 3 4 5 6 
#
# 1 0.014491 -0.015272 -0.006667 0.000000 0.000000 0.000000
# 2 -0.015272 0.036629 -0.023822 0.000000 0.000000 0.000000
# 3 -0.006667 -0.023822 0.117778 0.000000 0.000000 0.000000
# 4 0.000000 0.000000 0.000000 0.065370 0.000000 0.000000
# 5 0.000000 0.000000 0.000000 0.000000 0.002578 0.000000
# 6 0.000000 0.000000 0.000000 0.000000 0.000000 0.135664
#
#
# Mechanical properties :
#
#
# Convention : Reuss Voigt Hill
#
# Bulk Modulus (GPa) = 12.92380 64.08030 38.50205
# Shear Modulus (GPa) = 10.20778 90.92926 50.56852
#
# Velocity S-wave (km/s) = 2.39152 7.13773 5.32290
# Velocity P-wave (km/s) = 3.85577 10.18987 7.70391
#
# Compressibility (1/GPa) = 0.07737662
#
# Stress axis : x y z
#
# Youngs Moduli (GPa) = 69.01030 27.30114 8.49054
#
# Poissons Ratio (x) = 0.41694 0.05660
# Poissons Ratio (y) = 1.05393 0.20226
# Poissons Ratio (z) = 0.46007 0.65036
#
# Static dielectric constant tensor:
#      x y z
#    x 1.599360 0.000000 0.000000 
#    y 0.000000 1.601270 0.000000 
#    z 0.000000 0.000000 1.606960 
# 
# From -- ./inp_files/14760.got.cif
#   From: 2010.05.17/outbox.cif.g08.bks.cpg/sg65_8_cif.got.tgz:14760.got - 2010.06.03 17:01:31.
