data_PCOD9486382
_publ_section_title
;
Structure prediction by ZEFSAII (Michael W. Deem and Ramdas Pophale) SiO2 
 PCOD9486382
Probable space group: C M M M
;
_chemical_formula_sum "Si O2"
_cell_formula_units_Z 88
_cell_length_a 7.349668
_cell_length_b 15.774377
_cell_length_c 33.917393
_cell_angle_alpha 90.000000
_cell_angle_beta 90.000000
_cell_angle_gamma 90.000000
_cell_volume 3932.261590
_symmetry_space_group_name_H-M "C M M M"
_symmetry_group_IT_number 65
_symmetry_cell_setting 'orthorhombic'
loop_
_space_group_symop_operation_xyz
x,y,z
-x,-y,z
x,-y,-z
-x,y,-z
-x,-y,-z
x,y,-z
-x,y,z
x,-y,z
1/2+x,1/2+y,z
1/2-x,1/2-y,z
1/2+x,1/2-y,-z
1/2-x,1/2+y,-z
1/2-x,1/2-y,-z
1/2+x,1/2+y,-z
1/2-x,1/2+y,z
1/2+x,1/2-y,z
loop_
_atom_site_type_symbol
_atom_site_label
_atom_site_fract_x
_atom_site_fract_y
_atom_site_fract_z
Si Si1 0.212907 0.101593 0.042188
Si Si2 0.717735 0.350846 0.213340
Si Si3 0.277473 0.500000 0.270338
Si Si4 0.216536 0.154618 0.414807
Si Si5 0.783750 0.849733 0.127215
Si Si6 0.277226 0.500000 0.360864
Si Si7 0.778770 0.900575 0.500000
O O1 0.292452 0.124106 0.084713
O O2 0.000000 0.128246 0.042718
O O3 0.216964 0.000000 0.040695
O O4 0.289098 0.132931 0.000000
O O5 0.500000 0.358878 0.211716
O O6 0.750000 0.250000 0.219741
O O7 0.781346 0.415460 0.246865
O O8 0.785695 0.379752 0.169862
O O9 0.500000 0.500000 0.270521
O O10 0.218546 0.500000 0.315624
O O11 0.250000 0.250000 0.401368
O O12 0.286635 0.141142 0.459400
O O13 0.000000 0.142451 0.417098
O O14 0.283251 0.082777 0.385052
O O15 0.750000 0.750000 0.129215
O O16 0.000000 0.869837 0.126137
O O17 0.500000 0.500000 0.360481
O O18 0.000000 0.895774 0.500000
O O19 0.731874 0.000000 0.500000
#
# Coordination Sequence:
#
# PCOD9486382 Si02
#       7
#    16  16   8  16  16   8   8
#     4   8  14  24  39  61  86 110 141 181 217 252
#     4   9  18  32  50  72  97 122 154 197 239 282
#     4   9  18  32  52  75  95 124 165 201 237 284
#     4  10  19  32  52  75 100 132 167 203 243 286
#     4   9  17  28  44  65  88 113 143 179 222 268
#     4   9  18  33  51  72  98 129 166 201 237 290
#     4   9  15  28  51  74  97 130 171 205 234 282
#
# _framework density 22.378979000000001
#
# number of rings (size 3 to 8) (size 9 to 14) (size 15 to 20)
#    0.000    3.000    0.909    0.818    1.273    1.091 
#    0.000    0.909    0.000    2.182    0.000    1.273 
#    0.000    0.000    0.000    0.000    0.000    0.000 
#
# Total GULP energy -245372.310698 kJ/mol
# GULP energy per Si atom -5576.643425 kJ/mol
# Density = 2.232804 g / cm^3
# Si number density = 22.378979 Si / 1000 Ang^3
#
#
#
# Elastic Constant Matrix: (Units=GPa)
#
#
# Indices 1 2 3 4 5 6 
#
# 1 86.4050 -3.5367 14.7892 0.0000 0.0000 0.0000
# 2 -3.5367 123.9178 110.3718 0.0000 0.0000 0.0000
# 3 14.7892 110.3718 260.0170 0.0000 0.0000 0.0000
# 4 0.0000 0.0000 0.0000 16.7765 0.0000 0.0000
# 5 0.0000 0.0000 0.0000 0.0000 -22.9254 0.0000
# 6 0.0000 0.0000 0.0000 0.0000 0.0000 5.3866
#
#
#
# Elastic Compliance Matrix: (Units=1/GPa)
#
#
# Indices 1 2 3 4 5 6 
#
# 1 0.011860 0.001510 -0.001316 0.000000 0.000000 0.000000
# 2 0.001510 0.013168 -0.005675 0.000000 0.000000 0.000000
# 3 -0.001316 -0.005675 0.006330 0.000000 0.000000 0.000000
# 4 0.000000 0.000000 0.000000 0.059607 0.000000 0.000000
# 5 0.000000 0.000000 0.000000 0.000000 -0.043620 0.000000
# 6 0.000000 0.000000 0.000000 0.000000 0.000000 0.185645
#
#
# Mechanical properties :
#
#
# Convention : Reuss Voigt Hill
#
# Bulk Modulus (GPa) = 49.02741 79.28757 64.15749
# Shear Modulus (GPa) = 19.94012 23.09526 21.51769
#
# Velocity S-wave (km/s) = 2.98823 3.21597 3.10419
# Velocity P-wave (km/s) = 5.81906 7.02114 6.44817
#
# Compressibility (1/GPa) = 0.02039675
#
# Stress axis : x y z
#
# Youngs Moduli (GPa) = 84.31395 75.94151 157.98156
#
# Poissons Ratio (x) = -0.11470 0.20786
# Poissons Ratio (y) = -0.12735 0.89662
# Poissons Ratio (z) = 0.11093 0.43100
#
# Static dielectric constant tensor:
#      x y z
#    x 1.878950 0.000000 0.000000 
#    y 0.000000 1.779520 0.000000 
#    z 0.000000 0.000000 1.860440 
# 
# From -- ./inp_files/74295.got.cif
#   From: 2010.05.17/outbox.cif.g08.bks.cpg/sg65_38_cif.got.tgz:74295.got - 2010.06.03 17:01:31.
