data_PCOD9486914
_publ_section_title
;
Structure prediction by ZEFSAII (Michael W. Deem and Ramdas Pophale) SiO2 
 PCOD9486914
Probable space group: C M M M
;
_chemical_formula_sum "Si O2"
_cell_formula_units_Z 104
_cell_length_a 8.734467
_cell_length_b 19.575795
_cell_length_c 34.322812
_cell_angle_alpha 90.000000
_cell_angle_beta 90.000000
_cell_angle_gamma 90.000000
_cell_volume 5868.656335
_symmetry_space_group_name_H-M "C M M M"
_symmetry_group_IT_number 65
_symmetry_cell_setting 'orthorhombic'
loop_
_space_group_symop_operation_xyz
x,y,z
-x,-y,z
x,-y,-z
-x,y,-z
-x,-y,-z
x,y,-z
-x,y,z
x,-y,z
1/2+x,1/2+y,z
1/2-x,1/2-y,z
1/2+x,1/2-y,-z
1/2-x,1/2+y,-z
1/2-x,1/2-y,-z
1/2+x,1/2+y,-z
1/2-x,1/2+y,z
1/2+x,1/2-y,z
loop_
_atom_site_type_symbol
_atom_site_label
_atom_site_fract_x
_atom_site_fract_y
_atom_site_fract_z
Si Si1 0.683242 0.080689 0.544666
Si Si2 0.316927 0.919838 0.846233
Si Si3 0.182125 0.825426 0.611207
Si Si4 0.682811 0.174093 0.694228
Si Si5 0.317426 0.419306 0.238194
Si Si6 0.815611 0.173021 0.914519
Si Si7 0.183920 0.173630 0.000000
O O1 0.723745 0.098779 0.500000
O O2 0.500000 0.090575 0.548972
O O3 0.770033 0.125237 0.576287
O O4 0.713768 0.000000 0.549804
O O5 0.500000 0.912637 0.844431
O O6 0.245502 0.900510 0.804500
O O7 0.250181 0.873766 0.880527
O O8 0.280652 0.000000 0.852947
O O9 0.250000 0.750000 0.603954
O O10 0.253025 0.849500 0.652309
O O11 0.000000 0.820955 0.614940
O O12 0.500000 0.177477 0.692807
O O13 0.750000 0.250000 0.700638
O O14 0.738456 0.124840 0.728432
O O15 0.500000 0.409340 0.239417
O O16 0.285458 0.500000 0.243900
O O17 0.750000 0.250000 0.911336
O O18 0.771617 0.144516 0.957732
O O19 0.000000 0.175725 0.912017
O O20 0.250000 0.250000 0.000000
O O21 0.000000 0.177076 0.000000
#
# Coordination Sequence:
#
# PCOD9486914 Si02
#       7
#    16  16  16  16  16  16   8
#     4   9  19  37  59  82 110 144 182 225 272 320
#     4  10  21  37  55  77 107 141 177 218 265 315
#     4  11  22  37  57  81 111 145 182 223 268 319
#     4  11  22  38  59  82 111 143 178 221 268 317
#     4  10  21  38  59  82 108 139 177 219 264 316
#     4  10  19  33  54  79 106 137 176 219 265 315
#     4   8  16  30  49  74 103 135 171 215 263 312
#
# _framework density 17.721263
#
# number of rings (size 3 to 8) (size 9 to 14) (size 15 to 20)
#    0.000    2.000    0.000    5.538    0.000    4.615 
#    0.000    4.231    0.000    2.308    0.000    0.000 
#    0.000    0.000    0.000    0.000    0.000    0.000 
#
# Total GULP energy -290284.893538 kJ/mol
# GULP energy per Si atom -5582.401799 kJ/mol
# Density = 1.768093 g / cm^3
# Si number density = 17.721263 Si / 1000 Ang^3
#
#
#
# Elastic Constant Matrix: (Units=GPa)
#
#
# Indices 1 2 3 4 5 6 
#
# 1 109.8199 54.7088 90.8853 0.0000 0.0000 0.0000
# 2 54.7088 59.5733 92.0528 0.0000 0.0000 0.0000
# 3 90.8853 92.0528 193.9556 0.0000 0.0000 0.0000
# 4 0.0000 0.0000 0.0000 48.9883 0.0000 0.0000
# 5 0.0000 0.0000 0.0000 0.0000 27.1450 0.0000
# 6 0.0000 0.0000 0.0000 0.0000 0.0000 27.7354
#
#
#
# Elastic Compliance Matrix: (Units=1/GPa)
#
#
# Indices 1 2 3 4 5 6 
#
# 1 0.017007 -0.012392 -0.002088 0.000000 0.000000 0.000000
# 2 -0.012392 0.071984 -0.028358 0.000000 0.000000 0.000000
# 3 -0.002088 -0.028358 0.019593 0.000000 0.000000 0.000000
# 4 0.000000 0.000000 0.000000 0.020413 0.000000 0.000000
# 5 0.000000 0.000000 0.000000 0.000000 0.036839 0.000000
# 6 0.000000 0.000000 0.000000 0.000000 0.000000 0.036055
#
#
# Mechanical properties :
#
#
# Convention : Reuss Voigt Hill
#
# Bulk Modulus (GPa) = 43.65051 93.18254 68.41653
# Shear Modulus (GPa) = 16.93748 29.15386 23.04567
#
# Velocity S-wave (km/s) = 3.09491 4.06043 3.61009
# Velocity P-wave (km/s) = 6.12017 8.64171 7.48785
#
# Compressibility (1/GPa) = 0.02290924
#
# Stress axis : x y z
#
# Youngs Moduli (GPa) = 58.79886 13.89191 51.03880
#
# Poissons Ratio (x) = 0.17215 0.10657
# Poissons Ratio (y) = 0.72864 1.44734
# Poissons Ratio (z) = 0.12277 0.39394
#
# Static dielectric constant tensor:
#      x y z
#    x 1.590000 0.000000 0.000000 
#    y 0.000000 1.574410 0.000000 
#    z 0.000000 0.000000 1.601780 
# 
# From -- ./inp_files/73341.got.cif
#   From: 2010.05.17/outbox.cif.g08.bks.cpg/sg65_37_cif.got.tgz:73341.got - 2010.06.03 17:01:31.
