data_PCOD9486883
_publ_section_title
;
Structure prediction by ZEFSAII (Michael W. Deem and Ramdas Pophale) SiO2 
 PCOD9486883
Probable space group: C M M M
;
_chemical_formula_sum "Si O2"
_cell_formula_units_Z 88
_cell_length_a 19.404419
_cell_length_b 8.251951
_cell_length_c 29.529915
_cell_angle_alpha 90.000000
_cell_angle_beta 90.000000
_cell_angle_gamma 90.000000
_cell_volume 4728.457405
_symmetry_space_group_name_H-M "C M M M"
_symmetry_group_IT_number 65
_symmetry_cell_setting 'orthorhombic'
loop_
_space_group_symop_operation_xyz
x,y,z
-x,-y,z
x,-y,-z
-x,y,-z
-x,-y,-z
x,y,-z
-x,y,z
x,-y,z
1/2+x,1/2+y,z
1/2-x,1/2-y,z
1/2+x,1/2-y,-z
1/2-x,1/2+y,-z
1/2-x,1/2-y,-z
1/2+x,1/2+y,-z
1/2-x,1/2+y,z
1/2+x,1/2-y,z
loop_
_atom_site_type_symbol
_atom_site_label
_atom_site_fract_x
_atom_site_fract_y
_atom_site_fract_z
Si Si1 0.078739 0.306612 0.818177
Si Si2 0.670368 0.695497 0.000000
Si Si3 0.579149 0.695156 0.280917
Si Si4 0.920812 0.197591 0.551274
Si Si5 0.328713 0.303811 0.635018
Si Si6 0.829240 0.194145 0.098612
O O1 0.077400 0.500000 0.816296
O O2 0.102937 0.243919 0.769223
O O3 0.125962 0.254521 0.859676
O O4 0.000000 0.246516 0.824476
O O5 0.750000 0.750000 0.000000
O O6 0.643034 0.750858 0.049025
O O7 0.667266 0.500000 0.000000
O O8 0.500000 0.753477 0.286839
O O9 0.577347 0.500000 0.283110
O O10 0.628869 0.752901 0.320869
O O11 0.903589 0.249430 0.500000
O O12 0.868534 0.252861 0.589846
O O13 0.000000 0.245282 0.561147
O O14 0.920053 0.000000 0.551413
O O15 0.330405 0.500000 0.634977
O O16 0.250000 0.250000 0.635941
O O17 0.750000 0.250000 0.102886
O O18 0.829926 0.000000 0.098818
#
# Coordination Sequence:
#
# PCOD9486883 Si02
#       6
#    16   8  16  16  16  16
#     4  10  21  36  53  75 103 133 167 208 254 303
#     4   8  16  30  49  74 101 131 167 205 245 292
#     4   9  18  34  54  71  90 124 169 210 246 289
#     4   8  14  27  49  74  97 125 165 207 240 277
#     4  10  20  32  48  73 102 129 159 199 247 296
#     4  10  19  33  54  78 104 134 169 208 250 297
#
# _framework density 18.610720000000001
#
# number of rings (size 3 to 8) (size 9 to 14) (size 15 to 20)
#    0.000    2.727    0.000    2.182    0.000    5.818 
#    0.000    2.273    0.000    4.364    0.000    1.273 
#    0.000    0.000    0.000    0.000    0.000    0.000 
#
# Total GULP energy -245301.995939 kJ/mol
# GULP energy per Si atom -5575.045362 kJ/mol
# Density = 1.856836 g / cm^3
# Si number density = 18.610720 Si / 1000 Ang^3
#
#
#
# Elastic Constant Matrix: (Units=GPa)
#
#
# Indices 1 2 3 4 5 6 
#
# 1 98.1080 10.4120 117.4670 0.0000 0.0000 0.0000
# 2 10.4120 12.0815 18.1173 0.0000 0.0000 0.0000
# 3 117.4670 18.1173 217.8575 0.0000 0.0000 0.0000
# 4 0.0000 0.0000 0.0000 9.9032 0.0000 0.0000
# 5 0.0000 0.0000 0.0000 0.0000 38.2156 0.0000
# 6 0.0000 0.0000 0.0000 0.0000 0.0000 24.6113
#
#
#
# Elastic Compliance Matrix: (Units=1/GPa)
#
#
# Indices 1 2 3 4 5 6 
#
# 1 0.028792 -0.001752 -0.015379 0.000000 0.000000 0.000000
# 2 -0.001752 0.094671 -0.006929 0.000000 0.000000 0.000000
# 3 -0.015379 -0.006929 0.013459 0.000000 0.000000 0.000000
# 4 0.000000 0.000000 0.000000 0.100977 0.000000 0.000000
# 5 0.000000 0.000000 0.000000 0.000000 0.026167 0.000000
# 6 0.000000 0.000000 0.000000 0.000000 0.000000 0.040632
#
#
# Mechanical properties :
#
#
# Convention : Reuss Voigt Hill
#
# Bulk Modulus (GPa) = 11.26079 68.89331 40.07705
# Shear Modulus (GPa) = 13.07472 26.68272 19.87872
#
# Velocity S-wave (km/s) = 2.65342 3.79057 3.27178
# Velocity P-wave (km/s) = 3.93082 7.50042 5.98781
#
# Compressibility (1/GPa) = 0.08880371
#
# Stress axis : x y z
#
# Youngs Moduli (GPa) = 34.73159 10.56290 74.30244
#
# Poissons Ratio (x) = 0.01850 1.14269
# Poissons Ratio (y) = 0.06084 0.51481
# Poissons Ratio (z) = 0.53413 0.07319
#
# Static dielectric constant tensor:
#      x y z
#    x 1.611620 0.000000 0.000000 
#    y 0.000000 1.654190 0.000000 
#    z 0.000000 0.000000 1.660090 
# 
# From -- ./inp_files/77878.got.cif
#   From: 2010.05.17/outbox.cif.g08.bks.cpg/sg65_39_cif.got.tgz:77878.got - 2010.06.03 17:01:31.
