data_PCOD9486338
_publ_section_title
;
Structure prediction by ZEFSAII (Michael W. Deem and Ramdas Pophale) SiO2 
 PCOD9486338
Probable space group: C M M M
;
_chemical_formula_sum "Si O2"
_cell_formula_units_Z 88
_cell_length_a 19.421118
_cell_length_b 20.035523
_cell_length_c 13.470030
_cell_angle_alpha 90.000000
_cell_angle_beta 90.000000
_cell_angle_gamma 90.000000
_cell_volume 5241.353767
_symmetry_space_group_name_H-M "C M M M"
_symmetry_group_IT_number 65
_symmetry_cell_setting 'orthorhombic'
loop_
_space_group_symop_operation_xyz
x,y,z
-x,-y,z
x,-y,-z
-x,y,-z
-x,-y,-z
x,y,-z
-x,y,z
x,-y,z
1/2+x,1/2+y,z
1/2-x,1/2-y,z
1/2+x,1/2-y,-z
1/2-x,1/2+y,-z
1/2-x,1/2-y,-z
1/2+x,1/2+y,-z
1/2-x,1/2+y,z
1/2+x,1/2-y,z
loop_
_atom_site_type_symbol
_atom_site_label
_atom_site_fract_x
_atom_site_fract_y
_atom_site_fract_z
Si Si1 0.788117 0.075891 0.237618
Si Si2 0.296176 0.183396 0.118423
Si Si3 0.919862 0.749017 0.784043
Si Si4 0.577711 0.606351 0.117605
Si Si5 0.500000 0.425320 0.618843
Si Si6 0.365691 0.336934 0.382267
O O1 0.737426 0.119333 0.169930
O O2 0.860139 0.073731 0.176845
O O3 0.803703 0.120407 0.335336
O O4 0.766816 0.000000 0.258860
O O5 0.250000 0.250000 0.141153
O O6 0.372168 0.196005 0.161088
O O7 0.296581 0.176162 0.000000
O O8 0.918682 0.815370 0.853294
O O9 0.881839 0.771168 0.682028
O O10 0.000000 0.731613 0.767792
O O11 0.500000 0.583797 0.143107
O O12 0.586965 0.597927 0.000000
O O13 0.500000 0.500000 0.659517
O O14 0.500000 0.431571 0.500000
O O15 0.567288 0.382645 0.640768
O O16 0.359874 0.326467 0.500000
#
# Coordination Sequence:
#
# PCOD9486338 Si02
#       6
#    16  16  16  16   8  16
#     4  11  23  35  50  74 106 143 181 221 267 319
#     4  11  21  36  56  77 104 139 180 223 273 334
#     4  10  19  33  54  78 103 134 176 224 272 321
#     4   9  17  29  46  70 100 133 168 205 251 313
#     4   9  16  26  42  66  99 143 182 207 241 295
#     4  10  19  32  51  76 108 145 180 215 257 313
#
# _framework density 16.789555
#
# number of rings (size 3 to 8) (size 9 to 14) (size 15 to 20)
#    0.000    1.909    4.545    1.636    1.273    4.000 
#    0.000    2.727    0.000    0.545    0.000    1.273 
#    0.000    0.000    0.000    3.273    0.000    0.000 
#
# Total GULP energy -245460.020872 kJ/mol
# GULP energy per Si atom -5578.636838 kJ/mol
# Density = 1.675134 g / cm^3
# Si number density = 16.789555 Si / 1000 Ang^3
#
#
#
# Elastic Constant Matrix: (Units=GPa)
#
#
# Indices 1 2 3 4 5 6 
#
# 1 62.9395 39.6647 32.0977 0.0000 0.0000 0.0000
# 2 39.6647 41.3024 15.1441 0.0000 0.0000 0.0000
# 3 32.0977 15.1441 90.2433 0.0000 0.0000 0.0000
# 4 0.0000 0.0000 0.0000 11.6016 0.0000 0.0000
# 5 0.0000 0.0000 0.0000 0.0000 23.4172 0.0000
# 6 0.0000 0.0000 0.0000 0.0000 0.0000 9.8312
#
#
#
# Elastic Compliance Matrix: (Units=1/GPa)
#
#
# Indices 1 2 3 4 5 6 
#
# 1 0.047150 -0.041697 -0.009773 0.000000 0.000000 0.000000
# 2 -0.041697 0.062674 0.004313 0.000000 0.000000 0.000000
# 3 -0.009773 0.004313 0.013833 0.000000 0.000000 0.000000
# 4 0.000000 0.000000 0.000000 0.086195 0.000000 0.000000
# 5 0.000000 0.000000 0.000000 0.000000 0.042704 0.000000
# 6 0.000000 0.000000 0.000000 0.000000 0.000000 0.101717
#
#
# Mechanical properties :
#
#
# Convention : Reuss Voigt Hill
#
# Bulk Modulus (GPa) = 34.07886 40.92204 37.50045
# Shear Modulus (GPa) = 10.90828 16.14191 13.52510
#
# Velocity S-wave (km/s) = 2.55170 3.10405 2.84133
# Velocity P-wave (km/s) = 5.38733 6.10518 5.75745
#
# Compressibility (1/GPa) = 0.02934370
#
# Stress axis : x y z
#
# Youngs Moduli (GPa) = 21.20899 15.95563 72.28905
#
# Poissons Ratio (x) = 0.66530 0.70647
# Poissons Ratio (y) = 0.88435 -0.31180
# Poissons Ratio (z) = 0.20727 -0.06882
#
# Static dielectric constant tensor:
#      x y z
#    x 1.591360 0.000000 0.000000 
#    y 0.000000 1.569430 0.000000 
#    z 0.000000 0.000000 1.591560 
# 
# From -- ./inp_files/42718.got.cif
#   From: 2010.05.17/outbox.cif.g08.bks.cpg/sg65_22_cif.got.tgz:42718.got - 2010.06.03 17:01:31.
