data_PCOD9486915
_publ_section_title
;
Structure prediction by ZEFSAII (Michael W. Deem and Ramdas Pophale) SiO2 
 PCOD9486915
Probable space group: C M M M
;
_chemical_formula_sum "Si O2"
_cell_formula_units_Z 72
_cell_length_a 24.457147
_cell_length_b 18.372675
_cell_length_c 7.658741
_cell_angle_alpha 90.000000
_cell_angle_beta 90.000000
_cell_angle_gamma 90.000000
_cell_volume 3441.403290
_symmetry_space_group_name_H-M "C M M M"
_symmetry_group_IT_number 65
_symmetry_cell_setting 'orthorhombic'
loop_
_space_group_symop_operation_xyz
x,y,z
-x,-y,z
x,-y,-z
-x,y,-z
-x,-y,-z
x,y,-z
-x,y,z
x,-y,z
1/2+x,1/2+y,z
1/2-x,1/2-y,z
1/2+x,1/2-y,-z
1/2-x,1/2+y,-z
1/2-x,1/2-y,-z
1/2+x,1/2+y,-z
1/2-x,1/2+y,z
1/2+x,1/2-y,z
loop_
_atom_site_type_symbol
_atom_site_label
_atom_site_fract_x
_atom_site_fract_y
_atom_site_fract_z
Si Si1 0.757121 0.584188 0.789331
Si Si2 0.561777 0.713796 0.709262
Si Si3 0.129398 0.642289 0.789547
Si Si4 0.633953 0.417693 0.292056
Si Si5 0.562927 0.000000 0.213581
O O1 0.765172 0.500000 0.732211
O O2 0.808165 0.632186 0.727783
O O3 0.696542 0.607104 0.734867
O O4 0.757800 0.583940 0.000000
O O5 0.558164 0.706188 0.500000
O O6 0.500000 0.723274 0.776861
O O7 0.599199 0.783773 0.742359
O O8 0.591755 0.641535 0.778735
O O9 0.094480 0.572466 0.729251
O O10 0.130787 0.638936 0.000000
O O11 0.625355 0.422337 0.500000
O O12 0.628748 0.500000 0.220538
O O13 0.500000 0.000000 0.269468
O O14 0.563343 0.000000 0.000000
#
# Coordination Sequence:
#
# PCOD9486915 Si02
#       5
#    16  16  16  16   8
#     4   9  17  32  54  80 109 136 169 214 259 304
#     4  10  22  38  53  74 106 138 172 219 267 309
#     4  10  19  33  54  79 106 139 176 212 253 304
#     4   9  19  36  57  78 100 133 176 217 262 316
#     4   9  16  28  49  75 101 135 178 213 240 286
#
# _framework density 20.921697999999999
#
# number of rings (size 3 to 8) (size 9 to 14) (size 15 to 20)
#    0.000    2.556    1.111    0.667    0.000    4.444 
#    0.000    7.222    0.000    2.000    0.000    4.667 
#    0.000    0.000    0.000    0.000    0.000    0.000 
#
# Total GULP energy -200962.097278 kJ/mol
# GULP energy per Si atom -5582.280480 kJ/mol
# Density = 2.087408 g / cm^3
# Si number density = 20.921698 Si / 1000 Ang^3
#
#
#
# Elastic Constant Matrix: (Units=GPa)
#
#
# Indices 1 2 3 4 5 6 
#
# 1 90.6873 76.3364 0.7121 0.0000 0.0000 0.0000
# 2 76.3364 123.3040 2.1018 0.0000 0.0000 0.0000
# 3 0.7121 2.1018 37.0812 0.0000 0.0000 0.0000
# 4 0.0000 0.0000 0.0000 26.3560 0.0000 0.0000
# 5 0.0000 0.0000 0.0000 0.0000 22.6678 0.0000
# 6 0.0000 0.0000 0.0000 0.0000 0.0000 27.8678
#
#
#
# Elastic Compliance Matrix: (Units=1/GPa)
#
#
# Indices 1 2 3 4 5 6 
#
# 1 0.023032 -0.014265 0.000366 0.000000 0.000000 0.000000
# 2 -0.014265 0.016953 -0.000687 0.000000 0.000000 0.000000
# 3 0.000366 -0.000687 0.027000 0.000000 0.000000 0.000000
# 4 0.000000 0.000000 0.000000 0.037942 0.000000 0.000000
# 5 0.000000 0.000000 0.000000 0.000000 0.044115 0.000000
# 6 0.000000 0.000000 0.000000 0.000000 0.000000 0.035884
#
#
# Mechanical properties :
#
#
# Convention : Reuss Voigt Hill
#
# Bulk Modulus (GPa) = 26.44586 45.48591 35.96588
# Shear Modulus (GPa) = 22.05548 26.83979 24.44764
#
# Velocity S-wave (km/s) = 3.25035 3.58560 3.42209
# Velocity P-wave (km/s) = 5.17245 6.23941 5.73082
#
# Compressibility (1/GPa) = 0.03781310
#
# Stress axis : x y z
#
# Youngs Moduli (GPa) = 43.41872 58.98660 37.03737
#
# Poissons Ratio (x) = 0.84144 -0.01356
# Poissons Ratio (y) = 0.61936 0.02544
# Poissons Ratio (z) = -0.01590 0.04052
#
# Static dielectric constant tensor:
#      x y z
#    x 1.742030 0.000000 0.000000 
#    y 0.000000 1.728120 0.000000 
#    z 0.000000 0.000000 1.793040 
# 
# From -- ./inp_files/7235.got.cif
#   From: 2010.05.17/outbox.cif.g08.bks.cpg/sg65_4_cif.got.tgz:7235.got - 2010.06.03 17:01:31.
