data_PCOD9486444
_publ_section_title
;
Structure prediction by ZEFSAII (Michael W. Deem and Ramdas Pophale) SiO2 
 PCOD9486444
Probable space group: C M M M
;
_chemical_formula_sum "Si O2"
_cell_formula_units_Z 80
_cell_length_a 27.808977
_cell_length_b 8.833372
_cell_length_c 18.938533
_cell_angle_alpha 90.000000
_cell_angle_beta 90.000000
_cell_angle_gamma 90.000000
_cell_volume 4652.194550
_symmetry_space_group_name_H-M "C M M M"
_symmetry_group_IT_number 65
_symmetry_cell_setting 'orthorhombic'
loop_
_space_group_symop_operation_xyz
x,y,z
-x,-y,z
x,-y,-z
-x,y,-z
-x,-y,-z
x,y,-z
-x,y,z
x,-y,z
1/2+x,1/2+y,z
1/2-x,1/2-y,z
1/2+x,1/2-y,-z
1/2-x,1/2+y,-z
1/2-x,1/2-y,-z
1/2+x,1/2+y,-z
1/2-x,1/2+y,z
1/2+x,1/2-y,z
loop_
_atom_site_type_symbol
_atom_site_label
_atom_site_fract_x
_atom_site_fract_y
_atom_site_fract_z
Si Si1 0.054696 0.182005 0.217566
Si Si2 0.395803 0.181868 0.353631
Si Si3 0.802095 0.180925 0.287972
Si Si4 0.303141 0.820470 0.000000
Si Si5 0.555393 0.815616 0.500000
Si Si6 0.350402 0.319025 0.862304
O O1 0.070024 0.260583 0.290459
O O2 0.095032 0.221752 0.159684
O O3 0.000000 0.219484 0.198328
O O4 0.058175 0.000000 0.227763
O O5 0.343432 0.249950 0.337434
O O6 0.417321 0.230827 0.428800
O O7 0.393394 0.000000 0.351821
O O8 0.750000 0.250000 0.301596
O O9 0.818551 0.215023 0.207293
O O10 0.801338 0.000000 0.295520
O O11 0.250000 0.750000 0.000000
O O12 0.330845 0.765036 0.069661
O O13 0.299085 0.000000 0.000000
O O14 0.500000 0.764257 0.500000
O O15 0.554584 0.000000 0.500000
O O16 0.348157 0.500000 0.874399
#
# Coordination Sequence:
#
# PCOD9486444 Si02
#       6
#    16  16  16   8   8  16
#     4   9  18  34  55  78 104 135 172 213 255 300
#     4  10  19  32  52  77 105 137 173 212 255 304
#     4  10  20  35  55  78 103 133 171 213 256 304
#     4  12  24  36  53  76 103 133 166 207 253 302
#     4   9  18  32  50  75 106 137 170 209 254 303
#     4   9  19  35  54  76 103 133 167 207 250 300
#
# _framework density 17.196185
#
# number of rings (size 3 to 8) (size 9 to 14) (size 15 to 20)
#    0.000    2.300    0.000    4.500    0.000    6.800 
#    0.000    3.000    0.000    6.600    0.000    0.000 
#    0.000    0.000    0.000    0.000    0.000    0.000 
#
# Total GULP energy -223248.641073 kJ/mol
# GULP energy per Si atom -5581.216027 kJ/mol
# Density = 1.715705 g / cm^3
# Si number density = 17.196185 Si / 1000 Ang^3
#
#
#
# Elastic Constant Matrix: (Units=GPa)
#
#
# Indices 1 2 3 4 5 6 
#
# 1 181.1068 59.0517 97.5889 0.0000 0.0000 0.0000
# 2 59.0517 49.0871 60.3385 0.0000 0.0000 0.0000
# 3 97.5889 60.3385 144.6894 0.0000 0.0000 0.0000
# 4 0.0000 0.0000 0.0000 23.5797 0.0000 0.0000
# 5 0.0000 0.0000 0.0000 0.0000 13.2989 0.0000
# 6 0.0000 0.0000 0.0000 0.0000 0.0000 27.1180
#
#
#
# Elastic Compliance Matrix: (Units=1/GPa)
#
#
# Indices 1 2 3 4 5 6 
#
# 1 0.009881 -0.007581 -0.003503 0.000000 0.000000 0.000000
# 2 -0.007581 0.047614 -0.014743 0.000000 0.000000 0.000000
# 3 -0.003503 -0.014743 0.015422 0.000000 0.000000 0.000000
# 4 0.000000 0.000000 0.000000 0.042409 0.000000 0.000000
# 5 0.000000 0.000000 0.000000 0.000000 0.075194 0.000000
# 6 0.000000 0.000000 0.000000 0.000000 0.000000 0.036876
#
#
# Mechanical properties :
#
#
# Convention : Reuss Voigt Hill
#
# Bulk Modulus (GPa) = 47.02917 89.87128 68.45023
# Shear Modulus (GPa) = 17.47406 23.32625 20.40015
#
# Velocity S-wave (km/s) = 3.19118 3.68704 3.44803
# Velocity P-wave (km/s) = 6.40204 8.39651 7.46618
#
# Compressibility (1/GPa) = 0.02126340
#
# Stress axis : x y z
#
# Youngs Moduli (GPa) = 101.20371 21.00228 64.84134
#
# Poissons Ratio (x) = 0.15921 0.22715
# Poissons Ratio (y) = 0.76720 0.95595
# Poissons Ratio (z) = 0.35453 0.30964
#
# Static dielectric constant tensor:
#      x y z
#    x 1.577920 0.000000 0.000000 
#    y 0.000000 1.575320 0.000000 
#    z 0.000000 0.000000 1.554220 
# 
# From -- ./inp_files/57272.got.cif
#   From: 2010.05.17/outbox.cif.g08.bks.cpg/sg65_29_cif.got.tgz:57272.got - 2010.06.03 17:01:31.
