data_PCOD9486633
_publ_section_title
;
Structure prediction by ZEFSAII (Michael W. Deem and Ramdas Pophale) SiO2 
 PCOD9486633
Probable space group: C M M M
;
_chemical_formula_sum "Si O2"
_cell_formula_units_Z 80
_cell_length_a 26.194395
_cell_length_b 9.358527
_cell_length_c 22.565434
_cell_angle_alpha 90.000000
_cell_angle_beta 90.000000
_cell_angle_gamma 90.000000
_cell_volume 5531.711992
_symmetry_space_group_name_H-M "C M M M"
_symmetry_group_IT_number 65
_symmetry_cell_setting 'orthorhombic'
loop_
_space_group_symop_operation_xyz
x,y,z
-x,-y,z
x,-y,-z
-x,y,-z
-x,-y,-z
x,y,-z
-x,y,z
x,-y,z
1/2+x,1/2+y,z
1/2-x,1/2-y,z
1/2+x,1/2-y,-z
1/2-x,1/2+y,-z
1/2-x,1/2-y,-z
1/2+x,1/2+y,-z
1/2-x,1/2+y,z
1/2+x,1/2-y,z
loop_
_atom_site_type_symbol
_atom_site_label
_atom_site_fract_x
_atom_site_fract_y
_atom_site_fract_z
Si Si1 0.937826 0.664558 0.117077
Si Si2 0.439060 0.668285 0.234555
Si Si3 0.801680 0.170540 0.569428
Si Si4 0.000000 0.330352 0.570808
Si Si5 0.906578 0.171655 0.633815
Si Si6 0.937749 0.164832 0.000000
O O1 0.921689 0.500000 0.113821
O O2 0.922288 0.739169 0.178386
O O3 0.000000 0.666371 0.116776
O O4 0.921346 0.753010 0.059357
O O5 0.500000 0.690432 0.243726
O O6 0.432066 0.500000 0.221442
O O7 0.411831 0.702580 0.296346
O O8 0.811396 0.204708 0.500000
O O9 0.750000 0.250000 0.587604
O O10 0.851322 0.208363 0.607520
O O11 0.794185 0.000000 0.573729
O O12 0.049500 0.255753 0.599144
O O13 0.000000 0.500000 0.583192
O O14 0.000000 0.310255 0.500000
O O15 0.914565 0.000000 0.626364
O O16 0.000000 0.165442 0.000000
O O17 0.921599 0.000000 0.000000
#
# Coordination Sequence:
#
# PCOD9486633 Si02
#       6
#    16  16  16   8  16   8
#     4   9  16  24  35  52  76 106 139 175 214 253
#     4   9  16  27  41  58  80 108 143 178 211 252
#     4   9  18  32  50  69  87 110 143 183 227 272
#     4  11  23  33  43  65  93 116 141 180 227 267
#     4  10  19  33  50  66  85 116 152 183 217 267
#     4   9  15  23  35  51  71 101 142 183 214 241
#
# _framework density 14.462070000000001
#
# number of rings (size 3 to 8) (size 9 to 14) (size 15 to 20)
#    0.000    2.600    1.000    1.800    0.000    6.800 
#    0.000    2.000    0.000    0.000    0.000    0.000 
#    0.000    0.000    0.000    0.900    0.000   10.900 
#
# Total GULP energy -222931.276593 kJ/mol
# GULP energy per Si atom -5573.281915 kJ/mol
# Density = 1.442915 g / cm^3
# Si number density = 14.462070 Si / 1000 Ang^3
#
#
#
# Elastic Constant Matrix: (Units=GPa)
#
#
# Indices 1 2 3 4 5 6 
#
# 1 75.5929 48.3911 61.8945 0.0000 0.0000 0.0000
# 2 48.3911 84.4275 82.9241 0.0000 0.0000 0.0000
# 3 61.8945 82.9241 135.0049 0.0000 0.0000 0.0000
# 4 0.0000 0.0000 0.0000 21.9616 0.0000 0.0000
# 5 0.0000 0.0000 0.0000 0.0000 9.5901 0.0000
# 6 0.0000 0.0000 0.0000 0.0000 0.0000 17.3294
#
#
#
# Elastic Compliance Matrix: (Units=1/GPa)
#
#
# Indices 1 2 3 4 5 6 
#
# 1 0.022725 -0.007039 -0.006095 0.000000 0.000000 0.000000
# 2 -0.007039 0.032037 -0.016451 0.000000 0.000000 0.000000
# 3 -0.006095 -0.016451 0.020306 0.000000 0.000000 0.000000
# 4 0.000000 0.000000 0.000000 0.045534 0.000000 0.000000
# 5 0.000000 0.000000 0.000000 0.000000 0.104274 0.000000
# 6 0.000000 0.000000 0.000000 0.000000 0.000000 0.057706
#
#
# Mechanical properties :
#
#
# Convention : Reuss Voigt Hill
#
# Bulk Modulus (GPa) = 62.89900 75.71608 69.30754
# Shear Modulus (GPa) = 14.40705 16.56392 15.48549
#
# Velocity S-wave (km/s) = 3.15968 3.38795 3.27581
# Velocity P-wave (km/s) = 7.54309 8.23243 7.89529
#
# Compressibility (1/GPa) = 0.01589850
#
# Stress axis : x y z
#
# Youngs Moduli (GPa) = 44.00368 31.21396 49.24550
#
# Poissons Ratio (x) = 0.21970 0.30017
# Poissons Ratio (y) = 0.30972 0.81014
# Poissons Ratio (z) = 0.26822 0.51351
#
# Static dielectric constant tensor:
#      x y z
#    x 1.439590 0.000000 0.000000 
#    y 0.000000 1.484110 0.000000 
#    z 0.000000 0.000000 1.474940 
# 
# From -- ./inp_files/71350.got.cif
#   From: 2010.05.17/outbox.cif.g08.bks.cpg/sg65_36_cif.got.tgz:71350.got - 2010.06.03 17:01:31.
