data_PCOD9486814
_publ_section_title
;
Structure prediction by ZEFSAII (Michael W. Deem and Ramdas Pophale) SiO2 
 PCOD9486814
Probable space group: C M M M
;
_chemical_formula_sum "Si O2"
_cell_formula_units_Z 80
_cell_length_a 17.506462
_cell_length_b 28.662203
_cell_length_c 7.989250
_cell_angle_alpha 90.000000
_cell_angle_beta 90.000000
_cell_angle_gamma 90.000000
_cell_volume 4008.796073
_symmetry_space_group_name_H-M "C M M M"
_symmetry_group_IT_number 65
_symmetry_cell_setting 'orthorhombic'
loop_
_space_group_symop_operation_xyz
x,y,z
-x,-y,z
x,-y,-z
-x,y,-z
-x,-y,-z
x,y,-z
-x,y,z
x,-y,z
1/2+x,1/2+y,z
1/2-x,1/2-y,z
1/2+x,1/2-y,-z
1/2-x,1/2+y,-z
1/2-x,1/2-y,-z
1/2+x,1/2+y,-z
1/2-x,1/2+y,z
1/2+x,1/2-y,z
loop_
_atom_site_type_symbol
_atom_site_label
_atom_site_fract_x
_atom_site_fract_y
_atom_site_fract_z
Si Si1 0.500000 0.446860 0.762627
Si Si2 0.359485 0.291913 0.196990
Si Si3 0.727873 0.140466 0.798653
Si Si4 0.169770 0.052126 0.797779
Si Si5 0.000000 0.149200 0.313168
Si Si6 0.412547 0.191919 0.697789
O O1 0.500000 0.500000 0.834020
O O2 0.411381 0.446112 0.701957
O O3 0.500000 0.392776 0.819198
O O4 0.280286 0.315229 0.252842
O O5 0.426780 0.318822 0.290037
O O6 0.373097 0.237322 0.221640
O O7 0.366761 0.302064 0.000000
O O8 0.773536 0.093677 0.749206
O O9 0.643113 0.148518 0.731318
O O10 0.722959 0.140051 0.000000
O O11 0.201991 0.000000 0.775582
O O12 0.152425 0.057214 0.000000
O O13 0.000000 0.128292 0.500000
O O14 0.415490 0.200359 0.500000
O O15 0.500000 0.186766 0.758577
#
# Coordination Sequence:
#
# PCOD9486814 Si02
#       6
#     8  16  16  16   8  16
#     4  10  19  33  53  79 114 156 192 227 268 320
#     4  11  22  37  58  83 112 147 187 230 274 327
#     4  10  21  36  57  85 112 143 185 229 277 329
#     4   9  17  31  54  84 115 146 184 229 275 325
#     4  12  23  34  52  80 118 158 191 227 273 322
#     4  11  24  40  57  80 110 145 185 229 280 337
#
# _framework density 19.956116000000002
#
# number of rings (size 3 to 8) (size 9 to 14) (size 15 to 20)
#    0.000    1.600    3.000    2.400    0.000    7.400 
#    0.000    0.000    0.000    1.200    0.000    4.200 
#    0.000    0.000    0.000    0.000    0.000    0.000 
#
# Total GULP energy -222809.554181 kJ/mol
# GULP energy per Si atom -5570.238855 kJ/mol
# Density = 1.991069 g / cm^3
# Si number density = 19.956116 Si / 1000 Ang^3
#
#
#
# Elastic Constant Matrix: (Units=GPa)
#
#
# Indices 1 2 3 4 5 6 
#
# 1 138.3804 71.8852 12.5931 0.0000 0.0000 0.0000
# 2 71.8852 113.3771 10.0338 0.0000 0.0000 0.0000
# 3 12.5931 10.0338 47.3141 0.0000 0.0000 0.0000
# 4 0.0000 0.0000 0.0000 -1.2324 0.0000 0.0000
# 5 0.0000 0.0000 0.0000 0.0000 -25.5940 0.0000
# 6 0.0000 0.0000 0.0000 0.0000 0.0000 -179.7338
#
#
#
# Elastic Compliance Matrix: (Units=1/GPa)
#
#
# Indices 1 2 3 4 5 6 
#
# 1 0.010874 -0.006765 -0.001459 0.000000 0.000000 0.000000
# 2 -0.006765 0.013198 -0.000998 0.000000 0.000000 0.000000
# 3 -0.001459 -0.000998 0.021736 0.000000 0.000000 0.000000
# 4 0.000000 0.000000 0.000000 -0.811406 0.000000 0.000000
# 5 0.000000 0.000000 0.000000 0.000000 -0.039072 0.000000
# 6 0.000000 0.000000 0.000000 0.000000 0.000000 -0.005564
#
#
# Mechanical properties :
#
#
# Convention : Reuss Voigt Hill
#
# Bulk Modulus (GPa) = 36.54794 54.23286 45.39040
# Shear Modulus (GPa) = -6.38840 -27.67477 -17.03159
#
# Velocity S-wave (km/s) = -1.79114 -3.72799 -2.92456
# Velocity P-wave (km/s) = 3.75185 2.95034 3.37497
#
# Compressibility (1/GPa) = 0.02736132
#
# Stress axis : x y z
#
# Youngs Moduli (GPa) = 91.96619 75.77035 46.00766
#
# Poissons Ratio (x) = 0.51259 0.06715
# Poissons Ratio (y) = 0.62216 0.04593
# Poissons Ratio (z) = 0.13422 0.07564
#
# Static dielectric constant tensor:
#      x y z
#    x 1.691320 0.000000 0.000000 
#    y 0.000000 1.695600 0.000000 
#    z 0.000000 0.000000 1.844570 
# 
# From -- ./inp_files/9748.got.cif
#   From: 2010.05.17/outbox.cif.g08.bks.cpg/sg65_5_cif.got.tgz:9748.got - 2010.06.03 17:01:31.
