data_PCOD9486188
_publ_section_title
;
Structure prediction by ZEFSAII (Michael W. Deem and Ramdas Pophale) SiO2 
 PCOD9486188
Probable space group: C M M M
;
_chemical_formula_sum "Si O2"
_cell_formula_units_Z 120
_cell_length_a 9.176761
_cell_length_b 27.969576
_cell_length_c 26.558820
_cell_angle_alpha 90.000000
_cell_angle_beta 90.000000
_cell_angle_gamma 90.000000
_cell_volume 6816.855363
_symmetry_space_group_name_H-M "C M M M"
_symmetry_group_IT_number 65
_symmetry_cell_setting 'orthorhombic'
loop_
_space_group_symop_operation_xyz
x,y,z
-x,-y,z
x,-y,-z
-x,y,-z
-x,-y,-z
x,y,-z
-x,y,z
x,-y,z
1/2+x,1/2+y,z
1/2-x,1/2-y,z
1/2+x,1/2-y,-z
1/2-x,1/2+y,-z
1/2-x,1/2-y,-z
1/2+x,1/2+y,-z
1/2-x,1/2+y,z
1/2+x,1/2-y,z
loop_
_atom_site_type_symbol
_atom_site_label
_atom_site_fract_x
_atom_site_fract_y
_atom_site_fract_z
Si Si1 0.335096 0.204541 0.280530
Si Si2 0.826002 0.699796 0.440085
Si Si3 0.174206 0.861757 0.205200
Si Si4 0.334077 0.121433 0.636618
Si Si5 0.675524 0.444185 0.714870
Si Si6 0.324173 0.801173 0.000000
Si Si7 0.839799 0.054588 0.060491
Si Si8 0.329507 0.862128 0.901396
O O1 0.500000 0.216744 0.265508
O O2 0.250000 0.250000 0.300834
O O3 0.242470 0.182388 0.235422
O O4 0.341519 0.163401 0.321960
O O5 0.804810 0.694411 0.500000
O O6 0.750000 0.750000 0.425167
O O7 0.775371 0.651590 0.411249
O O8 0.000000 0.704047 0.430037
O O9 0.214935 0.910045 0.237158
O O10 0.239488 0.857949 0.149675
O O11 0.000000 0.859516 0.204220
O O12 0.500000 0.104941 0.626021
O O13 0.244035 0.079844 0.664606
O O14 0.500000 0.442432 0.710816
O O15 0.718364 0.500000 0.720994
O O16 0.250000 0.750000 0.000000
O O17 0.282968 0.829242 0.051217
O O18 0.500000 0.797504 0.000000
O O19 0.706300 0.084658 0.080144
O O20 0.000000 0.074058 0.076349
O O21 0.832611 0.000000 0.077391
O O22 0.838026 0.055122 0.000000
O O23 0.500000 0.854235 0.892018
#
# Coordination Sequence:
#
# PCOD9486188 Si02
#       8
#    16  16  16  16  16   8  16  16
#     4  10  19  32  50  73 101 132 167 210 256 307
#     4   9  17  29  46  72 108 146 182 221 265 312
#     4  10  21  36  54  77 103 134 168 207 257 310
#     4   9  18  31  49  75 104 136 175 217 260 310
#     4   9  19  36  56  77 102 133 172 218 265 313
#     4  10  24  42  59  78 101 133 172 211 247 292
#     4   9  18  33  54  79 103 129 162 196 235 290
#     4  11  22  38  56  79 108 135 166 208 255 304
#
# _framework density 17.603425000000001
#
# number of rings (size 3 to 8) (size 9 to 14) (size 15 to 20)
#    0.000    2.400    0.667    2.000    0.000    4.267 
#    0.000    3.333    0.000    0.400    0.000    2.800 
#    0.000    0.000    0.000    0.000    0.000    0.000 
#
# Total GULP energy -334223.066062 kJ/mol
# GULP energy per Si atom -5570.384434 kJ/mol
# Density = 1.756336 g / cm^3
# Si number density = 17.603425 Si / 1000 Ang^3
#
#
#
# Elastic Constant Matrix: (Units=GPa)
#
#
# Indices 1 2 3 4 5 6 
#
# 1 51.2246 32.2364 32.8144 0.0000 0.0000 0.0000
# 2 32.2364 61.1143 27.4611 0.0000 0.0000 0.0000
# 3 32.8144 27.4611 89.7767 0.0000 0.0000 0.0000
# 4 0.0000 0.0000 0.0000 -0.1237 0.0000 0.0000
# 5 0.0000 0.0000 0.0000 0.0000 22.3902 0.0000
# 6 0.0000 0.0000 0.0000 0.0000 0.0000 29.6893
#
#
#
# Elastic Compliance Matrix: (Units=1/GPa)
#
#
# Indices 1 2 3 4 5 6 
#
# 1 0.033465 -0.014093 -0.007921 0.000000 0.000000 0.000000
# 2 -0.014093 0.024905 -0.002467 0.000000 0.000000 0.000000
# 3 -0.007921 -0.002467 0.014789 0.000000 0.000000 0.000000
# 4 0.000000 0.000000 0.000000 -8.085303 0.000000 0.000000
# 5 0.000000 0.000000 0.000000 0.000000 0.044662 0.000000
# 6 0.000000 0.000000 0.000000 0.000000 0.000000 0.033682
#
#
# Mechanical properties :
#
#
# Convention : Reuss Voigt Hill
#
# Bulk Modulus (GPa) = 41.32763 43.01551 42.17157
# Shear Modulus (GPa) = -0.63478 17.69809 8.53166
#
# Velocity S-wave (km/s) = -0.60115 3.17421 2.20389
# Velocity P-wave (km/s) = 4.80064 6.15817 5.52129
#
# Compressibility (1/GPa) = 0.02419689
#
# Stress axis : x y z
#
# Youngs Moduli (GPa) = 29.88211 40.15279 67.61976
#
# Poissons Ratio (x) = 0.56586 0.53562
# Poissons Ratio (y) = 0.42112 0.16681
# Poissons Ratio (z) = 0.23670 0.09905
#
# Static dielectric constant tensor:
#      x y z
#    x 1.615620 0.000000 0.000000 
#    y 0.000000 1.609100 0.000000 
#    z 0.000000 0.000000 1.645660 
# 
# From -- ./inp_files/73892.got.cif
#   From: 2010.05.17/outbox.cif.g08.bks.cpg/sg65_37_cif.got.tgz:73892.got - 2010.06.03 17:01:31.
