data_PCOD9486821
_publ_section_title
;
Structure prediction by ZEFSAII (Michael W. Deem and Ramdas Pophale) SiO2 
 PCOD9486821
Probable space group: C M M M
;
_chemical_formula_sum "Si O2"
_cell_formula_units_Z 96
_cell_length_a 22.185550
_cell_length_b 21.766462
_cell_length_c 10.948294
_cell_angle_alpha 90.000000
_cell_angle_beta 90.000000
_cell_angle_gamma 90.000000
_cell_volume 5286.941366
_symmetry_space_group_name_H-M "C M M M"
_symmetry_group_IT_number 65
_symmetry_cell_setting 'orthorhombic'
loop_
_space_group_symop_operation_xyz
x,y,z
-x,-y,z
x,-y,-z
-x,y,-z
-x,-y,-z
x,y,-z
-x,y,z
x,-y,z
1/2+x,1/2+y,z
1/2-x,1/2-y,z
1/2+x,1/2-y,-z
1/2-x,1/2+y,-z
1/2-x,1/2-y,-z
1/2+x,1/2+y,-z
1/2-x,1/2+y,z
1/2+x,1/2-y,z
loop_
_atom_site_type_symbol
_atom_site_label
_atom_site_fract_x
_atom_site_fract_y
_atom_site_fract_z
Si Si1 0.500000 0.429762 0.143890
Si Si2 0.428658 0.572623 0.500000
Si Si3 0.394665 0.356531 0.729626
Si Si4 0.269312 0.680759 0.148050
Si Si5 0.928725 0.277031 0.363791
Si Si6 0.928560 0.364241 0.859842
Si Si7 0.687473 0.066657 0.854761
O O1 0.500000 0.500000 0.197074
O O2 0.557599 0.390030 0.183066
O O3 0.500000 0.435848 0.000000
O O4 0.431267 0.500000 0.500000
O O5 0.500000 0.594476 0.500000
O O6 0.392949 0.597162 0.383472
O O7 0.333215 0.339344 0.796925
O O8 0.419010 0.293371 0.672086
O O9 0.250000 0.750000 0.185744
O O10 0.222551 0.627418 0.188006
O O11 0.272396 0.681323 0.000000
O O12 0.902740 0.289800 0.500000
O O13 0.909831 0.317014 0.246447
O O14 0.000000 0.288005 0.372674
O O15 0.883964 0.421382 0.843119
O O16 0.000000 0.377457 0.850241
O O17 0.918229 0.340781 0.000000
O O18 0.704638 0.000000 0.802319
O O19 0.699894 0.064213 0.000000
#
# Coordination Sequence:
#
# PCOD9486821 Si02
#       7
#     8   8  16  16  16  16  16
#     4  11  24  37  53  87 127 154 192 255 314 363
#     4  11  22  38  59  82 114 160 207 254 305 364
#     4  12  21  37  59  82 110 156 203 243 295 358
#     4  10  22  39  60  87 120 158 199 245 303 364
#     4  10  19  33  53  80 113 146 186 229 282 349
#     4   9  18  32  55  88 117 143 182 237 296 346
#     4   9  18  34  56  82 115 154 193 235 288 354
#
# _framework density 18.157948000000001
#
# number of rings (size 3 to 8) (size 9 to 14) (size 15 to 20)
#    0.000    1.833    2.500    2.000    0.000    4.333 
#    0.000    3.750    1.833    0.500    0.000    2.333 
#    0.000    0.000    0.000    0.000    0.000    0.000 
#
# Total GULP energy -267326.267730 kJ/mol
# GULP energy per Si atom -5569.297244 kJ/mol
# Density = 1.811662 g / cm^3
# Si number density = 18.157948 Si / 1000 Ang^3
#
#
#
# Elastic Constant Matrix: (Units=GPa)
#
#
# Indices 1 2 3 4 5 6 
#
# 1 89.2683 61.6230 37.6077 0.0000 0.0000 0.0000
# 2 61.6230 138.0274 43.7892 0.0000 0.0000 0.0000
# 3 37.6077 43.7892 79.8276 0.0000 0.0000 0.0000
# 4 0.0000 0.0000 0.0000 22.6828 0.0000 0.0000
# 5 0.0000 0.0000 0.0000 0.0000 18.4184 0.0000
# 6 0.0000 0.0000 0.0000 0.0000 0.0000 19.7927
#
#
#
# Elastic Compliance Matrix: (Units=1/GPa)
#
#
# Indices 1 2 3 4 5 6 
#
# 1 0.017602 -0.006329 -0.004821 0.000000 0.000000 0.000000
# 2 -0.006329 0.011047 -0.003078 0.000000 0.000000 0.000000
# 3 -0.004821 -0.003078 0.016487 0.000000 0.000000 0.000000
# 4 0.000000 0.000000 0.000000 0.044086 0.000000 0.000000
# 5 0.000000 0.000000 0.000000 0.000000 0.054294 0.000000
# 6 0.000000 0.000000 0.000000 0.000000 0.000000 0.050524
#
#
# Mechanical properties :
#
#
# Convention : Reuss Voigt Hill
#
# Bulk Modulus (GPa) = 59.95262 65.90700 62.92981
# Shear Modulus (GPa) = 21.92448 23.11901 22.52174
#
# Velocity S-wave (km/s) = 3.47858 3.57209 3.52564
# Velocity P-wave (km/s) = 7.01591 7.30674 7.16280
#
# Compressibility (1/GPa) = 0.01667984
#
# Stress axis : x y z
#
# Youngs Moduli (GPa) = 56.81092 90.52075 60.65527
#
# Poissons Ratio (x) = 0.57293 0.29240
# Poissons Ratio (y) = 0.35957 0.18671
# Poissons Ratio (z) = 0.27387 0.27864
#
# Static dielectric constant tensor:
#      x y z
#    x 1.803270 0.000000 0.000000 
#    y 0.000000 1.632650 0.000000 
#    z 0.000000 0.000000 2.301030 
# 
# From -- ./inp_files/29061.got.cif
#   From: 2010.05.17/outbox.cif.g08.bks.cpg/sg65_15_cif.got.tgz:29061.got - 2010.06.03 17:01:31.
