data_PCOD9486230
_publ_section_title
;
Structure prediction by ZEFSAII (Michael W. Deem and Ramdas Pophale) SiO2 
 PCOD9486230
Probable space group: C M M M
;
_chemical_formula_sum "Si O2"
_cell_formula_units_Z 88
_cell_length_a 14.709749
_cell_length_b 9.534173
_cell_length_c 29.975509
_cell_angle_alpha 90.000000
_cell_angle_beta 90.000000
_cell_angle_gamma 90.000000
_cell_volume 4203.924005
_symmetry_space_group_name_H-M "C M M M"
_symmetry_group_IT_number 65
_symmetry_cell_setting 'orthorhombic'
loop_
_space_group_symop_operation_xyz
x,y,z
-x,-y,z
x,-y,-z
-x,y,-z
-x,-y,-z
x,y,-z
-x,y,z
x,-y,z
1/2+x,1/2+y,z
1/2-x,1/2-y,z
1/2+x,1/2-y,-z
1/2-x,1/2+y,-z
1/2-x,1/2-y,-z
1/2+x,1/2+y,-z
1/2-x,1/2+y,z
1/2+x,1/2-y,z
loop_
_atom_site_type_symbol
_atom_site_label
_atom_site_fract_x
_atom_site_fract_y
_atom_site_fract_z
Si Si1 0.107345 0.342750 0.681510
Si Si2 0.655501 0.667625 0.596368
Si Si3 0.388553 0.340069 0.865228
Si Si4 0.345199 0.333132 0.500000
Si Si5 0.889174 0.662550 0.219598
Si Si6 0.889113 0.661755 0.049805
O O1 0.144345 0.500000 0.670857
O O2 0.117438 0.234694 0.641345
O O3 0.141722 0.297188 0.730357
O O4 0.000000 0.358801 0.687282
O O5 0.664011 0.500000 0.600976
O O6 0.750000 0.750000 0.592407
O O7 0.608747 0.695307 0.547992
O O8 0.500000 0.340027 0.865242
O O9 0.357944 0.500000 0.865483
O O10 0.358609 0.260593 0.820527
O O11 0.359404 0.258826 0.909691
O O12 0.325342 0.500000 0.500000
O O13 0.250000 0.250000 0.500000
O O14 0.864059 0.500000 0.212295
O O15 0.000000 0.667829 0.218789
O O16 0.861241 0.500000 0.056381
O O17 0.000000 0.662163 0.050233
O O18 0.861498 0.707619 0.000000
#
# Coordination Sequence:
#
# PCOD9486230 Si02
#       6
#    16  16  16   8  16  16
#     4   9  18  32  48  67  92 120 151 188 228 268
#     4  10  19  32  51  72  94 120 151 186 223 266
#     4   9  15  20  28  44  64  86 117 160 205 247
#     4   8  16  30  47  68  91 117 149 183 219 260
#     4   8  14  25  39  52  70 100 134 167 205 251
#     4   8  13  20  28  37  52  79 116 156 198 245
#
# _framework density 20.932822999999999
#
# number of rings (size 3 to 8) (size 9 to 14) (size 15 to 20)
#    0.000    3.273    0.000    2.727    0.000    4.364 
#    0.000    4.091    0.000    2.727    0.000    0.000 
#    0.000    0.000    0.000    0.000    0.000    0.909 
#
# Total GULP energy -245125.840313 kJ/mol
# GULP energy per Si atom -5571.041825 kJ/mol
# Density = 2.088518 g / cm^3
# Si number density = 20.932823 Si / 1000 Ang^3
#
#
#
# Elastic Constant Matrix: (Units=GPa)
#
#
# Indices 1 2 3 4 5 6 
#
# 1 39.2004 11.8334 12.9589 0.0000 0.0000 0.0000
# 2 11.8334 122.0613 141.5548 0.0000 0.0000 0.0000
# 3 12.9589 141.5548 261.0019 0.0000 0.0000 0.0000
# 4 0.0000 0.0000 0.0000 49.2066 0.0000 0.0000
# 5 0.0000 0.0000 0.0000 0.0000 -0.7232 0.0000
# 6 0.0000 0.0000 0.0000 0.0000 0.0000 8.1503
#
#
#
# Elastic Compliance Matrix: (Units=1/GPa)
#
#
# Indices 1 2 3 4 5 6 
#
# 1 0.026283 -0.002789 0.000207 0.000000 0.000000 0.000000
# 2 -0.002789 0.022376 -0.011997 0.000000 0.000000 0.000000
# 3 0.000207 -0.011997 0.010328 0.000000 0.000000 0.000000
# 4 0.000000 0.000000 0.000000 0.020322 0.000000 0.000000
# 5 0.000000 0.000000 0.000000 0.000000 -1.382727 0.000000
# 6 0.000000 0.000000 0.000000 0.000000 0.000000 0.122695
#
#
# Mechanical properties :
#
#
# Convention : Reuss Voigt Hill
#
# Bulk Modulus (GPa) = 33.52301 83.88421 58.70361
# Shear Modulus (GPa) = -4.37973 28.38783 12.00405
#
# Velocity S-wave (km/s) = -1.44804 3.68658 2.39729
# Velocity P-wave (km/s) = 3.64055 7.63421 5.98058
#
# Compressibility (1/GPa) = 0.02983025
#
# Stress axis : x y z
#
# Youngs Moduli (GPa) = 38.04713 44.68996 96.82503
#
# Poissons Ratio (x) = 0.12463 -0.02009
# Poissons Ratio (y) = 0.10610 1.16165
# Poissons Ratio (z) = -0.00789 0.53616
#
# Static dielectric constant tensor:
#      x y z
#    x 1.887920 0.000000 0.000000 
#    y 0.000000 1.709600 0.000000 
#    z 0.000000 0.000000 1.801390 
# 
# From -- ./inp_files/75386.got.cif
#   From: 2010.05.17/outbox.cif.g08.bks.cpg/sg65_38_cif.got.tgz:75386.got - 2010.06.03 17:01:31.
