data_PCOD9486010
_publ_section_title
;
Structure prediction by ZEFSAII (Michael W. Deem and Ramdas Pophale) SiO2 
 PCOD9486010
Probable space group: C M M M
;
_chemical_formula_sum "Si O2"
_cell_formula_units_Z 80
_cell_length_a 10.101342
_cell_length_b 24.761303
_cell_length_c 18.277958
_cell_angle_alpha 90.000000
_cell_angle_beta 90.000000
_cell_angle_gamma 90.000000
_cell_volume 4571.726539
_symmetry_space_group_name_H-M "C M M M"
_symmetry_group_IT_number 65
_symmetry_cell_setting 'orthorhombic'
loop_
_space_group_symop_operation_xyz
x,y,z
-x,-y,z
x,-y,-z
-x,y,-z
-x,-y,-z
x,y,-z
-x,y,z
x,-y,z
1/2+x,1/2+y,z
1/2-x,1/2-y,z
1/2+x,1/2-y,-z
1/2-x,1/2+y,-z
1/2-x,1/2-y,-z
1/2+x,1/2+y,-z
1/2-x,1/2+y,z
1/2+x,1/2-y,z
loop_
_atom_site_type_symbol
_atom_site_label
_atom_site_fract_x
_atom_site_fract_y
_atom_site_fract_z
Si Si1 0.000000 0.803841 0.589070
Si Si2 0.845243 0.104156 0.913304
Si Si3 0.000000 0.321502 0.410785
Si Si4 0.160753 0.000000 0.652438
Si Si5 0.764097 0.883507 0.411614
Si Si6 0.347515 0.796741 0.911436
Si Si7 0.158926 0.000000 0.180578
O O1 0.000000 0.741326 0.613867
O O2 0.124689 0.840178 0.611452
O O3 0.000000 0.801584 0.500000
O O4 0.736379 0.149412 0.898044
O O5 0.808092 0.052766 0.865388
O O6 0.000000 0.120172 0.897986
O O7 0.841362 0.091605 0.000000
O O8 0.127264 0.355973 0.388485
O O9 0.000000 0.319220 0.500000
O O10 0.209988 0.056085 0.616908
O O11 0.206997 0.000000 0.736625
O O12 0.000000 0.000000 0.647772
O O13 0.767019 0.886471 0.500000
O O14 0.500000 0.796030 0.884848
O O15 0.250000 0.750000 0.883330
O O16 0.355693 0.790482 0.000000
O O17 0.000000 0.000000 0.185839
#
# Coordination Sequence:
#
# PCOD9486010 Si02
#       7
#     8  16   8   8  16  16   8
#     4   9  16  29  51  79 105 130 163 206 254 303
#     4   9  16  29  51  76  98 123 161 208 252 297
#     4   9  18  31  49  77 107 132 165 210 260 301
#     4  11  21  34  51  73 100 138 177 210 250 300
#     4  10  19  31  52  78 105 135 168 210 251 297
#     4   9  16  26  44  73 105 132 158 194 244 298
#     4   9  19  33  51  73  95 129 166 207 249 297
#
# _framework density 17.498860000000001
#
# number of rings (size 3 to 8) (size 9 to 14) (size 15 to 20)
#    0.000    2.600    1.000    1.800    0.000    6.800 
#    0.000    2.000    4.400    4.800    0.000    0.000 
#    0.000    0.000    0.000    0.000    0.000    0.000 
#
# Total GULP energy -222726.452304 kJ/mol
# GULP energy per Si atom -5568.161308 kJ/mol
# Density = 1.745903 g / cm^3
# Si number density = 17.498860 Si / 1000 Ang^3
#
#
#
# Elastic Constant Matrix: (Units=GPa)
#
#
# Indices 1 2 3 4 5 6 
#
# 1 164.0848 99.9467 33.8827 0.0000 0.0000 0.0000
# 2 99.9467 175.8909 51.2151 0.0000 0.0000 0.0000
# 3 33.8827 51.2151 28.2184 0.0000 0.0000 0.0000
# 4 0.0000 0.0000 0.0000 17.4302 0.0000 0.0000
# 5 0.0000 0.0000 0.0000 0.0000 8.2995 0.0000
# 6 0.0000 0.0000 0.0000 0.0000 0.0000 -1.0269
#
#
#
# Elastic Compliance Matrix: (Units=1/GPa)
#
#
# Indices 1 2 3 4 5 6 
#
# 1 0.009472 -0.004391 -0.003403 0.000000 0.000000 0.000000
# 2 -0.004391 0.014093 -0.020306 0.000000 0.000000 0.000000
# 3 -0.003403 -0.020306 0.076378 0.000000 0.000000 0.000000
# 4 0.000000 0.000000 0.000000 0.057372 0.000000 0.000000
# 5 0.000000 0.000000 0.000000 0.000000 0.120489 0.000000
# 6 0.000000 0.000000 0.000000 0.000000 0.000000 -0.973821
#
#
# Mechanical properties :
#
#
# Convention : Reuss Voigt Hill
#
# Bulk Modulus (GPa) = 22.86094 82.03147 52.44621
# Shear Modulus (GPa) = -7.99698 17.15054 4.57678
#
# Velocity S-wave (km/s) = -2.14007 3.13404 1.61900
# Velocity P-wave (km/s) = 2.64311 7.75089 5.79061
#
# Compressibility (1/GPa) = 0.04374273
#
# Stress axis : x y z
#
# Youngs Moduli (GPa) = 105.57430 70.95656 13.09280
#
# Poissons Ratio (x) = 0.31160 0.04456
# Poissons Ratio (y) = 0.46361 0.26586
# Poissons Ratio (z) = 0.35929 1.44081
#
# Static dielectric constant tensor:
#      x y z
#    x 1.617920 0.000000 0.000000 
#    y 0.000000 1.617720 0.000000 
#    z 0.000000 0.000000 1.582760 
# 
# From -- ./inp_files/59714.got.cif
#   From: 2010.05.17/outbox.cif.g08.bks.cpg/sg65_30_cif.got.tgz:59714.got - 2010.06.03 17:01:31.
