data_PCOD9486920
_publ_section_title
;
Structure prediction by ZEFSAII (Michael W. Deem and Ramdas Pophale) SiO2 
 PCOD9486920
Probable space group: C M M M
;
_chemical_formula_sum "Si O2"
_cell_formula_units_Z 88
_cell_length_a 19.321409
_cell_length_b 8.591482
_cell_length_c 29.282855
_cell_angle_alpha 90.000000
_cell_angle_beta 90.000000
_cell_angle_gamma 90.000000
_cell_volume 4860.940391
_symmetry_space_group_name_H-M "C M M M"
_symmetry_group_IT_number 65
_symmetry_cell_setting 'orthorhombic'
loop_
_space_group_symop_operation_xyz
x,y,z
-x,-y,z
x,-y,-z
-x,y,-z
-x,-y,-z
x,y,-z
-x,y,z
x,-y,z
1/2+x,1/2+y,z
1/2-x,1/2-y,z
1/2+x,1/2-y,-z
1/2-x,1/2+y,-z
1/2-x,1/2-y,-z
1/2+x,1/2+y,-z
1/2-x,1/2+y,z
1/2+x,1/2-y,z
loop_
_atom_site_type_symbol
_atom_site_label
_atom_site_fract_x
_atom_site_fract_y
_atom_site_fract_z
Si Si1 0.672440 0.186795 0.863882
Si Si2 0.080672 0.313965 0.317639
Si Si3 0.579369 0.810481 0.948255
Si Si4 0.171695 0.187371 0.500000
Si Si5 0.580498 0.686363 0.781651
Si Si6 0.171554 0.187206 0.400173
O O1 0.750000 0.250000 0.862561
O O2 0.631997 0.242138 0.909412
O O3 0.628881 0.242038 0.820242
O O4 0.674199 0.000000 0.864397
O O5 0.086052 0.500000 0.314828
O O6 0.101396 0.242162 0.268885
O O7 0.126395 0.252327 0.359052
O O8 0.000000 0.272253 0.325101
O O9 0.500000 0.762881 0.938316
O O10 0.579793 0.000000 0.948106
O O11 0.596756 0.760982 0.000000
O O12 0.250000 0.250000 0.500000
O O13 0.142516 0.234839 0.450527
O O14 0.173295 0.000000 0.500000
O O15 0.500000 0.734355 0.788679
O O16 0.583811 0.500000 0.783748
O O17 0.250000 0.250000 0.396803
O O18 0.173001 0.000000 0.397946
#
# Coordination Sequence:
#
# PCOD9486920 Si02
#       6
#    16  16  16   8  16  16
#     4  11  22  35  53  79 111 144 178 218 264 311
#     4  10  21  37  56  79 107 138 174 216 263 315
#     4   8  15  30  53  79 105 137 179 221 260 308
#     4   8  16  30  49  74 103 137 175 215 257 306
#     4  10  21  38  59  80 103 134 173 217 265 318
#     4  10  19  33  54  79 107 139 177 218 262 311
#
# _framework density 18.103493
#
# number of rings (size 3 to 8) (size 9 to 14) (size 15 to 20)
#    0.000    2.364    0.000    3.273    0.000    4.727 
#    0.000    4.091    0.000    4.364    0.000    6.364 
#    0.000    0.000    0.000    0.000    0.000    0.000 
#
# Total GULP energy -245465.160647 kJ/mol
# GULP energy per Si atom -5578.753651 kJ/mol
# Density = 1.806229 g / cm^3
# Si number density = 18.103493 Si / 1000 Ang^3
#
#
#
# Elastic Constant Matrix: (Units=GPa)
#
#
# Indices 1 2 3 4 5 6 
#
# 1 98.7472 31.6724 113.6019 0.0000 0.0000 0.0000
# 2 31.6724 38.3347 42.9514 0.0000 0.0000 0.0000
# 3 113.6019 42.9514 199.9842 0.0000 0.0000 0.0000
# 4 0.0000 0.0000 0.0000 15.3798 0.0000 0.0000
# 5 0.0000 0.0000 0.0000 0.0000 39.2368 0.0000
# 6 0.0000 0.0000 0.0000 0.0000 0.0000 18.7338
#
#
#
# Elastic Compliance Matrix: (Units=1/GPa)
#
#
# Indices 1 2 3 4 5 6 
#
# 1 0.030866 -0.007713 -0.015877 0.000000 0.000000 0.000000
# 2 -0.007713 0.036280 -0.003411 0.000000 0.000000 0.000000
# 3 -0.015877 -0.003411 0.014752 0.000000 0.000000 0.000000
# 4 0.000000 0.000000 0.000000 0.065020 0.000000 0.000000
# 5 0.000000 0.000000 0.000000 0.000000 0.025486 0.000000
# 6 0.000000 0.000000 0.000000 0.000000 0.000000 0.053379
#
#
# Mechanical properties :
#
#
# Convention : Reuss Voigt Hill
#
# Bulk Modulus (GPa) = 35.84629 79.27973 57.56301
# Shear Modulus (GPa) = 17.29595 24.59276 20.94436
#
# Velocity S-wave (km/s) = 3.09430 3.68972 3.40505
# Velocity P-wave (km/s) = 5.71051 7.87652 6.87930
#
# Compressibility (1/GPa) = 0.02789689
#
# Stress axis : x y z
#
# Youngs Moduli (GPa) = 32.39763 27.56358 67.78676
#
# Poissons Ratio (x) = 0.21259 1.07627
# Poissons Ratio (y) = 0.24987 0.23121
# Poissons Ratio (z) = 0.51439 0.09401
#
# Static dielectric constant tensor:
#      x y z
#    x 1.591300 0.000000 0.000000 
#    y 0.000000 1.612370 0.000000 
#    z 0.000000 0.000000 1.626940 
# 
# From -- ./inp_files/71034.got.cif
#   From: 2010.05.17/outbox.cif.g08.bks.cpg/sg65_36_cif.got.tgz:71034.got - 2010.06.03 17:01:31.
