data_PCOD9486660
_publ_section_title
;
Structure prediction by ZEFSAII (Michael W. Deem and Ramdas Pophale) SiO2 
 PCOD9486660
Probable space group: C M M M
;
_chemical_formula_sum "Si O2"
_cell_formula_units_Z 96
_cell_length_a 7.660688
_cell_length_b 23.690642
_cell_length_c 26.741480
_cell_angle_alpha 90.000000
_cell_angle_beta 90.000000
_cell_angle_gamma 90.000000
_cell_volume 4853.220736
_symmetry_space_group_name_H-M "C M M M"
_symmetry_group_IT_number 65
_symmetry_cell_setting 'orthorhombic'
loop_
_space_group_symop_operation_xyz
x,y,z
-x,-y,z
x,-y,-z
-x,y,-z
-x,-y,-z
x,y,-z
-x,y,z
x,-y,z
1/2+x,1/2+y,z
1/2-x,1/2-y,z
1/2+x,1/2-y,-z
1/2-x,1/2+y,-z
1/2-x,1/2-y,-z
1/2+x,1/2+y,-z
1/2-x,1/2+y,z
1/2+x,1/2-y,z
loop_
_atom_site_type_symbol
_atom_site_label
_atom_site_fract_x
_atom_site_fract_y
_atom_site_fract_z
Si Si1 0.291669 0.500000 0.869276
Si Si2 0.703394 0.615286 0.703948
Si Si3 0.708509 0.184404 0.800201
Si Si4 0.292615 0.876333 0.899917
Si Si5 0.285199 0.500000 0.246621
Si Si6 0.710420 0.183678 0.000000
Si Si7 0.209106 0.816593 0.500000
Si Si8 0.710890 0.316626 0.609379
O O1 0.500000 0.500000 0.867293
O O2 0.234741 0.556902 0.896783
O O3 0.227705 0.500000 0.811455
O O4 0.500000 0.604119 0.692966
O O5 0.714440 0.658920 0.749700
O O6 0.775521 0.556230 0.724801
O O7 0.779142 0.645099 0.654705
O O8 0.500000 0.176959 0.797053
O O9 0.750000 0.250000 0.805386
O O10 0.777217 0.151138 0.848763
O O11 0.500000 0.865592 0.899482
O O12 0.222363 0.846741 0.949803
O O13 0.500000 0.500000 0.245430
O O14 0.750000 0.250000 0.000000
O O15 0.500000 0.177674 0.000000
O O16 0.250000 0.750000 0.500000
O O17 0.274615 0.836126 0.554334
O O18 0.000000 0.824482 0.500000
O O19 0.500000 0.320263 0.609201
O O20 0.750000 0.250000 0.616553
#
# Coordination Sequence:
#
# PCOD9486660 Si02
#       8
#     8  16  16  16   8   8   8  16
#     4  11  21  36  60  83 105 138 178 218 255 302
#     4  10  19  33  51  72  99 133 170 211 256 304
#     4  11  22  34  51  76 104 134 166 206 255 308
#     4  10  22  39  58  80 108 140 173 212 259 307
#     4   9  18  33  52  73  99 133 172 209 252 299
#     4  10  22  41  62  83 109 142 176 214 261 312
#     4   8  14  26  42  65  93 127 165 202 249 298
#     4   9  17  28  46  69  98 130 164 207 252 303
#
# _framework density 19.78068
#
# number of rings (size 3 to 8) (size 9 to 14) (size 15 to 20)
#    0.000    2.167    1.667    1.750    0.000    3.667 
#    0.000    2.083    0.000    0.500    0.000    3.500 
#    0.000    0.000    0.000   13.750    0.000   10.167 
#
# Total GULP energy -267875.119491 kJ/mol
# GULP energy per Si atom -5580.731656 kJ/mol
# Density = 1.973566 g / cm^3
# Si number density = 19.780680 Si / 1000 Ang^3
#
#
#
# Elastic Constant Matrix: (Units=GPa)
#
#
# Indices 1 2 3 4 5 6 
#
# 1 36.7227 -17.9247 -0.8516 0.0000 0.0000 0.0000
# 2 -17.9247 127.8899 76.2960 0.0000 0.0000 0.0000
# 3 -0.8516 76.2960 187.6431 0.0000 0.0000 0.0000
# 4 0.0000 0.0000 0.0000 19.8006 0.0000 0.0000
# 5 0.0000 0.0000 0.0000 0.0000 13.0908 0.0000
# 6 0.0000 0.0000 0.0000 0.0000 0.0000 -1.0004
#
#
#
# Elastic Compliance Matrix: (Units=1/GPa)
#
#
# Indices 1 2 3 4 5 6 
#
# 1 0.029825 0.005412 -0.002065 0.000000 0.000000 0.000000
# 2 0.005412 0.011306 -0.004572 0.000000 0.000000 0.000000
# 3 -0.002065 -0.004572 0.007179 0.000000 0.000000 0.000000
# 4 0.000000 0.000000 0.000000 0.050504 0.000000 0.000000
# 5 0.000000 0.000000 0.000000 0.000000 0.076389 0.000000
# 6 0.000000 0.000000 0.000000 0.000000 0.000000 -0.999576
#
#
# Mechanical properties :
#
#
# Convention : Reuss Voigt Hill
#
# Bulk Modulus (GPa) = 21.80598 51.92168 36.86383
# Shear Modulus (GPa) = -6.19858 26.02725 9.91433
#
# Velocity S-wave (km/s) = -1.77213 3.63132 2.24121
# Velocity P-wave (km/s) = 2.61926 6.62477 5.03727
#
# Compressibility (1/GPa) = 0.04585897
#
# Stress axis : x y z
#
# Youngs Moduli (GPa) = 33.52888 88.45248 139.29538
#
# Poissons Ratio (x) = -0.47873 0.28769
# Poissons Ratio (y) = -0.18147 0.63690
# Poissons Ratio (z) = 0.06925 0.40443
#
# Static dielectric constant tensor:
#      x y z
#    x 1.764180 0.000000 0.000000 
#    y 0.000000 1.655500 0.000000 
#    z 0.000000 0.000000 1.724490 
# 
# From -- ./inp_files/67938.got.cif
#   From: 2010.05.17/outbox.cif.g08.bks.cpg/sg65_34_cif.got.tgz:67938.got - 2010.06.03 17:01:31.
