data_PCOD9486520
_publ_section_title
;
Structure prediction by ZEFSAII (Michael W. Deem and Ramdas Pophale) SiO2 
 PCOD9486520
Probable space group: C M M M
;
_chemical_formula_sum "Si O2"
_cell_formula_units_Z 104
_cell_length_a 30.109355
_cell_length_b 7.571870
_cell_length_c 20.794169
_cell_angle_alpha 90.000000
_cell_angle_beta 90.000000
_cell_angle_gamma 90.000000
_cell_volume 4740.740359
_symmetry_space_group_name_H-M "C M M M"
_symmetry_group_IT_number 65
_symmetry_cell_setting 'orthorhombic'
loop_
_space_group_symop_operation_xyz
x,y,z
-x,-y,z
x,-y,-z
-x,y,-z
-x,-y,-z
x,y,-z
-x,y,z
x,-y,z
1/2+x,1/2+y,z
1/2-x,1/2-y,z
1/2+x,1/2-y,-z
1/2-x,1/2+y,-z
1/2-x,1/2-y,-z
1/2+x,1/2+y,-z
1/2-x,1/2+y,z
1/2+x,1/2-y,z
loop_
_atom_site_type_symbol
_atom_site_label
_atom_site_fract_x
_atom_site_fract_y
_atom_site_fract_z
Si Si1 0.199022 0.711416 0.809753
Si Si2 0.143080 0.716710 0.069498
Si Si3 0.051574 0.783176 0.500000
Si Si4 0.300733 0.790564 0.335184
Si Si5 0.951403 0.294615 0.893188
Si Si6 0.550758 0.287469 0.255057
Si Si7 0.605086 0.708769 0.375615
O O1 0.192864 0.500000 0.806687
O O2 0.250000 0.750000 0.825665
O O3 0.168618 0.779551 0.867236
O O4 0.191698 0.782504 0.737455
O O5 0.143061 0.500000 0.071811
O O6 0.092298 0.779263 0.074231
O O7 0.162246 0.767005 0.000000
O O8 0.078037 0.722438 0.563285
O O9 0.000000 0.730284 0.500000
O O10 0.052021 0.000000 0.500000
O O11 0.250000 0.750000 0.354757
O O12 0.341977 0.731406 0.378294
O O13 0.303571 0.000000 0.331690
O O14 0.953696 0.500000 0.912149
O O15 0.943498 0.287509 0.816251
O O16 0.000000 0.215041 0.905822
O O17 0.500000 0.249414 0.276155
O O18 0.554669 0.500000 0.248729
O O19 0.585224 0.220822 0.308311
O O20 0.596078 0.500000 0.373800
#
# Coordination Sequence:
#
# PCOD9486520 Si02
#       7
#    16  16   8  16  16  16  16
#     4   9  18  32  50  71  95 124 157 197 245 293
#     4   9  17  29  45  66  93 124 157 194 240 294
#     4   9  18  34  56  81 110 143 176 207 240 287
#     4  10  20  35  55  78 104 132 166 209 255 300
#     4   9  17  29  46  68  92 120 159 205 248 290
#     4   9  17  29  47  72 100 129 162 202 248 297
#     4  10  19  32  53  79 105 135 171 207 245 291
#
# _framework density 21.937503
#
# number of rings (size 3 to 8) (size 9 to 14) (size 15 to 20)
#    0.000    2.692    0.000    1.846    0.000    4.923 
#    0.000    3.077    0.000    3.231    0.000    2.154 
#    0.000    0.000    0.000    0.000    0.000    0.000 
#
# Total GULP energy -290243.841877 kJ/mol
# GULP energy per Si atom -5581.612344 kJ/mol
# Density = 2.188757 g / cm^3
# Si number density = 21.937503 Si / 1000 Ang^3
#
#
#
# Elastic Constant Matrix: (Units=GPa)
#
#
# Indices 1 2 3 4 5 6 
#
# 1 128.0694 -7.8158 64.0458 0.0000 0.0000 0.0000
# 2 -7.8158 51.8160 -0.6814 0.0000 0.0000 0.0000
# 3 64.0458 -0.6814 59.6584 0.0000 0.0000 0.0000
# 4 0.0000 0.0000 0.0000 2.3797 0.0000 0.0000
# 5 0.0000 0.0000 0.0000 0.0000 13.9139 0.0000
# 6 0.0000 0.0000 0.0000 0.0000 0.0000 14.8285
#
#
#
# Elastic Compliance Matrix: (Units=1/GPa)
#
#
# Indices 1 2 3 4 5 6 
#
# 1 0.017139 0.002344 -0.018373 0.000000 0.000000 0.000000
# 2 0.002344 0.019622 -0.002292 0.000000 0.000000 0.000000
# 3 -0.018373 -0.002292 0.036460 0.000000 0.000000 0.000000
# 4 0.000000 0.000000 0.000000 0.420217 0.000000 0.000000
# 5 0.000000 0.000000 0.000000 0.000000 0.071870 0.000000
# 6 0.000000 0.000000 0.000000 0.000000 0.000000 0.067438
#
#
# Mechanical properties :
#
#
# Convention : Reuss Voigt Hill
#
# Bulk Modulus (GPa) = 27.33780 38.96011 33.14895
# Shear Modulus (GPa) = 7.33587 18.49079 12.91333
#
# Velocity S-wave (km/s) = 1.83064 2.90640 2.42883
# Velocity P-wave (km/s) = 4.11789 5.39083 4.79677
#
# Compressibility (1/GPa) = 0.03657938
#
# Stress axis : x y z
#
# Youngs Moduli (GPa) = 58.34490 50.96214 27.42710
#
# Poissons Ratio (x) = -0.11944 0.50392
# Poissons Ratio (y) = -0.13674 0.06286
# Poissons Ratio (z) = 1.07198 0.11680
#
# Static dielectric constant tensor:
#      x y z
#    x 1.787150 0.000000 0.000000 
#    y 0.000000 1.821840 0.000000 
#    z 0.000000 0.000000 1.807120 
# 
# From -- ./inp_files/66373.got.cif
#   From: 2010.05.17/outbox.cif.g08.bks.cpg/sg65_34_cif.got.tgz:66373.got - 2010.06.03 17:01:31.
