data_PCOD9486118
_publ_section_title
;
Structure prediction by ZEFSAII (Michael W. Deem and Ramdas Pophale) SiO2 
 PCOD9486118
Probable space group: C M M M
;
_chemical_formula_sum "Si O2"
_cell_formula_units_Z 112
_cell_length_a 28.915995
_cell_length_b 17.866434
_cell_length_c 13.107083
_cell_angle_alpha 90.000000
_cell_angle_beta 90.000000
_cell_angle_gamma 90.000000
_cell_volume 6771.456142
_symmetry_space_group_name_H-M "C M M M"
_symmetry_group_IT_number 65
_symmetry_cell_setting 'orthorhombic'
loop_
_space_group_symop_operation_xyz
x,y,z
-x,-y,z
x,-y,-z
-x,y,-z
-x,-y,-z
x,y,-z
-x,y,z
x,-y,z
1/2+x,1/2+y,z
1/2-x,1/2-y,z
1/2+x,1/2-y,-z
1/2-x,1/2+y,-z
1/2-x,1/2-y,-z
1/2+x,1/2+y,-z
1/2-x,1/2+y,z
1/2+x,1/2-y,z
loop_
_atom_site_type_symbol
_atom_site_label
_atom_site_fract_x
_atom_site_fract_y
_atom_site_fract_z
Si Si1 0.685129 0.589404 0.379211
Si Si2 0.284445 0.912205 0.716709
Si Si3 0.121700 0.636298 0.382157
Si Si4 0.555102 0.083375 0.206863
Si Si5 0.200406 0.290232 0.883172
Si Si6 0.872083 0.789295 0.735132
Si Si7 0.055194 0.743154 0.114930
O O1 0.683744 0.605772 0.500000
O O2 0.679195 0.500000 0.366270
O O3 0.735740 0.610151 0.334562
O O4 0.647072 0.637011 0.318699
O O5 0.327255 0.894934 0.642186
O O6 0.293834 0.866295 0.819533
O O7 0.282742 0.000000 0.737176
O O8 0.110302 0.627428 0.500000
O O9 0.085161 0.595505 0.308420
O O10 0.122573 0.723191 0.347958
O O11 0.500000 0.087108 0.227556
O O12 0.566443 0.155237 0.136821
O O13 0.564717 0.000000 0.164637
O O14 0.250000 0.250000 0.884029
O O15 0.165080 0.240107 0.818228
O O16 0.185388 0.301269 0.000000
O O17 0.919181 0.791756 0.799710
O O18 0.000000 0.750514 0.122593
O O19 0.069393 0.762573 0.000000
#
# Coordination Sequence:
#
# PCOD9486118 Si02
#       7
#    16  16  16  16  16  16  16
#     4  10  20  34  53  75  99 127 159 200 250 298
#     4  10  20  33  48  71 100 130 168 211 247 287
#     4  10  20  31  47  69  96 133 173 208 246 291
#     4   9  18  31  46  69 101 133 169 210 247 286
#     4  10  19  32  49  70  98 133 165 196 238 289
#     4  10  19  34  52  74  99 128 161 204 243 292
#     4   9  18  33  54  77  99 127 163 202 245 288
#
# _framework density 16.540016000000001
#
# number of rings (size 3 to 8) (size 9 to 14) (size 15 to 20)
#    0.000    2.286    1.429    1.714    0.000    2.571 
#    0.000    4.286    0.000    8.571    0.000    2.000 
#    0.000    0.000    0.000    0.000    0.000    0.000 
#
# Total GULP energy -312289.647345 kJ/mol
# GULP energy per Si atom -5576.600845 kJ/mol
# Density = 1.650237 g / cm^3
# Si number density = 16.540016 Si / 1000 Ang^3
#
#
#
# Elastic Constant Matrix: (Units=GPa)
#
#
# Indices 1 2 3 4 5 6 
#
# 1 41.8913 17.5641 18.0599 0.0000 0.0000 0.0000
# 2 17.5641 44.8869 32.1022 0.0000 0.0000 0.0000
# 3 18.0599 32.1022 91.7074 0.0000 0.0000 0.0000
# 4 0.0000 0.0000 0.0000 8.2357 0.0000 0.0000
# 5 0.0000 0.0000 0.0000 0.0000 14.6545 0.0000
# 6 0.0000 0.0000 0.0000 0.0000 0.0000 23.7786
#
#
#
# Elastic Compliance Matrix: (Units=1/GPa)
#
#
# Indices 1 2 3 4 5 6 
#
# 1 0.028919 -0.009662 -0.002313 0.000000 0.000000 0.000000
# 2 -0.009662 0.032946 -0.009630 0.000000 0.000000 0.000000
# 3 -0.002313 -0.009630 0.014731 0.000000 0.000000 0.000000
# 4 0.000000 0.000000 0.000000 0.121423 0.000000 0.000000
# 5 0.000000 0.000000 0.000000 0.000000 0.068238 0.000000
# 6 0.000000 0.000000 0.000000 0.000000 0.000000 0.042055
#
#
# Mechanical properties :
#
#
# Convention : Reuss Voigt Hill
#
# Bulk Modulus (GPa) = 29.95229 34.88202 32.41716
# Shear Modulus (GPa) = 13.78738 16.71772 15.25255
#
# Velocity S-wave (km/s) = 2.89031 3.18267 3.04000
# Velocity P-wave (km/s) = 5.41173 5.88567 5.65367
#
# Compressibility (1/GPa) = 0.03338643
#
# Stress axis : x y z
#
# Youngs Moduli (GPa) = 34.57877 30.35253 67.88512
#
# Poissons Ratio (x) = 0.29326 0.15701
# Poissons Ratio (y) = 0.33410 0.65374
# Poissons Ratio (z) = 0.07998 0.29230
#
# Static dielectric constant tensor:
#      x y z
#    x 1.569310 0.000000 0.000000 
#    y 0.000000 1.546330 0.000000 
#    z 0.000000 0.000000 1.538670 
# 
# From -- ./inp_files/25581.got.cif
#   From: 2010.05.17/outbox.cif.g08.bks.cpg/sg65_13_cif.got.tgz:25581.got - 2010.06.03 17:01:31.
