data_PCOD9486390
_publ_section_title
;
Structure prediction by ZEFSAII (Michael W. Deem and Ramdas Pophale) SiO2 
 PCOD9486390
Probable space group: C M M M
;
_chemical_formula_sum "Si O2"
_cell_formula_units_Z 96
_cell_length_a 24.421965
_cell_length_b 26.214505
_cell_length_c 7.782842
_cell_angle_alpha 90.000000
_cell_angle_beta 90.000000
_cell_angle_gamma 90.000000
_cell_volume 4982.651126
_symmetry_space_group_name_H-M "C M M M"
_symmetry_group_IT_number 65
_symmetry_cell_setting 'orthorhombic'
loop_
_space_group_symop_operation_xyz
x,y,z
-x,-y,z
x,-y,-z
-x,y,-z
-x,-y,-z
x,y,-z
-x,y,z
x,-y,z
1/2+x,1/2+y,z
1/2-x,1/2-y,z
1/2+x,1/2-y,-z
1/2-x,1/2+y,-z
1/2-x,1/2-y,-z
1/2+x,1/2+y,-z
1/2-x,1/2+y,z
1/2+x,1/2-y,z
loop_
_atom_site_type_symbol
_atom_site_label
_atom_site_fract_x
_atom_site_fract_y
_atom_site_fract_z
Si Si1 0.247606 0.307999 0.295319
Si Si2 0.437300 0.749766 0.791962
Si Si3 0.133611 0.348876 0.705778
Si Si4 0.562573 0.057813 0.290021
Si Si5 0.634087 0.654286 0.203605
Si Si6 0.937936 0.941929 0.707103
O O1 0.239353 0.303337 0.500000
O O2 0.250000 0.250000 0.225636
O O3 0.194153 0.336756 0.225566
O O4 0.304526 0.337000 0.268802
O O5 0.500000 0.750463 0.731157
O O6 0.404586 0.800080 0.738924
O O7 0.404722 0.699885 0.728499
O O8 0.438391 0.748127 0.000000
O O9 0.137770 0.355443 0.500000
O O10 0.104164 0.399482 0.773707
O O11 0.563020 0.058315 0.500000
O O12 0.500000 0.069585 0.238451
O O13 0.575604 0.000000 0.236835
O O14 0.605829 0.600316 0.240984
O O15 0.636808 0.660270 0.000000
O O16 0.939108 0.942820 0.500000
O O17 0.000000 0.928634 0.765989
O O18 0.925986 0.000000 0.765080
#
# Coordination Sequence:
#
# PCOD9486390 Si02
#       6
#    16  16  16  16  16  16
#     4  10  20  35  52  73 105 140 178 223 265 309
#     4  10  21  34  48  72 106 136 164 208 264 318
#     4  10  19  32  52  75  98 131 174 215 255 308
#     4   8  14  26  46  73 101 124 153 201 255 301
#     4  11  22  35  54  78 107 142 181 219 263 323
#     4   9  19  37  60  84 110 141 177 220 272 325
#
# _framework density 19.266852
#
# number of rings (size 3 to 8) (size 9 to 14) (size 15 to 20)
#    0.000    2.333    1.667    2.500    0.000    4.000 
#    0.000    1.667    0.000    3.500    0.000    2.333 
#    0.000    0.000    0.000    0.000    0.000    0.000 
#
# Total GULP energy -267904.919373 kJ/mol
# GULP energy per Si atom -5581.352487 kJ/mol
# Density = 1.922300 g / cm^3
# Si number density = 19.266852 Si / 1000 Ang^3
#
#
#
# Elastic Constant Matrix: (Units=GPa)
#
#
# Indices 1 2 3 4 5 6 
#
# 1 191.2476 114.3324 -2.8598 0.0000 0.0000 0.0000
# 2 114.3324 152.5935 -4.3588 0.0000 0.0000 0.0000
# 3 -2.8598 -4.3588 19.1618 0.0000 0.0000 0.0000
# 4 0.0000 0.0000 0.0000 414.9928 0.0000 0.0000
# 5 0.0000 0.0000 0.0000 0.0000 -4.9371 0.0000
# 6 0.0000 0.0000 0.0000 0.0000 0.0000 10.7444
#
#
#
# Elastic Compliance Matrix: (Units=1/GPa)
#
#
# Indices 1 2 3 4 5 6 
#
# 1 0.009472 -0.007103 -0.000202 0.000000 0.000000 0.000000
# 2 -0.007103 0.011922 0.001652 0.000000 0.000000 0.000000
# 3 -0.000202 0.001652 0.052533 0.000000 0.000000 0.000000
# 4 0.000000 0.000000 0.000000 0.002410 0.000000 0.000000
# 5 0.000000 0.000000 0.000000 0.000000 -0.202548 0.000000
# 6 0.000000 0.000000 0.000000 0.000000 0.000000 0.093071
#
#
# Mechanical properties :
#
#
# Convention : Reuss Voigt Hill
#
# Bulk Modulus (GPa) = 15.96898 64.13674 40.05286
# Shear Modulus (GPa) = -5208.54817 101.21930 -2553.66444
#
# Velocity S-wave (km/s) = -52.05037 7.25600 -36.44580
# Velocity P-wave (km/s) = 60.03345 10.17646 41.83572
#
# Compressibility (1/GPa) = 0.06262139
#
# Stress axis : x y z
#
# Youngs Moduli (GPa) = 105.57401 83.87573 19.03575
#
# Poissons Ratio (x) = 0.59575 0.00385
# Poissons Ratio (y) = 0.74987 -0.03145
# Poissons Ratio (z) = 0.02133 -0.13856
#
# Static dielectric constant tensor:
#      x y z
#    x 1.665010 0.000000 0.000000 
#    y 0.000000 1.657020 0.000000 
#    z 0.000000 0.000000 1.683160 
# 
# From -- ./inp_files/12256.got.cif
#   From: 2010.05.17/outbox.cif.g08.bks.cpg/sg65_7_cif.got.tgz:12256.got - 2010.06.03 17:01:31.
