data_PCOD9486904
_publ_section_title
;
Structure prediction by ZEFSAII (Michael W. Deem and Ramdas Pophale) SiO2 
 PCOD9486904
Probable space group: C M M M
;
_chemical_formula_sum "Si O2"
_cell_formula_units_Z 80
_cell_length_a 18.402662
_cell_length_b 8.645797
_cell_length_c 27.411245
_cell_angle_alpha 90.000000
_cell_angle_beta 90.000000
_cell_angle_gamma 90.000000
_cell_volume 4361.284773
_symmetry_space_group_name_H-M "C M M M"
_symmetry_group_IT_number 65
_symmetry_cell_setting 'orthorhombic'
loop_
_space_group_symop_operation_xyz
x,y,z
-x,-y,z
x,-y,-z
-x,y,-z
-x,-y,-z
x,y,-z
-x,y,z
x,-y,z
1/2+x,1/2+y,z
1/2-x,1/2-y,z
1/2+x,1/2-y,-z
1/2-x,1/2+y,-z
1/2-x,1/2-y,-z
1/2+x,1/2+y,-z
1/2-x,1/2+y,z
1/2+x,1/2-y,z
loop_
_atom_site_type_symbol
_atom_site_label
_atom_site_fract_x
_atom_site_fract_y
_atom_site_fract_z
Si Si1 0.415650 0.814982 0.500000
Si Si2 0.085936 0.184334 0.000000
Si Si3 0.167260 0.186156 0.194829
Si Si4 0.667825 0.686251 0.300321
Si Si5 0.332114 0.184393 0.093648
Si Si6 0.167904 0.814080 0.406897
O O1 0.500000 0.770975 0.500000
O O2 0.377424 0.750355 0.451731
O O3 0.409538 0.000000 0.500000
O O4 0.122368 0.256000 0.047954
O O5 0.000000 0.213657 0.000000
O O6 0.098221 0.000000 0.000000
O O7 0.250000 0.250000 0.196027
O O8 0.134409 0.230970 0.247787
O O9 0.135686 0.255635 0.145190
O O10 0.168520 0.000000 0.190934
O O11 0.671179 0.500000 0.299981
O O12 0.750000 0.750000 0.300425
O O13 0.636914 0.731837 0.353209
O O14 0.250000 0.250000 0.089382
O O15 0.328603 0.000000 0.094208
O O16 0.250000 0.750000 0.410189
O O17 0.170191 0.000000 0.409502
#
# Coordination Sequence:
#
# PCOD9486904 Si02
#       6
#     8   8  16  16  16  16
#     4  11  24  39  52  69  97 133 172 215 262 307
#     4  11  24  41  58  75  99 133 172 215 264 311
#     4   9  15  26  45  72 105 135 166 203 247 295
#     4   8  15  26  44  72 103 132 162 201 246 294
#     4  11  21  34  54  80 109 138 172 211 251 298
#     4  10  19  33  54  79 105 133 168 208 252 301
#
# _framework density 18.343219000000001
#
# number of rings (size 3 to 8) (size 9 to 14) (size 15 to 20)
#    0.000    2.200    0.000    5.400    0.000    3.200 
#    0.000    0.000    0.000    1.200    0.000    2.800 
#    0.000    0.000    0.000    0.000    0.000    0.000 
#
# Total GULP energy -222944.759583 kJ/mol
# GULP energy per Si atom -5573.618990 kJ/mol
# Density = 1.830147 g / cm^3
# Si number density = 18.343219 Si / 1000 Ang^3
#
#
#
# Elastic Constant Matrix: (Units=GPa)
#
#
# Indices 1 2 3 4 5 6 
#
# 1 42.4987 38.5317 65.1890 0.0000 0.0000 0.0000
# 2 38.5317 79.9573 70.9967 0.0000 0.0000 0.0000
# 3 65.1890 70.9967 253.4437 0.0000 0.0000 0.0000
# 4 0.0000 0.0000 0.0000 57.5970 0.0000 0.0000
# 5 0.0000 0.0000 0.0000 0.0000 -5.0024 0.0000
# 6 0.0000 0.0000 0.0000 0.0000 0.0000 15.7466
#
#
#
# Elastic Compliance Matrix: (Units=1/GPa)
#
#
# Indices 1 2 3 4 5 6 
#
# 1 0.052935 -0.017863 -0.008612 0.000000 0.000000 0.000000
# 2 -0.017863 0.022675 -0.001757 0.000000 0.000000 0.000000
# 3 -0.008612 -0.001757 0.006653 0.000000 0.000000 0.000000
# 4 0.000000 0.000000 0.000000 0.017362 0.000000 0.000000
# 5 0.000000 0.000000 0.000000 0.000000 -0.199902 0.000000
# 6 0.000000 0.000000 0.000000 0.000000 0.000000 0.063506
#
#
# Mechanical properties :
#
#
# Convention : Reuss Voigt Hill
#
# Bulk Modulus (GPa) = 38.76068 80.59273 59.67671
# Shear Modulus (GPa) = 176.71955 27.08038 101.89997
#
# Velocity S-wave (km/s) = 9.82597 3.84645 7.46140
# Velocity P-wave (km/s) = 12.24376 7.98488 10.33605
#
# Compressibility (1/GPa) = 0.02579934
#
# Stress axis : x y z
#
# Youngs Moduli (GPa) = 18.89096 44.10061 150.30854
#
# Poissons Ratio (x) = 0.78777 1.29441
# Poissons Ratio (y) = 0.33745 0.26415
# Poissons Ratio (z) = 0.16268 0.07750
#
# Static dielectric constant tensor:
#      x y z
#    x 1.581620 0.000000 0.000000 
#    y 0.000000 1.611450 0.000000 
#    z 0.000000 0.000000 1.701230 
# 
# From -- ./inp_files/75066.got.cif
#   From: 2010.05.17/outbox.cif.g08.bks.cpg/sg65_38_cif.got.tgz:75066.got - 2010.06.03 17:01:31.
