data_PCOD9486184
_publ_section_title
;
Structure prediction by ZEFSAII (Michael W. Deem and Ramdas Pophale) SiO2 
 PCOD9486184
Probable space group: C M M M
;
_chemical_formula_sum "Si O2"
_cell_formula_units_Z 88
_cell_length_a 18.205478
_cell_length_b 30.369575
_cell_length_c 7.594778
_cell_angle_alpha 90.000000
_cell_angle_beta 90.000000
_cell_angle_gamma 90.000000
_cell_volume 4199.096779
_symmetry_space_group_name_H-M "C M M M"
_symmetry_group_IT_number 65
_symmetry_cell_setting 'orthorhombic'
loop_
_space_group_symop_operation_xyz
x,y,z
-x,-y,z
x,-y,-z
-x,y,-z
-x,-y,-z
x,y,-z
-x,y,z
x,-y,z
1/2+x,1/2+y,z
1/2-x,1/2-y,z
1/2+x,1/2-y,-z
1/2-x,1/2+y,-z
1/2-x,1/2-y,-z
1/2+x,1/2+y,-z
1/2-x,1/2+y,z
1/2+x,1/2-y,z
loop_
_atom_site_type_symbol
_atom_site_label
_atom_site_fract_x
_atom_site_fract_y
_atom_site_fract_z
Si Si1 0.910415 0.290656 0.203511
Si Si2 0.214179 0.450124 0.710809
Si Si3 0.644793 0.602351 0.288977
Si Si4 0.083468 0.386108 0.787661
Si Si5 0.584055 0.695243 0.788289
Si Si6 0.500000 0.449052 0.715476
O O1 0.889610 0.338125 0.280592
O O2 0.890227 0.243061 0.280640
O O3 0.000000 0.290767 0.202326
O O4 0.885189 0.290647 0.000000
O O5 0.222904 0.452922 0.500000
O O6 0.215266 0.500000 0.779860
O O7 0.281604 0.420602 0.779574
O O8 0.138589 0.424893 0.744129
O O9 0.645049 0.597907 0.500000
O O10 0.634634 0.653802 0.251212
O O11 0.572650 0.576473 0.224200
O O12 0.000000 0.393790 0.725851
O O13 0.080397 0.382383 0.000000
O O14 0.500000 0.686611 0.725316
O O15 0.579855 0.699262 0.000000
O O16 0.500000 0.500000 0.768934
O O17 0.500000 0.448517 0.500000
#
# Coordination Sequence:
#
# PCOD9486184 Si02
#       6
#    16  16  16  16  16   8
#     4   7  12  26  49  75 101 130 163 200 244 298
#     4  10  22  38  53  72 102 137 170 208 258 309
#     4  10  19  32  50  73 100 133 175 216 250 291
#     4   9  18  35  59  82 101 126 167 212 251 301
#     4   9  16  28  49  76 105 135 166 203 251 301
#     4   9  16  28  49  71  91 125 175 219 248 283
#
# _framework density 20.956889
#
# number of rings (size 3 to 8) (size 9 to 14) (size 15 to 20)
#    0.000    3.000    0.909    2.727    0.000    4.000 
#    0.000    3.636    0.000   10.909    0.000    0.000 
#    0.000    0.000    0.000    0.000    0.000    0.000 
#
# Total GULP energy -245344.734890 kJ/mol
# GULP energy per Si atom -5576.016702 kJ/mol
# Density = 2.090919 g / cm^3
# Si number density = 20.956889 Si / 1000 Ang^3
#
#
#
# Elastic Constant Matrix: (Units=GPa)
#
#
# Indices 1 2 3 4 5 6 
#
# 1 97.2395 79.0321 4.9300 0.0000 0.0000 0.0000
# 2 79.0321 174.2084 6.8935 0.0000 0.0000 0.0000
# 3 4.9300 6.8935 45.8840 0.0000 0.0000 0.0000
# 4 0.0000 0.0000 0.0000 21.6352 0.0000 0.0000
# 5 0.0000 0.0000 0.0000 0.0000 12.8506 0.0000
# 6 0.0000 0.0000 0.0000 0.0000 0.0000 -3.5759
#
#
#
# Elastic Compliance Matrix: (Units=1/GPa)
#
#
# Indices 1 2 3 4 5 6 
#
# 1 0.016309 -0.007373 -0.000645 0.000000 0.000000 0.000000
# 2 -0.007373 0.009108 -0.000576 0.000000 0.000000 0.000000
# 3 -0.000645 -0.000576 0.021950 0.000000 0.000000 0.000000
# 4 0.000000 0.000000 0.000000 0.046221 0.000000 0.000000
# 5 0.000000 0.000000 0.000000 0.000000 0.077817 0.000000
# 6 0.000000 0.000000 0.000000 0.000000 0.000000 -0.279649
#
#
# Mechanical properties :
#
#
# Convention : Reuss Voigt Hill
#
# Bulk Modulus (GPa) = 33.13562 55.44923 44.29243
# Shear Modulus (GPa) = -61.73165 21.28042 -20.22561
#
# Velocity S-wave (km/s) = -5.43327 3.19005 -3.10999
# Velocity P-wave (km/s) = 4.84922 6.33125 2.87835
#
# Compressibility (1/GPa) = 0.03017901
#
# Stress axis : x y z
#
# Youngs Moduli (GPa) = 61.31421 109.79191 45.55832
#
# Poissons Ratio (x) = 0.80955 0.02937
# Poissons Ratio (y) = 0.45210 0.02625
# Poissons Ratio (z) = 0.03952 0.06326
#
# Static dielectric constant tensor:
#      x y z
#    x 1.723680 0.000000 0.000000 
#    y 0.000000 1.776720 0.000000 
#    z 0.000000 0.000000 1.805620 
# 
# From -- ./inp_files/10063.got.cif
#   From: 2010.05.17/outbox.cif.g08.bks.cpg/sg65_6_cif.got.tgz:10063.got - 2010.06.03 17:01:31.
