data_PCOD9486681
_publ_section_title
;
Structure prediction by ZEFSAII (Michael W. Deem and Ramdas Pophale) SiO2 
 PCOD9486681
Probable space group: C M M M
;
_chemical_formula_sum "Si O2"
_cell_formula_units_Z 72
_cell_length_a 8.383607
_cell_length_b 14.536203
_cell_length_c 25.723012
_cell_angle_alpha 90.000000
_cell_angle_beta 90.000000
_cell_angle_gamma 90.000000
_cell_volume 3134.755776
_symmetry_space_group_name_H-M "C M M M"
_symmetry_group_IT_number 65
_symmetry_cell_setting 'orthorhombic'
loop_
_space_group_symop_operation_xyz
x,y,z
-x,-y,z
x,-y,-z
-x,y,-z
-x,-y,-z
x,y,-z
-x,y,z
x,-y,z
1/2+x,1/2+y,z
1/2-x,1/2-y,z
1/2+x,1/2-y,-z
1/2-x,1/2+y,-z
1/2-x,1/2-y,-z
1/2+x,1/2+y,-z
1/2-x,1/2+y,z
1/2+x,1/2-y,z
loop_
_atom_site_type_symbol
_atom_site_label
_atom_site_fract_x
_atom_site_fract_y
_atom_site_fract_z
Si Si1 0.808663 0.643973 0.056531
Si Si2 0.324550 0.612500 0.618168
Si Si3 0.189039 0.854511 0.834792
Si Si4 0.323484 0.107260 0.722599
Si Si5 0.500000 0.112461 0.439943
O O1 0.750000 0.750000 0.055563
O O2 0.743351 0.603397 0.110191
O O3 0.000000 0.642232 0.059263
O O4 0.760657 0.605035 0.000000
O O5 0.500000 0.644326 0.600226
O O6 0.328998 0.500000 0.614867
O O7 0.295422 0.641636 0.678187
O O8 0.164908 0.641761 0.587719
O O9 0.250000 0.750000 0.836575
O O10 0.261450 0.890163 0.781226
O O11 0.000000 0.858903 0.831915
O O12 0.500000 0.150306 0.719783
O O13 0.340871 0.000000 0.709488
O O14 0.500000 0.140099 0.500000
O O15 0.500000 0.000000 0.437790
#
# Coordination Sequence:
#
# PCOD9486681 Si02
#       5
#    16  16  16  16   8
#     4   9  16  27  44  65  90 121 157 195 242 297
#     4   9  16  27  43  64  91 126 165 200 241 294
#     4  11  21  32  48  72 101 129 160 205 251 292
#     4  10  19  33  52  71  96 132 168 203 248 302
#     4   9  16  26  40  62  94 128 161 201 246 288
#
# _framework density 22.968295000000001
#
# number of rings (size 3 to 8) (size 9 to 14) (size 15 to 20)
#    0.000    2.333    1.111    4.667    0.000    3.111 
#    0.000    2.222    0.000    0.667    0.000    4.667 
#    0.000    0.889    0.444    0.000    0.000    0.000 
#
# Total GULP energy -200942.455739 kJ/mol
# GULP energy per Si atom -5581.734882 kJ/mol
# Density = 2.291602 g / cm^3
# Si number density = 22.968295 Si / 1000 Ang^3
#
#
#
# Elastic Constant Matrix: (Units=GPa)
#
#
# Indices 1 2 3 4 5 6 
#
# 1 197.1081 5.4914 84.4986 0.0000 0.0000 0.0000
# 2 5.4914 56.4100 -1.7081 0.0000 0.0000 0.0000
# 3 84.4986 -1.7081 166.0780 0.0000 0.0000 0.0000
# 4 0.0000 0.0000 0.0000 14.3897 0.0000 0.0000
# 5 0.0000 0.0000 0.0000 0.0000 15.0807 0.0000
# 6 0.0000 0.0000 0.0000 0.0000 0.0000 9.2168
#
#
#
# Elastic Compliance Matrix: (Units=1/GPa)
#
#
# Indices 1 2 3 4 5 6 
#
# 1 0.006519 -0.000735 -0.003324 0.000000 0.000000 0.000000
# 2 -0.000735 0.017816 0.000557 0.000000 0.000000 0.000000
# 3 -0.003324 0.000557 0.007718 0.000000 0.000000 0.000000
# 4 0.000000 0.000000 0.000000 0.069494 0.000000 0.000000
# 5 0.000000 0.000000 0.000000 0.000000 0.066310 0.000000
# 6 0.000000 0.000000 0.000000 0.000000 0.000000 0.108497
#
#
# Mechanical properties :
#
#
# Convention : Reuss Voigt Hill
#
# Bulk Modulus (GPa) = 39.92239 66.23997 53.08118
# Shear Modulus (GPa) = 17.14041 29.82507 23.48274
#
# Velocity S-wave (km/s) = 2.73475 3.60742 3.20096
# Velocity P-wave (km/s) = 5.23364 6.80101 6.06814
#
# Compressibility (1/GPa) = 0.02504860
#
# Stress axis : x y z
#
# Youngs Moduli (GPa) = 153.39879 56.12997 129.56079
#
# Poissons Ratio (x) = 0.04127 0.43070
# Poissons Ratio (y) = 0.11279 -0.07221
# Poissons Ratio (z) = 0.50995 -0.03128
#
# Static dielectric constant tensor:
#      x y z
#    x 1.815000 0.000000 0.000000 
#    y 0.000000 1.911950 0.000000 
#    z 0.000000 0.000000 1.874500 
# 
# From -- ./inp_files/67226.got.cif
#   From: 2010.05.17/outbox.cif.g08.bks.cpg/sg65_34_cif.got.tgz:67226.got - 2010.06.03 17:01:31.
