data_PCOD9486409
_publ_section_title
;
Structure prediction by ZEFSAII (Michael W. Deem and Ramdas Pophale) SiO2 
 PCOD9486409
Probable space group: C M M M
;
_chemical_formula_sum "Si O2"
_cell_formula_units_Z 104
_cell_length_a 26.054761
_cell_length_b 17.372160
_cell_length_c 14.562194
_cell_angle_alpha 90.000000
_cell_angle_beta 90.000000
_cell_angle_gamma 90.000000
_cell_volume 6591.249128
_symmetry_space_group_name_H-M "C M M M"
_symmetry_group_IT_number 65
_symmetry_cell_setting 'orthorhombic'
loop_
_space_group_symop_operation_xyz
x,y,z
-x,-y,z
x,-y,-z
-x,y,-z
-x,-y,-z
x,y,-z
-x,y,z
x,-y,z
1/2+x,1/2+y,z
1/2-x,1/2-y,z
1/2+x,1/2-y,-z
1/2-x,1/2+y,-z
1/2-x,1/2-y,-z
1/2+x,1/2+y,-z
1/2-x,1/2+y,z
1/2+x,1/2-y,z
loop_
_atom_site_type_symbol
_atom_site_label
_atom_site_fract_x
_atom_site_fract_y
_atom_site_fract_z
Si Si1 0.619748 0.154904 0.391693
Si Si2 0.440802 0.000000 0.611520
Si Si3 0.357310 0.683530 0.106058
Si Si4 0.198789 0.299996 0.240736
Si Si5 0.438412 0.315918 0.397041
Si Si6 0.938441 0.909424 0.783557
Si Si7 0.247552 0.091090 0.898088
O O1 0.631970 0.146917 0.500000
O O2 0.589244 0.077922 0.362078
O O3 0.669309 0.170759 0.329992
O O4 0.584680 0.231189 0.381781
O O5 0.500000 0.000000 0.643683
O O6 0.442586 0.000000 0.500000
O O7 0.339506 0.749781 0.176626
O O8 0.407679 0.640212 0.142047
O O9 0.310074 0.623327 0.109418
O O10 0.362364 0.709347 0.000000
O O11 0.250000 0.250000 0.261655
O O12 0.218353 0.370094 0.178990
O O13 0.422883 0.341429 0.500000
O O14 0.500000 0.310188 0.395860
O O15 0.423682 0.374222 0.316063
O O16 0.000000 0.901649 0.794043
O O17 0.925920 0.000000 0.789131
O O18 0.247548 0.000000 0.891406
O O19 0.266224 0.114428 0.000000
#
# Coordination Sequence:
#
# PCOD9486409 Si02
#       7
#    16   8  16  16  16  16  16
#     4  10  19  32  52  76 103 134 166 200 250 306
#     4   9  18  32  52  80 107 129 163 213 257 298
#     4  10  19  34  52  71  98 131 165 205 253 295
#     4  10  20  33  50  74 100 132 168 209 247 293
#     4   9  17  31  51  72  96 128 165 204 245 293
#     4  10  20  32  48  73 101 128 164 205 246 297
#     4   9  18  32  52  75  96 123 163 208 249 291
#
# _framework density 15.778496000000001
#
# number of rings (size 3 to 8) (size 9 to 14) (size 15 to 20)
#    0.000    2.385    1.538    1.385    1.077    5.538 
#    0.000    2.308    0.000    0.000    0.000    0.000 
#    0.000    1.231    0.000    0.000    0.000    0.000 
#
# Total GULP energy -289752.018647 kJ/mol
# GULP energy per Si atom -5572.154205 kJ/mol
# Density = 1.574258 g / cm^3
# Si number density = 15.778496 Si / 1000 Ang^3
#
#
#
# Elastic Constant Matrix: (Units=GPa)
#
#
# Indices 1 2 3 4 5 6 
#
# 1 43.8227 24.9635 41.0318 0.0000 0.0000 0.0000
# 2 24.9635 53.9934 32.3849 0.0000 0.0000 0.0000
# 3 41.0318 32.3849 78.2762 0.0000 0.0000 0.0000
# 4 0.0000 0.0000 0.0000 21.4091 0.0000 0.0000
# 5 0.0000 0.0000 0.0000 0.0000 26.2650 0.0000
# 6 0.0000 0.0000 0.0000 0.0000 0.0000 15.9111
#
#
#
# Elastic Compliance Matrix: (Units=1/GPa)
#
#
# Indices 1 2 3 4 5 6 
#
# 1 0.048210 -0.009486 -0.021347 0.000000 0.000000 0.000000
# 2 -0.009486 0.026500 -0.005991 0.000000 0.000000 0.000000
# 3 -0.021347 -0.005991 0.026444 0.000000 0.000000 0.000000
# 4 0.000000 0.000000 0.000000 0.046709 0.000000 0.000000
# 5 0.000000 0.000000 0.000000 0.000000 0.038073 0.000000
# 6 0.000000 0.000000 0.000000 0.000000 0.000000 0.062849
#
#
# Mechanical properties :
#
#
# Convention : Reuss Voigt Hill
#
# Bulk Modulus (GPa) = 36.35576 41.42809 38.89193
# Shear Modulus (GPa) = 15.07827 17.89786 16.48807
#
# Velocity S-wave (km/s) = 3.09467 3.37162 3.23611
# Velocity P-wave (km/s) = 5.98838 6.43973 6.21815
#
# Compressibility (1/GPa) = 0.02750596
#
# Stress axis : x y z
#
# Youngs Moduli (GPa) = 20.74244 37.73570 37.81588
#
# Poissons Ratio (x) = 0.35796 0.80725
# Poissons Ratio (y) = 0.19676 0.22657
# Poissons Ratio (z) = 0.44279 0.22609
#
# Static dielectric constant tensor:
#      x y z
#    x 1.508240 0.000000 0.000000 
#    y 0.000000 1.509560 0.000000 
#    z 0.000000 0.000000 1.537380 
# 
# From -- ./inp_files/27506.got.cif
#   From: 2010.05.17/outbox.cif.g08.bks.cpg/sg65_14_cif.got.tgz:27506.got - 2010.06.03 17:01:31.
