data_PCOD9486949
_publ_section_title
;
Structure prediction by ZEFSAII (Michael W. Deem and Ramdas Pophale) SiO2 
 PCOD9486949
Probable space group: C M M M
;
_chemical_formula_sum "Si O2"
_cell_formula_units_Z 88
_cell_length_a 14.148465
_cell_length_b 32.774149
_cell_length_c 11.860613
_cell_angle_alpha 90.000000
_cell_angle_beta 90.000000
_cell_angle_gamma 90.000000
_cell_volume 5499.812505
_symmetry_space_group_name_H-M "C M M M"
_symmetry_group_IT_number 65
_symmetry_cell_setting 'orthorhombic'
loop_
_space_group_symop_operation_xyz
x,y,z
-x,-y,z
x,-y,-z
-x,y,-z
-x,-y,-z
x,y,-z
-x,y,z
x,-y,z
1/2+x,1/2+y,z
1/2-x,1/2-y,z
1/2+x,1/2-y,-z
1/2-x,1/2+y,-z
1/2-x,1/2-y,-z
1/2+x,1/2+y,-z
1/2-x,1/2+y,z
1/2+x,1/2-y,z
loop_
_atom_site_type_symbol
_atom_site_label
_atom_site_fract_x
_atom_site_fract_y
_atom_site_fract_z
Si Si1 0.719548 0.202933 0.500000
Si Si2 0.887628 0.690117 0.732886
Si Si3 0.385339 0.500000 0.629934
Si Si4 0.889247 0.226581 0.868148
Si Si5 0.610627 0.412676 0.725574
Si Si6 0.606073 0.641936 0.500000
Si Si7 0.764905 0.853020 0.865637
O O1 0.750000 0.250000 0.500000
O O2 0.658631 0.192854 0.389639
O O3 0.813930 0.175826 0.500000
O O4 0.869830 0.733548 0.794850
O O5 0.834168 0.655544 0.804661
O O6 0.000000 0.684039 0.728221
O O7 0.500000 0.500000 0.624288
O O8 0.351613 0.500000 0.500000
O O9 0.359375 0.541452 0.693888
O O10 0.827376 0.187430 0.838419
O O11 0.000000 0.216058 0.855311
O O12 0.872477 0.236548 0.000000
O O13 0.500000 0.412757 0.761711
O O14 0.615036 0.386290 0.610407
O O15 0.677951 0.390974 0.815207
O O16 0.500000 0.659921 0.500000
O O17 0.755132 0.855662 0.000000
#
# Coordination Sequence:
#
# PCOD9486949 Si02
#       7
#     8  16   8  16  16   8  16
#     4  12  23  37  51  74 110 143 174 218 269 315
#     4  11  23  36  50  71 100 139 183 227 267 305
#     4   9  16  30  53  81 110 139 169 204 256 324
#     4   9  18  33  51  70  95 132 178 221 260 306
#     4  10  19  33  54  82 110 136 170 213 259 318
#     4  10  20  34  56  79 104 138 178 213 251 304
#     4  11  21  34  52  74 102 138 179 222 263 309
#
# _framework density 16.000546
#
# number of rings (size 3 to 8) (size 9 to 14) (size 15 to 20)
#    0.000    1.727    2.727    3.000    0.000    4.364 
#    0.000    0.455    0.000    1.636    0.000    0.636 
#    0.000    3.636    0.000    0.000    0.000    0.000 
#
# Total GULP energy -245760.517961 kJ/mol
# GULP energy per Si atom -5585.466317 kJ/mol
# Density = 1.596413 g / cm^3
# Si number density = 16.000546 Si / 1000 Ang^3
#
#
#
# Elastic Constant Matrix: (Units=GPa)
#
#
# Indices 1 2 3 4 5 6 
#
# 1 102.9954 70.7213 55.9235 0.0000 0.0000 0.0000
# 2 70.7213 105.6509 49.1965 0.0000 0.0000 0.0000
# 3 55.9235 49.1965 85.6642 0.0000 0.0000 0.0000
# 4 0.0000 0.0000 0.0000 24.2480 0.0000 0.0000
# 5 0.0000 0.0000 0.0000 0.0000 15.9746 0.0000
# 6 0.0000 0.0000 0.0000 0.0000 0.0000 19.3589
#
#
#
# Elastic Compliance Matrix: (Units=1/GPa)
#
#
# Indices 1 2 3 4 5 6 
#
# 1 0.021172 -0.010560 -0.007757 0.000000 0.000000 0.000000
# 2 -0.010560 0.018188 -0.003551 0.000000 0.000000 0.000000
# 3 -0.007757 -0.003551 0.018777 0.000000 0.000000 0.000000
# 4 0.000000 0.000000 0.000000 0.041241 0.000000 0.000000
# 5 0.000000 0.000000 0.000000 0.000000 0.062600 0.000000
# 6 0.000000 0.000000 0.000000 0.000000 0.000000 0.051656
#
#
# Mechanical properties :
#
#
# Convention : Reuss Voigt Hill
#
# Bulk Modulus (GPa) = 69.44478 71.77701 70.61089
# Shear Modulus (GPa) = 19.07168 19.81424 19.44296
#
# Velocity S-wave (km/s) = 3.45619 3.52283 3.48967
# Velocity P-wave (km/s) = 7.70862 7.84243 7.77581
#
# Compressibility (1/GPa) = 0.01439993
#
# Stress axis : x y z
#
# Youngs Moduli (GPa) = 47.23200 54.98252 53.25751
#
# Poissons Ratio (x) = 0.58063 0.41311
# Poissons Ratio (y) = 0.49878 0.18912
# Poissons Ratio (z) = 0.36637 0.19525
#
# Static dielectric constant tensor:
#      x y z
#    x 1.536070 0.000000 0.000000 
#    y 0.000000 1.514970 0.000000 
#    z 0.000000 0.000000 1.541950 
# 
# From -- ./inp_files/25399.got.cif
#   From: 2010.05.17/outbox.cif.g08.bks.cpg/sg65_13_cif.got.tgz:25399.got - 2010.06.03 17:01:31.
