data_PCOD9486850
_publ_section_title
;
Structure prediction by ZEFSAII (Michael W. Deem and Ramdas Pophale) SiO2 
 PCOD9486850
Probable space group: C M M M
;
_chemical_formula_sum "Si O2"
_cell_formula_units_Z 56
_cell_length_a 14.840190
_cell_length_b 8.144212
_cell_length_c 21.615193
_cell_angle_alpha 90.000000
_cell_angle_beta 90.000000
_cell_angle_gamma 90.000000
_cell_volume 2612.447966
_symmetry_space_group_name_H-M "C M M M"
_symmetry_group_IT_number 65
_symmetry_cell_setting 'orthorhombic'
loop_
_space_group_symop_operation_xyz
x,y,z
-x,-y,z
x,-y,-z
-x,y,-z
-x,-y,-z
x,y,-z
-x,y,z
x,-y,z
1/2+x,1/2+y,z
1/2-x,1/2-y,z
1/2+x,1/2-y,-z
1/2-x,1/2+y,-z
1/2-x,1/2-y,-z
1/2+x,1/2+y,-z
1/2-x,1/2+y,z
1/2+x,1/2-y,z
loop_
_atom_site_type_symbol
_atom_site_label
_atom_site_fract_x
_atom_site_fract_y
_atom_site_fract_z
Si Si1 0.855012 0.696391 0.699868
Si Si2 0.355400 0.198860 0.566607
Si Si3 0.146684 0.804974 0.832848
Si Si4 0.000000 0.798490 0.929163
O O1 0.859855 0.500000 0.700285
O O2 0.750000 0.750000 0.700207
O O3 0.892413 0.755191 0.633301
O O4 0.891410 0.755969 0.765443
O O5 0.392624 0.255973 0.500000
O O6 0.250000 0.250000 0.566601
O O7 0.361081 0.000000 0.566603
O O8 0.250000 0.750000 0.837624
O O9 0.086206 0.743309 0.889358
O O10 0.145794 0.000000 0.834833
O O11 0.000000 0.000000 0.929923
O O12 0.000000 0.743565 0.000000
#
# Coordination Sequence:
#
# PCOD9486850 Si02
#       4
#    16  16  16   8
#     4   9  15  24  40  63  93 127 163 203 244 288
#     4   8  13  20  31  51  82 120 159 198 239 281
#     4  10  19  33  54  77 102 132 166 204 245 293
#     4   9  20  38  57  77 102 133 166 198 241 301
#
# _framework density 21.435835000000001
#
# number of rings (size 3 to 8) (size 9 to 14) (size 15 to 20)
#    0.000    3.000    0.000    3.429    0.000    1.714 
#    0.000    2.857    0.000    6.000    0.000    1.000 
#    0.000    8.000    0.000    0.000    0.000    0.000 
#
# Total GULP energy -156012.800297 kJ/mol
# GULP energy per Si atom -5571.885725 kJ/mol
# Density = 2.138705 g / cm^3
# Si number density = 21.435835 Si / 1000 Ang^3
#
#
#
# Elastic Constant Matrix: (Units=GPa)
#
#
# Indices 1 2 3 4 5 6 
#
# 1 89.6490 5.0349 75.4894 0.0000 0.0000 0.0000
# 2 5.0349 27.5452 23.8221 0.0000 0.0000 0.0000
# 3 75.4894 23.8221 291.9329 0.0000 0.0000 0.0000
# 4 0.0000 0.0000 0.0000 22.8843 0.0000 0.0000
# 5 0.0000 0.0000 0.0000 0.0000 106.5404 0.0000
# 6 0.0000 0.0000 0.0000 0.0000 0.0000 -2.2463
#
#
#
# Elastic Compliance Matrix: (Units=1/GPa)
#
#
# Indices 1 2 3 4 5 6 
#
# 1 0.014270 0.000627 -0.003741 0.000000 0.000000 0.000000
# 2 0.000627 0.039088 -0.003352 0.000000 0.000000 0.000000
# 3 -0.003741 -0.003352 0.004666 0.000000 0.000000 0.000000
# 4 0.000000 0.000000 0.000000 0.043698 0.000000 0.000000
# 5 0.000000 0.000000 0.000000 0.000000 0.009386 0.000000
# 6 0.000000 0.000000 0.000000 0.000000 0.000000 -0.445182
#
#
# Mechanical properties :
#
#
# Convention : Reuss Voigt Hill
#
# Bulk Modulus (GPa) = 22.17662 68.64664 45.41163
# Shear Modulus (GPa) = -16.33394 45.75439 14.71022
#
# Velocity S-wave (km/s) = -2.76342 4.62506 2.62247
# Velocity P-wave (km/s) = 0.43138 7.78558 5.51368
#
# Compressibility (1/GPa) = 0.04509254
#
# Stress axis : x y z
#
# Youngs Moduli (GPa) = 70.07908 25.58323 214.30063
#
# Poissons Ratio (x) = -0.01604 0.80171
# Poissons Ratio (y) = -0.04395 0.71829
# Poissons Ratio (z) = 0.26217 0.08575
#
# Static dielectric constant tensor:
#      x y z
#    x 2.600310 0.000000 0.000000 
#    y 0.000000 1.749510 0.000000 
#    z 0.000000 0.000000 1.841750 
# 
# From -- ./inp_files/58573.got.cif
#   From: 2010.05.17/outbox.cif.g08.bks.cpg/sg65_30_cif.got.tgz:58573.got - 2010.06.03 17:01:31.
