data_PCOD9486326
_publ_section_title
;
Structure prediction by ZEFSAII (Michael W. Deem and Ramdas Pophale) SiO2 
 PCOD9486326
Probable space group: C M M M
;
_chemical_formula_sum "Si O2"
_cell_formula_units_Z 96
_cell_length_a 14.197305
_cell_length_b 28.055405
_cell_length_c 14.788656
_cell_angle_alpha 90.000000
_cell_angle_beta 90.000000
_cell_angle_gamma 90.000000
_cell_volume 5890.486455
_symmetry_space_group_name_H-M "C M M M"
_symmetry_group_IT_number 65
_symmetry_cell_setting 'orthorhombic'
loop_
_space_group_symop_operation_xyz
x,y,z
-x,-y,z
x,-y,-z
-x,y,-z
-x,-y,-z
x,y,-z
-x,y,z
x,-y,z
1/2+x,1/2+y,z
1/2-x,1/2-y,z
1/2+x,1/2-y,-z
1/2-x,1/2+y,-z
1/2-x,1/2-y,-z
1/2+x,1/2+y,-z
1/2-x,1/2+y,z
1/2+x,1/2-y,z
loop_
_atom_site_type_symbol
_atom_site_label
_atom_site_fract_x
_atom_site_fract_y
_atom_site_fract_z
Si Si1 0.728813 0.370283 0.893436
Si Si2 0.890000 0.056728 0.221732
Si Si3 0.111397 0.678873 0.210274
Si Si4 0.110131 0.365266 0.397499
Si Si5 0.111817 0.226549 0.103628
Si Si6 0.768733 0.944358 0.396784
O O1 0.671617 0.413190 0.848307
O O2 0.826429 0.359734 0.842662
O O3 0.667580 0.322018 0.881023
O O4 0.742477 0.377651 0.000000
O O5 0.846963 0.065958 0.321343
O O6 0.000000 0.069865 0.217038
O O7 0.882480 0.000000 0.204859
O O8 0.128207 0.671946 0.317026
O O9 0.136427 0.730805 0.171235
O O10 0.000000 0.672154 0.193252
O O11 0.125030 0.347063 0.500000
O O12 0.179554 0.409877 0.384175
O O13 0.000000 0.379491 0.390732
O O14 0.000000 0.217330 0.110973
O O15 0.130533 0.242754 0.000000
O O16 0.803169 0.937722 0.500000
O O17 0.741614 0.000000 0.387238
#
# Coordination Sequence:
#
# PCOD9486326 Si02
#       6
#    16  16  16  16  16  16
#     4  11  21  34  53  75 101 134 172 214 257 297
#     4  10  21  36  53  75 102 132 169 210 255 308
#     4  10  19  32  51  76 104 135 167 204 251 301
#     4   9  17  30  50  76 104 134 167 202 245 299
#     4   9  18  32  51  76 102 129 168 215 255 292
#     4   9  17  31  52  76 101 129 165 210 256 301
#
# _framework density 16.297464999999999
#
# number of rings (size 3 to 8) (size 9 to 14) (size 15 to 20)
#    0.000    2.333    1.667    1.500    0.000    4.333 
#    0.000    4.167    0.000    3.500    0.000    3.500 
#    0.000    0.000    0.000    0.000    0.000    0.000 
#
# Total GULP energy -267567.953112 kJ/mol
# GULP energy per Si atom -5574.332356 kJ/mol
# Density = 1.626037 g / cm^3
# Si number density = 16.297465 Si / 1000 Ang^3
#
#
#
# Elastic Constant Matrix: (Units=GPa)
#
#
# Indices 1 2 3 4 5 6 
#
# 1 63.7468 29.7144 47.6397 0.0000 0.0000 0.0000
# 2 29.7144 46.0677 50.0720 0.0000 0.0000 0.0000
# 3 47.6397 50.0720 115.3981 0.0000 0.0000 0.0000
# 4 0.0000 0.0000 0.0000 78.9577 0.0000 0.0000
# 5 0.0000 0.0000 0.0000 0.0000 19.8043 0.0000
# 6 0.0000 0.0000 0.0000 0.0000 0.0000 25.9257
#
#
#
# Elastic Compliance Matrix: (Units=1/GPa)
#
#
# Indices 1 2 3 4 5 6 
#
# 1 0.024558 -0.009124 -0.006179 0.000000 0.000000 0.000000
# 2 -0.009124 0.044472 -0.015530 0.000000 0.000000 0.000000
# 3 -0.006179 -0.015530 0.017955 0.000000 0.000000 0.000000
# 4 0.000000 0.000000 0.000000 0.012665 0.000000 0.000000
# 5 0.000000 0.000000 0.000000 0.000000 0.050494 0.000000
# 6 0.000000 0.000000 0.000000 0.000000 0.000000 0.038572
#
#
# Mechanical properties :
#
#
# Convention : Reuss Voigt Hill
#
# Bulk Modulus (GPa) = 39.49629 53.34053 46.41841
# Shear Modulus (GPa) = 19.31820 31.45663 25.38742
#
# Velocity S-wave (km/s) = 3.44663 4.39812 3.95112
# Velocity P-wave (km/s) = 6.33453 7.65452 7.02559
#
# Compressibility (1/GPa) = 0.02531883
#
# Stress axis : x y z
#
# Youngs Moduli (GPa) = 40.71999 22.48584 55.69354
#
# Poissons Ratio (x) = 0.20516 0.34415
# Poissons Ratio (y) = 0.37152 0.86494
# Poissons Ratio (z) = 0.25162 0.34921
#
# Static dielectric constant tensor:
#      x y z
#    x 1.549190 0.000000 0.000000 
#    y 0.000000 1.519620 0.000000 
#    z 0.000000 0.000000 1.555210 
# 
# From -- ./inp_files/40390.got.cif
#   From: 2010.05.17/outbox.cif.g08.bks.cpg/sg65_21_cif.got.tgz:40390.got - 2010.06.03 17:01:31.
