data_PCOD9486267
_publ_section_title
;
Structure prediction by ZEFSAII (Michael W. Deem and Ramdas Pophale) SiO2 
 PCOD9486267
Probable space group: C M M M
;
_chemical_formula_sum "Si O2"
_cell_formula_units_Z 88
_cell_length_a 20.144903
_cell_length_b 8.487871
_cell_length_c 28.740120
_cell_angle_alpha 90.000000
_cell_angle_beta 90.000000
_cell_angle_gamma 90.000000
_cell_volume 4914.196612
_symmetry_space_group_name_H-M "C M M M"
_symmetry_group_IT_number 65
_symmetry_cell_setting 'orthorhombic'
loop_
_space_group_symop_operation_xyz
x,y,z
-x,-y,z
x,-y,-z
-x,y,-z
-x,-y,-z
x,y,-z
-x,y,z
x,-y,z
1/2+x,1/2+y,z
1/2-x,1/2-y,z
1/2+x,1/2-y,-z
1/2-x,1/2+y,-z
1/2-x,1/2-y,-z
1/2+x,1/2+y,-z
1/2-x,1/2+y,z
1/2+x,1/2-y,z
loop_
_atom_site_type_symbol
_atom_site_label
_atom_site_fract_x
_atom_site_fract_y
_atom_site_fract_z
Si Si1 0.923313 0.692162 0.000000
Si Si2 0.923807 0.191996 0.264813
Si Si3 0.176490 0.189510 0.184966
Si Si4 0.176072 0.310787 0.081470
Si Si5 0.076744 0.190045 0.630364
Si Si6 0.823731 0.311667 0.552771
O O1 0.880124 0.740476 0.044928
O O2 0.924888 0.500000 0.000000
O O3 0.000000 0.745851 0.000000
O O4 0.875180 0.244610 0.224053
O O5 0.904023 0.240767 0.317137
O O6 0.000000 0.240901 0.256880
O O7 0.923286 0.000000 0.264586
O O8 0.250000 0.250000 0.196468
O O9 0.160541 0.251117 0.133344
O O10 0.176927 0.000000 0.183751
O O11 0.178669 0.500000 0.081706
O O12 0.250000 0.250000 0.068911
O O13 0.124366 0.253748 0.590753
O O14 0.000000 0.237275 0.622901
O O15 0.078949 0.000000 0.629431
O O16 0.840572 0.258100 0.500000
O O17 0.822427 0.500000 0.552913
O O18 0.750000 0.250000 0.563401
#
# Coordination Sequence:
#
# PCOD9486267 Si02
#       6
#     8  16  16  16  16  16
#     4   9  19  34  51  73 100 129 160 198 246 293
#     4   8  16  32  52  73  99 132 166 201 244 291
#     4  10  19  32  51  74 101 130 163 203 244 289
#     4  10  19  33  53  73  97 129 164 201 241 289
#     4   9  18  34  55  77 102 134 171 207 247 300
#     4  10  21  36  53  74 102 134 168 209 256 303
#
# _framework density 17.907302000000001
#
# number of rings (size 3 to 8) (size 9 to 14) (size 15 to 20)
#    0.000    2.636    0.000    4.091    0.000    3.273 
#    0.000    6.818    0.000    7.636    0.000    0.000 
#    0.000    0.000    0.000    0.000    0.000    0.000 
#
# Total GULP energy -245406.190941 kJ/mol
# GULP energy per Si atom -5577.413430 kJ/mol
# Density = 1.786654 g / cm^3
# Si number density = 17.907302 Si / 1000 Ang^3
#
#
#
# Elastic Constant Matrix: (Units=GPa)
#
#
# Indices 1 2 3 4 5 6 
#
# 1 147.5406 29.0200 142.3493 0.0000 0.0000 0.0000
# 2 29.0200 31.1153 30.7978 0.0000 0.0000 0.0000
# 3 142.3493 30.7978 169.7360 0.0000 0.0000 0.0000
# 4 0.0000 0.0000 0.0000 14.9143 0.0000 0.0000
# 5 0.0000 0.0000 0.0000 0.0000 43.1976 0.0000
# 6 0.0000 0.0000 0.0000 0.0000 0.0000 22.2909
#
#
#
# Elastic Compliance Matrix: (Units=1/GPa)
#
#
# Indices 1 2 3 4 5 6 
#
# 1 0.036023 -0.004504 -0.029393 0.000000 0.000000 0.000000
# 2 -0.004504 0.039737 -0.003433 0.000000 0.000000 0.000000
# 3 -0.029393 -0.003433 0.031165 0.000000 0.000000 0.000000
# 4 0.000000 0.000000 0.000000 0.067050 0.000000 0.000000
# 5 0.000000 0.000000 0.000000 0.000000 0.023149 0.000000
# 6 0.000000 0.000000 0.000000 0.000000 0.000000 0.044861
#
#
# Mechanical properties :
#
#
# Convention : Reuss Voigt Hill
#
# Bulk Modulus (GPa) = 30.99362 83.63623 57.31492
# Shear Modulus (GPa) = 15.27181 25.82890 20.55035
#
# Velocity S-wave (km/s) = 2.92349 3.80197 3.39129
# Velocity P-wave (km/s) = 5.36107 8.12895 6.88552
#
# Compressibility (1/GPa) = 0.03226471
#
# Stress axis : x y z
#
# Youngs Moduli (GPa) = 27.76018 25.16552 32.08700
#
# Poissons Ratio (x) = 0.11333 0.94315
# Poissons Ratio (y) = 0.12502 0.11016
# Poissons Ratio (z) = 0.81597 0.08640
#
# Static dielectric constant tensor:
#      x y z
#    x 1.587770 0.000000 0.000000 
#    y 0.000000 1.615950 0.000000 
#    z 0.000000 0.000000 1.610750 
# 
# From -- ./inp_files/71025.got.cif
#   From: 2010.05.17/outbox.cif.g08.bks.cpg/sg65_36_cif.got.tgz:71025.got - 2010.06.03 17:01:31.
