data_PCOD9486819
_publ_section_title
;
Structure prediction by ZEFSAII (Michael W. Deem and Ramdas Pophale) SiO2 
 PCOD9486819
Probable space group: C M M M
;
_chemical_formula_sum "Si O2"
_cell_formula_units_Z 100
_cell_length_a 32.667582
_cell_length_b 7.616123
_cell_length_c 20.093280
_cell_angle_alpha 90.000000
_cell_angle_beta 90.000000
_cell_angle_gamma 90.000000
_cell_volume 4999.214547
_symmetry_space_group_name_H-M "C M M M"
_symmetry_group_IT_number 65
_symmetry_cell_setting 'orthorhombic'
loop_
_space_group_symop_operation_xyz
x,y,z
-x,-y,z
x,-y,-z
-x,y,-z
-x,-y,-z
x,y,-z
-x,y,z
x,-y,z
1/2+x,1/2+y,z
1/2-x,1/2-y,z
1/2+x,1/2-y,-z
1/2-x,1/2+y,-z
1/2-x,1/2-y,-z
1/2+x,1/2+y,-z
1/2-x,1/2+y,z
1/2+x,1/2-y,z
loop_
_atom_site_type_symbol
_atom_site_label
_atom_site_fract_x
_atom_site_fract_y
_atom_site_fract_z
Si Si1 0.500000 0.500000 0.708017
Si Si2 0.045088 0.714088 0.077732
Si Si3 0.930656 0.697525 0.299276
Si Si4 0.119332 0.290571 0.832820
Si Si5 0.295299 0.789165 0.206874
Si Si6 0.704395 0.209231 0.639953
Si Si7 0.619978 0.704713 0.574807
O O1 0.464487 0.654312 0.706246
O O2 0.044890 0.500000 0.081082
O O3 0.083664 0.780346 0.119433
O O4 0.000000 0.772172 0.102653
O O5 0.048352 0.760823 0.000000
O O6 0.946764 0.500000 0.287493
O O7 0.896751 0.729760 0.242282
O O8 0.908019 0.704676 0.370096
O O9 0.121227 0.500000 0.847012
O O10 0.165687 0.222023 0.834320
O O11 0.250000 0.750000 0.180754
O O12 0.297532 0.723860 0.283481
O O13 0.299060 0.000000 0.210237
O O14 0.750000 0.250000 0.614624
O O15 0.667184 0.282230 0.597219
O O16 0.699229 0.000000 0.641534
O O17 0.615081 0.773827 0.500000
O O18 0.608320 0.500000 0.574943
#
# Coordination Sequence:
#
# PCOD9486819 Si02
#       7
#     4  16  16  16  16  16  16
#     4  12  26  44  61  92 121 144 194 254 292 366
#     4   8  14  25  45  79 118 150 184 232 289 346
#     4  11  23  42  64  88 117 151 193 244 301 348
#     4   9  17  31  54  82 115 151 192 237 284 345
#     4   9  17  30  48  75 108 142 184 233 282 339
#     4  10  19  33  53  80 112 149 190 237 295 357
#     4  11  23  40  60  83 115 151 193 245 296 357
#
# _framework density 20.003142
#
# number of rings (size 3 to 8) (size 9 to 14) (size 15 to 20)
#    0.000    2.240    2.400    1.680    1.120    2.240 
#    1.440    0.800    0.000    1.440    0.000    1.120 
#    0.000    0.000    0.000    0.000    0.000    0.000 
#
# Total GULP energy -278528.408780 kJ/mol
# GULP energy per Si atom -5570.568176 kJ/mol
# Density = 1.995761 g / cm^3
# Si number density = 20.003142 Si / 1000 Ang^3
#
#
#
# Elastic Constant Matrix: (Units=GPa)
#
#
# Indices 1 2 3 4 5 6 
#
# 1 153.3313 32.4038 44.8312 0.0000 0.0000 0.0000
# 2 32.4038 75.9025 3.2086 0.0000 0.0000 0.0000
# 3 44.8312 3.2086 52.0308 0.0000 0.0000 0.0000
# 4 0.0000 0.0000 0.0000 -56.7582 0.0000 0.0000
# 5 0.0000 0.0000 0.0000 0.0000 49.3300 0.0000
# 6 0.0000 0.0000 0.0000 0.0000 0.0000 22.9186
#
#
#
# Elastic Compliance Matrix: (Units=1/GPa)
#
#
# Indices 1 2 3 4 5 6 
#
# 1 0.009699 -0.003797 -0.008123 0.000000 0.000000 0.000000
# 2 -0.003797 0.014696 0.002366 0.000000 0.000000 0.000000
# 3 -0.008123 0.002366 0.026073 0.000000 0.000000 0.000000
# 4 0.000000 0.000000 0.000000 -0.017619 0.000000 0.000000
# 5 0.000000 0.000000 0.000000 0.000000 0.020272 0.000000
# 6 0.000000 0.000000 0.000000 0.000000 0.000000 0.043633
#
#
# Mechanical properties :
#
#
# Convention : Reuss Voigt Hill
#
# Bulk Modulus (GPa) = 31.88949 49.12797 40.50873
# Shear Modulus (GPa) = 39.58330 16.48615 28.03473
#
# Velocity S-wave (km/s) = 4.45326 2.87396 3.74774
# Velocity P-wave (km/s) = 6.51298 5.96878 6.24681
#
# Compressibility (1/GPa) = 0.03135829
#
# Stress axis : x y z
#
# Youngs Moduli (GPa) = 103.09949 68.04595 38.35454
#
# Poissons Ratio (x) = 0.25840 0.31156
# Poissons Ratio (y) = 0.39151 -0.09073
# Poissons Ratio (z) = 0.83748 -0.16098
#
# Static dielectric constant tensor:
#      x y z
#    x 1.729920 0.000000 0.000000 
#    y 0.000000 1.747700 0.000000 
#    z 0.000000 0.000000 1.691810 
# 
# From -- ./inp_files/66327.got.cif
#   From: 2010.05.17/outbox.cif.g08.bks.cpg/sg65_34_cif.got.tgz:66327.got - 2010.06.03 17:01:31.
