data_PCOD9486486
_publ_section_title
;
Structure prediction by ZEFSAII (Michael W. Deem and Ramdas Pophale) SiO2 
 PCOD9486486
Probable space group: C M M M
;
_chemical_formula_sum "Si O2"
_cell_formula_units_Z 104
_cell_length_a 21.761722
_cell_length_b 25.973875
_cell_length_c 9.092074
_cell_angle_alpha 90.000000
_cell_angle_beta 90.000000
_cell_angle_gamma 90.000000
_cell_volume 5139.169785
_symmetry_space_group_name_H-M "C M M M"
_symmetry_group_IT_number 65
_symmetry_cell_setting 'orthorhombic'
loop_
_space_group_symop_operation_xyz
x,y,z
-x,-y,z
x,-y,-z
-x,y,-z
-x,-y,-z
x,y,-z
-x,y,z
x,-y,z
1/2+x,1/2+y,z
1/2-x,1/2-y,z
1/2+x,1/2-y,-z
1/2-x,1/2+y,-z
1/2-x,1/2-y,-z
1/2+x,1/2+y,-z
1/2-x,1/2+y,z
1/2+x,1/2-y,z
loop_
_atom_site_type_symbol
_atom_site_label
_atom_site_fract_x
_atom_site_fract_y
_atom_site_fract_z
Si Si1 0.128230 0.218248 0.663911
Si Si2 0.000000 0.628623 0.176520
Si Si3 0.500000 0.767177 0.340621
Si Si4 0.701563 0.203581 0.838857
Si Si5 0.373172 0.601716 0.320983
Si Si6 0.387969 0.942699 0.821475
Si Si7 0.251883 0.090794 0.177266
Si Si8 0.500000 0.438026 0.826253
O O1 0.154731 0.215253 0.500000
O O2 0.153234 0.270394 0.734234
O O3 0.135506 0.161499 0.729287
O O4 0.056827 0.229258 0.663857
O O5 0.000000 0.687822 0.222880
O O6 0.937774 0.599447 0.228916
O O7 0.000000 0.625103 0.000000
O O8 0.500000 0.794210 0.500000
O O9 0.750000 0.250000 0.850474
O O10 0.733273 0.151115 0.792186
O O11 0.674009 0.193371 0.000000
O O12 0.376084 0.599466 0.500000
O O13 0.310771 0.575128 0.259742
O O14 0.437198 0.581555 0.252387
O O15 0.316573 0.935219 0.778012
O O16 0.408640 0.000000 0.779542
O O17 0.387142 0.940049 0.000000
O O18 0.243341 0.084608 0.000000
O O19 0.500000 0.500000 0.818337
O O20 0.500000 0.423200 0.000000
#
# Coordination Sequence:
#
# PCOD9486486 Si02
#       8
#    16   8   8  16  16  16  16   8
#     4  10  21  36  55  80 115 155 193 229 276 341
#     4  10  19  35  59  84 110 145 194 242 287 339
#     4  10  21  36  52  76 112 149 182 226 278 332
#     4  10  19  32  52  79 114 151 188 233 281 330
#     4  11  23  40  63  89 118 152 192 238 287 345
#     4   9  18  33  56  84 112 145 189 242 292 338
#     4  10  20  35  55  84 121 157 196 242 293 349
#     4  11  26  47  69  90 112 145 190 240 299 361
#
# _framework density 20.236733000000001
#
# number of rings (size 3 to 8) (size 9 to 14) (size 15 to 20)
#    0.000    1.923    1.538    2.308    0.000    6.769 
#    0.000    3.077    0.000    1.846    0.000    0.000 
#    0.000    0.000    0.000    0.000    0.000    0.000 
#
# Total GULP energy -289712.528071 kJ/mol
# GULP energy per Si atom -5571.394771 kJ/mol
# Density = 2.019067 g / cm^3
# Si number density = 20.236733 Si / 1000 Ang^3
#
#
#
# Elastic Constant Matrix: (Units=GPa)
#
#
# Indices 1 2 3 4 5 6 
#
# 1 110.6934 3.6228 37.5265 0.0000 0.0000 0.0000
# 2 3.6228 52.6552 4.6863 0.0000 0.0000 0.0000
# 3 37.5265 4.6863 35.1627 0.0000 0.0000 0.0000
# 4 0.0000 0.0000 0.0000 17.3719 0.0000 0.0000
# 5 0.0000 0.0000 0.0000 0.0000 60.6749 0.0000
# 6 0.0000 0.0000 0.0000 0.0000 0.0000 25.7439
#
#
#
# Elastic Compliance Matrix: (Units=1/GPa)
#
#
# Indices 1 2 3 4 5 6 
#
# 1 0.014163 0.000375 -0.015165 0.000000 0.000000 0.000000
# 2 0.000375 0.019229 -0.002963 0.000000 0.000000 0.000000
# 3 -0.015165 -0.002963 0.045019 0.000000 0.000000 0.000000
# 4 0.000000 0.000000 0.000000 0.057564 0.000000 0.000000
# 5 0.000000 0.000000 0.000000 0.000000 0.016481 0.000000
# 6 0.000000 0.000000 0.000000 0.000000 0.000000 0.038844
#
#
# Mechanical properties :
#
#
# Convention : Reuss Voigt Hill
#
# Bulk Modulus (GPa) = 23.30737 32.24250 27.77494
# Shear Modulus (GPa) = 20.73760 30.93652 25.83706
#
# Velocity S-wave (km/s) = 3.20465 3.91414 3.57703
# Velocity P-wave (km/s) = 5.02348 6.03279 5.55112
#
# Compressibility (1/GPa) = 0.04290488
#
# Stress axis : x y z
#
# Youngs Moduli (GPa) = 70.60764 52.00368 22.21307
#
# Poissons Ratio (x) = -0.01951 0.33686
# Poissons Ratio (y) = -0.02650 0.06582
# Poissons Ratio (z) = 1.07076 0.15410
#
# Static dielectric constant tensor:
#      x y z
#    x 1.679590 0.000000 0.000000 
#    y 0.000000 1.686330 0.000000 
#    z 0.000000 0.000000 1.772050 
# 
# From -- ./inp_files/12463.got.cif
#   From: 2010.05.17/outbox.cif.g08.bks.cpg/sg65_7_cif.got.tgz:12463.got - 2010.06.03 17:01:31.
