data_PCOD9486314
_publ_section_title
;
Structure prediction by ZEFSAII (Michael W. Deem and Ramdas Pophale) SiO2 
 PCOD9486314
Probable space group: C M M M
;
_chemical_formula_sum "Si O2"
_cell_formula_units_Z 88
_cell_length_a 7.656026
_cell_length_b 27.478142
_cell_length_c 22.557426
_cell_angle_alpha 90.000000
_cell_angle_beta 90.000000
_cell_angle_gamma 90.000000
_cell_volume 4745.481717
_symmetry_space_group_name_H-M "C M M M"
_symmetry_group_IT_number 65
_symmetry_cell_setting 'orthorhombic'
loop_
_space_group_symop_operation_xyz
x,y,z
-x,-y,z
x,-y,-z
-x,y,-z
-x,-y,-z
x,y,-z
-x,y,z
x,-y,z
1/2+x,1/2+y,z
1/2-x,1/2-y,z
1/2+x,1/2-y,-z
1/2-x,1/2+y,-z
1/2-x,1/2-y,-z
1/2+x,1/2+y,-z
1/2-x,1/2+y,z
1/2+x,1/2-y,z
loop_
_atom_site_type_symbol
_atom_site_label
_atom_site_fract_x
_atom_site_fract_y
_atom_site_fract_z
Si Si1 0.785643 0.606705 0.068769
Si Si2 0.500000 0.057589 0.571002
Si Si3 0.703744 0.000000 0.072030
Si Si4 0.709622 0.195361 0.849586
Si Si5 0.208003 0.806319 0.500000
Si Si6 0.702021 0.627091 0.391847
Si Si7 0.708668 0.195040 0.286159
O O1 0.724325 0.552944 0.089620
O O2 0.726620 0.651618 0.109000
O O3 0.000000 0.605599 0.069666
O O4 0.735277 0.613405 0.000000
O O5 0.500000 0.067714 0.500000
O O6 0.669654 0.081888 0.600649
O O7 0.500000 0.000000 0.578655
O O8 0.500000 0.000000 0.089904
O O9 0.708221 0.000000 0.000000
O O10 0.500000 0.191433 0.847482
O O11 0.750000 0.250000 0.871178
O O12 0.773824 0.191205 0.781691
O O13 0.250000 0.750000 0.500000
O O14 0.267497 0.834198 0.558737
O O15 0.000000 0.809904 0.500000
O O16 0.500000 0.614290 0.403643
O O17 0.714716 0.654695 0.329460
O O18 0.500000 0.189290 0.286378
O O19 0.750000 0.250000 0.306992
#
# Coordination Sequence:
#
# PCOD9486314 Si02
#       7
#    16   8   8  16   8  16  16
#     4   8  13  23  41  65  94 128 167 217 273 322
#     4  11  24  42  66  88 114 154 193 235 281 325
#     4   7  10  18  36  62  89 117 155 204 259 314
#     4   9  18  30  45  68 102 136 174 214 259 322
#     4  10  22  32  50  83 115 144 174 218 275 330
#     4  11  22  38  58  85 116 147 187 232 279 328
#     4  10  19  32  51  75 108 145 184 224 278 343
#
# _framework density 18.543953999999999
#
# number of rings (size 3 to 8) (size 9 to 14) (size 15 to 20)
#    0.000    2.545    1.818    2.182    1.273    2.909 
#    0.000    0.909    2.000    0.000    0.000    0.636 
#    0.000    2.182    0.000    0.000    0.000    0.000 
#
# Total GULP energy -245364.904913 kJ/mol
# GULP energy per Si atom -5576.475112 kJ/mol
# Density = 1.850175 g / cm^3
# Si number density = 18.543954 Si / 1000 Ang^3
#
#
#
# Elastic Constant Matrix: (Units=GPa)
#
#
# Indices 1 2 3 4 5 6 
#
# 1 68.6260 33.3929 13.2297 0.0000 0.0000 0.0000
# 2 33.3929 175.1417 73.8122 0.0000 0.0000 0.0000
# 3 13.2297 73.8122 68.7068 0.0000 0.0000 0.0000
# 4 0.0000 0.0000 0.0000 20.9741 0.0000 0.0000
# 5 0.0000 0.0000 0.0000 0.0000 19.8880 0.0000
# 6 0.0000 0.0000 0.0000 0.0000 0.0000 22.0825
#
#
#
# Elastic Compliance Matrix: (Units=1/GPa)
#
#
# Indices 1 2 3 4 5 6 
#
# 1 0.016067 -0.003215 0.000360 0.000000 0.000000 0.000000
# 2 -0.003215 0.011077 -0.011281 0.000000 0.000000 0.000000
# 3 0.000360 -0.011281 0.026604 0.000000 0.000000 0.000000
# 4 0.000000 0.000000 0.000000 0.047678 0.000000 0.000000
# 5 0.000000 0.000000 0.000000 0.000000 0.050282 0.000000
# 6 0.000000 0.000000 0.000000 0.000000 0.000000 0.045285
#
#
# Mechanical properties :
#
#
# Convention : Reuss Voigt Hill
#
# Bulk Modulus (GPa) = 39.25165 61.48267 50.36716
# Shear Modulus (GPa) = 21.38983 25.39157 23.39070
#
# Velocity S-wave (km/s) = 3.39996 3.70437 3.55542
# Velocity P-wave (km/s) = 6.05192 7.17799 6.63887
#
# Compressibility (1/GPa) = 0.02547664
#
# Stress axis : x y z
#
# Youngs Moduli (GPa) = 62.24031 90.27756 37.58783
#
# Poissons Ratio (x) = 0.29026 -0.01355
# Poissons Ratio (y) = 0.20012 0.42403
# Poissons Ratio (z) = -0.02243 1.01842
#
# Static dielectric constant tensor:
#      x y z
#    x 1.687730 0.000000 0.000000 
#    y 0.000000 1.639710 0.000000 
#    z 0.000000 0.000000 1.640520 
# 
# From -- ./inp_files/67672.got.cif
#   From: 2010.05.17/outbox.cif.g08.bks.cpg/sg65_34_cif.got.tgz:67672.got - 2010.06.03 17:01:31.
