data_PCOD9486893
_publ_section_title
;
Structure prediction by ZEFSAII (Michael W. Deem and Ramdas Pophale) SiO2 
 PCOD9486893
Probable space group: C M M M
;
_chemical_formula_sum "Si O2"
_cell_formula_units_Z 80
_cell_length_a 24.700051
_cell_length_b 7.674294
_cell_length_c 21.052617
_cell_angle_alpha 90.000000
_cell_angle_beta 90.000000
_cell_angle_gamma 90.000000
_cell_volume 3990.638356
_symmetry_space_group_name_H-M "C M M M"
_symmetry_group_IT_number 65
_symmetry_cell_setting 'orthorhombic'
loop_
_space_group_symop_operation_xyz
x,y,z
-x,-y,z
x,-y,-z
-x,y,-z
-x,-y,-z
x,y,-z
-x,y,z
x,-y,z
1/2+x,1/2+y,z
1/2-x,1/2-y,z
1/2+x,1/2-y,-z
1/2-x,1/2+y,-z
1/2-x,1/2-y,-z
1/2+x,1/2+y,-z
1/2-x,1/2+y,z
1/2+x,1/2-y,z
loop_
_atom_site_type_symbol
_atom_site_label
_atom_site_fract_x
_atom_site_fract_y
_atom_site_fract_z
Si Si1 0.383666 0.786791 0.571289
Si Si2 0.313210 0.209563 0.690202
Si Si3 0.000000 0.713189 0.771633
Si Si4 0.116995 0.707210 0.809262
Si Si5 0.311525 0.706986 0.928459
Si Si6 0.500000 0.787862 0.376602
O O1 0.369893 0.730566 0.500000
O O2 0.342423 0.727944 0.625906
O O3 0.444586 0.731984 0.589905
O O4 0.383480 0.000000 0.571609
O O5 0.250000 0.250000 0.692739
O O6 0.345439 0.276685 0.752036
O O7 0.318095 0.000000 0.690270
O O8 0.944247 0.774686 0.803398
O O9 0.000000 0.500000 0.773603
O O10 0.000000 0.762565 0.697359
O O11 0.113409 0.500000 0.799197
O O12 0.145887 0.733688 0.876290
O O13 0.315510 0.500000 0.931934
O O14 0.250000 0.750000 0.908634
O O15 0.319551 0.778759 0.000000
O O16 0.500000 0.000000 0.377948
#
# Coordination Sequence:
#
# PCOD9486893 Si02
#       6
#    16  16   8  16  16   8
#     4   9  16  26  43  69  99 129 164 209 259 305
#     4  10  20  32  47  70 100 133 169 210 254 302
#     4   9  16  29  50  75 103 134 169 212 260 304
#     4  10  19  33  54  78 105 136 171 213 257 304
#     4  10  21  37  57  81 108 137 170 209 252 299
#     4   9  13  24  45  70  98 126 162 211 260 301
#
# _framework density 20.046918000000002
#
# number of rings (size 3 to 8) (size 9 to 14) (size 15 to 20)
#    0.000    2.400    2.000    1.500    0.000    5.200 
#    0.000    1.000    0.000    3.000    0.000    0.700 
#    0.000    1.600    0.000    0.000    0.000    0.000 
#
# Total GULP energy -223303.067927 kJ/mol
# GULP energy per Si atom -5582.576698 kJ/mol
# Density = 2.000129 g / cm^3
# Si number density = 20.046918 Si / 1000 Ang^3
#
#
#
# Elastic Constant Matrix: (Units=GPa)
#
#
# Indices 1 2 3 4 5 6 
#
# 1 189.4336 8.5563 107.9614 0.0000 0.0000 0.0000
# 2 8.5563 32.9026 4.2975 0.0000 0.0000 0.0000
# 3 107.9614 4.2975 140.7398 0.0000 0.0000 0.0000
# 4 0.0000 0.0000 0.0000 -25.5150 0.0000 0.0000
# 5 0.0000 0.0000 0.0000 0.0000 35.9296 0.0000
# 6 0.0000 0.0000 0.0000 0.0000 0.0000 16.5651
#
#
#
# Elastic Compliance Matrix: (Units=1/GPa)
#
#
# Indices 1 2 3 4 5 6 
#
# 1 0.009454 -0.001517 -0.007206 0.000000 0.000000 0.000000
# 2 -0.001517 0.030758 0.000225 0.000000 0.000000 0.000000
# 3 -0.007206 0.000225 0.012626 0.000000 0.000000 0.000000
# 4 0.000000 0.000000 0.000000 -0.039193 0.000000 0.000000
# 5 0.000000 0.000000 0.000000 0.000000 0.027832 0.000000
# 6 0.000000 0.000000 0.000000 0.000000 0.000000 0.060368
#
#
# Mechanical properties :
#
#
# Convention : Reuss Voigt Hill
#
# Bulk Modulus (GPa) = 27.90090 67.18960 47.54525
# Shear Modulus (GPa) = 38.22918 21.54667 29.88792
#
# Velocity S-wave (km/s) = 4.37164 3.28199 3.86540
# Velocity P-wave (km/s) = 6.27931 6.92466 6.60986
#
# Compressibility (1/GPa) = 0.03584114
#
# Stress axis : x y z
#
# Youngs Moduli (GPa) = 105.77232 32.51194 79.20045
#
# Poissons Ratio (x) = 0.04933 0.57072
# Poissons Ratio (y) = 0.16049 -0.01780
# Poissons Ratio (z) = 0.76220 -0.00731
#
# Static dielectric constant tensor:
#      x y z
#    x 1.624250 0.000000 0.000000 
#    y 0.000000 1.773770 0.000000 
#    z 0.000000 0.000000 1.703890 
# 
# From -- ./inp_files/51365.got.cif
#   From: 2010.05.17/outbox.cif.g08.bks.cpg/sg65_26_cif.got.tgz:51365.got - 2010.06.03 17:01:31.
