data_PCOD9486076
_publ_section_title
;
Structure prediction by ZEFSAII (Michael W. Deem and Ramdas Pophale) SiO2 
 PCOD9486076
Probable space group: C M M M
;
_chemical_formula_sum "Si O2"
_cell_formula_units_Z 88
_cell_length_a 20.761229
_cell_length_b 31.042303
_cell_length_c 8.627652
_cell_angle_alpha 90.000000
_cell_angle_beta 90.000000
_cell_angle_gamma 90.000000
_cell_volume 5560.317767
_symmetry_space_group_name_H-M "C M M M"
_symmetry_group_IT_number 65
_symmetry_cell_setting 'orthorhombic'
loop_
_space_group_symop_operation_xyz
x,y,z
-x,-y,z
x,-y,-z
-x,y,-z
-x,-y,-z
x,y,-z
-x,y,z
x,-y,z
1/2+x,1/2+y,z
1/2-x,1/2-y,z
1/2+x,1/2-y,-z
1/2-x,1/2+y,-z
1/2-x,1/2-y,-z
1/2+x,1/2+y,-z
1/2-x,1/2+y,z
1/2+x,1/2-y,z
loop_
_atom_site_type_symbol
_atom_site_label
_atom_site_fract_x
_atom_site_fract_y
_atom_site_fract_z
Si Si1 0.199355 0.369876 0.314273
Si Si2 0.930416 0.322962 0.686611
Si Si3 0.070310 0.773770 0.186791
Si Si4 0.287017 0.705488 0.187559
Si Si5 0.000000 0.552304 0.324312
Si Si6 0.639294 0.950111 0.185120
O O1 0.202308 0.370671 0.500000
O O2 0.131446 0.348962 0.262549
O O3 0.252508 0.337077 0.250858
O O4 0.193463 0.418274 0.251548
O O5 0.927967 0.319185 0.500000
O O6 0.927519 0.275620 0.758756
O O7 0.000000 0.342299 0.728611
O O8 0.138185 0.793653 0.238750
O O9 0.000000 0.791353 0.238756
O O10 0.070683 0.775004 0.000000
O O11 0.250000 0.750000 0.236048
O O12 0.284649 0.704820 0.000000
O O13 0.067938 0.563060 0.245092
O O14 0.000000 0.500000 0.329435
O O15 0.000000 0.569391 0.500000
O O16 0.649483 0.000000 0.231916
O O17 0.639145 0.947895 0.000000
#
# Coordination Sequence:
#
# PCOD9486076 Si02
#       6
#    16  16  16  16   8  16
#     4  11  22  32  48  70  93 126 163 202 246 292
#     4   9  18  30  42  61  90 122 157 197 237 278
#     4   9  17  30  48  67  89 123 163 198 234 279
#     4  10  19  32  48  68  97 128 159 199 242 285
#     4   9  17  31  51  71  93 123 159 203 251 291
#     4  10  21  36  51  68  92 123 162 205 247 291
#
# _framework density 15.826434000000001
#
# number of rings (size 3 to 8) (size 9 to 14) (size 15 to 20)
#    0.000    2.273    1.818    1.364    1.273    4.000 
#    0.000    0.000    0.000    0.000    0.000    0.000 
#    0.000    0.727    0.000    8.364    0.000    2.364 
#
# Total GULP energy -245263.223101 kJ/mol
# GULP energy per Si atom -5574.164161 kJ/mol
# Density = 1.579041 g / cm^3
# Si number density = 15.826434 Si / 1000 Ang^3
#
#
#
# Elastic Constant Matrix: (Units=GPa)
#
#
# Indices 1 2 3 4 5 6 
#
# 1 126.5703 64.2000 25.0253 0.0000 0.0000 0.0000
# 2 64.2000 92.8638 22.8993 0.0000 0.0000 0.0000
# 3 25.0253 22.8993 16.4111 0.0000 0.0000 0.0000
# 4 0.0000 0.0000 0.0000 20.8404 0.0000 0.0000
# 5 0.0000 0.0000 0.0000 0.0000 15.9906 0.0000
# 6 0.0000 0.0000 0.0000 0.0000 0.0000 30.9656
#
#
#
# Elastic Compliance Matrix: (Units=1/GPa)
#
#
# Indices 1 2 3 4 5 6 
#
# 1 0.013453 -0.006467 -0.011491 0.000000 0.000000 0.000000
# 2 -0.006467 0.019526 -0.017384 0.000000 0.000000 0.000000
# 3 -0.011491 -0.017384 0.102713 0.000000 0.000000 0.000000
# 4 0.000000 0.000000 0.000000 0.047984 0.000000 0.000000
# 5 0.000000 0.000000 0.000000 0.000000 0.062537 0.000000
# 6 0.000000 0.000000 0.000000 0.000000 0.000000 0.032294
#
#
# Mechanical properties :
#
#
# Convention : Reuss Voigt Hill
#
# Bulk Modulus (GPa) = 15.38257 51.12161 33.25209
# Shear Modulus (GPa) = 13.48219 21.80736 17.64478
#
# Velocity S-wave (km/s) = 2.92186 3.71604 3.34262
# Velocity P-wave (km/s) = 4.59605 7.12626 5.99613
#
# Compressibility (1/GPa) = 0.06500866
#
# Stress axis : x y z
#
# Youngs Moduli (GPa) = 74.33351 51.21355 9.73584
#
# Poissons Ratio (x) = 0.33120 0.11187
# Poissons Ratio (y) = 0.48071 0.16925
# Poissons Ratio (z) = 0.85413 0.89031
#
# Static dielectric constant tensor:
#      x y z
#    x 1.554100 0.000000 0.000000 
#    y 0.000000 1.543220 0.000000 
#    z 0.000000 0.000000 1.535400 
# 
# From -- ./inp_files/12649.got.cif
#   From: 2010.05.17/outbox.cif.g08.bks.cpg/sg65_7_cif.got.tgz:12649.got - 2010.06.03 17:01:31.
