data_PCOD9486274
_publ_section_title
;
Structure prediction by ZEFSAII (Michael W. Deem and Ramdas Pophale) SiO2 
 PCOD9486274
Probable space group: C M M M
;
_chemical_formula_sum "Si O2"
_cell_formula_units_Z 72
_cell_length_a 21.054124
_cell_length_b 17.049428
_cell_length_c 8.415066
_cell_angle_alpha 90.000000
_cell_angle_beta 90.000000
_cell_angle_gamma 90.000000
_cell_volume 3020.678581
_symmetry_space_group_name_H-M "C M M M"
_symmetry_group_IT_number 65
_symmetry_cell_setting 'orthorhombic'
loop_
_space_group_symop_operation_xyz
x,y,z
-x,-y,z
x,-y,-z
-x,y,-z
-x,-y,-z
x,y,-z
-x,y,z
x,-y,z
1/2+x,1/2+y,z
1/2-x,1/2-y,z
1/2+x,1/2-y,-z
1/2-x,1/2+y,-z
1/2-x,1/2-y,-z
1/2+x,1/2+y,-z
1/2-x,1/2+y,z
1/2+x,1/2-y,z
loop_
_atom_site_type_symbol
_atom_site_label
_atom_site_fract_x
_atom_site_fract_y
_atom_site_fract_z
Si Si1 0.596565 0.592139 0.500000
Si Si2 0.249095 0.156411 0.830968
Si Si3 0.749359 0.091440 0.500000
Si Si4 0.397624 0.331827 0.175377
Si Si5 0.076901 0.330970 0.683374
Si Si6 0.423049 0.000000 0.181278
O O1 0.582695 0.500000 0.500000
O O2 0.673690 0.602347 0.500000
O O3 0.573411 0.631328 0.335712
O O4 0.250000 0.250000 0.830603
O O5 0.275175 0.128077 0.663372
O O6 0.174228 0.135521 0.831973
O O7 0.276805 0.128407 0.000000
O O8 0.735876 0.000000 0.500000
O O9 0.396104 0.238241 0.207032
O O10 0.425815 0.346253 0.000000
O O11 0.093874 0.315896 0.500000
O O12 0.094485 0.419005 0.733742
O O13 0.000000 0.325550 0.696122
O O14 0.500000 0.000000 0.179063
O O15 0.400863 0.000000 0.000000
#
# Coordination Sequence:
#
# PCOD9486274 Si02
#       6
#     8  16   8  16  16   8
#     4   9  18  33  50  74 103 126 160 208 255 300
#     4   9  18  32  51  73  98 131 165 200 245 296
#     4   9  17  29  49  74  97 124 160 207 249 287
#     4  10  19  32  53  77 100 131 169 206 248 299
#     4  10  19  32  51  74 102 134 168 207 248 293
#     4   9  17  29  47  73 101 131 169 208 245 289
#
# _framework density 23.835705000000001
#
# number of rings (size 3 to 8) (size 9 to 14) (size 15 to 20)
#    0.000    2.556    1.111    1.333    0.000    3.556 
#    0.000    4.444    2.444    1.333    0.000    1.556 
#    0.000    0.000    0.000    0.000    0.000    0.000 
#
# Total GULP energy -201194.267692 kJ/mol
# GULP energy per Si atom -5588.729658 kJ/mol
# Density = 2.378145 g / cm^3
# Si number density = 23.835705 Si / 1000 Ang^3
#
#
#
# Elastic Constant Matrix: (Units=GPa)
#
#
# Indices 1 2 3 4 5 6 
#
# 1 84.8883 0.6394 21.2129 0.0000 0.0000 0.0000
# 2 0.6394 91.5022 85.7330 0.0000 0.0000 0.0000
# 3 21.2129 85.7330 278.3038 0.0000 0.0000 0.0000
# 4 0.0000 0.0000 0.0000 -13.6637 0.0000 0.0000
# 5 0.0000 0.0000 0.0000 0.0000 -125.4641 0.0000
# 6 0.0000 0.0000 0.0000 0.0000 0.0000 19.9057
#
#
#
# Elastic Compliance Matrix: (Units=1/GPa)
#
#
# Indices 1 2 3 4 5 6 
#
# 1 0.012086 0.001095 -0.001258 0.000000 0.000000 0.000000
# 2 0.001095 0.015462 -0.004847 0.000000 0.000000 0.000000
# 3 -0.001258 -0.004847 0.005182 0.000000 0.000000 0.000000
# 4 0.000000 0.000000 0.000000 -0.073186 0.000000 0.000000
# 5 0.000000 0.000000 0.000000 0.000000 -0.007970 0.000000
# 6 0.000000 0.000000 0.000000 0.000000 0.000000 0.050237
#
#
# Mechanical properties :
#
#
# Convention : Reuss Voigt Hill
#
# Bulk Modulus (GPa) = 44.03382 74.42942 59.23162
# Shear Modulus (GPa) = 257.71391 -0.70382 128.50504
#
# Velocity S-wave (km/s) = 10.40940 -0.54399 7.35050
# Velocity P-wave (km/s) = 12.76668 5.55871 9.84600
#
# Compressibility (1/GPa) = 0.02270982
#
# Stress axis : x y z
#
# Youngs Moduli (GPa) = 82.73749 64.67428 192.97020
#
# Poissons Ratio (x) = -0.07080 0.24285
# Poissons Ratio (y) = -0.09057 0.93525
# Poissons Ratio (z) = 0.10412 0.31345
#
# Static dielectric constant tensor:
#      x y z
#    x 1.955400 0.000000 0.000000 
#    y 0.000000 1.826120 0.000000 
#    z 0.000000 0.000000 1.913470 
# 
# From -- ./inp_files/7407.got.cif
#   From: 2010.05.17/outbox.cif.g08.bks.cpg/sg65_4_cif.got.tgz:7407.got - 2010.06.03 17:01:31.
