data_PCOD9486990
_publ_section_title
;
Structure prediction by ZEFSAII (Michael W. Deem and Ramdas Pophale) SiO2 
 PCOD9486990
Probable space group: C M M M
;
_chemical_formula_sum "Si O2"
_cell_formula_units_Z 72
_cell_length_a 16.449705
_cell_length_b 16.580405
_cell_length_c 14.016815
_cell_angle_alpha 90.000000
_cell_angle_beta 90.000000
_cell_angle_gamma 90.000000
_cell_volume 3822.984964
_symmetry_space_group_name_H-M "C M M M"
_symmetry_group_IT_number 65
_symmetry_cell_setting 'orthorhombic'
loop_
_space_group_symop_operation_xyz
x,y,z
-x,-y,z
x,-y,-z
-x,y,-z
-x,-y,-z
x,y,-z
-x,y,z
x,-y,z
1/2+x,1/2+y,z
1/2-x,1/2-y,z
1/2+x,1/2-y,-z
1/2-x,1/2+y,-z
1/2-x,1/2-y,-z
1/2+x,1/2+y,-z
1/2-x,1/2+y,z
1/2+x,1/2-y,z
loop_
_atom_site_type_symbol
_atom_site_label
_atom_site_fract_x
_atom_site_fract_y
_atom_site_fract_z
Si Si1 0.659141 0.907314 0.713860
Si Si2 0.000000 0.599276 0.390067
Si Si3 0.594888 0.403325 0.772124
Si Si4 0.754777 0.846372 0.893174
Si Si5 0.700395 0.667583 0.611158
O O1 0.579490 0.871134 0.665265
O O2 0.690280 0.871523 0.812811
O O3 0.732322 0.899042 0.638359
O O4 0.641596 0.000000 0.732398
O O5 0.000000 0.500000 0.391617
O O6 0.000000 0.625117 0.500000
O O7 0.500000 0.388465 0.792853
O O8 0.604793 0.500000 0.755772
O O9 0.657722 0.376813 0.854801
O O10 0.625545 0.352873 0.680012
O O11 0.750000 0.750000 0.896276
O O12 0.739408 0.877644 0.000000
O O13 0.679480 0.668535 0.500000
O O14 0.750000 0.750000 0.634622
#
# Coordination Sequence:
#
# PCOD9486990 Si02
#       5
#    16   8  16  16  16
#     4  10  19  33  55  80 106 141 182 227 273 318
#     4   9  18  32  51  79 111 139 173 216 264 318
#     4  10  21  36  57  85 112 142 183 233 285 335
#     4  10  21  39  58  79 108 144 185 227 278 336
#     4  10  20  35  52  76 111 149 188 225 269 329
#
# _framework density 18.833451
#
# number of rings (size 3 to 8) (size 9 to 14) (size 15 to 20)
#    0.000    2.111    0.000    6.000    0.000    5.333 
#    8.000    2.778    0.000    2.000    0.000    0.000 
#    0.000    0.000    0.000    0.000    0.000    0.000 
#
# Total GULP energy -200749.824618 kJ/mol
# GULP energy per Si atom -5576.384017 kJ/mol
# Density = 1.879059 g / cm^3
# Si number density = 18.833451 Si / 1000 Ang^3
#
#
#
# Elastic Constant Matrix: (Units=GPa)
#
#
# Indices 1 2 3 4 5 6 
#
# 1 130.3864 20.1835 63.7624 0.0000 0.0000 0.0000
# 2 20.1835 57.1839 35.7556 0.0000 0.0000 0.0000
# 3 63.7624 35.7556 139.5834 0.0000 0.0000 0.0000
# 4 0.0000 0.0000 0.0000 15.3787 0.0000 0.0000
# 5 0.0000 0.0000 0.0000 0.0000 9.1046 0.0000
# 6 0.0000 0.0000 0.0000 0.0000 0.0000 18.9051
#
#
#
# Elastic Compliance Matrix: (Units=1/GPa)
#
#
# Indices 1 2 3 4 5 6 
#
# 1 0.009906 -0.000794 -0.004322 0.000000 0.000000 0.000000
# 2 -0.000794 0.020886 -0.004987 0.000000 0.000000 0.000000
# 3 -0.004322 -0.004987 0.010416 0.000000 0.000000 0.000000
# 4 0.000000 0.000000 0.000000 0.065025 0.000000 0.000000
# 5 0.000000 0.000000 0.000000 0.000000 0.109834 0.000000
# 6 0.000000 0.000000 0.000000 0.000000 0.000000 0.052896
#
#
# Mechanical properties :
#
#
# Convention : Reuss Voigt Hill
#
# Bulk Modulus (GPa) = 47.61549 62.95077 55.28313
# Shear Modulus (GPa) = 16.88218 22.50782 19.69500
#
# Velocity S-wave (km/s) = 2.99723 3.46077 3.23731
# Velocity P-wave (km/s) = 6.10861 7.03326 6.58718
#
# Compressibility (1/GPa) = 0.02100157
#
# Stress axis : x y z
#
# Youngs Moduli (GPa) = 100.95070 47.87839 96.00722
#
# Poissons Ratio (x) = 0.03802 0.41490
# Poissons Ratio (y) = 0.08017 0.47883
# Poissons Ratio (z) = 0.43627 0.23879
#
# Static dielectric constant tensor:
#      x y z
#    x 1.659290 0.000000 0.000000 
#    y 0.000000 1.702010 0.000000 
#    z 0.000000 0.000000 1.640300 
# 
# From -- ./inp_files/39795.got.cif
#   From: 2010.05.17/outbox.cif.g08.bks.cpg/sg65_20_cif.got.tgz:39795.got - 2010.06.03 17:01:31.
