data_PCOD9486109
_publ_section_title
;
Structure prediction by ZEFSAII (Michael W. Deem and Ramdas Pophale) SiO2 
 PCOD9486109
Probable space group: C M M M
;
_chemical_formula_sum "Si O2"
_cell_formula_units_Z 104
_cell_length_a 21.855364
_cell_length_b 14.015211
_cell_length_c 22.961140
_cell_angle_alpha 90.000000
_cell_angle_beta 90.000000
_cell_angle_gamma 90.000000
_cell_volume 7033.170262
_symmetry_space_group_name_H-M "C M M M"
_symmetry_group_IT_number 65
_symmetry_cell_setting 'orthorhombic'
loop_
_space_group_symop_operation_xyz
x,y,z
-x,-y,z
x,-y,-z
-x,y,-z
-x,-y,-z
x,y,-z
-x,y,z
x,-y,z
1/2+x,1/2+y,z
1/2-x,1/2-y,z
1/2+x,1/2-y,-z
1/2-x,1/2+y,-z
1/2-x,1/2-y,-z
1/2+x,1/2+y,-z
1/2-x,1/2+y,z
1/2+x,1/2-y,z
loop_
_atom_site_type_symbol
_atom_site_label
_atom_site_fract_x
_atom_site_fract_y
_atom_site_fract_z
Si Si1 0.651367 0.300291 0.895448
Si Si2 0.573008 0.392474 0.659709
Si Si3 0.426811 0.386090 0.000000
Si Si4 0.572790 0.614385 0.794174
Si Si5 0.349609 0.285225 0.569641
Si Si6 0.781247 0.611798 0.070403
Si Si7 0.776531 0.605262 0.429738
O O1 0.604788 0.337271 0.944707
O O2 0.617315 0.326191 0.835653
O O3 0.714801 0.358605 0.904420
O O4 0.670626 0.189720 0.905099
O O5 0.500000 0.394996 0.657581
O O6 0.596002 0.500000 0.648088
O O7 0.588492 0.367534 0.726417
O O8 0.597786 0.323609 0.610424
O O9 0.414071 0.500000 0.000000
O O10 0.500000 0.374008 0.000000
O O11 0.500000 0.634900 0.803359
O O12 0.580087 0.500000 0.804866
O O13 0.361887 0.290160 0.500000
O O14 0.289586 0.349532 0.582113
O O15 0.329192 0.178929 0.586663
O O16 0.794229 0.500000 0.082391
O O17 0.778609 0.623876 0.000000
O O18 0.779379 0.600631 0.500000
O O19 0.782819 0.500000 0.405199
#
# Coordination Sequence:
#
# PCOD9486109 Si02
#       7
#    16  16   8  16  16  16  16
#     4  11  18  31  49  71  92 120 153 183 222 265
#     4   9  18  31  45  64  91 121 150 181 227 281
#     4  11  20  27  43  73  97 109 139 194 232 251
#     4   9  18  32  49  67  90 121 151 184 230 278
#     4   9  16  26  44  68  90 116 151 188 227 271
#     4  10  19  32  49  69  98 129 150 176 222 277
#     4   8  14  25  41  63  91 118 143 175 222 274
#
# _framework density 14.787072999999999
#
# number of rings (size 3 to 8) (size 9 to 14) (size 15 to 20)
#    0.000    2.538    1.538    4.615    0.000    2.462 
#    0.000    3.846    0.000    5.538    0.000    4.308 
#    0.000    0.000    0.000    0.000    0.000    0.000 
#
# Total GULP energy -289548.927480 kJ/mol
# GULP energy per Si atom -5568.248605 kJ/mol
# Density = 1.475342 g / cm^3
# Si number density = 14.787073 Si / 1000 Ang^3
#
#
#
# Elastic Constant Matrix: (Units=GPa)
#
#
# Indices 1 2 3 4 5 6 
#
# 1 54.3707 41.3604 34.1173 0.0000 0.0000 0.0000
# 2 41.3604 117.2914 43.3859 0.0000 0.0000 0.0000
# 3 34.1173 43.3859 54.8338 0.0000 0.0000 0.0000
# 4 0.0000 0.0000 0.0000 15.3778 0.0000 0.0000
# 5 0.0000 0.0000 0.0000 0.0000 54.6618 0.0000
# 6 0.0000 0.0000 0.0000 0.0000 0.0000 21.4183
#
#
#
# Elastic Compliance Matrix: (Units=1/GPa)
#
#
# Indices 1 2 3 4 5 6 
#
# 1 0.032621 -0.005649 -0.015827 0.000000 0.000000 0.000000
# 2 -0.005649 0.013032 -0.006796 0.000000 0.000000 0.000000
# 3 -0.015827 -0.006796 0.033462 0.000000 0.000000 0.000000
# 4 0.000000 0.000000 0.000000 0.065029 0.000000 0.000000
# 5 0.000000 0.000000 0.000000 0.000000 0.018294 0.000000
# 6 0.000000 0.000000 0.000000 0.000000 0.000000 0.046689
#
#
# Mechanical properties :
#
#
# Convention : Reuss Voigt Hill
#
# Bulk Modulus (GPa) = 44.30656 51.58034 47.94345
# Shear Modulus (GPa) = 18.30204 25.46707 21.88456
#
# Velocity S-wave (km/s) = 3.52192 4.15451 3.85122
# Velocity P-wave (km/s) = 6.82398 7.61387 7.22972
#
# Compressibility (1/GPa) = 0.02257002
#
# Stress axis : x y z
#
# Youngs Moduli (GPa) = 30.65549 76.73640 29.88472
#
# Poissons Ratio (x) = 0.43345 0.47299
# Poissons Ratio (y) = 0.17316 0.20311
# Poissons Ratio (z) = 0.48519 0.52153
#
# Static dielectric constant tensor:
#      x y z
#    x 1.476850 0.000000 0.000000 
#    y 0.000000 1.514350 0.000000 
#    z 0.000000 0.000000 1.485610 
# 
# From -- ./inp_files/71260.got.cif
#   From: 2010.05.17/outbox.cif.g08.bks.cpg/sg65_36_cif.got.tgz:71260.got - 2010.06.03 17:01:31.
