data_PCOD9486456
_publ_section_title
;
Structure prediction by ZEFSAII (Michael W. Deem and Ramdas Pophale) SiO2 
 PCOD9486456
Probable space group: C M M M
;
_chemical_formula_sum "Si O2"
_cell_formula_units_Z 80
_cell_length_a 16.383394
_cell_length_b 8.628198
_cell_length_c 29.165875
_cell_angle_alpha 90.000000
_cell_angle_beta 90.000000
_cell_angle_gamma 90.000000
_cell_volume 4122.863805
_symmetry_space_group_name_H-M "C M M M"
_symmetry_group_IT_number 65
_symmetry_cell_setting 'orthorhombic'
loop_
_space_group_symop_operation_xyz
x,y,z
-x,-y,z
x,-y,-z
-x,y,-z
-x,-y,-z
x,y,-z
-x,y,z
x,-y,z
1/2+x,1/2+y,z
1/2-x,1/2-y,z
1/2+x,1/2-y,-z
1/2-x,1/2+y,-z
1/2-x,1/2-y,-z
1/2+x,1/2+y,-z
1/2-x,1/2+y,z
1/2+x,1/2-y,z
loop_
_atom_site_type_symbol
_atom_site_label
_atom_site_fract_x
_atom_site_fract_y
_atom_site_fract_z
Si Si1 0.905840 0.811133 0.191292
Si Si2 0.156343 0.686541 0.613376
Si Si3 0.000000 0.688584 0.552761
Si Si4 0.598172 0.676893 0.093187
Si Si5 0.839792 0.318271 0.000000
Si Si6 0.340868 0.686693 0.709829
O O1 0.869911 0.758546 0.142164
O O2 0.871991 0.761940 0.240288
O O3 0.000000 0.765314 0.191816
O O4 0.901700 0.000000 0.189851
O O5 0.162781 0.500000 0.613675
O O6 0.250000 0.750000 0.605746
O O7 0.123357 0.744105 0.663036
O O8 0.085227 0.734540 0.577606
O O9 0.000000 0.500000 0.553676
O O10 0.000000 0.739678 0.500000
O O11 0.500000 0.671351 0.097494
O O12 0.627969 0.500000 0.088013
O O13 0.618310 0.764238 0.046884
O O14 0.750000 0.250000 0.000000
O O15 0.836357 0.500000 0.000000
O O16 0.345209 0.500000 0.707735
O O17 0.250000 0.750000 0.708048
#
# Coordination Sequence:
#
# PCOD9486456 Si02
#       6
#    16  16   8  16   8  16
#     4   8  16  31  52  78 104 135 173 212 256 312
#     4  10  20  36  57  82 113 149 190 233 282 337
#     4   9  20  38  59  83 113 151 191 232 285 340
#     4   9  18  36  59  79 103 136 173 211 261 322
#     4  12  25  38  53  75 103 133 173 220 269 318
#     4  10  19  32  52  77 109 144 179 218 266 319
#
# _framework density 19.403987000000001
#
# number of rings (size 3 to 8) (size 9 to 14) (size 15 to 20)
#    0.000    2.500    0.000    4.800    1.400    2.800 
#    0.000    5.500    0.000    6.600    0.000    0.000 
#    0.000    0.000    0.000    0.000    0.000    0.000 
#
# Total GULP energy -222715.365305 kJ/mol
# GULP energy per Si atom -5567.884133 kJ/mol
# Density = 1.935982 g / cm^3
# Si number density = 19.403987 Si / 1000 Ang^3
#
#
#
# Elastic Constant Matrix: (Units=GPa)
#
#
# Indices 1 2 3 4 5 6 
#
# 1 58.6462 18.1551 69.7664 0.0000 0.0000 0.0000
# 2 18.1551 51.7942 47.0061 0.0000 0.0000 0.0000
# 3 69.7664 47.0061 224.5104 0.0000 0.0000 0.0000
# 4 0.0000 0.0000 0.0000 13.2245 0.0000 0.0000
# 5 0.0000 0.0000 0.0000 0.0000 660.9080 0.0000
# 6 0.0000 0.0000 0.0000 0.0000 0.0000 14.7060
#
#
#
# Elastic Compliance Matrix: (Units=1/GPa)
#
#
# Indices 1 2 3 4 5 6 
#
# 1 0.027273 -0.002307 -0.007992 0.000000 0.000000 0.000000
# 2 -0.002307 0.024032 -0.004315 0.000000 0.000000 0.000000
# 3 -0.007992 -0.004315 0.007841 0.000000 0.000000 0.000000
# 4 0.000000 0.000000 0.000000 0.075617 0.000000 0.000000
# 5 0.000000 0.000000 0.000000 0.000000 0.001513 0.000000
# 6 0.000000 0.000000 0.000000 0.000000 0.000000 0.068000
#
#
# Mechanical properties :
#
#
# Convention : Reuss Voigt Hill
#
# Bulk Modulus (GPa) = 33.42378 67.20066 50.31222
# Shear Modulus (GPa) = 20.53597 151.10258 85.81928
#
# Velocity S-wave (km/s) = 3.25674 8.83408 6.65760
# Velocity P-wave (km/s) = 5.60396 11.77974 9.22406
#
# Compressibility (1/GPa) = 0.02991882
#
# Stress axis : x y z
#
# Youngs Moduli (GPa) = 36.66623 41.61192 127.53331
#
# Poissons Ratio (x) = 0.09598 1.01927
# Poissons Ratio (y) = 0.08457 0.55028
# Poissons Ratio (z) = 0.29304 0.17955
#
# Static dielectric constant tensor:
#      x y z
#    x 1.676360 0.000000 0.000000 
#    y 0.000000 1.599830 0.000000 
#    z 0.000000 0.000000 1.782120 
# 
# From -- ./inp_files/75045.got.cif
#   From: 2010.05.17/outbox.cif.g08.bks.cpg/sg65_38_cif.got.tgz:75045.got - 2010.06.03 17:01:31.
