data_PCOD9486411
_publ_section_title
;
Structure prediction by ZEFSAII (Michael W. Deem and Ramdas Pophale) SiO2 
 PCOD9486411
Probable space group: C M M M
;
_chemical_formula_sum "Si O2"
_cell_formula_units_Z 88
_cell_length_a 19.324883
_cell_length_b 8.972944
_cell_length_c 28.710104
_cell_angle_alpha 90.000000
_cell_angle_beta 90.000000
_cell_angle_gamma 90.000000
_cell_volume 4978.363413
_symmetry_space_group_name_H-M "C M M M"
_symmetry_group_IT_number 65
_symmetry_cell_setting 'orthorhombic'
loop_
_space_group_symop_operation_xyz
x,y,z
-x,-y,z
x,-y,-z
-x,y,-z
-x,-y,-z
x,y,-z
-x,y,z
x,-y,z
1/2+x,1/2+y,z
1/2-x,1/2-y,z
1/2+x,1/2-y,-z
1/2-x,1/2+y,-z
1/2-x,1/2-y,-z
1/2+x,1/2+y,-z
1/2-x,1/2+y,z
1/2+x,1/2-y,z
loop_
_atom_site_type_symbol
_atom_site_label
_atom_site_fract_x
_atom_site_fract_y
_atom_site_fract_z
Si Si1 0.325636 0.322727 0.367974
Si Si2 0.581433 0.821302 0.288627
Si Si3 0.826301 0.178573 0.101859
Si Si4 0.173900 0.821198 0.000000
Si Si5 0.919741 0.677112 0.555163
Si Si6 0.581150 0.178049 0.180963
O O1 0.319842 0.500000 0.367008
O O2 0.250000 0.250000 0.367425
O O3 0.369978 0.264138 0.324186
O O4 0.367497 0.268906 0.413466
O O5 0.500000 0.788422 0.296719
O O6 0.597723 0.784698 0.234760
O O7 0.589782 0.000000 0.294600
O O8 0.750000 0.250000 0.104997
O O9 0.872773 0.238472 0.143522
O O10 0.820508 0.000000 0.104401
O O11 0.856899 0.219434 0.050451
O O12 0.250000 0.750000 0.000000
O O13 0.180412 0.000000 0.000000
O O14 0.909889 0.701915 0.500000
O O15 0.910445 0.500000 0.563959
O O16 0.000000 0.712808 0.566389
O O17 0.500000 0.210972 0.173892
O O18 0.590403 0.000000 0.175899
#
# Coordination Sequence:
#
# PCOD9486411 Si02
#       6
#    16  16  16   8  16  16
#     4  12  25  38  55  81 113 146 180 222 268 313
#     4   9  19  38  61  80 103 138 176 216 264 318
#     4  10  19  32  52  76 103 136 174 217 262 311
#     4   8  16  30  47  70  99 133 173 213 257 308
#     4   9  19  38  63  87 112 145 182 218 261 316
#     4   9  19  36  56  78 105 137 173 214 262 315
#
# _framework density 17.676492
#
# number of rings (size 3 to 8) (size 9 to 14) (size 15 to 20)
#    0.000    2.364    0.000    4.364    0.000    6.182 
#    0.000    3.182    0.000    2.727    0.000    0.000 
#    0.000    0.000    0.000    0.000    0.000    0.000 
#
# Total GULP energy -245494.843774 kJ/mol
# GULP energy per Si atom -5579.428268 kJ/mol
# Density = 1.763626 g / cm^3
# Si number density = 17.676492 Si / 1000 Ang^3
#
#
#
# Elastic Constant Matrix: (Units=GPa)
#
#
# Indices 1 2 3 4 5 6 
#
# 1 103.9272 74.8390 97.0429 0.0000 0.0000 0.0000
# 2 74.8390 80.5923 82.5935 0.0000 0.0000 0.0000
# 3 97.0429 82.5935 133.1513 0.0000 0.0000 0.0000
# 4 0.0000 0.0000 0.0000 29.7239 0.0000 0.0000
# 5 0.0000 0.0000 0.0000 0.0000 32.1024 0.0000
# 6 0.0000 0.0000 0.0000 0.0000 0.0000 32.2521
#
#
#
# Elastic Compliance Matrix: (Units=1/GPa)
#
#
# Indices 1 2 3 4 5 6 
#
# 1 0.038614 -0.019259 -0.016196 0.000000 0.000000 0.000000
# 2 -0.019259 0.043666 -0.013049 0.000000 0.000000 0.000000
# 3 -0.016196 -0.013049 0.027409 0.000000 0.000000 0.000000
# 4 0.000000 0.000000 0.000000 0.033643 0.000000 0.000000
# 5 0.000000 0.000000 0.000000 0.000000 0.031150 0.000000
# 6 0.000000 0.000000 0.000000 0.000000 0.000000 0.031006
#
#
# Mechanical properties :
#
#
# Convention : Reuss Voigt Hill
#
# Bulk Modulus (GPa) = 78.86906 91.84685 85.35796
# Shear Modulus (GPa) = 16.30124 23.02871 19.66497
#
# Velocity S-wave (km/s) = 3.04007 3.61333 3.33902
# Velocity P-wave (km/s) = 7.55232 8.33552 7.95357
#
# Compressibility (1/GPa) = 0.01267924
#
# Stress axis : x y z
#
# Youngs Moduli (GPa) = 25.89706 22.90105 36.48438
#
# Poissons Ratio (x) = 0.44106 0.59091
# Poissons Ratio (y) = 0.49876 0.47610
# Poissons Ratio (z) = 0.41944 0.29885
#
# Static dielectric constant tensor:
#      x y z
#    x 1.565260 0.000000 0.000000 
#    y 0.000000 1.587870 0.000000 
#    z 0.000000 0.000000 1.619120 
# 
# From -- ./inp_files/77840.got.cif
#   From: 2010.05.17/outbox.cif.g08.bks.cpg/sg65_39_cif.got.tgz:77840.got - 2010.06.03 17:01:31.
