data_PCOD9486145
_publ_section_title
;
Structure prediction by ZEFSAII (Michael W. Deem and Ramdas Pophale) SiO2 
 PCOD9486145
Probable space group: C M M M
;
_chemical_formula_sum "Si O2"
_cell_formula_units_Z 88
_cell_length_a 27.757626
_cell_length_b 15.132254
_cell_length_c 12.738706
_cell_angle_alpha 90.000000
_cell_angle_beta 90.000000
_cell_angle_gamma 90.000000
_cell_volume 5350.708070
_symmetry_space_group_name_H-M "C M M M"
_symmetry_group_IT_number 65
_symmetry_cell_setting 'orthorhombic'
loop_
_space_group_symop_operation_xyz
x,y,z
-x,-y,z
x,-y,-z
-x,y,-z
-x,-y,-z
x,y,-z
-x,y,z
x,-y,z
1/2+x,1/2+y,z
1/2-x,1/2-y,z
1/2+x,1/2-y,-z
1/2-x,1/2+y,-z
1/2-x,1/2-y,-z
1/2+x,1/2+y,-z
1/2-x,1/2+y,z
1/2+x,1/2-y,z
loop_
_atom_site_type_symbol
_atom_site_label
_atom_site_fract_x
_atom_site_fract_y
_atom_site_fract_z
Si Si1 0.659263 0.500000 0.373358
Si Si2 0.231067 0.500000 0.625536
Si Si3 0.616887 0.687990 0.375136
Si Si4 0.442902 0.179235 0.276713
Si Si5 0.798400 0.309170 0.712546
Si Si6 0.135813 0.604744 0.124355
Si Si7 0.057288 0.397240 0.500000
O O1 0.662805 0.500000 0.500000
O O2 0.713866 0.500000 0.333672
O O3 0.632283 0.589441 0.345393
O O4 0.230209 0.500000 0.500000
O O5 0.209361 0.594061 0.661127
O O6 0.604844 0.690882 0.500000
O O7 0.574009 0.721151 0.299936
O O8 0.662730 0.751252 0.351998
O O9 0.500000 0.168849 0.264126
O O10 0.412920 0.134337 0.184164
O O11 0.425709 0.137329 0.388063
O O12 0.750000 0.250000 0.718781
O O13 0.822647 0.334974 0.823744
O O14 0.144371 0.500000 0.144180
O O15 0.132278 0.617333 0.000000
O O16 0.065870 0.500000 0.500000
O O17 0.000000 0.378749 0.500000
#
# Coordination Sequence:
#
# PCOD9486145 Si02
#       7
#     8   8  16  16  16  16   8
#     4   9  18  30  49  73 108 148 184 216 258 308
#     4  11  20  32  51  80 116 150 181 215 262 323
#     4  10  19  32  49  77 111 146 179 218 261 316
#     4  10  20  34  53  77 105 139 175 218 275 329
#     4  11  21  34  54  80 109 146 185 221 265 317
#     4  10  22  39  55  76 106 140 184 233 274 318
#     4   9  16  28  48  73 102 131 165 207 257 323
#
# _framework density 16.446421000000001
#
# number of rings (size 3 to 8) (size 9 to 14) (size 15 to 20)
#    0.000    1.909    3.636    1.091    0.000    2.545 
#    0.000    1.364    0.000    1.636    0.000    5.727 
#    0.000    5.818    0.000    0.000    0.000    0.000 
#
# Total GULP energy -245102.432175 kJ/mol
# GULP energy per Si atom -5570.509822 kJ/mol
# Density = 1.640899 g / cm^3
# Si number density = 16.446421 Si / 1000 Ang^3
#
#
#
# Elastic Constant Matrix: (Units=GPa)
#
#
# Indices 1 2 3 4 5 6 
#
# 1 71.1162 27.9861 27.6030 0.0000 0.0000 0.0000
# 2 27.9861 117.9114 30.1692 0.0000 0.0000 0.0000
# 3 27.6030 30.1692 83.4772 0.0000 0.0000 0.0000
# 4 0.0000 0.0000 0.0000 17.9559 0.0000 0.0000
# 5 0.0000 0.0000 0.0000 0.0000 18.5696 0.0000
# 6 0.0000 0.0000 0.0000 0.0000 0.0000 16.4315
#
#
#
# Elastic Compliance Matrix: (Units=1/GPa)
#
#
# Indices 1 2 3 4 5 6 
#
# 1 0.016961 -0.002855 -0.004577 0.000000 0.000000 0.000000
# 2 -0.002855 0.009826 -0.002607 0.000000 0.000000 0.000000
# 3 -0.004577 -0.002607 0.014435 0.000000 0.000000 0.000000
# 4 0.000000 0.000000 0.000000 0.055692 0.000000 0.000000
# 5 0.000000 0.000000 0.000000 0.000000 0.053851 0.000000
# 6 0.000000 0.000000 0.000000 0.000000 0.000000 0.060859
#
#
# Mechanical properties :
#
#
# Convention : Reuss Voigt Hill
#
# Bulk Modulus (GPa) = 47.29330 49.33569 48.31449
# Shear Modulus (GPa) = 20.94248 23.04118 21.99183
#
# Velocity S-wave (km/s) = 3.57231 3.74703 3.66071
# Velocity P-wave (km/s) = 6.77005 6.98450 6.87811
#
# Compressibility (1/GPa) = 0.02114465
#
# Stress axis : x y z
#
# Youngs Moduli (GPa) = 58.95765 101.77535 69.27646
#
# Poissons Ratio (x) = 0.29054 0.31706
# Poissons Ratio (y) = 0.16831 0.18061
# Poissons Ratio (z) = 0.26984 0.26533
#
# Static dielectric constant tensor:
#      x y z
#    x 1.579250 0.000000 0.000000 
#    y 0.000000 1.596410 0.000000 
#    z 0.000000 0.000000 1.540640 
# 
# From -- ./inp_files/25206.got.cif
#   From: 2010.05.17/outbox.cif.g08.bks.cpg/sg65_13_cif.got.tgz:25206.got - 2010.06.03 17:01:31.
