data_PCOD9486199
_publ_section_title
;
Structure prediction by ZEFSAII (Michael W. Deem and Ramdas Pophale) SiO2 
 PCOD9486199
Probable space group: C M M M
;
_chemical_formula_sum "Si O2"
_cell_formula_units_Z 90
_cell_length_a 28.513968
_cell_length_b 8.993324
_cell_length_c 21.721237
_cell_angle_alpha 90.000000
_cell_angle_beta 90.000000
_cell_angle_gamma 90.000000
_cell_volume 5570.093072
_symmetry_space_group_name_H-M "C M M M"
_symmetry_group_IT_number 65
_symmetry_cell_setting 'orthorhombic'
loop_
_space_group_symop_operation_xyz
x,y,z
-x,-y,z
x,-y,-z
-x,y,-z
-x,-y,-z
x,y,-z
-x,y,z
x,-y,z
1/2+x,1/2+y,z
1/2-x,1/2-y,z
1/2+x,1/2-y,-z
1/2-x,1/2+y,-z
1/2-x,1/2-y,-z
1/2+x,1/2+y,-z
1/2-x,1/2+y,z
1/2+x,1/2-y,z
loop_
_atom_site_type_symbol
_atom_site_label
_atom_site_fract_x
_atom_site_fract_y
_atom_site_fract_z
Si Si1 0.699568 0.824713 0.704576
Si Si2 0.200156 0.320866 0.071837
Si Si3 0.445992 0.320969 0.257452
Si Si4 0.367633 0.824784 0.177983
Si Si5 0.596622 0.835594 0.500000
Si Si6 0.500000 0.000000 0.500000
Si Si7 0.380871 0.321668 0.627644
O O1 0.750000 0.750000 0.708630
O O2 0.671643 0.808452 0.768844
O O3 0.667325 0.743622 0.654392
O O4 0.703478 0.000000 0.691342
O O5 0.204014 0.500000 0.077491
O O6 0.250000 0.250000 0.090388
O O7 0.157445 0.272094 0.115477
O O8 0.192207 0.284515 0.000000
O O9 0.500000 0.270680 0.255129
O O10 0.445410 0.500000 0.254361
O O11 0.413571 0.257802 0.202905
O O12 0.420907 0.278514 0.322036
O O13 0.378473 0.000000 0.172078
O O14 0.541569 0.873235 0.500000
O O15 0.609038 0.747304 0.561488
O O16 0.620165 0.000000 0.500000
O O17 0.379114 0.500000 0.624933
#
# Coordination Sequence:
#
# PCOD9486199 Si02
#       7
#    16  16  16  16   8   2  16
#     4  10  19  32  50  74 101 132 166 203 243 291
#     4   9  17  29  46  70 100 130 161 197 237 284
#     4   9  19  33  50  72  97 124 159 203 247 289
#     4   9  18  31  47  71  98 129 163 200 244 287
#     4  10  21  37  52  76 102 131 161 194 242 291
#     4   8  24  36  54  76 104 136 158 196 242 300
#     4  10  20  35  54  75 100 130 163 203 245 292
#
# _framework density 16.157719
#
# number of rings (size 3 to 8) (size 9 to 14) (size 15 to 20)
#    0.267    2.311    0.000    1.867    1.244    2.489 
#    0.000    0.889    0.000    0.533    0.000    3.733 
#    0.000    0.000    0.000    0.000    0.000    0.000 
#
# Total GULP energy -250532.065500 kJ/mol
# GULP energy per Si atom -5567.379233 kJ/mol
# Density = 1.612094 g / cm^3
# Si number density = 16.157719 Si / 1000 Ang^3
#
#
#
# Elastic Constant Matrix: (Units=GPa)
#
#
# Indices 1 2 3 4 5 6 
#
# 1 120.7078 43.4388 41.7220 0.0000 0.0000 0.0000
# 2 43.4388 51.1293 32.4996 0.0000 0.0000 0.0000
# 3 41.7220 32.4996 81.4627 0.0000 0.0000 0.0000
# 4 0.0000 0.0000 0.0000 21.2964 0.0000 0.0000
# 5 0.0000 0.0000 0.0000 0.0000 6.8388 0.0000
# 6 0.0000 0.0000 0.0000 0.0000 0.0000 30.4978
#
#
#
# Elastic Compliance Matrix: (Units=1/GPa)
#
#
# Indices 1 2 3 4 5 6 
#
# 1 0.012418 -0.008718 -0.002882 0.000000 0.000000 0.000000
# 2 -0.008718 0.032324 -0.008430 0.000000 0.000000 0.000000
# 3 -0.002882 -0.008430 0.017115 0.000000 0.000000 0.000000
# 4 0.000000 0.000000 0.000000 0.046956 0.000000 0.000000
# 5 0.000000 0.000000 0.000000 0.000000 0.146224 0.000000
# 6 0.000000 0.000000 0.000000 0.000000 0.000000 0.032789
#
#
# Mechanical properties :
#
#
# Convention : Reuss Voigt Hill
#
# Bulk Modulus (GPa) = 45.88099 54.29117 50.08608
# Shear Modulus (GPa) = 14.91855 20.76923 17.84389
#
# Velocity S-wave (km/s) = 3.04189 3.58915 3.32679
# Velocity P-wave (km/s) = 6.38709 7.13090 6.76921
#
# Compressibility (1/GPa) = 0.02179552
#
# Stress axis : x y z
#
# Youngs Moduli (GPa) = 80.52820 30.93678 58.42878
#
# Poissons Ratio (x) = 0.26972 0.16838
# Poissons Ratio (y) = 0.70208 0.49258
# Poissons Ratio (z) = 0.23207 0.26081
#
# Static dielectric constant tensor:
#      x y z
#    x 1.518970 0.000000 0.000000 
#    y 0.000000 1.546800 0.000000 
#    z 0.000000 0.000000 1.536620 
# 
# From -- ./inp_files/66261.got.cif
#   From: 2010.05.17/outbox.cif.g08.bks.cpg/sg65_34_cif.got.tgz:66261.got - 2010.06.03 17:01:31.
