data_PCOD9486856
_publ_section_title
;
Structure prediction by ZEFSAII (Michael W. Deem and Ramdas Pophale) SiO2 
 PCOD9486856
Probable space group: C M M M
;
_chemical_formula_sum "Si O2"
_cell_formula_units_Z 88
_cell_length_a 9.027822
_cell_length_b 31.195969
_cell_length_c 17.476049
_cell_angle_alpha 90.000000
_cell_angle_beta 90.000000
_cell_angle_gamma 90.000000
_cell_volume 4921.808607
_symmetry_space_group_name_H-M "C M M M"
_symmetry_group_IT_number 65
_symmetry_cell_setting 'orthorhombic'
loop_
_space_group_symop_operation_xyz
x,y,z
-x,-y,z
x,-y,-z
-x,y,-z
-x,-y,-z
x,y,-z
-x,y,z
x,-y,z
1/2+x,1/2+y,z
1/2-x,1/2-y,z
1/2+x,1/2-y,-z
1/2-x,1/2+y,-z
1/2-x,1/2-y,-z
1/2+x,1/2+y,-z
1/2-x,1/2+y,z
1/2+x,1/2-y,z
loop_
_atom_site_type_symbol
_atom_site_label
_atom_site_fract_x
_atom_site_fract_y
_atom_site_fract_z
Si Si1 0.820313 0.950926 0.500000
Si Si2 0.828492 0.293874 0.381441
Si Si3 0.175141 0.949140 0.088515
Si Si4 0.169185 0.292447 0.805046
Si Si5 0.178253 0.385898 0.794853
Si Si6 0.321479 0.383059 0.628454
O O1 0.778890 0.922366 0.573381
O O2 0.000000 0.952919 0.500000
O O3 0.765655 0.000000 0.500000
O O4 0.750000 0.250000 0.407433
O O5 0.826949 0.292540 0.288145
O O6 0.743528 0.337691 0.401444
O O7 0.000000 0.295347 0.405194
O O8 0.271319 0.922307 0.147355
O O9 0.000000 0.940763 0.101123
O O10 0.198011 0.000000 0.098391
O O11 0.209117 0.938642 0.000000
O O12 0.250000 0.250000 0.832090
O O13 0.227999 0.339237 0.826692
O O14 0.000000 0.289670 0.829388
O O15 0.254446 0.391009 0.712355
O O16 0.000000 0.384646 0.785234
O O17 0.500000 0.379947 0.631789
#
# Coordination Sequence:
#
# PCOD9486856 Si02
#       6
#     8  16  16  16  16  16
#     4   9  20  38  56  73  96 131 176 223 268 313
#     4   9  16  28  47  73 104 134 167 208 256 309
#     4   9  19  36  56  78 104 134 170 212 259 312
#     4   8  15  26  42  67  99 132 165 202 241 287
#     4  10  20  33  51  79 110 137 170 211 255 308
#     4  10  19  33  54  77 102 135 176 219 262 308
#
# _framework density 17.879605999999999
#
# number of rings (size 3 to 8) (size 9 to 14) (size 15 to 20)
#    0.000    2.818    0.000    3.273    0.000    6.545 
#    0.000    5.000    0.000    4.364    0.000    0.000 
#    0.000    0.000    0.000    0.000    0.000    0.000 
#
# Total GULP energy -245280.584541 kJ/mol
# GULP energy per Si atom -5574.558740 kJ/mol
# Density = 1.783891 g / cm^3
# Si number density = 17.879606 Si / 1000 Ang^3
#
#
#
# Elastic Constant Matrix: (Units=GPa)
#
#
# Indices 1 2 3 4 5 6 
#
# 1 78.0243 65.1952 40.4745 0.0000 0.0000 0.0000
# 2 65.1952 144.7927 58.0305 0.0000 0.0000 0.0000
# 3 40.4745 58.0305 57.1043 0.0000 0.0000 0.0000
# 4 0.0000 0.0000 0.0000 -125.0807 0.0000 0.0000
# 5 0.0000 0.0000 0.0000 0.0000 -4.0662 0.0000
# 6 0.0000 0.0000 0.0000 0.0000 0.0000 34.4327
#
#
#
# Elastic Compliance Matrix: (Units=1/GPa)
#
#
# Indices 1 2 3 4 5 6 
#
# 1 0.023480 -0.006584 -0.009952 0.000000 0.000000 0.000000
# 2 -0.006584 0.013498 -0.009051 0.000000 0.000000 0.000000
# 3 -0.009952 -0.009051 0.033763 0.000000 0.000000 0.000000
# 4 0.000000 0.000000 0.000000 -0.007995 0.000000 0.000000
# 5 0.000000 0.000000 0.000000 0.000000 -0.245931 0.000000
# 6 0.000000 0.000000 0.000000 0.000000 0.000000 0.029042
#
#
# Mechanical properties :
#
#
# Convention : Reuss Voigt Hill
#
# Bulk Modulus (GPa) = 51.10157 67.48018 59.29088
# Shear Modulus (GPa) = -51.84190 -11.19474 -31.51832
#
# Velocity S-wave (km/s) = -5.39054 -2.50495 -4.20314
# Velocity P-wave (km/s) = 3.17820 5.42743 3.11095
#
# Compressibility (1/GPa) = 0.01956887
#
# Stress axis : x y z
#
# Youngs Moduli (GPa) = 42.58919 74.08351 29.61835
#
# Poissons Ratio (x) = 0.48775 0.29475
# Poissons Ratio (y) = 0.28040 0.26807
# Poissons Ratio (z) = 0.42383 0.67051
#
# Static dielectric constant tensor:
#      x y z
#    x 1.603060 0.000000 0.000000 
#    y 0.000000 1.619590 0.000000 
#    z 0.000000 0.000000 1.604090 
# 
# From -- ./inp_files/50392.got.cif
#   From: 2010.05.17/outbox.cif.g08.bks.cpg/sg65_26_cif.got.tgz:50392.got - 2010.06.03 17:01:31.
