data_PCOD9486308
_publ_section_title
;
Structure prediction by ZEFSAII (Michael W. Deem and Ramdas Pophale) SiO2 
 PCOD9486308
Probable space group: C M M M
;
_chemical_formula_sum "Si O2"
_cell_formula_units_Z 80
_cell_length_a 8.382217
_cell_length_b 18.449763
_cell_length_c 27.298883
_cell_angle_alpha 90.000000
_cell_angle_beta 90.000000
_cell_angle_gamma 90.000000
_cell_volume 4221.769992
_symmetry_space_group_name_H-M "C M M M"
_symmetry_group_IT_number 65
_symmetry_cell_setting 'orthorhombic'
loop_
_space_group_symop_operation_xyz
x,y,z
-x,-y,z
x,-y,-z
-x,y,-z
-x,-y,-z
x,y,-z
-x,y,z
x,-y,z
1/2+x,1/2+y,z
1/2-x,1/2-y,z
1/2+x,1/2-y,-z
1/2-x,1/2+y,-z
1/2-x,1/2-y,-z
1/2+x,1/2+y,-z
1/2-x,1/2+y,z
1/2+x,1/2-y,z
loop_
_atom_site_type_symbol
_atom_site_label
_atom_site_fract_x
_atom_site_fract_y
_atom_site_fract_z
Si Si1 0.190907 0.582929 0.192458
Si Si2 0.191732 0.833157 0.287509
Si Si3 0.309050 0.332177 0.097237
Si Si4 0.693212 0.333842 0.500000
Si Si5 0.192722 0.833437 0.605345
Si Si6 0.694909 0.583499 0.000000
O O1 0.248875 0.500000 0.189878
O O2 0.244272 0.620087 0.242830
O O3 0.253262 0.627960 0.146280
O O4 0.000000 0.582867 0.190719
O O5 0.250000 0.750000 0.282873
O O6 0.243992 0.862187 0.341415
O O7 0.000000 0.832952 0.285874
O O8 0.500000 0.332002 0.096573
O O9 0.250000 0.250000 0.096320
O O10 0.252152 0.375121 0.048951
O O11 0.500000 0.334569 0.500000
O O12 0.750000 0.250000 0.500000
O O13 0.746157 0.365493 0.552736
O O14 0.250000 0.750000 0.605156
O O15 0.000000 0.834547 0.605290
O O16 0.746598 0.500000 0.000000
O O17 0.500000 0.583651 0.000000
#
# Coordination Sequence:
#
# PCOD9486308 Si02
#       6
#    16  16  16   8  16   8
#     4  11  24  40  56  76 103 135 174 220 268 315
#     4  10  19  32  51  75 103 135 172 212 257 310
#     4  11  22  38  61  86 114 145 178 216 257 305
#     4   8  12  20  34  56  89 124 157 195 243 295
#     4   8  14  23  38  62  92 126 161 200 246 298
#     4   9  19  36  59  87 116 147 182 217 254 298
#
# _framework density 18.949397000000001
#
# number of rings (size 3 to 8) (size 9 to 14) (size 15 to 20)
#    0.000    2.300    0.000    3.300    0.000    3.200 
#    0.000    1.500    0.000    3.600    0.000    0.700 
#    0.000    5.600    0.000    0.000    0.000    0.400 
#
# Total GULP energy -223016.506052 kJ/mol
# GULP energy per Si atom -5575.412651 kJ/mol
# Density = 1.890627 g / cm^3
# Si number density = 18.949397 Si / 1000 Ang^3
#
#
#
# Elastic Constant Matrix: (Units=GPa)
#
#
# Indices 1 2 3 4 5 6 
#
# 1 30.5709 19.8316 29.5402 0.0000 0.0000 0.0000
# 2 19.8316 115.4329 98.1569 0.0000 0.0000 0.0000
# 3 29.5402 98.1569 247.3410 0.0000 0.0000 0.0000
# 4 0.0000 0.0000 0.0000 -10.7467 0.0000 0.0000
# 5 0.0000 0.0000 0.0000 0.0000 -52.5748 0.0000
# 6 0.0000 0.0000 0.0000 0.0000 0.0000 8.4834
#
#
#
# Elastic Compliance Matrix: (Units=1/GPa)
#
#
# Indices 1 2 3 4 5 6 
#
# 1 0.038192 -0.004049 -0.002954 0.000000 0.000000 0.000000
# 2 -0.004049 0.013505 -0.004876 0.000000 0.000000 0.000000
# 3 -0.002954 -0.004876 0.006331 0.000000 0.000000 0.000000
# 4 0.000000 0.000000 0.000000 -0.093052 0.000000 0.000000
# 5 0.000000 0.000000 0.000000 0.000000 -0.019021 0.000000
# 6 0.000000 0.000000 0.000000 0.000000 0.000000 0.117878
#
#
# Mechanical properties :
#
#
# Convention : Reuss Voigt Hill
#
# Bulk Modulus (GPa) = 29.18078 76.48911 52.83495
# Shear Modulus (GPa) = 50.49717 5.42011 27.95864
#
# Velocity S-wave (km/s) = 5.16781 1.69308 3.84531
# Velocity P-wave (km/s) = 7.14431 6.65392 6.90347
#
# Compressibility (1/GPa) = 0.03426914
#
# Stress axis : x y z
#
# Youngs Moduli (GPa) = 26.18316 74.04820 157.95873
#
# Poissons Ratio (x) = 0.29984 0.46667
# Poissons Ratio (y) = 0.10602 0.77016
# Poissons Ratio (z) = 0.07736 0.36104
#
# Static dielectric constant tensor:
#      x y z
#    x 1.679830 0.000000 0.000000 
#    y 0.000000 1.630370 0.000000 
#    z 0.000000 0.000000 1.706150 
# 
# From -- ./inp_files/67273.got.cif
#   From: 2010.05.17/outbox.cif.g08.bks.cpg/sg65_34_cif.got.tgz:67273.got - 2010.06.03 17:01:31.
