data_PCOD9486487
_publ_section_title
;
Structure prediction by ZEFSAII (Michael W. Deem and Ramdas Pophale) SiO2 
 PCOD9486487
Probable space group: C M M M
;
_chemical_formula_sum "Si O2"
_cell_formula_units_Z 120
_cell_length_a 27.562345
_cell_length_b 8.458534
_cell_length_c 28.385188
_cell_angle_alpha 90.000000
_cell_angle_beta 90.000000
_cell_angle_gamma 90.000000
_cell_volume 6617.638492
_symmetry_space_group_name_H-M "C M M M"
_symmetry_group_IT_number 65
_symmetry_cell_setting 'orthorhombic'
loop_
_space_group_symop_operation_xyz
x,y,z
-x,-y,z
x,-y,-z
-x,y,-z
-x,-y,-z
x,y,-z
-x,y,z
x,-y,z
1/2+x,1/2+y,z
1/2-x,1/2-y,z
1/2+x,1/2-y,-z
1/2-x,1/2+y,-z
1/2-x,1/2-y,-z
1/2+x,1/2+y,-z
1/2-x,1/2+y,z
1/2+x,1/2-y,z
loop_
_atom_site_type_symbol
_atom_site_label
_atom_site_fract_x
_atom_site_fract_y
_atom_site_fract_z
Si Si1 0.800453 0.309697 0.554135
Si Si2 0.803843 0.311682 0.211267
Si Si3 0.447831 0.691834 0.779344
Si Si4 0.866934 0.190120 0.294003
Si Si5 0.054888 0.309636 0.055003
Si Si6 0.500000 0.689916 0.555792
Si Si7 0.116757 0.811063 0.862976
Si Si8 0.399534 0.810151 0.396353
O O1 0.799586 0.257160 0.500000
O O2 0.799452 0.500000 0.556167
O O3 0.750000 0.250000 0.576951
O O4 0.852227 0.257284 0.573998
O O5 0.805478 0.500000 0.212858
O O6 0.750000 0.250000 0.202416
O O7 0.821315 0.247158 0.262658
O O8 0.838398 0.254495 0.168029
O O9 0.500000 0.757293 0.769032
O O10 0.449042 0.500000 0.777852
O O11 0.410014 0.741081 0.740647
O O12 0.429124 0.735060 0.830473
O O13 0.882858 0.258753 0.344091
O O14 0.864337 0.000000 0.297833
O O15 0.054901 0.500000 0.058137
O O16 0.099655 0.247349 0.086118
O O17 0.000000 0.255302 0.069493
O O18 0.060560 0.266641 0.000000
O O19 0.500000 0.500000 0.556032
O O20 0.500000 0.741636 0.500000
O O21 0.549361 0.745342 0.582875
O O22 0.122110 0.000000 0.863758
O O23 0.403060 0.000000 0.398353
#
# Coordination Sequence:
#
# PCOD9486487 Si02
#       8
#    16  16  16  16  16   8  16  16
#     4   9  19  36  58  82 107 137 175 222 276 332
#     4  11  22  39  61  83 111 147 190 238 290 347
#     4   8  15  28  47  71 101 137 173 214 261 313
#     4  10  21  36  55  82 114 146 183 224 273 329
#     4   9  18  32  50  76 114 157 197 239 289 342
#     4  11  25  43  63  87 115 155 205 251 296 351
#     4  10  19  32  52  80 110 143 188 235 285 343
#     4  11  23  39  59  85 118 154 191 233 287 350
#
# _framework density 18.133357
#
# number of rings (size 3 to 8) (size 9 to 14) (size 15 to 20)
#    0.000    2.200    0.000    4.600    0.933    3.733 
#    0.000    3.333    0.000    2.800    0.000    0.000 
#    0.000    0.000    0.000    0.000    0.000    0.000 
#
# Total GULP energy -334082.114415 kJ/mol
# GULP energy per Si atom -5568.035240 kJ/mol
# Density = 1.809208 g / cm^3
# Si number density = 18.133357 Si / 1000 Ang^3
#
#
#
# Elastic Constant Matrix: (Units=GPa)
#
#
# Indices 1 2 3 4 5 6 
#
# 1 120.6193 31.2943 57.6877 0.0000 0.0000 0.0000
# 2 31.2943 55.2447 30.0699 0.0000 0.0000 0.0000
# 3 57.6877 30.0699 109.3146 0.0000 0.0000 0.0000
# 4 0.0000 0.0000 0.0000 25.7150 0.0000 0.0000
# 5 0.0000 0.0000 0.0000 0.0000 16.0835 0.0000
# 6 0.0000 0.0000 0.0000 0.0000 0.0000 26.4862
#
#
#
# Elastic Compliance Matrix: (Units=1/GPa)
#
#
# Indices 1 2 3 4 5 6 
#
# 1 0.011749 -0.003858 -0.005139 0.000000 0.000000 0.000000
# 2 -0.003858 0.022556 -0.004168 0.000000 0.000000 0.000000
# 3 -0.005139 -0.004168 0.013007 0.000000 0.000000 0.000000
# 4 0.000000 0.000000 0.000000 0.038888 0.000000 0.000000
# 5 0.000000 0.000000 0.000000 0.000000 0.062176 0.000000
# 6 0.000000 0.000000 0.000000 0.000000 0.000000 0.037756
#
#
# Mechanical properties :
#
#
# Convention : Reuss Voigt Hill
#
# Bulk Modulus (GPa) = 47.66448 58.14247 52.90348
# Shear Modulus (GPa) = 22.78363 24.73204 23.75784
#
# Velocity S-wave (km/s) = 3.54849 3.69711 3.62356
# Velocity P-wave (km/s) = 6.56747 7.09635 6.83702
#
# Compressibility (1/GPa) = 0.02097998
#
# Stress axis : x y z
#
# Youngs Moduli (GPa) = 85.11054 44.33445 76.88447
#
# Poissons Ratio (x) = 0.17106 0.39511
# Poissons Ratio (y) = 0.32839 0.32048
# Poissons Ratio (z) = 0.43739 0.18480
#
# Static dielectric constant tensor:
#      x y z
#    x 1.648200 0.000000 0.000000 
#    y 0.000000 1.625690 0.000000 
#    z 0.000000 0.000000 1.666320 
# 
# From -- ./inp_files/76162.got.cif
#   From: 2010.05.17/outbox.cif.g08.bks.cpg/sg65_39_cif.got.tgz:76162.got - 2010.06.03 17:01:31.
