data_PCOD9486227
_publ_section_title
;
Structure prediction by ZEFSAII (Michael W. Deem and Ramdas Pophale) SiO2 
 PCOD9486227
Probable space group: C M M M
;
_chemical_formula_sum "Si O2"
_cell_formula_units_Z 72
_cell_length_a 15.459217
_cell_length_b 14.107281
_cell_length_c 16.758231
_cell_angle_alpha 90.000000
_cell_angle_beta 90.000000
_cell_angle_gamma 90.000000
_cell_volume 3654.761009
_symmetry_space_group_name_H-M "C M M M"
_symmetry_group_IT_number 65
_symmetry_cell_setting 'orthorhombic'
loop_
_space_group_symop_operation_xyz
x,y,z
-x,-y,z
x,-y,-z
-x,y,-z
-x,-y,-z
x,y,-z
-x,y,z
x,-y,z
1/2+x,1/2+y,z
1/2-x,1/2-y,z
1/2+x,1/2-y,-z
1/2-x,1/2+y,-z
1/2-x,1/2-y,-z
1/2+x,1/2+y,-z
1/2-x,1/2+y,z
1/2+x,1/2-y,z
loop_
_atom_site_type_symbol
_atom_site_label
_atom_site_fract_x
_atom_site_fract_y
_atom_site_fract_z
Si Si1 0.354258 0.267550 0.910716
Si Si2 0.394123 0.888806 0.500000
Si Si3 0.332129 0.608019 0.237676
Si Si4 0.373351 0.892840 0.201203
Si Si5 0.597055 0.234782 0.650085
O O1 0.250000 0.250000 0.912839
O O2 0.372878 0.344791 0.842035
O O3 0.391038 0.169235 0.876887
O O4 0.382116 0.292096 0.000000
O O5 0.500000 0.891983 0.500000
O O6 0.366797 0.827008 0.576825
O O7 0.366049 0.000000 0.500000
O O8 0.360570 0.500000 0.250606
O O9 0.229979 0.607601 0.218634
O O10 0.351141 0.676854 0.312401
O O11 0.409662 0.838903 0.277223
O O12 0.401680 0.000000 0.194267
O O13 0.500000 0.267565 0.628423
#
# Coordination Sequence:
#
# PCOD9486227 Si02
#       5
#    16   8  16  16  16
#     4   8  14  25  43  69  96 121 155 197 234 269
#     4   9  18  32  50  73  97 119 149 192 238 282
#     4   9  18  32  48  68  97 129 158 190 230 276
#     4   9  17  30  48  70  97 126 154 190 238 284
#     4  10  19  32  51  72  93 119 155 195 232 276
#
# _framework density 19.700329
#
# number of rings (size 3 to 8) (size 9 to 14) (size 15 to 20)
#    0.000    3.000    0.000    2.667    0.000    2.667 
#    0.000    7.222    0.000   15.333    0.000   12.444 
#    0.000    0.000    0.000    0.000    0.000    0.000 
#
# Total GULP energy -200584.619064 kJ/mol
# GULP energy per Si atom -5571.794974 kJ/mol
# Density = 1.965549 g / cm^3
# Si number density = 19.700329 Si / 1000 Ang^3
#
#
#
# Elastic Constant Matrix: (Units=GPa)
#
#
# Indices 1 2 3 4 5 6 
#
# 1 31.2405 26.4297 8.3273 0.0000 0.0000 0.0000
# 2 26.4297 180.8111 73.9337 0.0000 0.0000 0.0000
# 3 8.3273 73.9337 135.3396 0.0000 0.0000 0.0000
# 4 0.0000 0.0000 0.0000 15.1457 0.0000 0.0000
# 5 0.0000 0.0000 0.0000 0.0000 18.7636 0.0000
# 6 0.0000 0.0000 0.0000 0.0000 0.0000 8.0385
#
#
#
# Elastic Compliance Matrix: (Units=1/GPa)
#
#
# Indices 1 2 3 4 5 6 
#
# 1 0.036605 -0.005704 0.000864 0.000000 0.000000 0.000000
# 2 -0.005704 0.008010 -0.004025 0.000000 0.000000 0.000000
# 3 0.000864 -0.004025 0.009534 0.000000 0.000000 0.000000
# 4 0.000000 0.000000 0.000000 0.066025 0.000000 0.000000
# 5 0.000000 0.000000 0.000000 0.000000 0.053295 0.000000
# 6 0.000000 0.000000 0.000000 0.000000 0.000000 0.124401
#
#
# Mechanical properties :
#
#
# Convention : Reuss Voigt Hill
#
# Bulk Modulus (GPa) = 27.45783 62.75251 45.10517
# Shear Modulus (GPa) = 15.25597 24.30292 19.77944
#
# Velocity S-wave (km/s) = 2.78583 3.51612 3.17206
# Velocity P-wave (km/s) = 4.93110 6.95750 6.03003
#
# Compressibility (1/GPa) = 0.03641949
#
# Stress axis : x y z
#
# Youngs Moduli (GPa) = 27.31865 124.84180 104.88345
#
# Poissons Ratio (x) = 0.71207 -0.09058
# Poissons Ratio (y) = 0.15582 0.42214
# Poissons Ratio (z) = -0.02359 0.50247
#
# Static dielectric constant tensor:
#      x y z
#    x 1.797820 0.000000 0.000000 
#    y 0.000000 1.676390 0.000000 
#    z 0.000000 0.000000 1.680400 
# 
# From -- ./inp_files/39770.got.cif
#   From: 2010.05.17/outbox.cif.g08.bks.cpg/sg65_20_cif.got.tgz:39770.got - 2010.06.03 17:01:31.
