data_PCOD9486576
_publ_section_title
;
Structure prediction by ZEFSAII (Michael W. Deem and Ramdas Pophale) SiO2 
 PCOD9486576
Probable space group: C M M M
;
_chemical_formula_sum "Si O2"
_cell_formula_units_Z 88
_cell_length_a 18.514955
_cell_length_b 8.888993
_cell_length_c 29.527926
_cell_angle_alpha 90.000000
_cell_angle_beta 90.000000
_cell_angle_gamma 90.000000
_cell_volume 4859.685551
_symmetry_space_group_name_H-M "C M M M"
_symmetry_group_IT_number 65
_symmetry_cell_setting 'orthorhombic'
loop_
_space_group_symop_operation_xyz
x,y,z
-x,-y,z
x,-y,-z
-x,y,-z
-x,-y,-z
x,y,-z
-x,y,z
x,-y,z
1/2+x,1/2+y,z
1/2-x,1/2-y,z
1/2+x,1/2-y,-z
1/2-x,1/2+y,-z
1/2-x,1/2-y,-z
1/2+x,1/2+y,-z
1/2-x,1/2+y,z
1/2+x,1/2-y,z
loop_
_atom_site_type_symbol
_atom_site_label
_atom_site_fract_x
_atom_site_fract_y
_atom_site_fract_z
Si Si1 0.913858 0.179015 0.050427
Si Si2 0.670338 0.179360 0.133256
Si Si3 0.169368 0.319615 0.232932
Si Si4 0.670334 0.179139 0.500000
Si Si5 0.915258 0.819695 0.583543
Si Si6 0.669887 0.679929 0.675504
O O1 0.875732 0.261085 0.091579
O O2 0.000000 0.201364 0.052775
O O3 0.900449 0.000000 0.053791
O O4 0.889674 0.228376 0.000000
O O5 0.750000 0.250000 0.130598
O O6 0.638098 0.216429 0.183209
O O7 0.676850 0.000000 0.131059
O O8 0.172967 0.500000 0.237696
O O9 0.250000 0.250000 0.231675
O O10 0.136876 0.247869 0.278223
O O11 0.750000 0.250000 0.500000
O O12 0.627098 0.235535 0.456014
O O13 0.676011 0.000000 0.500000
O O14 0.878575 0.786411 0.631839
O O15 0.000000 0.781403 0.583396
O O16 0.909040 0.000000 0.576029
O O17 0.676795 0.500000 0.680129
O O18 0.750000 0.750000 0.669306
#
# Coordination Sequence:
#
# PCOD9486576 Si02
#       6
#    16  16  16   8  16  16
#     4   9  19  36  55  74  99 133 172 214 262 316
#     4  10  20  33  52  78 106 137 174 216 263 313
#     4   9  17  30  49  74 104 136 171 214 261 307
#     4  12  25  40  61  87 111 141 183 224 265 316
#     4  10  22  40  59  81 113 148 179 218 268 315
#     4  10  19  32  54  80 105 138 179 218 258 309
#
# _framework density 18.108167999999999
#
# number of rings (size 3 to 8) (size 9 to 14) (size 15 to 20)
#    0.000    2.182    0.000    4.909    0.000    7.636 
#    0.000    1.818    0.000    3.273    0.000    0.000 
#    0.000    0.000    0.000    0.000    0.000    0.000 
#
# Total GULP energy -245480.112081 kJ/mol
# GULP energy per Si atom -5579.093456 kJ/mol
# Density = 1.806695 g / cm^3
# Si number density = 18.108168 Si / 1000 Ang^3
#
#
#
# Elastic Constant Matrix: (Units=GPa)
#
#
# Indices 1 2 3 4 5 6 
#
# 1 76.4375 50.1365 79.9800 0.0000 0.0000 0.0000
# 2 50.1365 78.9513 95.2593 0.0000 0.0000 0.0000
# 3 79.9800 95.2593 219.5179 0.0000 0.0000 0.0000
# 4 0.0000 0.0000 0.0000 37.6461 0.0000 0.0000
# 5 0.0000 0.0000 0.0000 0.0000 -73.0421 0.0000
# 6 0.0000 0.0000 0.0000 0.0000 0.0000 24.3826
#
#
#
# Elastic Compliance Matrix: (Units=1/GPa)
#
#
# Indices 1 2 3 4 5 6 
#
# 1 0.024409 -0.010013 -0.004548 0.000000 0.000000 0.000000
# 2 -0.010013 0.030693 -0.009671 0.000000 0.000000 0.000000
# 3 -0.004548 -0.009671 0.010409 0.000000 0.000000 0.000000
# 4 0.000000 0.000000 0.000000 0.026563 0.000000 0.000000
# 5 0.000000 0.000000 0.000000 0.000000 -0.013691 0.000000
# 6 0.000000 0.000000 0.000000 0.000000 0.000000 0.041013
#
#
# Mechanical properties :
#
#
# Convention : Reuss Voigt Hill
#
# Bulk Modulus (GPa) = 58.66029 91.73982 75.20005
# Shear Modulus (GPa) = 28.81108 7.76604 18.28856
#
# Velocity S-wave (km/s) = 3.99313 2.07316 3.18144
# Velocity P-wave (km/s) = 7.32972 7.51683 7.42387
#
# Compressibility (1/GPa) = 0.01704731
#
# Stress axis : x y z
#
# Youngs Moduli (GPa) = 40.96810 32.58038 96.06709
#
# Poissons Ratio (x) = 0.32622 0.43694
# Poissons Ratio (y) = 0.41020 0.92908
# Poissons Ratio (z) = 0.18634 0.31509
#
# Static dielectric constant tensor:
#      x y z
#    x 1.588150 0.000000 0.000000 
#    y 0.000000 1.608560 0.000000 
#    z 0.000000 0.000000 1.651700 
# 
# From -- ./inp_files/77921.got.cif
#   From: 2010.05.17/outbox.cif.g08.bks.cpg/sg65_39_cif.got.tgz:77921.got - 2010.06.03 17:01:31.
