data_PCOD9486279
_publ_section_title
;
Structure prediction by ZEFSAII (Michael W. Deem and Ramdas Pophale) SiO2 
 PCOD9486279
Probable space group: C M M M
;
_chemical_formula_sum "Si O2"
_cell_formula_units_Z 120
_cell_length_a 31.287930
_cell_length_b 13.954362
_cell_length_c 15.177564
_cell_angle_alpha 90.000000
_cell_angle_beta 90.000000
_cell_angle_gamma 90.000000
_cell_volume 6626.571515
_symmetry_space_group_name_H-M "C M M M"
_symmetry_group_IT_number 65
_symmetry_cell_setting 'orthorhombic'
loop_
_space_group_symop_operation_xyz
x,y,z
-x,-y,z
x,-y,-z
-x,y,-z
-x,-y,-z
x,y,-z
-x,y,z
x,-y,z
1/2+x,1/2+y,z
1/2-x,1/2-y,z
1/2+x,1/2-y,-z
1/2-x,1/2+y,-z
1/2-x,1/2-y,-z
1/2+x,1/2+y,-z
1/2-x,1/2+y,z
1/2+x,1/2-y,z
loop_
_atom_site_type_symbol
_atom_site_label
_atom_site_fract_x
_atom_site_fract_y
_atom_site_fract_z
Si Si1 0.887342 0.113163 0.099060
Si Si2 0.250000 0.250000 0.859099
Si Si3 0.050759 0.714463 0.101312
Si Si4 0.267345 0.616249 0.599514
Si Si5 0.181761 0.395257 0.092654
Si Si6 0.314221 0.385372 0.235360
Si Si7 0.889266 0.389157 0.240700
Si Si8 0.670079 0.116980 0.396615
O O1 0.928786 0.179365 0.103120
O O2 0.855327 0.142650 0.177680
O O3 0.896354 0.000000 0.107785
O O4 0.868091 0.127042 0.000000
O O5 0.214343 0.309276 0.908613
O O6 0.274197 0.331106 0.805095
O O7 0.073862 0.660349 0.182467
O O8 0.000000 0.714836 0.113095
O O9 0.058995 0.677756 0.000000
O O10 0.274056 0.649343 0.500000
O O11 0.264942 0.500000 0.598230
O O12 0.307445 0.638785 0.662070
O O13 0.219078 0.647187 0.628113
O O14 0.203485 0.500000 0.098035
O O15 0.150905 0.387575 0.174402
O O16 0.157079 0.393456 0.000000
O O17 0.310596 0.500000 0.225579
O O18 0.901811 0.500000 0.256132
O O19 0.867859 0.349614 0.331179
O O20 0.663699 0.140150 0.500000
O O21 0.669879 0.000000 0.389671
#
# Coordination Sequence:
#
# PCOD9486279 Si02
#       8
#    16   8  16  16  16  16  16  16
#     4   9  19  36  55  73  95 125 163 210 259 299
#     4  12  21  30  45  64  94 136 171 208 247 278
#     4  10  21  36  55  79 102 124 156 198 247 309
#     4   8  14  27  47  70  99 134 170 210 249 279
#     4  10  21  34  47  66  93 128 170 207 239 284
#     4  10  20  32  47  70  99 131 169 208 247 292
#     4  10  19  32  51  74 103 135 163 195 240 296
#     4   8  14  26  46  71  98 133 176 212 239 271
#
# _framework density 18.108913000000001
#
# number of rings (size 3 to 8) (size 9 to 14) (size 15 to 20)
#    0.000    2.533    0.000    3.400    0.000    5.600 
#    0.000    3.667    0.000    3.600    0.000    1.867 
#    0.000    0.000    0.000    6.400    0.000    0.267 
#
# Total GULP energy -334185.525308 kJ/mol
# GULP energy per Si atom -5569.758755 kJ/mol
# Density = 1.806770 g / cm^3
# Si number density = 18.108913 Si / 1000 Ang^3
#
#
#
# Elastic Constant Matrix: (Units=GPa)
#
#
# Indices 1 2 3 4 5 6 
#
# 1 95.0557 29.4125 61.9382 0.0000 0.0000 0.0000
# 2 29.4125 50.7948 23.4292 0.0000 0.0000 0.0000
# 3 61.9382 23.4292 113.8721 0.0000 0.0000 0.0000
# 4 0.0000 0.0000 0.0000 3.0766 0.0000 0.0000
# 5 0.0000 0.0000 0.0000 0.0000 16.3653 0.0000
# 6 0.0000 0.0000 0.0000 0.0000 0.0000 14.3097
#
#
#
# Elastic Compliance Matrix: (Units=1/GPa)
#
#
# Indices 1 2 3 4 5 6 
#
# 1 0.018076 -0.006554 -0.008484 0.000000 0.000000 0.000000
# 2 -0.006554 0.024128 -0.001399 0.000000 0.000000 0.000000
# 3 -0.008484 -0.001399 0.013684 0.000000 0.000000 0.000000
# 4 0.000000 0.000000 0.000000 0.325036 0.000000 0.000000
# 5 0.000000 0.000000 0.000000 0.000000 0.061105 0.000000
# 6 0.000000 0.000000 0.000000 0.000000 0.000000 0.069883
#
#
# Mechanical properties :
#
#
# Convention : Reuss Voigt Hill
#
# Bulk Modulus (GPa) = 43.45173 54.36471 48.90822
# Shear Modulus (GPa) = 9.05049 16.41316 12.73183
#
# Velocity S-wave (km/s) = 2.23800 3.01384 2.65442
# Velocity P-wave (km/s) = 5.54301 6.49593 6.03830
#
# Compressibility (1/GPa) = 0.02301404
#
# Stress axis : x y z
#
# Youngs Moduli (GPa) = 55.32228 41.44648 73.07720
#
# Poissons Ratio (x) = 0.27163 0.61995
# Poissons Ratio (y) = 0.36257 0.10227
# Poissons Ratio (z) = 0.46933 0.05800
#
# Static dielectric constant tensor:
#      x y z
#    x 1.583710 0.000000 0.000000 
#    y 0.000000 1.676080 0.000000 
#    z 0.000000 0.000000 1.686670 
# 
# From -- ./inp_files/48115.got.cif
#   From: 2010.05.17/outbox.cif.g08.bks.cpg/sg65_25_cif.got.tgz:48115.got - 2010.06.03 17:01:31.
