data_PCOD9486150
_publ_section_title
;
Structure prediction by ZEFSAII (Michael W. Deem and Ramdas Pophale) SiO2 
 PCOD9486150
Probable space group: C M M M
;
_chemical_formula_sum "Si O2"
_cell_formula_units_Z 104
_cell_length_a 33.797901
_cell_length_b 8.483169
_cell_length_c 21.500645
_cell_angle_alpha 90.000000
_cell_angle_beta 90.000000
_cell_angle_gamma 90.000000
_cell_volume 6164.521010
_symmetry_space_group_name_H-M "C M M M"
_symmetry_group_IT_number 65
_symmetry_cell_setting 'orthorhombic'
loop_
_space_group_symop_operation_xyz
x,y,z
-x,-y,z
x,-y,-z
-x,y,-z
-x,-y,-z
x,y,-z
-x,y,z
x,-y,z
1/2+x,1/2+y,z
1/2-x,1/2-y,z
1/2+x,1/2-y,-z
1/2-x,1/2+y,-z
1/2-x,1/2-y,-z
1/2+x,1/2+y,-z
1/2-x,1/2+y,z
1/2+x,1/2-y,z
loop_
_atom_site_type_symbol
_atom_site_label
_atom_site_fract_x
_atom_site_fract_y
_atom_site_fract_z
Si Si1 0.369888 0.691492 0.183166
Si Si2 0.338732 0.189103 0.373672
Si Si3 0.584962 0.688932 0.691499
Si Si4 0.578472 0.308972 0.928957
Si Si5 0.000000 0.310693 0.861033
Si Si6 0.293666 0.689033 0.747230
Si Si7 0.795195 0.690720 0.500000
Si Si8 0.000000 0.688656 0.283778
O O1 0.370583 0.500000 0.183111
O O2 0.398176 0.741205 0.240557
O O3 0.386714 0.744840 0.117326
O O4 0.325714 0.740426 0.201212
O O5 0.382632 0.252229 0.358138
O O6 0.310600 0.247856 0.317999
O O7 0.319271 0.241250 0.438566
O O8 0.340102 0.000000 0.372945
O O9 0.584676 0.500000 0.690698
O O10 0.540497 0.751091 0.685344
O O11 0.578203 0.500000 0.929759
O O12 0.538223 0.252254 0.896977
O O13 0.581826 0.254135 0.000000
O O14 0.000000 0.257461 0.788843
O O15 0.000000 0.500000 0.861570
O O16 0.293526 0.500000 0.744451
O O17 0.250000 0.750000 0.758891
O O18 0.793797 0.500000 0.500000
O O19 0.750000 0.750000 0.500000
O O20 0.000000 0.500000 0.284322
#
# Coordination Sequence:
#
# PCOD9486150 Si02
#       8
#    16  16  16  16   8  16   8   8
#     4   8  16  30  47  68  94 123 161 207 252 299
#     4  10  20  35  53  77 108 138 170 205 247 301
#     4  10  19  33  53  75 101 135 171 213 258 297
#     4  10  19  32  50  69  92 130 173 208 248 303
#     4  11  22  32  45  70 103 133 163 204 255 300
#     4  10  19  32  50  74 100 129 165 208 258 302
#     4  10  22  36  54  79 110 145 172 204 247 294
#     4  11  21  32  50  76 103 136 173 212 256 305
#
# _framework density 16.870733999999999
#
# number of rings (size 3 to 8) (size 9 to 14) (size 15 to 20)
#    0.000    2.154    1.538    3.462    0.000    4.308 
#    0.000    0.769    0.000    0.923    0.000    3.231 
#    0.000    0.000    0.000    0.000    0.000    0.615 
#
# Total GULP energy -290089.360921 kJ/mol
# GULP energy per Si atom -5578.641556 kJ/mol
# Density = 1.683234 g / cm^3
# Si number density = 16.870734 Si / 1000 Ang^3
#
#
#
# Elastic Constant Matrix: (Units=GPa)
#
#
# Indices 1 2 3 4 5 6 
#
# 1 180.2819 30.3502 83.4728 0.0000 0.0000 0.0000
# 2 30.3502 35.4295 21.7329 0.0000 0.0000 0.0000
# 3 83.4728 21.7329 118.9826 0.0000 0.0000 0.0000
# 4 0.0000 0.0000 0.0000 17.7652 0.0000 0.0000
# 5 0.0000 0.0000 0.0000 0.0000 21.2658 0.0000
# 6 0.0000 0.0000 0.0000 0.0000 0.0000 27.6701
#
#
#
# Elastic Compliance Matrix: (Units=1/GPa)
#
#
# Indices 1 2 3 4 5 6 
#
# 1 0.008736 -0.004194 -0.005363 0.000000 0.000000 0.000000
# 2 -0.004194 0.033800 -0.003231 0.000000 0.000000 0.000000
# 3 -0.005363 -0.003231 0.012757 0.000000 0.000000 0.000000
# 4 0.000000 0.000000 0.000000 0.056290 0.000000 0.000000
# 5 0.000000 0.000000 0.000000 0.000000 0.047024 0.000000
# 6 0.000000 0.000000 0.000000 0.000000 0.000000 0.036140
#
#
# Mechanical properties :
#
#
# Convention : Reuss Voigt Hill
#
# Bulk Modulus (GPa) = 33.65109 67.31176 50.48142
# Shear Modulus (GPa) = 21.71755 26.61610 24.16683
#
# Velocity S-wave (km/s) = 3.59178 3.97627 3.78891
# Velocity P-wave (km/s) = 6.09843 7.81448 7.00917
#
# Compressibility (1/GPa) = 0.02971672
#
# Stress axis : x y z
#
# Youngs Moduli (GPa) = 114.47035 29.58582 78.38817
#
# Poissons Ratio (x) = 0.12408 0.42037
# Poissons Ratio (y) = 0.48008 0.25331
# Poissons Ratio (z) = 0.61386 0.09561
#
# Static dielectric constant tensor:
#      x y z
#    x 1.544150 0.000000 0.000000 
#    y 0.000000 1.578280 0.000000 
#    z 0.000000 0.000000 1.567320 
# 
# From -- ./inp_files/66450.got.cif
#   From: 2010.05.17/outbox.cif.g08.bks.cpg/sg65_34_cif.got.tgz:66450.got - 2010.06.03 17:01:31.
