data_PCOD9486898
_publ_section_title
;
Structure prediction by ZEFSAII (Michael W. Deem and Ramdas Pophale) SiO2 
 PCOD9486898
Probable space group: C M M M
;
_chemical_formula_sum "Si O2"
_cell_formula_units_Z 88
_cell_length_a 8.553203
_cell_length_b 24.058313
_cell_length_c 23.364492
_cell_angle_alpha 90.000000
_cell_angle_beta 90.000000
_cell_angle_gamma 90.000000
_cell_volume 4807.843176
_symmetry_space_group_name_H-M "C M M M"
_symmetry_group_IT_number 65
_symmetry_cell_setting 'orthorhombic'
loop_
_space_group_symop_operation_xyz
x,y,z
-x,-y,z
x,-y,-z
-x,y,-z
-x,-y,-z
x,y,-z
-x,y,z
x,-y,z
1/2+x,1/2+y,z
1/2-x,1/2-y,z
1/2+x,1/2-y,-z
1/2-x,1/2+y,-z
1/2-x,1/2-y,-z
1/2+x,1/2+y,-z
1/2-x,1/2+y,z
1/2+x,1/2-y,z
loop_
_atom_site_type_symbol
_atom_site_label
_atom_site_fract_x
_atom_site_fract_y
_atom_site_fract_z
Si Si1 0.689818 0.500000 0.761035
Si Si2 0.811435 0.887444 0.823336
Si Si3 0.311638 0.063880 0.065430
Si Si4 0.812221 0.187864 0.279915
Si Si5 0.687690 0.500000 0.371804
Si Si6 0.688458 0.812105 0.500000
Si Si7 0.312366 0.119784 0.611774
O O1 0.500000 0.500000 0.762499
O O2 0.742828 0.555794 0.792166
O O3 0.735557 0.500000 0.695081
O O4 0.750593 0.893357 0.887665
O O5 0.762317 0.837245 0.781783
O O6 0.000000 0.887440 0.824827
O O7 0.500000 0.063762 0.067301
O O8 0.259343 0.000000 0.078364
O O9 0.264205 0.076133 0.000000
O O10 0.750000 0.250000 0.288579
O O11 0.754184 0.147095 0.330235
O O12 0.000000 0.188342 0.281605
O O13 0.500000 0.500000 0.375185
O O14 0.753593 0.442926 0.396575
O O15 0.500000 0.811362 0.500000
O O16 0.750000 0.750000 0.500000
O O17 0.738876 0.843736 0.557429
O O18 0.500000 0.120179 0.615133
#
# Coordination Sequence:
#
# PCOD9486898 Si02
#       7
#     8  16  16  16   8   8  16
#     4   9  16  31  51  77 111 143 174 218 275 326
#     4  10  19  33  54  78 108 144 180 223 275 328
#     4   9  18  31  47  74 112 146 177 219 270 325
#     4  11  23  39  58  83 113 146 186 237 285 333
#     4  11  21  38  60  86 121 154 184 228 282 341
#     4  10  24  43  62  83 113 150 194 242 283 330
#     4  11  23  40  61  87 116 150 189 233 284 340
#
# _framework density 18.303426999999999
#
# number of rings (size 3 to 8) (size 9 to 14) (size 15 to 20)
#    0.000    1.818    2.727    2.455    0.000    5.091 
#    0.000    2.727    0.000    0.545    0.000    0.000 
#    0.000    0.000    0.000    0.000    0.000    0.000 
#
# Total GULP energy -245632.544765 kJ/mol
# GULP energy per Si atom -5582.557836 kJ/mol
# Density = 1.826177 g / cm^3
# Si number density = 18.303427 Si / 1000 Ang^3
#
#
#
# Elastic Constant Matrix: (Units=GPa)
#
#
# Indices 1 2 3 4 5 6 
#
# 1 33.4466 27.8167 27.9805 0.0000 0.0000 0.0000
# 2 27.8167 132.3841 58.5068 0.0000 0.0000 0.0000
# 3 27.9805 58.5068 125.3568 0.0000 0.0000 0.0000
# 4 0.0000 0.0000 0.0000 19.8164 0.0000 0.0000
# 5 0.0000 0.0000 0.0000 0.0000 21.3194 0.0000
# 6 0.0000 0.0000 0.0000 0.0000 0.0000 25.9114
#
#
#
# Elastic Compliance Matrix: (Units=1/GPa)
#
#
# Indices 1 2 3 4 5 6 
#
# 1 0.039795 -0.005589 -0.006274 0.000000 0.000000 0.000000
# 2 -0.005589 0.010302 -0.003561 0.000000 0.000000 0.000000
# 3 -0.006274 -0.003561 0.011039 0.000000 0.000000 0.000000
# 4 0.000000 0.000000 0.000000 0.050463 0.000000 0.000000
# 5 0.000000 0.000000 0.000000 0.000000 0.046906 0.000000
# 6 0.000000 0.000000 0.000000 0.000000 0.000000 0.038593
#
#
# Mechanical properties :
#
#
# Convention : Reuss Voigt Hill
#
# Bulk Modulus (GPa) = 33.01499 57.75505 45.38502
# Shear Modulus (GPa) = 21.00466 25.20166 23.10316
#
# Velocity S-wave (km/s) = 3.39127 3.71466 3.55664
# Velocity P-wave (km/s) = 5.78023 7.07255 6.45879
#
# Compressibility (1/GPa) = 0.03028927
#
# Stress axis : x y z
#
# Youngs Moduli (GPa) = 25.12853 97.07109 90.58447
#
# Poissons Ratio (x) = 0.54254 0.56833
# Poissons Ratio (y) = 0.14044 0.32253
# Poissons Ratio (z) = 0.15766 0.34563
#
# Static dielectric constant tensor:
#      x y z
#    x 1.622880 0.000000 0.000000 
#    y 0.000000 1.613290 0.000000 
#    z 0.000000 0.000000 1.636070 
# 
# From -- ./inp_files/67662.got.cif
#   From: 2010.05.17/outbox.cif.g08.bks.cpg/sg65_34_cif.got.tgz:67662.got - 2010.06.03 17:01:31.
