data_PCOD9486304
_publ_section_title
;
Structure prediction by ZEFSAII (Michael W. Deem and Ramdas Pophale) SiO2 
 PCOD9486304
Probable space group: C M M M
;
_chemical_formula_sum "Si O2"
_cell_formula_units_Z 96
_cell_length_a 25.787907
_cell_length_b 7.623942
_cell_length_c 22.652953
_cell_angle_alpha 90.000000
_cell_angle_beta 90.000000
_cell_angle_gamma 90.000000
_cell_volume 4453.695316
_symmetry_space_group_name_H-M "C M M M"
_symmetry_group_IT_number 65
_symmetry_cell_setting 'orthorhombic'
loop_
_space_group_symop_operation_xyz
x,y,z
-x,-y,z
x,-y,-z
-x,y,-z
-x,-y,-z
x,y,-z
-x,y,z
x,-y,z
1/2+x,1/2+y,z
1/2-x,1/2-y,z
1/2+x,1/2-y,-z
1/2-x,1/2+y,-z
1/2-x,1/2-y,-z
1/2+x,1/2+y,-z
1/2-x,1/2+y,z
1/2+x,1/2-y,z
loop_
_atom_site_type_symbol
_atom_site_label
_atom_site_fract_x
_atom_site_fract_y
_atom_site_fract_z
Si Si1 0.191599 0.708336 0.933111
Si Si2 0.000000 0.784991 0.202530
Si Si3 0.582200 0.714442 0.435829
Si Si4 0.612320 0.708379 0.168838
Si Si5 0.500000 0.286014 0.660353
Si Si6 0.807085 0.789352 0.263812
Si Si7 0.806547 0.789832 0.601523
O O1 0.188018 0.500000 0.936076
O O2 0.250000 0.750000 0.911638
O O3 0.145946 0.767728 0.890066
O O4 0.187025 0.780249 0.000000
O O5 0.053440 0.724940 0.171935
O O6 0.000000 0.730746 0.271615
O O7 0.000000 0.000000 0.201562
O O8 0.561599 0.768721 0.500000
O O9 0.580754 0.500000 0.435195
O O10 0.549246 0.769738 0.379030
O O11 0.641764 0.771826 0.430348
O O12 0.608460 0.500000 0.178440
O O13 0.647519 0.780322 0.222371
O O14 0.500000 0.500000 0.661996
O O15 0.750000 0.750000 0.239135
O O16 0.808368 0.722087 0.330908
O O17 0.812190 0.000000 0.266707
O O18 0.750000 0.750000 0.576117
O O19 0.810114 0.000000 0.603598
#
# Coordination Sequence:
#
# PCOD9486304 Si02
#       7
#    16   8  16  16   8  16  16
#     4  10  21  37  57  81 108 137 168 203 245 291
#     4   9  18  31  48  71  99 134 172 209 252 300
#     4   9  16  25  40  64  92 122 158 201 247 293
#     4  10  19  32  51  75 103 134 171 211 250 296
#     4   9  15  26  45  68  96 126 158 203 254 296
#     4   9  17  28  44  67  93 123 158 199 249 300
#     4   9  17  29  43  62  92 125 156 194 242 296
#
# _framework density 21.555133000000001
#
# number of rings (size 3 to 8) (size 9 to 14) (size 15 to 20)
#    0.000    2.667    0.000    2.250    0.000    8.333 
#    0.000    0.833    0.000    2.500    0.000    1.750 
#    0.000    1.333    0.000    0.000    0.000    0.000 
#
# Total GULP energy -267887.990487 kJ/mol
# GULP energy per Si atom -5580.999802 kJ/mol
# Density = 2.150607 g / cm^3
# Si number density = 21.555133 Si / 1000 Ang^3
#
#
#
# Elastic Constant Matrix: (Units=GPa)
#
#
# Indices 1 2 3 4 5 6 
#
# 1 206.6963 2.7375 82.4348 0.0000 0.0000 0.0000
# 2 2.7375 40.6141 -3.6215 0.0000 0.0000 0.0000
# 3 82.4348 -3.6215 104.6667 0.0000 0.0000 0.0000
# 4 0.0000 0.0000 0.0000 197.9400 0.0000 0.0000
# 5 0.0000 0.0000 0.0000 0.0000 31.9091 0.0000
# 6 0.0000 0.0000 0.0000 0.0000 0.0000 17.2469
#
#
#
# Elastic Compliance Matrix: (Units=1/GPa)
#
#
# Indices 1 2 3 4 5 6 
#
# 1 0.007092 -0.000979 -0.005620 0.000000 0.000000 0.000000
# 2 -0.000979 0.024833 0.001630 0.000000 0.000000 0.000000
# 3 -0.005620 0.001630 0.014037 0.000000 0.000000 0.000000
# 4 0.000000 0.000000 0.000000 0.005052 0.000000 0.000000
# 5 0.000000 0.000000 0.000000 0.000000 0.031339 0.000000
# 6 0.000000 0.000000 0.000000 0.000000 0.000000 0.057982
#
#
# Mechanical properties :
#
#
# Convention : Reuss Voigt Hill
#
# Bulk Modulus (GPa) = 27.75820 57.23096 42.49458
# Shear Modulus (GPa) = 30.81093 67.44760 49.12927
#
# Velocity S-wave (km/s) = 3.78484 5.59988 4.77932
# Velocity P-wave (km/s) = 5.65737 8.27165 7.08611
#
# Compressibility (1/GPa) = 0.03602539
#
# Stress axis : x y z
#
# Youngs Moduli (GPa) = 140.99940 40.26838 71.24246
#
# Poissons Ratio (x) = 0.03943 0.40036
# Poissons Ratio (y) = 0.13806 -0.11616
# Poissons Ratio (z) = 0.79237 -0.06565
#
# Static dielectric constant tensor:
#      x y z
#    x 1.806430 0.000000 0.000000 
#    y 0.000000 1.826610 0.000000 
#    z 0.000000 0.000000 1.783160 
# 
# From -- ./inp_files/71452.got.cif
#   From: 2010.05.17/outbox.cif.g08.bks.cpg/sg65_36_cif.got.tgz:71452.got - 2010.06.03 17:01:31.
