data_PCOD9486399
_publ_section_title
;
Structure prediction by ZEFSAII (Michael W. Deem and Ramdas Pophale) SiO2 
 PCOD9486399
Probable space group: C M M M
;
_chemical_formula_sum "Si O2"
_cell_formula_units_Z 80
_cell_length_a 26.945553
_cell_length_b 9.262778
_cell_length_c 15.294060
_cell_angle_alpha 90.000000
_cell_angle_beta 90.000000
_cell_angle_gamma 90.000000
_cell_volume 3817.254767
_symmetry_space_group_name_H-M "C M M M"
_symmetry_group_IT_number 65
_symmetry_cell_setting 'orthorhombic'
loop_
_space_group_symop_operation_xyz
x,y,z
-x,-y,z
x,-y,-z
-x,y,-z
-x,-y,-z
x,y,-z
-x,y,z
x,-y,z
1/2+x,1/2+y,z
1/2-x,1/2-y,z
1/2+x,1/2-y,-z
1/2-x,1/2+y,-z
1/2-x,1/2-y,-z
1/2+x,1/2+y,-z
1/2-x,1/2+y,z
1/2+x,1/2-y,z
loop_
_atom_site_type_symbol
_atom_site_label
_atom_site_fract_x
_atom_site_fract_y
_atom_site_fract_z
Si Si1 0.605593 0.664284 0.148654
Si Si2 0.300127 0.832965 0.361280
Si Si3 0.298897 0.164930 0.852798
Si Si4 0.101510 0.835364 0.642642
Si Si5 0.000000 0.335071 0.395620
Si Si6 0.000000 0.835841 0.103510
O O1 0.606514 0.500000 0.113158
O O2 0.651638 0.755728 0.115942
O O3 0.609412 0.654643 0.253118
O O4 0.551899 0.732165 0.130204
O O5 0.250000 0.750000 0.388296
O O6 0.299909 0.833671 0.254283
O O7 0.350241 0.751431 0.390664
O O8 0.299858 0.000000 0.389026
O O9 0.250000 0.250000 0.880069
O O10 0.297126 0.000000 0.880804
O O11 0.050025 0.750809 0.629045
O O12 0.098771 0.000000 0.608862
O O13 0.000000 0.500000 0.360397
O O14 0.000000 0.344078 0.500000
O O15 0.000000 0.000000 0.142632
O O16 0.000000 0.847343 0.000000
#
# Coordination Sequence:
#
# PCOD9486399 Si02
#       6
#    16  16  16  16   8   8
#     4   9  17  30  49  74 101 128 162 203 242 285
#     4   9  16  27  45  72 104 133 162 198 242 291
#     4   9  16  26  43  69  99 129 159 196 243 290
#     4  10  19  32  52  76 101 130 165 205 247 292
#     4  11  24  39  53  71  98 131 166 206 250 295
#     4   9  17  30  49  71  96 129 166 202 244 293
#
# _framework density 20.957467999999999
#
# number of rings (size 3 to 8) (size 9 to 14) (size 15 to 20)
#    0.000    2.600    0.000    2.700    0.000    8.000 
#    0.000    0.500    0.000    2.400    0.000    0.000 
#    0.000    0.000    0.000    0.000    0.000    0.000 
#
# Total GULP energy -223266.891068 kJ/mol
# GULP energy per Si atom -5581.672277 kJ/mol
# Density = 2.090977 g / cm^3
# Si number density = 20.957468 Si / 1000 Ang^3
#
#
#
# Elastic Constant Matrix: (Units=GPa)
#
#
# Indices 1 2 3 4 5 6 
#
# 1 258.7607 138.7397 0.6574 0.0000 0.0000 0.0000
# 2 138.7397 190.9199 2.3825 0.0000 0.0000 0.0000
# 3 0.6574 2.3825 30.4891 0.0000 0.0000 0.0000
# 4 0.0000 0.0000 0.0000 3.4093 0.0000 0.0000
# 5 0.0000 0.0000 0.0000 0.0000 -45.5814 0.0000
# 6 0.0000 0.0000 0.0000 0.0000 0.0000 60.0567
#
#
#
# Elastic Compliance Matrix: (Units=1/GPa)
#
#
# Indices 1 2 3 4 5 6 
#
# 1 0.006333 -0.004605 0.000223 0.000000 0.000000 0.000000
# 2 -0.004605 0.008591 -0.000572 0.000000 0.000000 0.000000
# 3 0.000223 -0.000572 0.032839 0.000000 0.000000 0.000000
# 4 0.000000 0.000000 0.000000 0.293314 0.000000 0.000000
# 5 0.000000 0.000000 0.000000 0.000000 -0.021939 0.000000
# 6 0.000000 0.000000 0.000000 0.000000 0.000000 0.016651
#
#
# Mechanical properties :
#
#
# Convention : Reuss Voigt Hill
#
# Bulk Modulus (GPa) = 26.41627 84.85878 55.63753
# Shear Modulus (GPa) = 13.95420 26.13626 20.04523
#
# Velocity S-wave (km/s) = 2.58318 3.53528 3.09604
# Velocity P-wave (km/s) = 4.63995 7.56592 6.27584
#
# Compressibility (1/GPa) = 0.03785545
#
# Stress axis : x y z
#
# Youngs Moduli (GPa) = 157.90201 116.39669 30.45203
#
# Poissons Ratio (x) = 0.53600 -0.00680
# Poissons Ratio (y) = 0.72713 0.01742
# Poissons Ratio (z) = -0.03526 0.06658
#
# Static dielectric constant tensor:
#      x y z
#    x 1.717540 0.000000 0.000000 
#    y 0.000000 1.742170 0.000000 
#    z 0.000000 0.000000 1.761730 
# 
# From -- ./inp_files/57303.got.cif
#   From: 2010.05.17/outbox.cif.g08.bks.cpg/sg65_29_cif.got.tgz:57303.got - 2010.06.03 17:01:31.
