data_PCOD9486528
_publ_section_title
;
Structure prediction by ZEFSAII (Michael W. Deem and Ramdas Pophale) SiO2 
 PCOD9486528
Probable space group: C M M M
;
_chemical_formula_sum "Si O2"
_cell_formula_units_Z 88
_cell_length_a 8.643778
_cell_length_b 18.344901
_cell_length_c 29.571142
_cell_angle_alpha 90.000000
_cell_angle_beta 90.000000
_cell_angle_gamma 90.000000
_cell_volume 4689.073858
_symmetry_space_group_name_H-M "C M M M"
_symmetry_group_IT_number 65
_symmetry_cell_setting 'orthorhombic'
loop_
_space_group_symop_operation_xyz
x,y,z
-x,-y,z
x,-y,-z
-x,y,-z
-x,-y,-z
x,y,-z
-x,y,z
x,-y,z
1/2+x,1/2+y,z
1/2-x,1/2-y,z
1/2+x,1/2-y,-z
1/2-x,1/2+y,-z
1/2-x,1/2-y,-z
1/2+x,1/2+y,-z
1/2-x,1/2+y,z
1/2+x,1/2-y,z
loop_
_atom_site_type_symbol
_atom_site_label
_atom_site_fract_x
_atom_site_fract_y
_atom_site_fract_z
Si Si1 0.314312 0.831563 0.178593
Si Si2 0.813299 0.332608 0.451457
Si Si3 0.815880 0.831598 0.000000
Si Si4 0.813120 0.584801 0.086956
Si Si5 0.185451 0.915225 0.265596
Si Si6 0.313704 0.832625 0.352255
O O1 0.500000 0.829380 0.180502
O O2 0.250000 0.750000 0.176220
O O3 0.268101 0.876062 0.133673
O O4 0.251904 0.871409 0.223066
O O5 0.764536 0.366172 0.500000
O O6 0.750000 0.250000 0.451652
O O7 0.767721 0.362652 0.402245
O O8 0.000000 0.330364 0.451492
O O9 0.750000 0.750000 0.000000
O O10 0.757514 0.873845 0.955677
O O11 0.000000 0.828554 0.000000
O O12 0.767515 0.500000 0.087306
O O13 0.000000 0.588031 0.083446
O O14 0.247901 0.880224 0.311719
O O15 0.000000 0.910223 0.265098
O O16 0.230539 0.000000 0.262475
O O17 0.500000 0.830386 0.349541
O O18 0.250000 0.750000 0.348430
#
# Coordination Sequence:
#
# PCOD9486528 Si02
#       6
#    16  16   8  16  16  16
#     4  11  23  40  63  89 116 147 185 228 276 331
#     4   8  14  25  43  70 102 134 170 214 264 316
#     4  12  25  40  61  89 121 159 201 242 283 328
#     4  10  22  41  64  90 121 155 190 232 282 333
#     4  11  24  40  57  78 107 143 183 229 278 328
#     4  10  19  32  53  79 108 141 178 222 270 324
#
# _framework density 18.767033000000001
#
# number of rings (size 3 to 8) (size 9 to 14) (size 15 to 20)
#    0.000    1.818    0.000    4.364    0.000    7.273 
#    0.000    0.000    0.000    0.545    0.000    3.818 
#    0.000    0.000    0.000    0.000    0.000    0.000 
#
# Total GULP energy -245675.713707 kJ/mol
# GULP energy per Si atom -5583.538948 kJ/mol
# Density = 1.872432 g / cm^3
# Si number density = 18.767033 Si / 1000 Ang^3
#
#
#
# Elastic Constant Matrix: (Units=GPa)
#
#
# Indices 1 2 3 4 5 6 
#
# 1 40.4954 45.6247 54.4106 0.0000 0.0000 0.0000
# 2 45.6247 149.2995 110.8577 0.0000 0.0000 0.0000
# 3 54.4106 110.8577 234.4221 0.0000 0.0000 0.0000
# 4 0.0000 0.0000 0.0000 -91.4734 0.0000 0.0000
# 5 0.0000 0.0000 0.0000 0.0000 -7.8915 0.0000
# 6 0.0000 0.0000 0.0000 0.0000 0.0000 21.3021
#
#
#
# Elastic Compliance Matrix: (Units=1/GPa)
#
#
# Indices 1 2 3 4 5 6 
#
# 1 0.042050 -0.008635 -0.005676 0.000000 0.000000 0.000000
# 2 -0.008635 0.012096 -0.003716 0.000000 0.000000 0.000000
# 3 -0.005676 -0.003716 0.007341 0.000000 0.000000 0.000000
# 4 0.000000 0.000000 0.000000 -0.010932 0.000000 0.000000
# 5 0.000000 0.000000 0.000000 0.000000 -0.126718 0.000000
# 6 0.000000 0.000000 0.000000 0.000000 0.000000 0.046944
#
#
# Mechanical properties :
#
#
# Convention : Reuss Voigt Hill
#
# Bulk Modulus (GPa) = 39.32134 94.00033 66.66084
# Shear Modulus (GPa) = 326.53338 -1.39095 162.57122
#
# Velocity S-wave (km/s) = 13.20495 -0.86185 9.31740
# Velocity P-wave (km/s) = 15.92144 7.01473 12.30241
#
# Compressibility (1/GPa) = 0.02543148
#
# Stress axis : x y z
#
# Youngs Moduli (GPa) = 23.78107 82.67268 136.22980
#
# Poissons Ratio (x) = 0.71391 0.77330
# Poissons Ratio (y) = 0.20536 0.50620
# Poissons Ratio (z) = 0.13499 0.30720
#
# Static dielectric constant tensor:
#      x y z
#    x 1.631670 0.000000 0.000000 
#    y 0.000000 1.609570 0.000000 
#    z 0.000000 0.000000 1.662990 
# 
# From -- ./inp_files/76698.got.cif
#   From: 2010.05.17/outbox.cif.g08.bks.cpg/sg65_39_cif.got.tgz:76698.got - 2010.06.03 17:01:31.
