data_PCOD9486258
_publ_section_title
;
Structure prediction by ZEFSAII (Michael W. Deem and Ramdas Pophale) SiO2 
 PCOD9486258
Probable space group: C M M M
;
_chemical_formula_sum "Si O2"
_cell_formula_units_Z 80
_cell_length_a 28.426366
_cell_length_b 8.598344
_cell_length_c 19.297305
_cell_angle_alpha 90.000000
_cell_angle_beta 90.000000
_cell_angle_gamma 90.000000
_cell_volume 4716.640988
_symmetry_space_group_name_H-M "C M M M"
_symmetry_group_IT_number 65
_symmetry_cell_setting 'orthorhombic'
loop_
_space_group_symop_operation_xyz
x,y,z
-x,-y,z
x,-y,-z
-x,y,-z
-x,-y,-z
x,y,-z
-x,y,z
x,-y,z
1/2+x,1/2+y,z
1/2-x,1/2-y,z
1/2+x,1/2-y,-z
1/2-x,1/2+y,-z
1/2-x,1/2-y,-z
1/2+x,1/2+y,-z
1/2-x,1/2+y,z
1/2+x,1/2-y,z
loop_
_atom_site_type_symbol
_atom_site_label
_atom_site_fract_x
_atom_site_fract_y
_atom_site_fract_z
Si Si1 0.698388 0.814642 0.343089
Si Si2 0.390477 0.311935 0.421716
Si Si3 0.697805 0.813745 0.079679
Si Si4 0.854205 0.186776 0.209704
Si Si5 0.447235 0.310787 0.287236
O O1 0.750000 0.750000 0.358304
O O2 0.659549 0.754846 0.397449
O O3 0.680805 0.752525 0.268404
O O4 0.699222 0.000000 0.342167
O O5 0.402205 0.265244 0.500000
O O6 0.387488 0.500000 0.419460
O O7 0.428285 0.264765 0.363367
O O8 0.750000 0.750000 0.095440
O O9 0.661771 0.746390 0.135266
O O10 0.698666 0.000000 0.084427
O O11 0.686866 0.769926 0.000000
O O12 0.906715 0.236003 0.233093
O O13 0.851866 0.000000 0.211947
O O14 0.500000 0.254485 0.273807
O O15 0.448430 0.500000 0.286307
#
# Coordination Sequence:
#
# PCOD9486258 Si02
#       5
#    16  16  16  16  16
#     4  11  21  33  49  68  94 128 165 201 239 286
#     4   9  18  32  49  71  98 125 157 199 245 292
#     4  10  20  33  50  74 104 135 165 196 233 280
#     4  10  19  32  51  74 100 128 161 201 241 283
#     4   8  15  29  50  75  98 122 157 201 246 287
#
# _framework density 16.961223
#
# number of rings (size 3 to 8) (size 9 to 14) (size 15 to 20)
#    0.000    2.400    0.000    4.800    0.000    2.400 
#    0.000    2.000    0.000   15.600    0.000    9.800 
#    0.000    0.000    0.000    0.000    0.000    0.000 
#
# Total GULP energy -223147.066455 kJ/mol
# GULP energy per Si atom -5578.676661 kJ/mol
# Density = 1.692262 g / cm^3
# Si number density = 16.961223 Si / 1000 Ang^3
#
#
#
# Elastic Constant Matrix: (Units=GPa)
#
#
# Indices 1 2 3 4 5 6 
#
# 1 110.2018 18.0362 64.6983 0.0000 0.0000 0.0000
# 2 18.0362 39.2590 28.0523 0.0000 0.0000 0.0000
# 3 64.6983 28.0523 122.4897 0.0000 0.0000 0.0000
# 4 0.0000 0.0000 0.0000 26.0435 0.0000 0.0000
# 5 0.0000 0.0000 0.0000 0.0000 8.5471 0.0000
# 6 0.0000 0.0000 0.0000 0.0000 0.0000 17.6410
#
#
#
# Elastic Compliance Matrix: (Units=1/GPa)
#
#
# Indices 1 2 3 4 5 6 
#
# 1 0.013208 -0.001295 -0.006680 0.000000 0.000000 0.000000
# 2 -0.001295 0.030583 -0.006320 0.000000 0.000000 0.000000
# 3 -0.006680 -0.006320 0.013140 0.000000 0.000000 0.000000
# 4 0.000000 0.000000 0.000000 0.038397 0.000000 0.000000
# 5 0.000000 0.000000 0.000000 0.000000 0.116999 0.000000
# 6 0.000000 0.000000 0.000000 0.000000 0.000000 0.056686
#
#
# Mechanical properties :
#
#
# Convention : Reuss Voigt Hill
#
# Bulk Modulus (GPa) = 35.28488 54.83600 45.06044
# Shear Modulus (GPa) = 16.28408 21.19056 18.73732
#
# Velocity S-wave (km/s) = 3.10187 3.53845 3.32733
# Velocity P-wave (km/s) = 5.80321 7.00675 6.43319
#
# Compressibility (1/GPa) = 0.02834075
#
# Stress axis : x y z
#
# Youngs Moduli (GPa) = 75.71291 32.69821 76.10618
#
# Poissons Ratio (x) = 0.04234 0.50837
# Poissons Ratio (y) = 0.09804 0.48099
# Poissons Ratio (z) = 0.50574 0.20665
#
# Static dielectric constant tensor:
#      x y z
#    x 1.559610 0.000000 0.000000 
#    y 0.000000 1.574940 0.000000 
#    z 0.000000 0.000000 1.571320 
# 
# From -- ./inp_files/49846.got.cif
#   From: 2010.05.17/outbox.cif.g08.bks.cpg/sg65_25_cif.got.tgz:49846.got - 2010.06.03 17:01:31.
