data_PCOD9486572
_publ_section_title
;
Structure prediction by ZEFSAII (Michael W. Deem and Ramdas Pophale) SiO2 
 PCOD9486572
Probable space group: C M M M
;
_chemical_formula_sum "Si O2"
_cell_formula_units_Z 64
_cell_length_a 7.613793
_cell_length_b 33.453718
_cell_length_c 11.525678
_cell_angle_alpha 90.000000
_cell_angle_beta 90.000000
_cell_angle_gamma 90.000000
_cell_volume 2935.701800
_symmetry_space_group_name_H-M "C M M M"
_symmetry_group_IT_number 65
_symmetry_cell_setting 'orthorhombic'
loop_
_space_group_symop_operation_xyz
x,y,z
-x,-y,z
x,-y,-z
-x,y,-z
-x,-y,-z
x,y,-z
-x,y,z
x,-y,z
1/2+x,1/2+y,z
1/2-x,1/2-y,z
1/2+x,1/2-y,-z
1/2-x,1/2+y,-z
1/2-x,1/2-y,-z
1/2+x,1/2+y,-z
1/2-x,1/2+y,z
1/2+x,1/2-y,z
loop_
_atom_site_type_symbol
_atom_site_label
_atom_site_fract_x
_atom_site_fract_y
_atom_site_fract_z
Si Si1 0.700499 0.421236 0.251964
Si Si2 0.796711 0.421606 0.000000
Si Si3 0.788945 0.296657 0.500000
Si Si4 0.794999 0.324820 0.000000
Si Si5 0.793433 0.000000 0.636728
Si Si6 0.795116 0.329466 0.745059
O O1 0.500000 0.415286 0.291338
O O2 0.783232 0.458189 0.319780
O O3 0.787199 0.377762 0.259524
O O4 0.706341 0.434194 0.117919
O O5 0.792812 0.373170 0.000000
O O6 0.000000 0.434016 0.000000
O O7 0.750000 0.250000 0.500000
O O8 0.779936 0.186052 0.622880
O O9 0.000000 0.304056 0.500000
O O10 0.719884 0.315013 0.128937
O O11 0.000000 0.312119 0.000000
O O12 0.790767 0.000000 0.500000
O O13 0.000000 0.000000 0.675725
O O14 0.000000 0.317678 0.748298
#
# Coordination Sequence:
#
# PCOD9486572 Si02
#       6
#    16   8   8   8   8  16
#     4  10  19  32  54  79 103 138 184 226 263 319
#     4   9  17  32  52  74 107 139 172 222 277 323
#     4  10  22  38  56  79 110 141 177 220 269 326
#     4   7  12  27  51  73  96 131 169 202 253 316
#     4   9  20  35  47  68 108 147 180 223 276 319
#     4   9  18  34  55  78 106 141 176 220 275 325
#
# _framework density 21.80058
#
# number of rings (size 3 to 8) (size 9 to 14) (size 15 to 20)
#    0.000    2.875    0.000    2.625    1.750    1.500 
#    0.000    5.625    0.000    3.000    0.000    0.000 
#    0.000    0.000    0.000    0.000    0.000    0.000 
#
# Total GULP energy -178206.226438 kJ/mol
# GULP energy per Si atom -5568.944576 kJ/mol
# Density = 2.175096 g / cm^3
# Si number density = 21.800580 Si / 1000 Ang^3
#
#
#
# Elastic Constant Matrix: (Units=GPa)
#
#
# Indices 1 2 3 4 5 6 
#
# 1 48.9306 -14.4281 4.3801 0.0000 0.0000 0.0000
# 2 -14.4281 54.8575 75.4408 0.0000 0.0000 0.0000
# 3 4.3801 75.4408 202.4576 0.0000 0.0000 0.0000
# 4 0.0000 0.0000 0.0000 261.2800 0.0000 0.0000
# 5 0.0000 0.0000 0.0000 0.0000 4.4926 0.0000
# 6 0.0000 0.0000 0.0000 0.0000 0.0000 5.6914
#
#
#
# Elastic Compliance Matrix: (Units=1/GPa)
#
#
# Indices 1 2 3 4 5 6 
#
# 1 0.025515 0.015321 -0.006261 0.000000 0.000000 0.000000
# 2 0.015321 0.046588 -0.017691 0.000000 0.000000 0.000000
# 3 -0.006261 -0.017691 0.011667 0.000000 0.000000 0.000000
# 4 0.000000 0.000000 0.000000 0.003827 0.000000 0.000000
# 5 0.000000 0.000000 0.000000 0.000000 0.222587 0.000000
# 6 0.000000 0.000000 0.000000 0.000000 0.000000 0.175703
#
#
# Mechanical properties :
#
#
# Convention : Reuss Voigt Hill
#
# Bulk Modulus (GPa) = 15.03590 48.55902 31.79746
# Shear Modulus (GPa) = 9.51801 70.34968 39.93385
#
# Velocity S-wave (km/s) = 2.09175 5.68680 4.28457
# Velocity P-wave (km/s) = 3.57014 8.08963 6.25252
#
# Compressibility (1/GPa) = 0.06650748
#
# Stress axis : x y z
#
# Youngs Moduli (GPa) = 39.19232 21.46479 85.71203
#
# Poissons Ratio (x) = -0.32886 0.53664
# Poissons Ratio (y) = -0.60046 1.51636
# Poissons Ratio (z) = 0.24538 0.37974
#
# Static dielectric constant tensor:
#      x y z
#    x 1.873820 0.000000 0.000000 
#    y 0.000000 1.766900 0.000000 
#    z 0.000000 0.000000 1.842160 
# 
# From -- ./inp_files/21069.got.cif
#   From: 2010.05.17/outbox.cif.g08.bks.cpg/sg65_11_cif.got.tgz:21069.got - 2010.06.03 17:01:31.
