data_PCOD9486009
_publ_section_title
;
Structure prediction by ZEFSAII (Michael W. Deem and Ramdas Pophale) SiO2 
 PCOD9486009
Probable space group: C M M M
;
_chemical_formula_sum "Si O2"
_cell_formula_units_Z 88
_cell_length_a 18.431087
_cell_length_b 31.876764
_cell_length_c 7.853874
_cell_angle_alpha 90.000000
_cell_angle_beta 90.000000
_cell_angle_gamma 90.000000
_cell_volume 4614.334839
_symmetry_space_group_name_H-M "C M M M"
_symmetry_group_IT_number 65
_symmetry_cell_setting 'orthorhombic'
loop_
_space_group_symop_operation_xyz
x,y,z
-x,-y,z
x,-y,-z
-x,y,-z
-x,-y,-z
x,y,-z
-x,y,z
x,-y,z
1/2+x,1/2+y,z
1/2-x,1/2-y,z
1/2+x,1/2-y,-z
1/2-x,1/2+y,-z
1/2-x,1/2-y,-z
1/2+x,1/2+y,-z
1/2-x,1/2+y,z
1/2+x,1/2-y,z
loop_
_atom_site_type_symbol
_atom_site_label
_atom_site_fract_x
_atom_site_fract_y
_atom_site_fract_z
Si Si1 0.268524 0.703852 0.295910
Si Si2 0.655280 0.413973 0.300579
Si Si3 0.083266 0.000000 0.204491
Si Si4 0.915096 0.452429 0.792149
Si Si5 0.693184 0.119211 0.805608
Si Si6 0.578867 0.331307 0.293011
O O1 0.273942 0.706700 0.500000
O O2 0.250000 0.750000 0.229505
O O3 0.212223 0.665709 0.263862
O O4 0.348596 0.691459 0.230787
O O5 0.671833 0.407167 0.500000
O O6 0.624588 0.459378 0.269262
O O7 0.729611 0.404513 0.204293
O O8 0.594419 0.379906 0.252539
O O9 0.000000 0.000000 0.263376
O O10 0.083798 0.000000 0.000000
O O11 0.892953 0.500000 0.737763
O O12 0.865462 0.413649 0.729597
O O13 0.000000 0.446862 0.747557
O O14 0.910689 0.452563 0.000000
O O15 0.671128 0.125921 0.000000
O O16 0.577609 0.327516 0.500000
O O17 0.500000 0.317670 0.229792
#
# Coordination Sequence:
#
# PCOD9486009 Si02
#       6
#    16  16   8  16  16  16
#     4   9  18  33  51  71  99 132 166 209 261 316
#     4  10  20  33  49  70  98 134 171 207 249 300
#     4  11  23  35  47  69 102 135 170 213 251 282
#     4   8  15  29  49  73 101 135 173 209 249 306
#     4  10  19  31  52  78 101 129 167 214 259 304
#     4   8  14  27  48  69  88 118 164 206 238 287
#
# _framework density 19.071005
#
# number of rings (size 3 to 8) (size 9 to 14) (size 15 to 20)
#    0.000    2.818    0.000    3.545    1.273    1.818 
#    0.000    0.909    0.000    8.182    0.000    5.091 
#    0.000    0.000    0.000    0.000    0.000    0.000 
#
# Total GULP energy -245089.360737 kJ/mol
# GULP energy per Si atom -5570.212744 kJ/mol
# Density = 1.902760 g / cm^3
# Si number density = 19.071005 Si / 1000 Ang^3
#
#
#
# Elastic Constant Matrix: (Units=GPa)
#
#
# Indices 1 2 3 4 5 6 
#
# 1 96.7341 79.7282 2.4184 0.0000 0.0000 0.0000
# 2 79.7282 174.9239 2.8338 0.0000 0.0000 0.0000
# 3 2.4184 2.8338 20.4462 0.0000 0.0000 0.0000
# 4 0.0000 0.0000 0.0000 34.4046 0.0000 0.0000
# 5 0.0000 0.0000 0.0000 0.0000 11.9901 0.0000
# 6 0.0000 0.0000 0.0000 0.0000 0.0000 15.1169
#
#
#
# Elastic Compliance Matrix: (Units=1/GPa)
#
#
# Indices 1 2 3 4 5 6 
#
# 1 0.016575 -0.007540 -0.000915 0.000000 0.000000 0.000000
# 2 -0.007540 0.009159 -0.000378 0.000000 0.000000 0.000000
# 3 -0.000915 -0.000378 0.049070 0.000000 0.000000 0.000000
# 4 0.000000 0.000000 0.000000 0.029066 0.000000 0.000000
# 5 0.000000 0.000000 0.000000 0.000000 0.083402 0.000000
# 6 0.000000 0.000000 0.000000 0.000000 0.000000 0.066151
#
#
# Mechanical properties :
#
#
# Convention : Reuss Voigt Hill
#
# Bulk Modulus (GPa) = 17.50151 51.34054 34.42103
# Shear Modulus (GPa) = 17.23336 26.11055 21.67196
#
# Velocity S-wave (km/s) = 3.00932 3.70418 3.37468
# Velocity P-wave (km/s) = 4.61212 6.72858 5.76825
#
# Compressibility (1/GPa) = 0.05713793
#
# Stress axis : x y z
#
# Youngs Moduli (GPa) = 60.33267 109.17725 20.37923
#
# Poissons Ratio (x) = 0.82317 0.01866
# Poissons Ratio (y) = 0.45489 0.00770
# Poissons Ratio (z) = 0.05523 0.04123
#
# Static dielectric constant tensor:
#      x y z
#    x 1.654350 0.000000 0.000000 
#    y 0.000000 1.708840 0.000000 
#    z 0.000000 0.000000 1.713160 
# 
# From -- ./inp_files/10027.got.cif
#   From: 2010.05.17/outbox.cif.g08.bks.cpg/sg65_6_cif.got.tgz:10027.got - 2010.06.03 17:01:31.
