data_PCOD9486818
_publ_section_title
;
Structure prediction by ZEFSAII (Michael W. Deem and Ramdas Pophale) SiO2 
 PCOD9486818
Probable space group: C M M M
;
_chemical_formula_sum "Si O2"
_cell_formula_units_Z 104
_cell_length_a 24.118395
_cell_length_b 8.567793
_cell_length_c 29.053765
_cell_angle_alpha 90.000000
_cell_angle_beta 90.000000
_cell_angle_gamma 90.000000
_cell_volume 6003.711135
_symmetry_space_group_name_H-M "C M M M"
_symmetry_group_IT_number 65
_symmetry_cell_setting 'orthorhombic'
loop_
_space_group_symop_operation_xyz
x,y,z
-x,-y,z
x,-y,-z
-x,y,-z
-x,-y,-z
x,y,-z
-x,y,z
x,-y,z
1/2+x,1/2+y,z
1/2-x,1/2-y,z
1/2+x,1/2-y,-z
1/2-x,1/2+y,-z
1/2-x,1/2-y,-z
1/2+x,1/2+y,-z
1/2-x,1/2+y,z
1/2+x,1/2-y,z
loop_
_atom_site_type_symbol
_atom_site_label
_atom_site_fract_x
_atom_site_fract_y
_atom_site_fract_z
Si Si1 0.187991 0.812037 0.224847
Si Si2 0.000000 0.686654 0.826136
Si Si3 0.500000 0.187302 0.718790
Si Si4 0.310990 0.311469 0.052663
Si Si5 0.813221 0.312070 0.601263
Si Si6 0.187417 0.687695 0.500000
Si Si7 0.615243 0.688823 0.862662
Si Si8 0.383150 0.687455 0.686396
O O1 0.250000 0.750000 0.226081
O O2 0.155816 0.762072 0.178903
O O3 0.153486 0.761452 0.269568
O O4 0.189682 0.000000 0.224920
O O5 0.054831 0.746653 0.851511
O O6 0.000000 0.500000 0.825673
O O7 0.000000 0.740712 0.772523
O O8 0.555261 0.248457 0.694181
O O9 0.500000 0.000000 0.718468
O O10 0.309114 0.500000 0.053424
O O11 0.250000 0.250000 0.065631
O O12 0.357002 0.260759 0.089362
O O13 0.322270 0.261640 0.000000
O O14 0.811370 0.500000 0.603715
O O15 0.750000 0.250000 0.606725
O O16 0.834909 0.264338 0.550113
O O17 0.852638 0.247607 0.640881
O O18 0.188015 0.500000 0.500000
O O19 0.250000 0.750000 0.500000
O O20 0.612327 0.500000 0.862560
O O21 0.384838 0.500000 0.685778
#
# Coordination Sequence:
#
# PCOD9486818 Si02
#       8
#    16   8   8  16  16   8  16  16
#     4  10  21  33  49  74 104 137 170 207 257 313
#     4  11  23  37  56  80 102 133 180 226 265 309
#     4  11  23  39  57  77 101 137 180 226 268 315
#     4   9  18  33  55  82 109 139 176 216 262 315
#     4  10  19  33  53  80 112 145 181 221 267 316
#     4   8  16  30  50  75 106 143 180 218 262 314
#     4  10  20  36  55  75 104 142 177 215 262 314
#     4  11  22  36  54  77 106 141 178 218 265 321
#
# _framework density 17.322617999999999
#
# number of rings (size 3 to 8) (size 9 to 14) (size 15 to 20)
#    0.000    2.000    1.538    2.308    0.000    4.923 
#    0.000    0.385    0.000    2.769    0.000    3.231 
#    0.000    0.000    0.000    0.000    0.000    0.000 
#
# Total GULP energy -290180.033031 kJ/mol
# GULP energy per Si atom -5580.385251 kJ/mol
# Density = 1.728319 g / cm^3
# Si number density = 17.322618 Si / 1000 Ang^3
#
#
#
# Elastic Constant Matrix: (Units=GPa)
#
#
# Indices 1 2 3 4 5 6 
#
# 1 161.4042 32.0456 97.3141 0.0000 0.0000 0.0000
# 2 32.0456 26.4322 34.2855 0.0000 0.0000 0.0000
# 3 97.3141 34.2855 155.3782 0.0000 0.0000 0.0000
# 4 0.0000 0.0000 0.0000 17.2280 0.0000 0.0000
# 5 0.0000 0.0000 0.0000 0.0000 8.3720 0.0000
# 6 0.0000 0.0000 0.0000 0.0000 0.0000 32.5904
#
#
#
# Elastic Compliance Matrix: (Units=1/GPa)
#
#
# Indices 1 2 3 4 5 6 
#
# 1 0.010578 -0.005928 -0.005317 0.000000 0.000000 0.000000
# 2 -0.005928 0.056325 -0.008716 0.000000 0.000000 0.000000
# 3 -0.005317 -0.008716 0.011689 0.000000 0.000000 0.000000
# 4 0.000000 0.000000 0.000000 0.058045 0.000000 0.000000
# 5 0.000000 0.000000 0.000000 0.000000 0.119445 0.000000
# 6 0.000000 0.000000 0.000000 0.000000 0.000000 0.030684
#
#
# Mechanical properties :
#
#
# Convention : Reuss Voigt Hill
#
# Bulk Modulus (GPa) = 25.85937 74.50057 50.17997
# Shear Modulus (GPa) = 14.72408 23.60937 19.16673
#
# Velocity S-wave (km/s) = 2.91862 3.69578 3.32995
# Velocity P-wave (km/s) = 5.13014 7.83025 6.61933
#
# Compressibility (1/GPa) = 0.03867070
#
# Stress axis : x y z
#
# Youngs Moduli (GPa) = 94.53143 17.75406 85.54750
#
# Poissons Ratio (x) = 0.10524 0.45488
# Poissons Ratio (y) = 0.56038 0.74563
# Poissons Ratio (z) = 0.50265 0.15474
#
# Static dielectric constant tensor:
#      x y z
#    x 1.540740 0.000000 0.000000 
#    y 0.000000 1.591360 0.000000 
#    z 0.000000 0.000000 1.611870 
# 
# From -- ./inp_files/75815.got.cif
#   From: 2010.05.17/outbox.cif.g08.bks.cpg/sg65_38_cif.got.tgz:75815.got - 2010.06.03 17:01:31.
