data_PCOD9486839
_publ_section_title
;
Structure prediction by ZEFSAII (Michael W. Deem and Ramdas Pophale) SiO2 
 PCOD9486839
Probable space group: C M M M
;
_chemical_formula_sum "Si O2"
_cell_formula_units_Z 104
_cell_length_a 28.114532
_cell_length_b 20.811517
_cell_length_c 7.465936
_cell_angle_alpha 90.000000
_cell_angle_beta 90.000000
_cell_angle_gamma 90.000000
_cell_volume 4368.364402
_symmetry_space_group_name_H-M "C M M M"
_symmetry_group_IT_number 65
_symmetry_cell_setting 'orthorhombic'
loop_
_space_group_symop_operation_xyz
x,y,z
-x,-y,z
x,-y,-z
-x,y,-z
-x,-y,-z
x,y,-z
-x,y,z
x,-y,z
1/2+x,1/2+y,z
1/2-x,1/2-y,z
1/2+x,1/2-y,-z
1/2-x,1/2+y,-z
1/2-x,1/2-y,-z
1/2+x,1/2+y,-z
1/2-x,1/2+y,z
1/2+x,1/2-y,z
loop_
_atom_site_type_symbol
_atom_site_label
_atom_site_fract_x
_atom_site_fract_y
_atom_site_fract_z
Si Si1 0.307726 0.428919 0.719401
Si Si2 0.400506 0.361892 0.292962
Si Si3 0.447446 0.907643 0.792995
Si Si4 0.734473 0.821681 0.713804
Si Si5 0.842035 0.429565 0.215728
Si Si6 0.000000 0.925497 0.214731
Si Si7 0.053069 0.259306 0.717115
O O1 0.306034 0.430693 0.500000
O O2 0.295598 0.500000 0.782176
O O3 0.360307 0.408196 0.779799
O O4 0.272771 0.373326 0.780818
O O5 0.387183 0.351514 0.500000
O O6 0.451848 0.394254 0.285294
O O7 0.407968 0.290850 0.215253
O O8 0.500000 0.923805 0.715499
O O9 0.396760 0.929004 0.716694
O O10 0.443608 0.830590 0.788053
O O11 0.448650 0.928212 0.000000
O O12 0.738602 0.816653 0.500000
O O13 0.750000 0.750000 0.781017
O O14 0.685423 0.862815 0.740281
O O15 0.821084 0.500000 0.273299
O O16 0.843413 0.430478 0.000000
O O17 0.000000 0.000000 0.263707
O O18 0.000000 0.919657 0.000000
O O19 0.055460 0.262439 0.500000
O O20 0.000000 0.235271 0.763724
#
# Coordination Sequence:
#
# PCOD9486839 Si02
#       7
#    16  16  16  16  16   8  16
#     4   9  18  33  54  80 108 139 183 237 286 339
#     4  10  19  33  54  76 100 140 189 234 283 341
#     4   9  19  35  56  84 118 155 194 234 284 345
#     4  10  22  39  62  90 117 151 194 244 299 353
#     4  10  22  40  62  89 122 160 201 243 291 352
#     4  11  23  35  47  71 109 145 182 231 282 337
#     4   9  17  30  49  76 108 141 181 231 282 333
#
# _framework density 23.807539999999999
#
# number of rings (size 3 to 8) (size 9 to 14) (size 15 to 20)
#    0.000    2.385    0.769    1.154    2.154    4.000 
#    0.000    2.308    0.000    2.769    0.000    3.231 
#    0.000    0.000    0.000    0.000    0.000    0.000 
#
# Total GULP energy -290044.738162 kJ/mol
# GULP energy per Si atom -5577.783426 kJ/mol
# Density = 2.375335 g / cm^3
# Si number density = 23.807540 Si / 1000 Ang^3
#
#
#
# Elastic Constant Matrix: (Units=GPa)
#
#
# Indices 1 2 3 4 5 6 
#
# 1 145.4318 78.2859 -6.1040 0.0000 0.0000 0.0000
# 2 78.2859 221.8315 10.4245 0.0000 0.0000 0.0000
# 3 -6.1040 10.4245 68.5686 0.0000 0.0000 0.0000
# 4 0.0000 0.0000 0.0000 -15.8245 0.0000 0.0000
# 5 0.0000 0.0000 0.0000 0.0000 7.4121 0.0000
# 6 0.0000 0.0000 0.0000 0.0000 0.0000 14.2444
#
#
#
# Elastic Compliance Matrix: (Units=1/GPa)
#
#
# Indices 1 2 3 4 5 6 
#
# 1 0.008591 -0.003090 0.001235 0.000000 0.000000 0.000000
# 2 -0.003090 0.005652 -0.001134 0.000000 0.000000 0.000000
# 3 0.001235 -0.001134 0.014866 0.000000 0.000000 0.000000
# 4 0.000000 0.000000 0.000000 -0.063193 0.000000 0.000000
# 5 0.000000 0.000000 0.000000 0.000000 0.134915 0.000000
# 6 0.000000 0.000000 0.000000 0.000000 0.000000 0.070203
#
#
# Mechanical properties :
#
#
# Convention : Reuss Voigt Hill
#
# Bulk Modulus (GPa) = 43.23418 66.78276 55.00847
# Shear Modulus (GPa) = 27.06754 24.71476 25.89115
#
# Velocity S-wave (km/s) = 3.37550 3.22546 3.30133
# Velocity P-wave (km/s) = 5.77852 6.47946 6.13900
#
# Compressibility (1/GPa) = 0.02312985
#
# Stress axis : x y z
#
# Youngs Moduli (GPa) = 116.39833 176.93858 67.26632
#
# Poissons Ratio (x) = 0.54672 -0.08304
# Poissons Ratio (y) = 0.35966 0.07630
# Poissons Ratio (z) = -0.14370 0.20070
#
# Static dielectric constant tensor:
#      x y z
#    x 1.985170 0.000000 0.000000 
#    y 0.000000 1.908300 0.000000 
#    z 0.000000 0.000000 1.906880 
# 
# From -- ./inp_files/16436.got.cif
#   From: 2010.05.17/outbox.cif.g08.bks.cpg/sg65_9_cif.got.tgz:16436.got - 2010.06.03 17:01:31.
