data_PCOD9486629
_publ_section_title
;
Structure prediction by ZEFSAII (Michael W. Deem and Ramdas Pophale) SiO2 
 PCOD9486629
Probable space group: C M M M
;
_chemical_formula_sum "Si O2"
_cell_formula_units_Z 88
_cell_length_a 9.558026
_cell_length_b 28.952901
_cell_length_c 23.753665
_cell_angle_alpha 90.000000
_cell_angle_beta 90.000000
_cell_angle_gamma 90.000000
_cell_volume 6573.413013
_symmetry_space_group_name_H-M "C M M M"
_symmetry_group_IT_number 65
_symmetry_cell_setting 'orthorhombic'
loop_
_space_group_symop_operation_xyz
x,y,z
-x,-y,z
x,-y,-z
-x,y,-z
-x,-y,-z
x,y,-z
-x,y,z
x,-y,z
1/2+x,1/2+y,z
1/2-x,1/2-y,z
1/2+x,1/2-y,-z
1/2-x,1/2+y,-z
1/2-x,1/2-y,-z
1/2+x,1/2+y,-z
1/2-x,1/2+y,z
1/2+x,1/2-y,z
loop_
_atom_site_type_symbol
_atom_site_label
_atom_site_fract_x
_atom_site_fract_y
_atom_site_fract_z
Si Si1 0.337799 0.056155 0.936809
Si Si2 0.160903 0.943709 0.170434
Si Si3 0.167320 0.397314 0.398677
Si Si4 0.334451 0.555402 0.500000
Si Si5 0.335265 0.945243 0.279905
Si Si6 0.834567 0.294909 0.566743
O O1 0.500000 0.069198 0.927739
O O2 0.240405 0.072049 0.885941
O O3 0.334393 0.000000 0.936551
O O4 0.295483 0.070694 0.000000
O O5 0.243244 0.930142 0.226810
O O6 0.000000 0.928992 0.171339
O O7 0.162863 0.000000 0.169563
O O8 0.257068 0.423659 0.445581
O O9 0.194904 0.418029 0.337168
O O10 0.199308 0.342855 0.402718
O O11 0.000000 0.402815 0.410572
O O12 0.320770 0.500000 0.500000
O O13 0.500000 0.566776 0.500000
O O14 0.500000 0.939790 0.266486
O O15 0.311009 0.000000 0.289670
O O16 0.805565 0.302022 0.500000
O O17 0.750000 0.250000 0.585645
O O18 0.000000 0.286355 0.572521
#
# Coordination Sequence:
#
# PCOD9486629 Si02
#       6
#    16  16  16   8  16  16
#     4   8  13  21  33  48  66  90 123 163 200 230
#     4   9  16  24  34  49  71  98 126 159 197 234
#     4  10  19  33  49  63  78 102 136 167 196 237
#     4  11  23  33  42  61  86 107 128 161 204 243
#     4   9  17  28  42  57  73  99 134 167 196 228
#     4   9  17  30  47  66  84 100 122 156 198 244
#
# _framework density 13.387261000000001
#
# number of rings (size 3 to 8) (size 9 to 14) (size 15 to 20)
#    0.000    2.818    0.909    1.909    0.000    5.455 
#    0.000    3.636    0.000    0.000    0.000    0.000 
#    0.000    0.000    0.000    0.000    0.000    0.909 
#
# Total GULP energy -245048.846362 kJ/mol
# GULP energy per Si atom -5569.291963 kJ/mol
# Density = 1.335679 g / cm^3
# Si number density = 13.387261 Si / 1000 Ang^3
#
#
#
# Elastic Constant Matrix: (Units=GPa)
#
#
# Indices 1 2 3 4 5 6 
#
# 1 79.4969 42.2867 83.9680 0.0000 0.0000 0.0000
# 2 42.2867 53.9322 46.5891 0.0000 0.0000 0.0000
# 3 83.9680 46.5891 127.8851 0.0000 0.0000 0.0000
# 4 0.0000 0.0000 0.0000 1.1224 0.0000 0.0000
# 5 0.0000 0.0000 0.0000 0.0000 9.3903 0.0000
# 6 0.0000 0.0000 0.0000 0.0000 0.0000 15.4328
#
#
#
# Elastic Compliance Matrix: (Units=1/GPa)
#
#
# Indices 1 2 3 4 5 6 
#
# 1 0.048397 -0.015316 -0.026197 0.000000 0.000000 0.000000
# 2 -0.015316 0.031904 -0.001566 0.000000 0.000000 0.000000
# 3 -0.026197 -0.001566 0.025591 0.000000 0.000000 0.000000
# 4 0.000000 0.000000 0.000000 0.890926 0.000000 0.000000
# 5 0.000000 0.000000 0.000000 0.000000 0.106493 0.000000
# 6 0.000000 0.000000 0.000000 0.000000 0.000000 0.064797
#
#
# Mechanical properties :
#
#
# Convention : Reuss Voigt Hill
#
# Bulk Modulus (GPa) = 50.67823 67.44466 59.06145
# Shear Modulus (GPa) = 3.96560 11.08712 7.52636
#
# Velocity S-wave (km/s) = 1.72298 2.88094 2.37365
# Velocity P-wave (km/s) = 6.47271 7.84573 7.19206
#
# Compressibility (1/GPa) = 0.01973234
#
# Stress axis : x y z
#
# Youngs Moduli (GPa) = 20.66260 31.34426 39.07665
#
# Poissons Ratio (x) = 0.48008 1.02369
# Poissons Ratio (y) = 0.31647 0.06120
# Poissons Ratio (z) = 0.54130 0.04909
#
# Static dielectric constant tensor:
#      x y z
#    x 1.447670 0.000000 0.000000 
#    y 0.000000 1.407260 0.000000 
#    z 0.000000 0.000000 1.433170 
# 
# From -- ./inp_files/66236.got.cif
#   From: 2010.05.17/outbox.cif.g08.bks.cpg/sg65_34_cif.got.tgz:66236.got - 2010.06.03 17:01:31.
