data_PCOD9486530
_publ_section_title
;
Structure prediction by ZEFSAII (Michael W. Deem and Ramdas Pophale) SiO2 
 PCOD9486530
Probable space group: C M M M
;
_chemical_formula_sum "Si O2"
_cell_formula_units_Z 80
_cell_length_a 7.823401
_cell_length_b 22.967168
_cell_length_c 22.613152
_cell_angle_alpha 90.000000
_cell_angle_beta 90.000000
_cell_angle_gamma 90.000000
_cell_volume 4063.162021
_symmetry_space_group_name_H-M "C M M M"
_symmetry_group_IT_number 65
_symmetry_cell_setting 'orthorhombic'
loop_
_space_group_symop_operation_xyz
x,y,z
-x,-y,z
x,-y,-z
-x,y,-z
-x,-y,-z
x,y,-z
-x,y,z
x,-y,z
1/2+x,1/2+y,z
1/2-x,1/2-y,z
1/2+x,1/2-y,-z
1/2-x,1/2+y,-z
1/2-x,1/2-y,-z
1/2+x,1/2+y,-z
1/2-x,1/2+y,z
1/2+x,1/2-y,z
loop_
_atom_site_type_symbol
_atom_site_label
_atom_site_fract_x
_atom_site_fract_y
_atom_site_fract_z
Si Si1 0.797375 0.622636 0.118061
Si Si2 0.294123 0.183179 0.000000
Si Si3 0.204772 0.684387 0.766175
Si Si4 0.292110 0.435038 0.430164
Si Si5 0.794896 0.000000 0.068597
Si Si6 0.197382 0.182879 0.630699
O O1 0.730388 0.642805 0.181584
O O2 0.769448 0.555982 0.103055
O O3 0.000000 0.635407 0.120234
O O4 0.725199 0.655538 0.060532
O O5 0.250000 0.250000 0.000000
O O6 0.500000 0.174487 0.000000
O O7 0.250000 0.750000 0.784878
O O8 0.281105 0.675406 0.701248
O O9 0.000000 0.679370 0.759596
O O10 0.254592 0.431433 0.500000
O O11 0.500000 0.435707 0.423885
O O12 0.233600 0.500000 0.409305
O O13 0.225669 0.375543 0.399426
O O14 0.000000 0.000000 0.067321
O O15 0.734429 0.000000 0.000000
O O16 0.250000 0.250000 0.616653
O O17 0.000000 0.181622 0.614375
#
# Coordination Sequence:
#
# PCOD9486530 Si02
#       6
#    16   8  16  16   8  16
#     4  10  21  37  56  74 100 138 173 207 257 315
#     4  10  20  33  52  77  99 126 164 210 257 308
#     4  10  20  35  55  78 105 138 174 212 259 310
#     4   8  15  30  52  77 105 139 180 222 263 309
#     4  11  23  37  55  79 103 131 168 215 262 305
#     4  10  19  32  53  79 109 142 176 218 266 315
#
# _framework density 19.689098000000001
#
# number of rings (size 3 to 8) (size 9 to 14) (size 15 to 20)
#    0.000    2.300    1.000    3.900    0.000    3.200 
#    1.800    0.000    0.000    3.600    0.000    5.600 
#    0.000    0.000    0.000    0.000    0.000    0.000 
#
# Total GULP energy -222926.961240 kJ/mol
# GULP energy per Si atom -5573.174031 kJ/mol
# Density = 1.964428 g / cm^3
# Si number density = 19.689098 Si / 1000 Ang^3
#
#
#
# Elastic Constant Matrix: (Units=GPa)
#
#
# Indices 1 2 3 4 5 6 
#
# 1 18.9139 -10.3604 -7.7914 0.0000 0.0000 0.0000
# 2 -10.3604 193.1576 85.4012 0.0000 0.0000 0.0000
# 3 -7.7914 85.4012 68.6764 0.0000 0.0000 0.0000
# 4 0.0000 0.0000 0.0000 48.8552 0.0000 0.0000
# 5 0.0000 0.0000 0.0000 0.0000 13.1184 0.0000
# 6 0.0000 0.0000 0.0000 0.0000 0.0000 19.8377
#
#
#
# Elastic Compliance Matrix: (Units=1/GPa)
#
#
# Indices 1 2 3 4 5 6 
#
# 1 0.055479 0.000428 0.005761 0.000000 0.000000 0.000000
# 2 0.000428 0.011503 -0.014256 0.000000 0.000000 0.000000
# 3 0.005761 -0.014256 0.032942 0.000000 0.000000 0.000000
# 4 0.000000 0.000000 0.000000 0.020469 0.000000 0.000000
# 5 0.000000 0.000000 0.000000 0.000000 0.076229 0.000000
# 6 0.000000 0.000000 0.000000 0.000000 0.000000 0.050409
#
#
# Mechanical properties :
#
#
# Convention : Reuss Voigt Hill
#
# Bulk Modulus (GPa) = 11.93426 46.13852 29.03639
# Shear Modulus (GPa) = 17.17658 30.59547 23.88603
#
# Velocity S-wave (km/s) = 2.95683 3.94627 3.48682
# Velocity P-wave (km/s) = 4.21090 6.65195 5.56687
#
# Compressibility (1/GPa) = 0.08379239
#
# Stress axis : x y z
#
# Youngs Moduli (GPa) = 18.02481 86.93348 30.35619
#
# Poissons Ratio (x) = -0.03725 -0.17489
# Poissons Ratio (y) = -0.00772 0.43275
# Poissons Ratio (z) = -0.10385 1.23931
#
# Static dielectric constant tensor:
#      x y z
#    x 1.731870 0.000000 0.000000 
#    y 0.000000 1.694850 0.000000 
#    z 0.000000 0.000000 1.678730 
# 
# From -- ./inp_files/67341.got.cif
#   From: 2010.05.17/outbox.cif.g08.bks.cpg/sg65_34_cif.got.tgz:67341.got - 2010.06.03 17:01:31.
