data_PCOD9486672
_publ_section_title
;
Structure prediction by ZEFSAII (Michael W. Deem and Ramdas Pophale) SiO2 
 PCOD9486672
Probable space group: C M M M
;
_chemical_formula_sum "Si O2"
_cell_formula_units_Z 72
_cell_length_a 10.533870
_cell_length_b 28.398973
_cell_length_c 13.359726
_cell_angle_alpha 90.000000
_cell_angle_beta 90.000000
_cell_angle_gamma 90.000000
_cell_volume 3996.576591
_symmetry_space_group_name_H-M "C M M M"
_symmetry_group_IT_number 65
_symmetry_cell_setting 'orthorhombic'
loop_
_space_group_symop_operation_xyz
x,y,z
-x,-y,z
x,-y,-z
-x,y,-z
-x,-y,-z
x,y,-z
-x,y,z
x,-y,z
1/2+x,1/2+y,z
1/2-x,1/2-y,z
1/2+x,1/2-y,-z
1/2-x,1/2+y,-z
1/2-x,1/2-y,-z
1/2+x,1/2+y,-z
1/2-x,1/2+y,z
1/2+x,1/2-y,z
loop_
_atom_site_type_symbol
_atom_site_label
_atom_site_fract_x
_atom_site_fract_y
_atom_site_fract_z
Si Si1 0.349441 0.206881 0.115593
Si Si2 0.648932 0.208735 0.500000
Si Si3 0.000000 0.556135 0.108923
Si Si4 0.000000 0.056767 0.112118
Si Si5 0.249164 0.055774 0.237699
Si Si6 0.149669 0.357229 0.309336
O O1 0.500000 0.220525 0.126338
O O2 0.250000 0.250000 0.127717
O O3 0.323725 0.169169 0.203593
O O4 0.334586 0.189749 0.000000
O O5 0.500000 0.223821 0.500000
O O6 0.750000 0.250000 0.500000
O O7 0.670555 0.177947 0.599276
O O8 0.128383 0.565081 0.168074
O O9 0.000000 0.500000 0.097059
O O10 0.000000 0.579212 0.000000
O O11 0.874915 0.067828 0.174255
O O12 0.000000 0.000000 0.102990
O O13 0.000000 0.076680 0.000000
O O14 0.269732 0.095004 0.321694
O O15 0.246987 0.000000 0.264827
O O16 0.000000 0.369053 0.310947
#
# Coordination Sequence:
#
# PCOD9486672 Si02
#       6
#    16   8   8   8  16  16
#     4   9  18  33  52  75 106 139 172 217 273 330
#     4  10  22  42  65  87 112 140 181 237 287 332
#     4   9  16  26  46  73 101 144 192 225 254 302
#     4   9  18  32  48  71 109 156 196 231 274 314
#     4  10  19  33  51  75 112 149 185 229 271 326
#     4  10  20  36  57  84 110 143 184 230 275 328
#
# _framework density 18.015419000000001
#
# number of rings (size 3 to 8) (size 9 to 14) (size 15 to 20)
#    0.000    2.444    1.111    1.333    0.000    4.444 
#    4.000    0.556    0.000    2.000    0.000    2.333 
#    0.000    0.000    0.000    0.000    0.000    0.000 
#
# Total GULP energy -200511.006864 kJ/mol
# GULP energy per Si atom -5569.750191 kJ/mol
# Density = 1.797441 g / cm^3
# Si number density = 18.015419 Si / 1000 Ang^3
#
#
#
# Elastic Constant Matrix: (Units=GPa)
#
#
# Indices 1 2 3 4 5 6 
#
# 1 110.3509 59.0686 38.6710 0.0000 0.0000 0.0000
# 2 59.0686 111.5112 59.4191 0.0000 0.0000 0.0000
# 3 38.6710 59.4191 81.0224 0.0000 0.0000 0.0000
# 4 0.0000 0.0000 0.0000 17.8504 0.0000 0.0000
# 5 0.0000 0.0000 0.0000 0.0000 40.1202 0.0000
# 6 0.0000 0.0000 0.0000 0.0000 0.0000 29.0236
#
#
#
# Elastic Compliance Matrix: (Units=1/GPa)
#
#
# Indices 1 2 3 4 5 6 
#
# 1 0.012818 -0.005794 -0.001869 0.000000 0.000000 0.000000
# 2 -0.005794 0.017339 -0.009950 0.000000 0.000000 0.000000
# 3 -0.001869 -0.009950 0.020531 0.000000 0.000000 0.000000
# 4 0.000000 0.000000 0.000000 0.056021 0.000000 0.000000
# 5 0.000000 0.000000 0.000000 0.000000 0.024925 0.000000
# 6 0.000000 0.000000 0.000000 0.000000 0.000000 0.034455
#
#
# Mechanical properties :
#
#
# Convention : Reuss Voigt Hill
#
# Bulk Modulus (GPa) = 64.67388 68.57799 66.62594
# Shear Modulus (GPa) = 24.21648 27.11388 25.66518
#
# Velocity S-wave (km/s) = 3.67032 3.88369 3.77851
# Velocity P-wave (km/s) = 7.34430 7.63280 7.48994
#
# Compressibility (1/GPa) = 0.01546219
#
# Stress axis : x y z
#
# Youngs Moduli (GPa) = 78.01258 57.67308 48.70573
#
# Poissons Ratio (x) = 0.33418 0.09102
# Poissons Ratio (y) = 0.45203 0.48464
# Poissons Ratio (z) = 0.14578 0.57387
#
# Static dielectric constant tensor:
#      x y z
#    x 1.615910 0.000000 0.000000 
#    y 0.000000 1.649520 0.000000 
#    z 0.000000 0.000000 1.693690 
# 
# From -- ./inp_files/37063.got.cif
#   From: 2010.05.17/outbox.cif.g08.bks.cpg/sg65_19_cif.got.tgz:37063.got - 2010.06.03 17:01:31.
