data_PCOD9486088
_publ_section_title
;
Structure prediction by ZEFSAII (Michael W. Deem and Ramdas Pophale) SiO2 
 PCOD9486088
Probable space group: C M M M
;
_chemical_formula_sum "Si O2"
_cell_formula_units_Z 104
_cell_length_a 24.484972
_cell_length_b 26.466641
_cell_length_c 7.377239
_cell_angle_alpha 90.000000
_cell_angle_beta 90.000000
_cell_angle_gamma 90.000000
_cell_volume 4780.708808
_symmetry_space_group_name_H-M "C M M M"
_symmetry_group_IT_number 65
_symmetry_cell_setting 'orthorhombic'
loop_
_space_group_symop_operation_xyz
x,y,z
-x,-y,z
x,-y,-z
-x,y,-z
-x,-y,-z
x,y,-z
-x,y,z
x,-y,z
1/2+x,1/2+y,z
1/2-x,1/2-y,z
1/2+x,1/2-y,-z
1/2-x,1/2+y,-z
1/2-x,1/2-y,-z
1/2+x,1/2+y,-z
1/2-x,1/2+y,z
1/2+x,1/2-y,z
loop_
_atom_site_type_symbol
_atom_site_label
_atom_site_fract_x
_atom_site_fract_y
_atom_site_fract_z
Si Si1 0.936774 0.500000 0.720851
Si Si2 0.278756 0.147244 0.218483
Si Si3 0.102169 0.393731 0.710730
Si Si4 0.837422 0.131119 0.779902
Si Si5 0.941991 0.290338 0.793810
Si Si6 0.827808 0.751205 0.778182
Si Si7 0.937194 0.058903 0.220726
O O1 0.933357 0.500000 0.500000
O O2 0.908946 0.551082 0.784502
O O3 0.000000 0.500000 0.769731
O O4 0.334548 0.120616 0.272438
O O5 0.224605 0.116844 0.275326
O O6 0.284999 0.206654 0.276831
O O7 0.277323 0.149285 0.000000
O O8 0.086607 0.392499 0.500000
O O9 0.066109 0.350323 0.799950
O O10 0.833772 0.190247 0.726091
O O11 0.888797 0.097111 0.717980
O O12 0.840692 0.129782 0.000000
O O13 0.885990 0.270695 0.713959
O O14 0.000000 0.277206 0.709449
O O15 0.942605 0.270768 0.000000
O O16 0.823862 0.751659 0.000000
O O17 0.000000 0.072017 0.275522
O O18 0.927161 0.000000 0.272673
O O19 0.936947 0.059997 0.000000
#
# Coordination Sequence:
#
# PCOD9486088 Si02
#       7
#     8  16  16  16  16  16  16
#     4   9  18  32  49  67  85 111 152 193 224 264
#     4   9  17  30  45  65  93 121 150 188 232 272
#     4  10  19  32  49  66  87 119 156 192 229 272
#     4   9  15  24  42  64  85 120 159 184 218 274
#     4   9  17  29  45  67  95 121 147 187 235 275
#     4   8  14  24  40  61  86 115 149 185 220 264
#     4   8  14  24  36  54  86 121 149 183 227 272
#
# _framework density 21.754097000000002
#
# number of rings (size 3 to 8) (size 9 to 14) (size 15 to 20)
#    0.000    3.154    0.000    2.769    0.000    3.385 
#    1.385    4.615    0.000   10.154    0.000    0.000 
#    0.000    0.615    0.000    1.692    0.000    1.538 
#
# Total GULP energy -289584.306466 kJ/mol
# GULP energy per Si atom -5568.928970 kJ/mol
# Density = 2.170458 g / cm^3
# Si number density = 21.754097 Si / 1000 Ang^3
#
#
#
# Elastic Constant Matrix: (Units=GPa)
#
#
# Indices 1 2 3 4 5 6 
#
# 1 132.5131 59.9084 -2.7189 0.0000 0.0000 0.0000
# 2 59.9084 99.9101 -6.1549 0.0000 0.0000 0.0000
# 3 -2.7189 -6.1549 75.1533 0.0000 0.0000 0.0000
# 4 0.0000 0.0000 0.0000 4.2993 0.0000 0.0000
# 5 0.0000 0.0000 0.0000 0.0000 -1.9587 0.0000
# 6 0.0000 0.0000 0.0000 0.0000 0.0000 13.8381
#
#
#
# Elastic Compliance Matrix: (Units=1/GPa)
#
#
# Indices 1 2 3 4 5 6 
#
# 1 0.010354 -0.006217 -0.000135 0.000000 0.000000 0.000000
# 2 -0.006217 0.013793 0.000905 0.000000 0.000000 0.000000
# 3 -0.000135 0.000905 0.013375 0.000000 0.000000 0.000000
# 4 0.000000 0.000000 0.000000 0.232598 0.000000 0.000000
# 5 0.000000 0.000000 0.000000 0.000000 -0.510541 0.000000
# 6 0.000000 0.000000 0.000000 0.000000 0.000000 0.072264
#
#
# Mechanical properties :
#
#
# Convention : Reuss Voigt Hill
#
# Bulk Modulus (GPa) = 37.55373 45.51617 41.53495
# Shear Modulus (GPa) = -33.69574 20.33853 -6.67860
#
# Velocity S-wave (km/s) = -3.93992 3.06098 -1.75405
# Velocity P-wave (km/s) = 1.84310 5.78457 3.87713
#
# Compressibility (1/GPa) = 0.02662852
#
# Stress axis : x y z
#
# Youngs Moduli (GPa) = 96.57802 72.50284 74.76435
#
# Poissons Ratio (x) = 0.45075 0.01006
# Poissons Ratio (y) = 0.60042 -0.06764
# Poissons Ratio (z) = 0.01299 -0.06559
#
# Static dielectric constant tensor:
#      x y z
#    x 1.823980 0.000000 0.000000 
#    y 0.000000 1.785720 0.000000 
#    z 0.000000 0.000000 1.849200 
# 
# From -- ./inp_files/14720.got.cif
#   From: 2010.05.17/outbox.cif.g08.bks.cpg/sg65_8_cif.got.tgz:14720.got - 2010.06.03 17:01:31.
