data_PCOD9486030
_publ_section_title
;
Structure prediction by ZEFSAII (Michael W. Deem and Ramdas Pophale) SiO2 
 PCOD9486030
Probable space group: C M M M
;
_chemical_formula_sum "Si O2"
_cell_formula_units_Z 104
_cell_length_a 14.872519
_cell_length_b 18.123098
_cell_length_c 22.682559
_cell_angle_alpha 90.000000
_cell_angle_beta 90.000000
_cell_angle_gamma 90.000000
_cell_volume 6113.768930
_symmetry_space_group_name_H-M "C M M M"
_symmetry_group_IT_number 65
_symmetry_cell_setting 'orthorhombic'
loop_
_space_group_symop_operation_xyz
x,y,z
-x,-y,z
x,-y,-z
-x,y,-z
-x,-y,-z
x,y,-z
-x,y,z
x,-y,z
1/2+x,1/2+y,z
1/2-x,1/2-y,z
1/2+x,1/2-y,-z
1/2-x,1/2+y,-z
1/2-x,1/2-y,-z
1/2+x,1/2+y,-z
1/2-x,1/2+y,z
1/2+x,1/2-y,z
loop_
_atom_site_type_symbol
_atom_site_label
_atom_site_fract_x
_atom_site_fract_y
_atom_site_fract_z
Si Si1 0.341852 0.201580 0.066056
Si Si2 0.754268 0.415775 0.857621
Si Si3 0.606002 0.223572 0.293104
Si Si4 0.215166 0.581911 0.723530
Si Si5 0.893925 0.881287 0.663451
Si Si6 0.608195 0.500000 0.566252
Si Si7 0.100671 0.799936 0.830201
O O1 0.250000 0.250000 0.063540
O O2 0.313927 0.122757 0.092473
O O3 0.399035 0.242924 0.115610
O O4 0.379091 0.198363 0.000000
O O5 0.732340 0.500000 0.871655
O O6 0.801599 0.414154 0.793581
O O7 0.666625 0.365378 0.848125
O O8 0.500000 0.204938 0.290518
O O9 0.664395 0.151206 0.304986
O O10 0.617002 0.292705 0.337388
O O11 0.632040 0.257349 0.228854
O O12 0.188062 0.500000 0.702759
O O13 0.321948 0.590356 0.711251
O O14 0.870128 0.927340 0.604808
O O15 0.000000 0.895504 0.677058
O O16 0.500000 0.500000 0.561873
O O17 0.645298 0.500000 0.500000
O O18 0.000000 0.826662 0.818109
#
# Coordination Sequence:
#
# PCOD9486030 Si02
#       7
#    16  16  16  16  16   8  16
#     4   9  18  33  51  67  89 127 172 210 250 317
#     4  10  20  31  47  73 100 130 166 206 266 326
#     4  10  20  33  50  74 107 142 179 224 269 316
#     4  11  20  31  51  76 106 142 175 220 271 319
#     4  10  19  31  52  83 109 140 176 208 257 316
#     4   9  18  34  54  82 123 155 176 210 254 307
#     4  10  19  32  50  72  99 130 165 216 268 316
#
# _framework density 17.010783
#
# number of rings (size 3 to 8) (size 9 to 14) (size 15 to 20)
#    0.000    2.077    3.846    0.462    0.000    1.231 
#    0.000    1.538    0.000    2.308    0.000    5.385 
#    0.000    0.615    0.000    0.000    0.000    0.000 
#
# Total GULP energy -289646.682291 kJ/mol
# GULP energy per Si atom -5570.128506 kJ/mol
# Density = 1.697207 g / cm^3
# Si number density = 17.010783 Si / 1000 Ang^3
#
#
#
# Elastic Constant Matrix: (Units=GPa)
#
#
# Indices 1 2 3 4 5 6 
#
# 1 39.4096 37.4188 10.0197 0.0000 0.0000 0.0000
# 2 37.4188 151.9942 40.0917 0.0000 0.0000 0.0000
# 3 10.0197 40.0917 87.6791 0.0000 0.0000 0.0000
# 4 0.0000 0.0000 0.0000 17.0712 0.0000 0.0000
# 5 0.0000 0.0000 0.0000 0.0000 12.1968 0.0000
# 6 0.0000 0.0000 0.0000 0.0000 0.0000 19.0165
#
#
#
# Elastic Compliance Matrix: (Units=1/GPa)
#
#
# Indices 1 2 3 4 5 6 
#
# 1 0.033115 -0.008136 -0.000064 0.000000 0.000000 0.000000
# 2 -0.008136 0.009480 -0.003405 0.000000 0.000000 0.000000
# 3 -0.000064 -0.003405 0.012970 0.000000 0.000000 0.000000
# 4 0.000000 0.000000 0.000000 0.058578 0.000000 0.000000
# 5 0.000000 0.000000 0.000000 0.000000 0.081989 0.000000
# 6 0.000000 0.000000 0.000000 0.000000 0.000000 0.052586
#
#
# Mechanical properties :
#
#
# Convention : Reuss Voigt Hill
#
# Bulk Modulus (GPa) = 30.90693 50.46037 40.68365
# Shear Modulus (GPa) = 17.68574 22.42707 20.05641
#
# Velocity S-wave (km/s) = 3.22790 3.63492 3.43744
# Velocity P-wave (km/s) = 5.66577 6.88077 6.30262
#
# Compressibility (1/GPa) = 0.03235520
#
# Stress axis : x y z
#
# Youngs Moduli (GPa) = 30.19736 105.48231 77.10327
#
# Poissons Ratio (x) = 0.85816 0.00496
# Poissons Ratio (y) = 0.24567 0.26255
# Poissons Ratio (z) = 0.00194 0.35919
#
# Static dielectric constant tensor:
#      x y z
#    x 1.589490 0.000000 0.000000 
#    y 0.000000 1.594180 0.000000 
#    z 0.000000 0.000000 1.579770 
# 
# From -- ./inp_files/62874.got.cif
#   From: 2010.05.17/outbox.cif.g08.bks.cpg/sg65_32_cif.got.tgz:62874.got - 2010.06.03 17:01:31.
