data_PCOD9486746
_publ_section_title
;
Structure prediction by ZEFSAII (Michael W. Deem and Ramdas Pophale) SiO2 
 PCOD9486746
Probable space group: C M M M
;
_chemical_formula_sum "Si O2"
_cell_formula_units_Z 104
_cell_length_a 27.537496
_cell_length_b 8.801941
_cell_length_c 21.757499
_cell_angle_alpha 90.000000
_cell_angle_beta 90.000000
_cell_angle_gamma 90.000000
_cell_volume 5273.656911
_symmetry_space_group_name_H-M "C M M M"
_symmetry_group_IT_number 65
_symmetry_cell_setting 'orthorhombic'
loop_
_space_group_symop_operation_xyz
x,y,z
-x,-y,z
x,-y,-z
-x,y,-z
-x,-y,-z
x,y,-z
-x,y,z
x,-y,z
1/2+x,1/2+y,z
1/2-x,1/2-y,z
1/2+x,1/2-y,-z
1/2-x,1/2+y,-z
1/2-x,1/2-y,-z
1/2+x,1/2+y,-z
1/2-x,1/2+y,z
1/2+x,1/2-y,z
loop_
_atom_site_type_symbol
_atom_site_label
_atom_site_fract_x
_atom_site_fract_y
_atom_site_fract_z
Si Si1 0.801687 0.817949 0.928956
Si Si2 0.901048 0.183106 0.127370
Si Si3 0.345460 0.681360 0.569236
Si Si4 0.445128 0.183303 0.613128
Si Si5 0.057386 0.826214 0.000000
Si Si6 0.698694 0.181905 0.309517
Si Si7 0.404240 0.818355 0.254849
O O1 0.750000 0.750000 0.912099
O O2 0.844801 0.774015 0.883573
O O3 0.798567 0.000000 0.928832
O O4 0.812909 0.771940 0.000000
O O5 0.926252 0.240625 0.064875
O O6 0.920344 0.247670 0.190879
O O7 0.905314 0.000000 0.129591
O O8 0.329501 0.717778 0.500000
O O9 0.343254 0.500000 0.578045
O O10 0.401104 0.737037 0.577837
O O11 0.313831 0.762075 0.621589
O O12 0.500000 0.224717 0.594873
O O13 0.436005 0.220084 0.685214
O O14 0.440001 0.000000 0.606545
O O15 0.000000 0.834606 0.000000
O O16 0.077999 0.000000 0.000000
O O17 0.750000 0.250000 0.289131
O O18 0.651335 0.229661 0.270232
O O19 0.701203 0.000000 0.308723
O O20 0.404684 0.000000 0.249338
#
# Coordination Sequence:
#
# PCOD9486746 Si02
#       7
#    16  16  16  16   8  16  16
#     4   9  17  30  47  68  95 125 159 198 245 301
#     4  10  19  33  53  75 101 134 171 215 265 316
#     4  10  21  36  55  83 117 148 181 224 271 318
#     4   9  19  37  58  78 105 144 185 226 275 328
#     4   9  18  34  54  75 101 133 171 215 264 321
#     4  10  21  38  59  81 110 148 188 226 267 316
#     4   9  20  36  53  77 107 138 175 221 270 321
#
# _framework density 19.720661
#
# number of rings (size 3 to 8) (size 9 to 14) (size 15 to 20)
#    0.000    2.538    0.769    1.846    0.000    7.077 
#    0.000    5.000    0.000    0.462    0.000    0.000 
#    0.000    0.000    0.000    0.000    0.000    0.000 
#
# Total GULP energy -290115.115639 kJ/mol
# GULP energy per Si atom -5579.136839 kJ/mol
# Density = 1.967578 g / cm^3
# Si number density = 19.720661 Si / 1000 Ang^3
#
#
#
# Elastic Constant Matrix: (Units=GPa)
#
#
# Indices 1 2 3 4 5 6 
#
# 1 36.9978 3.7675 -16.4318 0.0000 0.0000 0.0000
# 2 3.7675 10.4368 9.1814 0.0000 0.0000 0.0000
# 3 -16.4318 9.1814 74.8827 0.0000 0.0000 0.0000
# 4 0.0000 0.0000 0.0000 49.9518 0.0000 0.0000
# 5 0.0000 0.0000 0.0000 0.0000 3.5480 0.0000
# 6 0.0000 0.0000 0.0000 0.0000 0.0000 21.2663
#
#
#
# Elastic Compliance Matrix: (Units=1/GPa)
#
#
# Indices 1 2 3 4 5 6 
#
# 1 0.033556 -0.020838 0.009918 0.000000 0.000000 0.000000
# 2 -0.020838 0.120339 -0.019327 0.000000 0.000000 0.000000
# 3 0.009918 -0.019327 0.017900 0.000000 0.000000 0.000000
# 4 0.000000 0.000000 0.000000 0.020019 0.000000 0.000000
# 5 0.000000 0.000000 0.000000 0.000000 0.281846 0.000000
# 6 0.000000 0.000000 0.000000 0.000000 0.000000 0.047023
#
#
# Mechanical properties :
#
#
# Convention : Reuss Voigt Hill
#
# Bulk Modulus (GPa) = 8.98469 12.81683 10.90076
# Shear Modulus (GPa) = 8.08698 23.33991 15.71345
#
# Velocity S-wave (km/s) = 2.02723 3.44397 2.82583
# Velocity P-wave (km/s) = 3.16945 4.72524 4.02327
#
# Compressibility (1/GPa) = 0.11130050
#
# Stress axis : x y z
#
# Youngs Moduli (GPa) = 29.80130 8.30984 55.86485
#
# Poissons Ratio (x) = 0.17316 -0.55408
# Poissons Ratio (y) = 0.62100 1.07972
# Poissons Ratio (z) = -0.29557 0.16061
#
# Static dielectric constant tensor:
#      x y z
#    x 1.693210 0.000000 0.000000 
#    y 0.000000 1.670470 0.000000 
#    z 0.000000 0.000000 1.704840 
# 
# From -- ./inp_files/65889.got.cif
#   From: 2010.05.17/outbox.cif.g08.bks.cpg/sg65_33_cif.got.tgz:65889.got - 2010.06.03 17:01:31.
