data_PCOD9486428
_publ_section_title
;
Structure prediction by ZEFSAII (Michael W. Deem and Ramdas Pophale) SiO2 
 PCOD9486428
Probable space group: C M M M
;
_chemical_formula_sum "Si O2"
_cell_formula_units_Z 80
_cell_length_a 26.797575
_cell_length_b 9.341928
_cell_length_c 14.955938
_cell_angle_alpha 90.000000
_cell_angle_beta 90.000000
_cell_angle_gamma 90.000000
_cell_volume 3744.084718
_symmetry_space_group_name_H-M "C M M M"
_symmetry_group_IT_number 65
_symmetry_cell_setting 'orthorhombic'
loop_
_space_group_symop_operation_xyz
x,y,z
-x,-y,z
x,-y,-z
-x,y,-z
-x,-y,-z
x,y,-z
-x,y,z
x,-y,z
1/2+x,1/2+y,z
1/2-x,1/2-y,z
1/2+x,1/2-y,-z
1/2-x,1/2+y,-z
1/2-x,1/2-y,-z
1/2+x,1/2+y,-z
1/2-x,1/2+y,z
1/2+x,1/2-y,z
loop_
_atom_site_type_symbol
_atom_site_label
_atom_site_fract_x
_atom_site_fract_y
_atom_site_fract_z
Si Si1 0.901157 0.835869 0.142479
Si Si2 0.799033 0.336031 0.892482
Si Si3 0.500000 0.166210 0.139132
Si Si4 0.595546 0.336979 0.356614
Si Si5 0.000000 0.336656 0.641821
Si Si6 0.704027 0.339330 0.393193
O O1 0.849923 0.750726 0.125773
O O2 0.907459 0.844418 0.249506
O O3 0.949891 0.749261 0.109798
O O4 0.898956 0.000000 0.108986
O O5 0.801128 0.500000 0.858016
O O6 0.750000 0.250000 0.860413
O O7 0.794757 0.344887 0.000000
O O8 0.500000 0.165469 0.248597
O O9 0.500000 0.000000 0.111170
O O10 0.593610 0.500000 0.391611
O O11 0.549324 0.245153 0.388774
O O12 0.649695 0.273779 0.378090
O O13 0.000000 0.500000 0.613560
O O14 0.710485 0.350500 0.500000
O O15 0.703452 0.500000 0.354892
O O16 0.750000 0.250000 0.356830
#
# Coordination Sequence:
#
# PCOD9486428 Si02
#       6
#    16  16   8  16   8  16
#     4  10  19  32  52  77 103 130 163 204 248 294
#     4  10  21  37  55  74  99 132 167 203 245 293
#     4   9  17  31  50  73 102 133 165 201 244 293
#     4   9  18  32  50  73 100 130 163 200 243 291
#     4   9  17  29  48  73  98 128 163 200 244 289
#     4   9  18  33  51  70  95 129 166 202 243 290
#
# _framework density 21.367038999999998
#
# number of rings (size 3 to 8) (size 9 to 14) (size 15 to 20)
#    0.000    2.600    0.000    1.800    0.000    6.000 
#    0.000    3.000    0.000    6.000    0.000    0.000 
#    0.000    0.000    0.000    0.000    0.000    0.000 
#
# Total GULP energy -223334.751311 kJ/mol
# GULP energy per Si atom -5583.368783 kJ/mol
# Density = 2.131841 g / cm^3
# Si number density = 21.367039 Si / 1000 Ang^3
#
#
#
# Elastic Constant Matrix: (Units=GPa)
#
#
# Indices 1 2 3 4 5 6 
#
# 1 260.5846 140.8173 -2.9485 0.0000 0.0000 0.0000
# 2 140.8173 180.3658 5.4642 0.0000 0.0000 0.0000
# 3 -2.9485 5.4642 46.6288 0.0000 0.0000 0.0000
# 4 0.0000 0.0000 0.0000 4.0967 0.0000 0.0000
# 5 0.0000 0.0000 0.0000 0.0000 27.6473 0.0000
# 6 0.0000 0.0000 0.0000 0.0000 0.0000 37.1402
#
#
#
# Elastic Compliance Matrix: (Units=1/GPa)
#
#
# Indices 1 2 3 4 5 6 
#
# 1 0.006688 -0.005253 0.001038 0.000000 0.000000 0.000000
# 2 -0.005253 0.009690 -0.001468 0.000000 0.000000 0.000000
# 3 0.001038 -0.001468 0.021684 0.000000 0.000000 0.000000
# 4 0.000000 0.000000 0.000000 0.244097 0.000000 0.000000
# 5 0.000000 0.000000 0.000000 0.000000 0.036170 0.000000
# 6 0.000000 0.000000 0.000000 0.000000 0.000000 0.026925
#
#
# Mechanical properties :
#
#
# Convention : Reuss Voigt Hill
#
# Bulk Modulus (GPa) = 37.45717 86.02724 61.74221
# Shear Modulus (GPa) = 13.67928 36.72659 25.20293
#
# Velocity S-wave (km/s) = 2.53297 4.15039 3.43815
# Velocity P-wave (km/s) = 5.11107 7.95718 6.68729
#
# Compressibility (1/GPa) = 0.02669716
#
# Stress axis : x y z
#
# Youngs Moduli (GPa) = 149.52383 103.20060 46.11772
#
# Poissons Ratio (x) = 0.54210 -0.04789
# Poissons Ratio (y) = 0.78544 0.06769
# Poissons Ratio (z) = -0.15528 0.15147
#
# Static dielectric constant tensor:
#      x y z
#    x 1.741260 0.000000 0.000000 
#    y 0.000000 1.761730 0.000000 
#    z 0.000000 0.000000 1.809410 
# 
# From -- ./inp_files/65085.got.cif
#   From: 2010.05.17/outbox.cif.g08.bks.cpg/sg65_33_cif.got.tgz:65085.got - 2010.06.03 17:01:31.
