data_PCOD9486583
_publ_section_title
;
Structure prediction by ZEFSAII (Michael W. Deem and Ramdas Pophale) SiO2 
 PCOD9486583
Probable space group: C M M M
;
_chemical_formula_sum "Si O2"
_cell_formula_units_Z 116
_cell_length_a 14.909450
_cell_length_b 19.960080
_cell_length_c 21.484850
_cell_angle_alpha 90.000000
_cell_angle_beta 90.000000
_cell_angle_gamma 90.000000
_cell_volume 6393.758471
_symmetry_space_group_name_H-M "C M M M"
_symmetry_group_IT_number 65
_symmetry_cell_setting 'orthorhombic'
loop_
_space_group_symop_operation_xyz
x,y,z
-x,-y,z
x,-y,-z
-x,y,-z
-x,-y,-z
x,y,-z
-x,y,z
x,-y,z
1/2+x,1/2+y,z
1/2-x,1/2-y,z
1/2+x,1/2-y,-z
1/2-x,1/2+y,-z
1/2-x,1/2-y,-z
1/2+x,1/2+y,-z
1/2-x,1/2+y,z
1/2+x,1/2-y,z
loop_
_atom_site_type_symbol
_atom_site_label
_atom_site_fract_x
_atom_site_fract_y
_atom_site_fract_z
Si Si1 0.847492 0.394688 0.928387
Si Si2 0.500000 0.000000 0.891623
Si Si3 0.793953 0.921288 0.308714
Si Si4 0.604723 0.418618 0.569214
Si Si5 0.398306 0.922980 0.264742
Si Si6 0.895816 0.152362 0.801659
Si Si7 0.360729 0.423301 0.070783
Si Si8 0.394367 0.800544 0.168830
O O1 0.747589 0.423456 0.925940
O O2 0.846145 0.324008 0.893475
O O3 0.921462 0.441884 0.897041
O O4 0.874341 0.388997 0.000000
O O5 0.838090 0.894742 0.372114
O O6 0.686110 0.917016 0.310100
O O7 0.834047 0.886311 0.247570
O O8 0.816800 0.000000 0.303084
O O9 0.633201 0.396043 0.500000
O O10 0.500000 0.401399 0.577560
O O11 0.609851 0.500000 0.568827
O O12 0.500000 0.916618 0.289808
O O13 0.385355 0.862755 0.216210
O O14 0.394538 0.000000 0.238219
O O15 0.891429 0.120899 0.870910
O O16 0.864795 0.229413 0.804967
O O17 0.000000 0.149336 0.780888
O O18 0.391870 0.500000 0.078270
O O19 0.384751 0.401009 0.000000
O O20 0.500000 0.792710 0.155189
#
# Coordination Sequence:
#
# PCOD9486583 Si02
#       8
#    16   4  16  16  16  16  16  16
#     4  11  21  33  53  78 100 122 157 209 271 329
#     4  12  21  32  56  84  98 118 154 210 277 330
#     4  10  19  32  54  81 108 138 174 216 256 299
#     4   8  14  26  47  78 113 144 174 212 260 304
#     4   9  19  34  53  76 102 134 170 209 255 309
#     4  11  24  39  52  72 100 135 179 218 256 306
#     4  10  22  38  54  73  98 129 171 217 258 306
#     4  10  22  35  50  72 100 132 167 209 263 316
#
# _framework density 18.142693000000001
#
# number of rings (size 3 to 8) (size 9 to 14) (size 15 to 20)
#    0.000    2.069    1.379    2.690    0.966    5.793 
#    0.000    3.448    0.000    0.414    0.000    4.828 
#    0.000    3.310    0.000    0.138    0.000    0.000 
#
# Total GULP energy -322947.530346 kJ/mol
# GULP energy per Si atom -5568.060868 kJ/mol
# Density = 1.810140 g / cm^3
# Si number density = 18.142693 Si / 1000 Ang^3
#
#
#
# Elastic Constant Matrix: (Units=GPa)
#
#
# Indices 1 2 3 4 5 6 
#
# 1 89.0808 26.7801 49.0124 0.0000 0.0000 0.0000
# 2 26.7801 74.8644 41.9553 0.0000 0.0000 0.0000
# 3 49.0124 41.9553 106.0699 0.0000 0.0000 0.0000
# 4 0.0000 0.0000 0.0000 5.2593 0.0000 0.0000
# 5 0.0000 0.0000 0.0000 0.0000 12.2677 0.0000
# 6 0.0000 0.0000 0.0000 0.0000 0.0000 15.0950
#
#
#
# Elastic Compliance Matrix: (Units=1/GPa)
#
#
# Indices 1 2 3 4 5 6 
#
# 1 0.015268 -0.001937 -0.006289 0.000000 0.000000 0.000000
# 2 -0.001937 0.017408 -0.005990 0.000000 0.000000 0.000000
# 3 -0.006289 -0.005990 0.014703 0.000000 0.000000 0.000000
# 4 0.000000 0.000000 0.000000 0.190140 0.000000 0.000000
# 5 0.000000 0.000000 0.000000 0.000000 0.081515 0.000000
# 6 0.000000 0.000000 0.000000 0.000000 0.000000 0.066247
#
#
# Mechanical properties :
#
#
# Convention : Reuss Voigt Hill
#
# Bulk Modulus (GPa) = 52.78134 56.16787 54.47460
# Shear Modulus (GPa) = 11.90393 16.67555 14.28974
#
# Velocity S-wave (km/s) = 2.56428 3.03501 2.80952
# Velocity P-wave (km/s) = 6.15815 6.58087 6.37302
#
# Compressibility (1/GPa) = 0.01894609
#
# Stress axis : x y z
#
# Youngs Moduli (GPa) = 65.49521 57.44635 68.01302
#
# Poissons Ratio (x) = 0.11129 0.42772
# Poissons Ratio (y) = 0.12689 0.40742
# Poissons Ratio (z) = 0.41189 0.34412
#
# Static dielectric constant tensor:
#      x y z
#    x 1.653930 0.000000 0.000000 
#    y 0.000000 1.636920 0.000000 
#    z 0.000000 0.000000 1.624610 
# 
# From -- ./inp_files/70188.got.cif
#   From: 2010.05.17/outbox.cif.g08.bks.cpg/sg65_36_cif.got.tgz:70188.got - 2010.06.03 17:01:31.
