data_PCOD9486099
_publ_section_title
;
Structure prediction by ZEFSAII (Michael W. Deem and Ramdas Pophale) SiO2 
 PCOD9486099
Probable space group: C M M M
;
_chemical_formula_sum "Si O2"
_cell_formula_units_Z 96
_cell_length_a 25.227850
_cell_length_b 27.607208
_cell_length_c 8.192763
_cell_angle_alpha 90.000000
_cell_angle_beta 90.000000
_cell_angle_gamma 90.000000
_cell_volume 5706.017762
_symmetry_space_group_name_H-M "C M M M"
_symmetry_group_IT_number 65
_symmetry_cell_setting 'orthorhombic'
loop_
_space_group_symop_operation_xyz
x,y,z
-x,-y,z
x,-y,-z
-x,y,-z
-x,-y,-z
x,y,-z
-x,y,z
x,-y,z
1/2+x,1/2+y,z
1/2-x,1/2-y,z
1/2+x,1/2-y,-z
1/2-x,1/2+y,-z
1/2-x,1/2-y,-z
1/2+x,1/2+y,-z
1/2-x,1/2+y,z
1/2+x,1/2-y,z
loop_
_atom_site_type_symbol
_atom_site_label
_atom_site_fract_x
_atom_site_fract_y
_atom_site_fract_z
Si Si1 0.759045 0.307995 0.813840
Si Si2 0.144652 0.814288 0.305357
Si Si3 0.061192 0.105883 0.801902
Si Si4 0.935609 0.000000 0.811488
Si Si5 0.371122 0.796267 0.690186
Si Si6 0.563718 0.117081 0.182522
Si Si7 0.564512 0.055670 0.500000
O O1 0.750000 0.250000 0.805744
O O2 0.702598 0.328981 0.760442
O O3 0.811292 0.316825 0.708157
O O4 0.770842 0.321461 0.000000
O O5 0.148710 0.811619 0.500000
O O6 0.100031 0.852158 0.254843
O O7 0.130586 0.759443 0.249208
O O8 0.078868 0.052385 0.740352
O O9 0.000000 0.114197 0.751396
O O10 0.061416 0.104178 0.000000
O O11 0.000000 0.000000 0.814923
O O12 0.917309 0.000000 0.000000
O O13 0.386642 0.796464 0.500000
O O14 0.410043 0.830727 0.789000
O O15 0.500000 0.120998 0.190677
O O16 0.580933 0.083416 0.334501
O O17 0.577335 0.099036 0.000000
O O18 0.500000 0.055538 0.500000
O O19 0.582161 0.000000 0.500000
#
# Coordination Sequence:
#
# PCOD9486099 Si02
#       7
#    16  16  16   8  16  16   8
#     4   9  17  30  48  69  92 121 164 209 242 284
#     4  10  20  31  45  69 100 131 163 200 244 297
#     4   9  17  30  48  69  93 123 162 205 249 295
#     4   7  12  26  47  67  87 117 159 205 248 289
#     4  10  19  32  49  69 100 137 167 200 246 299
#     4  10  20  33  51  77 106 136 171 205 246 303
#     4   9  18  34  54  76 103 132 166 209 251 290
#
# _framework density 16.824342999999999
#
# number of rings (size 3 to 8) (size 9 to 14) (size 15 to 20)
#    0.000    2.667    0.833    2.500    0.000    5.333 
#    0.000    5.417    0.000    1.500    2.167    0.000 
#    0.000    0.000    0.000    0.000    0.000    0.000 
#
# Total GULP energy -267310.220427 kJ/mol
# GULP energy per Si atom -5568.962926 kJ/mol
# Density = 1.678605 g / cm^3
# Si number density = 16.824343 Si / 1000 Ang^3
#
#
#
# Elastic Constant Matrix: (Units=GPa)
#
#
# Indices 1 2 3 4 5 6 
#
# 1 46.4919 37.6548 13.0646 0.0000 0.0000 0.0000
# 2 37.6548 92.1211 26.0807 0.0000 0.0000 0.0000
# 3 13.0646 26.0807 66.3393 0.0000 0.0000 0.0000
# 4 0.0000 0.0000 0.0000 11.8615 0.0000 0.0000
# 5 0.0000 0.0000 0.0000 0.0000 24.2943 0.0000
# 6 0.0000 0.0000 0.0000 0.0000 0.0000 -1.6108
#
#
#
# Elastic Compliance Matrix: (Units=1/GPa)
#
#
# Indices 1 2 3 4 5 6 
#
# 1 0.032256 -0.012812 -0.001315 0.000000 0.000000 0.000000
# 2 -0.012812 0.017304 -0.004280 0.000000 0.000000 0.000000
# 3 -0.001315 -0.004280 0.017016 0.000000 0.000000 0.000000
# 4 0.000000 0.000000 0.000000 0.084306 0.000000 0.000000
# 5 0.000000 0.000000 0.000000 0.000000 0.041162 0.000000
# 6 0.000000 0.000000 0.000000 0.000000 0.000000 -0.620796
#
#
# Mechanical properties :
#
#
# Convention : Reuss Voigt Hill
#
# Bulk Modulus (GPa) = 33.60129 39.83915 36.72022
# Shear Modulus (GPa) = -13.08838 15.45247 1.18205
#
# Velocity S-wave (km/s) = -2.79219 3.03390 0.83911
# Velocity P-wave (km/s) = 3.10163 6.00030 4.77617
#
# Compressibility (1/GPa) = 0.02976076
#
# Stress axis : x y z
#
# Youngs Moduli (GPa) = 31.00233 57.79025 58.76966
#
# Poissons Ratio (x) = 0.74042 0.07730
# Poissons Ratio (y) = 0.39721 0.25152
# Poissons Ratio (z) = 0.04078 0.24733
#
# Static dielectric constant tensor:
#      x y z
#    x 1.548100 0.000000 0.000000 
#    y 0.000000 1.573910 0.000000 
#    z 0.000000 0.000000 1.599980 
# 
# From -- ./inp_files/14356.got.cif
#   From: 2010.05.17/outbox.cif.g08.bks.cpg/sg65_8_cif.got.tgz:14356.got - 2010.06.03 17:01:31.
