data_PCOD9486747
_publ_section_title
;
Structure prediction by ZEFSAII (Michael W. Deem and Ramdas Pophale) SiO2 
 PCOD9486747
Probable space group: C M M M
;
_chemical_formula_sum "Si O2"
_cell_formula_units_Z 88
_cell_length_a 8.019052
_cell_length_b 18.768796
_cell_length_c 30.950936
_cell_angle_alpha 90.000000
_cell_angle_beta 90.000000
_cell_angle_gamma 90.000000
_cell_volume 4658.361962
_symmetry_space_group_name_H-M "C M M M"
_symmetry_group_IT_number 65
_symmetry_cell_setting 'orthorhombic'
loop_
_space_group_symop_operation_xyz
x,y,z
-x,-y,z
x,-y,-z
-x,y,-z
-x,-y,-z
x,y,-z
-x,y,z
x,-y,z
1/2+x,1/2+y,z
1/2-x,1/2-y,z
1/2+x,1/2-y,-z
1/2-x,1/2+y,-z
1/2-x,1/2-y,-z
1/2+x,1/2+y,-z
1/2-x,1/2+y,z
1/2+x,1/2-y,z
loop_
_atom_site_type_symbol
_atom_site_label
_atom_site_fract_x
_atom_site_fract_y
_atom_site_fract_z
Si Si1 0.199672 0.832150 0.716262
Si Si2 0.000000 0.587083 0.049861
Si Si3 0.704105 0.581869 0.631687
Si Si4 0.302666 0.082069 0.800429
Si Si5 0.201252 0.831905 0.451665
Si Si6 0.684224 0.586765 0.105934
O O1 0.250000 0.750000 0.714444
O O2 0.259053 0.873430 0.673374
O O3 0.266905 0.869995 0.759147
O O4 0.000000 0.837007 0.717408
O O5 0.834837 0.610632 0.075475
O O6 0.000000 0.500000 0.050392
O O7 0.000000 0.609179 0.000000
O O8 0.500000 0.582731 0.631433
O O9 0.756819 0.500000 0.634645
O O10 0.760990 0.618630 0.587268
O O11 0.500000 0.081289 0.809396
O O12 0.214585 0.107531 0.844270
O O13 0.250214 0.000000 0.791599
O O14 0.260852 0.851411 0.500000
O O15 0.250000 0.750000 0.443658
O O16 0.000000 0.835777 0.452158
O O17 0.500000 0.609035 0.091552
O O18 0.688836 0.500000 0.105911
#
# Coordination Sequence:
#
# PCOD9486747 Si02
#       6
#    16   8  16  16  16  16
#     4  11  22  35  51  72 100 134 169 213 264 320
#     4   9  16  26  40  64 102 142 180 224 270 320
#     4   9  18  32  50  73 100 129 167 214 261 314
#     4  10  19  33  53  75 101 134 173 218 266 321
#     4   9  17  30  50  74  99 130 167 209 259 314
#     4   9  16  27  44  67  97 137 180 220 269 323
#
# _framework density 18.89076
#
# number of rings (size 3 to 8) (size 9 to 14) (size 15 to 20)
#    0.000    2.455    0.909    2.182    0.000    2.545 
#    0.000    4.545    0.000    2.727    0.000    2.545 
#    0.000    0.727    0.364    0.000    0.000    0.000 
#
# Total GULP energy -245541.393469 kJ/mol
# GULP energy per Si atom -5580.486215 kJ/mol
# Density = 1.884776 g / cm^3
# Si number density = 18.890760 Si / 1000 Ang^3
#
#
#
# Elastic Constant Matrix: (Units=GPa)
#
#
# Indices 1 2 3 4 5 6 
#
# 1 73.9529 17.4206 50.1805 0.0000 0.0000 0.0000
# 2 17.4206 76.7104 70.6917 0.0000 0.0000 0.0000
# 3 50.1805 70.6917 166.3547 0.0000 0.0000 0.0000
# 4 0.0000 0.0000 0.0000 -10.9333 0.0000 0.0000
# 5 0.0000 0.0000 0.0000 0.0000 17.3350 0.0000
# 6 0.0000 0.0000 0.0000 0.0000 0.0000 14.4724
#
#
#
# Elastic Compliance Matrix: (Units=1/GPa)
#
#
# Indices 1 2 3 4 5 6 
#
# 1 0.017097 0.001430 -0.005765 0.000000 0.000000 0.000000
# 2 0.001430 0.021547 -0.009587 0.000000 0.000000 0.000000
# 3 -0.005765 -0.009587 0.011824 0.000000 0.000000 0.000000
# 4 0.000000 0.000000 0.000000 -0.091464 0.000000 0.000000
# 5 0.000000 0.000000 0.000000 0.000000 0.057687 0.000000
# 6 0.000000 0.000000 0.000000 0.000000 0.000000 0.069097
#
#
# Mechanical properties :
#
#
# Convention : Reuss Voigt Hill
#
# Bulk Modulus (GPa) = 44.20259 65.95596 55.07928
# Shear Modulus (GPa) = 41.26310 16.08984 28.67647
#
# Velocity S-wave (km/s) = 4.67872 2.92161 3.90040
# Velocity P-wave (km/s) = 7.25514 6.80964 7.03592
#
# Compressibility (1/GPa) = 0.02262311
#
# Stress axis : x y z
#
# Youngs Moduli (GPa) = 58.48955 46.41117 84.57100
#
# Poissons Ratio (x) = -0.06637 0.48755
# Poissons Ratio (y) = -0.08364 0.81082
# Poissons Ratio (z) = 0.33719 0.44496
#
# Static dielectric constant tensor:
#      x y z
#    x 1.682280 0.000000 0.000000 
#    y 0.000000 1.613970 0.000000 
#    z 0.000000 0.000000 1.641570 
# 
# From -- ./inp_files/76687.got.cif
#   From: 2010.05.17/outbox.cif.g08.bks.cpg/sg65_39_cif.got.tgz:76687.got - 2010.06.03 17:01:31.
