data_PCOD9486842
_publ_section_title
;
Structure prediction by ZEFSAII (Michael W. Deem and Ramdas Pophale) SiO2 
 PCOD9486842
Probable space group: C M M M
;
_chemical_formula_sum "Si O2"
_cell_formula_units_Z 104
_cell_length_a 27.005030
_cell_length_b 20.406361
_cell_length_c 8.257065
_cell_angle_alpha 90.000000
_cell_angle_beta 90.000000
_cell_angle_gamma 90.000000
_cell_volume 4550.257066
_symmetry_space_group_name_H-M "C M M M"
_symmetry_group_IT_number 65
_symmetry_cell_setting 'orthorhombic'
loop_
_space_group_symop_operation_xyz
x,y,z
-x,-y,z
x,-y,-z
-x,y,-z
-x,-y,-z
x,y,-z
-x,y,z
x,-y,z
1/2+x,1/2+y,z
1/2-x,1/2-y,z
1/2+x,1/2-y,-z
1/2-x,1/2+y,-z
1/2-x,1/2-y,-z
1/2+x,1/2+y,-z
1/2-x,1/2+y,z
1/2+x,1/2-y,z
loop_
_atom_site_type_symbol
_atom_site_label
_atom_site_fract_x
_atom_site_fract_y
_atom_site_fract_z
Si Si1 0.058394 0.576053 0.000000
Si Si2 0.417865 0.429526 0.307021
Si Si3 0.840108 0.746263 0.806523
Si Si4 0.553884 0.284817 0.695225
Si Si5 0.688355 0.608706 0.195960
Si Si6 0.599058 0.925375 0.673745
Si Si7 0.201201 0.394571 0.195895
O O1 0.077215 0.606928 0.165707
O O2 0.077292 0.500000 0.000000
O O3 0.000000 0.574383 0.000000
O O4 0.426542 0.429575 0.500000
O O5 0.436006 0.500000 0.242806
O O6 0.439702 0.360630 0.245315
O O7 0.359037 0.425270 0.273445
O O8 0.896364 0.747455 0.744358
O O9 0.815643 0.814735 0.755335
O O10 0.808736 0.682135 0.765500
O O11 0.842347 0.747699 0.000000
O O12 0.553461 0.286343 0.500000
O O13 0.500000 0.259769 0.750505
O O14 0.743265 0.584996 0.237861
O O15 0.683818 0.604141 0.000000
O O16 0.588400 0.894086 0.500000
O O17 0.657435 0.928630 0.707038
O O18 0.579165 0.000000 0.667576
O O19 0.194632 0.403748 0.000000
#
# Coordination Sequence:
#
# PCOD9486842 Si02
#       7
#     8  16  16  16  16  16  16
#     4   9  18  36  60  80 103 136 172 214 261 312
#     4   9  18  32  49  72 104 138 175 220 264 314
#     4   9  18  33  53  76 101 132 176 225 269 319
#     4   9  18  33  52  73 100 136 175 218 270 321
#     4   9  18  32  51  75 102 136 177 220 268 318
#     4  10  21  36  55  82 113 142 176 220 269 323
#     4  10  19  33  54  76 104 143 180 219 269 325
#
# _framework density 22.855851999999999
#
# number of rings (size 3 to 8) (size 9 to 14) (size 15 to 20)
#    0.000    2.692    0.769    0.462    0.000    4.923 
#    0.000    6.923    0.000    4.615    0.000    4.308 
#    0.000    0.000    0.000    0.000    0.000    0.000 
#
# Total GULP energy -290225.447776 kJ/mol
# GULP energy per Si atom -5581.258611 kJ/mol
# Density = 2.280383 g / cm^3
# Si number density = 22.855852 Si / 1000 Ang^3
#
#
#
# Elastic Constant Matrix: (Units=GPa)
#
#
# Indices 1 2 3 4 5 6 
#
# 1 93.8482 -9.5915 14.7844 0.0000 0.0000 0.0000
# 2 -9.5915 62.7843 10.5589 0.0000 0.0000 0.0000
# 3 14.7844 10.5589 60.3813 0.0000 0.0000 0.0000
# 4 0.0000 0.0000 0.0000 36.8259 0.0000 0.0000
# 5 0.0000 0.0000 0.0000 0.0000 -90.9525 0.0000
# 6 0.0000 0.0000 0.0000 0.0000 0.0000 11.9969
#
#
#
# Elastic Compliance Matrix: (Units=1/GPa)
#
#
# Indices 1 2 3 4 5 6 
#
# 1 0.011390 0.002276 -0.003187 0.000000 0.000000 0.000000
# 2 0.002276 0.016865 -0.003506 0.000000 0.000000 0.000000
# 3 -0.003187 -0.003506 0.017955 0.000000 0.000000 0.000000
# 4 0.000000 0.000000 0.000000 0.027155 0.000000 0.000000
# 5 0.000000 0.000000 0.000000 0.000000 -0.010995 0.000000
# 6 0.000000 0.000000 0.000000 0.000000 0.000000 0.083355
#
#
# Mechanical properties :
#
#
# Convention : Reuss Voigt Hill
#
# Bulk Modulus (GPa) = 26.75557 27.61302 27.18429
# Shear Modulus (GPa) = 29.93691 4.99153 17.46422
#
# Velocity S-wave (km/s) = 3.62306 1.47941 2.76724
# Velocity P-wave (km/s) = 5.40682 3.87631 4.70423
#
# Compressibility (1/GPa) = 0.03737540
#
# Stress axis : x y z
#
# Youngs Moduli (GPa) = 87.79498 59.29449 55.69505
#
# Poissons Ratio (x) = -0.13496 0.17749
# Poissons Ratio (y) = -0.19982 0.19529
# Poissons Ratio (z) = 0.27979 0.20791
#
# Static dielectric constant tensor:
#      x y z
#    x 1.818510 0.000000 0.000000 
#    y 0.000000 1.932580 0.000000 
#    z 0.000000 0.000000 1.855250 
# 
# From -- ./inp_files/16737.got.cif
#   From: 2010.05.17/outbox.cif.g08.bks.cpg/sg65_9_cif.got.tgz:16737.got - 2010.06.03 17:01:31.
