data_PCOD9486208
_publ_section_title
;
Structure prediction by ZEFSAII (Michael W. Deem and Ramdas Pophale) SiO2 
 PCOD9486208
Probable space group: C M M M
;
_chemical_formula_sum "Si O2"
_cell_formula_units_Z 96
_cell_length_a 32.906671
_cell_length_b 17.618210
_cell_length_c 7.343271
_cell_angle_alpha 90.000000
_cell_angle_beta 90.000000
_cell_angle_gamma 90.000000
_cell_volume 4257.310122
_symmetry_space_group_name_H-M "C M M M"
_symmetry_group_IT_number 65
_symmetry_cell_setting 'orthorhombic'
loop_
_space_group_symop_operation_xyz
x,y,z
-x,-y,z
x,-y,-z
-x,y,-z
-x,-y,-z
x,y,-z
-x,y,z
x,-y,z
1/2+x,1/2+y,z
1/2-x,1/2-y,z
1/2+x,1/2-y,-z
1/2-x,1/2+y,-z
1/2-x,1/2-y,-z
1/2+x,1/2+y,-z
1/2-x,1/2+y,z
1/2+x,1/2-y,z
loop_
_atom_site_type_symbol
_atom_site_label
_atom_site_fract_x
_atom_site_fract_y
_atom_site_fract_z
Si Si1 0.927474 0.804082 0.782231
Si Si2 0.608783 0.000000 0.249754
Si Si3 0.823157 0.374763 0.277705
Si Si4 0.047155 0.635851 0.221849
Si Si5 0.768802 0.914743 0.722172
Si Si6 0.835505 0.796306 0.715333
Si Si7 0.500000 0.587391 0.777280
O O1 0.937015 0.718536 0.717001
O O2 0.881209 0.825080 0.740847
O O3 0.960474 0.865006 0.718111
O O4 0.931793 0.800689 0.000000
O O5 0.643458 0.065837 0.214899
O O6 0.574920 0.066937 0.284467
O O7 0.825256 0.379039 0.500000
O O8 0.777329 0.395897 0.224958
O O9 0.832572 0.289606 0.214848
O O10 0.000000 0.627959 0.272380
O O11 0.049135 0.632940 0.000000
O O12 0.769251 0.913642 0.500000
O O13 0.801198 0.852882 0.786876
O O14 0.779391 0.000000 0.778814
O O15 0.827860 0.789888 0.500000
O O16 0.500000 0.500000 0.718409
O O17 0.500000 0.586532 0.000000
#
# Coordination Sequence:
#
# PCOD9486208 Si02
#       7
#    16   8  16  16  16  16   8
#     4  10  19  35  57  79 107 139 174 219 269 315
#     4  12  19  29  52  79 104 136 172 227 268 312
#     4  10  19  32  50  75 107 140 177 219 263 317
#     4  10  20  35  54  77 104 139 183 226 263 315
#     4   9  17  31  52  77 102 134 179 225 263 311
#     4  10  20  34  54  80 107 138 178 222 270 320
#     4   9  18  34  59  84 102 133 182 221 255 313
#
# _framework density 22.549448000000002
#
# number of rings (size 3 to 8) (size 9 to 14) (size 15 to 20)
#    0.000    2.083    3.333    1.250    0.000    3.333 
#    0.000    0.417    0.000   10.500    0.000    0.000 
#    0.000    0.000    0.000    0.000    0.000    0.000 
#
# Total GULP energy -267392.695374 kJ/mol
# GULP energy per Si atom -5570.681154 kJ/mol
# Density = 2.249812 g / cm^3
# Si number density = 22.549448 Si / 1000 Ang^3
#
#
#
# Elastic Constant Matrix: (Units=GPa)
#
#
# Indices 1 2 3 4 5 6 
#
# 1 178.0629 77.3614 -5.1826 0.0000 0.0000 0.0000
# 2 77.3614 157.7741 4.3744 0.0000 0.0000 0.0000
# 3 -5.1826 4.3744 83.0353 0.0000 0.0000 0.0000
# 4 0.0000 0.0000 0.0000 7.3746 0.0000 0.0000
# 5 0.0000 0.0000 0.0000 0.0000 -10.9437 0.0000
# 6 0.0000 0.0000 0.0000 0.0000 0.0000 42.5284
#
#
#
# Elastic Compliance Matrix: (Units=1/GPa)
#
#
# Indices 1 2 3 4 5 6 
#
# 1 0.007169 -0.003533 0.000634 0.000000 0.000000 0.000000
# 2 -0.003533 0.008088 -0.000647 0.000000 0.000000 0.000000
# 3 0.000634 -0.000647 0.012117 0.000000 0.000000 0.000000
# 4 0.000000 0.000000 0.000000 0.135601 0.000000 0.000000
# 5 0.000000 0.000000 0.000000 0.000000 -0.091377 0.000000
# 6 0.000000 0.000000 0.000000 0.000000 0.000000 0.023514
#
#
# Mechanical properties :
#
#
# Convention : Reuss Voigt Hill
#
# Bulk Modulus (GPa) = 49.30346 63.55319 56.42832
# Shear Modulus (GPa) = 45.88642 30.61314 38.24978
#
# Velocity S-wave (km/s) = 4.51591 3.68856 4.12304
# Velocity P-wave (km/s) = 7.00737 6.81071 6.90974
#
# Compressibility (1/GPa) = 0.02028255
#
# Stress axis : x y z
#
# Youngs Moduli (GPa) = 139.48275 123.63394 82.53087
#
# Poissons Ratio (x) = 0.43679 -0.05229
# Poissons Ratio (y) = 0.49278 0.05336
# Poissons Ratio (z) = -0.08837 0.07994
#
# Static dielectric constant tensor:
#      x y z
#    x 1.770230 0.000000 0.000000 
#    y 0.000000 1.803710 0.000000 
#    z 0.000000 0.000000 1.913580 
# 
# From -- ./inp_files/32446.got.cif
#   From: 2010.05.17/outbox.cif.g08.bks.cpg/sg65_17_cif.got.tgz:32446.got - 2010.06.03 17:01:31.
