data_PCOD9486287
_publ_section_title
;
Structure prediction by ZEFSAII (Michael W. Deem and Ramdas Pophale) SiO2 
 PCOD9486287
Probable space group: C M M M
;
_chemical_formula_sum "Si O2"
_cell_formula_units_Z 88
_cell_length_a 15.364130
_cell_length_b 7.333928
_cell_length_c 34.237124
_cell_angle_alpha 90.000000
_cell_angle_beta 90.000000
_cell_angle_gamma 90.000000
_cell_volume 3857.819384
_symmetry_space_group_name_H-M "C M M M"
_symmetry_group_IT_number 65
_symmetry_cell_setting 'orthorhombic'
loop_
_space_group_symop_operation_xyz
x,y,z
-x,-y,z
x,-y,-z
-x,y,-z
-x,-y,-z
x,y,-z
-x,y,z
x,-y,z
1/2+x,1/2+y,z
1/2-x,1/2-y,z
1/2+x,1/2-y,-z
1/2-x,1/2+y,-z
1/2-x,1/2-y,-z
1/2+x,1/2+y,-z
1/2-x,1/2+y,z
1/2+x,1/2-y,z
loop_
_atom_site_type_symbol
_atom_site_label
_atom_site_fract_x
_atom_site_fract_y
_atom_site_fract_z
Si Si1 0.354763 0.718156 0.000000
Si Si2 0.896621 0.779709 0.542256
Si Si3 0.153652 0.216492 0.373370
Si Si4 0.000000 0.223327 0.317831
Si Si5 0.853076 0.217874 0.830600
Si Si6 0.354319 0.282471 0.083982
Si Si7 0.500000 0.276982 0.228371
O O1 0.250000 0.750000 0.000000
O O2 0.387524 0.787710 0.957961
O O3 0.368554 0.500000 0.000000
O O4 0.863901 0.712896 0.500000
O O5 0.855500 0.710510 0.582371
O O6 0.000000 0.741576 0.544353
O O7 0.887779 0.000000 0.541655
O O8 0.250000 0.250000 0.358808
O O9 0.082855 0.284252 0.342936
O O10 0.138796 0.000000 0.376552
O O11 0.000000 0.283421 0.273128
O O12 0.000000 0.000000 0.316973
O O13 0.750000 0.250000 0.824966
O O14 0.882143 0.287727 0.873543
O O15 0.914989 0.282388 0.795935
O O16 0.863460 0.000000 0.832217
O O17 0.369881 0.500000 0.083786
O O18 0.250000 0.250000 0.083775
O O19 0.500000 0.500000 0.229108
#
# Coordination Sequence:
#
# PCOD9486287 Si02
#       7
#     8  16  16   8  16  16   8
#     4   8  12  18  30  51  79 109 140 172 210 255
#     4   8  13  24  45  70  94 124 162 196 223 262
#     4  10  19  32  51  74  97 125 159 195 233 275
#     4   9  18  34  52  69  93 124 159 191 227 282
#     4   9  17  30  48  69  92 118 151 189 229 272
#     4   8  13  21  35  56  82 111 142 177 215 259
#     4   9  18  32  51  71  91 121 155 189 231 282
#
# _framework density 22.810815000000002
#
# number of rings (size 3 to 8) (size 9 to 14) (size 15 to 20)
#    0.000    3.273    0.909    0.545    0.000    1.091 
#    0.000    0.909    0.000    1.636    0.000    5.091 
#    0.000    0.000    0.000   55.000    0.000   18.364 
#
# Total GULP energy -245427.476895 kJ/mol
# GULP energy per Si atom -5577.897202 kJ/mol
# Density = 2.275890 g / cm^3
# Si number density = 22.810815 Si / 1000 Ang^3
#
#
#
# Elastic Constant Matrix: (Units=GPa)
#
#
# Indices 1 2 3 4 5 6 
#
# 1 115.3767 -4.9144 107.8921 0.0000 0.0000 0.0000
# 2 -4.9144 92.5362 13.3758 0.0000 0.0000 0.0000
# 3 107.8921 13.3758 267.4733 0.0000 0.0000 0.0000
# 4 0.0000 0.0000 0.0000 -11.8643 0.0000 0.0000
# 5 0.0000 0.0000 0.0000 0.0000 -0.2883 0.0000
# 6 0.0000 0.0000 0.0000 0.0000 0.0000 0.3828
#
#
#
# Elastic Compliance Matrix: (Units=1/GPa)
#
#
# Indices 1 2 3 4 5 6 
#
# 1 0.014145 0.001587 -0.005785 0.000000 0.000000 0.000000
# 2 0.001587 0.011063 -0.001194 0.000000 0.000000 0.000000
# 3 -0.005785 -0.001194 0.006132 0.000000 0.000000 0.000000
# 4 0.000000 0.000000 0.000000 -0.084287 0.000000 0.000000
# 5 0.000000 0.000000 0.000000 0.000000 -3.468167 0.000000
# 6 0.000000 0.000000 0.000000 0.000000 0.000000 2.612171
#
#
# Mechanical properties :
#
#
# Convention : Reuss Voigt Hill
#
# Bulk Modulus (GPa) = 48.64390 78.67705 63.66048
# Shear Modulus (GPa) = -5.60973 21.58156 7.98591
#
# Velocity S-wave (km/s) = -1.56990 3.07923 1.87311
# Velocity P-wave (km/s) = 4.25266 6.87082 5.71372
#
# Compressibility (1/GPa) = 0.02055756
#
# Stress axis : x y z
#
# Youngs Moduli (GPa) = 70.69866 90.38808 163.08212
#
# Poissons Ratio (x) = -0.14348 0.94342
# Poissons Ratio (y) = -0.11223 0.19465
# Poissons Ratio (z) = 0.40899 0.10788
#
# Static dielectric constant tensor:
#      x y z
#    x 1.592060 0.000000 0.000000 
#    y 0.000000 1.836840 0.000000 
#    z 0.000000 0.000000 1.866470 
# 
# From -- ./inp_files/77601.got.cif
#   From: 2010.05.17/outbox.cif.g08.bks.cpg/sg65_39_cif.got.tgz:77601.got - 2010.06.03 17:01:31.
