data_PCOD9486123
_publ_section_title
;
Structure prediction by ZEFSAII (Michael W. Deem and Ramdas Pophale) SiO2 
 PCOD9486123
Probable space group: C M M M
;
_chemical_formula_sum "Si O2"
_cell_formula_units_Z 88
_cell_length_a 28.755440
_cell_length_b 18.910126
_cell_length_c 9.028731
_cell_angle_alpha 90.000000
_cell_angle_beta 90.000000
_cell_angle_gamma 90.000000
_cell_volume 4909.543969
_symmetry_space_group_name_H-M "C M M M"
_symmetry_group_IT_number 65
_symmetry_cell_setting 'orthorhombic'
loop_
_space_group_symop_operation_xyz
x,y,z
-x,-y,z
x,-y,-z
-x,y,-z
-x,-y,-z
x,y,-z
-x,y,z
x,-y,z
1/2+x,1/2+y,z
1/2-x,1/2-y,z
1/2+x,1/2-y,-z
1/2-x,1/2+y,-z
1/2-x,1/2-y,-z
1/2+x,1/2+y,-z
1/2-x,1/2+y,z
1/2+x,1/2-y,z
loop_
_atom_site_type_symbol
_atom_site_label
_atom_site_fract_x
_atom_site_fract_y
_atom_site_fract_z
Si Si1 0.055975 0.645812 0.827901
Si Si2 0.943272 0.500000 0.671591
Si Si3 0.611145 0.729250 0.323525
Si Si4 0.757619 0.081687 0.174505
Si Si5 0.299254 0.209982 0.827391
Si Si6 0.357694 0.580097 0.678507
O O1 0.071873 0.572812 0.750066
O O2 0.076273 0.715974 0.752756
O O3 0.000000 0.647606 0.818820
O O4 0.069469 0.643820 0.000000
O O5 0.929547 0.500000 0.500000
O O6 0.000000 0.500000 0.677633
O O7 0.605374 0.732740 0.500000
O O8 0.662056 0.756207 0.274921
O O9 0.610014 0.646336 0.277019
O O10 0.715008 0.131084 0.218956
O O11 0.805839 0.094002 0.259744
O O12 0.745677 0.000000 0.191645
O O13 0.766487 0.096431 0.000000
O O14 0.250000 0.250000 0.819188
O O15 0.314600 0.211795 0.000000
O O16 0.355649 0.580321 0.500000
O O17 0.371097 0.500000 0.725987
#
# Coordination Sequence:
#
# PCOD9486123 Si02
#       6
#    16   8  16  16  16  16
#     4  10  21  38  60  83 108 140 177 216 260 313
#     4   9  17  33  59  87 113 139 171 213 259 309
#     4  11  22  34  53  79 106 138 176 221 271 321
#     4   9  17  30  48  68  93 132 178 217 256 304
#     4  10  19  32  49  71 103 139 174 217 264 315
#     4   9  18  32  50  73 101 134 174 219 266 318
#
# _framework density 17.924271000000001
#
# number of rings (size 3 to 8) (size 9 to 14) (size 15 to 20)
#    0.000    2.273    1.818    1.364    0.000    4.000 
#    1.636    0.000    0.000    0.545    0.000    3.818 
#    0.000    0.000    0.000    0.000    0.000    0.000 
#
# Total GULP energy -245296.420299 kJ/mol
# GULP energy per Si atom -5574.918643 kJ/mol
# Density = 1.788347 g / cm^3
# Si number density = 17.924271 Si / 1000 Ang^3
#
#
#
# Elastic Constant Matrix: (Units=GPa)
#
#
# Indices 1 2 3 4 5 6 
#
# 1 21.3650 29.3336 19.7289 0.0000 0.0000 0.0000
# 2 29.3336 158.5104 60.3028 0.0000 0.0000 0.0000
# 3 19.7289 60.3028 65.9058 0.0000 0.0000 0.0000
# 4 0.0000 0.0000 0.0000 24.7511 0.0000 0.0000
# 5 0.0000 0.0000 0.0000 0.0000 21.5337 0.0000
# 6 0.0000 0.0000 0.0000 0.0000 0.0000 32.2559
#
#
#
# Elastic Compliance Matrix: (Units=1/GPa)
#
#
# Indices 1 2 3 4 5 6 
#
# 1 0.070287 -0.007674 -0.014019 0.000000 0.000000 0.000000
# 2 -0.007674 0.010515 -0.007324 0.000000 0.000000 0.000000
# 3 -0.014019 -0.007324 0.026071 0.000000 0.000000 0.000000
# 4 0.000000 0.000000 0.000000 0.040402 0.000000 0.000000
# 5 0.000000 0.000000 0.000000 0.000000 0.046439 0.000000
# 6 0.000000 0.000000 0.000000 0.000000 0.000000 0.031002
#
#
# Mechanical properties :
#
#
# Convention : Reuss Voigt Hill
#
# Bulk Modulus (GPa) = 20.47523 51.61242 36.04382
# Shear Modulus (GPa) = 16.72073 24.80253 20.76163
#
# Velocity S-wave (km/s) = 3.05758 3.72390 3.40707
# Velocity P-wave (km/s) = 4.89010 6.88093 5.96909
#
# Compressibility (1/GPa) = 0.04883951
#
# Stress axis : x y z
#
# Youngs Moduli (GPa) = 14.22741 95.10077 38.35654
#
# Poissons Ratio (x) = 0.72979 0.53772
# Poissons Ratio (y) = 0.10918 0.28093
# Poissons Ratio (z) = 0.19945 0.69652
#
# Static dielectric constant tensor:
#      x y z
#    x 1.587360 0.000000 0.000000 
#    y 0.000000 1.680260 0.000000 
#    z 0.000000 0.000000 1.604530 
# 
# From -- ./inp_files/18347.got.cif
#   From: 2010.05.17/outbox.cif.g08.bks.cpg/sg65_10_cif.got.tgz:18347.got - 2010.06.03 17:01:31.
