data_PCOD9486866
_publ_section_title
;
Structure prediction by ZEFSAII (Michael W. Deem and Ramdas Pophale) SiO2 
 PCOD9486866
Probable space group: C M M M
;
_chemical_formula_sum "Si O2"
_cell_formula_units_Z 72
_cell_length_a 15.725023
_cell_length_b 8.535849
_cell_length_c 29.066401
_cell_angle_alpha 90.000000
_cell_angle_beta 90.000000
_cell_angle_gamma 90.000000
_cell_volume 3901.479002
_symmetry_space_group_name_H-M "C M M M"
_symmetry_group_IT_number 65
_symmetry_cell_setting 'orthorhombic'
loop_
_space_group_symop_operation_xyz
x,y,z
-x,-y,z
x,-y,-z
-x,y,-z
-x,-y,-z
x,y,-z
-x,y,z
x,-y,z
1/2+x,1/2+y,z
1/2-x,1/2-y,z
1/2+x,1/2-y,-z
1/2-x,1/2+y,-z
1/2-x,1/2-y,-z
1/2+x,1/2+y,-z
1/2-x,1/2+y,z
1/2+x,1/2-y,z
loop_
_atom_site_type_symbol
_atom_site_label
_atom_site_fract_x
_atom_site_fract_y
_atom_site_fract_z
Si Si1 0.156474 0.688296 0.781246
Si Si2 0.000000 0.191106 0.947313
Si Si3 0.000000 0.690930 0.282153
Si Si4 0.843517 0.811706 0.116248
Si Si5 0.500000 0.812097 0.387814
Si Si6 0.343251 0.687747 0.446653
O O1 0.158572 0.500000 0.782635
O O2 0.250000 0.750000 0.768624
O O3 0.136986 0.749813 0.832520
O O4 0.083901 0.739972 0.745765
O O5 0.916116 0.239379 0.919291
O O6 0.000000 0.000000 0.947853
O O7 0.000000 0.244921 0.000000
O O8 0.000000 0.500000 0.282331
O O9 0.000000 0.743191 0.334894
O O10 0.750000 0.750000 0.103600
O O11 0.841384 0.000000 0.117757
O O12 0.416858 0.752923 0.414436
O O13 0.500000 0.000000 0.387962
O O14 0.358771 0.735003 0.500000
O O15 0.343360 0.500000 0.444768
O O16 0.250000 0.750000 0.433652
#
# Coordination Sequence:
#
# PCOD9486866 Si02
#       6
#    16   8   8  16   8  16
#     4  10  19  35  56  77 103 135 173 215 260 306
#     4   9  19  34  51  73 104 139 170 205 253 307
#     4   9  21  37  53  76 108 143 174 212 261 313
#     4  10  19  33  54  78 102 131 171 214 256 303
#     4  11  22  37  56  81 114 147 180 219 270 325
#     4  10  21  38  59  83 110 142 183 227 270 318
#
# _framework density 18.454539
#
# number of rings (size 3 to 8) (size 9 to 14) (size 15 to 20)
#    0.000    2.111    0.000    4.667    0.000    4.000 
#    0.000   10.000    0.000    4.667    0.000    0.000 
#    0.000    0.000    0.000    0.000    0.000    0.000 
#
# Total GULP energy -201058.032941 kJ/mol
# GULP energy per Si atom -5584.945359 kJ/mol
# Density = 1.841254 g / cm^3
# Si number density = 18.454539 Si / 1000 Ang^3
#
#
#
# Elastic Constant Matrix: (Units=GPa)
#
#
# Indices 1 2 3 4 5 6 
#
# 1 191.9296 41.7544 152.7770 0.0000 0.0000 0.0000
# 2 41.7544 52.6507 36.8646 0.0000 0.0000 0.0000
# 3 152.7770 36.8646 156.6493 0.0000 0.0000 0.0000
# 4 0.0000 0.0000 0.0000 22.0745 0.0000 0.0000
# 5 0.0000 0.0000 0.0000 0.0000 -23.2979 0.0000
# 6 0.0000 0.0000 0.0000 0.0000 0.0000 26.8432
#
#
#
# Elastic Compliance Matrix: (Units=1/GPa)
#
#
# Indices 1 2 3 4 5 6 
#
# 1 0.023717 -0.003129 -0.022394 0.000000 0.000000 0.000000
# 2 -0.003129 0.023153 -0.002397 0.000000 0.000000 0.000000
# 3 -0.022394 -0.002397 0.028789 0.000000 0.000000 0.000000
# 4 0.000000 0.000000 0.000000 0.045301 0.000000 0.000000
# 5 0.000000 0.000000 0.000000 0.000000 -0.042922 0.000000
# 6 0.000000 0.000000 0.000000 0.000000 0.000000 0.037253
#
#
# Mechanical properties :
#
#
# Convention : Reuss Voigt Hill
#
# Bulk Modulus (GPa) = 50.45991 96.00239 73.23115
# Shear Modulus (GPa) = 28.13141 16.44620 22.28880
#
# Velocity S-wave (km/s) = 3.90854 2.98849 3.47907
# Velocity P-wave (km/s) = 6.91167 8.00263 7.47707
#
# Compressibility (1/GPa) = 0.01981771
#
# Stress axis : x y z
#
# Youngs Moduli (GPa) = 42.16387 43.19140 34.73584
#
# Poissons Ratio (x) = 0.13513 0.77789
# Poissons Ratio (y) = 0.13192 0.08327
# Poissons Ratio (z) = 0.94424 0.10354
#
# Static dielectric constant tensor:
#      x y z
#    x 1.613700 0.000000 0.000000 
#    y 0.000000 1.629880 0.000000 
#    z 0.000000 0.000000 1.616530 
# 
# From -- ./inp_files/77568.got.cif
#   From: 2010.05.17/outbox.cif.g08.bks.cpg/sg65_39_cif.got.tgz:77568.got - 2010.06.03 17:01:31.
