data_PCOD9486203
_publ_section_title
;
Structure prediction by ZEFSAII (Michael W. Deem and Ramdas Pophale) SiO2 
 PCOD9486203
Probable space group: C M M M
;
_chemical_formula_sum "Si O2"
_cell_formula_units_Z 104
_cell_length_a 7.986738
_cell_length_b 29.498675
_cell_length_c 25.466982
_cell_angle_alpha 90.000000
_cell_angle_beta 90.000000
_cell_angle_gamma 90.000000
_cell_volume 5999.974828
_symmetry_space_group_name_H-M "C M M M"
_symmetry_group_IT_number 65
_symmetry_cell_setting 'orthorhombic'
loop_
_space_group_symop_operation_xyz
x,y,z
-x,-y,z
x,-y,-z
-x,y,-z
-x,-y,-z
x,y,-z
-x,y,z
x,-y,z
1/2+x,1/2+y,z
1/2-x,1/2-y,z
1/2+x,1/2-y,-z
1/2-x,1/2+y,-z
1/2-x,1/2-y,-z
1/2+x,1/2+y,-z
1/2-x,1/2+y,z
1/2+x,1/2-y,z
loop_
_atom_site_type_symbol
_atom_site_label
_atom_site_fract_x
_atom_site_fract_y
_atom_site_fract_z
Si Si1 0.500000 0.445026 0.559884
Si Si2 0.801756 0.895499 0.263985
Si Si3 0.200350 0.300112 0.226353
Si Si4 0.701243 0.799636 0.894911
Si Si5 0.810472 0.553895 0.633017
Si Si6 0.297781 0.893628 0.058002
Si Si7 0.201509 0.948503 0.160518
O O1 0.500000 0.500000 0.557907
O O2 0.500000 0.428424 0.500000
O O3 0.333371 0.432153 0.592004
O O4 0.772348 0.841931 0.258776
O O5 0.713897 0.918372 0.313495
O O6 0.739577 0.918255 0.209602
O O7 0.000000 0.904528 0.269018
O O8 0.250000 0.250000 0.245018
O O9 0.261433 0.303863 0.165586
O O10 0.000000 0.303786 0.226101
O O11 0.500000 0.801374 0.893675
O O12 0.750000 0.750000 0.914955
O O13 0.761165 0.842737 0.927716
O O14 0.787817 0.500000 0.644048
O O15 0.000000 0.560018 0.613019
O O16 0.500000 0.892675 0.056854
O O17 0.247965 0.926277 0.105265
O O18 0.238275 0.907118 0.000000
O O19 0.000000 0.949421 0.163366
O O20 0.263720 0.000000 0.164728
#
# Coordination Sequence:
#
# PCOD9486203 Si02
#       7
#     8  16  16  16  16  16  16
#     4   9  18  34  54  78 116 160 197 237 277 313
#     4  11  20  33  54  77 107 142 175 222 276 324
#     4  10  19  32  50  74 103 135 170 209 264 327
#     4   9  18  32  50  71  96 122 157 201 253 316
#     4  10  20  33  52  81 115 154 196 234 275 323
#     4  10  21  37  53  70  94 124 162 209 261 317
#     4  10  22  37  53  73  96 127 168 212 263 320
#
# _framework density 17.333406
#
# number of rings (size 3 to 8) (size 9 to 14) (size 15 to 20)
#    0.000    2.077    2.308    1.385    0.000    4.000 
#    0.000    3.077    0.000    0.000    0.000    0.000 
#    0.000    0.615    0.308    0.000    0.000    0.000 
#
# Total GULP energy -290214.804755 kJ/mol
# GULP energy per Si atom -5581.053938 kJ/mol
# Density = 1.729395 g / cm^3
# Si number density = 17.333406 Si / 1000 Ang^3
#
#
#
# Elastic Constant Matrix: (Units=GPa)
#
#
# Indices 1 2 3 4 5 6 
#
# 1 57.3803 18.9692 33.9192 0.0000 0.0000 0.0000
# 2 18.9692 92.1534 46.2044 0.0000 0.0000 0.0000
# 3 33.9192 46.2044 110.3696 0.0000 0.0000 0.0000
# 4 0.0000 0.0000 0.0000 10.4479 0.0000 0.0000
# 5 0.0000 0.0000 0.0000 0.0000 13.0054 0.0000
# 6 0.0000 0.0000 0.0000 0.0000 0.0000 22.9444
#
#
#
# Elastic Compliance Matrix: (Units=1/GPa)
#
#
# Indices 1 2 3 4 5 6 
#
# 1 0.021439 -0.001404 -0.006001 0.000000 0.000000 0.000000
# 2 -0.001404 0.013826 -0.005357 0.000000 0.000000 0.000000
# 3 -0.006001 -0.005357 0.013147 0.000000 0.000000 0.000000
# 4 0.000000 0.000000 0.000000 0.095713 0.000000 0.000000
# 5 0.000000 0.000000 0.000000 0.000000 0.076891 0.000000
# 6 0.000000 0.000000 0.000000 0.000000 0.000000 0.043584
#
#
# Mechanical properties :
#
#
# Convention : Reuss Voigt Hill
#
# Bulk Modulus (GPa) = 43.68913 50.89876 47.29395
# Shear Modulus (GPa) = 16.79242 20.00024 18.39633
#
# Velocity S-wave (km/s) = 3.11591 3.40053 3.26133
# Velocity P-wave (km/s) = 6.18103 6.69675 6.44405
#
# Compressibility (1/GPa) = 0.02288899
#
# Stress axis : x y z
#
# Youngs Moduli (GPa) = 46.64368 72.32622 76.06249
#
# Poissons Ratio (x) = 0.10157 0.45644
# Poissons Ratio (y) = 0.06551 0.40743
# Poissons Ratio (z) = 0.27990 0.38742
#
# Static dielectric constant tensor:
#      x y z
#    x 1.621530 0.000000 0.000000 
#    y 0.000000 1.582000 0.000000 
#    z 0.000000 0.000000 1.569370 
# 
# From -- ./inp_files/68516.got.cif
#   From: 2010.05.17/outbox.cif.g08.bks.cpg/sg65_35_cif.got.tgz:68516.got - 2010.06.03 17:01:31.
