data_PCOD9486022
_publ_section_title
;
Structure prediction by ZEFSAII (Michael W. Deem and Ramdas Pophale) SiO2 
 PCOD9486022
Probable space group: C M M M
;
_chemical_formula_sum "Si O2"
_cell_formula_units_Z 96
_cell_length_a 14.658444
_cell_length_b 24.797210
_cell_length_c 14.533732
_cell_angle_alpha 90.000000
_cell_angle_beta 90.000000
_cell_angle_gamma 90.000000
_cell_volume 5282.844650
_symmetry_space_group_name_H-M "C M M M"
_symmetry_group_IT_number 65
_symmetry_cell_setting 'orthorhombic'
loop_
_space_group_symop_operation_xyz
x,y,z
-x,-y,z
x,-y,-z
-x,y,-z
-x,-y,-z
x,y,-z
-x,y,z
x,-y,z
1/2+x,1/2+y,z
1/2-x,1/2-y,z
1/2+x,1/2-y,-z
1/2-x,1/2+y,-z
1/2-x,1/2-y,-z
1/2+x,1/2+y,-z
1/2-x,1/2+y,z
1/2+x,1/2-y,z
loop_
_atom_site_type_symbol
_atom_site_label
_atom_site_fract_x
_atom_site_fract_y
_atom_site_fract_z
Si Si1 0.729310 0.686991 0.103550
Si Si2 0.744431 0.617422 0.607006
Si Si3 0.607504 0.207948 0.390660
Si Si4 0.171774 0.500000 0.395330
Si Si5 0.608388 0.682877 0.278736
Si Si6 0.605700 0.109719 0.110555
Si Si7 0.103307 0.500000 0.801102
O O1 0.750000 0.750000 0.100184
O O2 0.650344 0.679850 0.177413
O O3 0.822723 0.656737 0.131244
O O4 0.704941 0.668693 0.000000
O O5 0.725300 0.627828 0.500000
O O6 0.829634 0.656581 0.632009
O O7 0.771013 0.554969 0.615559
O O8 0.658462 0.636133 0.664889
O O9 0.619978 0.220489 0.500000
O O10 0.500000 0.195698 0.377346
O O11 0.631400 0.260078 0.329316
O O12 0.133450 0.500000 0.500000
O O13 0.104728 0.500000 0.308821
O O14 0.500000 0.678031 0.279187
O O15 0.500000 0.120953 0.138772
O O16 0.641754 0.055575 0.159438
O O17 0.604523 0.101947 0.000000
O O18 0.000000 0.500000 0.837043
#
# Coordination Sequence:
#
# PCOD9486022 Si02
#       7
#    16  16  16   8  16  16   8
#     4  10  21  36  53  75 107 145 178 208 251 310
#     4  10  20  36  56  77 105 138 174 218 263 310
#     4   9  18  33  55  82 107 133 168 212 263 314
#     4  10  22  36  50  72 105 145 181 210 249 307
#     4  11  22  35  54  78 104 136 177 224 266 304
#     4   9  18  34  57  83 107 132 167 213 262 310
#     4  10  19  31  52  80 109 139 170 207 252 308
#
# _framework density 18.172028000000001
#
# number of rings (size 3 to 8) (size 9 to 14) (size 15 to 20)
#    0.000    2.167    0.000    3.250    0.000    5.167 
#    0.000    7.917    0.000    1.500    0.000    0.000 
#    0.000    6.667    0.000    0.000    0.000    0.000 
#
# Total GULP energy -267877.438659 kJ/mol
# GULP energy per Si atom -5580.779972 kJ/mol
# Density = 1.813067 g / cm^3
# Si number density = 18.172028 Si / 1000 Ang^3
#
#
#
# Elastic Constant Matrix: (Units=GPa)
#
#
# Indices 1 2 3 4 5 6 
#
# 1 89.9329 49.0917 48.1195 0.0000 0.0000 0.0000
# 2 49.0917 109.6075 40.1691 0.0000 0.0000 0.0000
# 3 48.1195 40.1691 79.3430 0.0000 0.0000 0.0000
# 4 0.0000 0.0000 0.0000 8.6731 0.0000 0.0000
# 5 0.0000 0.0000 0.0000 0.0000 28.4957 0.0000
# 6 0.0000 0.0000 0.0000 0.0000 0.0000 15.4516
#
#
#
# Elastic Compliance Matrix: (Units=1/GPa)
#
#
# Indices 1 2 3 4 5 6 
#
# 1 0.018553 -0.005140 -0.008650 0.000000 0.000000 0.000000
# 2 -0.005140 0.012626 -0.003275 0.000000 0.000000 0.000000
# 3 -0.008650 -0.003275 0.019508 0.000000 0.000000 0.000000
# 4 0.000000 0.000000 0.000000 0.115298 0.000000 0.000000
# 5 0.000000 0.000000 0.000000 0.000000 0.035093 0.000000
# 6 0.000000 0.000000 0.000000 0.000000 0.000000 0.064718
#
#
# Mechanical properties :
#
#
# Convention : Reuss Voigt Hill
#
# Bulk Modulus (GPa) = 60.39667 61.51602 60.95635
# Shear Modulus (GPa) = 16.36958 19.95762 18.16360
#
# Velocity S-wave (km/s) = 3.00461 3.31760 3.16497
# Velocity P-wave (km/s) = 6.73388 6.97143 6.85368
#
# Compressibility (1/GPa) = 0.01655720
#
# Stress axis : x y z
#
# Youngs Moduli (GPa) = 53.89880 79.20375 51.26227
#
# Poissons Ratio (x) = 0.40708 0.44342
# Poissons Ratio (y) = 0.27702 0.16788
# Poissons Ratio (z) = 0.46623 0.25939
#
# Static dielectric constant tensor:
#      x y z
#    x 1.596550 0.000000 0.000000 
#    y 0.000000 1.351020 0.000000 
#    z 0.000000 0.000000 1.667460 
# 
# From -- ./inp_files/40684.got.cif
#   From: 2010.05.17/outbox.cif.g08.bks.cpg/sg65_21_cif.got.tgz:40684.got - 2010.06.03 17:01:31.
