data_PCOD9486223
_publ_section_title
;
Structure prediction by ZEFSAII (Michael W. Deem and Ramdas Pophale) SiO2 
 PCOD9486223
Probable space group: C M M M
;
_chemical_formula_sum "Si O2"
_cell_formula_units_Z 88
_cell_length_a 8.381960
_cell_length_b 19.585202
_cell_length_c 29.221642
_cell_angle_alpha 90.000000
_cell_angle_beta 90.000000
_cell_angle_gamma 90.000000
_cell_volume 4797.094291
_symmetry_space_group_name_H-M "C M M M"
_symmetry_group_IT_number 65
_symmetry_cell_setting 'orthorhombic'
loop_
_space_group_symop_operation_xyz
x,y,z
-x,-y,z
x,-y,-z
-x,y,-z
-x,-y,-z
x,y,-z
-x,y,z
x,-y,z
1/2+x,1/2+y,z
1/2-x,1/2-y,z
1/2+x,1/2-y,-z
1/2-x,1/2+y,-z
1/2-x,1/2-y,-z
1/2+x,1/2+y,-z
1/2-x,1/2+y,z
1/2+x,1/2-y,z
loop_
_atom_site_type_symbol
_atom_site_label
_atom_site_fract_x
_atom_site_fract_y
_atom_site_fract_z
Si Si1 0.192370 0.421222 0.902859
Si Si2 0.191382 0.327074 0.819389
Si Si3 0.695112 0.421617 0.365314
Si Si4 0.192730 0.174090 0.447818
Si Si5 0.190267 0.920205 0.000000
Si Si6 0.191185 0.172827 0.718662
O O1 0.248554 0.500000 0.898920
O O2 0.247497 0.376520 0.859956
O O3 0.000000 0.422168 0.902560
O O4 0.246858 0.392050 0.951920
O O5 0.250000 0.250000 0.827348
O O6 0.250602 0.348016 0.769080
O O7 0.000000 0.327061 0.818875
O O8 0.500000 0.422038 0.365340
O O9 0.748125 0.500000 0.364347
O O10 0.746581 0.381310 0.410851
O O11 0.745909 0.378577 0.320906
O O12 0.246090 0.160105 0.500000
O O13 0.250000 0.250000 0.435178
O O14 0.000000 0.174336 0.447745
O O15 0.000000 0.917868 0.000000
O O16 0.243232 0.000000 0.000000
O O17 0.250000 0.250000 0.709875
O O18 0.000000 0.174093 0.718830
#
# Coordination Sequence:
#
# PCOD9486223 Si02
#       6
#    16  16  16  16   8  16
#     4   9  18  33  52  72  96 128 162 196 237 284
#     4  10  20  34  52  73  98 127 160 199 241 286
#     4   9  18  31  47  71 100 126 157 199 244 287
#     4   9  17  30  50  73  96 126 163 201 239 283
#     4   9  17  29  48  75 102 127 159 199 238 279
#     4  10  19  32  51  70  92 125 160 196 238 285
#
# _framework density 18.344439000000001
#
# number of rings (size 3 to 8) (size 9 to 14) (size 15 to 20)
#    0.000    2.636    0.000    3.000    0.000    3.636 
#    0.000    3.182    0.000    4.364    0.000    2.545 
#    0.000    0.000    0.000    0.000    0.000    0.000 
#
# Total GULP energy -245396.624735 kJ/mol
# GULP energy per Si atom -5577.196017 kJ/mol
# Density = 1.830269 g / cm^3
# Si number density = 18.344439 Si / 1000 Ang^3
#
#
#
# Elastic Constant Matrix: (Units=GPa)
#
#
# Indices 1 2 3 4 5 6 
#
# 1 18.3602 14.5792 20.8831 0.0000 0.0000 0.0000
# 2 14.5792 112.2155 121.8124 0.0000 0.0000 0.0000
# 3 20.8831 121.8124 185.2564 0.0000 0.0000 0.0000
# 4 0.0000 0.0000 0.0000 33.2833 0.0000 0.0000
# 5 0.0000 0.0000 0.0000 0.0000 18.0567 0.0000
# 6 0.0000 0.0000 0.0000 0.0000 0.0000 18.5259
#
#
#
# Elastic Compliance Matrix: (Units=1/GPa)
#
#
# Indices 1 2 3 4 5 6 
#
# 1 0.062564 -0.001652 -0.005967 0.000000 0.000000 0.000000
# 2 -0.001652 0.031177 -0.020314 0.000000 0.000000 0.000000
# 3 -0.005967 -0.020314 0.019428 0.000000 0.000000 0.000000
# 4 0.000000 0.000000 0.000000 0.030045 0.000000 0.000000
# 5 0.000000 0.000000 0.000000 0.000000 0.055381 0.000000
# 6 0.000000 0.000000 0.000000 0.000000 0.000000 0.053979
#
#
# Mechanical properties :
#
#
# Convention : Reuss Voigt Hill
#
# Bulk Modulus (GPa) = 17.45070 70.04241 43.74655
# Shear Modulus (GPa) = 15.26537 24.54364 19.90451
#
# Velocity S-wave (km/s) = 2.88784 3.66175 3.29757
# Velocity P-wave (km/s) = 4.54455 7.49283 6.19659
#
# Compressibility (1/GPa) = 0.05730430
#
# Stress axis : x y z
#
# Youngs Moduli (GPa) = 15.98376 32.07473 51.47317
#
# Poissons Ratio (x) = 0.05297 0.30712
# Poissons Ratio (y) = 0.02640 1.04562
# Poissons Ratio (z) = 0.09537 0.65156
#
# Static dielectric constant tensor:
#      x y z
#    x 1.633530 0.000000 0.000000 
#    y 0.000000 1.610660 0.000000 
#    z 0.000000 0.000000 1.641140 
# 
# From -- ./inp_files/76680.got.cif
#   From: 2010.05.17/outbox.cif.g08.bks.cpg/sg65_39_cif.got.tgz:76680.got - 2010.06.03 17:01:31.
