data_PCOD9486735
_publ_section_title
;
Structure prediction by ZEFSAII (Michael W. Deem and Ramdas Pophale) SiO2 
 PCOD9486735
Probable space group: C M M M
;
_chemical_formula_sum "Si O2"
_cell_formula_units_Z 64
_cell_length_a 15.088803
_cell_length_b 9.147520
_cell_length_c 22.098333
_cell_angle_alpha 90.000000
_cell_angle_beta 90.000000
_cell_angle_gamma 90.000000
_cell_volume 3050.125224
_symmetry_space_group_name_H-M "C M M M"
_symmetry_group_IT_number 65
_symmetry_cell_setting 'orthorhombic'
loop_
_space_group_symop_operation_xyz
x,y,z
-x,-y,z
x,-y,-z
-x,y,-z
-x,-y,-z
x,y,-z
-x,y,z
x,-y,z
1/2+x,1/2+y,z
1/2-x,1/2-y,z
1/2+x,1/2-y,-z
1/2-x,1/2+y,-z
1/2-x,1/2-y,-z
1/2+x,1/2+y,-z
1/2-x,1/2+y,z
1/2+x,1/2-y,z
loop_
_atom_site_type_symbol
_atom_site_label
_atom_site_fract_x
_atom_site_fract_y
_atom_site_fract_z
Si Si1 0.153886 0.175193 0.869096
Si Si2 0.891072 0.830136 0.631413
Si Si3 0.895507 0.662014 0.748958
Si Si4 0.653296 0.675397 0.000000
Si Si5 0.103743 0.822021 0.500000
O O1 0.250000 0.250000 0.871263
O O2 0.112479 0.241337 0.808915
O O3 0.110782 0.211228 0.934824
O O4 0.158913 0.000000 0.864144
O O5 0.859229 0.738419 0.688735
O O6 0.860319 0.774562 0.565315
O O7 0.000000 0.827775 0.630318
O O8 0.866222 0.000000 0.638573
O O9 0.856949 0.500000 0.758761
O O10 0.000000 0.647129 0.737946
O O11 0.750000 0.750000 0.000000
O O12 0.665442 0.500000 0.000000
O O13 0.000000 0.780469 0.500000
O O14 0.106804 0.000000 0.500000
#
# Coordination Sequence:
#
# PCOD9486735 Si02
#       5
#    16  16  16   8   8
#     4  10  19  33  53  74  95 120 153 192 234 280
#     4   8  13  23  40  61  86 118 154 191 232 275
#     4  10  20  32  45  66  98 131 161 194 232 274
#     4   8  16  30  49  72  93 115 147 189 233 276
#     4   7  10  18  35  59  84 111 148 191 230 271
#
# _framework density 20.982745999999999
#
# number of rings (size 3 to 8) (size 9 to 14) (size 15 to 20)
#    0.000    3.125    0.000    3.000    0.000    2.500 
#    0.000    1.250    0.000    7.500    0.000    0.875 
#    0.000    0.000    0.000    0.000    0.000    0.000 
#
# Total GULP energy -178194.615541 kJ/mol
# GULP energy per Si atom -5568.581736 kJ/mol
# Density = 2.093499 g / cm^3
# Si number density = 20.982746 Si / 1000 Ang^3
#
#
#
# Elastic Constant Matrix: (Units=GPa)
#
#
# Indices 1 2 3 4 5 6 
#
# 1 31.8419 4.3616 10.9226 0.0000 0.0000 0.0000
# 2 4.3616 88.5261 90.5798 0.0000 0.0000 0.0000
# 3 10.9226 90.5798 250.7301 0.0000 0.0000 0.0000
# 4 0.0000 0.0000 0.0000 53.3846 0.0000 0.0000
# 5 0.0000 0.0000 0.0000 0.0000 2.8895 0.0000
# 6 0.0000 0.0000 0.0000 0.0000 0.0000 11.8907
#
#
#
# Elastic Compliance Matrix: (Units=1/GPa)
#
#
# Indices 1 2 3 4 5 6 
#
# 1 0.031885 -0.000237 -0.001303 0.000000 0.000000 0.000000
# 2 -0.000237 0.017922 -0.006464 0.000000 0.000000 0.000000
# 3 -0.001303 -0.006464 0.006380 0.000000 0.000000 0.000000
# 4 0.000000 0.000000 0.000000 0.018732 0.000000 0.000000
# 5 0.000000 0.000000 0.000000 0.000000 0.346085 0.000000
# 6 0.000000 0.000000 0.000000 0.000000 0.000000 0.084099
#
#
# Mechanical properties :
#
#
# Convention : Reuss Voigt Hill
#
# Bulk Modulus (GPa) = 24.88967 64.75844 44.82406
# Shear Modulus (GPa) = 9.35443 31.31522 20.33483
#
# Velocity S-wave (km/s) = 2.11373 3.86739 3.11645
# Velocity P-wave (km/s) = 4.22431 7.13246 5.86160
#
# Compressibility (1/GPa) = 0.04017731
#
# Stress axis : x y z
#
# Youngs Moduli (GPa) = 31.36296 55.79739 156.72956
#
# Poissons Ratio (x) = 0.01325 0.20425
# Poissons Ratio (y) = 0.00745 1.01314
# Poissons Ratio (z) = 0.04087 0.36069
#
# Static dielectric constant tensor:
#      x y z
#    x 1.833610 0.000000 0.000000 
#    y 0.000000 1.725600 0.000000 
#    z 0.000000 0.000000 1.819960 
# 
# From -- ./inp_files/59146.got.cif
#   From: 2010.05.17/outbox.cif.g08.bks.cpg/sg65_30_cif.got.tgz:59146.got - 2010.06.03 17:01:31.
