data_PCOD9486479
_publ_section_title
;
Structure prediction by ZEFSAII (Michael W. Deem and Ramdas Pophale) SiO2 
 PCOD9486479
Probable space group: C M M M
;
_chemical_formula_sum "Si O2"
_cell_formula_units_Z 72
_cell_length_a 9.792671
_cell_length_b 15.258276
_cell_length_c 22.421616
_cell_angle_alpha 90.000000
_cell_angle_beta 90.000000
_cell_angle_gamma 90.000000
_cell_volume 3350.221650
_symmetry_space_group_name_H-M "C M M M"
_symmetry_group_IT_number 65
_symmetry_cell_setting 'orthorhombic'
loop_
_space_group_symop_operation_xyz
x,y,z
-x,-y,z
x,-y,-z
-x,y,-z
-x,-y,-z
x,y,-z
-x,y,z
x,-y,z
1/2+x,1/2+y,z
1/2-x,1/2-y,z
1/2+x,1/2-y,-z
1/2-x,1/2+y,-z
1/2-x,1/2-y,-z
1/2+x,1/2+y,-z
1/2-x,1/2+y,z
1/2+x,1/2-y,z
loop_
_atom_site_type_symbol
_atom_site_label
_atom_site_fract_x
_atom_site_fract_y
_atom_site_fract_z
Si Si1 0.500000 0.639398 0.069218
Si Si2 0.168583 0.341903 0.500000
Si Si3 0.746991 0.144031 0.851374
Si Si4 0.842998 0.896187 0.387338
Si Si5 0.500000 0.853677 0.932695
Si Si6 0.843425 0.396167 0.281118
O O1 0.624681 0.613374 0.110940
O O2 0.500000 0.746559 0.065526
O O3 0.500000 0.609637 0.000000
O O4 0.250000 0.250000 0.500000
O O5 0.235815 0.385682 0.441565
O O6 0.000000 0.339311 0.500000
O O7 0.750000 0.250000 0.848236
O O8 0.625928 0.116956 0.894230
O O9 0.719933 0.113630 0.784521
O O10 0.763441 0.859213 0.329602
O O11 0.000000 0.861298 0.397189
O O12 0.860050 0.000000 0.378680
O O13 0.500000 0.884653 0.000000
O O14 0.854943 0.500000 0.293329
O O15 0.000000 0.360360 0.283310
#
# Coordination Sequence:
#
# PCOD9486479 Si02
#       6
#     8   8  16  16   8  16
#     4   9  18  30  49  77 105 140 183 234 293 351
#     4  12  25  42  65  95 131 163 195 240 293 340
#     4  10  19  32  52  79 109 141 186 238 290 347
#     4  10  22  41  65  91 120 158 203 244 287 347
#     4   9  16  30  51  75 105 140 183 234 285 343
#     4  10  21  38  58  81 112 152 196 238 285 342
#
# _framework density 21.491114
#
# number of rings (size 3 to 8) (size 9 to 14) (size 15 to 20)
#    0.000    2.000    1.111    2.667    1.556    6.222 
#    0.000    2.222    0.000    4.000    0.000    0.000 
#    0.000    0.000    0.000    0.000    0.000    0.000 
#
# Total GULP energy -200659.182273 kJ/mol
# GULP energy per Si atom -5573.866174 kJ/mol
# Density = 2.144220 g / cm^3
# Si number density = 21.491114 Si / 1000 Ang^3
#
#
#
# Elastic Constant Matrix: (Units=GPa)
#
#
# Indices 1 2 3 4 5 6 
#
# 1 255.8780 9.5065 116.5699 0.0000 0.0000 0.0000
# 2 9.5065 33.4516 -4.8211 0.0000 0.0000 0.0000
# 3 116.5699 -4.8211 205.0097 0.0000 0.0000 0.0000
# 4 0.0000 0.0000 0.0000 -39.4982 0.0000 0.0000
# 5 0.0000 0.0000 0.0000 0.0000 29.5802 0.0000
# 6 0.0000 0.0000 0.0000 0.0000 0.0000 13.4078
#
#
#
# Elastic Compliance Matrix: (Units=1/GPa)
#
#
# Indices 1 2 3 4 5 6 
#
# 1 0.005403 -0.001985 -0.003119 0.000000 0.000000 0.000000
# 2 -0.001985 0.030725 0.001851 0.000000 0.000000 0.000000
# 3 -0.003119 0.001851 0.006695 0.000000 0.000000 0.000000
# 4 0.000000 0.000000 0.000000 -0.025318 0.000000 0.000000
# 5 0.000000 0.000000 0.000000 0.000000 0.033806 0.000000
# 6 0.000000 0.000000 0.000000 0.000000 0.000000 0.074583
#
#
# Mechanical properties :
#
#
# Convention : Reuss Voigt Hill
#
# Bulk Modulus (GPa) = 27.53503 81.87222 54.70362
# Shear Modulus (GPa) = 34.60100 25.57023 30.08562
#
# Velocity S-wave (km/s) = 4.01685 3.45310 3.74560
# Velocity P-wave (km/s) = 5.86119 7.35371 6.64946
#
# Compressibility (1/GPa) = 0.03631737
#
# Stress axis : x y z
#
# Youngs Moduli (GPa) = 185.09592 32.54699 149.37357
#
# Poissons Ratio (x) = 0.06460 0.46584
# Poissons Ratio (y) = 0.36738 -0.27651
# Poissons Ratio (z) = 0.57725 -0.06025
#
# Static dielectric constant tensor:
#      x y z
#    x 1.760100 0.000000 0.000000 
#    y 0.000000 1.834970 0.000000 
#    z 0.000000 0.000000 1.779410 
# 
# From -- ./inp_files/59338.got.cif
#   From: 2010.05.17/outbox.cif.g08.bks.cpg/sg65_30_cif.got.tgz:59338.got - 2010.06.03 17:01:31.
