data_PCOD9486556
_publ_section_title
;
Structure prediction by ZEFSAII (Michael W. Deem and Ramdas Pophale) SiO2 
 PCOD9486556
Probable space group: C M M M
;
_chemical_formula_sum "Si O2"
_cell_formula_units_Z 92
_cell_length_a 22.855407
_cell_length_b 28.470622
_cell_length_c 7.511984
_cell_angle_alpha 90.000000
_cell_angle_beta 90.000000
_cell_angle_gamma 90.000000
_cell_volume 4888.105481
_symmetry_space_group_name_H-M "C M M M"
_symmetry_group_IT_number 65
_symmetry_cell_setting 'orthorhombic'
loop_
_space_group_symop_operation_xyz
x,y,z
-x,-y,z
x,-y,-z
-x,y,-z
-x,-y,-z
x,y,-z
-x,y,z
x,-y,z
1/2+x,1/2+y,z
1/2-x,1/2-y,z
1/2+x,1/2-y,-z
1/2-x,1/2+y,-z
1/2-x,1/2-y,-z
1/2+x,1/2+y,-z
1/2-x,1/2+y,z
1/2+x,1/2-y,z
loop_
_atom_site_type_symbol
_atom_site_label
_atom_site_fract_x
_atom_site_fract_y
_atom_site_fract_z
Si Si1 0.207405 0.150222 0.214635
Si Si2 0.397475 0.712843 0.204116
Si Si3 0.828299 0.696116 0.709336
Si Si4 0.000000 0.221536 0.500000
Si Si5 0.000000 0.445761 0.282332
Si Si6 0.755907 0.551571 0.210471
Si Si7 0.122506 0.403446 0.284786
O O1 0.144414 0.170006 0.265173
O O2 0.259629 0.185305 0.269516
O O3 0.223501 0.098029 0.282564
O O4 0.208929 0.148976 0.000000
O O5 0.354525 0.758026 0.202248
O O6 0.448897 0.721158 0.343023
O O7 0.417319 0.704628 0.000000
O O8 0.840464 0.700755 0.500000
O O9 0.860326 0.648742 0.776419
O O10 0.940673 0.420520 0.223319
O O11 0.000000 0.500000 0.228262
O O12 0.000000 0.444913 0.500000
O O13 0.741872 0.500000 0.284873
O O14 0.824893 0.562168 0.231654
O O15 0.743309 0.550159 0.000000
O O16 0.121878 0.402512 0.500000
#
# Coordination Sequence:
#
# PCOD9486556 Si02
#       7
#    16  16  16   4   8  16  16
#     4   9  19  34  55  83 112 143 184 228 280 341
#     4  11  23  40  60  83 113 149 187 231 279 333
#     4  10  19  32  53  83 111 145 185 233 284 332
#     4  12  26  42  58  82 111 148 189 230 266 338
#     4   9  16  27  43  61  88 134 186 226 263 306
#     4   9  17  31  51  76 108 139 171 222 281 333
#     4   9  18  30  45  70 100 140 184 230 272 316
#
# _framework density 18.821196
#
# number of rings (size 3 to 8) (size 9 to 14) (size 15 to 20)
#    0.000    2.348    0.870    1.826    1.217    4.522 
#    1.565    0.435    0.000    1.565    0.000    1.217 
#    0.000    4.174    0.000    0.000    0.000    0.000 
#
# Total GULP energy -256199.641526 kJ/mol
# GULP energy per Si atom -5569.557424 kJ/mol
# Density = 1.877836 g / cm^3
# Si number density = 18.821196 Si / 1000 Ang^3
#
#
#
# Elastic Constant Matrix: (Units=GPa)
#
#
# Indices 1 2 3 4 5 6 
#
# 1 76.1863 41.8474 25.2596 0.0000 0.0000 0.0000
# 2 41.8474 88.6290 15.0098 0.0000 0.0000 0.0000
# 3 25.2596 15.0098 78.4448 0.0000 0.0000 0.0000
# 4 0.0000 0.0000 0.0000 5.4114 0.0000 0.0000
# 5 0.0000 0.0000 0.0000 0.0000 36.3713 0.0000
# 6 0.0000 0.0000 0.0000 0.0000 0.0000 6.8355
#
#
#
# Elastic Compliance Matrix: (Units=1/GPa)
#
#
# Indices 1 2 3 4 5 6 
#
# 1 0.019202 -0.008288 -0.004597 0.000000 0.000000 0.000000
# 2 -0.008288 0.015238 -0.000247 0.000000 0.000000 0.000000
# 3 -0.004597 -0.000247 0.014275 0.000000 0.000000 0.000000
# 4 0.000000 0.000000 0.000000 0.184797 0.000000 0.000000
# 5 0.000000 0.000000 0.000000 0.000000 0.027494 0.000000
# 6 0.000000 0.000000 0.000000 0.000000 0.000000 0.146295
#
#
# Mechanical properties :
#
#
# Convention : Reuss Voigt Hill
#
# Bulk Modulus (GPa) = 44.54100 45.27707 44.90904
# Shear Modulus (GPa) = 11.33656 20.46651 15.90154
#
# Velocity S-wave (km/s) = 2.45690 3.30118 2.90982
# Velocity P-wave (km/s) = 5.63606 6.21603 5.93314
#
# Compressibility (1/GPa) = 0.02245122
#
# Stress axis : x y z
#
# Youngs Moduli (GPa) = 52.07673 65.62480 70.05035
#
# Poissons Ratio (x) = 0.54390 0.32205
# Poissons Ratio (y) = 0.43162 0.01730
# Poissons Ratio (z) = 0.23942 0.01620
#
# Static dielectric constant tensor:
#      x y z
#    x 1.621990 0.000000 0.000000 
#    y 0.000000 1.681950 0.000000 
#    z 0.000000 0.000000 1.698170 
# 
# From -- ./inp_files/12338.got.cif
#   From: 2010.05.17/outbox.cif.g08.bks.cpg/sg65_7_cif.got.tgz:12338.got - 2010.06.03 17:01:31.
