data_PCOD9486557
_publ_section_title
;
Structure prediction by ZEFSAII (Michael W. Deem and Ramdas Pophale) SiO2 
 PCOD9486557
Probable space group: C M M M
;
_chemical_formula_sum "Si O2"
_cell_formula_units_Z 64
_cell_length_a 9.065184
_cell_length_b 29.891876
_cell_length_c 12.354741
_cell_angle_alpha 90.000000
_cell_angle_beta 90.000000
_cell_angle_gamma 90.000000
_cell_volume 3347.830341
_symmetry_space_group_name_H-M "C M M M"
_symmetry_group_IT_number 65
_symmetry_cell_setting 'orthorhombic'
loop_
_space_group_symop_operation_xyz
x,y,z
-x,-y,z
x,-y,-z
-x,y,-z
-x,-y,-z
x,y,-z
-x,y,z
x,-y,z
1/2+x,1/2+y,z
1/2-x,1/2-y,z
1/2+x,1/2-y,-z
1/2-x,1/2+y,-z
1/2-x,1/2-y,-z
1/2+x,1/2+y,-z
1/2-x,1/2+y,z
1/2+x,1/2-y,z
loop_
_atom_site_type_symbol
_atom_site_label
_atom_site_fract_x
_atom_site_fract_y
_atom_site_fract_z
Si Si1 0.322532 0.798423 0.194712
Si Si2 0.179645 0.634138 0.376382
Si Si3 0.172490 0.548449 0.755074
Si Si4 0.165927 0.151608 0.000000
Si Si5 0.235337 0.949572 0.000000
O O1 0.500000 0.796041 0.183731
O O2 0.250000 0.750000 0.183610
O O3 0.283981 0.821453 0.309135
O O4 0.255532 0.830657 0.103146
O O5 0.230937 0.633916 0.500000
O O6 0.234514 0.590994 0.308599
O O7 0.000000 0.632229 0.377769
O O8 0.239536 0.500000 0.726216
O O9 0.000000 0.546894 0.726702
O O10 0.180696 0.552478 0.885187
O O11 0.154153 0.097918 0.000000
O O12 0.000000 0.170510 0.000000
O O13 0.166672 0.000000 0.000000
#
# Coordination Sequence:
#
# PCOD9486557 Si02
#       5
#    16  16  16   8   8
#     4  11  23  40  61  85 115 149 188 236 291 342
#     4   9  18  32  52  80 113 150 192 235 279 330
#     4   9  16  27  48  80 116 150 186 230 281 337
#     4  12  24  39  61  88 118 150 188 230 280 342
#     4  10  19  32  53  83 114 150 188 228 278 336
#
# _framework density 19.116859999999999
#
# number of rings (size 3 to 8) (size 9 to 14) (size 15 to 20)
#    0.000    2.000    2.500    1.875    0.000    3.750 
#    0.000    2.500    0.000    2.250    0.000    0.000 
#    0.000    4.000    0.000    0.000    0.000    0.000 
#
# Total GULP energy -178232.070626 kJ/mol
# GULP energy per Si atom -5569.752207 kJ/mol
# Density = 1.907335 g / cm^3
# Si number density = 19.116860 Si / 1000 Ang^3
#
#
#
# Elastic Constant Matrix: (Units=GPa)
#
#
# Indices 1 2 3 4 5 6 
#
# 1 51.1132 36.5767 18.7959 0.0000 0.0000 0.0000
# 2 36.5767 154.3251 54.9794 0.0000 0.0000 0.0000
# 3 18.7959 54.9794 117.9395 0.0000 0.0000 0.0000
# 4 0.0000 0.0000 0.0000 14.4065 0.0000 0.0000
# 5 0.0000 0.0000 0.0000 0.0000 6.2364 0.0000
# 6 0.0000 0.0000 0.0000 0.0000 0.0000 14.3427
#
#
#
# Elastic Compliance Matrix: (Units=1/GPa)
#
#
# Indices 1 2 3 4 5 6 
#
# 1 0.023749 -0.005133 -0.001392 0.000000 0.000000 0.000000
# 2 -0.005133 0.008880 -0.003321 0.000000 0.000000 0.000000
# 3 -0.001392 -0.003321 0.010249 0.000000 0.000000 0.000000
# 4 0.000000 0.000000 0.000000 0.069413 0.000000 0.000000
# 5 0.000000 0.000000 0.000000 0.000000 0.160350 0.000000
# 6 0.000000 0.000000 0.000000 0.000000 0.000000 0.069722
#
#
# Mechanical properties :
#
#
# Convention : Reuss Voigt Hill
#
# Bulk Modulus (GPa) = 43.13063 60.45355 51.79209
# Shear Modulus (GPa) = 13.52141 21.19884 17.36012
#
# Velocity S-wave (km/s) = 2.66240 3.33364 3.01675
# Velocity P-wave (km/s) = 5.66231 6.81978 6.26782
#
# Compressibility (1/GPa) = 0.02318538
#
# Stress axis : x y z
#
# Youngs Moduli (GPa) = 42.10615 112.61716 97.56960
#
# Poissons Ratio (x) = 0.57806 0.13583
# Poissons Ratio (y) = 0.21613 0.32406
# Poissons Ratio (z) = 0.05862 0.37404
#
# Static dielectric constant tensor:
#      x y z
#    x 1.663160 0.000000 0.000000 
#    y 0.000000 1.693130 0.000000 
#    z 0.000000 0.000000 1.653690 
# 
# From -- ./inp_files/20967.got.cif
#   From: 2010.05.17/outbox.cif.g08.bks.cpg/sg65_11_cif.got.tgz:20967.got - 2010.06.03 17:01:31.
