data_PCOD9486328
_publ_section_title
;
Structure prediction by ZEFSAII (Michael W. Deem and Ramdas Pophale) SiO2 
 PCOD9486328
Probable space group: C M M M
;
_chemical_formula_sum "Si O2"
_cell_formula_units_Z 104
_cell_length_a 30.361941
_cell_length_b 8.612333
_cell_length_c 20.429072
_cell_angle_alpha 90.000000
_cell_angle_beta 90.000000
_cell_angle_gamma 90.000000
_cell_volume 5341.939741
_symmetry_space_group_name_H-M "C M M M"
_symmetry_group_IT_number 65
_symmetry_cell_setting 'orthorhombic'
loop_
_space_group_symop_operation_xyz
x,y,z
-x,-y,z
x,-y,-z
-x,y,-z
-x,-y,-z
x,y,-z
-x,y,z
x,-y,z
1/2+x,1/2+y,z
1/2-x,1/2-y,z
1/2+x,1/2-y,-z
1/2-x,1/2+y,-z
1/2-x,1/2-y,-z
1/2+x,1/2+y,-z
1/2-x,1/2+y,z
1/2+x,1/2-y,z
loop_
_atom_site_type_symbol
_atom_site_label
_atom_site_fract_x
_atom_site_fract_y
_atom_site_fract_z
Si Si1 0.643036 0.313938 0.119057
Si Si2 0.799574 0.315559 0.000000
Si Si3 0.296525 0.814137 0.615335
Si Si4 0.549629 0.310738 0.838313
Si Si5 0.449424 0.686396 0.687656
Si Si6 0.390826 0.812541 0.428815
Si Si7 0.702347 0.813599 0.769061
O O1 0.644406 0.500000 0.112898
O O2 0.672980 0.240980 0.062831
O O3 0.591763 0.263030 0.119088
O O4 0.664693 0.263705 0.187666
O O5 0.750000 0.250000 0.000000
O O6 0.796720 0.500000 0.000000
O O7 0.250000 0.750000 0.591701
O O8 0.340153 0.760707 0.578571
O O9 0.301905 0.773165 0.692313
O O10 0.294584 0.000000 0.611313
O O11 0.500000 0.259972 0.856954
O O12 0.548940 0.500000 0.838693
O O13 0.558180 0.262849 0.762781
O O14 0.500000 0.726256 0.671734
O O15 0.445318 0.500000 0.687032
O O16 0.417718 0.755029 0.633355
O O17 0.408276 0.762081 0.500000
O O18 0.391120 0.000000 0.427396
O O19 0.750000 0.750000 0.791240
O O20 0.701060 0.000000 0.775805
#
# Coordination Sequence:
#
# PCOD9486328 Si02
#       7
#    16   8  16  16  16  16  16
#     4  11  21  35  58  85 111 141 179 218 259 307
#     4  12  26  44  61  80 113 151 186 219 255 302
#     4   9  19  34  51  72  99 132 172 219 268 319
#     4   8  16  33  58  86 112 138 172 217 265 312
#     4   9  18  34  56  81 107 135 172 219 266 311
#     4  10  21  35  49  69 101 139 177 217 265 322
#     4  10  19  32  51  76 105 135 171 216 268 321
#
# _framework density 19.468582999999999
#
# number of rings (size 3 to 8) (size 9 to 14) (size 15 to 20)
#    0.000    2.308    0.000    3.923    0.000    2.462 
#    0.000    2.692    0.000    6.000    0.000    0.000 
#    0.000    0.000    0.000    0.000    0.000    0.000 
#
# Total GULP energy -290233.042077 kJ/mol
# GULP energy per Si atom -5581.404655 kJ/mol
# Density = 1.942427 g / cm^3
# Si number density = 19.468583 Si / 1000 Ang^3
#
#
#
# Elastic Constant Matrix: (Units=GPa)
#
#
# Indices 1 2 3 4 5 6 
#
# 1 153.6432 34.9850 59.4491 0.0000 0.0000 0.0000
# 2 34.9850 34.9781 23.1464 0.0000 0.0000 0.0000
# 3 59.4491 23.1464 53.0243 0.0000 0.0000 0.0000
# 4 0.0000 0.0000 0.0000 17.5224 0.0000 0.0000
# 5 0.0000 0.0000 0.0000 0.0000 12.2145 0.0000
# 6 0.0000 0.0000 0.0000 0.0000 0.0000 24.5813
#
#
#
# Elastic Compliance Matrix: (Units=1/GPa)
#
#
# Indices 1 2 3 4 5 6 
#
# 1 0.011946 -0.004339 -0.011500 0.000000 0.000000 0.000000
# 2 -0.004339 0.041778 -0.013373 0.000000 0.000000 0.000000
# 3 -0.011500 -0.013373 0.037590 0.000000 0.000000 0.000000
# 4 0.000000 0.000000 0.000000 0.057070 0.000000 0.000000
# 5 0.000000 0.000000 0.000000 0.000000 0.081870 0.000000
# 6 0.000000 0.000000 0.000000 0.000000 0.000000 0.040681
#
#
# Mechanical properties :
#
#
# Convention : Reuss Voigt Hill
#
# Bulk Modulus (GPa) = 30.40267 52.97853 41.69060
# Shear Modulus (GPa) = 14.69201 19.13464 16.91333
#
# Velocity S-wave (km/s) = 2.75007 3.13844 2.95065
# Velocity P-wave (km/s) = 5.07287 6.35645 5.75059
#
# Compressibility (1/GPa) = 0.03289185
#
# Stress axis : x y z
#
# Youngs Moduli (GPa) = 83.70976 23.93597 26.60297
#
# Poissons Ratio (x) = 0.10385 0.30592
# Poissons Ratio (y) = 0.36319 0.35576
# Poissons Ratio (z) = 0.96263 0.32009
#
# Static dielectric constant tensor:
#      x y z
#    x 1.696340 0.000000 0.000000 
#    y 0.000000 1.661040 0.000000 
#    z 0.000000 0.000000 1.689430 
# 
# From -- ./inp_files/65915.got.cif
#   From: 2010.05.17/outbox.cif.g08.bks.cpg/sg65_33_cif.got.tgz:65915.got - 2010.06.03 17:01:31.
