data_PCOD9486137
_publ_section_title
;
Structure prediction by ZEFSAII (Michael W. Deem and Ramdas Pophale) SiO2 
 PCOD9486137
Probable space group: C M M M
;
_chemical_formula_sum "Si O2"
_cell_formula_units_Z 112
_cell_length_a 28.357938
_cell_length_b 15.831164
_cell_length_c 14.114537
_cell_angle_alpha 90.000000
_cell_angle_beta 90.000000
_cell_angle_gamma 90.000000
_cell_volume 6336.568486
_symmetry_space_group_name_H-M "C M M M"
_symmetry_group_IT_number 65
_symmetry_cell_setting 'orthorhombic'
loop_
_space_group_symop_operation_xyz
x,y,z
-x,-y,z
x,-y,-z
-x,y,-z
-x,-y,-z
x,y,-z
-x,y,z
x,-y,z
1/2+x,1/2+y,z
1/2-x,1/2-y,z
1/2+x,1/2-y,-z
1/2-x,1/2+y,-z
1/2-x,1/2-y,-z
1/2+x,1/2+y,-z
1/2-x,1/2+y,z
1/2+x,1/2-y,z
loop_
_atom_site_type_symbol
_atom_site_label
_atom_site_fract_x
_atom_site_fract_y
_atom_site_fract_z
Si Si1 0.859593 0.905788 0.613543
Si Si2 0.712663 0.906691 0.241005
Si Si3 0.106227 0.222874 0.887933
Si Si4 0.554272 0.597244 0.249697
Si Si5 0.784712 0.169138 0.107128
Si Si6 0.377468 0.091655 0.886484
Si Si7 0.805525 0.734455 0.393188
O O1 0.862780 0.906043 0.500000
O O2 0.910492 0.896310 0.661562
O O3 0.829460 0.822505 0.637850
O O4 0.841153 0.000000 0.641584
O O5 0.762430 0.885755 0.191228
O O6 0.674905 0.906863 0.155892
O O7 0.692691 0.839492 0.316093
O O8 0.714397 0.000000 0.284239
O O9 0.074118 0.160024 0.829042
O O10 0.161541 0.197887 0.875592
O O11 0.099036 0.320294 0.856753
O O12 0.096503 0.216786 0.000000
O O13 0.500000 0.615050 0.273461
O O14 0.557147 0.500000 0.215812
O O15 0.750000 0.250000 0.106416
O O16 0.782718 0.131732 0.000000
O O17 0.398635 0.000000 0.859251
O O18 0.374693 0.094558 0.000000
O O19 0.822862 0.712623 0.500000
O O20 0.750000 0.750000 0.400648
#
# Coordination Sequence:
#
# PCOD9486137 Si02
#       7
#    16  16  16  16  16  16  16
#     4   9  19  37  61  84 105 135 177 224 273 322
#     4  11  21  30  47  72 102 144 181 214 256 300
#     4  10  20  34  54  75 104 146 182 217 265 322
#     4  10  22  38  56  80 108 137 175 226 279 328
#     4  10  19  32  49  73 106 142 182 225 265 310
#     4   9  17  30  49  76 106 134 169 211 257 310
#     4  10  22  37  51  72 106 143 176 213 257 314
#
# _framework density 17.675182
#
# number of rings (size 3 to 8) (size 9 to 14) (size 15 to 20)
#    0.000    2.143    1.429    1.714    2.000    3.143 
#    0.000    5.000    0.000    0.429    0.000    2.000 
#    0.000    0.000    0.000   12.286    0.000    0.429 
#
# Total GULP energy -312112.128455 kJ/mol
# GULP energy per Si atom -5573.430865 kJ/mol
# Density = 1.763495 g / cm^3
# Si number density = 17.675182 Si / 1000 Ang^3
#
#
#
# Elastic Constant Matrix: (Units=GPa)
#
#
# Indices 1 2 3 4 5 6 
#
# 1 69.1890 58.1301 20.9619 0.0000 0.0000 0.0000
# 2 58.1301 152.4914 53.8329 0.0000 0.0000 0.0000
# 3 20.9619 53.8329 47.6572 0.0000 0.0000 0.0000
# 4 0.0000 0.0000 0.0000 35.3802 0.0000 0.0000
# 5 0.0000 0.0000 0.0000 0.0000 15.2002 0.0000
# 6 0.0000 0.0000 0.0000 0.0000 0.0000 23.2319
#
#
#
# Elastic Compliance Matrix: (Units=1/GPa)
#
#
# Indices 1 2 3 4 5 6 
#
# 1 0.021266 -0.007991 -0.000327 0.000000 0.000000 0.000000
# 2 -0.007991 0.013910 -0.012198 0.000000 0.000000 0.000000
# 3 -0.000327 -0.012198 0.034905 0.000000 0.000000 0.000000
# 4 0.000000 0.000000 0.000000 0.028264 0.000000 0.000000
# 5 0.000000 0.000000 0.000000 0.000000 0.065789 0.000000
# 6 0.000000 0.000000 0.000000 0.000000 0.000000 0.043044
#
#
# Mechanical properties :
#
#
# Convention : Reuss Voigt Hill
#
# Bulk Modulus (GPa) = 34.42380 59.46527 46.94454
# Shear Modulus (GPa) = 19.38778 23.85666 21.62222
#
# Velocity S-wave (km/s) = 3.31553 3.67785 3.50138
# Velocity P-wave (km/s) = 5.84594 7.19387 6.55465
#
# Compressibility (1/GPa) = 0.02904967
#
# Stress axis : x y z
#
# Youngs Moduli (GPa) = 47.02293 71.89010 28.64879
#
# Poissons Ratio (x) = 0.57449 0.00937
# Poissons Ratio (y) = 0.37577 0.34945
# Poissons Ratio (z) = 0.01538 0.87690
#
# Static dielectric constant tensor:
#      x y z
#    x 1.573900 0.000000 0.000000 
#    y 0.000000 1.680980 0.000000 
#    z 0.000000 0.000000 1.636000 
# 
# From -- ./inp_files/41091.got.cif
#   From: 2010.05.17/outbox.cif.g08.bks.cpg/sg65_21_cif.got.tgz:41091.got - 2010.06.03 17:01:31.
