data_PCOD9486902
_publ_section_title
;
Structure prediction by ZEFSAII (Michael W. Deem and Ramdas Pophale) SiO2 
 PCOD9486902
Probable space group: C M M M
;
_chemical_formula_sum "Si O2"
_cell_formula_units_Z 104
_cell_length_a 23.920516
_cell_length_b 27.364201
_cell_length_c 7.458113
_cell_angle_alpha 90.000000
_cell_angle_beta 90.000000
_cell_angle_gamma 90.000000
_cell_volume 4881.825761
_symmetry_space_group_name_H-M "C M M M"
_symmetry_group_IT_number 65
_symmetry_cell_setting 'orthorhombic'
loop_
_space_group_symop_operation_xyz
x,y,z
-x,-y,z
x,-y,-z
-x,y,-z
-x,-y,-z
x,y,-z
-x,y,z
x,-y,z
1/2+x,1/2+y,z
1/2-x,1/2-y,z
1/2+x,1/2-y,-z
1/2-x,1/2+y,-z
1/2-x,1/2-y,-z
1/2+x,1/2+y,-z
1/2-x,1/2+y,z
1/2+x,1/2-y,z
loop_
_atom_site_type_symbol
_atom_site_label
_atom_site_fract_x
_atom_site_fract_y
_atom_site_fract_z
Si Si1 0.351020 0.134026 0.200409
Si Si2 0.062523 0.175984 0.284018
Si Si3 0.937234 0.290670 0.213057
Si Si4 0.860213 0.090002 0.717111
Si Si5 0.936744 0.000000 0.718583
Si Si6 0.764692 0.444025 0.209946
Si Si7 0.434754 0.053580 0.715724
O O1 0.383244 0.180222 0.285960
O O2 0.303245 0.099749 0.287329
O O3 0.401716 0.095842 0.191479
O O4 0.331281 0.148419 0.000000
O O5 0.061737 0.172486 0.500000
O O6 0.069578 0.232736 0.237403
O O7 0.112392 0.140941 0.221352
O O8 0.000000 0.160728 0.222020
O O9 0.000000 0.303939 0.282985
O O10 0.938218 0.300771 0.000000
O O11 0.857841 0.090716 0.500000
O O12 0.903018 0.047769 0.773189
O O13 0.798902 0.074325 0.778194
O O14 0.937826 0.000000 0.500000
O O15 0.000000 0.000000 0.781428
O O16 0.769586 0.500000 0.282420
O O17 0.780352 0.447066 0.000000
O O18 0.429527 0.058482 0.500000
O O19 0.500000 0.055422 0.758374
O O20 0.412750 0.000000 0.765334
#
# Coordination Sequence:
#
# PCOD9486902 Si02
#       7
#    16  16  16  16   8  16  16
#     4  10  20  34  52  73  97 133 181 222 256 300
#     4   9  18  33  54  80 107 133 164 205 256 313
#     4   9  18  33  53  77 103 131 168 215 263 309
#     4  10  19  33  54  79 104 134 171 208 251 306
#     4   9  16  28  51  81 107 129 160 205 252 301
#     4  10  21  36  52  72 103 140 175 215 261 305
#     4   9  18  31  46  69 101 131 161 207 268 323
#
# _framework density 21.303505000000001
#
# number of rings (size 3 to 8) (size 9 to 14) (size 15 to 20)
#    0.000    2.538    0.769    1.846    0.000    5.538 
#    0.000    3.077    0.000    6.462    0.000    0.000 
#    0.000    0.000    0.000    0.000    0.000    0.000 
#
# Total GULP energy -290022.316922 kJ/mol
# GULP energy per Si atom -5577.352248 kJ/mol
# Density = 2.125502 g / cm^3
# Si number density = 21.303505 Si / 1000 Ang^3
#
#
#
# Elastic Constant Matrix: (Units=GPa)
#
#
# Indices 1 2 3 4 5 6 
#
# 1 137.0274 76.0471 1.6922 0.0000 0.0000 0.0000
# 2 76.0471 111.7286 -0.9264 0.0000 0.0000 0.0000
# 3 1.6922 -0.9264 60.6854 0.0000 0.0000 0.0000
# 4 0.0000 0.0000 0.0000 9.5381 0.0000 0.0000
# 5 0.0000 0.0000 0.0000 0.0000 16.2415 0.0000
# 6 0.0000 0.0000 0.0000 0.0000 0.0000 39.3737
#
#
#
# Elastic Compliance Matrix: (Units=1/GPa)
#
#
# Indices 1 2 3 4 5 6 
#
# 1 0.011740 -0.007995 -0.000449 0.000000 0.000000 0.000000
# 2 -0.007995 0.014395 0.000443 0.000000 0.000000 0.000000
# 3 -0.000449 0.000443 0.016498 0.000000 0.000000 0.000000
# 4 0.000000 0.000000 0.000000 0.104843 0.000000 0.000000
# 5 0.000000 0.000000 0.000000 0.000000 0.061571 0.000000
# 6 0.000000 0.000000 0.000000 0.000000 0.000000 0.025398
#
#
# Mechanical properties :
#
#
# Convention : Reuss Voigt Hill
#
# Bulk Modulus (GPa) = 37.55074 51.45191 44.50133
# Shear Modulus (GPa) = 19.28091 28.53924 23.91008
#
# Velocity S-wave (km/s) = 3.01168 3.66409 3.35379
# Velocity P-wave (km/s) = 5.45513 6.48884 5.99431
#
# Compressibility (1/GPa) = 0.02663063
#
# Stress axis : x y z
#
# Youngs Moduli (GPa) = 85.17774 69.46690 60.61449
#
# Poissons Ratio (x) = 0.55536 0.02724
# Poissons Ratio (y) = 0.68096 -0.02683
# Poissons Ratio (z) = 0.03828 -0.03075
#
# Static dielectric constant tensor:
#      x y z
#    x 1.767570 0.000000 0.000000 
#    y 0.000000 1.774720 0.000000 
#    z 0.000000 0.000000 1.839620 
# 
# From -- ./inp_files/14810.got.cif
#   From: 2010.05.17/outbox.cif.g08.bks.cpg/sg65_8_cif.got.tgz:14810.got - 2010.06.03 17:01:31.
