data_PCOD9486975
_publ_section_title
;
Structure prediction by ZEFSAII (Michael W. Deem and Ramdas Pophale) SiO2 
 PCOD9486975
Probable space group: C M M M
;
_chemical_formula_sum "Si O2"
_cell_formula_units_Z 64
_cell_length_a 7.850978
_cell_length_b 18.597743
_cell_length_c 21.614957
_cell_angle_alpha 90.000000
_cell_angle_beta 90.000000
_cell_angle_gamma 90.000000
_cell_volume 3156.010055
_symmetry_space_group_name_H-M "C M M M"
_symmetry_group_IT_number 65
_symmetry_cell_setting 'orthorhombic'
loop_
_space_group_symop_operation_xyz
x,y,z
-x,-y,z
x,-y,-z
-x,y,-z
-x,-y,-z
x,y,-z
-x,y,z
x,-y,z
1/2+x,1/2+y,z
1/2-x,1/2-y,z
1/2+x,1/2-y,-z
1/2-x,1/2+y,-z
1/2-x,1/2-y,-z
1/2+x,1/2+y,-z
1/2-x,1/2+y,z
1/2+x,1/2-y,z
loop_
_atom_site_type_symbol
_atom_site_label
_atom_site_fract_x
_atom_site_fract_y
_atom_site_fract_z
Si Si1 0.794998 0.666320 0.000000
Si Si2 0.291205 0.083127 0.122673
Si Si3 0.295175 0.581894 0.633844
Si Si4 0.303003 0.587656 0.500000
Si Si5 0.297606 0.166823 0.243944
O O1 0.750000 0.750000 0.000000
O O2 0.734071 0.626408 0.938009
O O3 0.000000 0.660863 0.000000
O O4 0.500000 0.083978 0.122769
O O5 0.230583 0.121991 0.185170
O O6 0.239093 0.000000 0.120627
O O7 0.500000 0.577951 0.627574
O O8 0.233675 0.500000 0.645460
O O9 0.227373 0.607808 0.566726
O O10 0.257351 0.632259 0.691352
O O11 0.304543 0.500000 0.500000
O O12 0.500000 0.612384 0.500000
O O13 0.500000 0.161657 0.241610
O O14 0.250000 0.250000 0.239375
#
# Coordination Sequence:
#
# PCOD9486975 Si02
#       5
#     8  16  16   8  16
#     4  10  19  33  55  79 105 136 168 204 248 300
#     4   9  18  33  54  78 101 130 171 214 253 298
#     4   9  17  32  55  80 104 132 168 209 255 308
#     4   7  12  26  50  77 102 129 163 205 252 303
#     4  11  22  35  51  73 104 138 173 214 259 307
#
# _framework density 20.278770000000002
#
# number of rings (size 3 to 8) (size 9 to 14) (size 15 to 20)
#    0.000    2.625    0.000    4.125    0.000    3.000 
#    0.000    2.500    0.000    6.750    0.000    0.000 
#    0.000    0.000    0.000    0.000    0.000    0.000 
#
# Total GULP energy -178553.261321 kJ/mol
# GULP energy per Si atom -5579.789416 kJ/mol
# Density = 2.023261 g / cm^3
# Si number density = 20.278770 Si / 1000 Ang^3
#
#
#
# Elastic Constant Matrix: (Units=GPa)
#
#
# Indices 1 2 3 4 5 6 
#
# 1 24.1516 2.0789 11.0996 0.0000 0.0000 0.0000
# 2 2.0789 163.3166 125.9945 0.0000 0.0000 0.0000
# 3 11.0996 125.9945 240.9513 0.0000 0.0000 0.0000
# 4 0.0000 0.0000 0.0000 -7.4925 0.0000 0.0000
# 5 0.0000 0.0000 0.0000 0.0000 13.6280 0.0000
# 6 0.0000 0.0000 0.0000 0.0000 0.0000 -30.1087
#
#
#
# Elastic Compliance Matrix: (Units=1/GPa)
#
#
# Indices 1 2 3 4 5 6 
#
# 1 0.042557 0.001627 -0.002811 0.000000 0.000000 0.000000
# 2 0.001627 0.010326 -0.005474 0.000000 0.000000 0.000000
# 3 -0.002811 -0.005474 0.007142 0.000000 0.000000 0.000000
# 4 0.000000 0.000000 0.000000 -0.133467 0.000000 0.000000
# 5 0.000000 0.000000 0.000000 0.000000 0.073378 0.000000
# 6 0.000000 0.000000 0.000000 0.000000 0.000000 -0.033213
#
#
# Mechanical properties :
#
#
# Convention : Reuss Voigt Hill
#
# Bulk Modulus (GPa) = 21.40954 78.52947 49.96951
# Shear Modulus (GPa) = -1138.82833 14.48848 -562.16993
#
# Velocity S-wave (km/s) = -23.72353 2.67585 -16.66802
# Velocity P-wave (km/s) = 27.19976 6.95384 18.59396
#
# Compressibility (1/GPa) = 0.04670814
#
# Stress axis : x y z
#
# Youngs Moduli (GPa) = 23.49784 96.84653 140.01229
#
# Poissons Ratio (x) = -0.15758 0.39361
# Poissons Ratio (y) = -0.03823 0.76646
# Poissons Ratio (z) = 0.06606 0.53016
#
# Static dielectric constant tensor:
#      x y z
#    x 1.764500 0.000000 0.000000 
#    y 0.000000 1.649720 0.000000 
#    z 0.000000 0.000000 1.747040 
# 
# From -- ./inp_files/58788.got.cif
#   From: 2010.05.17/outbox.cif.g08.bks.cpg/sg65_30_cif.got.tgz:58788.got - 2010.06.03 17:01:31.
