data_PCOD9486379
_publ_section_title
;
Structure prediction by ZEFSAII (Michael W. Deem and Ramdas Pophale) SiO2 
 PCOD9486379
Probable space group: C M M M
;
_chemical_formula_sum "Si O2"
_cell_formula_units_Z 58
_cell_length_a 30.449517
_cell_length_b 15.007194
_cell_length_c 7.268172
_cell_angle_alpha 90.000000
_cell_angle_beta 90.000000
_cell_angle_gamma 90.000000
_cell_volume 3321.277024
_symmetry_space_group_name_H-M "C M M M"
_symmetry_group_IT_number 65
_symmetry_cell_setting 'orthorhombic'
loop_
_space_group_symop_operation_xyz
x,y,z
-x,-y,z
x,-y,-z
-x,y,-z
-x,-y,-z
x,y,-z
-x,y,z
x,-y,z
1/2+x,1/2+y,z
1/2-x,1/2-y,z
1/2+x,1/2-y,-z
1/2-x,1/2+y,-z
1/2-x,1/2-y,-z
1/2+x,1/2+y,-z
1/2-x,1/2+y,z
1/2+x,1/2-y,z
loop_
_atom_site_type_symbol
_atom_site_label
_atom_site_fract_x
_atom_site_fract_y
_atom_site_fract_z
Si Si1 0.664202 0.500000 0.222944
Si Si2 0.000000 0.000000 0.500000
Si Si3 0.048351 0.185681 0.500000
Si Si4 0.376632 0.310535 0.778710
Si Si5 0.292893 0.805801 0.223669
Si Si6 0.734253 0.000000 0.224300
O O1 0.639919 0.409388 0.275337
O O2 0.714824 0.500000 0.282734
O O3 0.665397 0.500000 0.000000
O O4 0.962648 0.920005 0.500000
O O5 0.078084 0.207985 0.675758
O O6 0.000000 0.229038 0.500000
O O7 0.337776 0.242949 0.724161
O O8 0.381618 0.308050 0.000000
O O9 0.250000 0.750000 0.282716
O O10 0.288170 0.908021 0.282450
O O11 0.292028 0.804692 0.000000
O O12 0.734351 0.000000 0.000000
#
# Coordination Sequence:
#
# PCOD9486379 Si02
#       6
#     8   2   8  16  16   8
#     4   9  15  24  45  73 101 137 172 198 236 290
#     4   8  20  40  54  72 104 132 156 216 274 296
#     4  10  22  38  51  70 101 128 163 217 263 298
#     4  10  19  32  52  74  99 138 174 200 244 303
#     4   9  15  25  44  73 105 137 173 205 240 292
#     4   9  14  23  42  71 107 142 171 204 241 283
#
# _framework density 17.463160999999999
#
# number of rings (size 3 to 8) (size 9 to 14) (size 15 to 20)
#    0.414    2.207    2.759    0.828    0.000    0.552 
#    0.000    1.379    0.000    0.828    0.000    1.931 
#    0.000    5.517    0.000    0.000    0.000    0.000 
#
# Total GULP energy -161482.831724 kJ/mol
# GULP energy per Si atom -5568.373508 kJ/mol
# Density = 1.742341 g / cm^3
# Si number density = 17.463161 Si / 1000 Ang^3
#
#
#
# Elastic Constant Matrix: (Units=GPa)
#
#
# Indices 1 2 3 4 5 6 
#
# 1 170.2879 70.7095 42.8184 0.0000 0.0000 0.0000
# 2 70.7095 120.7255 20.3141 0.0000 0.0000 0.0000
# 3 42.8184 20.3141 85.3966 0.0000 0.0000 0.0000
# 4 0.0000 0.0000 0.0000 -16.6700 0.0000 0.0000
# 5 0.0000 0.0000 0.0000 0.0000 26.0155 0.0000
# 6 0.0000 0.0000 0.0000 0.0000 0.0000 31.1191
#
#
#
# Elastic Compliance Matrix: (Units=1/GPa)
#
#
# Indices 1 2 3 4 5 6 
#
# 1 0.008532 -0.004456 -0.003218 0.000000 0.000000 0.000000
# 2 -0.004456 0.010956 -0.000372 0.000000 0.000000 0.000000
# 3 -0.003218 -0.000372 0.013412 0.000000 0.000000 0.000000
# 4 0.000000 0.000000 0.000000 -0.059988 0.000000 0.000000
# 5 0.000000 0.000000 0.000000 0.000000 0.038439 0.000000
# 6 0.000000 0.000000 0.000000 0.000000 0.000000 0.032135
#
#
# Mechanical properties :
#
#
# Convention : Reuss Voigt Hill
#
# Bulk Modulus (GPa) = 59.49500 71.56601 65.53050
# Shear Modulus (GPa) = 76.71264 24.26411 50.48838
#
# Velocity S-wave (km/s) = 6.63503 3.73157 5.38276
# Velocity P-wave (km/s) = 9.63540 7.72245 8.73147
#
# Compressibility (1/GPa) = 0.01680814
#
# Stress axis : x y z
#
# Youngs Moduli (GPa) = 117.21050 91.27830 74.55969
#
# Poissons Ratio (x) = 0.40670 0.23993
# Poissons Ratio (y) = 0.52224 0.02774
# Poissons Ratio (z) = 0.37718 0.03396
#
# Static dielectric constant tensor:
#      x y z
#    x 1.564220 0.000000 0.000000 
#    y 0.000000 1.578770 0.000000 
#    z 0.000000 0.000000 1.661610 
# 
# From -- ./inp_files/15587.got.cif
#   From: 2010.05.17/outbox.cif.g08.bks.cpg/sg65_8_cif.got.tgz:15587.got - 2010.06.03 17:01:31.
