data_PCOD9486095
_publ_section_title
;
Structure prediction by ZEFSAII (Michael W. Deem and Ramdas Pophale) SiO2 
 PCOD9486095
Probable space group: C M M M
;
_chemical_formula_sum "Si O2"
_cell_formula_units_Z 72
_cell_length_a 8.709182
_cell_length_b 34.482690
_cell_length_c 16.024231
_cell_angle_alpha 90.000000
_cell_angle_beta 90.000000
_cell_angle_gamma 90.000000
_cell_volume 4812.333327
_symmetry_space_group_name_H-M "C M M M"
_symmetry_group_IT_number 65
_symmetry_cell_setting 'orthorhombic'
loop_
_space_group_symop_operation_xyz
x,y,z
-x,-y,z
x,-y,-z
-x,y,-z
-x,-y,-z
x,y,-z
-x,y,z
x,-y,z
1/2+x,1/2+y,z
1/2-x,1/2-y,z
1/2+x,1/2-y,-z
1/2-x,1/2+y,-z
1/2-x,1/2-y,-z
1/2+x,1/2+y,-z
1/2-x,1/2+y,z
1/2+x,1/2-y,z
loop_
_atom_site_type_symbol
_atom_site_label
_atom_site_fract_x
_atom_site_fract_y
_atom_site_fract_z
Si Si1 0.815752 0.293346 0.000000
Si Si2 0.182931 0.417806 0.599376
Si Si3 0.682984 0.338842 0.658990
Si Si4 0.683902 0.206703 0.500000
Si Si5 0.177331 0.000000 0.398715
Si Si6 0.314754 0.793908 0.816423
O O1 0.750000 0.250000 0.000000
O O2 0.771648 0.309623 0.090779
O O3 0.000000 0.291375 0.000000
O O4 0.217614 0.413534 0.500000
O O5 0.266092 0.383298 0.647623
O O6 0.239391 0.460320 0.626521
O O7 0.000000 0.414515 0.608905
O O8 0.500000 0.335438 0.655289
O O9 0.756447 0.315568 0.581589
O O10 0.745924 0.320049 0.743675
O O11 0.500000 0.207397 0.500000
O O12 0.750000 0.250000 0.500000
O O13 0.180232 0.000000 0.500000
O O14 0.000000 0.000000 0.372357
O O15 0.500000 0.792546 0.809561
O O16 0.250000 0.750000 0.808746
#
# Coordination Sequence:
#
# PCOD9486095 Si02
#       6
#     8  16  16   8   8  16
#     4   8  16  30  50  70  90 117 150 193 240 286
#     4  10  19  32  49  68  92 123 159 196 235 277
#     4  12  23  34  48  68  94 125 160 198 237 279
#     4  12  24  38  50  63  86 123 164 202 236 274
#     4   9  17  29  47  69  93 120 153 192 234 280
#     4  10  19  33  50  70  94 122 158 197 240 285
#
# _framework density 14.961557000000001
#
# number of rings (size 3 to 8) (size 9 to 14) (size 15 to 20)
#    0.000    1.667    1.111    5.333    0.000    3.111 
#    0.000    0.000    0.000    0.000    0.000    0.000 
#    0.000    0.889    0.000    9.556    0.000    4.222 
#
# Total GULP energy -200882.216967 kJ/mol
# GULP energy per Si atom -5580.061582 kJ/mol
# Density = 1.492750 g / cm^3
# Si number density = 14.961557 Si / 1000 Ang^3
#
#
#
# Elastic Constant Matrix: (Units=GPa)
#
#
# Indices 1 2 3 4 5 6 
#
# 1 103.8130 50.5590 53.9636 0.0000 0.0000 0.0000
# 2 50.5590 110.0075 59.1573 0.0000 0.0000 0.0000
# 3 53.9636 59.1573 123.7095 0.0000 0.0000 0.0000
# 4 0.0000 0.0000 0.0000 -1.4967 0.0000 0.0000
# 5 0.0000 0.0000 0.0000 0.0000 10.7280 0.0000
# 6 0.0000 0.0000 0.0000 0.0000 0.0000 28.8875
#
#
#
# Elastic Compliance Matrix: (Units=1/GPa)
#
#
# Indices 1 2 3 4 5 6 
#
# 1 0.013741 -0.004162 -0.004004 0.000000 0.000000 0.000000
# 2 -0.004162 0.013498 -0.004639 0.000000 0.000000 0.000000
# 3 -0.004004 -0.004639 0.012048 0.000000 0.000000 0.000000
# 4 0.000000 0.000000 0.000000 -0.668152 0.000000 0.000000
# 5 0.000000 0.000000 0.000000 0.000000 0.093214 0.000000
# 6 0.000000 0.000000 0.000000 0.000000 0.000000 0.034617
#
#
# Mechanical properties :
#
#
# Convention : Reuss Voigt Hill
#
# Bulk Modulus (GPa) = 73.11378 73.87664 73.49521
# Shear Modulus (GPa) = -10.61875 19.21378 4.29751
#
# Velocity S-wave (km/s) = -2.66698 3.58747 1.69665
# Velocity P-wave (km/s) = 6.28412 8.16363 7.28474
#
# Compressibility (1/GPa) = 0.01367731
#
# Stress axis : x y z
#
# Youngs Moduli (GPa) = 72.77513 74.08543 83.00002
#
# Poissons Ratio (x) = 0.30837 0.33230
# Poissons Ratio (y) = 0.30292 0.38504
# Poissons Ratio (z) = 0.29136 0.34368
#
# Static dielectric constant tensor:
#      x y z
#    x 1.497870 0.000000 0.000000 
#    y 0.000000 1.476820 0.000000 
#    z 0.000000 0.000000 1.500420 
# 
# From -- ./inp_files/37078.got.cif
#   From: 2010.05.17/outbox.cif.g08.bks.cpg/sg65_19_cif.got.tgz:37078.got - 2010.06.03 17:01:31.
