data_PCOD9486020
_publ_section_title
;
Structure prediction by ZEFSAII (Michael W. Deem and Ramdas Pophale) SiO2 
 PCOD9486020
Probable space group: C M M M
;
_chemical_formula_sum "Si O2"
_cell_formula_units_Z 128
_cell_length_a 21.572131
_cell_length_b 16.267737
_cell_length_c 20.030682
_cell_angle_alpha 90.000000
_cell_angle_beta 90.000000
_cell_angle_gamma 90.000000
_cell_volume 7029.362299
_symmetry_space_group_name_H-M "C M M M"
_symmetry_group_IT_number 65
_symmetry_cell_setting 'orthorhombic'
loop_
_space_group_symop_operation_xyz
x,y,z
-x,-y,z
x,-y,-z
-x,y,-z
-x,-y,-z
x,y,-z
-x,y,z
x,-y,z
1/2+x,1/2+y,z
1/2-x,1/2-y,z
1/2+x,1/2-y,-z
1/2-x,1/2+y,-z
1/2-x,1/2-y,-z
1/2+x,1/2+y,-z
1/2-x,1/2+y,z
1/2+x,1/2-y,z
loop_
_atom_site_type_symbol
_atom_site_label
_atom_site_fract_x
_atom_site_fract_y
_atom_site_fract_z
Si Si1 0.748886 0.597529 0.300198
Si Si2 0.804298 0.682897 0.571773
Si Si3 0.567751 0.752919 0.382480
Si Si4 0.066527 0.645145 0.751588
Si Si5 0.324176 0.237556 0.078622
Si Si6 0.182182 0.408071 0.175912
Si Si7 0.397451 0.403894 0.299410
Si Si8 0.429293 0.684903 0.835008
O O1 0.759019 0.500000 0.296650
O O2 0.788636 0.632305 0.361409
O O3 0.767745 0.630951 0.227063
O O4 0.675986 0.611143 0.309567
O O5 0.801866 0.637440 0.500000
O O6 0.750000 0.750000 0.570809
O O7 0.870461 0.728093 0.576814
O O8 0.500000 0.760531 0.415172
O O9 0.570728 0.820397 0.323067
O O10 0.571300 0.663246 0.347537
O O11 0.122354 0.590722 0.776343
O O12 0.068701 0.728297 0.795719
O O13 0.000000 0.604975 0.761213
O O14 0.250000 0.250000 0.087053
O O15 0.333442 0.149642 0.114143
O O16 0.371796 0.301976 0.113962
O O17 0.337403 0.236360 0.000000
O O18 0.200240 0.500000 0.155350
O O19 0.411145 0.500000 0.312780
O O20 0.414889 0.381428 0.222960
O O21 0.500000 0.671267 0.861706
#
# Coordination Sequence:
#
# PCOD9486020 Si02
#       8
#    16  16  16  16  16  16  16  16
#     4  10  20  34  54  82 111 144 185 232 284 332
#     4  11  22  36  56  80 107 148 193 232 277 330
#     4  10  19  33  54  79 109 143 182 228 276 329
#     4   8  15  28  47  72 100 135 171 209 263 316
#     4  10  21  36  54  77 108 148 185 221 273 329
#     4  10  19  31  52  80 106 134 175 225 275 324
#     4  10  19  32  54  84 114 141 178 230 286 337
#     4   9  18  32  52  78 106 139 182 226 266 317
#
# _framework density 18.209333000000001
#
# number of rings (size 3 to 8) (size 9 to 14) (size 15 to 20)
#    0.000    2.250    2.500    1.875    0.000    2.750 
#    0.000    0.000    0.000    1.875    0.000    6.125 
#    0.000    0.000    0.000    0.000    0.000    0.000 
#
# Total GULP energy -356278.506481 kJ/mol
# GULP energy per Si atom -5566.851664 kJ/mol
# Density = 1.816789 g / cm^3
# Si number density = 18.209333 Si / 1000 Ang^3
#
#
#
# Elastic Constant Matrix: (Units=GPa)
#
#
# Indices 1 2 3 4 5 6 
#
# 1 123.1574 12.1468 27.7961 0.0000 0.0000 0.0000
# 2 12.1468 40.5817 10.5725 0.0000 0.0000 0.0000
# 3 27.7961 10.5725 73.5732 0.0000 0.0000 0.0000
# 4 0.0000 0.0000 0.0000 12.1700 0.0000 0.0000
# 5 0.0000 0.0000 0.0000 0.0000 -230.7513 0.0000
# 6 0.0000 0.0000 0.0000 0.0000 0.0000 16.1701
#
#
#
# Elastic Compliance Matrix: (Units=1/GPa)
#
#
# Indices 1 2 3 4 5 6 
#
# 1 0.009013 -0.001881 -0.003135 0.000000 0.000000 0.000000
# 2 -0.001881 0.025993 -0.003025 0.000000 0.000000 0.000000
# 3 -0.003135 -0.003025 0.015211 0.000000 0.000000 0.000000
# 4 0.000000 0.000000 0.000000 0.082169 0.000000 0.000000
# 5 0.000000 0.000000 0.000000 0.000000 -0.004334 0.000000
# 6 0.000000 0.000000 0.000000 0.000000 0.000000 0.061842
#
#
# Mechanical properties :
#
#
# Convention : Reuss Voigt Hill
#
# Bulk Modulus (GPa) = 29.29483 37.59370 33.44426
# Shear Modulus (GPa) = 23.00403 -28.02911 -2.51254
#
# Velocity S-wave (km/s) = 3.55816 -3.92761 -1.17593
# Velocity P-wave (km/s) = 5.74486 0.34919 4.06973
#
# Compressibility (1/GPa) = 0.03413572
#
# Stress axis : x y z
#
# Youngs Moduli (GPa) = 110.95449 38.47240 65.74263
#
# Poissons Ratio (x) = 0.07237 0.20608
# Poissons Ratio (y) = 0.20870 0.19884
# Poissons Ratio (z) = 0.34781 0.11636
#
# Static dielectric constant tensor:
#      x y z
#    x 1.679550 0.000000 0.000000 
#    y 0.000000 1.617700 0.000000 
#    z 0.000000 0.000000 1.630430 
# 
# From -- ./inp_files/64880.got.cif
#   From: 2010.05.17/outbox.cif.g08.bks.cpg/sg65_33_cif.got.tgz:64880.got - 2010.06.03 17:01:31.
