data_PCOD9486217
_publ_section_title
;
Structure prediction by ZEFSAII (Michael W. Deem and Ramdas Pophale) SiO2 
 PCOD9486217
Probable space group: C M M M
;
_chemical_formula_sum "Si O2"
_cell_formula_units_Z 88
_cell_length_a 14.703002
_cell_length_b 18.829994
_cell_length_c 18.124207
_cell_angle_alpha 90.000000
_cell_angle_beta 90.000000
_cell_angle_gamma 90.000000
_cell_volume 5017.821542
_symmetry_space_group_name_H-M "C M M M"
_symmetry_group_IT_number 65
_symmetry_cell_setting 'orthorhombic'
loop_
_space_group_symop_operation_xyz
x,y,z
-x,-y,z
x,-y,-z
-x,y,-z
-x,-y,-z
x,y,-z
-x,y,z
x,-y,z
1/2+x,1/2+y,z
1/2-x,1/2-y,z
1/2+x,1/2-y,-z
1/2-x,1/2+y,-z
1/2-x,1/2-y,-z
1/2+x,1/2+y,-z
1/2-x,1/2+y,z
1/2+x,1/2-y,z
loop_
_atom_site_type_symbol
_atom_site_label
_atom_site_fract_x
_atom_site_fract_y
_atom_site_fract_z
Si Si1 0.603350 0.913817 0.915591
Si Si2 0.776180 0.585059 0.779583
Si Si3 0.651091 0.287415 0.585126
Si Si4 0.610339 0.080126 0.500000
Si Si5 0.601877 0.149525 0.652534
Si Si6 0.392652 0.416474 0.686212
O O1 0.500000 0.892448 0.892938
O O2 0.681683 0.892657 0.858152
O O3 0.603096 0.000000 0.916790
O O4 0.618463 0.890161 0.000000
O O5 0.791849 0.500000 0.772368
O O6 0.834100 0.625655 0.717887
O O7 0.671022 0.597303 0.757866
O O8 0.619239 0.288021 0.500000
O O9 0.750000 0.250000 0.585378
O O10 0.597693 0.233160 0.637771
O O11 0.642535 0.364456 0.621670
O O12 0.500000 0.081130 0.500000
O O13 0.637617 0.117980 0.575002
O O14 0.642731 0.000000 0.500000
O O15 0.500000 0.121369 0.665427
O O16 0.500000 0.404409 0.698522
O O17 0.380831 0.500000 0.666930
#
# Coordination Sequence:
#
# PCOD9486217 Si02
#       6
#    16  16  16   8  16  16
#     4   8  14  26  47  77 112 146 176 211 262 324
#     4  10  19  32  50  76 109 142 178 221 266 317
#     4  11  22  38  56  75 101 137 181 234 286 330
#     4   9  18  30  43  66 102 138 169 200 247 318
#     4  11  20  31  49  74 101 136 173 213 272 331
#     4  10  22  39  57  76 101 141 191 236 275 316
#
# _framework density 17.537490999999999
#
# number of rings (size 3 to 8) (size 9 to 14) (size 15 to 20)
#    0.000    2.091    2.727    2.182    0.000    3.273 
#    0.000    0.909    0.000    0.545    0.000    6.364 
#    0.000    2.909    0.000    0.182    0.000    0.000 
#
# Total GULP energy -245167.264774 kJ/mol
# GULP energy per Si atom -5571.983290 kJ/mol
# Density = 1.749758 g / cm^3
# Si number density = 17.537491 Si / 1000 Ang^3
#
#
#
# Elastic Constant Matrix: (Units=GPa)
#
#
# Indices 1 2 3 4 5 6 
#
# 1 112.1801 31.1400 53.3761 0.0000 0.0000 0.0000
# 2 31.1400 56.2042 28.0650 0.0000 0.0000 0.0000
# 3 53.3761 28.0650 98.8548 0.0000 0.0000 0.0000
# 4 0.0000 0.0000 0.0000 2.3224 0.0000 0.0000
# 5 0.0000 0.0000 0.0000 0.0000 2.4093 0.0000
# 6 0.0000 0.0000 0.0000 0.0000 0.0000 17.5291
#
#
#
# Elastic Compliance Matrix: (Units=1/GPa)
#
#
# Indices 1 2 3 4 5 6 
#
# 1 0.012810 -0.004246 -0.005712 0.000000 0.000000 0.000000
# 2 -0.004246 0.022138 -0.003993 0.000000 0.000000 0.000000
# 3 -0.005712 -0.003993 0.014333 0.000000 0.000000 0.000000
# 4 0.000000 0.000000 0.000000 0.430591 0.000000 0.000000
# 5 0.000000 0.000000 0.000000 0.000000 0.415066 0.000000
# 6 0.000000 0.000000 0.000000 0.000000 0.000000 0.057048
#
#
# Mechanical properties :
#
#
# Convention : Reuss Voigt Hill
#
# Bulk Modulus (GPa) = 46.76779 54.71124 50.73952
# Shear Modulus (GPa) = 5.06578 14.76269 9.91424
#
# Velocity S-wave (km/s) = 1.70142 2.90449 2.38022
# Velocity P-wave (km/s) = 5.53037 6.52016 6.04556
#
# Compressibility (1/GPa) = 0.02138224
#
# Stress axis : x y z
#
# Youngs Moduli (GPa) = 78.06181 45.17070 69.76760
#
# Poissons Ratio (x) = 0.19178 0.39848
# Poissons Ratio (y) = 0.33142 0.27856
# Poissons Ratio (z) = 0.44585 0.18035
#
# Static dielectric constant tensor:
#      x y z
#    x 1.656130 0.000000 0.000000 
#    y 0.000000 1.623290 0.000000 
#    z 0.000000 0.000000 1.577700 
# 
# From -- ./inp_files/53009.got.cif
#   From: 2010.05.17/outbox.cif.g08.bks.cpg/sg65_27_cif.got.tgz:53009.got - 2010.06.03 17:01:31.
