data_PCOD9486170
_publ_section_title
;
Structure prediction by ZEFSAII (Michael W. Deem and Ramdas Pophale) SiO2 
 PCOD9486170
Probable space group: C M M M
;
_chemical_formula_sum "Si O2"
_cell_formula_units_Z 64
_cell_length_a 26.029737
_cell_length_b 8.877361
_cell_length_c 17.182345
_cell_angle_alpha 90.000000
_cell_angle_beta 90.000000
_cell_angle_gamma 90.000000
_cell_volume 3970.416764
_symmetry_space_group_name_H-M "C M M M"
_symmetry_group_IT_number 65
_symmetry_cell_setting 'orthorhombic'
loop_
_space_group_symop_operation_xyz
x,y,z
-x,-y,z
x,-y,-z
-x,y,-z
-x,-y,-z
x,y,-z
-x,y,z
x,-y,z
1/2+x,1/2+y,z
1/2-x,1/2-y,z
1/2+x,1/2-y,-z
1/2-x,1/2+y,-z
1/2-x,1/2-y,-z
1/2+x,1/2+y,-z
1/2-x,1/2+y,z
1/2+x,1/2-y,z
loop_
_atom_site_type_symbol
_atom_site_label
_atom_site_fract_x
_atom_site_fract_y
_atom_site_fract_z
Si Si1 0.805655 0.679550 0.591965
Si Si2 0.500000 0.177762 0.406849
Si Si3 0.438370 0.821189 0.163169
Si Si4 0.902142 0.820057 0.678714
Si Si5 0.062376 0.826244 0.000000
O O1 0.816201 0.705815 0.500000
O O2 0.804940 0.500000 0.604577
O O3 0.750000 0.750000 0.609061
O O4 0.849981 0.755749 0.642275
O O5 0.500000 0.192028 0.500000
O O6 0.550302 0.253797 0.370693
O O7 0.500000 0.000000 0.386830
O O8 0.500000 0.795518 0.171645
O O9 0.410529 0.737416 0.233499
O O10 0.422227 0.757715 0.079090
O O11 0.429818 0.000000 0.167468
O O12 0.902792 0.000000 0.675775
O O13 0.000000 0.825483 0.000000
O O14 0.079123 0.000000 0.000000
#
# Coordination Sequence:
#
# PCOD9486170 Si02
#       5
#    16   8  16  16   8
#     4  10  21  38  58  78 102 134 175 222 268 313
#     4  11  23  37  51  70 101 140 177 213 259 315
#     4  10  19  32  50  72 103 140 177 213 256 310
#     4  12  23  34  52  77 106 138 175 217 263 312
#     4   9  17  29  47  71 102 135 172 213 256 305
#
# _framework density 16.119213999999999
#
# number of rings (size 3 to 8) (size 9 to 14) (size 15 to 20)
#    0.000    1.500    1.250    5.250    0.000    8.000 
#    0.000    0.000    0.000    0.000    0.000    0.875 
#    0.000    0.000    0.000    0.000    0.000    0.000 
#
# Total GULP energy -178792.858184 kJ/mol
# GULP energy per Si atom -5587.276818 kJ/mol
# Density = 1.608253 g / cm^3
# Si number density = 16.119214 Si / 1000 Ang^3
#
#
#
# Elastic Constant Matrix: (Units=GPa)
#
#
# Indices 1 2 3 4 5 6 
#
# 1 103.2943 77.4761 82.7457 0.0000 0.0000 0.0000
# 2 77.4761 152.5395 97.7893 0.0000 0.0000 0.0000
# 3 82.7457 97.7893 136.1440 0.0000 0.0000 0.0000
# 4 0.0000 0.0000 0.0000 27.2401 0.0000 0.0000
# 5 0.0000 0.0000 0.0000 0.0000 3.7281 0.0000
# 6 0.0000 0.0000 0.0000 0.0000 0.0000 27.3367
#
#
#
# Elastic Compliance Matrix: (Units=1/GPa)
#
#
# Indices 1 2 3 4 5 6 
#
# 1 0.020388 -0.004469 -0.009181 0.000000 0.000000 0.000000
# 2 -0.004469 0.013131 -0.006715 0.000000 0.000000 0.000000
# 3 -0.009181 -0.006715 0.017748 0.000000 0.000000 0.000000
# 4 0.000000 0.000000 0.000000 0.036711 0.000000 0.000000
# 5 0.000000 0.000000 0.000000 0.000000 0.268231 0.000000
# 6 0.000000 0.000000 0.000000 0.000000 0.000000 0.036581
#
#
# Mechanical properties :
#
#
# Convention : Reuss Voigt Hill
#
# Bulk Modulus (GPa) = 94.91261 100.88887 97.90074
# Shear Modulus (GPa) = 11.44078 20.59210 16.01644
#
# Velocity S-wave (km/s) = 2.66702 3.57807 3.15560
# Velocity P-wave (km/s) = 8.27608 8.93282 8.61071
#
# Compressibility (1/GPa) = 0.01053601
#
# Stress axis : x y z
#
# Youngs Moduli (GPa) = 49.04801 76.15842 56.34280
#
# Poissons Ratio (x) = 0.34039 0.51730
# Poissons Ratio (y) = 0.21922 0.37834
# Poissons Ratio (z) = 0.45032 0.51140
#
# Static dielectric constant tensor:
#      x y z
#    x 1.504490 0.000000 0.000000 
#    y 0.000000 1.533190 0.000000 
#    z 0.000000 0.000000 1.532660 
# 
# From -- ./inp_files/35984.got.cif
#   From: 2010.05.17/outbox.cif.g08.bks.cpg/sg65_18_cif.got.tgz:35984.got - 2010.06.03 17:01:31.
