data_PCOD9486805
_publ_section_title
;
Structure prediction by ZEFSAII (Michael W. Deem and Ramdas Pophale) SiO2 
 PCOD9486805
Probable space group: C M M M
;
_chemical_formula_sum "Si O2"
_cell_formula_units_Z 58
_cell_length_a 24.173575
_cell_length_b 19.268509
_cell_length_c 7.478810
_cell_angle_alpha 90.000000
_cell_angle_beta 90.000000
_cell_angle_gamma 90.000000
_cell_volume 3483.545542
_symmetry_space_group_name_H-M "C M M M"
_symmetry_group_IT_number 65
_symmetry_cell_setting 'orthorhombic'
loop_
_space_group_symop_operation_xyz
x,y,z
-x,-y,z
x,-y,-z
-x,y,-z
-x,-y,-z
x,y,-z
-x,y,z
x,-y,z
1/2+x,1/2+y,z
1/2-x,1/2-y,z
1/2+x,1/2-y,-z
1/2-x,1/2+y,-z
1/2-x,1/2-y,-z
1/2+x,1/2+y,-z
1/2-x,1/2+y,z
1/2+x,1/2-y,z
loop_
_atom_site_type_symbol
_atom_site_label
_atom_site_fract_x
_atom_site_fract_y
_atom_site_fract_z
Si Si1 0.000000 0.372595 0.284227
Si Si2 0.650154 0.426278 0.000000
Si Si3 0.061655 0.107274 0.708900
Si Si4 0.313619 0.270112 0.000000
Si Si5 0.000000 0.500000 0.000000
Si Si6 0.597834 0.235042 0.292081
O O1 0.945691 0.325256 0.246775
O O2 0.000000 0.387089 0.500000
O O3 0.000000 0.438983 0.157765
O O4 0.609481 0.423245 0.829944
O O5 0.680979 0.500000 0.000000
O O6 0.682851 0.354116 0.000000
O O7 0.068486 0.090327 0.500000
O O8 0.067103 0.190743 0.727020
O O9 0.000000 0.086325 0.764746
O O10 0.250000 0.250000 0.000000
O O11 0.348393 0.240833 0.831690
O O12 0.613218 0.227478 0.500000
#
# Coordination Sequence:
#
# PCOD9486805 Si02
#       6
#     8   8  16   8   2  16
#     4  10  19  33  53  78 109 137 171 214 267 324
#     4  10  21  33  46  68 101 136 161 201 255 302
#     4   9  16  28  48  75 103 132 165 196 232 289
#     4  10  21  35  54  76  98 131 182 222 257 304
#     4  12  22  28  44  78 116 148 164 196 272 352
#     4   9  17  32  55  78 101 130 169 219 260 297
#
# _framework density 16.649702999999999
#
# number of rings (size 3 to 8) (size 9 to 14) (size 15 to 20)
#    0.000    2.483    1.379    1.448    0.000    2.207 
#    0.000    1.379    6.069    0.000    0.000    0.000 
#    0.000    0.000    0.000    0.000    0.000    0.000 
#
# Total GULP energy -161441.172248 kJ/mol
# GULP energy per Si atom -5566.936974 kJ/mol
# Density = 1.661181 g / cm^3
# Si number density = 16.649703 Si / 1000 Ang^3
#
#
#
# Elastic Constant Matrix: (Units=GPa)
#
#
# Indices 1 2 3 4 5 6 
#
# 1 119.6811 52.6578 52.3282 0.0000 0.0000 0.0000
# 2 52.6578 143.2520 57.6289 0.0000 0.0000 0.0000
# 3 52.3282 57.6289 79.5338 0.0000 0.0000 0.0000
# 4 0.0000 0.0000 0.0000 -12.4957 0.0000 0.0000
# 5 0.0000 0.0000 0.0000 0.0000 9.7728 0.0000
# 6 0.0000 0.0000 0.0000 0.0000 0.0000 0.3685
#
#
#
# Elastic Compliance Matrix: (Units=1/GPa)
#
#
# Indices 1 2 3 4 5 6 
#
# 1 0.012032 -0.001748 -0.006650 0.000000 0.000000 0.000000
# 2 -0.001748 0.010107 -0.006173 0.000000 0.000000 0.000000
# 3 -0.006650 -0.006173 0.021422 0.000000 0.000000 0.000000
# 4 0.000000 0.000000 0.000000 -0.080027 0.000000 0.000000
# 5 0.000000 0.000000 0.000000 0.000000 0.102325 0.000000
# 6 0.000000 0.000000 0.000000 0.000000 0.000000 2.713676
#
#
# Mechanical properties :
#
#
# Convention : Reuss Voigt Hill
#
# Bulk Modulus (GPa) = 69.35556 74.18851 71.77204
# Shear Modulus (GPa) = 1.77716 11.51925 6.64820
#
# Velocity S-wave (km/s) = 1.03426 2.63318 2.00041
# Velocity P-wave (km/s) = 6.57057 7.34166 6.96679
#
# Compressibility (1/GPa) = 0.01441845
#
# Stress axis : x y z
#
# Youngs Moduli (GPa) = 83.11138 98.94588 46.68183
#
# Poissons Ratio (x) = 0.17292 0.31044
# Poissons Ratio (y) = 0.14524 0.28818
# Poissons Ratio (z) = 0.55269 0.61082
#
# Static dielectric constant tensor:
#      x y z
#    x 1.512980 0.000000 0.000000 
#    y 0.000000 1.587630 0.000000 
#    z 0.000000 0.000000 1.588390 
# 
# From -- ./inp_files/8598.got.cif
#   From: 2010.05.17/outbox.cif.g08.bks.cpg/sg65_5_cif.got.tgz:8598.got - 2010.06.03 17:01:31.
