data_PCOD9486311
_publ_section_title
;
Structure prediction by ZEFSAII (Michael W. Deem and Ramdas Pophale) SiO2 
 PCOD9486311
Probable space group: C M M M
;
_chemical_formula_sum "Si O2"
_cell_formula_units_Z 80
_cell_length_a 14.344077
_cell_length_b 10.835684
_cell_length_c 22.784861
_cell_angle_alpha 90.000000
_cell_angle_beta 90.000000
_cell_angle_gamma 90.000000
_cell_volume 3541.402770
_symmetry_space_group_name_H-M "C M M M"
_symmetry_group_IT_number 65
_symmetry_cell_setting 'orthorhombic'
loop_
_space_group_symop_operation_xyz
x,y,z
-x,-y,z
x,-y,-z
-x,y,-z
-x,-y,-z
x,y,-z
-x,y,z
x,-y,z
1/2+x,1/2+y,z
1/2-x,1/2-y,z
1/2+x,1/2-y,-z
1/2-x,1/2+y,-z
1/2-x,1/2-y,-z
1/2+x,1/2+y,-z
1/2-x,1/2+y,z
1/2+x,1/2-y,z
loop_
_atom_site_type_symbol
_atom_site_label
_atom_site_fract_x
_atom_site_fract_y
_atom_site_fract_z
Si Si1 0.362473 0.500000 0.433078
Si Si2 0.361486 0.745991 0.367969
Si Si3 0.388829 0.242399 0.878209
Si Si4 0.104955 0.643352 0.000000
Si Si5 0.364529 0.000000 0.430643
Si Si6 0.888849 0.000000 0.064475
Si Si7 0.610244 0.645163 0.762041
O O1 0.390036 0.500000 0.500000
O O2 0.394650 0.625560 0.402864
O O3 0.248929 0.500000 0.430375
O O4 0.250000 0.750000 0.373876
O O5 0.394129 0.875615 0.395953
O O6 0.380717 0.712358 0.300403
O O7 0.500000 0.210066 0.876262
O O8 0.369781 0.380942 0.898707
O O9 0.355358 0.255764 0.811303
O O10 0.351405 0.172397 0.936258
O O11 0.092504 0.500000 0.000000
O O12 0.000000 0.706101 0.000000
O O13 0.391319 0.000000 0.500000
O O14 0.000000 0.000000 0.057134
O O15 0.844926 0.000000 0.000000
O O16 0.500000 0.631502 0.775009
O O17 0.646325 0.500000 0.761237
#
# Coordination Sequence:
#
# PCOD9486311 Si02
#       7
#     8  16  16   8   8   8  16
#     4   9  16  29  54  82 102 126 168 221 263 291
#     4  10  19  33  53  77 106 137 170 211 256 306
#     4   9  15  24  40  62  89 121 156 202 253 292
#     4   9  16  25  37  57  90 128 166 205 247 299
#     4   9  18  32  52  78 102 128 170 219 261 301
#     4   9  12  17  34  58  82 108 141 189 246 288
#     4  10  19  32  51  75 104 136 171 211 256 305
#
# _framework density 22.589917
#
# number of rings (size 3 to 8) (size 9 to 14) (size 15 to 20)
#    0.000    2.600    3.000    0.600    0.000    2.400 
#    1.800    0.500    0.000    3.600    0.000    0.700 
#    0.000    0.000    0.000    0.000    0.000    0.000 
#
# Total GULP energy -222685.262883 kJ/mol
# GULP energy per Si atom -5567.131572 kJ/mol
# Density = 2.253850 g / cm^3
# Si number density = 22.589917 Si / 1000 Ang^3
#
#
#
# Elastic Constant Matrix: (Units=GPa)
#
#
# Indices 1 2 3 4 5 6 
#
# 1 83.5319 0.3798 -2.2435 0.0000 0.0000 0.0000
# 2 0.3798 137.8313 90.2621 0.0000 0.0000 0.0000
# 3 -2.2435 90.2621 250.5091 0.0000 0.0000 0.0000
# 4 0.0000 0.0000 0.0000 -123.9144 0.0000 0.0000
# 5 0.0000 0.0000 0.0000 0.0000 17.0889 0.0000
# 6 0.0000 0.0000 0.0000 0.0000 0.0000 -17.9196
#
#
#
# Elastic Compliance Matrix: (Units=1/GPa)
#
#
# Indices 1 2 3 4 5 6 
#
# 1 0.011976 -0.000135 0.000156 0.000000 0.000000 0.000000
# 2 -0.000135 0.009497 -0.003423 0.000000 0.000000 0.000000
# 3 0.000156 -0.003423 0.005227 0.000000 0.000000 0.000000
# 4 0.000000 0.000000 0.000000 -0.008070 0.000000 0.000000
# 5 0.000000 0.000000 0.000000 0.000000 0.058517 0.000000
# 6 0.000000 0.000000 0.000000 0.000000 0.000000 -0.055805
#
#
# Mechanical properties :
#
#
# Convention : Reuss Voigt Hill
#
# Bulk Modulus (GPa) = 50.26257 72.07436 61.16846
# Shear Modulus (GPa) = 143.76240 0.61590 72.18915
#
# Velocity S-wave (km/s) = 7.98613 0.52272 5.65913
# Velocity P-wave (km/s) = 10.36031 5.68675 8.35689
#
# Compressibility (1/GPa) = 0.01989552
#
# Stress axis : x y z
#
# Youngs Moduli (GPa) = 83.49839 105.29162 191.32439
#
# Poissons Ratio (x) = 0.01423 -0.02984
# Poissons Ratio (y) = 0.01128 0.65496
# Poissons Ratio (z) = -0.01302 0.36044
#
# Static dielectric constant tensor:
#      x y z
#    x 1.975680 0.000000 0.000000 
#    y 0.000000 1.785360 0.000000 
#    z 0.000000 0.000000 1.958600 
# 
# From -- ./inp_files/70444.got.cif
#   From: 2010.05.17/outbox.cif.g08.bks.cpg/sg65_36_cif.got.tgz:70444.got - 2010.06.03 17:01:31.
