data_PCOD9486707
_publ_section_title
;
Structure prediction by ZEFSAII (Michael W. Deem and Ramdas Pophale) SiO2 
 PCOD9486707
Probable space group: C M M M
;
_chemical_formula_sum "Si O2"
_cell_formula_units_Z 80
_cell_length_a 28.942135
_cell_length_b 8.765792
_cell_length_c 18.904297
_cell_angle_alpha 90.000000
_cell_angle_beta 90.000000
_cell_angle_gamma 90.000000
_cell_volume 4796.034052
_symmetry_space_group_name_H-M "C M M M"
_symmetry_group_IT_number 65
_symmetry_cell_setting 'orthorhombic'
loop_
_space_group_symop_operation_xyz
x,y,z
-x,-y,z
x,-y,-z
-x,y,-z
-x,-y,-z
x,y,-z
-x,y,z
x,-y,z
1/2+x,1/2+y,z
1/2-x,1/2-y,z
1/2+x,1/2-y,-z
1/2-x,1/2+y,-z
1/2-x,1/2-y,-z
1/2+x,1/2+y,-z
1/2-x,1/2+y,z
1/2+x,1/2-y,z
loop_
_atom_site_type_symbol
_atom_site_label
_atom_site_fract_x
_atom_site_fract_y
_atom_site_fract_z
Si Si1 0.698552 0.683076 0.000000
Si Si2 0.802023 0.183712 0.844421
Si Si3 0.053870 0.817880 0.349947
Si Si4 0.139987 0.316988 0.284369
Si Si5 0.556040 0.827353 0.500000
Si Si6 0.301459 0.816067 0.421356
O O1 0.750000 0.750000 0.000000
O O2 0.679089 0.726650 0.076954
O O3 0.701208 0.500000 0.000000
O O4 0.750000 0.250000 0.837614
O O5 0.833803 0.249768 0.782963
O O6 0.799731 0.000000 0.839249
O O7 0.088205 0.743855 0.293776
O O8 0.068104 0.756791 0.427612
O O9 0.000000 0.776621 0.338994
O O10 0.057554 0.000000 0.348700
O O11 0.140254 0.500000 0.281422
O O12 0.167410 0.267476 0.355519
O O13 0.500000 0.834926 0.500000
O O14 0.574733 0.000000 0.500000
O O15 0.318705 0.771190 0.500000
O O16 0.250000 0.750000 0.413438
O O17 0.298933 0.000000 0.419820
#
# Coordination Sequence:
#
# PCOD9486707 Si02
#       6
#     8  16  16  16   8  16
#     4   8  16  30  50  74 101 136 167 200 246 299
#     4  10  19  33  52  76 107 137 170 207 249 299
#     4  10  21  36  52  72  98 128 167 215 263 309
#     4  11  22  33  50  74 100 132 171 210 256 306
#     4   9  17  31  51  71  92 121 158 205 259 309
#     4   9  19  34  48  64  90 126 166 205 241 284
#
# _framework density 16.680448999999999
#
# number of rings (size 3 to 8) (size 9 to 14) (size 15 to 20)
#    0.000    2.300    0.000    2.700    1.400    6.400 
#    0.000    0.000    0.000    0.000    0.000    0.700 
#    0.000    5.600    0.000    0.000    0.000    0.000 
#
# Total GULP energy -223134.524550 kJ/mol
# GULP energy per Si atom -5578.363114 kJ/mol
# Density = 1.664248 g / cm^3
# Si number density = 16.680449 Si / 1000 Ang^3
#
#
#
# Elastic Constant Matrix: (Units=GPa)
#
#
# Indices 1 2 3 4 5 6 
#
# 1 81.7171 35.6864 75.5225 0.0000 0.0000 0.0000
# 2 35.6864 47.5637 48.1683 0.0000 0.0000 0.0000
# 3 75.5225 48.1683 152.9002 0.0000 0.0000 0.0000
# 4 0.0000 0.0000 0.0000 23.8697 0.0000 0.0000
# 5 0.0000 0.0000 0.0000 0.0000 14.4191 0.0000
# 6 0.0000 0.0000 0.0000 0.0000 0.0000 24.2448
#
#
#
# Elastic Compliance Matrix: (Units=1/GPa)
#
#
# Indices 1 2 3 4 5 6 
#
# 1 0.024971 -0.009170 -0.009445 0.000000 0.000000 0.000000
# 2 -0.009170 0.034242 -0.006258 0.000000 0.000000 0.000000
# 3 -0.009445 -0.006258 0.013177 0.000000 0.000000 0.000000
# 4 0.000000 0.000000 0.000000 0.041894 0.000000 0.000000
# 5 0.000000 0.000000 0.000000 0.000000 0.069352 0.000000
# 6 0.000000 0.000000 0.000000 0.000000 0.000000 0.041246
#
#
# Mechanical properties :
#
#
# Convention : Reuss Voigt Hill
#
# Bulk Modulus (GPa) = 44.16245 66.77058 55.46651
# Shear Modulus (GPa) = 17.71935 20.69365 19.20650
#
# Velocity S-wave (km/s) = 3.26280 3.52603 3.39697
# Velocity P-wave (km/s) = 6.38182 7.52950 6.97929
#
# Compressibility (1/GPa) = 0.02264367
#
# Stress axis : x y z
#
# Youngs Moduli (GPa) = 40.04597 29.20375 75.89027
#
# Poissons Ratio (x) = 0.26781 0.71680
# Poissons Ratio (y) = 0.36724 0.47491
# Poissons Ratio (z) = 0.37824 0.18275
#
# Static dielectric constant tensor:
#      x y z
#    x 1.559190 0.000000 0.000000 
#    y 0.000000 1.560860 0.000000 
#    z 0.000000 0.000000 1.578610 
# 
# From -- ./inp_files/57876.got.cif
#   From: 2010.05.17/outbox.cif.g08.bks.cpg/sg65_29_cif.got.tgz:57876.got - 2010.06.03 17:01:31.
