data_PCOD9486377
_publ_section_title
;
Structure prediction by ZEFSAII (Michael W. Deem and Ramdas Pophale) SiO2 
 PCOD9486377
Probable space group: C M M M
;
_chemical_formula_sum "Si O2"
_cell_formula_units_Z 80
_cell_length_a 28.699576
_cell_length_b 8.570223
_cell_length_c 16.790336
_cell_angle_alpha 90.000000
_cell_angle_beta 90.000000
_cell_angle_gamma 90.000000
_cell_volume 4129.780700
_symmetry_space_group_name_H-M "C M M M"
_symmetry_group_IT_number 65
_symmetry_cell_setting 'orthorhombic'
loop_
_space_group_symop_operation_xyz
x,y,z
-x,-y,z
x,-y,-z
-x,y,-z
-x,-y,-z
x,y,-z
-x,y,z
x,-y,z
1/2+x,1/2+y,z
1/2-x,1/2-y,z
1/2+x,1/2-y,-z
1/2-x,1/2+y,-z
1/2-x,1/2-y,-z
1/2+x,1/2+y,-z
1/2-x,1/2+y,z
1/2+x,1/2-y,z
loop_
_atom_site_type_symbol
_atom_site_label
_atom_site_fract_x
_atom_site_fract_y
_atom_site_fract_z
Si Si1 0.901943 0.811820 0.832831
Si Si2 0.105463 0.316586 0.343580
Si Si3 0.946437 0.690037 0.500000
Si Si4 0.299427 0.321698 0.146651
Si Si5 0.000000 0.810397 0.907362
Si Si6 0.298169 0.678832 0.659372
O O1 0.903484 0.768968 0.739674
O O2 0.851766 0.753590 0.868416
O O3 0.950706 0.755919 0.870465
O O4 0.900141 0.000000 0.840452
O O5 0.096425 0.500000 0.332006
O O6 0.076381 0.255297 0.418113
O O7 0.159122 0.286410 0.364524
O O8 0.941817 0.500000 0.500000
O O9 0.000000 0.730680 0.500000
O O10 0.299766 0.500000 0.118618
O O11 0.250000 0.250000 0.119003
O O12 0.297062 0.321415 0.243543
O O13 0.000000 0.000000 0.899147
O O14 0.000000 0.772119 0.000000
O O15 0.304896 0.500000 0.634386
O O16 0.250000 0.750000 0.630645
#
# Coordination Sequence:
#
# PCOD9486377 Si02
#       6
#    16  16   8  16   8  16
#     4   9  18  32  51  77 105 131 168 217 261 310
#     4  10  19  32  52  74  99 134 175 213 258 308
#     4   9  20  36  50  67  96 133 174 221 262 309
#     4   8  14  24  41  67  98 128 158 198 242 288
#     4   9  18  34  57  80 103 134 170 211 263 317
#     4   9  16  28  47  72 103 133 168 211 257 305
#
# _framework density 19.371490000000001
#
# number of rings (size 3 to 8) (size 9 to 14) (size 15 to 20)
#    0.000    3.000    0.000    2.400    1.400    4.800 
#    0.000    2.500    0.000    4.200    0.000    0.000 
#    0.000    0.000    0.000    0.000    0.000    2.200 
#
# Total GULP energy -222684.053949 kJ/mol
# GULP energy per Si atom -5567.101349 kJ/mol
# Density = 1.932740 g / cm^3
# Si number density = 19.371490 Si / 1000 Ang^3
#
#
#
# Elastic Constant Matrix: (Units=GPa)
#
#
# Indices 1 2 3 4 5 6 
#
# 1 193.6267 4.8488 64.2457 0.0000 0.0000 0.0000
# 2 4.8488 6.7251 -4.7823 0.0000 0.0000 0.0000
# 3 64.2457 -4.7823 38.3865 0.0000 0.0000 0.0000
# 4 0.0000 0.0000 0.0000 14.5313 0.0000 0.0000
# 5 0.0000 0.0000 0.0000 0.0000 -47.2818 0.0000
# 6 0.0000 0.0000 0.0000 0.0000 0.0000 22.1855
#
#
#
# Elastic Compliance Matrix: (Units=1/GPa)
#
#
# Indices 1 2 3 4 5 6 
#
# 1 0.016906 -0.035451 -0.032711 0.000000 0.000000 0.000000
# 2 -0.035451 0.237490 0.088920 0.000000 0.000000 0.000000
# 3 -0.032711 0.088920 0.091876 0.000000 0.000000 0.000000
# 4 0.000000 0.000000 0.000000 0.068817 0.000000 0.000000
# 5 0.000000 0.000000 0.000000 0.000000 -0.021150 0.000000
# 6 0.000000 0.000000 0.000000 0.000000 0.000000 0.045075
#
#
# Mechanical properties :
#
#
# Convention : Reuss Voigt Hill
#
# Bulk Modulus (GPa) = 2.57873 40.81807 21.69840
# Shear Modulus (GPa) = 9.49195 9.51540 9.50368
#
# Velocity S-wave (km/s) = 2.21599 2.21872 2.21735
# Velocity P-wave (km/s) = 2.80741 5.26123 4.21676
#
# Compressibility (1/GPa) = 0.38778752
#
# Stress axis : x y z
#
# Youngs Moduli (GPa) = 59.15045 4.21070 10.88421
#
# Poissons Ratio (x) = 0.14927 0.35604
# Poissons Ratio (y) = 2.09694 -0.96782
# Poissons Ratio (z) = 1.93490 -0.37441
#
# Static dielectric constant tensor:
#      x y z
#    x 1.731320 0.000000 0.000000 
#    y 0.000000 1.674490 0.000000 
#    z 0.000000 0.000000 1.661720 
# 
# From -- ./inp_files/57325.got.cif
#   From: 2010.05.17/outbox.cif.g08.bks.cpg/sg65_29_cif.got.tgz:57325.got - 2010.06.03 17:01:31.
