data_PCOD9486376
_publ_section_title
;
Structure prediction by ZEFSAII (Michael W. Deem and Ramdas Pophale) SiO2 
 PCOD9486376
Probable space group: C M M M
;
_chemical_formula_sum "Si O2"
_cell_formula_units_Z 64
_cell_length_a 11.384004
_cell_length_b 14.447388
_cell_length_c 16.848272
_cell_angle_alpha 90.000000
_cell_angle_beta 90.000000
_cell_angle_gamma 90.000000
_cell_volume 2771.020516
_symmetry_space_group_name_H-M "C M M M"
_symmetry_group_IT_number 65
_symmetry_cell_setting 'orthorhombic'
loop_
_space_group_symop_operation_xyz
x,y,z
-x,-y,z
x,-y,-z
-x,y,-z
-x,-y,-z
x,y,-z
-x,y,z
x,-y,z
1/2+x,1/2+y,z
1/2-x,1/2-y,z
1/2+x,1/2-y,-z
1/2-x,1/2+y,-z
1/2-x,1/2-y,-z
1/2+x,1/2+y,-z
1/2-x,1/2+y,z
1/2+x,1/2-y,z
loop_
_atom_site_type_symbol
_atom_site_label
_atom_site_fract_x
_atom_site_fract_y
_atom_site_fract_z
Si Si1 0.500000 0.139652 0.905037
Si Si2 0.246603 0.855046 0.157313
Si Si3 0.861543 0.893467 0.500000
Si Si4 0.246803 0.387955 0.339520
Si Si5 0.000000 0.137484 0.907283
Si Si6 0.500000 0.112103 0.409798
O O1 0.375827 0.106137 0.866520
O O2 0.500000 0.251073 0.892545
O O3 0.500000 0.121229 0.000000
O O4 0.250000 0.750000 0.125285
O O5 0.228900 0.853131 0.251976
O O6 0.125102 0.897329 0.125427
O O7 0.820198 0.853997 0.415822
O O8 0.000000 0.896657 0.500000
O O9 0.813448 0.000000 0.500000
O O10 0.259006 0.500000 0.335242
O O11 0.114716 0.362391 0.362215
O O12 0.000000 0.121163 0.000000
O O13 0.500000 0.148422 0.500000
O O14 0.500000 0.000000 0.415744
#
# Coordination Sequence:
#
# PCOD9486376 Si02
#       6
#     8  16   8  16   8   8
#     4   9  17  33  56  77  99 131 169 205 242 295
#     4  10  20  33  52  78 105 129 162 209 253 295
#     4   9  18  31  48  69  95 134 176 206 233 284
#     4  10  19  32  52  74  99 131 169 208 246 291
#     4   9  18  33  54  77  99 131 171 204 242 298
#     4   9  15  28  50  72  91 121 168 211 239 275
#
# _framework density 23.096184999999998
#
# number of rings (size 3 to 8) (size 9 to 14) (size 15 to 20)
#    0.000    2.500    1.250    1.500    1.750    3.000 
#    0.000    0.625    0.000    4.500    0.000    0.000 
#    0.000    0.000    0.000    0.000    0.000    0.000 
#
# Total GULP energy -178587.807983 kJ/mol
# GULP energy per Si atom -5580.868999 kJ/mol
# Density = 2.304362 g / cm^3
# Si number density = 23.096185 Si / 1000 Ang^3
#
#
#
# Elastic Constant Matrix: (Units=GPa)
#
#
# Indices 1 2 3 4 5 6 
#
# 1 199.5129 9.8132 94.7522 0.0000 0.0000 0.0000
# 2 9.8132 85.3960 -3.3591 0.0000 0.0000 0.0000
# 3 94.7522 -3.3591 135.9841 0.0000 0.0000 0.0000
# 4 0.0000 0.0000 0.0000 19.2815 0.0000 0.0000
# 5 0.0000 0.0000 0.0000 0.0000 34.1417 0.0000
# 6 0.0000 0.0000 0.0000 0.0000 0.0000 -15.6563
#
#
#
# Elastic Compliance Matrix: (Units=1/GPa)
#
#
# Indices 1 2 3 4 5 6 
#
# 1 0.007590 -0.001081 -0.005315 0.000000 0.000000 0.000000
# 2 -0.001081 0.011876 0.001047 0.000000 0.000000 0.000000
# 3 -0.005315 0.001047 0.011083 0.000000 0.000000 0.000000
# 4 0.000000 0.000000 0.000000 0.051863 0.000000 0.000000
# 5 0.000000 0.000000 0.000000 0.000000 0.029290 0.000000
# 6 0.000000 0.000000 0.000000 0.000000 0.000000 -0.063872
#
#
# Mechanical properties :
#
#
# Convention : Reuss Voigt Hill
#
# Bulk Modulus (GPa) = 50.37982 69.25618 59.81800
# Shear Modulus (GPa) = 76.75240 28.86584 52.80912
#
# Velocity S-wave (km/s) = 5.77094 3.53910 4.78691
# Velocity P-wave (km/s) = 8.14036 6.83750 7.51721
#
# Compressibility (1/GPa) = 0.01984922
#
# Stress axis : x y z
#
# Youngs Moduli (GPa) = 131.75926 84.20644 90.22722
#
# Poissons Ratio (x) = 0.09105 0.47956
# Poissons Ratio (y) = 0.14246 -0.09444
# Poissons Ratio (z) = 0.70031 -0.08814
#
# Static dielectric constant tensor:
#      x y z
#    x 1.848920 0.000000 0.000000 
#    y 0.000000 1.943420 0.000000 
#    z 0.000000 0.000000 1.868830 
# 
# From -- ./inp_files/22275.got.cif
#   From: 2010.05.17/outbox.cif.g08.bks.cpg/sg65_12_cif.got.tgz:22275.got - 2010.06.03 17:01:31.
