data_PCOD9486021
_publ_section_title
;
Structure prediction by ZEFSAII (Michael W. Deem and Ramdas Pophale) SiO2 
 PCOD9486021
Probable space group: C M M M
;
_chemical_formula_sum "Si O2"
_cell_formula_units_Z 66
_cell_length_a 15.561049
_cell_length_b 24.813971
_cell_length_c 9.535800
_cell_angle_alpha 90.000000
_cell_angle_beta 90.000000
_cell_angle_gamma 90.000000
_cell_volume 3682.071982
_symmetry_space_group_name_H-M "C M M M"
_symmetry_group_IT_number 65
_symmetry_cell_setting 'orthorhombic'
loop_
_space_group_symop_operation_xyz
x,y,z
-x,-y,z
x,-y,-z
-x,y,-z
-x,-y,-z
x,y,-z
-x,y,z
x,-y,z
1/2+x,1/2+y,z
1/2-x,1/2-y,z
1/2+x,1/2-y,-z
1/2-x,1/2+y,-z
1/2-x,1/2-y,-z
1/2+x,1/2+y,-z
1/2-x,1/2+y,z
1/2+x,1/2-y,z
loop_
_atom_site_type_symbol
_atom_site_label
_atom_site_fract_x
_atom_site_fract_y
_atom_site_fract_z
Si Si1 0.903676 0.114978 0.335259
Si Si2 0.348386 0.000000 0.836314
Si Si3 0.250339 0.811800 0.328995
Si Si4 0.500000 0.500000 0.000000
Si Si5 0.599407 0.893845 0.333767
Si Si6 0.851274 0.000000 0.236205
O O1 0.910785 0.126867 0.500000
O O2 0.833830 0.156423 0.276210
O O3 0.000000 0.118080 0.273643
O O4 0.866812 0.054893 0.320949
O O5 0.382405 0.052944 0.756544
O O6 0.244951 0.000000 0.822662
O O7 0.372660 0.000000 0.000000
O O8 0.247814 0.811149 0.500000
O O9 0.250000 0.750000 0.281761
O O10 0.334554 0.846567 0.292464
O O11 0.424522 0.500000 0.880202
O O12 0.613576 0.905828 0.500000
O O13 0.500000 0.877583 0.317557
#
# Coordination Sequence:
#
# PCOD9486021 Si02
#       6
#    16   8  16   2  16   8
#     4  10  19  31  52  80 108 138 173 219 271 326
#     4  12  24  36  56  85 110 145 184 229 281 330
#     4   9  18  32  52  81 113 143 180 224 270 321
#     4  12  24  36  50  80 110 140 180 226 268 342
#     4  10  21  37  58  83 114 150 186 228 278 332
#     4  12  21  34  52  77 109 142 177 218 274 332
#
# _framework density 17.924692
#
# number of rings (size 3 to 8) (size 9 to 14) (size 15 to 20)
#    0.000    1.697    4.242    1.091    0.000    4.848 
#    0.000    4.848    0.000    0.727    0.000    0.000 
#    0.000    0.000    0.000    0.000    0.000    0.000 
#
# Total GULP energy -183765.470939 kJ/mol
# GULP energy per Si atom -5568.650635 kJ/mol
# Density = 1.788389 g / cm^3
# Si number density = 17.924692 Si / 1000 Ang^3
#
#
#
# Elastic Constant Matrix: (Units=GPa)
#
#
# Indices 1 2 3 4 5 6 
#
# 1 124.3111 84.2002 29.6397 0.0000 0.0000 0.0000
# 2 84.2002 170.0011 23.5381 0.0000 0.0000 0.0000
# 3 29.6397 23.5381 35.9315 0.0000 0.0000 0.0000
# 4 0.0000 0.0000 0.0000 -2.8987 0.0000 0.0000
# 5 0.0000 0.0000 0.0000 0.0000 -8.7597 0.0000
# 6 0.0000 0.0000 0.0000 0.0000 0.0000 8.4502
#
#
#
# Elastic Compliance Matrix: (Units=1/GPa)
#
#
# Indices 1 2 3 4 5 6 
#
# 1 0.013753 -0.005764 -0.007569 0.000000 0.000000 0.000000
# 2 -0.005764 0.008885 -0.001066 0.000000 0.000000 0.000000
# 3 -0.007569 -0.001066 0.034772 0.000000 0.000000 0.000000
# 4 0.000000 0.000000 0.000000 -0.344977 0.000000 0.000000
# 5 0.000000 0.000000 0.000000 0.000000 -0.114159 0.000000
# 6 0.000000 0.000000 0.000000 0.000000 0.000000 0.118340
#
#
# Mechanical properties :
#
#
# Convention : Reuss Voigt Hill
#
# Bulk Modulus (GPa) = 34.94896 67.22219 51.08557
# Shear Modulus (GPa) = -20.40386 12.21608 -4.09389
#
# Velocity S-wave (km/s) = -3.37755 2.61343 -1.51291
# Velocity P-wave (km/s) = 2.08076 6.83306 5.05075
#
# Compressibility (1/GPa) = 0.02861316
#
# Stress axis : x y z
#
# Youngs Moduli (GPa) = 72.71129 112.55424 28.75839
#
# Poissons Ratio (x) = 0.64874 0.21767
# Poissons Ratio (y) = 0.41909 0.03065
# Poissons Ratio (z) = 0.55036 0.11994
#
# Static dielectric constant tensor:
#      x y z
#    x 1.637680 0.000000 0.000000 
#    y 0.000000 1.595760 0.000000 
#    z 0.000000 0.000000 1.603710 
# 
# From -- ./inp_files/6811.got.cif
#   From: 2010.05.17/outbox.cif.g08.bks.cpg/sg65_4_cif.got.tgz:6811.got - 2010.06.03 17:01:31.
