data_PCOD9486916
_publ_section_title
;
Structure prediction by ZEFSAII (Michael W. Deem and Ramdas Pophale) SiO2 
 PCOD9486916
Probable space group: C M M M
;
_chemical_formula_sum "Si O2"
_cell_formula_units_Z 88
_cell_length_a 9.336780
_cell_length_b 27.040169
_cell_length_c 19.601305
_cell_angle_alpha 90.000000
_cell_angle_beta 90.000000
_cell_angle_gamma 90.000000
_cell_volume 4948.704410
_symmetry_space_group_name_H-M "C M M M"
_symmetry_group_IT_number 65
_symmetry_cell_setting 'orthorhombic'
loop_
_space_group_symop_operation_xyz
x,y,z
-x,-y,z
x,-y,-z
-x,y,-z
-x,-y,-z
x,y,-z
-x,y,z
x,-y,z
1/2+x,1/2+y,z
1/2-x,1/2-y,z
1/2+x,1/2-y,-z
1/2-x,1/2+y,-z
1/2-x,1/2-y,-z
1/2+x,1/2+y,-z
1/2-x,1/2+y,z
1/2+x,1/2-y,z
loop_
_atom_site_type_symbol
_atom_site_label
_atom_site_fract_x
_atom_site_fract_y
_atom_site_fract_z
Si Si1 0.837875 0.296994 0.417466
Si Si2 0.174061 0.500000 0.921598
Si Si3 0.328875 0.444134 0.281895
Si Si4 0.828577 0.300522 0.080512
Si Si5 0.172774 0.599438 0.840271
Si Si6 0.329219 0.397843 0.577271
O O1 0.845789 0.291956 0.500000
O O2 0.750000 0.250000 0.391199
O O3 0.753392 0.347486 0.405859
O O4 0.000000 0.298443 0.391353
O O5 0.216882 0.550782 0.883933
O O6 0.000000 0.500000 0.922104
O O7 0.222760 0.500000 0.000000
O O8 0.500000 0.438890 0.272312
O O9 0.287020 0.500000 0.263482
O O10 0.245318 0.406914 0.233147
O O11 0.298846 0.435298 0.361721
O O12 0.750000 0.250000 0.101732
O O13 0.787147 0.349530 0.122376
O O14 0.000000 0.294193 0.087247
O O15 0.797808 0.308644 0.000000
O O16 0.000000 0.598481 0.834299
O O17 0.290726 0.413712 0.500000
O O18 0.500000 0.388296 0.577326
#
# Coordination Sequence:
#
# PCOD9486916 Si02
#       6
#    16   8  16  16  16  16
#     4   9  16  27  46  72 100 127 156 198 254 310
#     4   9  16  28  51  81 106 131 170 218 257 293
#     4  10  21  36  53  74 103 137 170 213 271 325
#     4   9  18  33  54  81 111 143 180 219 258 303
#     4  10  19  33  54  79 106 140 179 216 257 312
#     4   9  18  33  52  73  97 130 175 221 264 314
#
# _framework density 17.782430999999999
#
# number of rings (size 3 to 8) (size 9 to 14) (size 15 to 20)
#    0.000    2.636    0.909    1.091    0.000    6.182 
#    0.000    2.727    0.000    4.364    0.000    3.818 
#    0.000    0.000    0.000    0.000    0.000    0.000 
#
# Total GULP energy -245202.473210 kJ/mol
# GULP energy per Si atom -5572.783482 kJ/mol
# Density = 1.774196 g / cm^3
# Si number density = 17.782431 Si / 1000 Ang^3
#
#
#
# Elastic Constant Matrix: (Units=GPa)
#
#
# Indices 1 2 3 4 5 6 
#
# 1 19.7884 37.8575 32.0796 0.0000 0.0000 0.0000
# 2 37.8575 123.9376 60.3440 0.0000 0.0000 0.0000
# 3 32.0796 60.3440 89.9618 0.0000 0.0000 0.0000
# 4 0.0000 0.0000 0.0000 28.6102 0.0000 0.0000
# 5 0.0000 0.0000 0.0000 0.0000 23.0858 0.0000
# 6 0.0000 0.0000 0.0000 0.0000 0.0000 25.1883
#
#
#
# Elastic Compliance Matrix: (Units=1/GPa)
#
#
# Indices 1 2 3 4 5 6 
#
# 1 0.194165 -0.038012 -0.043740 0.000000 0.000000 0.000000
# 2 -0.038012 0.019424 0.000526 0.000000 0.000000 0.000000
# 3 -0.043740 0.000526 0.026360 0.000000 0.000000 0.000000
# 4 0.000000 0.000000 0.000000 0.034953 0.000000 0.000000
# 5 0.000000 0.000000 0.000000 0.000000 0.043317 0.000000
# 6 0.000000 0.000000 0.000000 0.000000 0.000000 0.039701
#
#
# Mechanical properties :
#
#
# Convention : Reuss Voigt Hill
#
# Bulk Modulus (GPa) = 12.90381 54.91665 33.91023
# Shear Modulus (GPa) = 9.15411 22.27063 15.71237
#
# Velocity S-wave (km/s) = 2.27135 3.54276 2.97575
# Velocity P-wave (km/s) = 3.76177 6.90539 5.56037
#
# Compressibility (1/GPa) = 0.07749647
#
# Stress axis : x y z
#
# Youngs Moduli (GPa) = 5.15027 51.48394 37.93603
#
# Poissons Ratio (x) = 1.95702 1.65931
# Poissons Ratio (y) = 0.19577 -0.01996
# Poissons Ratio (z) = 0.22527 -0.02708
#
# Static dielectric constant tensor:
#      x y z
#    x 1.595240 0.000000 0.000000 
#    y 0.000000 1.596030 0.000000 
#    z 0.000000 0.000000 1.609390 
# 
# From -- ./inp_files/59819.got.cif
#   From: 2010.05.17/outbox.cif.g08.bks.cpg/sg65_30_cif.got.tgz:59819.got - 2010.06.03 17:01:31.
