data_PCOD9486478
_publ_section_title
;
Structure prediction by ZEFSAII (Michael W. Deem and Ramdas Pophale) SiO2 
 PCOD9486478
Probable space group: C M M M
;
_chemical_formula_sum "Si O2"
_cell_formula_units_Z 104
_cell_length_a 8.968214
_cell_length_b 29.773140
_cell_length_c 20.234973
_cell_angle_alpha 90.000000
_cell_angle_beta 90.000000
_cell_angle_gamma 90.000000
_cell_volume 5402.978404
_symmetry_space_group_name_H-M "C M M M"
_symmetry_group_IT_number 65
_symmetry_cell_setting 'orthorhombic'
loop_
_space_group_symop_operation_xyz
x,y,z
-x,-y,z
x,-y,-z
-x,y,-z
-x,-y,-z
x,y,-z
-x,y,z
x,-y,z
1/2+x,1/2+y,z
1/2-x,1/2-y,z
1/2+x,1/2-y,-z
1/2-x,1/2+y,-z
1/2-x,1/2-y,-z
1/2+x,1/2+y,-z
1/2-x,1/2+y,z
1/2+x,1/2-y,z
loop_
_atom_site_type_symbol
_atom_site_label
_atom_site_fract_x
_atom_site_fract_y
_atom_site_fract_z
Si Si1 0.178611 0.860335 0.874461
Si Si2 0.676769 0.796242 0.388353
Si Si3 0.820028 0.394612 0.573262
Si Si4 0.172375 0.053232 0.693804
Si Si5 0.177853 0.297356 0.768649
Si Si6 0.678173 0.948237 0.835962
Si Si7 0.178955 0.799170 0.000000
O O1 0.247435 0.836995 0.809679
O O2 0.244838 0.910225 0.880019
O O3 0.000000 0.862358 0.869777
O O4 0.220016 0.828268 0.935655
O O5 0.500000 0.791876 0.397181
O O6 0.750000 0.750000 0.410898
O O7 0.724713 0.842260 0.422357
O O8 0.706140 0.801935 0.309735
O O9 0.783777 0.412163 0.500000
O O10 0.743095 0.420751 0.632603
O O11 0.000000 0.396612 0.581573
O O12 0.263791 0.059945 0.761277
O O13 0.000000 0.066566 0.704258
O O14 0.176194 0.000000 0.679742
O O15 0.250000 0.250000 0.789981
O O16 0.000000 0.296752 0.779087
O O17 0.500000 0.943577 0.837996
O O18 0.716551 0.000000 0.852988
O O19 0.250000 0.750000 0.000000
O O20 0.000000 0.794030 0.000000
#
# Coordination Sequence:
#
# PCOD9486478 Si02
#       7
#    16  16  16  16  16  16   8
#     4  11  22  37  58  84 115 151 191 232 277 327
#     4   9  19  34  51  73 102 135 175 224 274 326
#     4  10  21  36  53  75 106 145 187 228 274 333
#     4  10  21  37  58  84 112 142 179 227 281 334
#     4  10  19  32  52  79 109 141 182 233 286 336
#     4  10  21  38  61  88 115 144 182 228 280 337
#     4  10  24  42  59  84 119 159 198 233 271 322
#
# _framework density 19.248643000000001
#
# number of rings (size 3 to 8) (size 9 to 14) (size 15 to 20)
#    0.000    2.000    0.000    3.231    0.000    7.692 
#    0.000    1.923    0.000    2.308    0.000    0.000 
#    0.000    0.000    0.000    0.000    0.000    0.000 
#
# Total GULP energy -290510.257836 kJ/mol
# GULP energy per Si atom -5586.735728 kJ/mol
# Density = 1.920483 g / cm^3
# Si number density = 19.248643 Si / 1000 Ang^3
#
#
#
# Elastic Constant Matrix: (Units=GPa)
#
#
# Indices 1 2 3 4 5 6 
#
# 1 51.4895 44.8145 33.4995 0.0000 0.0000 0.0000
# 2 44.8145 123.2047 53.6228 0.0000 0.0000 0.0000
# 3 33.4995 53.6228 48.7616 0.0000 0.0000 0.0000
# 4 0.0000 0.0000 0.0000 7.2815 0.0000 0.0000
# 5 0.0000 0.0000 0.0000 0.0000 13.1848 0.0000
# 6 0.0000 0.0000 0.0000 0.0000 0.0000 39.3483
#
#
#
# Elastic Compliance Matrix: (Units=1/GPa)
#
#
# Indices 1 2 3 4 5 6 
#
# 1 0.036384 -0.004517 -0.020028 0.000000 0.000000 0.000000
# 2 -0.004517 0.016128 -0.014633 0.000000 0.000000 0.000000
# 3 -0.020028 -0.014633 0.050359 0.000000 0.000000 0.000000
# 4 0.000000 0.000000 0.000000 0.137335 0.000000 0.000000
# 5 0.000000 0.000000 0.000000 0.000000 0.075845 0.000000
# 6 0.000000 0.000000 0.000000 0.000000 0.000000 0.025414
#
#
# Mechanical properties :
#
#
# Convention : Reuss Voigt Hill
#
# Bulk Modulus (GPa) = 40.79219 54.14768 47.46994
# Shear Modulus (GPa) = 11.68243 18.06417 14.87330
#
# Velocity S-wave (km/s) = 2.46625 3.06676 2.78275
# Velocity P-wave (km/s) = 5.41739 6.38214 5.91945
#
# Compressibility (1/GPa) = 0.02451449
#
# Stress axis : x y z
#
# Youngs Moduli (GPa) = 27.48496 62.00230 19.85735
#
# Poissons Ratio (x) = 0.28008 0.39771
# Poissons Ratio (y) = 0.12416 0.29057
# Poissons Ratio (z) = 0.55047 0.90728
#
# Static dielectric constant tensor:
#      x y z
#    x 1.644300 0.000000 0.000000 
#    y 0.000000 1.676370 0.000000 
#    z 0.000000 0.000000 1.672370 
# 
# From -- ./inp_files/60429.got.cif
#   From: 2010.05.17/outbox.cif.g08.bks.cpg/sg65_31_cif.got.tgz:60429.got - 2010.06.03 17:01:31.
