data_PCOD9486252
_publ_section_title
;
Structure prediction by ZEFSAII (Michael W. Deem and Ramdas Pophale) SiO2 
 PCOD9486252
Probable space group: C M M M
;
_chemical_formula_sum "Si O2"
_cell_formula_units_Z 112
_cell_length_a 17.189373
_cell_length_b 18.164054
_cell_length_c 20.794490
_cell_angle_alpha 90.000000
_cell_angle_beta 90.000000
_cell_angle_gamma 90.000000
_cell_volume 6492.636567
_symmetry_space_group_name_H-M "C M M M"
_symmetry_group_IT_number 65
_symmetry_cell_setting 'orthorhombic'
loop_
_space_group_symop_operation_xyz
x,y,z
-x,-y,z
x,-y,-z
-x,y,-z
-x,-y,-z
x,y,-z
-x,y,z
x,-y,z
1/2+x,1/2+y,z
1/2-x,1/2-y,z
1/2+x,1/2-y,-z
1/2-x,1/2+y,-z
1/2-x,1/2-y,-z
1/2+x,1/2+y,-z
1/2-x,1/2+y,z
1/2+x,1/2-y,z
loop_
_atom_site_type_symbol
_atom_site_label
_atom_site_fract_x
_atom_site_fract_y
_atom_site_fract_z
Si Si1 0.684038 0.187314 0.827608
Si Si2 0.593339 0.421037 0.598862
Si Si3 0.090616 0.711756 0.709357
Si Si4 0.095046 0.756693 0.570003
Si Si5 0.911261 0.884550 0.745759
Si Si6 0.687904 0.583924 0.870333
Si Si7 0.591112 0.285257 0.926210
O O1 0.750000 0.250000 0.815725
O O2 0.643173 0.168865 0.760177
O O3 0.727342 0.119125 0.860219
O O4 0.623934 0.225355 0.876541
O O5 0.500000 0.420958 0.586826
O O6 0.623734 0.500000 0.575171
O O7 0.621597 0.342185 0.573591
O O8 0.603885 0.417686 0.675716
O O9 0.119069 0.715375 0.635356
O O10 0.093017 0.796446 0.734873
O O11 0.000000 0.688820 0.710598
O O12 0.117249 0.726225 0.500000
O O13 0.000000 0.758181 0.573200
O O14 0.853636 0.910415 0.800575
O O15 0.000000 0.902629 0.764285
O O16 0.688493 0.500000 0.892315
O O17 0.638553 0.639650 0.914278
O O18 0.500000 0.297839 0.914074
O O19 0.601662 0.261603 0.000000
#
# Coordination Sequence:
#
# PCOD9486252 Si02
#       7
#    16  16  16  16  16  16  16
#     4  10  19  32  51  73  98 132 168 203 239 293
#     4   8  13  19  29  49  80 119 156 186 225 281
#     4   9  15  27  48  68  88 121 165 208 246 287
#     4   8  14  22  34  57  87 115 150 203 256 292
#     4   9  15  25  42  66  93 121 158 200 240 283
#     4  11  22  32  47  75 107 134 158 196 251 299
#     4  10  21  37  57  78  99 129 170 208 239 280
#
# _framework density 17.250311
#
# number of rings (size 3 to 8) (size 9 to 14) (size 15 to 20)
#    0.000    2.714    2.857    3.000    0.000    4.857 
#    0.000    2.143    0.000    2.143    0.000    1.000 
#    0.000    0.571    0.000    3.571    0.000    0.000 
#
# Total GULP energy -311982.703626 kJ/mol
# GULP energy per Si atom -5571.119708 kJ/mol
# Density = 1.721105 g / cm^3
# Si number density = 17.250311 Si / 1000 Ang^3
#
#
#
# Elastic Constant Matrix: (Units=GPa)
#
#
# Indices 1 2 3 4 5 6 
#
# 1 42.8884 15.7832 36.4403 0.0000 0.0000 0.0000
# 2 15.7832 30.5817 14.5286 0.0000 0.0000 0.0000
# 3 36.4403 14.5286 104.0213 0.0000 0.0000 0.0000
# 4 0.0000 0.0000 0.0000 2.6718 0.0000 0.0000
# 5 0.0000 0.0000 0.0000 0.0000 -3.6014 0.0000
# 6 0.0000 0.0000 0.0000 0.0000 0.0000 5.8567
#
#
#
# Elastic Compliance Matrix: (Units=1/GPa)
#
#
# Indices 1 2 3 4 5 6 
#
# 1 0.038288 -0.014340 -0.011410 0.000000 0.000000 0.000000
# 2 -0.014340 0.040394 -0.000618 0.000000 0.000000 0.000000
# 3 -0.011410 -0.000618 0.013697 0.000000 0.000000 0.000000
# 4 0.000000 0.000000 0.000000 0.374281 0.000000 0.000000
# 5 0.000000 0.000000 0.000000 0.000000 -0.277669 0.000000
# 6 0.000000 0.000000 0.000000 0.000000 0.000000 0.170744
#
#
# Mechanical properties :
#
#
# Convention : Reuss Voigt Hill
#
# Bulk Modulus (GPa) = 25.22554 34.55505 29.89030
# Shear Modulus (GPa) = 11.74577 8.36804 10.05691
#
# Velocity S-wave (km/s) = 2.61224 2.20488 2.41716
# Velocity P-wave (km/s) = 4.87374 5.15335 5.01550
#
# Compressibility (1/GPa) = 0.03964236
#
# Stress axis : x y z
#
# Youngs Moduli (GPa) = 26.11779 24.75627 73.00925
#
# Poissons Ratio (x) = 0.35500 0.83304
# Poissons Ratio (y) = 0.37453 0.04514
# Poissons Ratio (z) = 0.29801 0.01531
#
# Static dielectric constant tensor:
#      x y z
#    x 1.588010 0.000000 0.000000 
#    y 0.000000 1.591370 0.000000 
#    z 0.000000 0.000000 1.619330 
# 
# From -- ./inp_files/63935.got.cif
#   From: 2010.05.17/outbox.cif.g08.bks.cpg/sg65_32_cif.got.tgz:63935.got - 2010.06.03 17:01:31.
