data_PCOD9486176
_publ_section_title
;
Structure prediction by ZEFSAII (Michael W. Deem and Ramdas Pophale) SiO2 
 PCOD9486176
Probable space group: C M M M
;
_chemical_formula_sum "Si O2"
_cell_formula_units_Z 80
_cell_length_a 8.577365
_cell_length_b 27.842346
_cell_length_c 19.105625
_cell_angle_alpha 90.000000
_cell_angle_beta 90.000000
_cell_angle_gamma 90.000000
_cell_volume 4562.690043
_symmetry_space_group_name_H-M "C M M M"
_symmetry_group_IT_number 65
_symmetry_cell_setting 'orthorhombic'
loop_
_space_group_symop_operation_xyz
x,y,z
-x,-y,z
x,-y,-z
-x,y,-z
-x,-y,-z
x,y,-z
-x,y,z
x,-y,z
1/2+x,1/2+y,z
1/2-x,1/2-y,z
1/2+x,1/2-y,-z
1/2-x,1/2+y,-z
1/2-x,1/2-y,-z
1/2+x,1/2+y,-z
1/2-x,1/2+y,z
1/2+x,1/2-y,z
loop_
_atom_site_type_symbol
_atom_site_label
_atom_site_fract_x
_atom_site_fract_y
_atom_site_fract_z
Si Si1 0.809649 0.555695 0.500000
Si Si2 0.188060 0.053501 0.786465
Si Si3 0.188233 0.599928 0.646764
Si Si4 0.813192 0.698358 0.717759
Si Si5 0.312646 0.651318 0.142260
Si Si6 0.685586 0.804115 0.000000
O O1 0.761527 0.500000 0.500000
O O2 0.758526 0.582011 0.429024
O O3 0.000000 0.556286 0.500000
O O4 0.247287 0.066941 0.709145
O O5 0.237083 0.097016 0.837202
O O6 0.000000 0.053811 0.785327
O O7 0.240702 0.000000 0.806379
O O8 0.232222 0.654582 0.666355
O O9 0.000000 0.597141 0.648595
O O10 0.750000 0.750000 0.695769
O O11 0.745649 0.684484 0.793861
O O12 0.000000 0.699774 0.722205
O O13 0.500000 0.653228 0.139632
O O14 0.244866 0.669165 0.069394
O O15 0.750000 0.750000 0.000000
O O16 0.500000 0.802460 0.000000
#
# Coordination Sequence:
#
# PCOD9486176 Si02
#       6
#     8  16  16  16  16   8
#     4   9  16  28  48  73  99 127 161 203 250 295
#     4   9  18  33  53  76 102 132 165 202 244 290
#     4   9  18  31  49  73  99 129 167 208 246 291
#     4  10  19  32  50  72  98 129 166 206 249 293
#     4  10  20  35  54  76 102 131 165 202 242 290
#     4  12  24  38  55  76 103 131 162 201 247 294
#
# _framework density 17.533515999999999
#
# number of rings (size 3 to 8) (size 9 to 14) (size 15 to 20)
#    0.000    2.300    0.000    3.300    0.000    2.800 
#    0.000    1.500    0.000    4.800    0.000    0.000 
#    0.000    0.000    0.000    0.000    0.000    0.000 
#
# Total GULP energy -223213.317432 kJ/mol
# GULP energy per Si atom -5580.332936 kJ/mol
# Density = 1.749361 g / cm^3
# Si number density = 17.533516 Si / 1000 Ang^3
#
#
#
# Elastic Constant Matrix: (Units=GPa)
#
#
# Indices 1 2 3 4 5 6 
#
# 1 39.4382 31.3964 30.3838 0.0000 0.0000 0.0000
# 2 31.3964 151.4676 83.3513 0.0000 0.0000 0.0000
# 3 30.3838 83.3513 150.4477 0.0000 0.0000 0.0000
# 4 0.0000 0.0000 0.0000 12.9555 0.0000 0.0000
# 5 0.0000 0.0000 0.0000 0.0000 16.1053 0.0000
# 6 0.0000 0.0000 0.0000 0.0000 0.0000 20.3260
#
#
#
# Elastic Compliance Matrix: (Units=1/GPa)
#
#
# Indices 1 2 3 4 5 6 
#
# 1 0.031961 -0.004421 -0.004006 0.000000 0.000000 0.000000
# 2 -0.004421 0.010109 -0.004708 0.000000 0.000000 0.000000
# 3 -0.004006 -0.004708 0.010064 0.000000 0.000000 0.000000
# 4 0.000000 0.000000 0.000000 0.077187 0.000000 0.000000
# 5 0.000000 0.000000 0.000000 0.000000 0.062091 0.000000
# 6 0.000000 0.000000 0.000000 0.000000 0.000000 0.049198
#
#
# Mechanical properties :
#
#
# Convention : Reuss Voigt Hill
#
# Bulk Modulus (GPa) = 38.66058 70.17962 54.42010
# Shear Modulus (GPa) = 18.14870 22.95882 20.55376
#
# Velocity S-wave (km/s) = 3.22077 3.62252 3.42754
# Velocity P-wave (km/s) = 5.99404 7.59011 6.83880
#
# Compressibility (1/GPa) = 0.02586614
#
# Stress axis : x y z
#
# Youngs Moduli (GPa) = 31.28767 98.92059 99.36358
#
# Poissons Ratio (x) = 0.43731 0.39801
# Poissons Ratio (y) = 0.13832 0.46779
# Poissons Ratio (z) = 0.12533 0.46571
#
# Static dielectric constant tensor:
#      x y z
#    x 1.592150 0.000000 0.000000 
#    y 0.000000 1.584370 0.000000 
#    z 0.000000 0.000000 1.561140 
# 
# From -- ./inp_files/49904.got.cif
#   From: 2010.05.17/outbox.cif.g08.bks.cpg/sg65_25_cif.got.tgz:49904.got - 2010.06.03 17:01:31.
