data_PCOD9486654
_publ_section_title
;
Structure prediction by ZEFSAII (Michael W. Deem and Ramdas Pophale) SiO2 
 PCOD9486654
Probable space group: C M M M
;
_chemical_formula_sum "Si O2"
_cell_formula_units_Z 104
_cell_length_a 16.916894
_cell_length_b 28.829399
_cell_length_c 13.166476
_cell_angle_alpha 90.000000
_cell_angle_beta 90.000000
_cell_angle_gamma 90.000000
_cell_volume 6421.341523
_symmetry_space_group_name_H-M "C M M M"
_symmetry_group_IT_number 65
_symmetry_cell_setting 'orthorhombic'
loop_
_space_group_symop_operation_xyz
x,y,z
-x,-y,z
x,-y,-z
-x,y,-z
-x,-y,-z
x,y,-z
-x,y,z
x,-y,z
1/2+x,1/2+y,z
1/2-x,1/2-y,z
1/2+x,1/2-y,-z
1/2-x,1/2+y,-z
1/2-x,1/2-y,-z
1/2+x,1/2+y,-z
1/2-x,1/2+y,z
1/2+x,1/2-y,z
loop_
_atom_site_type_symbol
_atom_site_label
_atom_site_fract_x
_atom_site_fract_y
_atom_site_fract_z
Si Si1 0.591842 0.445572 0.878927
Si Si2 0.344183 0.889595 0.381698
Si Si3 0.405879 0.792998 0.691735
Si Si4 0.500000 0.053375 0.623220
Si Si5 0.905752 0.189574 0.618468
Si Si6 0.201479 0.874656 0.239297
Si Si7 0.201917 0.701753 0.117659
O O1 0.500000 0.435106 0.854654
O O2 0.605232 0.500000 0.857340
O O3 0.650080 0.412754 0.818036
O O4 0.601647 0.438984 0.000000
O O5 0.328067 0.899675 0.500000
O O6 0.367170 0.835452 0.369024
O O7 0.420478 0.919317 0.347279
O O8 0.269107 0.897033 0.310048
O O9 0.500000 0.798501 0.689557
O O10 0.386225 0.743067 0.644226
O O11 0.371679 0.794939 0.805640
O O12 0.500000 0.053410 0.500000
O O13 0.500000 0.000000 0.657569
O O14 0.889692 0.180642 0.500000
O O15 0.854794 0.156392 0.689342
O O16 0.000000 0.183583 0.636017
O O17 0.243904 0.839929 0.159927
O O18 0.250000 0.750000 0.125302
O O19 0.180592 0.694633 0.000000
#
# Coordination Sequence:
#
# PCOD9486654 Si02
#       7
#    16  16  16   8  16  16  16
#     4   9  19  37  60  83 105 131 170 220 267 309
#     4  10  20  32  51  76 103 140 179 219 263 309
#     4  10  19  33  51  71  99 137 185 217 253 306
#     4   9  18  34  52  72  99 131 173 225 271 304
#     4  10  20  32  48  73 106 142 173 211 251 298
#     4  11  20  33  53  79 106 138 173 212 256 318
#     4  10  20  34  48  70 106 140 170 211 258 307
#
# _framework density 16.195993999999999
#
# number of rings (size 3 to 8) (size 9 to 14) (size 15 to 20)
#    0.000    2.077    2.308    2.308    0.000    1.538 
#    0.000    2.308    0.000    1.385    0.000    5.385 
#    0.000    4.923    0.000    0.000    0.000    0.000 
#
# Total GULP energy -290133.544670 kJ/mol
# GULP energy per Si atom -5579.491244 kJ/mol
# Density = 1.615913 g / cm^3
# Si number density = 16.195994 Si / 1000 Ang^3
#
#
#
# Elastic Constant Matrix: (Units=GPa)
#
#
# Indices 1 2 3 4 5 6 
#
# 1 71.9340 50.8645 25.6413 0.0000 0.0000 0.0000
# 2 50.8645 76.1112 22.3307 0.0000 0.0000 0.0000
# 3 25.6413 22.3307 56.6202 0.0000 0.0000 0.0000
# 4 0.0000 0.0000 0.0000 21.4013 0.0000 0.0000
# 5 0.0000 0.0000 0.0000 0.0000 24.7274 0.0000
# 6 0.0000 0.0000 0.0000 0.0000 0.0000 22.4279
#
#
#
# Elastic Compliance Matrix: (Units=1/GPa)
#
#
# Indices 1 2 3 4 5 6 
#
# 1 0.028052 -0.016985 -0.006005 0.000000 0.000000 0.000000
# 2 -0.016985 0.025142 -0.002224 0.000000 0.000000 0.000000
# 3 -0.006005 -0.002224 0.021258 0.000000 0.000000 0.000000
# 4 0.000000 0.000000 0.000000 0.046726 0.000000 0.000000
# 5 0.000000 0.000000 0.000000 0.000000 0.040441 0.000000
# 6 0.000000 0.000000 0.000000 0.000000 0.000000 0.044587
#
#
# Mechanical properties :
#
#
# Convention : Reuss Voigt Hill
#
# Bulk Modulus (GPa) = 41.62461 44.70426 43.16444
# Shear Modulus (GPa) = 18.89330 20.76659 19.82995
#
# Velocity S-wave (km/s) = 3.41917 3.58467 3.50290
# Velocity P-wave (km/s) = 6.42993 6.69292 6.56274
#
# Compressibility (1/GPa) = 0.02402425
#
# Stress axis : x y z
#
# Youngs Moduli (GPa) = 35.64746 39.77355 47.04091
#
# Poissons Ratio (x) = 0.67557 0.28248
# Poissons Ratio (y) = 0.60549 0.10462
# Poissons Ratio (z) = 0.21406 0.08845
#
# Static dielectric constant tensor:
#      x y z
#    x 1.534940 0.000000 0.000000 
#    y 0.000000 1.525030 0.000000 
#    z 0.000000 0.000000 1.520480 
# 
# From -- ./inp_files/25566.got.cif
#   From: 2010.05.17/outbox.cif.g08.bks.cpg/sg65_13_cif.got.tgz:25566.got - 2010.06.03 17:01:31.
