data_PCOD9486806
_publ_section_title
;
Structure prediction by ZEFSAII (Michael W. Deem and Ramdas Pophale) SiO2 
 PCOD9486806
Probable space group: C M M M
;
_chemical_formula_sum "Si O2"
_cell_formula_units_Z 72
_cell_length_a 28.014755
_cell_length_b 8.024194
_cell_length_c 15.970031
_cell_angle_alpha 90.000000
_cell_angle_beta 90.000000
_cell_angle_gamma 90.000000
_cell_volume 3589.996358
_symmetry_space_group_name_H-M "C M M M"
_symmetry_group_IT_number 65
_symmetry_cell_setting 'orthorhombic'
loop_
_space_group_symop_operation_xyz
x,y,z
-x,-y,z
x,-y,-z
-x,y,-z
-x,-y,-z
x,y,-z
-x,y,z
x,-y,z
1/2+x,1/2+y,z
1/2-x,1/2-y,z
1/2+x,1/2-y,-z
1/2-x,1/2+y,-z
1/2-x,1/2-y,-z
1/2+x,1/2+y,-z
1/2-x,1/2+y,z
1/2+x,1/2-y,z
loop_
_atom_site_type_symbol
_atom_site_label
_atom_site_fract_x
_atom_site_fract_y
_atom_site_fract_z
Si Si1 0.694278 0.799659 0.000000
Si Si2 0.057041 0.802085 0.780610
Si Si3 0.942138 0.500000 0.095999
Si Si4 0.805523 0.700864 0.818911
Si Si5 0.305205 0.807139 0.500000
Si Si6 0.364459 0.308469 0.660142
O O1 0.750000 0.750000 0.000000
O O2 0.675408 0.742445 0.910157
O O3 0.692129 0.000000 0.000000
O O4 0.070920 0.667209 0.852171
O O5 0.084545 0.748036 0.695771
O O6 0.000000 0.792562 0.771164
O O7 0.068375 0.000000 0.797923
O O8 0.000000 0.500000 0.091477
O O9 0.923843 0.500000 0.000000
O O10 0.810058 0.500000 0.812477
O O11 0.750000 0.750000 0.815093
O O12 0.831877 0.784663 0.742124
O O13 0.250000 0.750000 0.500000
O O14 0.335979 0.762983 0.418068
O O15 0.300055 0.000000 0.500000
O O16 0.371276 0.500000 0.639035
#
# Coordination Sequence:
#
# PCOD9486806 Si02
#       6
#     8  16   8  16   8  16
#     4   8  16  30  48  72 103 144 185 231 279 334
#     4   9  20  39  62  89 125 167 210 259 312 367
#     4   9  18  34  60  91 125 169 215 264 316 363
#     4  10  19  33  53  78 111 149 191 236 288 349
#     4  12  26  44  67  92 121 153 193 248 306 374
#     4  11  23  40  61  86 116 153 196 245 304 366
#
# _framework density 20.055730000000001
#
# number of rings (size 3 to 8) (size 9 to 14) (size 15 to 20)
#    0.000    2.111    0.000    3.000    3.111    1.333 
#    2.000    2.778    0.000    3.333    0.000    0.000 
#    0.000    0.000    0.000    0.000    0.000    0.000 
#
# Total GULP energy -200723.312033 kJ/mol
# GULP energy per Si atom -5575.647556 kJ/mol
# Density = 2.001008 g / cm^3
# Si number density = 20.055730 Si / 1000 Ang^3
#
#
#
# Elastic Constant Matrix: (Units=GPa)
#
#
# Indices 1 2 3 4 5 6 
#
# 1 97.2156 35.6217 58.2445 0.0000 0.0000 0.0000
# 2 35.6217 74.8543 48.7137 0.0000 0.0000 0.0000
# 3 58.2445 48.7137 165.2530 0.0000 0.0000 0.0000
# 4 0.0000 0.0000 0.0000 5.1336 0.0000 0.0000
# 5 0.0000 0.0000 0.0000 0.0000 73.7432 0.0000
# 6 0.0000 0.0000 0.0000 0.0000 0.0000 22.1729
#
#
#
# Elastic Compliance Matrix: (Units=1/GPa)
#
#
# Indices 1 2 3 4 5 6 
#
# 1 0.014073 -0.004293 -0.003695 0.000000 0.000000 0.000000
# 2 -0.004293 0.017840 -0.003746 0.000000 0.000000 0.000000
# 3 -0.003695 -0.003746 0.008458 0.000000 0.000000 0.000000
# 4 0.000000 0.000000 0.000000 0.194797 0.000000 0.000000
# 5 0.000000 0.000000 0.000000 0.000000 0.013561 0.000000
# 6 0.000000 0.000000 0.000000 0.000000 0.000000 0.045100
#
#
# Mechanical properties :
#
#
# Convention : Reuss Voigt Hill
#
# Bulk Modulus (GPa) = 59.15727 69.16472 64.16100
# Shear Modulus (GPa) = 15.48329 33.19280 24.33804
#
# Velocity S-wave (km/s) = 2.78153 4.07262 3.48734
# Velocity P-wave (km/s) = 6.31477 7.52835 6.94811
#
# Compressibility (1/GPa) = 0.01690409
#
# Stress axis : x y z
#
# Youngs Moduli (GPa) = 71.05858 56.05440 118.23429
#
# Poissons Ratio (x) = 0.24062 0.43684
# Poissons Ratio (y) = 0.30502 0.44290
# Poissons Ratio (z) = 0.26254 0.20998
#
# Static dielectric constant tensor:
#      x y z
#    x 1.677520 0.000000 0.000000 
#    y 0.000000 2.481450 0.000000 
#    z 0.000000 0.000000 1.668350 
# 
# From -- ./inp_files/46575.got.cif
#   From: 2010.05.17/outbox.cif.g08.bks.cpg/sg65_24_cif.got.tgz:46575.got - 2010.06.03 17:01:31.
