data_PCOD9486449
_publ_section_title
;
Structure prediction by ZEFSAII (Michael W. Deem and Ramdas Pophale) SiO2 
 PCOD9486449
Probable space group: C M M M
;
_chemical_formula_sum "Si O2"
_cell_formula_units_Z 96
_cell_length_a 14.148506
_cell_length_b 20.204547
_cell_length_c 16.189734
_cell_angle_alpha 90.000000
_cell_angle_beta 90.000000
_cell_angle_gamma 90.000000
_cell_volume 4628.064621
_symmetry_space_group_name_H-M "C M M M"
_symmetry_group_IT_number 65
_symmetry_cell_setting 'orthorhombic'
loop_
_space_group_symop_operation_xyz
x,y,z
-x,-y,z
x,-y,-z
-x,y,-z
-x,-y,-z
x,y,-z
-x,y,z
x,-y,z
1/2+x,1/2+y,z
1/2-x,1/2-y,z
1/2+x,1/2-y,-z
1/2-x,1/2+y,-z
1/2-x,1/2-y,-z
1/2+x,1/2+y,-z
1/2-x,1/2+y,z
1/2+x,1/2-y,z
loop_
_atom_site_type_symbol
_atom_site_label
_atom_site_fract_x
_atom_site_fract_y
_atom_site_fract_z
Si Si1 0.387613 0.926159 0.191877
Si Si2 0.386476 0.215856 0.588536
Si Si3 0.887245 0.789923 0.245340
Si Si4 0.392725 0.574887 0.677967
Si Si5 0.693026 0.074110 0.375786
Si Si6 0.884730 0.703933 0.906715
O O1 0.500000 0.917587 0.211202
O O2 0.332170 0.923096 0.278075
O O3 0.359574 0.867695 0.130777
O O4 0.375685 0.000000 0.156854
O O5 0.357851 0.246143 0.500000
O O6 0.500000 0.217226 0.591353
O O7 0.353082 0.253639 0.670914
O O8 0.355000 0.139490 0.589853
O O9 0.873042 0.867851 0.256014
O O10 0.853288 0.757811 0.160734
O O11 0.000000 0.779328 0.245053
O O12 0.500000 0.585856 0.645677
O O13 0.389326 0.500000 0.711376
O O14 0.306263 0.579343 0.614353
O O15 0.663118 0.000000 0.403373
O O16 0.000000 0.705745 0.909654
O O17 0.851166 0.713391 0.000000
#
# Coordination Sequence:
#
# PCOD9486449 Si02
#       6
#    16  16  16  16  16  16
#     4   9  16  27  45  71 107 146 178 210 255 312
#     4  10  20  34  54  82 115 148 177 206 253 319
#     4   9  17  33  54  76 107 141 176 223 270 314
#     4   9  19  36  58  79  98 133 184 232 279 322
#     4  10  19  32  52  77 106 142 182 220 261 310
#     4   9  16  27  47  76 109 145 181 215 259 316
#
# _framework density 20.743012
#
# number of rings (size 3 to 8) (size 9 to 14) (size 15 to 20)
#    0.000    2.667    1.667    0.500    0.000    2.333 
#    0.000    4.167    0.000    5.500    0.000   14.000 
#    0.000    0.000    0.000    0.000    0.000    0.000 
#
# Total GULP energy -267683.603905 kJ/mol
# GULP energy per Si atom -5576.741748 kJ/mol
# Density = 2.069580 g / cm^3
# Si number density = 20.743012 Si / 1000 Ang^3
#
#
#
# Elastic Constant Matrix: (Units=GPa)
#
#
# Indices 1 2 3 4 5 6 
#
# 1 80.8869 15.1589 11.6409 0.0000 0.0000 0.0000
# 2 15.1589 84.2770 52.2273 0.0000 0.0000 0.0000
# 3 11.6409 52.2273 134.9411 0.0000 0.0000 0.0000
# 4 0.0000 0.0000 0.0000 -111.9670 0.0000 0.0000
# 5 0.0000 0.0000 0.0000 0.0000 -15.5966 0.0000
# 6 0.0000 0.0000 0.0000 0.0000 0.0000 5.3375
#
#
#
# Elastic Compliance Matrix: (Units=1/GPa)
#
#
# Indices 1 2 3 4 5 6 
#
# 1 0.012802 -0.002129 -0.000280 0.000000 0.000000 0.000000
# 2 -0.002129 0.015964 -0.005995 0.000000 0.000000 0.000000
# 3 -0.000280 -0.005995 0.009755 0.000000 0.000000 0.000000
# 4 0.000000 0.000000 0.000000 -0.008931 0.000000 0.000000
# 5 0.000000 0.000000 0.000000 0.000000 -0.064117 0.000000
# 6 0.000000 0.000000 0.000000 0.000000 0.000000 0.187355
#
#
# Mechanical properties :
#
#
# Convention : Reuss Voigt Hill
#
# Bulk Modulus (GPa) = 46.05643 50.90657 48.48150
# Shear Modulus (GPa) = 28.26865 -9.70671 9.28097
#
# Velocity S-wave (km/s) = 3.69562 -2.16556 2.11754
# Velocity P-wave (km/s) = 6.36095 4.28275 5.42235
#
# Compressibility (1/GPa) = 0.02171250
#
# Stress axis : x y z
#
# Youngs Moduli (GPa) = 78.11105 62.64224 102.51068
#
# Poissons Ratio (x) = 0.13336 0.02875
# Poissons Ratio (y) = 0.16630 0.61454
# Poissons Ratio (z) = 0.02190 0.37553
#
# Static dielectric constant tensor:
#      x y z
#    x 1.774250 0.000000 0.000000 
#    y 0.000000 1.750910 0.000000 
#    z 0.000000 0.000000 1.738330 
# 
# From -- ./inp_files/40344.got.cif
#   From: 2010.05.17/outbox.cif.g08.bks.cpg/sg65_21_cif.got.tgz:40344.got - 2010.06.03 17:01:31.
