data_PCOD9486742
_publ_section_title
;
Structure prediction by ZEFSAII (Michael W. Deem and Ramdas Pophale) SiO2 
 PCOD9486742
Probable space group: C M M M
;
_chemical_formula_sum "Si O2"
_cell_formula_units_Z 128
_cell_length_a 26.329220
_cell_length_b 30.079997
_cell_length_c 7.387577
_cell_angle_alpha 90.000000
_cell_angle_beta 90.000000
_cell_angle_gamma 90.000000
_cell_volume 5850.834351
_symmetry_space_group_name_H-M "C M M M"
_symmetry_group_IT_number 65
_symmetry_cell_setting 'orthorhombic'
loop_
_space_group_symop_operation_xyz
x,y,z
-x,-y,z
x,-y,-z
-x,y,-z
-x,-y,-z
x,y,-z
-x,y,z
x,-y,z
1/2+x,1/2+y,z
1/2-x,1/2-y,z
1/2+x,1/2-y,-z
1/2-x,1/2+y,-z
1/2-x,1/2-y,-z
1/2+x,1/2+y,-z
1/2-x,1/2+y,z
1/2+x,1/2-y,z
loop_
_atom_site_type_symbol
_atom_site_label
_atom_site_fract_x
_atom_site_fract_y
_atom_site_fract_z
Si Si1 0.558002 0.289827 0.782398
Si Si2 0.442361 0.389433 0.714329
Si Si3 0.653233 0.051262 0.221176
Si Si4 0.611316 0.799469 0.220594
Si Si5 0.748624 0.393353 0.784385
Si Si6 0.228540 0.297338 0.220759
Si Si7 0.557787 0.109714 0.779191
Si Si8 0.351991 0.550200 0.282882
O O1 0.500000 0.286947 0.716520
O O2 0.577084 0.338993 0.737598
O O3 0.589415 0.247690 0.717408
O O4 0.556917 0.287117 0.000000
O O5 0.446276 0.397226 0.500000
O O6 0.500000 0.392084 0.788424
O O7 0.401512 0.423988 0.787852
O O8 0.701135 0.080892 0.282849
O O9 0.600226 0.073986 0.276472
O O10 0.657641 0.000000 0.278066
O O11 0.653884 0.051458 0.000000
O O12 0.669833 0.803454 0.272795
O O13 0.577821 0.841588 0.277258
O O14 0.610330 0.799609 0.000000
O O15 0.743938 0.342562 0.718597
O O16 0.698658 0.421987 0.752503
O O17 0.755742 0.390012 0.000000
O O18 0.250000 0.250000 0.283881
O O19 0.230793 0.295773 0.000000
O O20 0.500000 0.101516 0.719985
O O21 0.557274 0.109542 0.000000
O O22 0.357029 0.547881 0.500000
O O23 0.347841 0.500000 0.213916
#
# Coordination Sequence:
#
# PCOD9486742 Si02
#       8
#    16  16  16  16  16  16  16  16
#     4   9  17  28  46  74 102 128 161 200 240 285
#     4   9  19  36  55  74  99 130 161 196 243 298
#     4   9  16  26  40  61  90 122 157 199 243 286
#     4   9  15  25  40  62  94 128 161 198 240 285
#     4  10  19  33  53  75 100 131 166 205 248 295
#     4   9  17  27  42  68  97 127 164 201 239 287
#     4   9  15  23  36  57  89 128 164 198 239 286
#     4  10  22  38  55  76 100 127 163 207 251 298
#
# _framework density 21.877220000000001
#
# number of rings (size 3 to 8) (size 9 to 14) (size 15 to 20)
#    0.000    2.750    1.250    0.750    1.750    3.250 
#    0.000    2.500    0.000    1.125    0.000    2.625 
#    0.000    0.500    0.000    2.625    0.000    2.500 
#
# Total GULP energy -357416.781526 kJ/mol
# GULP energy per Si atom -5584.637211 kJ/mol
# Density = 2.182743 g / cm^3
# Si number density = 21.877220 Si / 1000 Ang^3
#
#
#
# Elastic Constant Matrix: (Units=GPa)
#
#
# Indices 1 2 3 4 5 6 
#
# 1 110.6106 98.1345 3.2470 0.0000 0.0000 0.0000
# 2 98.1345 218.5432 5.2191 0.0000 0.0000 0.0000
# 3 3.2470 5.2191 74.5759 0.0000 0.0000 0.0000
# 4 0.0000 0.0000 0.0000 9.5837 0.0000 0.0000
# 5 0.0000 0.0000 0.0000 0.0000 4.1578 0.0000
# 6 0.0000 0.0000 0.0000 0.0000 0.0000 78.5941
#
#
#
# Elastic Compliance Matrix: (Units=1/GPa)
#
#
# Indices 1 2 3 4 5 6 
#
# 1 0.015030 -0.006745 -0.000182 0.000000 0.000000 0.000000
# 2 -0.006745 0.007610 -0.000239 0.000000 0.000000 0.000000
# 3 -0.000182 -0.000239 0.013434 0.000000 0.000000 0.000000
# 4 0.000000 0.000000 0.000000 0.104344 0.000000 0.000000
# 5 0.000000 0.000000 0.000000 0.000000 0.240511 0.000000
# 6 0.000000 0.000000 0.000000 0.000000 0.000000 0.012724
#
#
# Mechanical properties :
#
#
# Convention : Reuss Voigt Hill
#
# Bulk Modulus (GPa) = 45.99410 68.54788 57.27099
# Shear Modulus (GPa) = 12.04147 38.27572 25.15859
#
# Velocity S-wave (km/s) = 2.34863 4.18732 3.39483
# Velocity P-wave (km/s) = 5.33143 7.40130 6.44994
#
# Compressibility (1/GPa) = 0.02174192
#
# Stress axis : x y z
#
# Youngs Moduli (GPa) = 66.53333 131.40404 74.43901
#
# Poissons Ratio (x) = 0.88629 0.01358
# Poissons Ratio (y) = 0.44875 0.01779
# Poissons Ratio (z) = 0.01213 0.03140
#
# Static dielectric constant tensor:
#      x y z
#    x 1.768990 0.000000 0.000000 
#    y 0.000000 1.778940 0.000000 
#    z 0.000000 0.000000 1.867640 
# 
# From -- ./inp_files/31478.got.cif
#   From: 2010.05.17/outbox.cif.g08.bks.cpg/sg65_16_cif.got.tgz:31478.got - 2010.06.03 17:01:31.
