data_PCOD9486870
_publ_section_title
;
Structure prediction by ZEFSAII (Michael W. Deem and Ramdas Pophale) SiO2 
 PCOD9486870
Probable space group: C M M M
;
_chemical_formula_sum "Si O2"
_cell_formula_units_Z 80
_cell_length_a 7.670902
_cell_length_b 18.765643
_cell_length_c 27.266931
_cell_angle_alpha 90.000000
_cell_angle_beta 90.000000
_cell_angle_gamma 90.000000
_cell_volume 3925.058587
_symmetry_space_group_name_H-M "C M M M"
_symmetry_group_IT_number 65
_symmetry_cell_setting 'orthorhombic'
loop_
_space_group_symop_operation_xyz
x,y,z
-x,-y,z
x,-y,-z
-x,y,-z
-x,-y,-z
x,y,-z
-x,y,z
x,-y,z
1/2+x,1/2+y,z
1/2-x,1/2-y,z
1/2+x,1/2-y,-z
1/2-x,1/2+y,-z
1/2-x,1/2-y,-z
1/2+x,1/2+y,-z
1/2-x,1/2+y,z
1/2+x,1/2-y,z
loop_
_atom_site_type_symbol
_atom_site_label
_atom_site_fract_x
_atom_site_fract_y
_atom_site_fract_z
Si Si1 0.207661 0.833847 0.106538
Si Si2 0.790587 0.165665 0.000000
Si Si3 0.786303 0.417101 0.393150
Si Si4 0.790306 0.333113 0.702405
Si Si5 0.203102 0.586695 0.500000
Si Si6 0.292610 0.919734 0.203712
O O1 0.250000 0.750000 0.112468
O O2 0.268528 0.878774 0.152739
O O3 0.000000 0.839503 0.105080
O O4 0.275977 0.859695 0.053088
O O5 0.750000 0.250000 0.000000
O O6 0.000000 0.156069 0.000000
O O7 0.737667 0.500000 0.385859
O O8 0.726888 0.369562 0.347784
O O9 0.723273 0.392214 0.447005
O O10 0.000000 0.415898 0.394584
O O11 0.750000 0.250000 0.704753
O O12 0.722623 0.374346 0.750441
O O13 0.000000 0.340083 0.702013
O O14 0.206174 0.500000 0.500000
O O15 0.000000 0.608487 0.500000
O O16 0.500000 0.925226 0.211343
O O17 0.221206 0.000000 0.202074
#
# Coordination Sequence:
#
# PCOD9486870 Si02
#       6
#    16   8  16  16   8  16
#     4  10  19  33  54  78 103 131 163 199 239 284
#     4   8  16  30  49  74 101 129 161 195 233 280
#     4   8  13  24  44  68  92 120 156 196 235 275
#     4  10  20  33  49  69  95 126 158 195 240 289
#     4   7  10  18  37  66  93 115 148 195 236 270
#     4  10  21  36  52  71  96 127 164 205 248 293
#
# _framework density 20.381862000000002
#
# number of rings (size 3 to 8) (size 9 to 14) (size 15 to 20)
#    0.000    2.900    0.000    3.000    0.000    6.000 
#    0.000    1.000    0.000    4.800    0.000    0.000 
#    0.000    2.400    0.000    0.000    0.000    0.000 
#
# Total GULP energy -222988.990397 kJ/mol
# GULP energy per Si atom -5574.724760 kJ/mol
# Density = 2.033547 g / cm^3
# Si number density = 20.381862 Si / 1000 Ang^3
#
#
#
# Elastic Constant Matrix: (Units=GPa)
#
#
# Indices 1 2 3 4 5 6 
#
# 1 37.9273 1.4511 7.0549 0.0000 0.0000 0.0000
# 2 1.4511 119.9939 117.2652 0.0000 0.0000 0.0000
# 3 7.0549 117.2652 257.8587 0.0000 0.0000 0.0000
# 4 0.0000 0.0000 0.0000 32.7599 0.0000 0.0000
# 5 0.0000 0.0000 0.0000 0.0000 16.3408 0.0000
# 6 0.0000 0.0000 0.0000 0.0000 0.0000 17.3366
#
#
#
# Elastic Compliance Matrix: (Units=1/GPa)
#
#
# Indices 1 2 3 4 5 6 
#
# 1 0.026534 0.000699 -0.001044 0.000000 0.000000 0.000000
# 2 0.000699 0.015019 -0.006849 0.000000 0.000000 0.000000
# 3 -0.001044 -0.006849 0.007021 0.000000 0.000000 0.000000
# 4 0.000000 0.000000 0.000000 0.030525 0.000000 0.000000
# 5 0.000000 0.000000 0.000000 0.000000 0.061197 0.000000
# 6 0.000000 0.000000 0.000000 0.000000 0.000000 0.057682
#
#
# Mechanical properties :
#
#
# Convention : Reuss Voigt Hill
#
# Bulk Modulus (GPa) = 29.25148 74.14691 51.69920
# Shear Modulus (GPa) = 22.34538 32.62136 27.48337
#
# Velocity S-wave (km/s) = 3.31469 4.00498 3.67607
# Velocity P-wave (km/s) = 5.38818 7.60554 6.59078
#
# Compressibility (1/GPa) = 0.03418630
#
# Stress axis : x y z
#
# Youngs Moduli (GPa) = 37.68796 66.58387 142.42193
#
# Poissons Ratio (x) = -0.04657 0.14869
# Poissons Ratio (y) = -0.02636 0.97546
# Poissons Ratio (z) = 0.03935 0.45604
#
# Static dielectric constant tensor:
#      x y z
#    x 1.771180 0.000000 0.000000 
#    y 0.000000 1.674800 0.000000 
#    z 0.000000 0.000000 1.771940 
# 
# From -- ./inp_files/72937.got.cif
#   From: 2010.05.17/outbox.cif.g08.bks.cpg/sg65_37_cif.got.tgz:72937.got - 2010.06.03 17:01:31.
