data_PCOD9486334
_publ_section_title
;
Structure prediction by ZEFSAII (Michael W. Deem and Ramdas Pophale) SiO2 
 PCOD9486334
Probable space group: C M M M
;
_chemical_formula_sum "Si O2"
_cell_formula_units_Z 64
_cell_length_a 8.515560
_cell_length_b 18.397438
_cell_length_c 21.941979
_cell_angle_alpha 90.000000
_cell_angle_beta 90.000000
_cell_angle_gamma 90.000000
_cell_volume 3437.528887
_symmetry_space_group_name_H-M "C M M M"
_symmetry_group_IT_number 65
_symmetry_cell_setting 'orthorhombic'
loop_
_space_group_symop_operation_xyz
x,y,z
-x,-y,z
x,-y,-z
-x,y,-z
-x,-y,-z
x,y,-z
-x,y,z
x,-y,z
1/2+x,1/2+y,z
1/2-x,1/2-y,z
1/2+x,1/2-y,-z
1/2-x,1/2+y,-z
1/2-x,1/2-y,-z
1/2+x,1/2+y,-z
1/2-x,1/2+y,z
1/2+x,1/2-y,z
loop_
_atom_site_type_symbol
_atom_site_label
_atom_site_fract_x
_atom_site_fract_y
_atom_site_fract_z
Si Si1 0.313304 0.331756 0.000000
Si Si2 0.690186 0.333480 0.500000
Si Si3 0.688985 0.332890 0.235472
Si Si4 0.311760 0.083962 0.117830
Si Si5 0.689622 0.333031 0.368929
O O1 0.250000 0.250000 0.000000
O O2 0.254182 0.372871 0.060109
O O3 0.500000 0.330202 0.000000
O O4 0.500000 0.332778 0.500000
O O5 0.750000 0.250000 0.500000
O O6 0.740771 0.365760 0.434373
O O7 0.500000 0.331878 0.232411
O O8 0.750000 0.250000 0.230372
O O9 0.754880 0.379478 0.180198
O O10 0.737768 0.362616 0.302672
O O11 0.500000 0.086723 0.115453
O O12 0.261376 0.000000 0.115106
O O13 0.500000 0.332408 0.369004
O O14 0.750000 0.250000 0.369145
#
# Coordination Sequence:
#
# PCOD9486334 Si02
#       5
#     8   8  16  16  16
#     4  12  25  42  65  89 113 139 169 206 249 300
#     4   8  12  20  34  56  89 126 163 203 253 305
#     4  10  19  32  51  76 106 139 177 218 261 310
#     4  11  24  41  59  80 108 140 174 214 259 305
#     4   8  14  23  38  62  93 129 166 208 255 304
#
# _framework density 18.618024999999999
#
# number of rings (size 3 to 8) (size 9 to 14) (size 15 to 20)
#    0.000    2.250    0.000    3.750    0.000    4.500 
#    0.000    0.000    0.000    0.000    0.000    0.875 
#    0.000    7.000    0.000    0.000    0.000    0.500 
#
# Total GULP energy -178341.835696 kJ/mol
# GULP energy per Si atom -5573.182365 kJ/mol
# Density = 1.857565 g / cm^3
# Si number density = 18.618025 Si / 1000 Ang^3
#
#
#
# Elastic Constant Matrix: (Units=GPa)
#
#
# Indices 1 2 3 4 5 6 
#
# 1 45.0260 29.6556 44.2897 0.0000 0.0000 0.0000
# 2 29.6556 87.8445 86.4107 0.0000 0.0000 0.0000
# 3 44.2897 86.4107 253.3785 0.0000 0.0000 0.0000
# 4 0.0000 0.0000 0.0000 -18.4951 0.0000 0.0000
# 5 0.0000 0.0000 0.0000 0.0000 10.5779 0.0000
# 6 0.0000 0.0000 0.0000 0.0000 0.0000 19.5904
#
#
#
# Elastic Compliance Matrix: (Units=1/GPa)
#
#
# Indices 1 2 3 4 5 6 
#
# 1 0.029711 -0.007406 -0.002668 0.000000 0.000000 0.000000
# 2 -0.007406 0.018977 -0.005177 0.000000 0.000000 0.000000
# 3 -0.002668 -0.005177 0.006179 0.000000 0.000000 0.000000
# 4 0.000000 0.000000 0.000000 -0.054068 0.000000 0.000000
# 5 0.000000 0.000000 0.000000 0.000000 0.094537 0.000000
# 6 0.000000 0.000000 0.000000 0.000000 0.000000 0.051045
#
#
# Mechanical properties :
#
#
# Convention : Reuss Voigt Hill
#
# Bulk Modulus (GPa) = 41.04311 78.55122 59.79716
# Shear Modulus (GPa) = 27.02648 17.39418 22.21033
#
# Velocity S-wave (km/s) = 3.81416 3.05989 3.45765
# Velocity P-wave (km/s) = 6.44125 7.40044 6.93744
#
# Compressibility (1/GPa) = 0.02436463
#
# Stress axis : x y z
#
# Youngs Moduli (GPa) = 33.65710 52.69647 161.85062
#
# Poissons Ratio (x) = 0.39028 0.43177
# Poissons Ratio (y) = 0.24927 0.83792
# Poissons Ratio (z) = 0.08979 0.27281
#
# Static dielectric constant tensor:
#      x y z
#    x 1.625420 0.000000 0.000000 
#    y 0.000000 1.594510 0.000000 
#    z 0.000000 0.000000 1.707190 
# 
# From -- ./inp_files/58842.got.cif
#   From: 2010.05.17/outbox.cif.g08.bks.cpg/sg65_30_cif.got.tgz:58842.got - 2010.06.03 17:01:31.
