data_PCOD9486136
_publ_section_title
;
Structure prediction by ZEFSAII (Michael W. Deem and Ramdas Pophale) SiO2 
 PCOD9486136
Probable space group: C M M M
;
_chemical_formula_sum "Si O2"
_cell_formula_units_Z 96
_cell_length_a 15.583128
_cell_length_b 23.010250
_cell_length_c 15.193986
_cell_angle_alpha 90.000000
_cell_angle_beta 90.000000
_cell_angle_gamma 90.000000
_cell_volume 5448.132950
_symmetry_space_group_name_H-M "C M M M"
_symmetry_group_IT_number 65
_symmetry_cell_setting 'orthorhombic'
loop_
_space_group_symop_operation_xyz
x,y,z
-x,-y,z
x,-y,-z
-x,y,-z
-x,-y,-z
x,y,-z
-x,y,z
x,-y,z
1/2+x,1/2+y,z
1/2-x,1/2-y,z
1/2+x,1/2-y,-z
1/2-x,1/2+y,-z
1/2-x,1/2-y,-z
1/2+x,1/2+y,-z
1/2-x,1/2+y,z
1/2+x,1/2-y,z
loop_
_atom_site_type_symbol
_atom_site_label
_atom_site_fract_x
_atom_site_fract_y
_atom_site_fract_z
Si Si1 0.900092 0.436419 0.362703
Si Si2 0.402664 0.896829 0.837989
Si Si3 0.904046 0.839254 0.896589
Si Si4 0.275946 0.436979 0.102351
Si Si5 0.895976 0.307482 0.597091
Si Si6 0.348544 0.766802 0.785597
O O1 0.862695 0.500000 0.385393
O O2 0.900011 0.428059 0.257238
O O3 0.864739 0.374914 0.397101
O O4 0.000000 0.437886 0.390711
O O5 0.500000 0.901993 0.872271
O O6 0.324839 0.923604 0.892118
O O7 0.378637 0.829358 0.822035
O O8 0.833310 0.884625 0.861853
O O9 0.900565 0.782572 0.836324
O O10 0.000000 0.864637 0.893745
O O11 0.886051 0.824524 0.000000
O O12 0.292824 0.500000 0.143433
O O13 0.300331 0.439735 0.000000
O O14 0.874893 0.284493 0.500000
O O15 0.862533 0.271881 0.680595
O O16 0.000000 0.309351 0.605771
O O17 0.250000 0.750000 0.803399
#
# Coordination Sequence:
#
# PCOD9486136 Si02
#       6
#    16  16  16  16  16  16
#     4   8  14  25  43  66  94 134 176 205 239 293
#     4  10  19  32  49  73 105 140 172 208 256 310
#     4  10  21  37  56  77 102 135 177 224 269 312
#     4  10  21  35  51  75 104 134 172 215 262 316
#     4   9  18  31  47  72 106 138 172 216 262 313
#     4  11  20  34  55  76 103 138 179 221 264 312
#
# _framework density 17.620715000000001
#
# number of rings (size 3 to 8) (size 9 to 14) (size 15 to 20)
#    0.000    2.333    1.667    3.000    0.000    3.333 
#    0.000    4.167    0.000    0.000    0.000    0.000 
#    0.000    0.667    0.000    3.500    0.000    0.167 
#
# Total GULP energy -267315.335314 kJ/mol
# GULP energy per Si atom -5569.069486 kJ/mol
# Density = 1.758061 g / cm^3
# Si number density = 17.620715 Si / 1000 Ang^3
#
#
#
# Elastic Constant Matrix: (Units=GPa)
#
#
# Indices 1 2 3 4 5 6 
#
# 1 66.8777 23.9502 5.2659 0.0000 0.0000 0.0000
# 2 23.9502 99.1775 31.6957 0.0000 0.0000 0.0000
# 3 5.2659 31.6957 42.4157 0.0000 0.0000 0.0000
# 4 0.0000 0.0000 0.0000 2.4668 0.0000 0.0000
# 5 0.0000 0.0000 0.0000 0.0000 16.6027 0.0000
# 6 0.0000 0.0000 0.0000 0.0000 0.0000 13.5802
#
#
#
# Elastic Compliance Matrix: (Units=1/GPa)
#
#
# Indices 1 2 3 4 5 6 
#
# 1 0.016416 -0.004352 0.001214 0.000000 0.000000 0.000000
# 2 -0.004352 0.014400 -0.010220 0.000000 0.000000 0.000000
# 3 0.001214 -0.010220 0.031063 0.000000 0.000000 0.000000
# 4 0.000000 0.000000 0.000000 0.405384 0.000000 0.000000
# 5 0.000000 0.000000 0.000000 0.000000 0.060231 0.000000
# 6 0.000000 0.000000 0.000000 0.000000 0.000000 0.073636
#
#
# Mechanical properties :
#
#
# Convention : Reuss Voigt Hill
#
# Bulk Modulus (GPa) = 28.43992 36.69940 32.56966
# Shear Modulus (GPa) = 7.81778 16.36721 12.09250
#
# Velocity S-wave (km/s) = 2.10863 3.05103 2.62251
# Velocity P-wave (km/s) = 4.70144 5.76926 5.26250
#
# Compressibility (1/GPa) = 0.03516185
#
# Stress axis : x y z
#
# Youngs Moduli (GPa) = 60.91740 69.44321 32.19283
#
# Poissons Ratio (x) = 0.30223 -0.03909
# Poissons Ratio (y) = 0.26513 0.32903
# Poissons Ratio (z) = -0.07397 0.70974
#
# Static dielectric constant tensor:
#      x y z
#    x 1.607640 0.000000 0.000000 
#    y 0.000000 1.639860 0.000000 
#    z 0.000000 0.000000 1.618590 
# 
# From -- ./inp_files/40307.got.cif
#   From: 2010.05.17/outbox.cif.g08.bks.cpg/sg65_21_cif.got.tgz:40307.got - 2010.06.03 17:01:31.
