data_PCOD9486802
_publ_section_title
;
Structure prediction by ZEFSAII (Michael W. Deem and Ramdas Pophale) SiO2 
 PCOD9486802
Probable space group: C M M M
;
_chemical_formula_sum "Si O2"
_cell_formula_units_Z 64
_cell_length_a 15.577334
_cell_length_b 7.478942
_cell_length_c 25.531076
_cell_angle_alpha 90.000000
_cell_angle_beta 90.000000
_cell_angle_gamma 90.000000
_cell_volume 2974.420842
_symmetry_space_group_name_H-M "C M M M"
_symmetry_group_IT_number 65
_symmetry_cell_setting 'orthorhombic'
loop_
_space_group_symop_operation_xyz
x,y,z
-x,-y,z
x,-y,-z
-x,y,-z
-x,-y,-z
x,y,-z
-x,y,z
x,-y,z
1/2+x,1/2+y,z
1/2-x,1/2-y,z
1/2+x,1/2-y,-z
1/2-x,1/2+y,-z
1/2-x,1/2-y,-z
1/2+x,1/2+y,-z
1/2-x,1/2+y,z
1/2+x,1/2-y,z
loop_
_atom_site_type_symbol
_atom_site_label
_atom_site_fract_x
_atom_site_fract_y
_atom_site_fract_z
Si Si1 0.000000 0.780678 0.560050
Si Si2 0.394925 0.000000 0.940188
Si Si3 0.844435 0.213102 0.631859
Si Si4 0.100390 0.782445 0.743949
Si Si5 0.105135 0.794767 0.141671
O O1 0.917337 0.720763 0.592863
O O2 0.000000 0.722305 0.500000
O O3 0.000000 0.000000 0.559345
O O4 0.368148 0.171276 0.906188
O O5 0.500000 0.000000 0.941285
O O6 0.365253 0.000000 0.000000
O O7 0.750000 0.250000 0.611634
O O8 0.853796 0.282304 0.691423
O O9 0.856667 0.000000 0.635646
O O10 0.132892 0.724280 0.801015
O O11 0.000000 0.734118 0.738674
O O12 0.103695 0.000000 0.745814
O O13 0.000000 0.793619 0.143659
O O14 0.131955 0.000000 0.134949
#
# Coordination Sequence:
#
# PCOD9486802 Si02
#       5
#     8   8  16  16  16
#     4   9  18  34  57  79 103 147 195 220 256 329
#     4   9  16  24  34  56  94 132 168 215 266 319
#     4  10  19  33  53  78 108 138 178 228 277 326
#     4   8  13  26  48  67  88 129 173 212 260 322
#     4   8  14  24  39  59  84 123 174 215 262 325
#
# _framework density 21.516793
#
# number of rings (size 3 to 8) (size 9 to 14) (size 15 to 20)
#    0.000    3.250    1.250    1.500    0.000    1.000 
#    2.250    3.125    0.000    0.750    0.000    0.000 
#    0.000    1.000    0.500    0.000    0.000    0.000 
#
# Total GULP energy -178594.528353 kJ/mol
# GULP energy per Si atom -5581.079011 kJ/mol
# Density = 2.146782 g / cm^3
# Si number density = 21.516793 Si / 1000 Ang^3
#
#
#
# Elastic Constant Matrix: (Units=GPa)
#
#
# Indices 1 2 3 4 5 6 
#
# 1 84.6543 6.9745 69.2185 0.0000 0.0000 0.0000
# 2 6.9745 78.7088 50.4241 0.0000 0.0000 0.0000
# 3 69.2185 50.4241 219.7411 0.0000 0.0000 0.0000
# 4 0.0000 0.0000 0.0000 -82.7743 0.0000 0.0000
# 5 0.0000 0.0000 0.0000 0.0000 -13.1362 0.0000
# 6 0.0000 0.0000 0.0000 0.0000 0.0000 6.4693
#
#
#
# Elastic Compliance Matrix: (Units=1/GPa)
#
#
# Indices 1 2 3 4 5 6 
#
# 1 0.016216 0.002152 -0.005602 0.000000 0.000000 0.000000
# 2 0.002152 0.015180 -0.004161 0.000000 0.000000 0.000000
# 3 -0.005602 -0.004161 0.007270 0.000000 0.000000 0.000000
# 4 0.000000 0.000000 0.000000 -0.012081 0.000000 0.000000
# 5 0.000000 0.000000 0.000000 0.000000 -0.076126 0.000000
# 6 0.000000 0.000000 0.000000 0.000000 0.000000 0.154577
#
#
# Mechanical properties :
#
#
# Convention : Reuss Voigt Hill
#
# Bulk Modulus (GPa) = 42.65501 70.70427 56.67964
# Shear Modulus (GPa) = 39.04007 -0.78911 19.12548
#
# Velocity S-wave (km/s) = 4.26420 -0.60625 2.98461
# Velocity P-wave (km/s) = 6.64166 5.69573 6.18680
#
# Compressibility (1/GPa) = 0.02344391
#
# Stress axis : x y z
#
# Youngs Moduli (GPa) = 61.66822 65.87512 137.54690
#
# Poissons Ratio (x) = -0.14175 0.77050
# Poissons Ratio (y) = -0.13270 0.57236
# Poissons Ratio (z) = 0.34545 0.27412
#
# Static dielectric constant tensor:
#      x y z
#    x 1.772530 0.000000 0.000000 
#    y 0.000000 1.831250 0.000000 
#    z 0.000000 0.000000 1.762320 
# 
# From -- ./inp_files/66959.got.cif
#   From: 2010.05.17/outbox.cif.g08.bks.cpg/sg65_34_cif.got.tgz:66959.got - 2010.06.03 17:01:31.
