data_PCOD9486403
_publ_section_title
;
Structure prediction by ZEFSAII (Michael W. Deem and Ramdas Pophale) SiO2 
 PCOD9486403
Probable space group: C M M M
;
_chemical_formula_sum "Si O2"
_cell_formula_units_Z 88
_cell_length_a 8.519662
_cell_length_b 19.581621
_cell_length_c 29.238472
_cell_angle_alpha 90.000000
_cell_angle_beta 90.000000
_cell_angle_gamma 90.000000
_cell_volume 4877.818973
_symmetry_space_group_name_H-M "C M M M"
_symmetry_group_IT_number 65
_symmetry_cell_setting 'orthorhombic'
loop_
_space_group_symop_operation_xyz
x,y,z
-x,-y,z
x,-y,-z
-x,y,-z
-x,-y,-z
x,y,-z
-x,y,z
x,-y,z
1/2+x,1/2+y,z
1/2-x,1/2-y,z
1/2+x,1/2-y,-z
1/2-x,1/2+y,-z
1/2-x,1/2-y,-z
1/2+x,1/2+y,-z
1/2-x,1/2+y,z
1/2+x,1/2-y,z
loop_
_atom_site_type_symbol
_atom_site_label
_atom_site_fract_x
_atom_site_fract_y
_atom_site_fract_z
Si Si1 0.189308 0.327747 0.000000
Si Si2 0.310392 0.579114 0.284402
Si Si3 0.310753 0.578374 0.819767
Si Si4 0.808777 0.578047 0.447920
Si Si5 0.811951 0.672625 0.099689
Si Si6 0.187946 0.326841 0.634677
O O1 0.250000 0.250000 0.000000
O O2 0.239473 0.356040 0.049530
O O3 0.000000 0.327677 0.000000
O O4 0.500000 0.582098 0.286501
O O5 0.264797 0.500000 0.293461
O O6 0.262743 0.596237 0.232225
O O7 0.240592 0.630266 0.321197
O O8 0.500000 0.580303 0.820694
O O9 0.261804 0.500000 0.828204
O O10 0.247089 0.627702 0.858483
O O11 0.759504 0.593664 0.500000
O O12 0.760687 0.500000 0.436978
O O13 0.754650 0.631701 0.410154
O O14 0.000000 0.578463 0.447630
O O15 0.750000 0.750000 0.103609
O O16 0.000000 0.674501 0.100427
O O17 0.250000 0.250000 0.635707
O O18 0.000000 0.324977 0.633315
#
# Coordination Sequence:
#
# PCOD9486403 Si02
#       6
#     8  16  16  16  16  16
#     4   8  16  30  47  70  99 131 167 205 247 294
#     4   9  19  37  58  76  98 131 168 209 257 305
#     4   9  19  36  55  75 101 132 166 206 254 305
#     4   8  15  30  52  76 101 131 169 211 253 298
#     4  10  19  32  52  76 102 133 169 209 251 297
#     4  11  22  34  51  77 107 138 172 210 252 299
#
# _framework density 18.040849999999999
#
# number of rings (size 3 to 8) (size 9 to 14) (size 15 to 20)
#    0.000    2.727    0.000    3.273    0.000    4.000 
#    0.000    2.273    0.000    4.364    0.000    6.364 
#    0.000    0.000    0.000    0.000    0.000    0.000 
#
# Total GULP energy -245286.856182 kJ/mol
# GULP energy per Si atom -5574.701277 kJ/mol
# Density = 1.799979 g / cm^3
# Si number density = 18.040850 Si / 1000 Ang^3
#
#
#
# Elastic Constant Matrix: (Units=GPa)
#
#
# Indices 1 2 3 4 5 6 
#
# 1 20.4199 29.6523 35.7095 0.0000 0.0000 0.0000
# 2 29.6523 125.4960 129.0489 0.0000 0.0000 0.0000
# 3 35.7095 129.0489 192.6409 0.0000 0.0000 0.0000
# 4 0.0000 0.0000 0.0000 34.5445 0.0000 0.0000
# 5 0.0000 0.0000 0.0000 0.0000 17.3236 0.0000
# 6 0.0000 0.0000 0.0000 0.0000 0.0000 15.1677
#
#
#
# Elastic Compliance Matrix: (Units=1/GPa)
#
#
# Indices 1 2 3 4 5 6 
#
# 1 0.077164 -0.011325 -0.006717 0.000000 0.000000 0.000000
# 2 -0.011325 0.027272 -0.016170 0.000000 0.000000 0.000000
# 3 -0.006717 -0.016170 0.017268 0.000000 0.000000 0.000000
# 4 0.000000 0.000000 0.000000 0.028948 0.000000 0.000000
# 5 0.000000 0.000000 0.000000 0.000000 0.057725 0.000000
# 6 0.000000 0.000000 0.000000 0.000000 0.000000 0.065930
#
#
# Mechanical properties :
#
#
# Convention : Reuss Voigt Hill
#
# Bulk Modulus (GPa) = 18.76884 80.81980 49.79432
# Shear Modulus (GPa) = 13.86994 23.01691 18.44343
#
# Velocity S-wave (km/s) = 2.77575 3.57574 3.20083
# Velocity P-wave (km/s) = 4.54963 7.87041 6.42816
#
# Compressibility (1/GPa) = 0.05327979
#
# Stress axis : x y z
#
# Youngs Moduli (GPa) = 12.95944 36.66724 57.90899
#
# Poissons Ratio (x) = 0.41526 0.38898
# Poissons Ratio (y) = 0.14677 0.93640
# Poissons Ratio (z) = 0.08705 0.59292
#
# Static dielectric constant tensor:
#      x y z
#    x 1.620500 0.000000 0.000000 
#    y 0.000000 1.582260 0.000000 
#    z 0.000000 0.000000 1.638550 
# 
# From -- ./inp_files/73186.got.cif
#   From: 2010.05.17/outbox.cif.g08.bks.cpg/sg65_37_cif.got.tgz:73186.got - 2010.06.03 17:01:31.
