data_PCOD9486905
_publ_section_title
;
Structure prediction by ZEFSAII (Michael W. Deem and Ramdas Pophale) SiO2 
 PCOD9486905
Probable space group: C M M M
;
_chemical_formula_sum "Si O2"
_cell_formula_units_Z 72
_cell_length_a 15.444383
_cell_length_b 27.782141
_cell_length_c 7.366866
_cell_angle_alpha 90.000000
_cell_angle_beta 90.000000
_cell_angle_gamma 90.000000
_cell_volume 3160.960322
_symmetry_space_group_name_H-M "C M M M"
_symmetry_group_IT_number 65
_symmetry_cell_setting 'orthorhombic'
loop_
_space_group_symop_operation_xyz
x,y,z
-x,-y,z
x,-y,-z
-x,y,-z
-x,-y,-z
x,y,-z
-x,y,z
x,-y,z
1/2+x,1/2+y,z
1/2-x,1/2-y,z
1/2+x,1/2-y,-z
1/2-x,1/2+y,-z
1/2-x,1/2-y,-z
1/2+x,1/2+y,-z
1/2-x,1/2+y,z
1/2+x,1/2-y,z
loop_
_atom_site_type_symbol
_atom_site_label
_atom_site_fract_x
_atom_site_fract_y
_atom_site_fract_z
Si Si1 0.402498 0.375570 0.721778
Si Si2 0.408200 0.168218 0.278879
Si Si3 0.223131 0.409458 0.715485
Si Si4 0.344697 0.731343 0.279401
Si Si5 0.099161 0.500000 0.214346
O O1 0.405549 0.376013 0.500000
O O2 0.500000 0.387170 0.782864
O O3 0.322435 0.409576 0.781036
O O4 0.376070 0.321128 0.778504
O O5 0.405069 0.167437 0.500000
O O6 0.500000 0.146234 0.223556
O O7 0.327666 0.137267 0.213022
O O8 0.403893 0.223782 0.226280
O O9 0.230882 0.403025 0.500000
O O10 0.158859 0.454089 0.740191
O O11 0.343123 0.728691 0.500000
O O12 0.250000 0.750000 0.223535
O O13 0.000000 0.500000 0.290027
O O14 0.089871 0.500000 0.000000
#
# Coordination Sequence:
#
# PCOD9486905 Si02
#       5
#    16  16  16  16   8
#     4   9  16  26  43  71 109 148 179 209 249 296
#     4   9  15  22  37  65 100 135 168 203 244 291
#     4  10  19  33  54  79 105 133 171 216 258 302
#     4   9  13  20  34  60 104 148 175 198 240 295
#     4  11  25  43  60  77  98 126 161 207 270 333
#
# _framework density 22.777887
#
# number of rings (size 3 to 8) (size 9 to 14) (size 15 to 20)
#    0.000    2.556    2.222    1.667    0.000    4.444 
#    0.000    0.556    0.000    4.000    0.000    3.111 
#    0.000    3.556    0.000    0.000    0.000    0.000 
#
# Total GULP energy -200811.858889 kJ/mol
# GULP energy per Si atom -5578.107191 kJ/mol
# Density = 2.272604 g / cm^3
# Si number density = 22.777887 Si / 1000 Ang^3
#
#
#
# Elastic Constant Matrix: (Units=GPa)
#
#
# Indices 1 2 3 4 5 6 
#
# 1 259.1561 72.2132 8.8158 0.0000 0.0000 0.0000
# 2 72.2132 84.2718 -7.0716 0.0000 0.0000 0.0000
# 3 8.8158 -7.0716 79.7730 0.0000 0.0000 0.0000
# 4 0.0000 0.0000 0.0000 197.0523 0.0000 0.0000
# 5 0.0000 0.0000 0.0000 0.0000 -37.7345 0.0000
# 6 0.0000 0.0000 0.0000 0.0000 0.0000 31.6089
#
#
#
# Elastic Compliance Matrix: (Units=1/GPa)
#
#
# Indices 1 2 3 4 5 6 
#
# 1 0.005142 -0.004487 -0.000966 0.000000 0.000000 0.000000
# 2 -0.004487 0.015871 0.001903 0.000000 0.000000 0.000000
# 3 -0.000966 0.001903 0.012811 0.000000 0.000000 0.000000
# 4 0.000000 0.000000 0.000000 0.005075 0.000000 0.000000
# 5 0.000000 0.000000 0.000000 0.000000 -0.026501 0.000000
# 6 0.000000 0.000000 0.000000 0.000000 0.000000 0.031637
#
#
# Mechanical properties :
#
#
# Convention : Reuss Voigt Hill
#
# Bulk Modulus (GPa) = 37.42059 63.45729 50.43894
# Shear Modulus (GPa) = 83.27365 61.46825 72.37095
#
# Velocity S-wave (km/s) = 6.05296 5.20043 5.64282
# Velocity P-wave (km/s) = 8.08179 7.99869 8.04034
#
# Compressibility (1/GPa) = 0.02672325
#
# Stress axis : x y z
#
# Youngs Moduli (GPa) = 194.48138 63.00747 78.05792
#
# Poissons Ratio (x) = 0.28273 0.07540
# Poissons Ratio (y) = 0.87267 -0.14853
# Poissons Ratio (z) = 0.18787 -0.11989
#
# Static dielectric constant tensor:
#      x y z
#    x 1.907060 0.000000 0.000000 
#    y 0.000000 1.652600 0.000000 
#    z 0.000000 0.000000 1.899970 
# 
# From -- ./inp_files/7328.got.cif
#   From: 2010.05.17/outbox.cif.g08.bks.cpg/sg65_4_cif.got.tgz:7328.got - 2010.06.03 17:01:31.
