data_PCOD9486639
_publ_section_title
;
Structure prediction by ZEFSAII (Michael W. Deem and Ramdas Pophale) SiO2 
 PCOD9486639
Probable space group: C M M M
;
_chemical_formula_sum "Si O2"
_cell_formula_units_Z 88
_cell_length_a 31.808706
_cell_length_b 9.184725
_cell_length_c 17.571311
_cell_angle_alpha 90.000000
_cell_angle_beta 90.000000
_cell_angle_gamma 90.000000
_cell_volume 5133.532611
_symmetry_space_group_name_H-M "C M M M"
_symmetry_group_IT_number 65
_symmetry_cell_setting 'orthorhombic'
loop_
_space_group_symop_operation_xyz
x,y,z
-x,-y,z
x,-y,-z
-x,y,-z
-x,-y,-z
x,y,-z
-x,y,z
x,-y,z
1/2+x,1/2+y,z
1/2-x,1/2-y,z
1/2+x,1/2-y,-z
1/2-x,1/2+y,-z
1/2-x,1/2-y,-z
1/2+x,1/2+y,-z
1/2-x,1/2+y,z
1/2+x,1/2-y,z
loop_
_atom_site_type_symbol
_atom_site_label
_atom_site_fract_x
_atom_site_fract_y
_atom_site_fract_z
Si Si1 0.190078 0.668242 0.586182
Si Si2 0.114739 0.175659 0.786434
Si Si3 0.950421 0.837727 0.500000
Si Si4 0.291567 0.326383 0.742915
Si Si5 0.906856 0.667006 0.368418
Si Si6 0.952442 0.822979 0.912297
O O1 0.201143 0.713874 0.500000
O O2 0.204358 0.500000 0.597403
O O3 0.204356 0.768959 0.655773
O O4 0.139569 0.666925 0.594091
O O5 0.164657 0.211907 0.785722
O O6 0.096536 0.250563 0.711237
O O7 0.085635 0.221839 0.857300
O O8 0.112154 0.000000 0.779610
O O9 0.936271 0.751397 0.425938
O O10 0.000000 0.849249 0.500000
O O11 0.931362 0.000000 0.500000
O O12 0.287027 0.500000 0.743332
O O13 0.250000 0.250000 0.775433
O O14 0.919700 0.500000 0.357896
O O15 0.000000 0.778243 0.888282
O O16 0.952476 0.000000 0.911965
O O17 0.946307 0.777095 0.000000
#
# Coordination Sequence:
#
# PCOD9486639 Si02
#       6
#    16  16   8  16  16  16
#     4   9  17  31  49  67  89 120 158 203 254 305
#     4   9  18  32  51  77 104 132 167 206 250 303
#     4  11  23  35  47  65  92 129 172 217 259 295
#     4  10  20  32  46  67  95 130 169 210 251 294
#     4  10  19  33  50  69  94 128 168 208 252 304
#     4   8  14  27  51  82 110 132 157 197 250 305
#
# _framework density 17.142192000000001
#
# number of rings (size 3 to 8) (size 9 to 14) (size 15 to 20)
#    0.000    2.636    0.909    1.909    0.000    3.636 
#    0.000    1.818    0.000    1.091    0.000    1.273 
#    0.000    0.000    0.000    0.000    0.000    0.545 
#
# Total GULP energy -245190.558785 kJ/mol
# GULP energy per Si atom -5572.512700 kJ/mol
# Density = 1.710318 g / cm^3
# Si number density = 17.142192 Si / 1000 Ang^3
#
#
#
# Elastic Constant Matrix: (Units=GPa)
#
#
# Indices 1 2 3 4 5 6 
#
# 1 125.2200 45.7199 74.0982 0.0000 0.0000 0.0000
# 2 45.7199 45.7924 26.5357 0.0000 0.0000 0.0000
# 3 74.0982 26.5357 94.1905 0.0000 0.0000 0.0000
# 4 0.0000 0.0000 0.0000 71.3943 0.0000 0.0000
# 5 0.0000 0.0000 0.0000 0.0000 42.5065 0.0000
# 6 0.0000 0.0000 0.0000 0.0000 0.0000 22.9436
#
#
#
# Elastic Compliance Matrix: (Units=1/GPa)
#
#
# Indices 1 2 3 4 5 6 
#
# 1 0.019678 -0.012759 -0.011886 0.000000 0.000000 0.000000
# 2 -0.012759 0.034371 0.000354 0.000000 0.000000 0.000000
# 3 -0.011886 0.000354 0.019867 0.000000 0.000000 0.000000
# 4 0.000000 0.000000 0.000000 0.014007 0.000000 0.000000
# 5 0.000000 0.000000 0.000000 0.000000 0.023526 0.000000
# 6 0.000000 0.000000 0.000000 0.000000 0.000000 0.043585
#
#
# Mechanical properties :
#
#
# Convention : Reuss Voigt Hill
#
# Bulk Modulus (GPa) = 39.47076 61.99006 50.73041
# Shear Modulus (GPa) = 23.57819 35.29217 29.43518
#
# Velocity S-wave (km/s) = 3.71273 4.54231 4.14831
# Velocity P-wave (km/s) = 6.43853 7.98442 7.25278
#
# Compressibility (1/GPa) = 0.02533521
#
# Stress axis : x y z
#
# Youngs Moduli (GPa) = 50.81870 29.09397 50.33408
#
# Poissons Ratio (x) = 0.37122 0.59825
# Poissons Ratio (y) = 0.64840 -0.01783
# Poissons Ratio (z) = 0.60401 -0.01031
#
# Static dielectric constant tensor:
#      x y z
#    x 1.613620 0.000000 0.000000 
#    y 0.000000 1.583030 0.000000 
#    z 0.000000 0.000000 1.554200 
# 
# From -- ./inp_files/50309.got.cif
#   From: 2010.05.17/outbox.cif.g08.bks.cpg/sg65_26_cif.got.tgz:50309.got - 2010.06.03 17:01:31.
