data_PCOD9486969
_publ_section_title
;
Structure prediction by ZEFSAII (Michael W. Deem and Ramdas Pophale) SiO2 
 PCOD9486969
Probable space group: C M M M
;
_chemical_formula_sum "Si O2"
_cell_formula_units_Z 88
_cell_length_a 22.114745
_cell_length_b 23.811092
_cell_length_c 9.827237
_cell_angle_alpha 90.000000
_cell_angle_beta 90.000000
_cell_angle_gamma 90.000000
_cell_volume 5174.789389
_symmetry_space_group_name_H-M "C M M M"
_symmetry_group_IT_number 65
_symmetry_cell_setting 'orthorhombic'
loop_
_space_group_symop_operation_xyz
x,y,z
-x,-y,z
x,-y,-z
-x,y,-z
-x,-y,-z
x,y,-z
-x,y,z
x,-y,z
1/2+x,1/2+y,z
1/2-x,1/2-y,z
1/2+x,1/2-y,-z
1/2-x,1/2+y,-z
1/2-x,1/2-y,-z
1/2+x,1/2+y,-z
1/2-x,1/2+y,z
1/2+x,1/2-y,z
loop_
_atom_site_type_symbol
_atom_site_label
_atom_site_fract_x
_atom_site_fract_y
_atom_site_fract_z
Si Si1 0.430213 0.932578 0.845100
Si Si2 0.433674 0.240677 0.346283
Si Si3 0.402543 0.656624 0.161463
Si Si4 0.156413 0.637699 0.339800
Si Si5 0.500000 0.435458 0.834970
Si Si6 0.238389 0.816948 0.160553
O O1 0.500000 0.916515 0.816961
O O2 0.384185 0.908153 0.736320
O O3 0.427769 0.000000 0.844353
O O4 0.415707 0.913509 0.000000
O O5 0.427676 0.263329 0.500000
O O6 0.500000 0.213556 0.335856
O O7 0.429334 0.290692 0.240874
O O8 0.382134 0.195057 0.326307
O O9 0.440141 0.600891 0.203210
O O10 0.330387 0.662293 0.183999
O O11 0.412066 0.663079 0.000000
O O12 0.164999 0.626229 0.500000
O O13 0.217817 0.648351 0.258340
O O14 0.500000 0.500000 0.785295
O O15 0.500000 0.438164 0.000000
O O16 0.250000 0.750000 0.186338
O O17 0.252261 0.825640 0.000000
#
# Coordination Sequence:
#
# PCOD9486969 Si02
#       6
#    16  16  16  16   8  16
#     4   9  19  37  59  81 107 142 184 229 274 319
#     4  10  20  32  48  75 110 141 172 217 270 323
#     4  10  19  33  55  79 102 135 178 223 274 328
#     4  11  22  34  52  79 113 149 184 221 269 331
#     4   9  18  34  57  83 107 131 172 229 278 323
#     4  10  20  34  52  77 111 145 181 226 273 329
#
# _framework density 17.005524000000001
#
# number of rings (size 3 to 8) (size 9 to 14) (size 15 to 20)
#    0.000    2.091    2.727    1.636    0.000    3.273 
#    0.000    1.818    0.000    4.364    0.000    0.000 
#    0.000    0.000    0.000    0.000    0.000    0.000 
#
# Total GULP energy -245198.507977 kJ/mol
# GULP energy per Si atom -5572.693363 kJ/mol
# Density = 1.696682 g / cm^3
# Si number density = 17.005524 Si / 1000 Ang^3
#
#
#
# Elastic Constant Matrix: (Units=GPa)
#
#
# Indices 1 2 3 4 5 6 
#
# 1 117.7488 43.4812 67.5598 0.0000 0.0000 0.0000
# 2 43.4812 67.6649 41.1902 0.0000 0.0000 0.0000
# 3 67.5598 41.1902 69.9467 0.0000 0.0000 0.0000
# 4 0.0000 0.0000 0.0000 13.1588 0.0000 0.0000
# 5 0.0000 0.0000 0.0000 0.0000 18.1528 0.0000
# 6 0.0000 0.0000 0.0000 0.0000 0.0000 36.5302
#
#
#
# Elastic Compliance Matrix: (Units=1/GPa)
#
#
# Indices 1 2 3 4 5 6 
#
# 1 0.019165 -0.001632 -0.017550 0.000000 0.000000 0.000000
# 2 -0.001632 0.023176 -0.012071 0.000000 0.000000 0.000000
# 3 -0.017550 -0.012071 0.038356 0.000000 0.000000 0.000000
# 4 0.000000 0.000000 0.000000 0.075995 0.000000 0.000000
# 5 0.000000 0.000000 0.000000 0.000000 0.055088 0.000000
# 6 0.000000 0.000000 0.000000 0.000000 0.000000 0.027375
#
#
# Mechanical properties :
#
#
# Convention : Reuss Voigt Hill
#
# Bulk Modulus (GPa) = 54.97439 62.20255 58.58847
# Shear Modulus (GPa) = 16.24837 20.44363 18.34600
#
# Velocity S-wave (km/s) = 3.09443 3.47100 3.28811
# Velocity P-wave (km/s) = 6.72048 7.26093 6.99593
#
# Compressibility (1/GPa) = 0.01819029
#
# Stress axis : x y z
#
# Youngs Moduli (GPa) = 52.17966 43.14845 26.07161
#
# Poissons Ratio (x) = 0.07042 0.45754
# Poissons Ratio (y) = 0.08516 0.31472
# Poissons Ratio (z) = 0.91573 0.52086
#
# Static dielectric constant tensor:
#      x y z
#    x 1.606140 0.000000 0.000000 
#    y 0.000000 1.558390 0.000000 
#    z 0.000000 0.000000 1.569950 
# 
# From -- ./inp_files/11747.got.cif
#   From: 2010.05.17/outbox.cif.g08.bks.cpg/sg65_6_cif.got.tgz:11747.got - 2010.06.03 17:01:31.
