data_PCOD9486058
_publ_section_title
;
Structure prediction by ZEFSAII (Michael W. Deem and Ramdas Pophale) SiO2 
 PCOD9486058
Probable space group: C M M M
;
_chemical_formula_sum "Si O2"
_cell_formula_units_Z 80
_cell_length_a 27.683848
_cell_length_b 10.297344
_cell_length_c 16.575704
_cell_angle_alpha 90.000000
_cell_angle_beta 90.000000
_cell_angle_gamma 90.000000
_cell_volume 4725.237698
_symmetry_space_group_name_H-M "C M M M"
_symmetry_group_IT_number 65
_symmetry_cell_setting 'orthorhombic'
loop_
_space_group_symop_operation_xyz
x,y,z
-x,-y,z
x,-y,-z
-x,y,-z
-x,-y,-z
x,y,-z
-x,y,z
x,-y,z
1/2+x,1/2+y,z
1/2-x,1/2-y,z
1/2+x,1/2-y,-z
1/2-x,1/2+y,-z
1/2-x,1/2-y,-z
1/2+x,1/2+y,-z
1/2-x,1/2+y,z
1/2+x,1/2-y,z
loop_
_atom_site_type_symbol
_atom_site_label
_atom_site_fract_x
_atom_site_fract_y
_atom_site_fract_z
Si Si1 0.599702 0.846214 0.500000
Si Si2 0.942444 0.347835 0.678399
Si Si3 0.718110 0.362445 0.675051
Si Si4 0.815640 0.858559 0.500000
Si Si5 0.123238 0.850687 0.226790
Si Si6 0.795420 0.846296 0.904977
O O1 0.572052 0.819397 0.415370
O O2 0.647260 0.758719 0.500000
O O3 0.610871 0.000000 0.500000
O O4 0.929577 0.500000 0.692939
O O5 0.915753 0.252555 0.741627
O O6 0.000000 0.334617 0.685770
O O7 0.738289 0.500000 0.701701
O O8 0.750000 0.250000 0.709600
O O9 0.716555 0.356496 0.579266
O O10 0.663228 0.353261 0.702497
O O11 0.841545 0.000000 0.500000
O O12 0.157127 0.817368 0.149468
O O13 0.105041 0.000000 0.216912
O O14 0.750000 0.750000 0.889549
O O15 0.783573 0.000000 0.890064
O O16 0.806862 0.833835 0.000000
#
# Coordination Sequence:
#
# PCOD9486058 Si02
#       6
#     8  16  16   8  16  16
#     4  10  19  33  53  73  95 129 170 212 260 307
#     4  10  21  36  54  76 101 130 168 215 262 307
#     4  10  20  31  45  66  95 130 166 202 241 288
#     4  10  19  32  46  64  96 131 164 206 246 291
#     4  10  20  34  52  75 103 133 167 209 254 301
#     4   9  18  33  54  81 111 140 170 205 247 299
#
# _framework density 16.930364999999998
#
# number of rings (size 3 to 8) (size 9 to 14) (size 15 to 20)
#    0.000    2.200    2.000    1.200    0.000    4.000 
#    0.000    0.000    0.000    2.400    0.000    4.200 
#    0.000    0.000    0.000    0.000    0.000    0.000 
#
# Total GULP energy -222717.575700 kJ/mol
# GULP energy per Si atom -5567.939393 kJ/mol
# Density = 1.689183 g / cm^3
# Si number density = 16.930365 Si / 1000 Ang^3
#
#
#
# Elastic Constant Matrix: (Units=GPa)
#
#
# Indices 1 2 3 4 5 6 
#
# 1 60.9221 75.6071 26.5195 0.0000 0.0000 0.0000
# 2 75.6071 117.9033 43.9754 0.0000 0.0000 0.0000
# 3 26.5195 43.9754 117.3276 0.0000 0.0000 0.0000
# 4 0.0000 0.0000 0.0000 19.1868 0.0000 0.0000
# 5 0.0000 0.0000 0.0000 0.0000 16.5465 0.0000
# 6 0.0000 0.0000 0.0000 0.0000 0.0000 33.1923
#
#
#
# Elastic Compliance Matrix: (Units=1/GPa)
#
#
# Indices 1 2 3 4 5 6 
#
# 1 0.080580 -0.052173 0.001342 0.000000 0.000000 0.000000
# 2 -0.052173 0.043641 -0.004564 0.000000 0.000000 0.000000
# 3 0.001342 -0.004564 0.009931 0.000000 0.000000 0.000000
# 4 0.000000 0.000000 0.000000 0.052119 0.000000 0.000000
# 5 0.000000 0.000000 0.000000 0.000000 0.060436 0.000000
# 6 0.000000 0.000000 0.000000 0.000000 0.000000 0.030127
#
#
# Mechanical properties :
#
#
# Convention : Reuss Voigt Hill
#
# Bulk Modulus (GPa) = 42.80951 65.37301 54.09126
# Shear Modulus (GPa) = 12.64505 23.78851 18.21678
#
# Velocity S-wave (km/s) = 2.73589 3.75251 3.28378
# Velocity P-wave (km/s) = 5.94312 7.58101 6.81148
#
# Compressibility (1/GPa) = 0.02335930
#
# Stress axis : x y z
#
# Youngs Moduli (GPa) = 12.41008 22.91442 100.69871
#
# Poissons Ratio (x) = 1.19552 -0.13510
# Poissons Ratio (y) = 0.64747 0.45961
# Poissons Ratio (z) = -0.01665 0.10459
#
# Static dielectric constant tensor:
#      x y z
#    x 1.535260 0.000000 0.000000 
#    y 0.000000 1.621940 0.000000 
#    z 0.000000 0.000000 1.604990 
# 
# From -- ./inp_files/49942.got.cif
#   From: 2010.05.17/outbox.cif.g08.bks.cpg/sg65_25_cif.got.tgz:49942.got - 2010.06.03 17:01:31.
