data_PCOD9486425
_publ_section_title
;
Structure prediction by ZEFSAII (Michael W. Deem and Ramdas Pophale) SiO2 
 PCOD9486425
Probable space group: C M M M
;
_chemical_formula_sum "Si O2"
_cell_formula_units_Z 72
_cell_length_a 7.706147
_cell_length_b 32.631401
_cell_length_c 13.924480
_cell_angle_alpha 90.000000
_cell_angle_beta 90.000000
_cell_angle_gamma 90.000000
_cell_volume 3501.482783
_symmetry_space_group_name_H-M "C M M M"
_symmetry_group_IT_number 65
_symmetry_cell_setting 'orthorhombic'
loop_
_space_group_symop_operation_xyz
x,y,z
-x,-y,z
x,-y,-z
-x,y,-z
-x,-y,-z
x,y,-z
-x,y,z
x,-y,z
1/2+x,1/2+y,z
1/2-x,1/2-y,z
1/2+x,1/2-y,-z
1/2-x,1/2+y,-z
1/2-x,1/2-y,-z
1/2+x,1/2+y,-z
1/2-x,1/2+y,z
1/2+x,1/2-y,z
loop_
_atom_site_type_symbol
_atom_site_label
_atom_site_fract_x
_atom_site_fract_y
_atom_site_fract_z
Si Si1 0.203431 0.326828 0.106069
Si Si2 0.203905 0.913565 0.809346
Si Si3 0.288286 0.500000 0.111638
Si Si4 0.208070 0.295154 0.693808
Si Si5 0.210405 0.379964 0.393933
O O1 0.215063 0.374710 0.135765
O O2 0.278086 0.302477 0.197635
O O3 0.000000 0.316270 0.100667
O O4 0.279653 0.320030 0.000000
O O5 0.272771 0.957725 0.840949
O O6 0.228183 0.906519 0.695960
O O7 0.000000 0.911948 0.832391
O O8 0.500000 0.500000 0.118836
O O9 0.242694 0.500000 0.000000
O O10 0.250000 0.250000 0.658535
O O11 0.267143 0.333264 0.629325
O O12 0.000000 0.298583 0.698519
O O13 0.268781 0.392435 0.500000
O O14 0.000000 0.380792 0.392856
#
# Coordination Sequence:
#
# PCOD9486425 Si02
#       5
#    16  16   8  16  16
#     4   9  18  33  50  68  97 136 170 201 242 292
#     4  10  19  32  52  77 102 128 163 206 246 288
#     4   9  18  32  50  75 108 138 159 189 240 293
#     4   9  18  31  47  70  98 127 161 202 247 293
#     4   9  19  37  56  71  95 132 166 200 248 299
#
# _framework density 20.562718
#
# number of rings (size 3 to 8) (size 9 to 14) (size 15 to 20)
#    0.000    2.778    0.000    2.667    0.000    6.222 
#    0.000    2.778    0.000    7.333    0.000    0.000 
#    0.000    0.000    0.000    0.000    0.000    0.000 
#
# Total GULP energy -200831.671461 kJ/mol
# GULP energy per Si atom -5578.657541 kJ/mol
# Density = 2.051592 g / cm^3
# Si number density = 20.562718 Si / 1000 Ang^3
#
#
#
# Elastic Constant Matrix: (Units=GPa)
#
#
# Indices 1 2 3 4 5 6 
#
# 1 31.5597 -13.5280 -7.1393 0.0000 0.0000 0.0000
# 2 -13.5280 89.6516 7.2462 0.0000 0.0000 0.0000
# 3 -7.1393 7.2462 74.4171 0.0000 0.0000 0.0000
# 4 0.0000 0.0000 0.0000 5.5410 0.0000 0.0000
# 5 0.0000 0.0000 0.0000 0.0000 15.0679 0.0000
# 6 0.0000 0.0000 0.0000 0.0000 0.0000 -2.3240
#
#
#
# Elastic Compliance Matrix: (Units=1/GPa)
#
#
# Indices 1 2 3 4 5 6 
#
# 1 0.034455 0.004971 0.002821 0.000000 0.000000 0.000000
# 2 0.004971 0.011960 -0.000688 0.000000 0.000000 0.000000
# 3 0.002821 -0.000688 0.013775 0.000000 0.000000 0.000000
# 4 0.000000 0.000000 0.000000 0.180473 0.000000 0.000000
# 5 0.000000 0.000000 0.000000 0.000000 0.066366 0.000000
# 6 0.000000 0.000000 0.000000 0.000000 0.000000 -0.430292
#
#
# Mechanical properties :
#
#
# Convention : Reuss Voigt Hill
#
# Bulk Modulus (GPa) = 13.44084 18.75402 16.09743
# Shear Modulus (GPa) = -44.37659 17.59361 -13.39149
#
# Velocity S-wave (km/s) = -4.65059 2.92825 -2.55473
# Velocity P-wave (km/s) = 4.72086 4.53575 0.92561
#
# Compressibility (1/GPa) = 0.07440011
#
# Stress axis : x y z
#
# Youngs Moduli (GPa) = 29.02331 83.61214 72.59308
#
# Poissons Ratio (x) = -0.41564 -0.20482
# Poissons Ratio (y) = -0.14428 0.04992
# Poissons Ratio (z) = -0.08189 0.05750
#
# Static dielectric constant tensor:
#      x y z
#    x 1.777620 0.000000 0.000000 
#    y 0.000000 1.712780 0.000000 
#    z 0.000000 0.000000 1.743760 
# 
# From -- ./inp_files/36931.got.cif
#   From: 2010.05.17/outbox.cif.g08.bks.cpg/sg65_19_cif.got.tgz:36931.got - 2010.06.03 17:01:31.
