data_PCOD9486039
_publ_section_title
;
Structure prediction by ZEFSAII (Michael W. Deem and Ramdas Pophale) SiO2 
 PCOD9486039
Probable space group: C M M M
;
_chemical_formula_sum "Si O2"
_cell_formula_units_Z 66
_cell_length_a 7.776748
_cell_length_b 19.464995
_cell_length_c 21.496207
_cell_angle_alpha 90.000000
_cell_angle_beta 90.000000
_cell_angle_gamma 90.000000
_cell_volume 3253.974597
_symmetry_space_group_name_H-M "C M M M"
_symmetry_group_IT_number 65
_symmetry_cell_setting 'orthorhombic'
loop_
_space_group_symop_operation_xyz
x,y,z
-x,-y,z
x,-y,-z
-x,y,-z
-x,-y,-z
x,y,-z
-x,y,z
x,-y,z
1/2+x,1/2+y,z
1/2-x,1/2-y,z
1/2+x,1/2-y,-z
1/2-x,1/2+y,-z
1/2-x,1/2-y,-z
1/2+x,1/2+y,-z
1/2-x,1/2+y,z
1/2+x,1/2-y,z
loop_
_atom_site_type_symbol
_atom_site_label
_atom_site_fract_x
_atom_site_fract_y
_atom_site_fract_z
Si Si1 0.789315 0.919898 0.619215
Si Si2 0.000000 0.000000 0.000000
Si Si3 0.812948 0.605077 0.000000
Si Si4 0.205706 0.829469 0.873151
Si Si5 0.206871 0.831104 0.500000
Si Si6 0.206981 0.830969 0.736860
O O1 0.733535 0.873316 0.560709
O O2 0.732123 0.880058 0.681488
O O3 0.000000 0.920492 0.619153
O O4 0.735807 0.000000 0.615793
O O5 0.850194 0.057518 0.000000
O O6 0.796000 0.645814 0.935438
O O7 0.000000 0.572672 0.000000
O O8 0.250000 0.750000 0.868036
O O9 0.263321 0.856908 0.805386
O O10 0.000000 0.840256 0.879195
O O11 0.250000 0.750000 0.500000
O O12 0.000000 0.834469 0.500000
O O13 0.250000 0.750000 0.727441
O O14 0.000000 0.833835 0.737414
#
# Coordination Sequence:
#
# PCOD9486039 Si02
#       6
#    16   2   8  16   8  16
#     4   9  17  31  50  78 107 144 189 233 282 341
#     4  12  26  48  60  86 128 164 202 240 304 378
#     4  12  24  42  64  89 120 161 204 251 304 362
#     4  10  19  35  57  88 116 147 194 254 305 357
#     4  10  19  31  53  79 107 140 184 238 286 340
#     4   9  18  32  53  80 110 146 185 234 289 343
#
# _framework density 20.282886999999999
#
# number of rings (size 3 to 8) (size 9 to 14) (size 15 to 20)
#    0.000    2.182    1.212    2.364    0.000    2.424 
#    2.182    0.000    0.000    3.636    0.000    0.000 
#    0.000    0.000    0.000    0.000    0.000    0.000 
#
# Total GULP energy -183707.590021 kJ/mol
# GULP energy per Si atom -5566.896667 kJ/mol
# Density = 2.023672 g / cm^3
# Si number density = 20.282887 Si / 1000 Ang^3
#
#
#
# Elastic Constant Matrix: (Units=GPa)
#
#
# Indices 1 2 3 4 5 6 
#
# 1 69.2578 11.5628 28.3539 0.0000 0.0000 0.0000
# 2 11.5628 130.5932 106.8943 0.0000 0.0000 0.0000
# 3 28.3539 106.8943 230.0286 0.0000 0.0000 0.0000
# 4 0.0000 0.0000 0.0000 -2.6382 0.0000 0.0000
# 5 0.0000 0.0000 0.0000 0.0000 10.4163 0.0000
# 6 0.0000 0.0000 0.0000 0.0000 0.0000 35.3572
#
#
#
# Elastic Compliance Matrix: (Units=1/GPa)
#
#
# Indices 1 2 3 4 5 6 
#
# 1 0.015214 0.000303 -0.002016 0.000000 0.000000 0.000000
# 2 0.000303 0.012364 -0.005783 0.000000 0.000000 0.000000
# 3 -0.002016 -0.005783 0.007283 0.000000 0.000000 0.000000
# 4 0.000000 0.000000 0.000000 -0.379039 0.000000 0.000000
# 5 0.000000 0.000000 0.000000 0.000000 0.096003 0.000000
# 6 0.000000 0.000000 0.000000 0.000000 0.000000 0.028283
#
#
# Mechanical properties :
#
#
# Convention : Reuss Voigt Hill
#
# Bulk Modulus (GPa) = 50.32950 80.38907 65.35928
# Shear Modulus (GPa) = -25.21719 27.49830 1.14056
#
# Velocity S-wave (km/s) = -3.52983 3.68603 0.75070
# Velocity P-wave (km/s) = 2.87309 7.60498 5.74850
#
# Compressibility (1/GPa) = 0.01986906
#
# Stress axis : x y z
#
# Youngs Moduli (GPa) = 65.73068 80.87983 137.30328
#
# Poissons Ratio (x) = -0.02453 0.27683
# Poissons Ratio (y) = -0.01994 0.79402
# Poissons Ratio (z) = 0.13253 0.46772
#
# Static dielectric constant tensor:
#      x y z
#    x 1.730080 0.000000 0.000000 
#    y 0.000000 1.670020 0.000000 
#    z 0.000000 0.000000 1.964280 
# 
# From -- ./inp_files/59008.got.cif
#   From: 2010.05.17/outbox.cif.g08.bks.cpg/sg65_30_cif.got.tgz:59008.got - 2010.06.03 17:01:31.
