data_PCOD9486601
_publ_section_title
;
Structure prediction by ZEFSAII (Michael W. Deem and Ramdas Pophale) SiO2 
 PCOD9486601
Probable space group: C M M M
;
_chemical_formula_sum "Si O2"
_cell_formula_units_Z 64
_cell_length_a 23.316333
_cell_length_b 17.098018
_cell_length_c 8.482160
_cell_angle_alpha 90.000000
_cell_angle_beta 90.000000
_cell_angle_gamma 90.000000
_cell_volume 3381.524042
_symmetry_space_group_name_H-M "C M M M"
_symmetry_group_IT_number 65
_symmetry_cell_setting 'orthorhombic'
loop_
_space_group_symop_operation_xyz
x,y,z
-x,-y,z
x,-y,-z
-x,y,-z
-x,-y,-z
x,y,-z
-x,y,z
x,-y,z
1/2+x,1/2+y,z
1/2-x,1/2-y,z
1/2+x,1/2-y,-z
1/2-x,1/2+y,-z
1/2-x,1/2-y,-z
1/2+x,1/2+y,-z
1/2-x,1/2+y,z
1/2+x,1/2-y,z
loop_
_atom_site_type_symbol
_atom_site_label
_atom_site_fract_x
_atom_site_fract_y
_atom_site_fract_z
Si Si1 0.000000 0.909161 0.807251
Si Si2 0.935238 0.500000 0.307302
Si Si3 0.859564 0.355151 0.691181
Si Si4 0.235354 0.156769 0.317876
Si Si5 0.614548 0.317800 0.812390
O O1 0.058041 0.864185 0.756025
O O2 0.000000 0.000000 0.757698
O O3 0.000000 0.908873 0.000000
O O4 0.935151 0.500000 0.500000
O O5 0.902559 0.577784 0.257453
O O6 0.000000 0.500000 0.252242
O O7 0.856524 0.353165 0.500000
O O8 0.795087 0.376346 0.747111
O O9 0.880422 0.269969 0.744879
O O10 0.227925 0.133477 0.500000
O O11 0.250000 0.250000 0.315679
O O12 0.175442 0.142750 0.232171
O O13 0.610964 0.312500 0.000000
#
# Coordination Sequence:
#
# PCOD9486601 Si02
#       5
#     8   8  16  16  16
#     4   9  20  38  53  70 101 136 168 207 257 311
#     4   9  18  32  51  77 105 138 177 204 234 295
#     4   9  18  33  53  77 106 137 167 205 250 296
#     4   8  15  30  50  74 103 132 162 202 253 299
#     4  10  19  32  55  78  97 130 173 211 252 303
#
# _framework density 18.926376999999999
#
# number of rings (size 3 to 8) (size 9 to 14) (size 15 to 20)
#    0.000    3.000    0.000    2.250    1.750    4.500 
#    2.250    2.500    0.000    6.000    0.000    0.000 
#    0.000    0.000    0.000    0.000    0.000    0.000 
#
# Total GULP energy -178273.120787 kJ/mol
# GULP energy per Si atom -5571.035025 kJ/mol
# Density = 1.888330 g / cm^3
# Si number density = 18.926377 Si / 1000 Ang^3
#
#
#
# Elastic Constant Matrix: (Units=GPa)
#
#
# Indices 1 2 3 4 5 6 
#
# 1 225.4441 98.7414 25.2130 0.0000 0.0000 0.0000
# 2 98.7414 90.9525 14.4769 0.0000 0.0000 0.0000
# 3 25.2130 14.4769 14.6370 0.0000 0.0000 0.0000
# 4 0.0000 0.0000 0.0000 10.2780 0.0000 0.0000
# 5 0.0000 0.0000 0.0000 0.0000 24.6997 0.0000
# 6 0.0000 0.0000 0.0000 0.0000 0.0000 30.8005
#
#
#
# Elastic Compliance Matrix: (Units=1/GPa)
#
#
# Indices 1 2 3 4 5 6 
#
# 1 0.009014 -0.008681 -0.006941 0.000000 0.000000 0.000000
# 2 -0.008681 0.021410 -0.006222 0.000000 0.000000 0.000000
# 3 -0.006941 -0.006222 0.086430 0.000000 0.000000 0.000000
# 4 0.000000 0.000000 0.000000 0.097295 0.000000 0.000000
# 5 0.000000 0.000000 0.000000 0.000000 0.040486 0.000000
# 6 0.000000 0.000000 0.000000 0.000000 0.000000 0.032467
#
#
# Mechanical properties :
#
#
# Convention : Reuss Voigt Hill
#
# Bulk Modulus (GPa) = 13.66758 67.54401 40.60580
# Shear Modulus (GPa) = 14.07739 25.99579 20.03659
#
# Velocity S-wave (km/s) = 2.73022 3.71013 3.25723
# Velocity P-wave (km/s) = 4.14439 7.35654 5.97053
#
# Compressibility (1/GPa) = 0.07316585
#
# Stress axis : x y z
#
# Youngs Moduli (GPa) = 110.93472 46.70727 11.57009
#
# Poissons Ratio (x) = 0.40549 0.08031
# Poissons Ratio (y) = 0.96307 0.07198
# Poissons Ratio (z) = 0.77001 0.29059
#
# Static dielectric constant tensor:
#      x y z
#    x 1.688530 0.000000 0.000000 
#    y 0.000000 1.647710 0.000000 
#    z 0.000000 0.000000 1.651820 
# 
# From -- ./inp_files/10838.got.cif
#   From: 2010.05.17/outbox.cif.g08.bks.cpg/sg65_6_cif.got.tgz:10838.got - 2010.06.03 17:01:31.
