data_PCOD9486832
_publ_section_title
;
Structure prediction by ZEFSAII (Michael W. Deem and Ramdas Pophale) SiO2 
 PCOD9486832
Probable space group: C M M M
;
_chemical_formula_sum "Si O2"
_cell_formula_units_Z 72
_cell_length_a 19.300692
_cell_length_b 8.554298
_cell_length_c 24.326767
_cell_angle_alpha 90.000000
_cell_angle_beta 90.000000
_cell_angle_gamma 90.000000
_cell_volume 4016.443400
_symmetry_space_group_name_H-M "C M M M"
_symmetry_group_IT_number 65
_symmetry_cell_setting 'orthorhombic'
loop_
_space_group_symop_operation_xyz
x,y,z
-x,-y,z
x,-y,-z
-x,y,-z
-x,-y,-z
x,y,-z
-x,y,z
x,-y,z
1/2+x,1/2+y,z
1/2-x,1/2-y,z
1/2+x,1/2-y,-z
1/2-x,1/2+y,-z
1/2-x,1/2-y,-z
1/2+x,1/2+y,-z
1/2-x,1/2+y,z
1/2+x,1/2-y,z
loop_
_atom_site_type_symbol
_atom_site_label
_atom_site_fract_x
_atom_site_fract_y
_atom_site_fract_z
Si Si1 0.417157 0.812995 0.940344
Si Si2 0.920511 0.309350 0.500000
Si Si3 0.920189 0.811873 0.824754
Si Si4 0.827947 0.687916 0.396666
Si Si5 0.672242 0.311947 0.722168
O O1 0.500000 0.780266 0.940758
O O2 0.390509 0.741406 0.883672
O O3 0.409048 0.000000 0.938191
O O4 0.389819 0.757984 0.000000
O O5 0.921313 0.500000 0.500000
O O6 0.878448 0.261201 0.554300
O O7 0.000000 0.256009 0.500000
O O8 0.875743 0.759461 0.772592
O O9 0.000000 0.756410 0.820152
O O10 0.921284 0.000000 0.824451
O O11 0.825477 0.500000 0.395278
O O12 0.750000 0.750000 0.406157
O O13 0.851461 0.749558 0.337177
O O14 0.673314 0.500000 0.720512
O O15 0.750000 0.250000 0.730365
#
# Coordination Sequence:
#
# PCOD9486832 Si02
#       5
#    16   8  16  16  16
#     4   8  14  25  42  66  95 124 155 193 235 280
#     4   9  19  34  51  75 104 129 156 194 238 281
#     4   9  18  31  47  69  96 125 156 194 241 286
#     4  10  19  33  54  74  95 126 162 198 234 278
#     4  10  20  34  51  71  97 127 161 199 236 280
#
# _framework density 17.926307000000001
#
# number of rings (size 3 to 8) (size 9 to 14) (size 15 to 20)
#    0.000    2.778    0.000    3.667    0.000    3.111 
#    0.000    3.889    0.000    5.333    0.000    0.000 
#    0.000    0.000    0.000    0.000    0.000    0.000 
#
# Total GULP energy -200620.830167 kJ/mol
# GULP energy per Si atom -5572.800838 kJ/mol
# Density = 1.788551 g / cm^3
# Si number density = 17.926307 Si / 1000 Ang^3
#
#
#
# Elastic Constant Matrix: (Units=GPa)
#
#
# Indices 1 2 3 4 5 6 
#
# 1 58.1721 16.0314 93.2633 0.0000 0.0000 0.0000
# 2 16.0314 27.4530 34.4669 0.0000 0.0000 0.0000
# 3 93.2633 34.4669 227.2779 0.0000 0.0000 0.0000
# 4 0.0000 0.0000 0.0000 16.0271 0.0000 0.0000
# 5 0.0000 0.0000 0.0000 0.0000 53.1046 0.0000
# 6 0.0000 0.0000 0.0000 0.0000 0.0000 15.6592
#
#
#
# Elastic Compliance Matrix: (Units=1/GPa)
#
#
# Indices 1 2 3 4 5 6 
#
# 1 0.050656 -0.004303 -0.020134 0.000000 0.000000 0.000000
# 2 -0.004303 0.045358 -0.005113 0.000000 0.000000 0.000000
# 3 -0.020134 -0.005113 0.013437 0.000000 0.000000 0.000000
# 4 0.000000 0.000000 0.000000 0.062394 0.000000 0.000000
# 5 0.000000 0.000000 0.000000 0.000000 0.018831 0.000000
# 6 0.000000 0.000000 0.000000 0.000000 0.000000 0.063860
#
#
# Mechanical properties :
#
#
# Convention : Reuss Voigt Hill
#
# Bulk Modulus (GPa) = 19.86047 66.71403 43.28725
# Shear Modulus (GPa) = 15.13230 28.23427 21.68328
#
# Velocity S-wave (km/s) = 2.90856 3.97296 3.48167
# Velocity P-wave (km/s) = 4.73103 7.63822 6.35315
#
# Compressibility (1/GPa) = 0.05035127
#
# Stress axis : x y z
#
# Youngs Moduli (GPa) = 19.74117 22.04692 74.42015
#
# Poissons Ratio (x) = 0.09486 1.49837
# Poissons Ratio (y) = 0.08494 0.38050
# Poissons Ratio (z) = 0.39747 0.11272
#
# Static dielectric constant tensor:
#      x y z
#    x 1.597340 0.000000 0.000000 
#    y 0.000000 1.610540 0.000000 
#    z 0.000000 0.000000 1.648680 
# 
# From -- ./inp_files/70745.got.cif
#   From: 2010.05.17/outbox.cif.g08.bks.cpg/sg65_36_cif.got.tgz:70745.got - 2010.06.03 17:01:31.
