data_PCOD9486323
_publ_section_title
;
Structure prediction by ZEFSAII (Michael W. Deem and Ramdas Pophale) SiO2 
 PCOD9486323
Probable space group: C M M M
;
_chemical_formula_sum "Si O2"
_cell_formula_units_Z 104
_cell_length_a 34.098792
_cell_length_b 18.898370
_cell_length_c 7.564962
_cell_angle_alpha 90.000000
_cell_angle_beta 90.000000
_cell_angle_gamma 90.000000
_cell_volume 4874.949174
_symmetry_space_group_name_H-M "C M M M"
_symmetry_group_IT_number 65
_symmetry_cell_setting 'orthorhombic'
loop_
_space_group_symop_operation_xyz
x,y,z
-x,-y,z
x,-y,-z
-x,y,-z
-x,-y,-z
x,y,-z
-x,y,z
x,-y,z
1/2+x,1/2+y,z
1/2-x,1/2-y,z
1/2+x,1/2-y,-z
1/2-x,1/2+y,-z
1/2-x,1/2-y,-z
1/2+x,1/2+y,-z
1/2-x,1/2+y,z
1/2+x,1/2-y,z
loop_
_atom_site_type_symbol
_atom_site_label
_atom_site_fract_x
_atom_site_fract_y
_atom_site_fract_z
Si Si1 0.416935 0.579089 0.290742
Si Si2 0.116070 0.321579 0.700994
Si Si3 0.045319 0.581524 0.284197
Si Si4 0.846882 0.176163 0.282744
Si Si5 0.186089 0.418879 0.209551
Si Si6 0.500000 0.419250 0.790774
Si Si7 0.774709 0.082040 0.287681
O O1 0.411330 0.573117 0.500000
O O2 0.418552 0.500000 0.214208
O O3 0.380483 0.622055 0.224229
O O4 0.459151 0.614622 0.263570
O O5 0.104622 0.301866 0.500000
O O6 0.077946 0.361922 0.778082
O O7 0.136859 0.251893 0.780130
O O8 0.151588 0.376918 0.699010
O O9 0.046635 0.581663 0.500000
O O10 0.054339 0.500000 0.229994
O O11 0.000000 0.596955 0.233827
O O12 0.844852 0.179893 0.500000
O O13 0.806162 0.140148 0.224908
O O14 0.185078 0.500000 0.268566
O O15 0.230507 0.394567 0.244583
O O16 0.179062 0.415725 0.000000
O O17 0.500000 0.500000 0.713982
O O18 0.500000 0.424223 0.000000
O O19 0.778460 0.078357 0.500000
O O20 0.780662 0.000000 0.223271
#
# Coordination Sequence:
#
# PCOD9486323 Si02
#       7
#    16  16  16  16  16   8  16
#     4   9  16  29  49  70  94 127 166 207 253 302
#     4  10  19  32  51  76 104 131 163 202 251 306
#     4   8  14  26  46  72  98 123 156 199 243 288
#     4   9  18  31  48  75 103 128 164 209 252 296
#     4  10  21  36  53  74 100 129 165 209 250 293
#     4   9  17  29  45  67  93 121 162 213 256 295
#     4   9  17  32  54  75  97 130 170 208 247 293
#
# _framework density 21.333556000000002
#
# number of rings (size 3 to 8) (size 9 to 14) (size 15 to 20)
#    0.000    2.846    0.000    2.077    0.000    4.923 
#    1.385    5.385    0.000    4.154    0.000    2.154 
#    0.000    0.000    0.000    0.000    0.000    0.000 
#
# Total GULP energy -289809.550025 kJ/mol
# GULP energy per Si atom -5573.260577 kJ/mol
# Density = 2.128500 g / cm^3
# Si number density = 21.333556 Si / 1000 Ang^3
#
#
#
# Elastic Constant Matrix: (Units=GPa)
#
#
# Indices 1 2 3 4 5 6 
#
# 1 143.1470 68.9887 -2.9413 0.0000 0.0000 0.0000
# 2 68.9887 72.4601 4.0282 0.0000 0.0000 0.0000
# 3 -2.9413 4.0282 48.9491 0.0000 0.0000 0.0000
# 4 0.0000 0.0000 0.0000 -1.3165 0.0000 0.0000
# 5 0.0000 0.0000 0.0000 0.0000 -449.4406 0.0000
# 6 0.0000 0.0000 0.0000 0.0000 0.0000 -54.7967
#
#
#
# Elastic Compliance Matrix: (Units=1/GPa)
#
#
# Indices 1 2 3 4 5 6 
#
# 1 0.013068 -0.012543 0.001817 0.000000 0.000000 0.000000
# 2 -0.012543 0.025903 -0.002885 0.000000 0.000000 0.000000
# 3 0.001817 -0.002885 0.020776 0.000000 0.000000 0.000000
# 4 0.000000 0.000000 0.000000 -0.759610 0.000000 0.000000
# 5 0.000000 0.000000 0.000000 0.000000 -0.002225 0.000000
# 6 0.000000 0.000000 0.000000 0.000000 0.000000 -0.018249
#
#
# Mechanical properties :
#
#
# Convention : Reuss Voigt Hill
#
# Bulk Modulus (GPa) = 30.74517 44.96750 37.85633
# Shear Modulus (GPa) = -7.32846 -88.14539 -47.73692
#
# Velocity S-wave (km/s) = -1.85543 -6.43486 -4.73551
# Velocity P-wave (km/s) = 3.13891 5.83831 3.48088
#
# Compressibility (1/GPa) = 0.03252544
#
# Stress axis : x y z
#
# Youngs Moduli (GPa) = 76.52087 38.60485 48.13237
#
# Poissons Ratio (x) = 0.48423 -0.08748
# Poissons Ratio (y) = 0.95982 0.13888
# Poissons Ratio (z) = -0.13908 0.11139
#
# Static dielectric constant tensor:
#      x y z
#    x 1.778880 0.000000 0.000000 
#    y 0.000000 1.800720 0.000000 
#    z 0.000000 0.000000 1.818920 
# 
# From -- ./inp_files/18674.got.cif
#   From: 2010.05.17/outbox.cif.g08.bks.cpg/sg65_10_cif.got.tgz:18674.got - 2010.06.03 17:01:31.
