data_PCOD9486424
_publ_section_title
;
Structure prediction by ZEFSAII (Michael W. Deem and Ramdas Pophale) SiO2 
 PCOD9486424
Probable space group: C M M M
;
_chemical_formula_sum "Si O2"
_cell_formula_units_Z 104
_cell_length_a 15.937583
_cell_length_b 9.159029
_cell_length_c 35.636159
_cell_angle_alpha 90.000000
_cell_angle_beta 90.000000
_cell_angle_gamma 90.000000
_cell_volume 5201.909372
_symmetry_space_group_name_H-M "C M M M"
_symmetry_group_IT_number 65
_symmetry_cell_setting 'orthorhombic'
loop_
_space_group_symop_operation_xyz
x,y,z
-x,-y,z
x,-y,-z
-x,y,-z
-x,-y,-z
x,y,-z
-x,y,z
x,-y,z
1/2+x,1/2+y,z
1/2-x,1/2-y,z
1/2+x,1/2-y,-z
1/2-x,1/2+y,-z
1/2-x,1/2-y,-z
1/2+x,1/2+y,-z
1/2-x,1/2+y,z
1/2+x,1/2-y,z
loop_
_atom_site_type_symbol
_atom_site_label
_atom_site_fract_x
_atom_site_fract_y
_atom_site_fract_z
Si Si1 0.158577 0.825033 0.695371
Si Si2 0.341455 0.324582 0.223090
Si Si3 0.602874 0.668208 0.924298
Si Si4 0.100298 0.666036 0.458728
Si Si5 0.599838 0.835549 0.850340
Si Si6 0.840424 0.825722 0.385529
Si Si7 0.102592 0.668059 0.000000
O O1 0.250000 0.750000 0.695486
O O2 0.118620 0.790005 0.735845
O O3 0.117624 0.788674 0.655039
O O4 0.170630 0.000000 0.695325
O O5 0.335921 0.500000 0.219517
O O6 0.250000 0.250000 0.223445
O O7 0.385893 0.255986 0.187270
O O8 0.500000 0.668663 0.924015
O O9 0.629464 0.500000 0.923927
O O10 0.632491 0.752646 0.887168
O O11 0.629247 0.749205 0.962301
O O12 0.130903 0.716564 0.500000
O O13 0.132162 0.500000 0.452720
O O14 0.119671 0.765166 0.423322
O O15 0.000000 0.657808 0.460965
O O16 0.500000 0.847496 0.855551
O O17 0.634622 0.000000 0.846900
O O18 0.750000 0.750000 0.384133
O O19 0.833693 0.000000 0.387797
O O20 0.129714 0.500000 0.000000
O O21 0.000000 0.668237 0.000000
#
# Coordination Sequence:
#
# PCOD9486424 Si02
#       7
#    16  16  16  16  16  16   8
#     4   8  16  30  48  71  97 125 157 196 241 286
#     4  10  19  33  53  74  97 127 164 202 241 289
#     4   9  16  26  41  62  89 122 159 198 242 291
#     4   9  19  36  54  71  96 131 167 202 242 288
#     4  10  20  33  48  69  99 131 163 202 247 291
#     4  10  19  32  52  77 102 127 159 200 244 289
#     4   9  15  23  37  59  88 121 156 195 240 289
#
# _framework density 19.992659
#
# number of rings (size 3 to 8) (size 9 to 14) (size 15 to 20)
#    0.000    2.692    0.000    2.538    0.000    5.846 
#    0.000    1.538    0.000    4.615    0.000    0.538 
#    0.000    0.000    0.000    0.000    0.000    0.000 
#
# Total GULP energy -289728.679654 kJ/mol
# GULP energy per Si atom -5571.705378 kJ/mol
# Density = 1.994716 g / cm^3
# Si number density = 19.992659 Si / 1000 Ang^3
#
#
#
# Elastic Constant Matrix: (Units=GPa)
#
#
# Indices 1 2 3 4 5 6 
#
# 1 6.4039 8.0604 14.9593 0.0000 0.0000 0.0000
# 2 8.0604 126.6651 107.9508 0.0000 0.0000 0.0000
# 3 14.9593 107.9508 244.3645 0.0000 0.0000 0.0000
# 4 0.0000 0.0000 0.0000 20.2995 0.0000 0.0000
# 5 0.0000 0.0000 0.0000 0.0000 12.6364 0.0000
# 6 0.0000 0.0000 0.0000 0.0000 0.0000 16.9181
#
#
#
# Elastic Compliance Matrix: (Units=1/GPa)
#
#
# Indices 1 2 3 4 5 6 
#
# 1 0.183103 -0.003366 -0.009722 0.000000 0.000000 0.000000
# 2 -0.003366 0.012724 -0.005415 0.000000 0.000000 0.000000
# 3 -0.009722 -0.005415 0.007079 0.000000 0.000000 0.000000
# 4 0.000000 0.000000 0.000000 0.049262 0.000000 0.000000
# 5 0.000000 0.000000 0.000000 0.000000 0.079137 0.000000
# 6 0.000000 0.000000 0.000000 0.000000 0.000000 0.059108
#
#
# Mechanical properties :
#
#
# Convention : Reuss Voigt Hill
#
# Bulk Modulus (GPa) = 6.02772 71.04159 38.53466
# Shear Modulus (GPa) = 10.35798 26.40166 18.37982
#
# Velocity S-wave (km/s) = 2.27863 3.63790 3.03533
# Velocity P-wave (km/s) = 3.15347 7.29772 5.62144
#
# Compressibility (1/GPa) = 0.16590015
#
# Stress axis : x y z
#
# Youngs Moduli (GPa) = 5.46141 78.59243 141.25362
#
# Poissons Ratio (x) = 0.26456 1.37326
# Poissons Ratio (y) = 0.01838 0.76487
# Poissons Ratio (z) = 0.05310 0.42557
#
# Static dielectric constant tensor:
#      x y z
#    x 1.730340 0.000000 0.000000 
#    y 0.000000 1.680790 0.000000 
#    z 0.000000 0.000000 1.756620 
# 
# From -- ./inp_files/78239.got.cif
#   From: 2010.05.17/outbox.cif.g08.bks.cpg/sg65_40_cif.got.tgz:78239.got - 2010.06.03 17:01:31.
