data_PCOD9486069
_publ_section_title
;
Structure prediction by ZEFSAII (Michael W. Deem and Ramdas Pophale) SiO2 
 PCOD9486069
Probable space group: C M M M
;
_chemical_formula_sum "Si O2"
_cell_formula_units_Z 96
_cell_length_a 28.095583
_cell_length_b 8.586295
_cell_length_c 24.936941
_cell_angle_alpha 90.000000
_cell_angle_beta 90.000000
_cell_angle_gamma 90.000000
_cell_volume 6015.711934
_symmetry_space_group_name_H-M "C M M M"
_symmetry_group_IT_number 65
_symmetry_cell_setting 'orthorhombic'
loop_
_space_group_symop_operation_xyz
x,y,z
-x,-y,z
x,-y,-z
-x,y,-z
-x,-y,-z
x,y,-z
-x,y,z
x,-y,z
1/2+x,1/2+y,z
1/2-x,1/2-y,z
1/2+x,1/2-y,-z
1/2-x,1/2+y,-z
1/2-x,1/2-y,-z
1/2+x,1/2+y,-z
1/2-x,1/2+y,z
1/2+x,1/2-y,z
loop_
_atom_site_type_symbol
_atom_site_label
_atom_site_fract_x
_atom_site_fract_y
_atom_site_fract_z
Si Si1 0.801739 0.314291 0.383146
Si Si2 0.446953 0.310572 0.333059
Si Si3 0.804021 0.685465 0.829738
Si Si4 0.850541 0.187463 0.722955
Si Si5 0.304126 0.313225 0.058529
Si Si6 0.393946 0.311675 0.439789
O O1 0.801009 0.500000 0.381757
O O2 0.750000 0.250000 0.397669
O O3 0.816762 0.249734 0.324599
O O4 0.842728 0.255307 0.423187
O O5 0.500000 0.254570 0.320418
O O6 0.447936 0.500000 0.332235
O O7 0.404203 0.263993 0.293519
O O8 0.430533 0.264291 0.393016
O O9 0.801892 0.500000 0.829165
O O10 0.750000 0.750000 0.825052
O O11 0.833722 0.747868 0.779635
O O12 0.824687 0.742821 0.886907
O O13 0.848103 0.000000 0.723049
O O14 0.302972 0.500000 0.062987
O O15 0.250000 0.250000 0.057274
O O16 0.325456 0.272678 0.000000
O O17 0.407352 0.265333 0.500000
O O18 0.390853 0.500000 0.438036
#
# Coordination Sequence:
#
# PCOD9486069 Si02
#       6
#    16  16  16  16  16  16
#     4  11  21  33  48  65  88 118 151 184 221 263
#     4   8  15  29  50  73  92 112 140 178 224 268
#     4  11  20  29  43  64  92 125 160 192 224 262
#     4  10  19  32  48  67  92 117 147 186 224 266
#     4   9  16  26  40  59  86 121 159 194 226 259
#     4   9  18  32  49  70  94 117 144 178 215 260
#
# _framework density 15.958209999999999
#
# number of rings (size 3 to 8) (size 9 to 14) (size 15 to 20)
#    0.000    2.333    0.000    6.500    0.000    2.000 
#    0.000    1.667    0.000   12.500    0.000    4.667 
#    0.000    0.667    0.000    7.667    0.000    2.167 
#
# Total GULP energy -267608.680157 kJ/mol
# GULP energy per Si atom -5575.180837 kJ/mol
# Density = 1.592189 g / cm^3
# Si number density = 15.958210 Si / 1000 Ang^3
#
#
#
# Elastic Constant Matrix: (Units=GPa)
#
#
# Indices 1 2 3 4 5 6 
#
# 1 69.2249 11.2270 27.0305 0.0000 0.0000 0.0000
# 2 11.2270 60.9602 29.7856 0.0000 0.0000 0.0000
# 3 27.0305 29.7856 122.6367 0.0000 0.0000 0.0000
# 4 0.0000 0.0000 0.0000 23.9099 0.0000 0.0000
# 5 0.0000 0.0000 0.0000 0.0000 10.1608 0.0000
# 6 0.0000 0.0000 0.0000 0.0000 0.0000 12.6433
#
#
#
# Elastic Compliance Matrix: (Units=1/GPa)
#
#
# Indices 1 2 3 4 5 6 
#
# 1 0.015908 -0.001380 -0.003171 0.000000 0.000000 0.000000
# 2 -0.001380 0.018733 -0.004245 0.000000 0.000000 0.000000
# 3 -0.003171 -0.004245 0.009884 0.000000 0.000000 0.000000
# 4 0.000000 0.000000 0.000000 0.041824 0.000000 0.000000
# 5 0.000000 0.000000 0.000000 0.000000 0.098417 0.000000
# 6 0.000000 0.000000 0.000000 0.000000 0.000000 0.079093
#
#
# Mechanical properties :
#
#
# Convention : Reuss Voigt Hill
#
# Bulk Modulus (GPa) = 37.13191 43.21199 40.17195
# Shear Modulus (GPa) = 17.21587 21.66138 19.43863
#
# Velocity S-wave (km/s) = 3.28809 3.68826 3.49391
# Velocity P-wave (km/s) = 6.14281 6.72865 6.44239
#
# Compressibility (1/GPa) = 0.02693101
#
# Stress axis : x y z
#
# Youngs Moduli (GPa) = 62.86253 53.38243 101.17140
#
# Poissons Ratio (x) = 0.07369 0.32081
# Poissons Ratio (y) = 0.08677 0.42952
# Poissons Ratio (z) = 0.19934 0.22663
#
# Static dielectric constant tensor:
#      x y z
#    x 1.516050 0.000000 0.000000 
#    y 0.000000 1.541740 0.000000 
#    z 0.000000 0.000000 1.558340 
# 
# From -- ./inp_files/71677.got.cif
#   From: 2010.05.17/outbox.cif.g08.bks.cpg/sg65_36_cif.got.tgz:71677.got - 2010.06.03 17:01:31.
