data_PCOD9486068
_publ_section_title
;
Structure prediction by ZEFSAII (Michael W. Deem and Ramdas Pophale) SiO2 
 PCOD9486068
Probable space group: C M M M
;
_chemical_formula_sum "Si O2"
_cell_formula_units_Z 104
_cell_length_a 28.383279
_cell_length_b 8.386785
_cell_length_c 27.547113
_cell_angle_alpha 90.000000
_cell_angle_beta 90.000000
_cell_angle_gamma 90.000000
_cell_volume 6557.437599
_symmetry_space_group_name_H-M "C M M M"
_symmetry_group_IT_number 65
_symmetry_cell_setting 'orthorhombic'
loop_
_space_group_symop_operation_xyz
x,y,z
-x,-y,z
x,-y,-z
-x,y,-z
-x,-y,-z
x,y,-z
-x,y,z
x,-y,z
1/2+x,1/2+y,z
1/2-x,1/2-y,z
1/2+x,1/2-y,-z
1/2-x,1/2+y,-z
1/2-x,1/2-y,-z
1/2+x,1/2+y,-z
1/2-x,1/2+y,z
1/2+x,1/2-y,z
loop_
_atom_site_type_symbol
_atom_site_label
_atom_site_fract_x
_atom_site_fract_y
_atom_site_fract_z
Si Si1 0.554517 0.307494 0.944753
Si Si2 0.803990 0.192276 0.500000
Si Si3 0.804037 0.806715 0.393977
Si Si4 0.302448 0.309219 0.801149
Si Si5 0.605791 0.811461 0.850819
Si Si6 0.552946 0.692178 0.756367
Si Si7 0.854588 0.805549 0.296882
O O1 0.500000 0.260616 0.935518
O O2 0.556296 0.500000 0.942682
O O3 0.587869 0.238900 0.903558
O O4 0.566421 0.259512 0.000000
O O5 0.750000 0.250000 0.500000
O O6 0.822791 0.244836 0.552706
O O7 0.805100 0.000000 0.500000
O O8 0.750000 0.750000 0.388774
O O9 0.834877 0.750249 0.348478
O O10 0.803560 0.000000 0.393154
O O11 0.303405 0.500000 0.802227
O O12 0.250000 0.250000 0.810499
O O13 0.341590 0.246224 0.838381
O O14 0.320195 0.257753 0.747385
O O15 0.571985 0.735902 0.809696
O O16 0.603597 0.000000 0.845688
O O17 0.500000 0.752655 0.748433
O O18 0.551717 0.500000 0.753552
O O19 0.593027 0.747633 0.718543
O O20 0.855021 0.000000 0.297794
#
# Coordination Sequence:
#
# PCOD9486068 Si02
#       7
#    16   8  16  16  16  16  16
#     4   9  18  33  52  72  94 121 151 182 218 259
#     4   8  14  22  34  52  75 105 135 167 208 254
#     4   9  15  24  37  55  80 107 137 171 210 255
#     4  10  19  32  48  66  89 117 150 184 218 257
#     4  11  21  31  46  69  95 121 147 177 216 260
#     4   9  17  30  46  62  83 113 147 181 218 260
#     4   8  15  26  41  61  83 109 142 178 214 256
#
# _framework density 15.859854
#
# number of rings (size 3 to 8) (size 9 to 14) (size 15 to 20)
#    0.000    2.769    0.000    4.154    0.000    2.769 
#    0.000    3.846    0.000    0.462    0.000    0.538 
#    0.000    4.308    0.000    0.000    0.000   34.154 
#
# Total GULP energy -289702.064052 kJ/mol
# GULP energy per Si atom -5571.193539 kJ/mol
# Density = 1.582376 g / cm^3
# Si number density = 15.859854 Si / 1000 Ang^3
#
#
#
# Elastic Constant Matrix: (Units=GPa)
#
#
# Indices 1 2 3 4 5 6 
#
# 1 118.4188 11.2473 78.0183 0.0000 0.0000 0.0000
# 2 11.2473 10.5066 12.4718 0.0000 0.0000 0.0000
# 3 78.0183 12.4718 140.9228 0.0000 0.0000 0.0000
# 4 0.0000 0.0000 0.0000 6.0989 0.0000 0.0000
# 5 0.0000 0.0000 0.0000 0.0000 43.8457 0.0000
# 6 0.0000 0.0000 0.0000 0.0000 0.0000 17.0867
#
#
#
# Elastic Compliance Matrix: (Units=1/GPa)
#
#
# Indices 1 2 3 4 5 6 
#
# 1 0.013657 -0.006307 -0.007003 0.000000 0.000000 0.000000
# 2 -0.006307 0.109264 -0.006178 0.000000 0.000000 0.000000
# 3 -0.007003 -0.006178 0.011520 0.000000 0.000000 0.000000
# 4 0.000000 0.000000 0.000000 0.163964 0.000000 0.000000
# 5 0.000000 0.000000 0.000000 0.000000 0.022807 0.000000
# 6 0.000000 0.000000 0.000000 0.000000 0.000000 0.058525
#
#
# Mechanical properties :
#
#
# Convention : Reuss Voigt Hill
#
# Bulk Modulus (GPa) = 10.47509 52.59143 31.53326
# Shear Modulus (GPa) = 11.09790 24.61365 17.85577
#
# Velocity S-wave (km/s) = 2.64814 3.94375 3.35900
# Velocity P-wave (km/s) = 3.99617 7.34640 5.91350
#
# Compressibility (1/GPa) = 0.09546459
#
# Stress axis : x y z
#
# Youngs Moduli (GPa) = 73.22041 9.15214 86.80714
#
# Poissons Ratio (x) = 0.05773 0.60790
# Poissons Ratio (y) = 0.46184 0.53629
# Poissons Ratio (z) = 0.51275 0.05654
#
# Static dielectric constant tensor:
#      x y z
#    x 1.503530 0.000000 0.000000 
#    y 0.000000 1.546170 0.000000 
#    z 0.000000 0.000000 1.545070 
# 
# From -- ./inp_files/76029.got.cif
#   From: 2010.05.17/outbox.cif.g08.bks.cpg/sg65_39_cif.got.tgz:76029.got - 2010.06.03 17:01:31.
