data_PCOD9486476
_publ_section_title
;
Structure prediction by ZEFSAII (Michael W. Deem and Ramdas Pophale) SiO2 
 PCOD9486476
Probable space group: C M M M
;
_chemical_formula_sum "Si O2"
_cell_formula_units_Z 120
_cell_length_a 27.340748
_cell_length_b 8.993031
_cell_length_c 27.801091
_cell_angle_alpha 90.000000
_cell_angle_beta 90.000000
_cell_angle_gamma 90.000000
_cell_volume 6835.626453
_symmetry_space_group_name_H-M "C M M M"
_symmetry_group_IT_number 65
_symmetry_cell_setting 'orthorhombic'
loop_
_space_group_symop_operation_xyz
x,y,z
-x,-y,z
x,-y,-z
-x,y,-z
-x,-y,-z
x,y,-z
-x,y,z
x,-y,z
1/2+x,1/2+y,z
1/2-x,1/2-y,z
1/2+x,1/2-y,-z
1/2-x,1/2+y,-z
1/2-x,1/2-y,-z
1/2+x,1/2+y,-z
1/2-x,1/2+y,z
1/2+x,1/2-y,z
loop_
_atom_site_type_symbol
_atom_site_label
_atom_site_fract_x
_atom_site_fract_y
_atom_site_fract_z
Si Si1 0.799619 0.177820 0.556560
Si Si2 0.803185 0.321094 0.205136
Si Si3 0.443289 0.663192 0.778615
Si Si4 0.878937 0.326790 0.288651
Si Si5 0.055472 0.322336 0.057267
Si Si6 0.500000 0.681345 0.556539
Si Si7 0.126728 0.829418 0.869455
Si Si8 0.398955 0.679559 0.390733
O O1 0.801609 0.213151 0.500000
O O2 0.750000 0.250000 0.576941
O O3 0.850933 0.225765 0.579242
O O4 0.795753 0.000000 0.561855
O O5 0.801442 0.500000 0.203550
O O6 0.750000 0.250000 0.208509
O O7 0.834716 0.278131 0.252918
O O8 0.830013 0.260302 0.157080
O O9 0.500000 0.671673 0.787799
O O10 0.432277 0.500000 0.755991
O O11 0.425705 0.793768 0.744460
O O12 0.414510 0.669116 0.828113
O O13 0.872487 0.500000 0.299146
O O14 0.888575 0.239558 0.337546
O O15 0.058118 0.500000 0.065645
O O16 0.099440 0.244109 0.085475
O O17 0.000000 0.273946 0.071883
O O18 0.059390 0.297399 0.000000
O O19 0.500000 0.500000 0.556361
O O20 0.500000 0.726877 0.500000
O O21 0.549743 0.728146 0.584524
O O22 0.141490 0.000000 0.879316
O O23 0.400461 0.500000 0.389847
#
# Coordination Sequence:
#
# PCOD9486476 Si02
#       8
#    16  16  16  16  16   8  16  16
#     4   9  18  33  53  76 100 127 162 206 255 307
#     4  10  21  38  58  78 103 138 179 222 270 324
#     4   9  18  32  50  71  99 134 171 210 251 301
#     4  10  22  36  50  74 105 135 167 207 257 310
#     4   9  18  32  50  75 111 153 191 228 273 324
#     4   9  18  34  57  81 103 135 181 225 262 311
#     4  10  19  32  52  79 107 137 178 225 272 322
#     4  10  20  34  54  78 104 135 172 215 262 313
#
# _framework density 17.555084999999998
#
# number of rings (size 3 to 8) (size 9 to 14) (size 15 to 20)
#    0.000    2.467    0.000    2.400    0.933    6.133 
#    0.000    3.333    0.000    2.000    0.000    0.000 
#    0.000    0.000    0.000    0.000    0.000    0.000 
#
# Total GULP energy -334272.791477 kJ/mol
# GULP energy per Si atom -5571.213191 kJ/mol
# Density = 1.751513 g / cm^3
# Si number density = 17.555085 Si / 1000 Ang^3
#
#
#
# Elastic Constant Matrix: (Units=GPa)
#
#
# Indices 1 2 3 4 5 6 
#
# 1 106.7843 32.4076 21.4053 0.0000 0.0000 0.0000
# 2 32.4076 33.8384 25.8310 0.0000 0.0000 0.0000
# 3 21.4053 25.8310 42.7549 0.0000 0.0000 0.0000
# 4 0.0000 0.0000 0.0000 26.0659 0.0000 0.0000
# 5 0.0000 0.0000 0.0000 0.0000 14.4829 0.0000
# 6 0.0000 0.0000 0.0000 0.0000 0.0000 27.0576
#
#
#
# Elastic Compliance Matrix: (Units=1/GPa)
#
#
# Indices 1 2 3 4 5 6 
#
# 1 0.013286 -0.014192 0.001923 0.000000 0.000000 0.000000
# 2 -0.014192 0.070008 -0.035191 0.000000 0.000000 0.000000
# 3 0.001923 -0.035191 0.043688 0.000000 0.000000 0.000000
# 4 0.000000 0.000000 0.000000 0.038364 0.000000 0.000000
# 5 0.000000 0.000000 0.000000 0.000000 0.069047 0.000000
# 6 0.000000 0.000000 0.000000 0.000000 0.000000 0.036958
#
#
# Mechanical properties :
#
#
# Convention : Reuss Voigt Hill
#
# Bulk Modulus (GPa) = 31.19072 38.07394 34.63233
# Shear Modulus (GPa) = 13.26403 20.43686 16.85044
#
# Velocity S-wave (km/s) = 2.75174 3.41567 3.10152
# Velocity P-wave (km/s) = 5.28223 6.10665 5.70934
#
# Compressibility (1/GPa) = 0.03206082
#
# Stress axis : x y z
#
# Youngs Moduli (GPa) = 75.26460 14.28412 22.88978
#
# Poissons Ratio (x) = 0.20272 -0.04401
# Poissons Ratio (y) = 1.06818 0.80551
# Poissons Ratio (z) = -0.14471 0.50267
#
# Static dielectric constant tensor:
#      x y z
#    x 1.599220 0.000000 0.000000 
#    y 0.000000 1.623950 0.000000 
#    z 0.000000 0.000000 1.596610 
# 
# From -- ./inp_files/76164.got.cif
#   From: 2010.05.17/outbox.cif.g08.bks.cpg/sg65_39_cif.got.tgz:76164.got - 2010.06.03 17:01:31.
