data_PCOD9486621
_publ_section_title
;
Structure prediction by ZEFSAII (Michael W. Deem and Ramdas Pophale) SiO2 
 PCOD9486621
Probable space group: C M M M
;
_chemical_formula_sum "Si O2"
_cell_formula_units_Z 92
_cell_length_a 23.302265
_cell_length_b 29.012991
_cell_length_c 7.472660
_cell_angle_alpha 90.000000
_cell_angle_beta 90.000000
_cell_angle_gamma 90.000000
_cell_volume 5052.029325
_symmetry_space_group_name_H-M "C M M M"
_symmetry_group_IT_number 65
_symmetry_cell_setting 'orthorhombic'
loop_
_space_group_symop_operation_xyz
x,y,z
-x,-y,z
x,-y,-z
-x,y,-z
-x,-y,-z
x,y,-z
-x,y,z
x,-y,z
1/2+x,1/2+y,z
1/2-x,1/2-y,z
1/2+x,1/2-y,-z
1/2-x,1/2+y,-z
1/2-x,1/2-y,-z
1/2+x,1/2+y,-z
1/2-x,1/2+y,z
1/2+x,1/2-y,z
loop_
_atom_site_type_symbol
_atom_site_label
_atom_site_fract_x
_atom_site_fract_y
_atom_site_fract_z
Si Si1 0.375688 0.447584 0.783696
Si Si2 0.677751 0.644717 0.290786
Si Si3 0.781523 0.705858 0.794693
Si Si4 0.089867 0.696395 0.210208
Si Si5 0.500000 0.835872 0.500000
Si Si6 0.500000 0.556238 0.205979
Si Si7 0.936412 0.803341 0.717048
O O1 0.364947 0.500000 0.724170
O O2 0.329761 0.409710 0.732254
O O3 0.438535 0.431402 0.713556
O O4 0.379649 0.448788 0.000000
O O5 0.680770 0.655789 0.500000
O O6 0.735077 0.665423 0.208188
O O7 0.619144 0.668376 0.218862
O O8 0.750000 0.750000 0.709994
O O9 0.844061 0.693866 0.724251
O O10 0.794409 0.719224 0.000000
O O11 0.071338 0.750194 0.227476
O O12 0.049582 0.668299 0.342282
O O13 0.085303 0.683172 0.000000
O O14 0.500000 0.500000 0.203314
O O15 0.500000 0.571931 0.000000
O O16 0.936362 0.804626 0.500000
O O17 0.000000 0.819768 0.775237
#
# Coordination Sequence:
#
# PCOD9486621 Si02
#       7
#    16  16  16  16   4   8  16
#     4   9  18  34  52  68  92 128 171 222 271 315
#     4  11  23  32  50  74 100 136 172 216 271 319
#     4  10  21  36  53  73  99 133 178 220 252 307
#     4  11  21  34  55  76  98 138 179 216 264 314
#     4  12  22  36  52  74 108 136 164 226 260 320
#     4   7  12  26  48  69  87 117 164 214 268 314
#     4  10  19  33  46  66 100 136 175 221 267 311
#
# _framework density 18.210502999999999
#
# number of rings (size 3 to 8) (size 9 to 14) (size 15 to 20)
#    0.000    2.000    3.478    1.826    2.435    1.391 
#    0.000    0.000    0.000    1.565    0.000    0.000 
#    0.000    0.000    0.000    1.565    0.000   13.130 
#
# Total GULP energy -256180.521604 kJ/mol
# GULP energy per Si atom -5569.141774 kJ/mol
# Density = 1.816906 g / cm^3
# Si number density = 18.210503 Si / 1000 Ang^3
#
#
#
# Elastic Constant Matrix: (Units=GPa)
#
#
# Indices 1 2 3 4 5 6 
#
# 1 158.1212 26.6710 21.5875 0.0000 0.0000 0.0000
# 2 26.6710 43.5991 -7.5651 0.0000 0.0000 0.0000
# 3 21.5875 -7.5651 82.5086 0.0000 0.0000 0.0000
# 4 0.0000 0.0000 0.0000 17.5685 0.0000 0.0000
# 5 0.0000 0.0000 0.0000 0.0000 -32.8341 0.0000
# 6 0.0000 0.0000 0.0000 0.0000 0.0000 25.2000
#
#
#
# Elastic Compliance Matrix: (Units=1/GPa)
#
#
# Indices 1 2 3 4 5 6 
#
# 1 0.007500 -0.005008 -0.002421 0.000000 0.000000 0.000000
# 2 -0.005008 0.026651 0.003754 0.000000 0.000000 0.000000
# 3 -0.002421 0.003754 0.013098 0.000000 0.000000 0.000000
# 4 0.000000 0.000000 0.000000 0.056920 0.000000 0.000000
# 5 0.000000 0.000000 0.000000 0.000000 -0.030456 0.000000
# 6 0.000000 0.000000 0.000000 0.000000 0.000000 0.039682
#
#
# Mechanical properties :
#
#
# Convention : Reuss Voigt Hill
#
# Bulk Modulus (GPa) = 25.06417 40.62395 32.84406
# Shear Modulus (GPa) = 37.30104 18.22258 27.76181
#
# Velocity S-wave (km/s) = 4.53075 3.16676 3.90871
# Velocity P-wave (km/s) = 6.41590 5.97725 6.20046
#
# Compressibility (1/GPa) = 0.03989758
#
# Stress axis : x y z
#
# Youngs Moduli (GPa) = 133.34166 37.52198 76.34956
#
# Poissons Ratio (x) = 0.18790 0.18487
# Poissons Ratio (y) = 0.66775 -0.28661
# Poissons Ratio (z) = 0.32286 -0.14085
#
# Static dielectric constant tensor:
#      x y z
#    x 1.661540 0.000000 0.000000 
#    y 0.000000 1.611790 0.000000 
#    z 0.000000 0.000000 1.699460 
# 
# From -- ./inp_files/14362.got.cif
#   From: 2010.05.17/outbox.cif.g08.bks.cpg/sg65_8_cif.got.tgz:14362.got - 2010.06.03 17:01:31.
