data_PCOD9486148
_publ_section_title
;
Structure prediction by ZEFSAII (Michael W. Deem and Ramdas Pophale) SiO2 
 PCOD9486148
Probable space group: C M M M
;
_chemical_formula_sum "Si O2"
_cell_formula_units_Z 92
_cell_length_a 23.970338
_cell_length_b 18.442190
_cell_length_c 12.841912
_cell_angle_alpha 90.000000
_cell_angle_beta 90.000000
_cell_angle_gamma 90.000000
_cell_volume 5676.966606
_symmetry_space_group_name_H-M "C M M M"
_symmetry_group_IT_number 65
_symmetry_cell_setting 'orthorhombic'
loop_
_space_group_symop_operation_xyz
x,y,z
-x,-y,z
x,-y,-z
-x,y,-z
-x,-y,-z
x,y,-z
-x,y,z
x,-y,z
1/2+x,1/2+y,z
1/2-x,1/2-y,z
1/2+x,1/2-y,-z
1/2-x,1/2+y,-z
1/2-x,1/2-y,-z
1/2+x,1/2+y,-z
1/2-x,1/2+y,z
1/2+x,1/2-y,z
loop_
_atom_site_type_symbol
_atom_site_label
_atom_site_fract_x
_atom_site_fract_y
_atom_site_fract_z
Si Si1 0.677457 0.662917 0.193574
Si Si2 0.879320 0.916845 0.000000
Si Si3 0.879559 0.308837 0.125038
Si Si4 0.000000 0.856988 0.000000
Si Si5 0.285647 0.083934 0.875069
Si Si6 0.500000 0.654895 0.621216
Si Si7 0.500000 0.759495 0.813234
Si Si8 0.119524 0.084188 0.377286
O O1 0.644442 0.620233 0.102986
O O2 0.658930 0.745443 0.174123
O O3 0.740889 0.637932 0.176407
O O4 0.656410 0.634823 0.304434
O O5 0.945184 0.905177 0.000000
O O6 0.862871 0.000000 0.000000
O O7 0.847305 0.384042 0.143598
O O8 0.942355 0.302483 0.168013
O O9 0.881915 0.296361 0.000000
O O10 0.000000 0.804806 0.100637
O O11 0.279004 0.000000 0.842542
O O12 0.276079 0.087043 0.000000
O O13 0.500000 0.677881 0.500000
O O14 0.500000 0.721365 0.701027
O O15 0.444728 0.607315 0.638781
O O16 0.131790 0.092337 0.500000
O O17 0.127229 0.000000 0.348645
#
# Coordination Sequence:
#
# PCOD9486148 Si02
#       8
#    16   8  16   4  16   8   8  16
#     4  12  19  33  52  75 105 137 171 212 252 308
#     4  12  21  28  44  73 105 139 167 202 251 305
#     4  11  20  34  54  77 106 138 172 209 263 317
#     4  12  19  32  42  66 109 136 164 204 247 314
#     4  10  21  35  53  78 106 137 175 216 256 308
#     4  10  19  32  50  69 102 139 180 221 252 295
#     4  12  18  34  52  75 102 134 169 214 264 308
#     4  10  20  32  48  72 105 145 181 213 252 300
#
# _framework density 16.205839000000001
#
# number of rings (size 3 to 8) (size 9 to 14) (size 15 to 20)
#    0.000    1.043    6.087    2.478    0.000    2.435 
#    0.000    3.043    0.000    5.217    0.000    0.000 
#    0.000    0.696    0.000    0.000    0.000    0.000 
#
# Total GULP energy -256762.315832 kJ/mol
# GULP energy per Si atom -5581.789475 kJ/mol
# Density = 1.616895 g / cm^3
# Si number density = 16.205839 Si / 1000 Ang^3
#
#
#
# Elastic Constant Matrix: (Units=GPa)
#
#
# Indices 1 2 3 4 5 6 
#
# 1 81.2985 42.5345 16.6285 0.0000 0.0000 0.0000
# 2 42.5345 39.4514 9.0036 0.0000 0.0000 0.0000
# 3 16.6285 9.0036 38.5375 0.0000 0.0000 0.0000
# 4 0.0000 0.0000 0.0000 11.0429 0.0000 0.0000
# 5 0.0000 0.0000 0.0000 0.0000 18.6060 0.0000
# 6 0.0000 0.0000 0.0000 0.0000 0.0000 112.4419
#
#
#
# Elastic Compliance Matrix: (Units=1/GPa)
#
#
# Indices 1 2 3 4 5 6 
#
# 1 0.029302 -0.030324 -0.005559 0.000000 0.000000 0.000000
# 2 -0.030324 0.058156 -0.000503 0.000000 0.000000 0.000000
# 3 -0.005559 -0.000503 0.028465 0.000000 0.000000 0.000000
# 4 0.000000 0.000000 0.000000 0.090556 0.000000 0.000000
# 5 0.000000 0.000000 0.000000 0.000000 0.053746 0.000000
# 6 0.000000 0.000000 0.000000 0.000000 0.000000 0.008893
#
#
# Mechanical properties :
#
#
# Convention : Reuss Voigt Hill
#
# Bulk Modulus (GPa) = 23.17382 32.84674 28.01028
# Shear Modulus (GPa) = 14.03415 34.49288 24.26352
#
# Velocity S-wave (km/s) = 2.94597 4.61849 3.87358
# Velocity P-wave (km/s) = 5.08944 6.98234 6.10964
#
# Compressibility (1/GPa) = 0.04315215
#
# Stress axis : x y z
#
# Youngs Moduli (GPa) = 34.12691 17.19520 35.13096
#
# Poissons Ratio (x) = 0.52142 0.19530
# Poissons Ratio (y) = 1.03485 0.01766
# Poissons Ratio (z) = 0.18971 0.00864
#
# Static dielectric constant tensor:
#      x y z
#    x 1.561510 0.000000 0.000000 
#    y 0.000000 1.530680 0.000000 
#    z 0.000000 0.000000 1.524830 
# 
# From -- ./inp_files/30881.got.cif
#   From: 2010.05.17/outbox.cif.g08.bks.cpg/sg65_16_cif.got.tgz:30881.got - 2010.06.03 17:01:31.
