data_PCOD9486943
_publ_section_title
;
Structure prediction by ZEFSAII (Michael W. Deem and Ramdas Pophale) SiO2 
 PCOD9486943
Probable space group: C M M M
;
_chemical_formula_sum "Si O2"
_cell_formula_units_Z 104
_cell_length_a 8.722465
_cell_length_b 29.402070
_cell_length_c 23.937219
_cell_angle_alpha 90.000000
_cell_angle_beta 90.000000
_cell_angle_gamma 90.000000
_cell_volume 6138.903913
_symmetry_space_group_name_H-M "C M M M"
_symmetry_group_IT_number 65
_symmetry_cell_setting 'orthorhombic'
loop_
_space_group_symop_operation_xyz
x,y,z
-x,-y,z
x,-y,-z
-x,y,-z
-x,-y,-z
x,y,-z
-x,y,z
x,-y,z
1/2+x,1/2+y,z
1/2-x,1/2-y,z
1/2+x,1/2-y,-z
1/2-x,1/2+y,-z
1/2-x,1/2-y,-z
1/2+x,1/2+y,-z
1/2-x,1/2+y,z
1/2+x,1/2-y,z
loop_
_atom_site_type_symbol
_atom_site_label
_atom_site_fract_x
_atom_site_fract_y
_atom_site_fract_z
Si Si1 0.684804 0.947242 0.164471
Si Si2 0.816751 0.298081 0.105981
Si Si3 0.185531 0.610510 0.274597
Si Si4 0.822491 0.055134 0.500000
Si Si5 0.684664 0.052640 0.617622
Si Si6 0.183206 0.798008 0.768700
Si Si7 0.182711 0.109689 0.937398
O O1 0.500000 0.945092 0.159701
O O2 0.726890 0.919567 0.220277
O O3 0.756545 0.923500 0.110534
O O4 0.729355 0.000000 0.169036
O O5 0.750000 0.250000 0.085351
O O6 0.753174 0.304430 0.169081
O O7 0.759771 0.341202 0.071457
O O8 0.000000 0.296209 0.107527
O O9 0.231869 0.583779 0.330473
O O10 0.262494 0.659423 0.267663
O O11 0.000000 0.615515 0.274706
O O12 0.744592 0.069604 0.557822
O O13 0.000000 0.067832 0.500000
O O14 0.811180 0.000000 0.500000
O O15 0.500000 0.052161 0.616182
O O16 0.735145 0.000000 0.625871
O O17 0.250000 0.750000 0.747912
O O18 0.000000 0.795826 0.772750
O O19 0.000000 0.114839 0.931733
O O20 0.216749 0.092879 0.000000
#
# Coordination Sequence:
#
# PCOD9486943 Si02
#       7
#    16  16  16   8  16  16  16
#     4  10  21  37  57  79 104 136 174 217 265 315
#     4  11  21  36  58  81 105 133 166 209 262 320
#     4  10  19  33  54  81 110 139 174 218 264 312
#     4   9  17  29  45  69 106 147 186 227 265 299
#     4   9  17  30  50  76 108 147 186 219 257 308
#     4  11  21  34  54  79 108 139 172 210 259 315
#     4  11  24  40  56  76 103 136 175 217 263 317
#
# _framework density 16.941134000000002
#
# number of rings (size 3 to 8) (size 9 to 14) (size 15 to 20)
#    0.000    1.769    1.538    4.846    0.000    5.538 
#    0.000    1.538    0.000    2.769    0.000    0.538 
#    0.000    0.000    0.000    0.000    0.000    0.000 
#
# Total GULP energy -290383.109326 kJ/mol
# GULP energy per Si atom -5584.290564 kJ/mol
# Density = 1.690258 g / cm^3
# Si number density = 16.941134 Si / 1000 Ang^3
#
#
#
# Elastic Constant Matrix: (Units=GPa)
#
#
# Indices 1 2 3 4 5 6 
#
# 1 62.3332 44.8534 49.6550 0.0000 0.0000 0.0000
# 2 44.8534 115.8893 72.2070 0.0000 0.0000 0.0000
# 3 49.6550 72.2070 135.0729 0.0000 0.0000 0.0000
# 4 0.0000 0.0000 0.0000 23.5478 0.0000 0.0000
# 5 0.0000 0.0000 0.0000 0.0000 16.2262 0.0000
# 6 0.0000 0.0000 0.0000 0.0000 0.0000 26.3388
#
#
#
# Elastic Compliance Matrix: (Units=1/GPa)
#
#
# Indices 1 2 3 4 5 6 
#
# 1 0.025162 -0.005961 -0.006064 0.000000 0.000000 0.000000
# 2 -0.005961 0.014350 -0.005480 0.000000 0.000000 0.000000
# 3 -0.006064 -0.005480 0.012562 0.000000 0.000000 0.000000
# 4 0.000000 0.000000 0.000000 0.042467 0.000000 0.000000
# 5 0.000000 0.000000 0.000000 0.000000 0.061629 0.000000
# 6 0.000000 0.000000 0.000000 0.000000 0.000000 0.037967
#
#
# Mechanical properties :
#
#
# Convention : Reuss Voigt Hill
#
# Bulk Modulus (GPa) = 58.59659 71.85849 65.22754
# Shear Modulus (GPa) = 21.29155 22.99455 22.14305
#
# Velocity S-wave (km/s) = 3.54898 3.68818 3.61925
# Velocity P-wave (km/s) = 7.17336 7.78753 7.48674
#
# Compressibility (1/GPa) = 0.01706584
#
# Stress axis : x y z
#
# Youngs Moduli (GPa) = 39.74204 69.68415 79.60448
#
# Poissons Ratio (x) = 0.41536 0.48269
# Poissons Ratio (y) = 0.23689 0.43625
# Poissons Ratio (z) = 0.24098 0.38188
#
# Static dielectric constant tensor:
#      x y z
#    x 1.570040 0.000000 0.000000 
#    y 0.000000 1.566400 0.000000 
#    z 0.000000 0.000000 1.562500 
# 
# From -- ./inp_files/68502.got.cif
#   From: 2010.05.17/outbox.cif.g08.bks.cpg/sg65_35_cif.got.tgz:68502.got - 2010.06.03 17:01:31.
