data_PCOD9486862
_publ_section_title
;
Structure prediction by ZEFSAII (Michael W. Deem and Ramdas Pophale) SiO2 
 PCOD9486862
Probable space group: C M M M
;
_chemical_formula_sum "Si O2"
_cell_formula_units_Z 104
_cell_length_a 18.784027
_cell_length_b 17.168067
_cell_length_c 17.965614
_cell_angle_alpha 90.000000
_cell_angle_beta 90.000000
_cell_angle_gamma 90.000000
_cell_volume 5793.648829
_symmetry_space_group_name_H-M "C M M M"
_symmetry_group_IT_number 65
_symmetry_cell_setting 'orthorhombic'
loop_
_space_group_symop_operation_xyz
x,y,z
-x,-y,z
x,-y,-z
-x,y,-z
-x,-y,-z
x,y,-z
-x,y,z
x,-y,z
1/2+x,1/2+y,z
1/2-x,1/2-y,z
1/2+x,1/2-y,-z
1/2-x,1/2+y,-z
1/2-x,1/2-y,-z
1/2+x,1/2+y,-z
1/2-x,1/2+y,z
1/2+x,1/2-y,z
loop_
_atom_site_type_symbol
_atom_site_label
_atom_site_fract_x
_atom_site_fract_y
_atom_site_fract_z
Si Si1 0.673129 0.708830 0.224461
Si Si2 0.585298 0.259465 0.915491
Si Si3 0.180730 0.094172 0.640351
Si Si4 0.417648 0.594843 0.500000
Si Si5 0.836309 0.593187 0.581758
Si Si6 0.916780 0.351471 0.279628
Si Si7 0.085614 0.583897 0.877886
O O1 0.750000 0.750000 0.213714
O O2 0.633145 0.697272 0.145667
O O3 0.674290 0.635159 0.279503
O O4 0.625415 0.772677 0.266280
O O5 0.500000 0.263583 0.897977
O O6 0.606789 0.167340 0.911414
O O7 0.595148 0.286622 0.000000
O O8 0.123970 0.117586 0.575987
O O9 0.258323 0.117836 0.609405
O O10 0.177751 0.000000 0.647478
O O11 0.416850 0.500000 0.500000
O O12 0.500000 0.620366 0.500000
O O13 0.851233 0.625373 0.500000
O O14 0.833289 0.500000 0.577095
O O15 0.894214 0.614489 0.642247
O O16 0.898635 0.407580 0.210084
O O17 0.000000 0.336865 0.275111
O O18 0.113393 0.500000 0.905168
O O19 0.000000 0.581654 0.887654
#
# Coordination Sequence:
#
# PCOD9486862 Si02
#       7
#    16  16  16   8  16  16  16
#     4  11  21  36  57  81 106 142 184 221 268 330
#     4   9  19  35  54  78 110 143 174 218 274 326
#     4  10  20  37  58  80 108 142 184 231 280 329
#     4   9  18  34  57  82 107 139 185 242 291 319
#     4  10  19  33  54  77 107 149 187 220 267 329
#     4  10  20  34  50  75 111 146 184 227 268 315
#     4   8  14  26  47  74 104 140 179 217 256 303
#
# _framework density 17.950690000000002
#
# number of rings (size 3 to 8) (size 9 to 14) (size 15 to 20)
#    0.000    2.385    2.308    1.846    0.000    3.077 
#    1.385    3.462    0.000    0.462    0.000    1.077 
#    0.000    0.000    0.000    0.000    0.000    0.000 
#
# Total GULP energy -289696.057356 kJ/mol
# GULP energy per Si atom -5571.078026 kJ/mol
# Density = 1.790983 g / cm^3
# Si number density = 17.950690 Si / 1000 Ang^3
#
#
#
# Elastic Constant Matrix: (Units=GPa)
#
#
# Indices 1 2 3 4 5 6 
#
# 1 65.5212 10.5584 44.6042 0.0000 0.0000 0.0000
# 2 10.5584 20.5633 19.8138 0.0000 0.0000 0.0000
# 3 44.6042 19.8138 137.2871 0.0000 0.0000 0.0000
# 4 0.0000 0.0000 0.0000 8.9438 0.0000 0.0000
# 5 0.0000 0.0000 0.0000 0.0000 82.2478 0.0000
# 6 0.0000 0.0000 0.0000 0.0000 0.0000 16.8734
#
#
#
# Elastic Compliance Matrix: (Units=1/GPa)
#
#
# Indices 1 2 3 4 5 6 
#
# 1 0.019972 -0.004649 -0.005818 0.000000 0.000000 0.000000
# 2 -0.004649 0.057568 -0.006798 0.000000 0.000000 0.000000
# 3 -0.005818 -0.006798 0.010155 0.000000 0.000000 0.000000
# 4 0.000000 0.000000 0.000000 0.111809 0.000000 0.000000
# 5 0.000000 0.000000 0.000000 0.000000 0.012158 0.000000
# 6 0.000000 0.000000 0.000000 0.000000 0.000000 0.059265
#
#
# Mechanical properties :
#
#
# Convention : Reuss Voigt Hill
#
# Bulk Modulus (GPa) = 18.80922 41.48047 30.14485
# Shear Modulus (GPa) = 15.47132 31.50602 23.48867
#
# Velocity S-wave (km/s) = 2.93896 4.19399 3.62126
# Velocity P-wave (km/s) = 4.69230 6.82722 5.85784
#
# Compressibility (1/GPa) = 0.05316541
#
# Stress axis : x y z
#
# Youngs Moduli (GPa) = 50.07014 17.37088 98.47044
#
# Poissons Ratio (x) = 0.08076 0.57289
# Poissons Ratio (y) = 0.23277 0.66940
# Poissons Ratio (z) = 0.29130 0.11809
#
# Static dielectric constant tensor:
#      x y z
#    x 1.612170 0.000000 0.000000 
#    y 0.000000 1.655960 0.000000 
#    z 0.000000 0.000000 1.643600 
# 
# From -- ./inp_files/54617.got.cif
#   From: 2010.05.17/outbox.cif.g08.bks.cpg/sg65_28_cif.got.tgz:54617.got - 2010.06.03 17:01:31.
