data_PCOD9486036
_publ_section_title
;
Structure prediction by ZEFSAII (Michael W. Deem and Ramdas Pophale) SiO2 
 PCOD9486036
Probable space group: C M M M
;
_chemical_formula_sum "Si O2"
_cell_formula_units_Z 82
_cell_length_a 21.176623
_cell_length_b 24.004259
_cell_length_c 7.428594
_cell_angle_alpha 90.000000
_cell_angle_beta 90.000000
_cell_angle_gamma 90.000000
_cell_volume 3776.170823
_symmetry_space_group_name_H-M "C M M M"
_symmetry_group_IT_number 65
_symmetry_cell_setting 'orthorhombic'
loop_
_space_group_symop_operation_xyz
x,y,z
-x,-y,z
x,-y,-z
-x,y,-z
-x,-y,-z
x,y,-z
-x,y,z
x,-y,z
1/2+x,1/2+y,z
1/2-x,1/2-y,z
1/2+x,1/2-y,-z
1/2-x,1/2+y,-z
1/2-x,1/2-y,-z
1/2+x,1/2+y,-z
1/2-x,1/2+y,z
1/2+x,1/2-y,z
loop_
_atom_site_type_symbol
_atom_site_label
_atom_site_fract_x
_atom_site_fract_y
_atom_site_fract_z
Si Si1 0.000000 0.688052 0.712048
Si Si2 0.245255 0.686592 0.780266
Si Si3 0.370123 0.500000 0.198563
Si Si4 0.870879 0.121482 0.220942
Si Si5 0.500000 0.320242 0.784002
Si Si6 0.573757 0.000000 0.220778
Si Si7 0.624555 0.118370 0.209392
Si Si8 0.500000 0.500000 0.000000
O O1 0.000000 0.754188 0.748648
O O2 0.062738 0.657613 0.782756
O O3 0.000000 0.679860 0.500000
O O4 0.250000 0.750000 0.718492
O O5 0.310810 0.657850 0.732598
O O6 0.184478 0.651955 0.715130
O O7 0.241323 0.688045 0.000000
O O8 0.358443 0.559022 0.286808
O O9 0.336665 0.500000 0.000000
O O10 0.444393 0.500000 0.151742
O O11 0.936378 0.149401 0.281083
O O12 0.875055 0.117805 0.000000
O O13 0.500000 0.326861 0.000000
O O14 0.606693 0.057301 0.282765
O O15 0.500000 0.000000 0.273795
O O16 0.573853 0.000000 0.000000
O O17 0.639545 0.108533 0.000000
#
# Coordination Sequence:
#
# PCOD9486036 Si02
#       8
#     8  16   8  16   8   8  16   2
#     4  12  24  36  51  75 102 128 171 221 260 307
#     4   9  17  28  44  70 104 138 174 213 247 297
#     4   8  14  21  38  65 108 136 162 203 251 300
#     4   9  16  26  44  74 105 135 170 209 255 300
#     4  10  19  31  53  76 101 138 173 206 253 307
#     4   9  16  29  51  80 102 125 171 217 254 304
#     4  10  19  34  56  75 102 138 170 210 261 312
#     4   8  12  20  32  56  96 148 158 186 248 310
#
# _framework density 21.715119000000001
#
# number of rings (size 3 to 8) (size 9 to 14) (size 15 to 20)
#    0.293    2.244    0.976    2.634    1.366    3.902 
#    0.000    4.878    0.000    5.268    0.000    1.366 
#    0.000    0.000    0.000    0.000    0.000    0.000 
#
# Total GULP energy -228554.740712 kJ/mol
# GULP energy per Si atom -5574.505871 kJ/mol
# Density = 2.166569 g / cm^3
# Si number density = 21.715119 Si / 1000 Ang^3
#
#
#
# Elastic Constant Matrix: (Units=GPa)
#
#
# Indices 1 2 3 4 5 6 
#
# 1 173.9810 122.2189 1.7703 0.0000 0.0000 0.0000
# 2 122.2189 261.8625 1.6109 0.0000 0.0000 0.0000
# 3 1.7703 1.6109 66.8216 0.0000 0.0000 0.0000
# 4 0.0000 0.0000 0.0000 -29.6145 0.0000 0.0000
# 5 0.0000 0.0000 0.0000 0.0000 -24.2402 0.0000
# 6 0.0000 0.0000 0.0000 0.0000 0.0000 12.4350
#
#
#
# Elastic Compliance Matrix: (Units=1/GPa)
#
#
# Indices 1 2 3 4 5 6 
#
# 1 0.008553 -0.003991 -0.000130 0.000000 0.000000 0.000000
# 2 -0.003991 0.005682 -0.000031 0.000000 0.000000 0.000000
# 3 -0.000130 -0.000031 0.014969 0.000000 0.000000 0.000000
# 4 0.000000 0.000000 0.000000 -0.033767 0.000000 0.000000
# 5 0.000000 0.000000 0.000000 0.000000 -0.041254 0.000000
# 6 0.000000 0.000000 0.000000 0.000000 0.000000 0.080418
#
#
# Mechanical properties :
#
#
# Convention : Reuss Voigt Hill
#
# Bulk Modulus (GPa) = 47.85002 83.76280 65.80641
# Shear Modulus (GPa) = 100.25597 16.85373 58.55485
#
# Velocity S-wave (km/s) = 6.80213 2.78893 5.19842
# Velocity P-wave (km/s) = 9.15288 7.00201 8.14872
#
# Compressibility (1/GPa) = 0.02089863
#
# Stress axis : x y z
#
# Youngs Moduli (GPa) = 116.92231 176.00360 66.80279
#
# Poissons Ratio (x) = 0.70243 0.00871
# Poissons Ratio (y) = 0.46664 0.00209
# Poissons Ratio (z) = 0.01524 0.00550
#
# Static dielectric constant tensor:
#      x y z
#    x 1.739870 0.000000 0.000000 
#    y 0.000000 1.784640 0.000000 
#    z 0.000000 0.000000 1.803160 
# 
# From -- ./inp_files/11682.got.cif
#   From: 2010.05.17/outbox.cif.g08.bks.cpg/sg65_6_cif.got.tgz:11682.got - 2010.06.03 17:01:31.
