data_PCOD9486884
_publ_section_title
;
Structure prediction by ZEFSAII (Michael W. Deem and Ramdas Pophale) SiO2 
 PCOD9486884
Probable space group: C M M M
;
_chemical_formula_sum "Si O2"
_cell_formula_units_Z 88
_cell_length_a 8.373569
_cell_length_b 19.091548
_cell_length_c 29.727939
_cell_angle_alpha 90.000000
_cell_angle_beta 90.000000
_cell_angle_gamma 90.000000
_cell_volume 4752.438968
_symmetry_space_group_name_H-M "C M M M"
_symmetry_group_IT_number 65
_symmetry_cell_setting 'orthorhombic'
loop_
_space_group_symop_operation_xyz
x,y,z
-x,-y,z
x,-y,-z
-x,y,-z
-x,-y,-z
x,y,-z
-x,y,z
x,-y,z
1/2+x,1/2+y,z
1/2-x,1/2-y,z
1/2+x,1/2-y,-z
1/2-x,1/2+y,-z
1/2-x,1/2-y,-z
1/2+x,1/2+y,-z
1/2-x,1/2+y,z
1/2+x,1/2-y,z
loop_
_atom_site_type_symbol
_atom_site_label
_atom_site_fract_x
_atom_site_fract_y
_atom_site_fract_z
Si Si1 0.808175 0.169679 0.280908
Si Si2 0.693030 0.171130 0.550795
Si Si3 0.691006 0.919849 0.000000
Si Si4 0.192476 0.830273 0.817384
Si Si5 0.693012 0.079946 0.634992
Si Si6 0.191767 0.830370 0.915798
O O1 0.750000 0.250000 0.285465
O O2 0.755317 0.141606 0.231390
O O3 0.744730 0.123254 0.321448
O O4 0.000000 0.170072 0.282150
O O5 0.745507 0.152423 0.500000
O O6 0.500000 0.170949 0.551013
O O7 0.750000 0.250000 0.560220
O O8 0.749073 0.119184 0.589758
O O9 0.747235 0.878148 0.955996
O O10 0.500000 0.921006 0.000000
O O11 0.750509 0.000000 0.000000
O O12 0.250000 0.750000 0.817307
O O13 0.245013 0.857946 0.866226
O O14 0.000000 0.832043 0.817401
O O15 0.500000 0.079139 0.633718
O O16 0.749841 0.000000 0.636834
O O17 0.250000 0.750000 0.920970
O O18 0.000000 0.829338 0.916852
#
# Coordination Sequence:
#
# PCOD9486884 Si02
#       6
#    16  16   8  16  16  16
#     4  10  19  33  54  78 104 134 169 208 252 300
#     4   9  18  33  53  75  98 127 165 209 255 302
#     4  11  24  39  52  71 103 139 174 211 252 299
#     4   8  16  30  50  77 103 128 162 206 251 296
#     4  10  21  35  50  72 103 137 173 211 251 298
#     4  10  19  34  57  81 104 131 167 209 253 301
#
# _framework density 18.516808000000001
#
# number of rings (size 3 to 8) (size 9 to 14) (size 15 to 20)
#    0.000    2.455    0.000    2.182    0.000    5.091 
#    0.000    2.727    0.000    5.455    0.000    3.818 
#    0.000    0.000    0.000    0.000    0.000    0.000 
#
# Total GULP energy -245286.650025 kJ/mol
# GULP energy per Si atom -5574.696591 kJ/mol
# Density = 1.847466 g / cm^3
# Si number density = 18.516808 Si / 1000 Ang^3
#
#
#
# Elastic Constant Matrix: (Units=GPa)
#
#
# Indices 1 2 3 4 5 6 
#
# 1 18.9222 17.6219 25.6786 0.0000 0.0000 0.0000
# 2 17.6219 106.2728 112.7435 0.0000 0.0000 0.0000
# 3 25.6786 112.7435 219.9963 0.0000 0.0000 0.0000
# 4 0.0000 0.0000 0.0000 -6.0854 0.0000 0.0000
# 5 0.0000 0.0000 0.0000 0.0000 85.5629 0.0000
# 6 0.0000 0.0000 0.0000 0.0000 0.0000 21.6466
#
#
#
# Elastic Compliance Matrix: (Units=1/GPa)
#
#
# Indices 1 2 3 4 5 6 
#
# 1 0.064457 -0.005931 -0.004484 0.000000 0.000000 0.000000
# 2 -0.005931 0.021167 -0.010155 0.000000 0.000000 0.000000
# 3 -0.004484 -0.010155 0.010273 0.000000 0.000000 0.000000
# 4 0.000000 0.000000 0.000000 -0.164327 0.000000 0.000000
# 5 0.000000 0.000000 0.000000 0.000000 0.011687 0.000000
# 6 0.000000 0.000000 0.000000 0.000000 0.000000 0.046197
#
#
# Mechanical properties :
#
#
# Convention : Reuss Voigt Hill
#
# Bulk Modulus (GPa) = 18.26279 73.03103 45.64691
# Shear Modulus (GPa) = 102.36259 32.83465 67.59862
#
# Velocity S-wave (km/s) = 7.44318 4.21555 6.04863
# Velocity P-wave (km/s) = 9.15162 7.95113 8.57241
#
# Compressibility (1/GPa) = 0.05475616
#
# Stress axis : x y z
#
# Youngs Moduli (GPa) = 15.51430 47.24379 97.33981
#
# Poissons Ratio (x) = 0.28020 0.43648
# Poissons Ratio (y) = 0.09201 0.98851
# Poissons Ratio (z) = 0.06957 0.47977
#
# Static dielectric constant tensor:
#      x y z
#    x 1.644560 0.000000 0.000000 
#    y 0.000000 1.590120 0.000000 
#    z 0.000000 0.000000 1.682370 
# 
# From -- ./inp_files/76513.got.cif
#   From: 2010.05.17/outbox.cif.g08.bks.cpg/sg65_39_cif.got.tgz:76513.got - 2010.06.03 17:01:31.
