data_PCOD9486122
_publ_section_title
;
Structure prediction by ZEFSAII (Michael W. Deem and Ramdas Pophale) SiO2 
 PCOD9486122
Probable space group: C M M M
;
_chemical_formula_sum "Si O2"
_cell_formula_units_Z 120
_cell_length_a 8.822225
_cell_length_b 27.378273
_cell_length_c 28.473486
_cell_angle_alpha 90.000000
_cell_angle_beta 90.000000
_cell_angle_gamma 90.000000
_cell_volume 6877.408489
_symmetry_space_group_name_H-M "C M M M"
_symmetry_group_IT_number 65
_symmetry_cell_setting 'orthorhombic'
loop_
_space_group_symop_operation_xyz
x,y,z
-x,-y,z
x,-y,-z
-x,y,-z
-x,-y,-z
x,y,-z
-x,y,z
x,-y,z
1/2+x,1/2+y,z
1/2-x,1/2-y,z
1/2+x,1/2-y,-z
1/2-x,1/2+y,-z
1/2-x,1/2-y,-z
1/2+x,1/2+y,-z
1/2-x,1/2+y,z
1/2+x,1/2-y,z
loop_
_atom_site_type_symbol
_atom_site_label
_atom_site_fract_x
_atom_site_fract_y
_atom_site_fract_z
Si Si1 0.817711 0.946460 0.802222
Si Si2 0.319442 0.199872 0.766134
Si Si3 0.816196 0.403796 0.604230
Si Si4 0.818672 0.600426 0.712677
Si Si5 0.317928 0.650368 0.144289
Si Si6 0.818872 0.304094 0.053475
Si Si7 0.317657 0.198017 0.444745
Si Si8 0.680981 0.500000 0.555489
O O1 0.758180 0.935087 0.750158
O O2 0.769546 0.902805 0.836504
O O3 0.000000 0.945481 0.800988
O O4 0.766915 0.000000 0.817560
O O5 0.500000 0.203641 0.771277
O O6 0.250000 0.250000 0.748122
O O7 0.285092 0.154917 0.731526
O O8 0.245934 0.187460 0.816539
O O9 0.771755 0.405953 0.658995
O O10 0.769574 0.351358 0.582199
O O11 0.749553 0.450748 0.577899
O O12 0.000000 0.405899 0.601396
O O13 0.000000 0.593674 0.715202
O O14 0.500000 0.653367 0.143447
O O15 0.251639 0.662525 0.093671
O O16 0.750000 0.250000 0.059213
O O17 0.000000 0.301597 0.058800
O O18 0.784639 0.320126 0.000000
O O19 0.277775 0.192650 0.500000
O O20 0.500000 0.201141 0.441212
O O21 0.250000 0.250000 0.428221
O O22 0.500000 0.500000 0.562213
O O23 0.713686 0.500000 0.500000
#
# Coordination Sequence:
#
# PCOD9486122 Si02
#       8
#    16  16  16  16  16  16  16   8
#     4   9  19  35  54  75 100 131 168 212 257 304
#     4  10  19  32  49  71 103 139 174 211 251 300
#     4  10  21  38  58  80 107 140 177 214 260 320
#     4   9  20  35  51  75 103 132 168 208 250 300
#     4  10  19  32  51  74 100 133 174 215 258 305
#     4  10  20  33  50  74 105 138 171 209 255 306
#     4   9  18  33  54  78 103 134 171 211 256 306
#     4  11  25  41  57  81 109 137 173 219 268 315
#
# _framework density 17.448432
#
# number of rings (size 3 to 8) (size 9 to 14) (size 15 to 20)
#    0.000    2.333    0.000    2.200    0.933    4.800 
#    0.000    1.333    0.000    0.400    0.000    2.800 
#    0.000    0.000    0.000    0.000    0.000    0.000 
#
# Total GULP energy -334784.770386 kJ/mol
# GULP energy per Si atom -5579.746173 kJ/mol
# Density = 1.740872 g / cm^3
# Si number density = 17.448432 Si / 1000 Ang^3
#
#
#
# Elastic Constant Matrix: (Units=GPa)
#
#
# Indices 1 2 3 4 5 6 
#
# 1 30.7998 32.0428 39.6443 0.0000 0.0000 0.0000
# 2 32.0428 118.7536 62.5877 0.0000 0.0000 0.0000
# 3 39.6443 62.5877 125.9836 0.0000 0.0000 0.0000
# 4 0.0000 0.0000 0.0000 9.0666 0.0000 0.0000
# 5 0.0000 0.0000 0.0000 0.0000 23.0164 0.0000
# 6 0.0000 0.0000 0.0000 0.0000 0.0000 22.8658
#
#
#
# Elastic Compliance Matrix: (Units=1/GPa)
#
#
# Indices 1 2 3 4 5 6 
#
# 1 0.060294 -0.008493 -0.014754 0.000000 0.000000 0.000000
# 2 -0.008493 0.012604 -0.003589 0.000000 0.000000 0.000000
# 3 -0.014754 -0.003589 0.014363 0.000000 0.000000 0.000000
# 4 0.000000 0.000000 0.000000 0.110295 0.000000 0.000000
# 5 0.000000 0.000000 0.000000 0.000000 0.043447 0.000000
# 6 0.000000 0.000000 0.000000 0.000000 0.000000 0.043734
#
#
# Mechanical properties :
#
#
# Convention : Reuss Voigt Hill
#
# Bulk Modulus (GPa) = 29.77119 60.45406 45.11262
# Shear Modulus (GPa) = 14.30181 20.40724 17.35452
#
# Velocity S-wave (km/s) = 2.86608 3.42361 3.15718
# Velocity P-wave (km/s) = 5.29641 7.09582 6.26110
#
# Compressibility (1/GPa) = 0.03358952
#
# Stress axis : x y z
#
# Youngs Moduli (GPa) = 16.58528 79.33999 69.62194
#
# Poissons Ratio (x) = 0.67384 1.02720
# Poissons Ratio (y) = 0.14086 0.24987
# Poissons Ratio (z) = 0.24470 0.28475
#
# Static dielectric constant tensor:
#      x y z
#    x 1.586730 0.000000 0.000000 
#    y 0.000000 1.594620 0.000000 
#    z 0.000000 0.000000 1.576660 
# 
# From -- ./inp_files/73942.got.cif
#   From: 2010.05.17/outbox.cif.g08.bks.cpg/sg65_37_cif.got.tgz:73942.got - 2010.06.03 17:01:31.
