data_PCOD9486757
_publ_section_title
;
Structure prediction by ZEFSAII (Michael W. Deem and Ramdas Pophale) SiO2 
 PCOD9486757
Probable space group: C M M M
;
_chemical_formula_sum "Si O2"
_cell_formula_units_Z 80
_cell_length_a 9.207747
_cell_length_b 14.562729
_cell_length_c 27.051030
_cell_angle_alpha 90.000000
_cell_angle_beta 90.000000
_cell_angle_gamma 90.000000
_cell_volume 3627.270564
_symmetry_space_group_name_H-M "C M M M"
_symmetry_group_IT_number 65
_symmetry_cell_setting 'orthorhombic'
loop_
_space_group_symop_operation_xyz
x,y,z
-x,-y,z
x,-y,-z
-x,y,-z
-x,-y,-z
x,y,-z
-x,y,z
x,-y,z
1/2+x,1/2+y,z
1/2-x,1/2-y,z
1/2+x,1/2-y,-z
1/2-x,1/2+y,-z
1/2-x,1/2-y,-z
1/2+x,1/2+y,-z
1/2-x,1/2+y,z
1/2+x,1/2-y,z
loop_
_atom_site_type_symbol
_atom_site_label
_atom_site_fract_x
_atom_site_fract_y
_atom_site_fract_z
Si Si1 0.674633 0.849241 0.607252
Si Si2 0.838137 0.107103 0.293632
Si Si3 0.665980 0.387812 0.098897
Si Si4 0.334052 0.887443 0.802001
Si Si5 0.166133 0.612279 0.000000
Si Si6 0.326270 0.849213 0.500000
O O1 0.500000 0.845307 0.612672
O O2 0.750000 0.750000 0.604617
O O3 0.746921 0.889767 0.655991
O O4 0.707474 0.893324 0.553311
O O5 0.749381 0.144417 0.247094
O O6 0.000000 0.148196 0.299691
O O7 0.856576 0.000000 0.282253
O O8 0.500000 0.355709 0.098922
O O9 0.662928 0.500000 0.098732
O O10 0.749675 0.360482 0.148482
O O11 0.750059 0.359752 0.049484
O O12 0.500000 0.855529 0.802358
O O13 0.337961 0.000000 0.801546
O O14 0.163450 0.500000 0.000000
O O15 0.000000 0.644037 0.000000
O O16 0.500000 0.835066 0.500000
O O17 0.250000 0.750000 0.500000
#
# Coordination Sequence:
#
# PCOD9486757 Si02
#       6
#    16  16  16  16   8   8
#     4  10  19  33  53  75  98 124 156 193 234 280
#     4  10  20  33  48  68  95 126 160 197 236 279
#     4   9  15  22  32  47  69  99 136 178 223 270
#     4   9  16  26  40  57  78 108 146 185 226 274
#     4   9  15  21  29  43  65  95 134 179 222 265
#     4   8  16  30  49  72  95 121 153 189 229 276
#
# _framework density 22.055152
#
# number of rings (size 3 to 8) (size 9 to 14) (size 15 to 20)
#    0.000    2.700    0.000    2.700    0.000    8.000 
#    0.000    0.500    0.000    3.000    0.000    0.000 
#    0.000    0.000    0.000    0.900    0.000   13.600 
#
# Total GULP energy -223287.935712 kJ/mol
# GULP energy per Si atom -5582.198393 kJ/mol
# Density = 2.200495 g / cm^3
# Si number density = 22.055152 Si / 1000 Ang^3
#
#
#
# Elastic Constant Matrix: (Units=GPa)
#
#
# Indices 1 2 3 4 5 6 
#
# 1 210.1478 11.6454 144.5537 0.0000 0.0000 0.0000
# 2 11.6454 53.9721 7.8231 0.0000 0.0000 0.0000
# 3 144.5537 7.8231 261.5143 0.0000 0.0000 0.0000
# 4 0.0000 0.0000 0.0000 -6.5749 0.0000 0.0000
# 5 0.0000 0.0000 0.0000 0.0000 39.7354 0.0000
# 6 0.0000 0.0000 0.0000 0.0000 0.0000 7.7367
#
#
#
# Elastic Compliance Matrix: (Units=1/GPa)
#
#
# Indices 1 2 3 4 5 6 
#
# 1 0.007737 -0.001054 -0.004245 0.000000 0.000000 0.000000
# 2 -0.001054 0.018752 0.000022 0.000000 0.000000 0.000000
# 3 -0.004245 0.000022 0.006170 0.000000 0.000000 0.000000
# 4 0.000000 0.000000 0.000000 -0.152094 0.000000 0.000000
# 5 0.000000 0.000000 0.000000 0.000000 0.025167 0.000000
# 6 0.000000 0.000000 0.000000 0.000000 0.000000 0.129254
#
#
# Mechanical properties :
#
#
# Convention : Reuss Voigt Hill
#
# Bulk Modulus (GPa) = 45.24049 94.85318 70.04684
# Shear Modulus (GPa) = 94.50100 32.28689 63.39395
#
# Velocity S-wave (km/s) = 6.55291 3.83027 5.36710
# Velocity P-wave (km/s) = 8.82106 7.91593 8.38072
#
# Compressibility (1/GPa) = 0.02210409
#
# Stress axis : x y z
#
# Youngs Moduli (GPa) = 129.24739 53.32651 162.07989
#
# Poissons Ratio (x) = 0.05621 0.68806
# Poissons Ratio (y) = 0.13624 -0.00351
# Poissons Ratio (z) = 0.54868 -0.00116
#
# Static dielectric constant tensor:
#      x y z
#    x 1.766930 0.000000 0.000000 
#    y 0.000000 2.265890 0.000000 
#    z 0.000000 0.000000 1.798070 
# 
# From -- ./inp_files/67395.got.cif
#   From: 2010.05.17/outbox.cif.g08.bks.cpg/sg65_34_cif.got.tgz:67395.got - 2010.06.03 17:01:31.
