data_PCOD9486827
_publ_section_title
;
Structure prediction by ZEFSAII (Michael W. Deem and Ramdas Pophale) SiO2 
 PCOD9486827
Probable space group: C M M M
;
_chemical_formula_sum "Si O2"
_cell_formula_units_Z 100
_cell_length_a 28.631989
_cell_length_b 7.778208
_cell_length_c 22.983423
_cell_angle_alpha 90.000000
_cell_angle_beta 90.000000
_cell_angle_gamma 90.000000
_cell_volume 5118.536225
_symmetry_space_group_name_H-M "C M M M"
_symmetry_group_IT_number 65
_symmetry_cell_setting 'orthorhombic'
loop_
_space_group_symop_operation_xyz
x,y,z
-x,-y,z
x,-y,-z
-x,y,-z
-x,-y,-z
x,y,-z
-x,y,z
x,-y,z
1/2+x,1/2+y,z
1/2-x,1/2-y,z
1/2+x,1/2-y,-z
1/2-x,1/2+y,-z
1/2-x,1/2-y,-z
1/2+x,1/2+y,-z
1/2-x,1/2+y,z
1/2+x,1/2-y,z
loop_
_atom_site_type_symbol
_atom_site_label
_atom_site_fract_x
_atom_site_fract_y
_atom_site_fract_z
Si Si1 0.552508 0.294784 0.435078
Si Si2 0.900627 0.799007 0.913952
Si Si3 0.570466 0.000000 0.000000
Si Si4 0.197731 0.205621 0.126704
Si Si5 0.302466 0.295186 0.259600
Si Si6 0.945356 0.291780 0.206039
Si Si7 0.604758 0.200349 0.678922
O O1 0.564681 0.229601 0.500000
O O2 0.500000 0.230150 0.420141
O O3 0.549228 0.500000 0.439247
O O4 0.588845 0.261935 0.383949
O O5 0.845840 0.743246 0.913220
O O6 0.917694 0.788860 0.847532
O O7 0.904796 0.000000 0.932714
O O8 0.927770 0.654648 0.950121
O O9 0.250000 0.250000 0.106706
O O10 0.191762 0.273596 0.193071
O O11 0.195018 0.000000 0.130078
O O12 0.307186 0.500000 0.257208
O O13 0.250000 0.250000 0.277697
O O14 0.341824 0.227585 0.302640
O O15 0.939457 0.500000 0.203127
O O16 0.925326 0.225819 0.267385
O O17 0.000000 0.253945 0.201126
O O18 0.594519 0.000000 0.678558
#
# Coordination Sequence:
#
# PCOD9486827 Si02
#       7
#    16  16   4  16  16  16  16
#     4   9  19  36  56  80 116 163 209 249 293 349
#     4  11  23  42  64  89 115 154 202 241 296 363
#     4  12  26  44  67  84 118 166 184 252 297 348
#     4   9  19  33  58  86 113 147 190 237 290 355
#     4  10  19  33  53  84 118 151 191 240 291 349
#     4  10  21  38  60  88 120 152 190 244 305 353
#     4  11  21  33  56  89 123 158 194 242 300 354
#
# _framework density 19.536836000000001
#
# number of rings (size 3 to 8) (size 9 to 14) (size 15 to 20)
#    0.000    1.920    2.400    2.160    1.120    2.880 
#    0.000    2.000    0.000    1.440    0.000    0.000 
#    0.000    0.000    0.000    0.000    0.000    0.000 
#
# Total GULP energy -278505.132764 kJ/mol
# GULP energy per Si atom -5570.102655 kJ/mol
# Density = 1.949237 g / cm^3
# Si number density = 19.536836 Si / 1000 Ang^3
#
#
#
# Elastic Constant Matrix: (Units=GPa)
#
#
# Indices 1 2 3 4 5 6 
#
# 1 48.0822 -1.5226 5.6719 0.0000 0.0000 0.0000
# 2 -1.5226 61.9002 16.3217 0.0000 0.0000 0.0000
# 3 5.6719 16.3217 55.8040 0.0000 0.0000 0.0000
# 4 0.0000 0.0000 0.0000 22.3585 0.0000 0.0000
# 5 0.0000 0.0000 0.0000 0.0000 26.8834 0.0000
# 6 0.0000 0.0000 0.0000 0.0000 0.0000 11.7896
#
#
#
# Elastic Compliance Matrix: (Units=1/GPa)
#
#
# Indices 1 2 3 4 5 6 
#
# 1 0.021129 0.001177 -0.002492 0.000000 0.000000 0.000000
# 2 0.001177 0.017571 -0.005259 0.000000 0.000000 0.000000
# 3 -0.002492 -0.005259 0.019711 0.000000 0.000000 0.000000
# 4 0.000000 0.000000 0.000000 0.044726 0.000000 0.000000
# 5 0.000000 0.000000 0.000000 0.000000 0.037198 0.000000
# 6 0.000000 0.000000 0.000000 0.000000 0.000000 0.084820
#
#
# Mechanical properties :
#
#
# Convention : Reuss Voigt Hill
#
# Bulk Modulus (GPa) = 22.09291 22.96980 22.53135
# Shear Modulus (GPa) = 19.73246 21.89399 20.81322
#
# Velocity S-wave (km/s) = 3.18152 3.35125 3.26748
# Velocity P-wave (km/s) = 4.98287 5.17273 5.07869
#
# Compressibility (1/GPa) = 0.04526339
#
# Stress axis : x y z
#
# Youngs Moduli (GPa) = 47.32850 56.91330 50.73263
#
# Poissons Ratio (x) = -0.06697 0.12641
# Poissons Ratio (y) = -0.05569 0.26679
# Poissons Ratio (z) = 0.11793 0.29929
#
# Static dielectric constant tensor:
#      x y z
#    x 1.695870 0.000000 0.000000 
#    y 0.000000 1.704910 0.000000 
#    z 0.000000 0.000000 1.704500 
# 
# From -- ./inp_files/66310.got.cif
#   From: 2010.05.17/outbox.cif.g08.bks.cpg/sg65_34_cif.got.tgz:66310.got - 2010.06.03 17:01:31.
