data_PCOD9486663
_publ_section_title
;
Structure prediction by ZEFSAII (Michael W. Deem and Ramdas Pophale) SiO2 
 PCOD9486663
Probable space group: C M M M
;
_chemical_formula_sum "Si O2"
_cell_formula_units_Z 104
_cell_length_a 7.662715
_cell_length_b 29.420726
_cell_length_c 26.021101
_cell_angle_alpha 90.000000
_cell_angle_beta 90.000000
_cell_angle_gamma 90.000000
_cell_volume 5866.265664
_symmetry_space_group_name_H-M "C M M M"
_symmetry_group_IT_number 65
_symmetry_cell_setting 'orthorhombic'
loop_
_space_group_symop_operation_xyz
x,y,z
-x,-y,z
x,-y,-z
-x,y,-z
-x,-y,-z
x,y,-z
-x,y,z
x,-y,z
1/2+x,1/2+y,z
1/2-x,1/2-y,z
1/2+x,1/2-y,-z
1/2-x,1/2+y,-z
1/2-x,1/2-y,-z
1/2+x,1/2+y,-z
1/2-x,1/2+y,z
1/2+x,1/2-y,z
loop_
_atom_site_type_symbol
_atom_site_label
_atom_site_fract_x
_atom_site_fract_y
_atom_site_fract_z
Si Si1 0.788625 0.947727 0.157024
Si Si2 0.707957 0.199374 0.095110
Si Si3 0.207031 0.607446 0.259769
Si Si4 0.000000 0.055032 0.558346
Si Si5 0.707750 0.945810 0.639275
Si Si6 0.290489 0.800502 0.786643
Si Si7 0.204811 0.103040 0.944328
O O1 0.733958 0.922356 0.208767
O O2 0.722471 0.921611 0.106239
O O3 0.000000 0.946982 0.156221
O O4 0.731597 0.000000 0.157098
O O5 0.500000 0.194431 0.095586
O O6 0.750000 0.250000 0.076001
O O7 0.774415 0.196168 0.154269
O O8 0.781028 0.157085 0.063953
O O9 0.270254 0.581649 0.310467
O O10 0.277926 0.657654 0.246948
O O11 0.000000 0.612012 0.267604
O O12 0.172020 0.067293 0.591040
O O13 0.000000 0.072382 0.500000
O O14 0.000000 0.000000 0.555696
O O15 0.500000 0.938351 0.630564
O O16 0.729754 0.000000 0.648698
O O17 0.500000 0.804608 0.789375
O O18 0.250000 0.750000 0.767442
O O19 0.000000 0.091202 0.945799
O O20 0.281126 0.090762 0.000000
#
# Coordination Sequence:
#
# PCOD9486663 Si02
#       7
#    16  16  16   8  16  16  16
#     4  10  21  34  50  72  93 121 162 203 249 302
#     4  10  19  33  52  72  93 118 152 193 242 300
#     4  10  19  33  51  73 102 134 163 203 252 302
#     4   9  18  32  50  74 108 148 187 223 255 295
#     4   9  18  31  48  74 108 145 181 218 259 301
#     4   9  18  31  48  71  98 127 157 193 245 304
#     4  10  21  36  51  68  92 121 157 201 249 302
#
# _framework density 17.728484999999999
#
# number of rings (size 3 to 8) (size 9 to 14) (size 15 to 20)
#    0.000    2.385    1.538    0.923    1.077    3.385 
#    0.000    3.077    0.000    0.000    0.000    2.154 
#    0.000    0.615    0.308    0.000    0.000    0.000 
#
# Total GULP energy -290072.129588 kJ/mol
# GULP energy per Si atom -5578.310184 kJ/mol
# Density = 1.768813 g / cm^3
# Si number density = 17.728485 Si / 1000 Ang^3
#
#
#
# Elastic Constant Matrix: (Units=GPa)
#
#
# Indices 1 2 3 4 5 6 
#
# 1 39.6551 1.5546 20.7935 0.0000 0.0000 0.0000
# 2 1.5546 86.0619 55.1642 0.0000 0.0000 0.0000
# 3 20.7935 55.1642 142.5076 0.0000 0.0000 0.0000
# 4 0.0000 0.0000 0.0000 16.2350 0.0000 0.0000
# 5 0.0000 0.0000 0.0000 0.0000 8.7843 0.0000
# 6 0.0000 0.0000 0.0000 0.0000 0.0000 11.6288
#
#
#
# Elastic Compliance Matrix: (Units=1/GPa)
#
#
# Indices 1 2 3 4 5 6 
#
# 1 0.027801 0.002790 -0.005137 0.000000 0.000000 0.000000
# 2 0.002790 0.015734 -0.006498 0.000000 0.000000 0.000000
# 3 -0.005137 -0.006498 0.010282 0.000000 0.000000 0.000000
# 4 0.000000 0.000000 0.000000 0.061595 0.000000 0.000000
# 5 0.000000 0.000000 0.000000 0.000000 0.113839 0.000000
# 6 0.000000 0.000000 0.000000 0.000000 0.000000 0.085994
#
#
# Mechanical properties :
#
#
# Convention : Reuss Voigt Hill
#
# Bulk Modulus (GPa) = 27.67839 47.02771 37.35305
# Shear Modulus (GPa) = 14.49374 20.04378 17.26876
#
# Velocity S-wave (km/s) = 2.86237 3.36608 3.12439
# Velocity P-wave (km/s) = 5.15465 6.45690 5.84218
#
# Compressibility (1/GPa) = 0.03612927
#
# Stress axis : x y z
#
# Youngs Moduli (GPa) = 35.96928 63.55631 97.25804
#
# Poissons Ratio (x) = -0.17734 0.49958
# Poissons Ratio (y) = -0.10037 0.63196
# Poissons Ratio (z) = 0.18476 0.41297
#
# Static dielectric constant tensor:
#      x y z
#    x 1.642990 0.000000 0.000000 
#    y 0.000000 1.609450 0.000000 
#    z 0.000000 0.000000 1.600280 
# 
# From -- ./inp_files/60858.got.cif
#   From: 2010.05.17/outbox.cif.g08.bks.cpg/sg65_31_cif.got.tgz:60858.got - 2010.06.03 17:01:31.
