data_PCOD9486337
_publ_section_title
;
Structure prediction by ZEFSAII (Michael W. Deem and Ramdas Pophale) SiO2 
 PCOD9486337
Probable space group: C M M M
;
_chemical_formula_sum "Si O2"
_cell_formula_units_Z 104
_cell_length_a 29.608281
_cell_length_b 8.573749
_cell_length_c 24.120005
_cell_angle_alpha 90.000000
_cell_angle_beta 90.000000
_cell_angle_gamma 90.000000
_cell_volume 6122.959016
_symmetry_space_group_name_H-M "C M M M"
_symmetry_group_IT_number 65
_symmetry_cell_setting 'orthorhombic'
loop_
_space_group_symop_operation_xyz
x,y,z
-x,-y,z
x,-y,-z
-x,y,-z
-x,-y,-z
x,y,-z
-x,y,z
x,-y,z
1/2+x,1/2+y,z
1/2-x,1/2-y,z
1/2+x,1/2-y,-z
1/2-x,1/2+y,-z
1/2-x,1/2-y,-z
1/2+x,1/2+y,-z
1/2-x,1/2+y,z
1/2+x,1/2-y,z
loop_
_atom_site_type_symbol
_atom_site_label
_atom_site_fract_x
_atom_site_fract_y
_atom_site_fract_z
Si Si1 0.049857 0.810506 0.895177
Si Si2 0.449302 0.687934 0.765241
Si Si3 0.301257 0.312722 0.378473
Si Si4 0.198931 0.187810 0.500000
Si Si5 0.357065 0.186351 0.724675
Si Si6 0.300568 0.187004 0.832715
Si Si7 0.353910 0.688912 0.938264
O O1 0.055586 0.768306 0.830329
O O2 0.094130 0.759911 0.928036
O O3 0.000000 0.756711 0.913799
O O4 0.049068 0.000000 0.897693
O O5 0.500000 0.733924 0.747803
O O6 0.446527 0.500000 0.762742
O O7 0.408563 0.759421 0.730969
O O8 0.299441 0.500000 0.376487
O O9 0.250000 0.250000 0.372288
O O10 0.319420 0.263631 0.439719
O O11 0.332257 0.252111 0.329166
O O12 0.250000 0.250000 0.500000
O O13 0.199387 0.000000 0.500000
O O14 0.330337 0.240072 0.780012
O O15 0.355160 0.000000 0.723097
O O16 0.250000 0.250000 0.827546
O O17 0.323383 0.245800 0.889203
O O18 0.299694 0.000000 0.832907
O O19 0.352951 0.500000 0.935266
O O20 0.339279 0.735478 0.000000
#
# Coordination Sequence:
#
# PCOD9486337 Si02
#       7
#    16  16  16   8  16  16  16
#     4   8  14  27  49  76 102 126 155 194 242 296
#     4   9  17  31  53  77 101 133 168 204 251 303
#     4  10  19  32  51  76 108 143 177 213 251 296
#     4   8  16  30  48  72 103 140 177 210 248 293
#     4  11  22  34  51  78 106 135 171 209 255 302
#     4  11  24  39  54  71  95 129 166 209 254 299
#     4  10  20  34  54  77  99 126 162 204 251 303
#
# _framework density 16.985251999999999
#
# number of rings (size 3 to 8) (size 9 to 14) (size 15 to 20)
#    0.000    2.308    1.538    2.769    0.000    4.923 
#    0.000    1.538    0.000    0.462    0.000    1.615 
#    0.000    4.308    0.000    0.000    0.000    0.000 
#
# Total GULP energy -289990.471810 kJ/mol
# GULP energy per Si atom -5576.739842 kJ/mol
# Density = 1.694659 g / cm^3
# Si number density = 16.985252 Si / 1000 Ang^3
#
#
#
# Elastic Constant Matrix: (Units=GPa)
#
#
# Indices 1 2 3 4 5 6 
#
# 1 112.4386 27.1240 72.5654 0.0000 0.0000 0.0000
# 2 27.1240 24.9827 34.6029 0.0000 0.0000 0.0000
# 3 72.5654 34.6029 145.6454 0.0000 0.0000 0.0000
# 4 0.0000 0.0000 0.0000 16.8640 0.0000 0.0000
# 5 0.0000 0.0000 0.0000 0.0000 19.7316 0.0000
# 6 0.0000 0.0000 0.0000 0.0000 0.0000 18.7662
#
#
#
# Elastic Compliance Matrix: (Units=1/GPa)
#
#
# Indices 1 2 3 4 5 6 
#
# 1 0.014193 -0.008369 -0.005083 0.000000 0.000000 0.000000
# 2 -0.008369 0.064595 -0.011177 0.000000 0.000000 0.000000
# 3 -0.005083 -0.011177 0.012054 0.000000 0.000000 0.000000
# 4 0.000000 0.000000 0.000000 0.059298 0.000000 0.000000
# 5 0.000000 0.000000 0.000000 0.000000 0.050680 0.000000
# 6 0.000000 0.000000 0.000000 0.000000 0.000000 0.053287
#
#
# Mechanical properties :
#
#
# Convention : Reuss Voigt Hill
#
# Bulk Modulus (GPa) = 24.04783 61.29459 42.67121
# Shear Modulus (GPa) = 15.76157 20.99065 18.37611
#
# Velocity S-wave (km/s) = 3.04954 3.51923 3.29277
# Velocity P-wave (km/s) = 5.15640 7.25800 6.29552
#
# Compressibility (1/GPa) = 0.04158379
#
# Stress axis : x y z
#
# Youngs Moduli (GPa) = 70.45599 15.48108 82.95980
#
# Poissons Ratio (x) = 0.12956 0.42170
# Poissons Ratio (y) = 0.58966 0.92723
# Poissons Ratio (z) = 0.35814 0.17303
#
# Static dielectric constant tensor:
#      x y z
#    x 1.560610 0.000000 0.000000 
#    y 0.000000 1.578000 0.000000 
#    z 0.000000 0.000000 1.584230 
# 
# From -- ./inp_files/66314.got.cif
#   From: 2010.05.17/outbox.cif.g08.bks.cpg/sg65_34_cif.got.tgz:66314.got - 2010.06.03 17:01:31.
