data_PCOD9486808
_publ_section_title
;
Structure prediction by ZEFSAII (Michael W. Deem and Ramdas Pophale) SiO2 
 PCOD9486808
Probable space group: C M M M
;
_chemical_formula_sum "Si O2"
_cell_formula_units_Z 72
_cell_length_a 17.599864
_cell_length_b 25.330705
_cell_length_c 7.426429
_cell_angle_alpha 90.000000
_cell_angle_beta 90.000000
_cell_angle_gamma 90.000000
_cell_volume 3310.828023
_symmetry_space_group_name_H-M "C M M M"
_symmetry_group_IT_number 65
_symmetry_cell_setting 'orthorhombic'
loop_
_space_group_symop_operation_xyz
x,y,z
-x,-y,z
x,-y,-z
-x,y,-z
-x,-y,-z
x,y,-z
-x,y,z
x,-y,z
1/2+x,1/2+y,z
1/2-x,1/2-y,z
1/2+x,1/2-y,-z
1/2-x,1/2+y,-z
1/2-x,1/2-y,-z
1/2+x,1/2+y,-z
1/2-x,1/2+y,z
1/2+x,1/2-y,z
loop_
_atom_site_type_symbol
_atom_site_label
_atom_site_fract_x
_atom_site_fract_y
_atom_site_fract_z
Si Si1 0.872671 0.645792 0.714953
Si Si2 0.085597 0.939930 0.719363
Si Si3 0.800130 0.849735 0.279619
Si Si4 0.916658 0.238483 0.719748
Si Si5 0.500000 0.059769 0.212182
O O1 0.868081 0.650934 0.500000
O O2 0.786201 0.643570 0.782196
O O3 0.908372 0.700975 0.779482
O O4 0.926172 0.595447 0.745358
O O5 0.085695 0.939326 0.500000
O O6 0.148185 0.898697 0.778380
O O7 0.000000 0.925674 0.775159
O O8 0.100970 0.000000 0.775035
O O9 0.798650 0.849028 0.500000
O O10 0.845511 0.797134 0.223455
O O11 0.916027 0.237708 0.500000
O O12 0.000000 0.217850 0.774008
O O13 0.500000 0.000000 0.289677
O O14 0.500000 0.054098 0.000000
#
# Coordination Sequence:
#
# PCOD9486808 Si02
#       5
#    16  16  16  16   8
#     4  10  19  33  53  79 105 129 166 217 264 305
#     4   8  13  21  32  51  89 137 172 196 235 296
#     4   9  16  24  41  71 105 136 167 206 253 301
#     4   9  15  25  44  72 107 141 170 200 247 308
#     4  11  25  43  59  73  95 135 180 217 264 322
#
# _framework density 21.746825000000001
#
# number of rings (size 3 to 8) (size 9 to 14) (size 15 to 20)
#    0.000    2.778    1.111    2.333    0.000    7.111 
#    0.000    2.222    0.000    2.667    0.000    0.000 
#    0.000    0.000    0.000    8.667    0.000    5.778 
#
# Total GULP energy -200954.497300 kJ/mol
# GULP energy per Si atom -5582.069369 kJ/mol
# Density = 2.169733 g / cm^3
# Si number density = 21.746825 Si / 1000 Ang^3
#
#
#
# Elastic Constant Matrix: (Units=GPa)
#
#
# Indices 1 2 3 4 5 6 
#
# 1 205.7554 117.6597 5.1853 0.0000 0.0000 0.0000
# 2 117.6597 159.8627 0.3746 0.0000 0.0000 0.0000
# 3 5.1853 0.3746 66.2371 0.0000 0.0000 0.0000
# 4 0.0000 0.0000 0.0000-1377.7947 0.0000 0.0000
# 5 0.0000 0.0000 0.0000 0.0000 -50.9687 0.0000
# 6 0.0000 0.0000 0.0000 0.0000 0.0000 8.4134
#
#
#
# Elastic Compliance Matrix: (Units=1/GPa)
#
#
# Indices 1 2 3 4 5 6 
#
# 1 0.008418 -0.006194 -0.000624 0.000000 0.000000 0.000000
# 2 -0.006194 0.010813 0.000424 0.000000 0.000000 0.000000
# 3 -0.000624 0.000424 0.015144 0.000000 0.000000 0.000000
# 4 0.000000 0.000000 0.000000 -0.000726 0.000000 0.000000
# 5 0.000000 0.000000 0.000000 0.000000 -0.019620 0.000000
# 6 0.000000 0.000000 0.000000 0.000000 0.000000 0.118858
#
#
# Mechanical properties :
#
#
# Convention : Reuss Voigt Hill
#
# Bulk Modulus (GPa) = 46.32584 75.36603 60.84594
# Shear Modulus (GPa) = 32.70718 -263.49430 -115.39356
#
# Velocity S-wave (km/s) = 3.88235 -11.01942 -7.29229
# Velocity P-wave (km/s) = 6.43781 11.27706 6.54701
#
# Compressibility (1/GPa) = 0.02158622
#
# Stress axis : x y z
#
# Youngs Moduli (GPa) = 118.79341 92.47839 66.03390
#
# Poissons Ratio (x) = 0.57283 0.04120
# Poissons Ratio (y) = 0.73583 -0.02798
# Poissons Ratio (z) = 0.07412 -0.03919
#
# Static dielectric constant tensor:
#      x y z
#    x 1.790960 0.000000 0.000000 
#    y 0.000000 1.782360 0.000000 
#    z 0.000000 0.000000 1.848480 
# 
# From -- ./inp_files/9282.got.cif
#   From: 2010.05.17/outbox.cif.g08.bks.cpg/sg65_5_cif.got.tgz:9282.got - 2010.06.03 17:01:31.
