data_PCOD9486325
_publ_section_title
;
Structure prediction by ZEFSAII (Michael W. Deem and Ramdas Pophale) SiO2 
 PCOD9486325
Probable space group: C M M M
;
_chemical_formula_sum "Si O2"
_cell_formula_units_Z 80
_cell_length_a 28.106796
_cell_length_b 8.676892
_cell_length_c 19.196774
_cell_angle_alpha 90.000000
_cell_angle_beta 90.000000
_cell_angle_gamma 90.000000
_cell_volume 4681.702205
_symmetry_space_group_name_H-M "C M M M"
_symmetry_group_IT_number 65
_symmetry_cell_setting 'orthorhombic'
loop_
_space_group_symop_operation_xyz
x,y,z
-x,-y,z
x,-y,-z
-x,y,-z
-x,-y,-z
x,y,-z
-x,y,z
x,-y,z
1/2+x,1/2+y,z
1/2-x,1/2-y,z
1/2+x,1/2-y,-z
1/2-x,1/2+y,-z
1/2-x,1/2-y,-z
1/2+x,1/2+y,-z
1/2-x,1/2+y,z
1/2+x,1/2-y,z
loop_
_atom_site_type_symbol
_atom_site_label
_atom_site_fract_x
_atom_site_fract_y
_atom_site_fract_z
Si Si1 0.553068 0.313022 0.148383
Si Si2 0.150531 0.186589 0.078780
Si Si3 0.555445 0.185706 0.420613
Si Si4 0.607071 0.315605 0.712060
Si Si5 0.198600 0.683328 0.785070
O O1 0.500000 0.255558 0.132795
O O2 0.551361 0.500000 0.145842
O O3 0.596084 0.267330 0.097465
O O4 0.570070 0.270457 0.226295
O O5 0.183627 0.257881 0.138003
O O6 0.153144 0.000000 0.084307
O O7 0.162612 0.230801 0.000000
O O8 0.568047 0.229935 0.500000
O O9 0.500000 0.228057 0.409291
O O10 0.587712 0.259814 0.361639
O O11 0.558491 0.000000 0.416106
O O12 0.611089 0.500000 0.713556
O O13 0.657416 0.244067 0.733885
O O14 0.199682 0.500000 0.784360
O O15 0.250000 0.750000 0.766886
#
# Coordination Sequence:
#
# PCOD9486325 Si02
#       5
#    16  16  16  16  16
#     4   8  14  25  43  69  99 130 164 202 243 286
#     4   9  18  32  49  72 102 132 165 207 253 302
#     4   9  18  32  50  76 112 149 179 207 244 290
#     4  10  19  32  51  76 104 133 170 213 254 300
#     4  11  22  37  56  75  96 125 164 210 261 313
#
# _framework density 17.087803000000001
#
# number of rings (size 3 to 8) (size 9 to 14) (size 15 to 20)
#    0.000    2.600    0.000    4.800    0.000    2.800 
#    0.000    3.000    0.000    6.000    0.000    5.600 
#    0.000    0.000    0.000    0.000    0.000    0.000 
#
# Total GULP energy -223101.626889 kJ/mol
# GULP energy per Si atom -5577.540672 kJ/mol
# Density = 1.704891 g / cm^3
# Si number density = 17.087803 Si / 1000 Ang^3
#
#
#
# Elastic Constant Matrix: (Units=GPa)
#
#
# Indices 1 2 3 4 5 6 
#
# 1 75.0468 30.3336 34.5321 0.0000 0.0000 0.0000
# 2 30.3336 52.5242 40.7632 0.0000 0.0000 0.0000
# 3 34.5321 40.7632 110.6388 0.0000 0.0000 0.0000
# 4 0.0000 0.0000 0.0000 26.0361 0.0000 0.0000
# 5 0.0000 0.0000 0.0000 0.0000 9.2148 0.0000
# 6 0.0000 0.0000 0.0000 0.0000 0.0000 19.1370
#
#
#
# Elastic Compliance Matrix: (Units=1/GPa)
#
#
# Indices 1 2 3 4 5 6 
#
# 1 0.017857 -0.008385 -0.002484 0.000000 0.000000 0.000000
# 2 -0.008385 0.030600 -0.008657 0.000000 0.000000 0.000000
# 3 -0.002484 -0.008657 0.013003 0.000000 0.000000 0.000000
# 4 0.000000 0.000000 0.000000 0.038408 0.000000 0.000000
# 5 0.000000 0.000000 0.000000 0.000000 0.108521 0.000000
# 6 0.000000 0.000000 0.000000 0.000000 0.000000 0.052255
#
#
# Mechanical properties :
#
#
# Convention : Reuss Voigt Hill
#
# Bulk Modulus (GPa) = 44.62657 49.94083 47.28370
# Shear Modulus (GPa) = 16.27783 19.71630 17.99707
#
# Velocity S-wave (km/s) = 3.08977 3.40048 3.24884
# Velocity P-wave (km/s) = 6.23712 6.68634 6.46563
#
# Compressibility (1/GPa) = 0.02240817
#
# Stress axis : x y z
#
# Youngs Moduli (GPa) = 55.99966 32.67996 76.90338
#
# Poissons Ratio (x) = 0.27402 0.19105
# Poissons Ratio (y) = 0.46955 0.66575
# Poissons Ratio (z) = 0.13912 0.28291
#
# Static dielectric constant tensor:
#      x y z
#    x 1.571220 0.000000 0.000000 
#    y 0.000000 1.577710 0.000000 
#    z 0.000000 0.000000 1.565200 
# 
# From -- ./inp_files/49838.got.cif
#   From: 2010.05.17/outbox.cif.g08.bks.cpg/sg65_25_cif.got.tgz:49838.got - 2010.06.03 17:01:31.
