data_PCOD9486513
_publ_section_title
;
Structure prediction by ZEFSAII (Michael W. Deem and Ramdas Pophale) SiO2 
 PCOD9486513
Probable space group: C M M M
;
_chemical_formula_sum "Si O2"
_cell_formula_units_Z 88
_cell_length_a 17.165049
_cell_length_b 27.328893
_cell_length_c 11.557933
_cell_angle_alpha 90.000000
_cell_angle_beta 90.000000
_cell_angle_gamma 90.000000
_cell_volume 5421.847030
_symmetry_space_group_name_H-M "C M M M"
_symmetry_group_IT_number 65
_symmetry_cell_setting 'orthorhombic'
loop_
_space_group_symop_operation_xyz
x,y,z
-x,-y,z
x,-y,-z
-x,y,-z
-x,-y,-z
x,y,-z
-x,y,z
x,-y,z
1/2+x,1/2+y,z
1/2-x,1/2-y,z
1/2+x,1/2-y,-z
1/2-x,1/2+y,-z
1/2-x,1/2-y,-z
1/2+x,1/2+y,-z
1/2-x,1/2+y,z
1/2+x,1/2-y,z
loop_
_atom_site_type_symbol
_atom_site_label
_atom_site_fract_x
_atom_site_fract_y
_atom_site_fract_z
Si Si1 0.666751 0.943965 0.760605
Si Si2 0.675929 0.219057 0.290396
Si Si3 0.590768 0.298115 0.135359
Si Si4 0.237094 0.859715 0.864087
Si Si5 0.000000 0.559360 0.135164
Si Si6 0.588063 0.832946 0.500000
Si Si7 0.873956 0.445059 0.500000
O O1 0.733346 0.910349 0.812376
O O2 0.580228 0.925682 0.800905
O O3 0.670726 0.943892 0.621686
O O4 0.673163 0.000000 0.801207
O O5 0.750000 0.250000 0.337586
O O6 0.619140 0.255952 0.222362
O O7 0.712377 0.182220 0.197112
O O8 0.632950 0.188022 0.388488
O O9 0.500000 0.308827 0.151334
O O10 0.647485 0.344353 0.155106
O O11 0.602526 0.283170 0.000000
O O12 0.252029 0.859650 0.000000
O O13 0.000000 0.500000 0.138328
O O14 0.000000 0.574484 0.000000
O O15 0.500000 0.814264 0.500000
O O16 0.584772 0.892178 0.500000
O O17 0.913009 0.500000 0.500000
#
# Coordination Sequence:
#
# PCOD9486513 Si02
#       7
#    16  16  16  16   8   8   8
#     4  10  20  34  51  71  99 134 172 211 251 298
#     4  10  20  35  52  72 100 134 169 209 250 296
#     4   9  18  34  55  77 103 133 164 204 255 310
#     4  10  19  32  53  78 102 130 168 208 252 307
#     4   9  18  31  47  69  99 132 165 205 253 299
#     4  12  23  34  50  73 102 133 171 212 252 293
#     4  10  22  36  50  69  96 134 174 206 244 297
#
# _framework density 16.230630999999999
#
# number of rings (size 3 to 8) (size 9 to 14) (size 15 to 20)
#    0.000    2.091    1.818    1.909    1.273    3.455 
#    1.636    0.000    0.000    0.545    0.000    2.545 
#    0.000    2.182    0.000    0.000    0.000    0.000 
#
# Total GULP energy -245170.244847 kJ/mol
# GULP energy per Si atom -5572.051019 kJ/mol
# Density = 1.619369 g / cm^3
# Si number density = 16.230631 Si / 1000 Ang^3
#
#
#
# Elastic Constant Matrix: (Units=GPa)
#
#
# Indices 1 2 3 4 5 6 
#
# 1 115.0590 58.8381 59.3041 0.0000 0.0000 0.0000
# 2 58.8381 93.4185 42.0784 0.0000 0.0000 0.0000
# 3 59.3041 42.0784 96.2859 0.0000 0.0000 0.0000
# 4 0.0000 0.0000 0.0000 18.0722 0.0000 0.0000
# 5 0.0000 0.0000 0.0000 0.0000 3.2300 0.0000
# 6 0.0000 0.0000 0.0000 0.0000 0.0000 15.9824
#
#
#
# Elastic Compliance Matrix: (Units=1/GPa)
#
#
# Indices 1 2 3 4 5 6 
#
# 1 0.015604 -0.006847 -0.006619 0.000000 0.000000 0.000000
# 2 -0.006847 0.016332 -0.002921 0.000000 0.000000 0.000000
# 3 -0.006619 -0.002921 0.015739 0.000000 0.000000 0.000000
# 4 0.000000 0.000000 0.000000 0.055334 0.000000 0.000000
# 5 0.000000 0.000000 0.000000 0.000000 0.309598 0.000000
# 6 0.000000 0.000000 0.000000 0.000000 0.000000 0.062569
#
#
# Mechanical properties :
#
#
# Convention : Reuss Voigt Hill
#
# Bulk Modulus (GPa) = 67.09968 69.46722 68.28345
# Shear Modulus (GPa) = 9.74823 17.09310 13.42066
#
# Velocity S-wave (km/s) = 2.45339 3.24873 2.87866
# Velocity P-wave (km/s) = 7.03254 7.54754 7.29458
#
# Compressibility (1/GPa) = 0.01490320
#
# Stress axis : x y z
#
# Youngs Moduli (GPa) = 64.08746 61.22880 63.53846
#
# Poissons Ratio (x) = 0.41921 0.42053
# Poissons Ratio (y) = 0.43878 0.18556
# Poissons Ratio (z) = 0.42416 0.17882
#
# Static dielectric constant tensor:
#      x y z
#    x 1.530860 0.000000 0.000000 
#    y 0.000000 1.553990 0.000000 
#    z 0.000000 0.000000 1.543030 
# 
# From -- ./inp_files/25231.got.cif
#   From: 2010.05.17/outbox.cif.g08.bks.cpg/sg65_13_cif.got.tgz:25231.got - 2010.06.03 17:01:31.
