data_PCOD9486692
_publ_section_title
;
Structure prediction by ZEFSAII (Michael W. Deem and Ramdas Pophale) SiO2 
 PCOD9486692
Probable space group: C M M M
;
_chemical_formula_sum "Si O2"
_cell_formula_units_Z 88
_cell_length_a 28.128344
_cell_length_b 8.427276
_cell_length_c 21.947430
_cell_angle_alpha 90.000000
_cell_angle_beta 90.000000
_cell_angle_gamma 90.000000
_cell_volume 5202.535530
_symmetry_space_group_name_H-M "C M M M"
_symmetry_group_IT_number 65
_symmetry_cell_setting 'orthorhombic'
loop_
_space_group_symop_operation_xyz
x,y,z
-x,-y,z
x,-y,-z
-x,y,-z
-x,-y,-z
x,y,-z
-x,y,z
x,-y,z
1/2+x,1/2+y,z
1/2-x,1/2-y,z
1/2+x,1/2-y,-z
1/2-x,1/2+y,-z
1/2-x,1/2-y,-z
1/2+x,1/2+y,-z
1/2-x,1/2+y,z
1/2+x,1/2-y,z
loop_
_atom_site_type_symbol
_atom_site_label
_atom_site_fract_x
_atom_site_fract_y
_atom_site_fract_z
Si Si1 0.303987 0.692001 0.932330
Si Si2 0.446712 0.692022 0.255518
Si Si3 0.555205 0.309686 0.500000
Si Si4 0.352822 0.693302 0.809494
Si Si5 0.697166 0.690225 0.315506
Si Si6 0.103307 0.688891 0.623201
O O1 0.304002 0.500000 0.931298
O O2 0.250000 0.750000 0.925103
O O3 0.334326 0.749258 0.874732
O O4 0.320537 0.742153 0.000000
O O5 0.500000 0.746862 0.242122
O O6 0.446644 0.500000 0.256050
O O7 0.406041 0.744006 0.208267
O O8 0.429568 0.748039 0.321751
O O9 0.554848 0.500000 0.500000
O O10 0.500000 0.254881 0.500000
O O11 0.582424 0.250974 0.559956
O O12 0.352343 0.500000 0.810475
O O13 0.319208 0.741570 0.752802
O O14 0.696416 0.500000 0.316922
O O15 0.750000 0.750000 0.328643
O O16 0.656527 0.752098 0.361117
O O17 0.102953 0.500000 0.623381
#
# Coordination Sequence:
#
# PCOD9486692 Si02
#       6
#    16  16   8  16  16  16
#     4   9  16  26  41  62  90 122 155 193 237 284
#     4   9  17  31  50  69  92 124 160 198 242 290
#     4  11  23  39  58  77 100 131 163 195 237 287
#     4   8  15  27  44  67  93 123 159 197 237 284
#     4  10  19  33  52  73  99 130 164 200 240 286
#     4  11  22  35  52  76 103 128 158 197 240 284
#
# _framework density 16.914829000000001
#
# number of rings (size 3 to 8) (size 9 to 14) (size 15 to 20)
#    0.000    2.455    0.000    4.636    0.000    3.273 
#    0.000    4.091    0.000    0.545    0.000    3.818 
#    0.000    0.000    0.000   11.091    0.000   12.000 
#
# Total GULP energy -245385.246274 kJ/mol
# GULP energy per Si atom -5576.937415 kJ/mol
# Density = 1.687633 g / cm^3
# Si number density = 16.914829 Si / 1000 Ang^3
#
#
#
# Elastic Constant Matrix: (Units=GPa)
#
#
# Indices 1 2 3 4 5 6 
#
# 1 150.8746 22.3153 91.6143 0.0000 0.0000 0.0000
# 2 22.3153 23.8102 16.8751 0.0000 0.0000 0.0000
# 3 91.6143 16.8751 156.9076 0.0000 0.0000 0.0000
# 4 0.0000 0.0000 0.0000 4.8930 0.0000 0.0000
# 5 0.0000 0.0000 0.0000 0.0000 17.4676 0.0000
# 6 0.0000 0.0000 0.0000 0.0000 0.0000 22.1011
#
#
#
# Elastic Compliance Matrix: (Units=1/GPa)
#
#
# Indices 1 2 3 4 5 6 
#
# 1 0.011071 -0.006273 -0.005790 0.000000 0.000000 0.000000
# 2 -0.006273 0.049018 -0.001609 0.000000 0.000000 0.000000
# 3 -0.005790 -0.001609 0.009927 0.000000 0.000000 0.000000
# 4 0.000000 0.000000 0.000000 0.204372 0.000000 0.000000
# 5 0.000000 0.000000 0.000000 0.000000 0.057249 0.000000
# 6 0.000000 0.000000 0.000000 0.000000 0.000000 0.045247
#
#
# Mechanical properties :
#
#
# Convention : Reuss Voigt Hill
#
# Bulk Modulus (GPa) = 23.43415 65.91129 44.67272
# Shear Modulus (GPa) = 11.94879 22.27819 17.11349
#
# Velocity S-wave (km/s) = 2.66072 3.63310 3.18424
# Velocity P-wave (km/s) = 4.82944 7.52664 6.32352
#
# Compressibility (1/GPa) = 0.04267277
#
# Stress axis : x y z
#
# Youngs Moduli (GPa) = 90.32240 20.40053 100.73847
#
# Poissons Ratio (x) = 0.12797 0.58324
# Poissons Ratio (y) = 0.56659 0.16211
# Poissons Ratio (z) = 0.52294 0.03283
#
# Static dielectric constant tensor:
#      x y z
#    x 1.566010 0.000000 0.000000 
#    y 0.000000 1.577080 0.000000 
#    z 0.000000 0.000000 1.565200 
# 
# From -- ./inp_files/60710.got.cif
#   From: 2010.05.17/outbox.cif.g08.bks.cpg/sg65_31_cif.got.tgz:60710.got - 2010.06.03 17:01:31.
