data_PCOD9486038
_publ_section_title
;
Structure prediction by ZEFSAII (Michael W. Deem and Ramdas Pophale) SiO2 
 PCOD9486038
Probable space group: C M M M
;
_chemical_formula_sum "Si O2"
_cell_formula_units_Z 76
_cell_length_a 10.911476
_cell_length_b 34.164881
_cell_length_c 11.467170
_cell_angle_alpha 90.000000
_cell_angle_beta 90.000000
_cell_angle_gamma 90.000000
_cell_volume 4274.838037
_symmetry_space_group_name_H-M "C M M M"
_symmetry_group_IT_number 65
_symmetry_cell_setting 'orthorhombic'
loop_
_space_group_symop_operation_xyz
x,y,z
-x,-y,z
x,-y,-z
-x,y,-z
-x,-y,-z
x,y,-z
-x,y,z
x,-y,z
1/2+x,1/2+y,z
1/2-x,1/2-y,z
1/2+x,1/2-y,-z
1/2-x,1/2+y,-z
1/2-x,1/2-y,-z
1/2+x,1/2+y,-z
1/2-x,1/2+y,z
1/2+x,1/2-y,z
loop_
_atom_site_type_symbol
_atom_site_label
_atom_site_fract_x
_atom_site_fract_y
_atom_site_fract_z
Si Si1 0.000000 0.953967 0.860007
Si Si2 0.862099 0.086921 0.500000
Si Si3 0.246177 0.080870 0.753733
Si Si4 0.139593 0.500000 0.279458
Si Si5 0.000000 0.714541 0.858160
Si Si6 0.233281 0.336944 0.859391
Si Si7 0.000000 0.805398 0.141986
Si Si8 0.686313 0.500000 0.500000
O O1 0.117362 0.932386 0.808929
O O2 0.000000 0.000000 0.825302
O O3 0.000000 0.952136 0.000000
O O4 0.783712 0.092529 0.381284
O O5 0.000000 0.105070 0.500000
O O6 0.881755 0.040338 0.500000
O O7 0.294411 0.119518 0.815959
O O8 0.329752 0.042336 0.775696
O O9 0.229067 0.500000 0.388156
O O10 0.000000 0.500000 0.315197
O O11 0.875324 0.692400 0.821349
O O12 0.000000 0.759869 0.822710
O O13 0.000000 0.714257 0.000000
O O14 0.371426 0.325028 0.820179
O O15 0.234967 0.336308 0.000000
O O16 0.000000 0.806864 0.000000
#
# Coordination Sequence:
#
# PCOD9486038 Si02
#       8
#     8   8  16   8   8  16   8   4
#     4  11  21  34  51  72 101 136 174 217 264 313
#     4  10  19  31  53  78 104 129 170 229 275 304
#     4  11  21  35  53  78 104 140 179 219 264 310
#     4  10  21  34  50  69 102 143 183 224 255 297
#     4   9  18  33  54  80 109 140 173 215 268 324
#     4  10  20  33  53  80 111 142 174 217 265 323
#     4   9  17  32  54  81 107 134 172 219 273 322
#     4   8  18  32  52  72  90 129 179 228 278 304
#
# _framework density 17.778452000000001
#
# number of rings (size 3 to 8) (size 9 to 14) (size 15 to 20)
#    0.000    2.000    2.105    2.211    1.474    3.368 
#    0.000    0.000    0.000    2.526    0.000    4.421 
#    0.000    0.000    0.000    0.000    0.000    0.000 
#
# Total GULP energy -211648.818736 kJ/mol
# GULP energy per Si atom -5569.705756 kJ/mol
# Density = 1.773799 g / cm^3
# Si number density = 17.778452 Si / 1000 Ang^3
#
#
#
# Elastic Constant Matrix: (Units=GPa)
#
#
# Indices 1 2 3 4 5 6 
#
# 1 77.6486 25.9852 6.5036 0.0000 0.0000 0.0000
# 2 25.9852 108.5617 5.4285 0.0000 0.0000 0.0000
# 3 6.5036 5.4285 27.4711 0.0000 0.0000 0.0000
# 4 0.0000 0.0000 0.0000 4.7322 0.0000 0.0000
# 5 0.0000 0.0000 0.0000 0.0000 1.2456 0.0000
# 6 0.0000 0.0000 0.0000 0.0000 0.0000 9.5938
#
#
#
# Elastic Compliance Matrix: (Units=1/GPa)
#
#
# Indices 1 2 3 4 5 6 
#
# 1 0.014198 -0.003263 -0.002717 0.000000 0.000000 0.000000
# 2 -0.003263 0.010053 -0.001214 0.000000 0.000000 0.000000
# 3 -0.002717 -0.001214 0.037285 0.000000 0.000000 0.000000
# 4 0.000000 0.000000 0.000000 0.211319 0.000000 0.000000
# 5 0.000000 0.000000 0.000000 0.000000 0.802827 0.000000
# 6 0.000000 0.000000 0.000000 0.000000 0.000000 0.104234
#
#
# Mechanical properties :
#
#
# Convention : Reuss Voigt Hill
#
# Bulk Modulus (GPa) = 21.20923 32.16846 26.68885
# Shear Modulus (GPa) = 4.13217 14.83191 9.48204
#
# Velocity S-wave (km/s) = 1.52621 2.89150 2.31193
# Velocity P-wave (km/s) = 3.88090 5.41119 4.70863
#
# Compressibility (1/GPa) = 0.04714928
#
# Stress axis : x y z
#
# Youngs Moduli (GPa) = 70.43301 99.47297 26.82046
#
# Poissons Ratio (x) = 0.32454 0.07286
# Poissons Ratio (y) = 0.22979 0.03256
# Poissons Ratio (z) = 0.19134 0.12078
#
# Static dielectric constant tensor:
#      x y z
#    x 1.608060 0.000000 0.000000 
#    y 0.000000 1.625740 0.000000 
#    z 0.000000 0.000000 1.608640 
# 
# From -- ./inp_files/22984.got.cif
#   From: 2010.05.17/outbox.cif.g08.bks.cpg/sg65_12_cif.got.tgz:22984.got - 2010.06.03 17:01:31.
