data_PCOD9486734
_publ_section_title
;
Structure prediction by ZEFSAII (Michael W. Deem and Ramdas Pophale) SiO2 
 PCOD9486734
Probable space group: C M M M
;
_chemical_formula_sum "Si O2"
_cell_formula_units_Z 104
_cell_length_a 24.149196
_cell_length_b 7.899432
_cell_length_c 29.352069
_cell_angle_alpha 90.000000
_cell_angle_beta 90.000000
_cell_angle_gamma 90.000000
_cell_volume 5599.345437
_symmetry_space_group_name_H-M "C M M M"
_symmetry_group_IT_number 65
_symmetry_cell_setting 'orthorhombic'
loop_
_space_group_symop_operation_xyz
x,y,z
-x,-y,z
x,-y,-z
-x,y,-z
-x,-y,-z
x,y,-z
-x,y,z
x,-y,z
1/2+x,1/2+y,z
1/2-x,1/2-y,z
1/2+x,1/2-y,-z
1/2-x,1/2+y,-z
1/2-x,1/2-y,-z
1/2+x,1/2+y,-z
1/2-x,1/2+y,z
1/2+x,1/2-y,z
loop_
_atom_site_type_symbol
_atom_site_label
_atom_site_fract_x
_atom_site_fract_y
_atom_site_fract_z
Si Si1 0.000000 0.689788 0.218432
Si Si2 0.884871 0.301869 0.358026
Si Si3 0.000000 0.193033 0.317242
Si Si4 0.616124 0.299147 0.185663
Si Si5 0.814935 0.796334 0.000000
Si Si6 0.314652 0.704478 0.900723
Si Si7 0.064100 0.292958 0.551563
Si Si8 0.314137 0.203153 0.274718
O O1 0.000000 0.807372 0.262669
O O2 0.944126 0.718632 0.190678
O O3 0.000000 0.500000 0.237119
O O4 0.871315 0.500000 0.363522
O O5 0.895261 0.230813 0.408681
O O6 0.840799 0.230005 0.322047
O O7 0.944760 0.283838 0.334314
O O8 0.000000 0.000000 0.334011
O O9 0.608674 0.500000 0.180561
O O10 0.650196 0.233353 0.142131
O O11 0.650973 0.268126 0.231678
O O12 0.750000 0.750000 0.000000
O O13 0.835414 0.734834 0.950600
O O14 0.820401 0.000000 0.000000
O O15 0.317497 0.500000 0.900710
O O16 0.250000 0.750000 0.895597
O O17 0.077931 0.241041 0.500000
O O18 0.064522 0.500000 0.552556
O O19 0.000000 0.243517 0.560855
O O20 0.250000 0.250000 0.270698
O O21 0.319452 0.000000 0.274489
#
# Coordination Sequence:
#
# PCOD9486734 Si02
#       8
#     8  16   8  16   8  16  16  16
#     4  12  24  38  54  74 102 138 175 209 251 306
#     4  10  19  33  53  74 101 135 171 210 254 304
#     4  12  22  32  51  77 103 134 168 206 254 302
#     4  11  22  36  54  78 106 135 170 213 257 306
#     4   8  14  28  48  73 102 133 169 210 254 300
#     4   9  18  31  51  77 106 137 171 211 256 302
#     4   8  13  23  45  76 102 125 161 210 255 298
#     4  11  23  36  52  73 101 138 175 213 256 304
#
# _framework density 18.573599000000002
#
# number of rings (size 3 to 8) (size 9 to 14) (size 15 to 20)
#    0.000    2.000    2.308    3.231    0.000    3.077 
#    0.000    0.000    0.000    1.846    0.000    3.231 
#    0.000    0.000    0.000    0.000    0.000    0.154 
#
# Total GULP energy -290036.646689 kJ/mol
# GULP energy per Si atom -5577.627821 kJ/mol
# Density = 1.853133 g / cm^3
# Si number density = 18.573599 Si / 1000 Ang^3
#
#
#
# Elastic Constant Matrix: (Units=GPa)
#
#
# Indices 1 2 3 4 5 6 
#
# 1 101.7249 -3.4918 62.8711 0.0000 0.0000 0.0000
# 2 -3.4918 31.0302 2.3752 0.0000 0.0000 0.0000
# 3 62.8711 2.3752 170.4087 0.0000 0.0000 0.0000
# 4 0.0000 0.0000 0.0000 4.9374 0.0000 0.0000
# 5 0.0000 0.0000 0.0000 0.0000 44.2449 0.0000
# 6 0.0000 0.0000 0.0000 0.0000 0.0000 5.4653
#
#
#
# Elastic Compliance Matrix: (Units=1/GPa)
#
#
# Indices 1 2 3 4 5 6 
#
# 1 0.012835 0.001809 -0.004761 0.000000 0.000000 0.000000
# 2 0.001809 0.032516 -0.001121 0.000000 0.000000 0.000000
# 3 -0.004761 -0.001121 0.007640 0.000000 0.000000 0.000000
# 4 0.000000 0.000000 0.000000 0.202535 0.000000 0.000000
# 5 0.000000 0.000000 0.000000 0.000000 0.022601 0.000000
# 6 0.000000 0.000000 0.000000 0.000000 0.000000 0.182972
#
#
# Mechanical properties :
#
#
# Convention : Reuss Voigt Hill
#
# Bulk Modulus (GPa) = 22.29837 47.40807 34.85322
# Shear Modulus (GPa) = 10.32647 27.02347 18.67497
#
# Velocity S-wave (km/s) = 2.36047 3.81851 3.17434
# Velocity P-wave (km/s) = 4.41141 6.70978 5.67810
#
# Compressibility (1/GPa) = 0.04484633
#
# Stress axis : x y z
#
# Youngs Moduli (GPa) = 77.91342 30.75407 130.88625
#
# Poissons Ratio (x) = -0.05562 0.62309
# Poissons Ratio (y) = -0.14092 0.14666
# Poissons Ratio (z) = 0.37091 0.03446
#
# Static dielectric constant tensor:
#      x y z
#    x 1.598710 0.000000 0.000000 
#    y 0.000000 1.685920 0.000000 
#    z 0.000000 0.000000 1.693480 
# 
# From -- ./inp_files/75809.got.cif
#   From: 2010.05.17/outbox.cif.g08.bks.cpg/sg65_38_cif.got.tgz:75809.got - 2010.06.03 17:01:31.
