data_PCOD9486253
_publ_section_title
;
Structure prediction by ZEFSAII (Michael W. Deem and Ramdas Pophale) SiO2 
 PCOD9486253
Probable space group: C M M M
;
_chemical_formula_sum "Si O2"
_cell_formula_units_Z 64
_cell_length_a 10.944390
_cell_length_b 34.812856
_cell_length_c 7.284070
_cell_angle_alpha 90.000000
_cell_angle_beta 90.000000
_cell_angle_gamma 90.000000
_cell_volume 2775.270536
_symmetry_space_group_name_H-M "C M M M"
_symmetry_group_IT_number 65
_symmetry_cell_setting 'orthorhombic'
loop_
_space_group_symop_operation_xyz
x,y,z
-x,-y,z
x,-y,-z
-x,y,-z
-x,-y,-z
x,y,-z
-x,y,z
x,-y,z
1/2+x,1/2+y,z
1/2-x,1/2-y,z
1/2+x,1/2-y,-z
1/2-x,1/2+y,-z
1/2-x,1/2-y,-z
1/2+x,1/2+y,-z
1/2-x,1/2+y,z
1/2+x,1/2-y,z
loop_
_atom_site_type_symbol
_atom_site_label
_atom_site_fract_x
_atom_site_fract_y
_atom_site_fract_z
Si Si1 0.500000 0.454734 0.221239
Si Si2 0.856485 0.500000 0.290232
Si Si3 0.760653 0.664203 0.724528
Si Si4 0.000000 0.199226 0.723494
Si Si5 0.239864 0.578173 0.290826
Si Si6 0.000000 0.711859 0.276656
O O1 0.500000 0.500000 0.276085
O O2 0.617560 0.432074 0.290286
O O3 0.500000 0.454219 0.000000
O O4 0.803717 0.500000 0.500000
O O5 0.816469 0.460004 0.203314
O O6 0.000000 0.500000 0.301841
O O7 0.758691 0.663999 0.500000
O O8 0.627023 0.679405 0.781843
O O9 0.779835 0.620354 0.786753
O O10 0.875411 0.690405 0.780188
O O11 0.000000 0.243772 0.779440
O O12 0.000000 0.198251 0.500000
O O13 0.191332 0.579909 0.500000
O O14 0.000000 0.711379 0.500000
#
# Coordination Sequence:
#
# PCOD9486253 Si02
#       6
#     8   8  16   8  16   8
#     4  11  22  35  51  71  97 127 165 206 245 293
#     4   9  18  29  45  70  98 129 162 201 246 291
#     4   9  17  26  41  65  93 126 164 202 238 287
#     4   9  15  25  37  56  93 134 163 190 239 299
#     4  10  19  32  51  73  99 128 164 205 245 288
#     4   9  16  25  39  62  95 132 161 193 243 295
#
# _framework density 23.060815999999999
#
# number of rings (size 3 to 8) (size 9 to 14) (size 15 to 20)
#    0.000    2.500    1.250    1.875    1.750    5.500 
#    0.000    0.000    0.000    1.500    0.000    0.000 
#    0.000   16.000    0.000    0.000    0.000    0.000 
#
# Total GULP energy -178748.291491 kJ/mol
# GULP energy per Si atom -5585.884109 kJ/mol
# Density = 2.300833 g / cm^3
# Si number density = 23.060816 Si / 1000 Ang^3
#
#
#
# Elastic Constant Matrix: (Units=GPa)
#
#
# Indices 1 2 3 4 5 6 
#
# 1 137.5549 84.5082 1.6178 0.0000 0.0000 0.0000
# 2 84.5082 241.5534 13.4329 0.0000 0.0000 0.0000
# 3 1.6178 13.4329 105.2155 0.0000 0.0000 0.0000
# 4 0.0000 0.0000 0.0000 -19.2835 0.0000 0.0000
# 5 0.0000 0.0000 0.0000 0.0000 99.9982 0.0000
# 6 0.0000 0.0000 0.0000 0.0000 0.0000 -56.1024
#
#
#
# Elastic Compliance Matrix: (Units=1/GPa)
#
#
# Indices 1 2 3 4 5 6 
#
# 1 0.009268 -0.003258 0.000273 0.000000 0.000000 0.000000
# 2 -0.003258 0.005315 -0.000628 0.000000 0.000000 0.000000
# 3 0.000273 -0.000628 0.009580 0.000000 0.000000 0.000000
# 4 0.000000 0.000000 0.000000 -0.051858 0.000000 0.000000
# 5 0.000000 0.000000 0.000000 0.000000 0.010000 0.000000
# 6 0.000000 0.000000 0.000000 0.000000 0.000000 -0.017825
#
#
# Mechanical properties :
#
#
# Convention : Reuss Voigt Hill
#
# Bulk Modulus (GPa) = 59.04057 75.93797 67.48927
# Shear Modulus (GPa) = -220.76646 30.57346 -95.09650
#
# Velocity S-wave (km/s) = -9.79490 3.64507 -6.42859
# Velocity P-wave (km/s) = 10.11249 7.12154 5.07672
#
# Compressibility (1/GPa) = 0.01693751
#
# Stress axis : x y z
#
# Youngs Moduli (GPa) = 107.89853 188.16402 104.38052
#
# Poissons Ratio (x) = 0.61297 -0.02854
# Poissons Ratio (y) = 0.35149 0.06559
# Poissons Ratio (z) = -0.02950 0.11825
#
# Static dielectric constant tensor:
#      x y z
#    x 1.941300 0.000000 0.000000 
#    y 0.000000 1.845290 0.000000 
#    z 0.000000 0.000000 1.871160 
# 
# From -- ./inp_files/4992.got.cif
#   From: 2010.05.17/outbox.cif.g08.bks.cpg/sg65_3_cif.got.tgz:4992.got - 2010.06.03 17:01:31.
