data_PCOD9486858
_publ_section_title
;
Structure prediction by ZEFSAII (Michael W. Deem and Ramdas Pophale) SiO2 
 PCOD9486858
Probable space group: C M M M
;
_chemical_formula_sum "Si O2"
_cell_formula_units_Z 104
_cell_length_a 35.295444
_cell_length_b 8.438508
_cell_length_c 18.890517
_cell_angle_alpha 90.000000
_cell_angle_beta 90.000000
_cell_angle_gamma 90.000000
_cell_volume 5626.368331
_symmetry_space_group_name_H-M "C M M M"
_symmetry_group_IT_number 65
_symmetry_cell_setting 'orthorhombic'
loop_
_space_group_symop_operation_xyz
x,y,z
-x,-y,z
x,-y,-z
-x,y,-z
-x,-y,-z
x,y,-z
-x,y,z
x,-y,z
1/2+x,1/2+y,z
1/2-x,1/2-y,z
1/2+x,1/2-y,-z
1/2-x,1/2+y,-z
1/2-x,1/2-y,-z
1/2+x,1/2+y,-z
1/2-x,1/2+y,z
1/2+x,1/2-y,z
loop_
_atom_site_type_symbol
_atom_site_label
_atom_site_fract_x
_atom_site_fract_y
_atom_site_fract_z
Si Si1 0.154251 0.684191 0.722973
Si Si2 0.877233 0.308714 0.421910
Si Si3 0.207067 0.811257 0.154358
Si Si4 0.541677 0.312182 0.625892
Si Si5 0.793531 0.808418 0.000000
Si Si6 0.567521 0.186067 0.228006
Si Si7 0.954641 0.310413 0.924105
O O1 0.165380 0.500000 0.717108
O O2 0.148350 0.751253 0.643506
O O3 0.182368 0.762128 0.778503
O O4 0.111885 0.691378 0.754515
O O5 0.865725 0.254125 0.500000
O O6 0.875300 0.500000 0.419489
O O7 0.921212 0.264513 0.408869
O O8 0.250000 0.750000 0.161122
O O9 0.208360 0.000000 0.151792
O O10 0.191144 0.754728 0.077027
O O11 0.500000 0.255255 0.602074
O O12 0.543506 0.500000 0.613853
O O13 0.545970 0.275787 0.709531
O O14 0.750000 0.750000 0.000000
O O15 0.794553 0.000000 0.000000
O O16 0.560954 0.252492 0.149651
O O17 0.555625 0.000000 0.230115
O O18 0.946833 0.500000 0.924391
O O19 0.000000 0.292565 0.922332
O O20 0.940860 0.245875 0.000000
#
# Coordination Sequence:
#
# PCOD9486858 Si02
#       7
#    16  16  16  16   8  16  16
#     4   9  18  32  49  74 102 126 159 201 245 296
#     4   9  19  36  56  75  97 129 167 206 248 296
#     4  10  19  33  54  77 103 134 167 202 240 286
#     4  10  20  31  45  69  99 129 162 204 253 301
#     4   8  16  30  48  72 100 130 163 196 231 276
#     4   9  17  30  47  66  91 125 167 208 247 294
#     4   8  13  22  39  63  88 116 157 209 254 286
#
# _framework density 18.484390999999999
#
# number of rings (size 3 to 8) (size 9 to 14) (size 15 to 20)
#    0.000    2.923    0.000    2.769    0.000    5.538 
#    1.385    1.538    0.000    0.923    0.000    2.154 
#    0.000    0.000    0.000    0.000    0.000    0.000 
#
# Total GULP energy -289552.909368 kJ/mol
# GULP energy per Si atom -5568.325180 kJ/mol
# Density = 1.844232 g / cm^3
# Si number density = 18.484391 Si / 1000 Ang^3
#
#
#
# Elastic Constant Matrix: (Units=GPa)
#
#
# Indices 1 2 3 4 5 6 
#
# 1 41.2774 13.4797 38.6781 0.0000 0.0000 0.0000
# 2 13.4797 12.4219 17.3753 0.0000 0.0000 0.0000
# 3 38.6781 17.3753 172.6347 0.0000 0.0000 0.0000
# 4 0.0000 0.0000 0.0000 6.0944 0.0000 0.0000
# 5 0.0000 0.0000 0.0000 0.0000 11.7496 0.0000
# 6 0.0000 0.0000 0.0000 0.0000 0.0000 18.6158
#
#
#
# Elastic Compliance Matrix: (Units=1/GPa)
#
#
# Indices 1 2 3 4 5 6 
#
# 1 0.041665 -0.037425 -0.005568 0.000000 0.000000 0.000000
# 2 -0.037425 0.127309 -0.004429 0.000000 0.000000 0.000000
# 3 -0.005568 -0.004429 0.007486 0.000000 0.000000 0.000000
# 4 0.000000 0.000000 0.000000 0.164084 0.000000 0.000000
# 5 0.000000 0.000000 0.000000 0.000000 0.085109 0.000000
# 6 0.000000 0.000000 0.000000 0.000000 0.000000 0.053718
#
#
# Mechanical properties :
#
#
# Convention : Reuss Voigt Hill
#
# Bulk Modulus (GPa) = 12.25227 40.60001 26.42614
# Shear Modulus (GPa) = 8.31365 17.74537 13.02951
#
# Velocity S-wave (km/s) = 2.12307 3.10178 2.65786
# Velocity P-wave (km/s) = 3.55707 5.90256 4.87303
#
# Compressibility (1/GPa) = 0.08161750
#
# Stress axis : x y z
#
# Youngs Moduli (GPa) = 24.00068 7.85488 133.58550
#
# Poissons Ratio (x) = 0.29397 0.74384
# Poissons Ratio (y) = 0.89822 0.59158
# Poissons Ratio (z) = 0.13364 0.03479
#
# Static dielectric constant tensor:
#      x y z
#    x 1.583830 0.000000 0.000000 
#    y 0.000000 1.645040 0.000000 
#    z 0.000000 0.000000 1.708940 
# 
# From -- ./inp_files/66387.got.cif
#   From: 2010.05.17/outbox.cif.g08.bks.cpg/sg65_34_cif.got.tgz:66387.got - 2010.06.03 17:01:31.
