data_PCOD9486515
_publ_section_title
;
Structure prediction by ZEFSAII (Michael W. Deem and Ramdas Pophale) SiO2 
 PCOD9486515
Probable space group: C M M M
;
_chemical_formula_sum "Si O2"
_cell_formula_units_Z 104
_cell_length_a 15.997022
_cell_length_b 18.269036
_cell_length_c 18.860856
_cell_angle_alpha 90.000000
_cell_angle_beta 90.000000
_cell_angle_gamma 90.000000
_cell_volume 5512.088388
_symmetry_space_group_name_H-M "C M M M"
_symmetry_group_IT_number 65
_symmetry_cell_setting 'orthorhombic'
loop_
_space_group_symop_operation_xyz
x,y,z
-x,-y,z
x,-y,-z
-x,y,-z
-x,-y,-z
x,y,-z
-x,y,z
x,-y,z
1/2+x,1/2+y,z
1/2-x,1/2-y,z
1/2+x,1/2-y,-z
1/2-x,1/2+y,-z
1/2-x,1/2-y,-z
1/2+x,1/2+y,-z
1/2-x,1/2+y,z
1/2+x,1/2-y,z
loop_
_atom_site_type_symbol
_atom_site_label
_atom_site_fract_x
_atom_site_fract_y
_atom_site_fract_z
Si Si1 0.402365 0.209363 0.579011
Si Si2 0.899157 0.153184 0.148918
Si Si3 0.102259 0.000000 0.082670
Si Si4 0.195633 0.584876 0.651536
Si Si5 0.825661 0.807225 0.300548
Si Si6 0.897763 0.697034 0.920897
Si Si7 0.900405 0.415986 0.199312
O O1 0.381907 0.237104 0.500000
O O2 0.500000 0.191881 0.581917
O O3 0.350126 0.136466 0.595329
O O4 0.381050 0.266965 0.640492
O O5 0.869213 0.074202 0.121580
O O6 0.870730 0.173057 0.227872
O O7 0.872375 0.220461 0.098830
O O8 0.000000 0.151516 0.147314
O O9 0.000000 0.000000 0.084158
O O10 0.126459 0.000000 0.000000
O O11 0.197333 0.500000 0.632534
O O12 0.285482 0.619941 0.666580
O O13 0.145336 0.593164 0.725886
O O14 0.750000 0.750000 0.286023
O O15 0.870322 0.641264 0.859590
O O16 0.000000 0.694979 0.920569
O O17 0.870205 0.677028 0.000000
O O18 0.888219 0.500000 0.175523
O O19 0.000000 0.404936 0.210135
#
# Coordination Sequence:
#
# PCOD9486515 Si02
#       7
#    16  16   8  16  16  16  16
#     4  10  21  38  60  84 111 141 177 224 272 320
#     4  10  19  32  53  78 103 137 181 232 276 318
#     4   9  18  32  52  80 107 133 176 235 289 321
#     4  10  21  35  54  81 111 145 178 218 268 324
#     4  10  21  35  55  81 108 146 183 217 264 323
#     4   9  16  26  44  71 100 130 171 225 279 323
#     4   9  17  30  49  73 102 138 180 226 270 316
#
# _framework density 18.867622000000001
#
# number of rings (size 3 to 8) (size 9 to 14) (size 15 to 20)
#    0.000    2.385    0.000    3.231    1.077    7.385 
#    0.000    2.308    0.000    8.308    0.000    1.077 
#    0.000    0.000    0.000    0.000    0.000    0.000 
#
# Total GULP energy -290276.884628 kJ/mol
# GULP energy per Si atom -5582.247781 kJ/mol
# Density = 1.882468 g / cm^3
# Si number density = 18.867622 Si / 1000 Ang^3
#
#
#
# Elastic Constant Matrix: (Units=GPa)
#
#
# Indices 1 2 3 4 5 6 
#
# 1 4.3566 -0.0363 -5.3213 0.0000 0.0000 0.0000
# 2 -0.0363 66.6958 16.6310 0.0000 0.0000 0.0000
# 3 -5.3213 16.6310 67.5215 0.0000 0.0000 0.0000
# 4 0.0000 0.0000 0.0000 15.5125 0.0000 0.0000
# 5 0.0000 0.0000 0.0000 0.0000 -11.3510 0.0000
# 6 0.0000 0.0000 0.0000 0.0000 0.0000 5.1293
#
#
#
# Elastic Compliance Matrix: (Units=1/GPa)
#
#
# Indices 1 2 3 4 5 6 
#
# 1 0.255668 -0.005205 0.021431 0.000000 0.000000 0.000000
# 2 -0.005205 0.016081 -0.004371 0.000000 0.000000 0.000000
# 3 0.021431 -0.004371 0.017576 0.000000 0.000000 0.000000
# 4 0.000000 0.000000 0.000000 0.064464 0.000000 0.000000
# 5 0.000000 0.000000 0.000000 0.000000 -0.088098 0.000000
# 6 0.000000 0.000000 0.000000 0.000000 0.000000 0.194958
#
#
# Mechanical properties :
#
#
# Convention : Reuss Voigt Hill
#
# Bulk Modulus (GPa) = 3.19454 17.90231 10.54842
# Shear Modulus (GPa) = 9.23733 10.34486 9.79110
#
# Velocity S-wave (km/s) = 2.21506 2.34409 2.28049
# Velocity P-wave (km/s) = 2.87033 4.10309 3.54077
#
# Compressibility (1/GPa) = 0.31303398
#
# Stress axis : x y z
#
# Youngs Moduli (GPa) = 3.91133 62.18700 56.89687
#
# Poissons Ratio (x) = 0.32368 -1.21936
# Poissons Ratio (y) = 0.02036 0.24869
# Poissons Ratio (z) = -0.08382 0.27182
#
# Static dielectric constant tensor:
#      x y z
#    x 1.669450 0.000000 0.000000 
#    y 0.000000 1.653600 0.000000 
#    z 0.000000 0.000000 1.638840 
# 
# From -- ./inp_files/54618.got.cif
#   From: 2010.05.17/outbox.cif.g08.bks.cpg/sg65_28_cif.got.tgz:54618.got - 2010.06.03 17:01:31.
