data_PCOD9486107
_publ_section_title
;
Structure prediction by ZEFSAII (Michael W. Deem and Ramdas Pophale) SiO2 
 PCOD9486107
Probable space group: C M M M
;
_chemical_formula_sum "Si O2"
_cell_formula_units_Z 80
_cell_length_a 18.836458
_cell_length_b 16.101472
_cell_length_c 14.229681
_cell_angle_alpha 90.000000
_cell_angle_beta 90.000000
_cell_angle_gamma 90.000000
_cell_volume 4315.786845
_symmetry_space_group_name_H-M "C M M M"
_symmetry_group_IT_number 65
_symmetry_cell_setting 'orthorhombic'
loop_
_space_group_symop_operation_xyz
x,y,z
-x,-y,z
x,-y,-z
-x,y,-z
-x,-y,-z
x,y,-z
-x,y,z
x,-y,z
1/2+x,1/2+y,z
1/2-x,1/2-y,z
1/2+x,1/2-y,-z
1/2-x,1/2+y,-z
1/2-x,1/2-y,-z
1/2+x,1/2+y,-z
1/2-x,1/2+y,z
1/2+x,1/2-y,z
loop_
_atom_site_type_symbol
_atom_site_label
_atom_site_fract_x
_atom_site_fract_y
_atom_site_fract_z
Si Si1 0.783246 0.597401 0.298233
Si Si2 0.078056 0.902478 0.201852
Si Si3 0.082187 0.337778 0.391767
Si Si4 0.644116 0.348579 0.393522
Si Si5 0.280118 0.601493 0.104564
O O1 0.764047 0.500000 0.305060
O O2 0.863272 0.610373 0.330137
O O3 0.726884 0.645246 0.364325
O O4 0.770629 0.625185 0.190844
O O5 0.102625 0.894746 0.310040
O O6 0.141515 0.869295 0.137014
O O7 0.000000 0.865036 0.188793
O O8 0.073565 0.000000 0.180078
O O9 0.085113 0.366898 0.500000
O O10 0.113152 0.244335 0.390669
O O11 0.000000 0.338671 0.361972
O O12 0.634772 0.380338 0.500000
O O13 0.280772 0.500000 0.102570
O O14 0.261996 0.630198 0.000000
#
# Coordination Sequence:
#
# PCOD9486107 Si02
#       5
#    16  16  16  16  16
#     4  10  20  33  52  77 100 125 162 207 250 288
#     4   9  17  27  42  69 100 129 164 204 245 286
#     4  10  21  35  51  72  99 134 170 199 235 288
#     4  10  19  32  49  69  97 133 168 198 235 288
#     4   8  15  29  48  69  93 122 158 201 247 293
#
# _framework density 18.536598000000001
#
# number of rings (size 3 to 8) (size 9 to 14) (size 15 to 20)
#    0.000    2.600    0.000    3.600    0.000    6.400 
#    0.000    4.000    0.000   10.200    0.000    2.800 
#    0.000    0.000    0.000    0.000    0.000    0.000 
#
# Total GULP energy -222923.262632 kJ/mol
# GULP energy per Si atom -5573.081566 kJ/mol
# Density = 1.849441 g / cm^3
# Si number density = 18.536598 Si / 1000 Ang^3
#
#
#
# Elastic Constant Matrix: (Units=GPa)
#
#
# Indices 1 2 3 4 5 6 
#
# 1 130.8986 10.2595 49.9451 0.0000 0.0000 0.0000
# 2 10.2595 6.8505 3.9656 0.0000 0.0000 0.0000
# 3 49.9451 3.9656 88.1943 0.0000 0.0000 0.0000
# 4 0.0000 0.0000 0.0000 37.4208 0.0000 0.0000
# 5 0.0000 0.0000 0.0000 0.0000 13.3222 0.0000
# 6 0.0000 0.0000 0.0000 0.0000 0.0000 21.2729
#
#
#
# Elastic Compliance Matrix: (Units=1/GPa)
#
#
# Indices 1 2 3 4 5 6 
#
# 1 0.010754 -0.012916 -0.005509 0.000000 0.000000 0.000000
# 2 -0.012916 0.165389 -0.000122 0.000000 0.000000 0.000000
# 3 -0.005509 -0.000122 0.014464 0.000000 0.000000 0.000000
# 4 0.000000 0.000000 0.000000 0.026723 0.000000 0.000000
# 5 0.000000 0.000000 0.000000 0.000000 0.075063 0.000000
# 6 0.000000 0.000000 0.000000 0.000000 0.000000 0.047008
#
#
# Mechanical properties :
#
#
# Convention : Reuss Voigt Hill
#
# Bulk Modulus (GPa) = 6.51413 39.36485 22.93949
# Shear Modulus (GPa) = 11.69133 25.18805 18.43969
#
# Velocity S-wave (km/s) = 2.51413 3.69023 3.15742
# Velocity P-wave (km/s) = 3.45682 6.28008 5.06898
#
# Compressibility (1/GPa) = 0.15351244
#
# Stress axis : x y z
#
# Youngs Moduli (GPa) = 92.98918 6.04633 69.13704
#
# Poissons Ratio (x) = 0.07810 0.38089
# Poissons Ratio (y) = 1.20107 0.00843
# Poissons Ratio (z) = 0.51230 0.00074
#
# Static dielectric constant tensor:
#      x y z
#    x 1.655920 0.000000 0.000000 
#    y 0.000000 1.671140 0.000000 
#    z 0.000000 0.000000 1.640650 
# 
# From -- ./inp_files/42323.got.cif
#   From: 2010.05.17/outbox.cif.g08.bks.cpg/sg65_22_cif.got.tgz:42323.got - 2010.06.03 17:01:31.
