data_PCOD9486053
_publ_section_title
;
Structure prediction by ZEFSAII (Michael W. Deem and Ramdas Pophale) SiO2 
 PCOD9486053
Probable space group: C M M M
;
_chemical_formula_sum "Si O2"
_cell_formula_units_Z 72
_cell_length_a 14.312157
_cell_length_b 14.700432
_cell_length_c 15.866354
_cell_angle_alpha 90.000000
_cell_angle_beta 90.000000
_cell_angle_gamma 90.000000
_cell_volume 3338.199816
_symmetry_space_group_name_H-M "C M M M"
_symmetry_group_IT_number 65
_symmetry_cell_setting 'orthorhombic'
loop_
_space_group_symop_operation_xyz
x,y,z
-x,-y,z
x,-y,-z
-x,y,-z
-x,-y,-z
x,y,-z
-x,y,z
x,-y,z
1/2+x,1/2+y,z
1/2-x,1/2-y,z
1/2+x,1/2-y,-z
1/2-x,1/2+y,-z
1/2-x,1/2-y,-z
1/2+x,1/2+y,-z
1/2-x,1/2+y,z
1/2+x,1/2-y,z
loop_
_atom_site_type_symbol
_atom_site_label
_atom_site_fract_x
_atom_site_fract_y
_atom_site_fract_z
Si Si1 0.806900 0.500000 0.375483
Si Si2 0.113182 0.500000 0.188220
Si Si3 0.886190 0.000000 0.325311
Si Si4 0.894185 0.812114 0.242404
Si Si5 0.852823 0.294759 0.409098
Si Si6 0.885766 0.687388 0.904160
O O1 0.833770 0.500000 0.276593
O O2 0.695217 0.500000 0.395480
O O3 0.847441 0.403932 0.406634
O O4 0.137349 0.589502 0.134987
O O5 0.000000 0.500000 0.203402
O O6 0.859894 0.091002 0.274366
O O7 0.000000 0.000000 0.344730
O O8 0.894811 0.744318 0.322747
O O9 0.851840 0.763628 0.161498
O O10 0.000000 0.831805 0.218277
O O11 0.894621 0.267322 0.500000
O O12 0.750000 0.250000 0.407772
O O13 0.000000 0.690290 0.905173
O O14 0.853986 0.698102 0.000000
#
# Coordination Sequence:
#
# PCOD9486053 Si02
#       6
#     8   8   8  16  16  16
#     4  12  21  37  64  87 120 158 193 243 300 352
#     4  10  19  31  55  90 124 157 191 232 291 359
#     4  10  22  39  61  85 112 156 206 249 291 345
#     4  10  20  38  60  85 117 155 200 245 293 350
#     4  11  23  38  58  84 116 155 195 239 297 353
#     4   9  17  31  55  86 120 157 193 234 289 351
#
# _framework density 21.568508999999999
#
# number of rings (size 3 to 8) (size 9 to 14) (size 15 to 20)
#    0.000    1.778    4.444    0.667    0.000    1.778 
#    0.000    1.111    0.000   16.000    0.000    0.000 
#    0.000    0.000    0.000    0.000    0.000    0.000 
#
# Total GULP energy -200737.164936 kJ/mol
# GULP energy per Si atom -5576.032359 kJ/mol
# Density = 2.151942 g / cm^3
# Si number density = 21.568509 Si / 1000 Ang^3
#
#
#
# Elastic Constant Matrix: (Units=GPa)
#
#
# Indices 1 2 3 4 5 6 
#
# 1 59.4472 -3.5483 3.1318 0.0000 0.0000 0.0000
# 2 -3.5483 142.8603 34.7526 0.0000 0.0000 0.0000
# 3 3.1318 34.7526 151.4855 0.0000 0.0000 0.0000
# 4 0.0000 0.0000 0.0000 2.2566 0.0000 0.0000
# 5 0.0000 0.0000 0.0000 0.0000 -6.9311 0.0000
# 6 0.0000 0.0000 0.0000 0.0000 0.0000**********
#
#
#
# Elastic Compliance Matrix: (Units=1/GPa)
#
#
# Indices 1 2 3 4 5 6 
#
# 1 0.016878 0.000534 -0.000471 0.000000 0.000000 0.000000
# 2 0.000534 0.007430 -0.001716 0.000000 0.000000 0.000000
# 3 -0.000471 -0.001716 0.007005 0.000000 0.000000 0.000000
# 4 0.000000 0.000000 0.000000 0.443139 0.000000 0.000000
# 5 0.000000 0.000000 0.000000 0.000000 -0.144277 0.000000
# 6 0.000000 0.000000 0.000000 0.000000 0.000000 -0.000046
#
#
# Mechanical properties :
#
#
# Convention : Reuss Voigt Hill
#
# Bulk Modulus (GPa) = 35.70534 46.94060 41.32297
# Shear Modulus (GPa) = 14.58697 -4309.84476 -2147.62890
#
# Velocity S-wave (km/s) = 2.60341 -44.74986 -31.58933
# Velocity P-wave (km/s) = 5.06235 51.46120 36.21207
#
# Compressibility (1/GPa) = 0.02800702
#
# Stress axis : x y z
#
# Youngs Moduli (GPa) = 59.24753 134.58110 142.76259
#
# Poissons Ratio (x) = -0.07185 0.06730
# Poissons Ratio (y) = -0.03163 0.24493
# Poissons Ratio (z) = 0.02793 0.23090
#
# Static dielectric constant tensor:
#      x y z
#    x 1.841430 0.000000 0.000000 
#    y 0.000000 1.784030 0.000000 
#    z 0.000000 0.000000 1.786220 
# 
# From -- ./inp_files/39838.got.cif
#   From: 2010.05.17/outbox.cif.g08.bks.cpg/sg65_20_cif.got.tgz:39838.got - 2010.06.03 17:01:31.
