data_PCOD9486836
_publ_section_title
;
Structure prediction by ZEFSAII (Michael W. Deem and Ramdas Pophale) SiO2 
 PCOD9486836
Probable space group: C M M M
;
_chemical_formula_sum "Si O2"
_cell_formula_units_Z 88
_cell_length_a 14.267279
_cell_length_b 14.911954
_cell_length_c 19.261617
_cell_angle_alpha 90.000000
_cell_angle_beta 90.000000
_cell_angle_gamma 90.000000
_cell_volume 4097.966959
_symmetry_space_group_name_H-M "C M M M"
_symmetry_group_IT_number 65
_symmetry_cell_setting 'orthorhombic'
loop_
_space_group_symop_operation_xyz
x,y,z
-x,-y,z
x,-y,-z
-x,y,-z
-x,-y,-z
x,y,-z
-x,y,z
x,-y,z
1/2+x,1/2+y,z
1/2-x,1/2-y,z
1/2+x,1/2-y,-z
1/2-x,1/2+y,-z
1/2-x,1/2-y,-z
1/2+x,1/2+y,-z
1/2-x,1/2+y,z
1/2+x,1/2-y,z
loop_
_atom_site_type_symbol
_atom_site_label
_atom_site_fract_x
_atom_site_fract_y
_atom_site_fract_z
Si Si1 0.604932 0.108038 0.297912
Si Si2 0.729755 0.853841 0.577238
Si Si3 0.895981 0.109943 0.837091
Si Si4 0.500000 0.109420 0.080699
Si Si5 0.691571 0.109756 0.844489
Si Si6 0.600011 0.605887 0.322334
O O1 0.500000 0.140253 0.283572
O O2 0.640099 0.133911 0.373795
O O3 0.673816 0.136061 0.235891
O O4 0.603847 0.000000 0.295672
O O5 0.722715 0.893726 0.500000
O O6 0.750000 0.750000 0.569357
O O7 0.816453 0.884920 0.624116
O O8 0.795550 0.138643 0.868836
O O9 0.889220 0.140360 0.756271
O O10 0.000000 0.137995 0.863084
O O11 0.896369 0.000000 0.839787
O O12 0.402202 0.139730 0.115456
O O13 0.500000 0.000000 0.087059
O O14 0.500000 0.132332 0.000000
O O15 0.691780 0.000000 0.847263
O O16 0.500000 0.639857 0.350394
O O17 0.593109 0.500000 0.311602
#
# Coordination Sequence:
#
# PCOD9486836 Si02
#       6
#    16  16  16   8  16  16
#     4  10  19  33  54  75  93 123 171 219 257 298
#     4  11  24  37  47  64  96 135 166 201 259 319
#     4   8  13  22  41  68  90 111 150 204 252 286
#     4   9  16  24  38  68 107 139 161 187 241 312
#     4   9  14  24  44  68  95 127 160 199 247 295
#     4   9  17  31  52  73  89 112 157 214 257 293
#
# _framework density 21.474062
#
# number of rings (size 3 to 8) (size 9 to 14) (size 15 to 20)
#    0.000    2.636    2.727    1.636    0.000    2.909 
#    0.000    3.636    0.000    0.545    0.000    3.818 
#    0.000    0.727    0.000    0.000    0.000    0.000 
#
# Total GULP energy -245153.515076 kJ/mol
# GULP energy per Si atom -5571.670797 kJ/mol
# Density = 2.142519 g / cm^3
# Si number density = 21.474062 Si / 1000 Ang^3
#
#
#
# Elastic Constant Matrix: (Units=GPa)
#
#
# Indices 1 2 3 4 5 6 
#
# 1 199.4757 6.2815 40.4893 0.0000 0.0000 0.0000
# 2 6.2815 30.2399 -3.3219 0.0000 0.0000 0.0000
# 3 40.4893 -3.3219 56.2346 0.0000 0.0000 0.0000
# 4 0.0000 0.0000 0.0000 12.8916 0.0000 0.0000
# 5 0.0000 0.0000 0.0000 0.0000 18.1365 0.0000
# 6 0.0000 0.0000 0.0000 0.0000 0.0000 -33.7723
#
#
#
# Elastic Compliance Matrix: (Units=1/GPa)
#
#
# Indices 1 2 3 4 5 6 
#
# 1 0.005959 -0.001720 -0.004392 0.000000 0.000000 0.000000
# 2 -0.001720 0.033781 0.003234 0.000000 0.000000 0.000000
# 3 -0.004392 0.003234 0.021136 0.000000 0.000000 0.000000
# 4 0.000000 0.000000 0.000000 0.077570 0.000000 0.000000
# 5 0.000000 0.000000 0.000000 0.000000 0.055137 0.000000
# 6 0.000000 0.000000 0.000000 0.000000 0.000000 -0.029610
#
#
# Mechanical properties :
#
#
# Convention : Reuss Voigt Hill
#
# Bulk Modulus (GPa) = 18.14222 41.42756 29.78489
# Shear Modulus (GPa) = 26.58121 15.61792 21.09956
#
# Velocity S-wave (km/s) = 3.52210 2.69976 3.13798
# Velocity P-wave (km/s) = 5.00070 5.39000 5.19899
#
# Compressibility (1/GPa) = 0.05512005
#
# Stress axis : x y z
#
# Youngs Moduli (GPa) = 167.81925 29.60201 47.31274
#
# Poissons Ratio (x) = 0.05092 0.20780
# Poissons Ratio (y) = 0.28869 -0.15302
# Poissons Ratio (z) = 0.73706 -0.09574
#
# Static dielectric constant tensor:
#      x y z
#    x 1.798500 0.000000 0.000000 
#    y 0.000000 1.813280 0.000000 
#    z 0.000000 0.000000 1.773070 
# 
# From -- ./inp_files/53019.got.cif
#   From: 2010.05.17/outbox.cif.g08.bks.cpg/sg65_27_cif.got.tgz:53019.got - 2010.06.03 17:01:31.
