data_PCOD9486043
_publ_section_title
;
Structure prediction by ZEFSAII (Michael W. Deem and Ramdas Pophale) SiO2 
 PCOD9486043
Probable space group: C M M M
;
_chemical_formula_sum "Si O2"
_cell_formula_units_Z 120
_cell_length_a 20.199090
_cell_length_b 20.275809
_cell_length_c 15.319108
_cell_angle_alpha 90.000000
_cell_angle_beta 90.000000
_cell_angle_gamma 90.000000
_cell_volume 6273.984966
_symmetry_space_group_name_H-M "C M M M"
_symmetry_group_IT_number 65
_symmetry_cell_setting 'orthorhombic'
loop_
_space_group_symop_operation_xyz
x,y,z
-x,-y,z
x,-y,-z
-x,y,-z
-x,-y,-z
x,y,-z
-x,y,z
x,-y,z
1/2+x,1/2+y,z
1/2-x,1/2-y,z
1/2+x,1/2-y,-z
1/2-x,1/2+y,-z
1/2-x,1/2-y,-z
1/2+x,1/2+y,-z
1/2-x,1/2+y,z
1/2+x,1/2-y,z
loop_
_atom_site_type_symbol
_atom_site_label
_atom_site_fract_x
_atom_site_fract_y
_atom_site_fract_z
Si Si1 0.076211 0.310771 0.222453
Si Si2 0.673370 0.422952 0.155383
Si Si3 0.076568 0.812292 0.902074
Si Si4 0.178019 0.426409 0.208051
Si Si5 0.780971 0.400839 0.405425
Si Si6 0.142778 0.876813 0.349634
Si Si7 0.136376 0.272042 0.600524
Si Si8 0.000000 0.926499 0.396755
O O1 0.092057 0.243405 0.169909
O O2 0.125220 0.368993 0.194148
O O3 0.086261 0.299607 0.326354
O O4 0.000000 0.326724 0.204247
O O5 0.661524 0.500000 0.134983
O O6 0.628444 0.372146 0.102069
O O7 0.752807 0.412247 0.157978
O O8 0.652069 0.405673 0.253828
O O9 0.000000 0.834438 0.886378
O O10 0.078767 0.783646 0.000000
O O11 0.155647 0.500000 0.183433
O O12 0.193161 0.427625 0.312904
O O13 0.806697 0.424739 0.500000
O O14 0.702015 0.409692 0.403934
O O15 0.803345 0.324034 0.401466
O O16 0.155125 0.799395 0.363115
O O17 0.067399 0.890063 0.373731
O O18 0.112308 0.265959 0.500000
O O19 0.000000 0.932787 0.500000
O O20 0.000000 0.000000 0.356868
#
# Coordination Sequence:
#
# PCOD9486043 Si02
#       8
#    16  16  16  16  16  16  16   8
#     4  10  21  38  59  86 116 152 189 237 293 337
#     4  10  21  37  58  83 115 151 186 231 282 335
#     4  10  22  41  64  91 117 147 189 233 279 338
#     4   9  20  37  57  84 116 150 193 237 284 344
#     4   9  18  32  51  77 106 143 192 242 285 329
#     4  11  20  33  49  70 104 149 188 227 281 325
#     4  10  19  31  53  82 110 142 189 238 285 341
#     4  11  24  34  40  62  99 143 194 230 256 313
#
# _framework density 19.126601000000001
#
# number of rings (size 3 to 8) (size 9 to 14) (size 15 to 20)
#    0.000    2.067    1.333    2.000    1.867    3.467 
#    0.000    2.000    0.000    1.200    0.000    5.600 
#    0.000    0.000    0.000    0.000    0.000    0.000 
#
# Total GULP energy -334318.700429 kJ/mol
# GULP energy per Si atom -5571.978340 kJ/mol
# Density = 1.908307 g / cm^3
# Si number density = 19.126601 Si / 1000 Ang^3
#
#
#
# Elastic Constant Matrix: (Units=GPa)
#
#
# Indices 1 2 3 4 5 6 
#
# 1 104.8114 72.1149 30.1945 0.0000 0.0000 0.0000
# 2 72.1149 104.5744 9.2603 0.0000 0.0000 0.0000
# 3 30.1945 9.2603 60.2433 0.0000 0.0000 0.0000
# 4 0.0000 0.0000 0.0000 19.9724 0.0000 0.0000
# 5 0.0000 0.0000 0.0000 0.0000 15.0030 0.0000
# 6 0.0000 0.0000 0.0000 0.0000 0.0000 15.8733
#
#
#
# Elastic Compliance Matrix: (Units=1/GPa)
#
#
# Indices 1 2 3 4 5 6 
#
# 1 0.021958 -0.014363 -0.008798 0.000000 0.000000 0.000000
# 2 -0.014363 0.019090 0.004265 0.000000 0.000000 0.000000
# 3 -0.008798 0.004265 0.020353 0.000000 0.000000 0.000000
# 4 0.000000 0.000000 0.000000 0.050069 0.000000 0.000000
# 5 0.000000 0.000000 0.000000 0.000000 0.066654 0.000000
# 6 0.000000 0.000000 0.000000 0.000000 0.000000 0.062999
#
#
# Mechanical properties :
#
#
# Convention : Reuss Voigt Hill
#
# Bulk Modulus (GPa) = 42.35771 54.75208 48.55490
# Shear Modulus (GPa) = 17.43465 20.70701 19.07083
#
# Velocity S-wave (km/s) = 3.02245 3.29390 3.16109
# Velocity P-wave (km/s) = 5.86296 6.56922 6.22611
#
# Compressibility (1/GPa) = 0.02360845
#
# Stress axis : x y z
#
# Youngs Moduli (GPa) = 45.54150 52.38370 49.13208
#
# Poissons Ratio (x) = 0.75240 0.43225
# Poissons Ratio (y) = 0.65412 -0.20953
# Poissons Ratio (z) = 0.40066 -0.22340
#
# Static dielectric constant tensor:
#      x y z
#    x 1.549890 0.000000 0.000000 
#    y 0.000000 1.692030 0.000000 
#    z 0.000000 0.000000 1.678730 
# 
# From -- ./inp_files/44698.got.cif
#   From: 2010.05.17/outbox.cif.g08.bks.cpg/sg65_23_cif.got.tgz:44698.got - 2010.06.03 17:01:31.
