data_PCOD9486194
_publ_section_title
;
Structure prediction by ZEFSAII (Michael W. Deem and Ramdas Pophale) SiO2 
 PCOD9486194
Probable space group: C M M M
;
_chemical_formula_sum "Si O2"
_cell_formula_units_Z 96
_cell_length_a 18.157279
_cell_length_b 16.356658
_cell_length_c 18.806935
_cell_angle_alpha 90.000000
_cell_angle_beta 90.000000
_cell_angle_gamma 90.000000
_cell_volume 5585.516815
_symmetry_space_group_name_H-M "C M M M"
_symmetry_group_IT_number 65
_symmetry_cell_setting 'orthorhombic'
loop_
_space_group_symop_operation_xyz
x,y,z
-x,-y,z
x,-y,-z
-x,y,-z
-x,-y,-z
x,y,-z
-x,y,z
x,-y,z
1/2+x,1/2+y,z
1/2-x,1/2-y,z
1/2+x,1/2-y,-z
1/2-x,1/2+y,-z
1/2-x,1/2-y,-z
1/2+x,1/2+y,-z
1/2-x,1/2+y,z
1/2+x,1/2-y,z
loop_
_atom_site_type_symbol
_atom_site_label
_atom_site_fract_x
_atom_site_fract_y
_atom_site_fract_z
Si Si1 0.583349 0.757195 0.843208
Si Si2 0.410085 0.744957 0.500000
Si Si3 0.259545 0.904377 0.000000
Si Si4 0.657611 0.906891 0.238139
Si Si5 0.916788 0.326511 0.000000
Si Si6 0.784829 0.840449 0.847689
Si Si7 0.696642 0.824840 0.615725
Si Si8 0.197804 0.904444 0.500000
O O1 0.500000 0.742390 0.824220
O O2 0.609764 0.840431 0.804900
O O3 0.632391 0.678538 0.825598
O O4 0.589918 0.774246 0.927872
O O5 0.500000 0.747600 0.500000
O O6 0.370331 0.789278 0.432357
O O7 0.374262 0.653801 0.500000
O O8 0.347380 0.886912 0.000000
O O9 0.225409 0.866504 0.928966
O O10 0.246540 0.000000 0.000000
O O11 0.737915 0.900096 0.201297
O O12 0.666118 0.875134 0.318160
O O13 0.630710 0.000000 0.233624
O O14 0.000000 0.362720 0.000000
O O15 0.750000 0.750000 0.840893
O O16 0.750000 0.750000 0.639974
O O17 0.750369 0.879214 0.566524
O O18 0.180856 0.000000 0.500000
#
# Coordination Sequence:
#
# PCOD9486194 Si02
#       8
#    16   8   8  16   8  16  16   8
#     4  10  21  35  53  74 100 137 174 209 256 314
#     4   9  19  34  54  80 107 137 174 206 246 303
#     4  12  20  31  52  77 102 131 169 219 265 303
#     4  11  21  33  53  80 105 130 168 217 261 299
#     4  10  19  32  50  73 104 137 165 204 261 316
#     4  10  19  33  53  72  99 134 174 211 252 307
#     4   9  18  34  54  76 104 142 176 205 243 301
#     4   9  17  32  56  82 107 135 170 212 254 291
#
# _framework density 17.187308000000002
#
# number of rings (size 3 to 8) (size 9 to 14) (size 15 to 20)
#    0.000    2.000    3.333    4.250    0.000    1.333 
#    0.000    1.667    0.000   11.000    0.000    0.000 
#    0.000    0.000    0.000    0.000    0.000    0.000 
#
# Total GULP energy -267507.575393 kJ/mol
# GULP energy per Si atom -5573.074487 kJ/mol
# Density = 1.714819 g / cm^3
# Si number density = 17.187308 Si / 1000 Ang^3
#
#
#
# Elastic Constant Matrix: (Units=GPa)
#
#
# Indices 1 2 3 4 5 6 
#
# 1 128.5993 29.0224 16.8968 0.0000 0.0000 0.0000
# 2 29.0224 55.9732 6.6102 0.0000 0.0000 0.0000
# 3 16.8968 6.6102 56.5739 0.0000 0.0000 0.0000
# 4 0.0000 0.0000 0.0000 49.0151 0.0000 0.0000
# 5 0.0000 0.0000 0.0000 0.0000 -5.0381 0.0000
# 6 0.0000 0.0000 0.0000 0.0000 0.0000 16.2940
#
#
#
# Elastic Compliance Matrix: (Units=1/GPa)
#
#
# Indices 1 2 3 4 5 6 
#
# 1 0.009066 -0.004442 -0.002189 0.000000 0.000000 0.000000
# 2 -0.004442 0.020292 -0.001044 0.000000 0.000000 0.000000
# 3 -0.002189 -0.001044 0.018452 0.000000 0.000000 0.000000
# 4 0.000000 0.000000 0.000000 0.020402 0.000000 0.000000
# 5 0.000000 0.000000 0.000000 0.000000 -0.198489 0.000000
# 6 0.000000 0.000000 0.000000 0.000000 0.000000 0.061372
#
#
# Mechanical properties :
#
#
# Convention : Reuss Voigt Hill
#
# Bulk Modulus (GPa) = 30.80744 38.46724 34.63734
# Shear Modulus (GPa) = -117.00417 24.62867 -46.18775
#
# Velocity S-wave (km/s) = -8.25976 3.78955 -5.18956
# Velocity P-wave (km/s) = 8.54409 6.44805 3.96385
#
# Compressibility (1/GPa) = 0.03245969
#
# Stress axis : x y z
#
# Youngs Moduli (GPa) = 110.29928 49.27949 54.19549
#
# Poissons Ratio (x) = 0.21892 0.11862
# Poissons Ratio (y) = 0.49000 0.05659
# Poissons Ratio (z) = 0.24142 0.05146
#
# Static dielectric constant tensor:
#      x y z
#    x 1.622010 0.000000 0.000000 
#    y 0.000000 1.561120 0.000000 
#    z 0.000000 0.000000 1.591460 
# 
# From -- ./inp_files/54553.got.cif
#   From: 2010.05.17/outbox.cif.g08.bks.cpg/sg65_28_cif.got.tgz:54553.got - 2010.06.03 17:01:31.
