data_PCOD9486040
_publ_section_title
;
Structure prediction by ZEFSAII (Michael W. Deem and Ramdas Pophale) SiO2 
 PCOD9486040
Probable space group: C M M M
;
_chemical_formula_sum "Si O2"
_cell_formula_units_Z 64
_cell_length_a 24.831344
_cell_length_b 16.113431
_cell_length_c 7.383936
_cell_angle_alpha 90.000000
_cell_angle_beta 90.000000
_cell_angle_gamma 90.000000
_cell_volume 2954.446799
_symmetry_space_group_name_H-M "C M M M"
_symmetry_group_IT_number 65
_symmetry_cell_setting 'orthorhombic'
loop_
_space_group_symop_operation_xyz
x,y,z
-x,-y,z
x,-y,-z
-x,y,-z
-x,-y,-z
x,y,-z
-x,y,z
x,-y,z
1/2+x,1/2+y,z
1/2-x,1/2-y,z
1/2+x,1/2-y,-z
1/2-x,1/2+y,-z
1/2-x,1/2-y,-z
1/2+x,1/2+y,-z
1/2-x,1/2+y,z
1/2+x,1/2-y,z
loop_
_atom_site_type_symbol
_atom_site_label
_atom_site_fract_x
_atom_site_fract_y
_atom_site_fract_z
Si Si1 0.586136 0.500000 0.218051
Si Si2 0.000000 0.133792 0.218701
Si Si3 0.787851 0.000000 0.712152
Si Si4 0.500000 0.172407 0.288985
Si Si5 0.225812 0.337335 0.721534
Si Si6 0.611422 0.903823 0.720953
O O1 0.552196 0.580754 0.277889
O O2 0.647954 0.500000 0.272150
O O3 0.584719 0.500000 0.000000
O O4 0.000000 0.228310 0.278463
O O5 0.000000 0.134240 0.000000
O O6 0.761392 0.084348 0.784117
O O7 0.773921 0.000000 0.500000
O O8 0.500000 0.148060 0.500000
O O9 0.555431 0.135300 0.213796
O O10 0.226702 0.336121 0.500000
O O11 0.250000 0.250000 0.781997
O O12 0.164292 0.353429 0.777286
O O13 0.611334 0.902206 0.500000
O O14 0.616143 0.000000 0.774171
#
# Coordination Sequence:
#
# PCOD9486040 Si02
#       6
#     8   8   8   8  16  16
#     4   9  20  38  56  70  97 139 170 200 252 315
#     4   9  20  39  55  70  98 138 171 196 251 326
#     4  10  19  31  53  81 102 130 171 214 252 292
#     4  10  20  29  51  83 102 122 168 227 258 274
#     4   9  17  28  44  70 106 140 165 198 253 310
#     4   9  16  29  45  68 105 141 168 199 250 309
#
# _framework density 21.662261999999998
#
# number of rings (size 3 to 8) (size 9 to 14) (size 15 to 20)
#    0.000    2.750    1.250    1.125    3.500    2.500 
#    0.000    1.250    0.000    3.750    0.000    0.000 
#    0.000    0.000    0.000    0.000    0.000    0.000 
#
# Total GULP energy -178748.687809 kJ/mol
# GULP energy per Si atom -5585.896494 kJ/mol
# Density = 2.161296 g / cm^3
# Si number density = 21.662262 Si / 1000 Ang^3
#
#
#
# Elastic Constant Matrix: (Units=GPa)
#
#
# Indices 1 2 3 4 5 6 
#
# 1 235.2109 140.0595 0.1277 0.0000 0.0000 0.0000
# 2 140.0595 202.1915 2.2680 0.0000 0.0000 0.0000
# 3 0.1277 2.2680 72.3556 0.0000 0.0000 0.0000
# 4 0.0000 0.0000 0.0000 22.4219 0.0000 0.0000
# 5 0.0000 0.0000 0.0000 0.0000 151.2454 0.0000
# 6 0.0000 0.0000 0.0000 0.0000 0.0000 12.0350
#
#
#
# Elastic Compliance Matrix: (Units=1/GPa)
#
#
# Indices 1 2 3 4 5 6 
#
# 1 0.007238 -0.005015 0.000144 0.000000 0.000000 0.000000
# 2 -0.005015 0.008423 -0.000255 0.000000 0.000000 0.000000
# 3 0.000144 -0.000255 0.013828 0.000000 0.000000 0.000000
# 4 0.000000 0.000000 0.000000 0.044599 0.000000 0.000000
# 5 0.000000 0.000000 0.000000 0.000000 0.006612 0.000000
# 6 0.000000 0.000000 0.000000 0.000000 0.000000 0.083091
#
#
# Mechanical properties :
#
#
# Convention : Reuss Voigt Hill
#
# Bulk Modulus (GPa) = 51.98334 88.29649 70.13991
# Shear Modulus (GPa) = 27.70761 61.62731 44.66746
#
# Velocity S-wave (km/s) = 3.58029 5.33956 4.54584
# Velocity P-wave (km/s) = 6.41409 8.88052 7.74610
#
# Compressibility (1/GPa) = 0.01923693
#
# Stress axis : x y z
#
# Youngs Moduli (GPa) = 138.16197 118.72485 72.31508
#
# Poissons Ratio (x) = 0.59545 -0.01044
# Poissons Ratio (y) = 0.69293 0.01845
# Poissons Ratio (z) = -0.01996 0.03029
#
# Static dielectric constant tensor:
#      x y z
#    x 1.749320 0.000000 0.000000 
#    y 0.000000 1.731820 0.000000 
#    z 0.000000 0.000000 1.835470 
# 
# From -- ./inp_files/6812.got.cif
#   From: 2010.05.17/outbox.cif.g08.bks.cpg/sg65_4_cif.got.tgz:6812.got - 2010.06.03 17:01:31.
