data_PCOD9486527
_publ_section_title
;
Structure prediction by ZEFSAII (Michael W. Deem and Ramdas Pophale) SiO2 
 PCOD9486527
Probable space group: C M M M
;
_chemical_formula_sum "Si O2"
_cell_formula_units_Z 72
_cell_length_a 8.467002
_cell_length_b 18.462834
_cell_length_c 24.376789
_cell_angle_alpha 90.000000
_cell_angle_beta 90.000000
_cell_angle_gamma 90.000000
_cell_volume 3810.697943
_symmetry_space_group_name_H-M "C M M M"
_symmetry_group_IT_number 65
_symmetry_cell_setting 'orthorhombic'
loop_
_space_group_symop_operation_xyz
x,y,z
-x,-y,z
x,-y,-z
-x,y,-z
-x,-y,-z
x,y,-z
-x,y,z
x,-y,z
1/2+x,1/2+y,z
1/2-x,1/2-y,z
1/2+x,1/2-y,-z
1/2-x,1/2+y,-z
1/2-x,1/2-y,-z
1/2+x,1/2+y,-z
1/2-x,1/2+y,z
1/2+x,1/2-y,z
loop_
_atom_site_type_symbol
_atom_site_label
_atom_site_fract_x
_atom_site_fract_y
_atom_site_fract_z
Si Si1 0.310782 0.083351 0.784884
Si Si2 0.690763 0.667011 0.558891
Si Si3 0.307246 0.583381 0.000000
Si Si4 0.310661 0.331838 0.108989
Si Si5 0.810013 0.167190 0.320952
O O1 0.500000 0.084792 0.786618
O O2 0.246514 0.127890 0.836491
O O3 0.254876 0.120066 0.728653
O O4 0.256864 0.000000 0.787875
O O5 0.742672 0.634445 0.500000
O O6 0.500000 0.666992 0.558851
O O7 0.750000 0.750000 0.558654
O O8 0.740111 0.637984 0.618557
O O9 0.255887 0.625048 0.945213
O O10 0.255116 0.500000 0.000000
O O11 0.500000 0.583139 0.000000
O O12 0.500000 0.331011 0.108859
O O13 0.250000 0.250000 0.107857
O O14 0.750000 0.250000 0.315875
O O15 0.000000 0.168040 0.318565
#
# Coordination Sequence:
#
# PCOD9486527 Si02
#       5
#    16  16   8  16  16
#     4  11  24  40  56  76 105 140 180 226 273 320
#     4   8  14  25  43  70 102 133 167 210 259 310
#     4   9  19  36  59  87 116 147 182 219 260 308
#     4  11  22  38  61  86 114 145 180 221 264 314
#     4  10  19  32  53  79 107 139 176 218 265 319
#
# _framework density 18.894176000000002
#
# number of rings (size 3 to 8) (size 9 to 14) (size 15 to 20)
#    0.000    2.111    0.000    3.667    0.000    3.556 
#    0.000    1.667    0.000    4.667    0.000    4.667 
#    0.000    0.000    0.000    0.000    0.000    0.000 
#
# Total GULP energy -200852.138841 kJ/mol
# GULP energy per Si atom -5579.226079 kJ/mol
# Density = 1.885117 g / cm^3
# Si number density = 18.894176 Si / 1000 Ang^3
#
#
#
# Elastic Constant Matrix: (Units=GPa)
#
#
# Indices 1 2 3 4 5 6 
#
# 1 36.1863 27.0953 35.1269 0.0000 0.0000 0.0000
# 2 27.0953 135.1152 106.8617 0.0000 0.0000 0.0000
# 3 35.1269 106.8617 240.6512 0.0000 0.0000 0.0000
# 4 0.0000 0.0000 0.0000 -12.1613 0.0000 0.0000
# 5 0.0000 0.0000 0.0000 0.0000 -26.6572 0.0000
# 6 0.0000 0.0000 0.0000 0.0000 0.0000 11.4892
#
#
#
# Elastic Compliance Matrix: (Units=1/GPa)
#
#
# Indices 1 2 3 4 5 6 
#
# 1 0.033840 -0.004438 -0.002969 0.000000 0.000000 0.000000
# 2 -0.004438 0.011989 -0.004676 0.000000 0.000000 0.000000
# 3 -0.002969 -0.004676 0.006665 0.000000 0.000000 0.000000
# 4 0.000000 0.000000 0.000000 -0.082228 0.000000 0.000000
# 5 0.000000 0.000000 0.000000 0.000000 -0.037513 0.000000
# 6 0.000000 0.000000 0.000000 0.000000 0.000000 0.087038
#
#
# Mechanical properties :
#
#
# Convention : Reuss Voigt Hill
#
# Bulk Modulus (GPa) = 35.30021 83.34671 59.32346
# Shear Modulus (GPa) = 93.63338 10.72540 52.17939
#
# Velocity S-wave (km/s) = 7.04729 2.38514 5.26086
# Velocity P-wave (km/s) = 9.21644 7.19676 8.26850
#
# Compressibility (1/GPa) = 0.02832844
#
# Stress axis : x y z
#
# Youngs Moduli (GPa) = 29.55106 83.40712 150.03411
#
# Poissons Ratio (x) = 0.37017 0.44541
# Poissons Ratio (y) = 0.13115 0.70157
# Poissons Ratio (z) = 0.08773 0.39002
#
# Static dielectric constant tensor:
#      x y z
#    x 1.660950 0.000000 0.000000 
#    y 0.000000 1.619060 0.000000 
#    z 0.000000 0.000000 1.684890 
# 
# From -- ./inp_files/66976.got.cif
#   From: 2010.05.17/outbox.cif.g08.bks.cpg/sg65_34_cif.got.tgz:66976.got - 2010.06.03 17:01:31.
