data_PCOD9486881
_publ_section_title
;
Structure prediction by ZEFSAII (Michael W. Deem and Ramdas Pophale) SiO2 
 PCOD9486881
Probable space group: C M M M
;
_chemical_formula_sum "Si O2"
_cell_formula_units_Z 104
_cell_length_a 8.786060
_cell_length_b 29.218499
_cell_length_c 23.886810
_cell_angle_alpha 90.000000
_cell_angle_beta 90.000000
_cell_angle_gamma 90.000000
_cell_volume 6132.114022
_symmetry_space_group_name_H-M "C M M M"
_symmetry_group_IT_number 65
_symmetry_cell_setting 'orthorhombic'
loop_
_space_group_symop_operation_xyz
x,y,z
-x,-y,z
x,-y,-z
-x,y,-z
-x,-y,-z
x,y,-z
-x,y,z
x,-y,z
1/2+x,1/2+y,z
1/2-x,1/2-y,z
1/2+x,1/2-y,-z
1/2-x,1/2+y,-z
1/2-x,1/2-y,-z
1/2+x,1/2+y,-z
1/2-x,1/2+y,z
1/2+x,1/2-y,z
loop_
_atom_site_type_symbol
_atom_site_label
_atom_site_fract_x
_atom_site_fract_y
_atom_site_fract_z
Si Si1 0.823631 0.555499 0.500000
Si Si2 0.182690 0.102952 0.062846
Si Si3 0.817443 0.890215 0.273413
Si Si4 0.181806 0.701874 0.231685
Si Si5 0.681953 0.297370 0.106859
Si Si6 0.819452 0.445832 0.170138
Si Si7 0.183188 0.947014 0.382774
O O1 0.811839 0.500000 0.500000
O O2 0.746055 0.570216 0.557850
O O3 0.000000 0.568071 0.500000
O O4 0.213998 0.156964 0.071947
O O5 0.264598 0.074807 0.111272
O O6 0.000000 0.097124 0.068742
O O7 0.226650 0.089281 0.000000
O O8 0.739903 0.840998 0.267046
O O9 0.766960 0.920150 0.220075
O O10 0.771012 0.916490 0.329962
O O11 0.000000 0.885165 0.272779
O O12 0.250000 0.750000 0.252129
O O13 0.245858 0.695840 0.168449
O O14 0.000000 0.703741 0.229896
O O15 0.500000 0.292644 0.112609
O O16 0.750000 0.250000 0.083812
O O17 0.789531 0.500000 0.172277
O O18 0.000000 0.438161 0.176611
O O19 0.000000 0.947181 0.385414
O O20 0.232834 0.000000 0.374509
#
# Coordination Sequence:
#
# PCOD9486881 Si02
#       7
#     8  16  16  16  16  16  16
#     4   9  17  29  47  73 108 147 184 223 263 301
#     4  10  22  39  57  76 100 134 176 217 261 320
#     4  11  21  35  56  82 109 140 178 220 265 315
#     4  11  21  34  54  79 108 139 172 212 262 317
#     4  10  19  33  54  78 104 133 166 208 258 317
#     4  11  24  39  55  77 104 135 173 220 270 318
#     4   9  18  32  51  76 108 147 186 220 258 307
#
# _framework density 16.959893999999998
#
# number of rings (size 3 to 8) (size 9 to 14) (size 15 to 20)
#    0.000    1.769    1.538    4.385    0.000    5.538 
#    0.000    3.077    0.000    0.000    0.000    0.538 
#    0.000    0.000    0.000    0.000    0.000    0.000 
#
# Total GULP energy -290388.463033 kJ/mol
# GULP energy per Si atom -5584.393520 kJ/mol
# Density = 1.692129 g / cm^3
# Si number density = 16.959894 Si / 1000 Ang^3
#
#
#
# Elastic Constant Matrix: (Units=GPa)
#
#
# Indices 1 2 3 4 5 6 
#
# 1 65.3519 42.8213 37.5706 0.0000 0.0000 0.0000
# 2 42.8213 80.7571 50.7244 0.0000 0.0000 0.0000
# 3 37.5706 50.7244 117.5850 0.0000 0.0000 0.0000
# 4 0.0000 0.0000 0.0000 16.7669 0.0000 0.0000
# 5 0.0000 0.0000 0.0000 0.0000 9.4945 0.0000
# 6 0.0000 0.0000 0.0000 0.0000 0.0000 28.1822
#
#
#
# Elastic Compliance Matrix: (Units=1/GPa)
#
#
# Indices 1 2 3 4 5 6 
#
# 1 0.024203 -0.010941 -0.003014 0.000000 0.000000 0.000000
# 2 -0.010941 0.021931 -0.005965 0.000000 0.000000 0.000000
# 3 -0.003014 -0.005965 0.012041 0.000000 0.000000 0.000000
# 4 0.000000 0.000000 0.000000 0.059641 0.000000 0.000000
# 5 0.000000 0.000000 0.000000 0.000000 0.105325 0.000000
# 6 0.000000 0.000000 0.000000 0.000000 0.000000 0.035483
#
#
# Mechanical properties :
#
#
# Convention : Reuss Voigt Hill
#
# Bulk Modulus (GPa) = 54.53774 58.43627 56.48701
# Shear Modulus (GPa) = 16.41637 19.72724 18.07180
#
# Velocity S-wave (km/s) = 3.11457 3.41423 3.26783
# Velocity P-wave (km/s) = 6.72017 7.07623 6.90050
#
# Compressibility (1/GPa) = 0.01833593
#
# Stress axis : x y z
#
# Youngs Moduli (GPa) = 41.31694 45.59825 83.05277
#
# Poissons Ratio (x) = 0.49888 0.25029
# Poissons Ratio (y) = 0.45204 0.49539
# Poissons Ratio (z) = 0.12452 0.27198
#
# Static dielectric constant tensor:
#      x y z
#    x 1.568440 0.000000 0.000000 
#    y 0.000000 1.575020 0.000000 
#    z 0.000000 0.000000 1.555350 
# 
# From -- ./inp_files/60879.got.cif
#   From: 2010.05.17/outbox.cif.g08.bks.cpg/sg65_31_cif.got.tgz:60879.got - 2010.06.03 17:01:31.
