data_PCOD9486273
_publ_section_title
;
Structure prediction by ZEFSAII (Michael W. Deem and Ramdas Pophale) SiO2 
 PCOD9486273
Probable space group: C M M M
;
_chemical_formula_sum "Si O2"
_cell_formula_units_Z 56
_cell_length_a 13.607859
_cell_length_b 12.949777
_cell_length_c 17.758008
_cell_angle_alpha 90.000000
_cell_angle_beta 90.000000
_cell_angle_gamma 90.000000
_cell_volume 3129.293786
_symmetry_space_group_name_H-M "C M M M"
_symmetry_group_IT_number 65
_symmetry_cell_setting 'orthorhombic'
loop_
_space_group_symop_operation_xyz
x,y,z
-x,-y,z
x,-y,-z
-x,y,-z
-x,-y,-z
x,y,-z
-x,y,z
x,-y,z
1/2+x,1/2+y,z
1/2-x,1/2-y,z
1/2+x,1/2-y,-z
1/2-x,1/2+y,-z
1/2-x,1/2-y,-z
1/2+x,1/2+y,-z
1/2-x,1/2+y,z
1/2+x,1/2-y,z
loop_
_atom_site_type_symbol
_atom_site_label
_atom_site_fract_x
_atom_site_fract_y
_atom_site_fract_z
Si Si1 0.389608 0.683688 0.410447
Si Si2 0.250000 0.750000 0.198777
Si Si3 0.689946 0.882447 0.336769
Si Si4 0.382821 0.378606 0.913303
O O1 0.379072 0.671454 0.500000
O O2 0.500000 0.651899 0.388705
O O3 0.372435 0.803500 0.387801
O O4 0.301617 0.624553 0.368957
O O5 0.303857 0.830973 0.254358
O O6 0.325708 0.689809 0.146210
O O7 0.656249 0.000000 0.336779
O O8 0.500000 0.365785 0.905629
O O9 0.360923 0.500000 0.901785
O O10 0.356709 0.352881 0.000000
#
# Coordination Sequence:
#
# PCOD9486273 Si02
#       4
#    16   8  16  16
#     4   9  19  35  53  73  97 127 165 208 252 294
#     4  10  19  32  51  74 102 134 162 198 245 292
#     4  10  21  34  49  73 102 131 165 203 243 292
#     4   9  18  33  54  78 100 126 164 205 243 287
#
# _framework density 17.895410999999999
#
# number of rings (size 3 to 8) (size 9 to 14) (size 15 to 20)
#    0.000    2.857    0.000    3.857    0.000    8.000 
#    0.000    2.857    0.000    2.571    0.000   10.000 
#    0.000    0.000    0.000    0.000    0.000    0.000 
#
# Total GULP energy -156167.635670 kJ/mol
# GULP energy per Si atom -5577.415560 kJ/mol
# Density = 1.785468 g / cm^3
# Si number density = 17.895411 Si / 1000 Ang^3
#
#
#
# Elastic Constant Matrix: (Units=GPa)
#
#
# Indices 1 2 3 4 5 6 
#
# 1 53.8333 -8.8309 34.5567 0.0000 0.0000 0.0000
# 2 -8.8309 55.7335 19.8663 0.0000 0.0000 0.0000
# 3 34.5567 19.8663 94.7545 0.0000 0.0000 0.0000
# 4 0.0000 0.0000 0.0000 -63.4194 0.0000 0.0000
# 5 0.0000 0.0000 0.0000 0.0000 -12.9053 0.0000
# 6 0.0000 0.0000 0.0000 0.0000 0.0000 13.1576
#
#
#
# Elastic Compliance Matrix: (Units=1/GPa)
#
#
# Indices 1 2 3 4 5 6 
#
# 1 0.027610 0.008607 -0.011874 0.000000 0.000000 0.000000
# 2 0.008607 0.022075 -0.007767 0.000000 0.000000 0.000000
# 3 -0.011874 -0.007767 0.016512 0.000000 0.000000 0.000000
# 4 0.000000 0.000000 0.000000 -0.015768 0.000000 0.000000
# 5 0.000000 0.000000 0.000000 0.000000 -0.077487 0.000000
# 6 0.000000 0.000000 0.000000 0.000000 0.000000 0.076002
#
#
# Mechanical properties :
#
#
# Convention : Reuss Voigt Hill
#
# Bulk Modulus (GPa) = 22.66059 32.83395 27.74727
# Shear Modulus (GPa) = 58.32865 -2.05147 28.13859
#
# Velocity S-wave (km/s) = 5.71533 -1.07185 3.96964
# Velocity P-wave (km/s) = 7.49957 4.10557 6.04563
#
# Compressibility (1/GPa) = 0.04412948
#
# Stress axis : x y z
#
# Youngs Moduli (GPa) = 36.21893 45.30010 60.56040
#
# Poissons Ratio (x) = -0.38991 0.71908
# Poissons Ratio (y) = -0.31174 0.47039
# Poissons Ratio (z) = 0.43006 0.35186
#
# Static dielectric constant tensor:
#      x y z
#    x 1.606110 0.000000 0.000000 
#    y 0.000000 1.611600 0.000000 
#    z 0.000000 0.000000 1.598420 
# 
# From -- ./inp_files/52610.got.cif
#   From: 2010.05.17/outbox.cif.g08.bks.cpg/sg65_27_cif.got.tgz:52610.got - 2010.06.03 17:01:31.
