data_PCOD9486348
_publ_section_title
;
Structure prediction by ZEFSAII (Michael W. Deem and Ramdas Pophale) SiO2 
 PCOD9486348
Probable space group: C M M M
;
_chemical_formula_sum "Si O2"
_cell_formula_units_Z 104
_cell_length_a 24.054118
_cell_length_b 31.979459
_cell_length_c 8.012062
_cell_angle_alpha 90.000000
_cell_angle_beta 90.000000
_cell_angle_gamma 90.000000
_cell_volume 6163.179988
_symmetry_space_group_name_H-M "C M M M"
_symmetry_group_IT_number 65
_symmetry_cell_setting 'orthorhombic'
loop_
_space_group_symop_operation_xyz
x,y,z
-x,-y,z
x,-y,-z
-x,y,-z
-x,-y,-z
x,y,-z
-x,y,z
x,-y,z
1/2+x,1/2+y,z
1/2-x,1/2-y,z
1/2+x,1/2-y,-z
1/2-x,1/2+y,-z
1/2-x,1/2-y,-z
1/2+x,1/2+y,-z
1/2-x,1/2+y,z
1/2+x,1/2-y,z
loop_
_atom_site_type_symbol
_atom_site_label
_atom_site_fract_x
_atom_site_fract_y
_atom_site_fract_z
Si Si1 0.350898 0.452239 0.700288
Si Si2 0.066415 0.500000 0.194772
Si Si3 0.884438 0.587157 0.688175
Si Si4 0.932464 0.735876 0.000000
Si Si5 0.563893 0.618901 0.801695
Si Si6 0.225255 0.548620 0.198394
Si Si7 0.067114 0.361936 0.000000
Si Si8 0.932370 0.789713 0.684526
O O1 0.350163 0.451826 0.500000
O O2 0.362783 0.500000 0.755947
O O3 0.396339 0.419557 0.761839
O O4 0.289192 0.441271 0.763517
O O5 0.088184 0.541681 0.281699
O O6 0.000000 0.500000 0.196011
O O7 0.085064 0.500000 0.000000
O O8 0.896145 0.601804 0.500000
O O9 0.818929 0.578445 0.713561
O O10 0.908251 0.616322 0.834500
O O11 0.918581 0.687106 0.000000
O O12 0.913030 0.760185 0.834555
O O13 0.000000 0.738117 0.000000
O O14 0.500000 0.610292 0.749516
O O15 0.582958 0.662010 0.716501
O O16 0.563519 0.626537 0.000000
O O17 0.216470 0.500000 0.250974
O O18 0.215674 0.550790 0.000000
O O19 0.000000 0.366996 0.000000
O O20 0.914501 0.776267 0.500000
O O21 0.000000 0.789062 0.688333
#
# Coordination Sequence:
#
# PCOD9486348 Si02
#       8
#    16   8  16   8  16  16   8  16
#     4  10  21  34  49  75 110 145 184 227 269 313
#     4  11  21  35  53  74 105 141 179 219 264 318
#     4  12  23  36  55  78 105 143 184 222 267 315
#     4   9  18  34  53  75 104 137 172 213 267 325
#     4  10  19  32  51  77 110 146 184 222 263 317
#     4  10  19  35  56  75  99 136 185 233 268 304
#     4  11  24  39  54  78 114 144 172 217 271 334
#     4   9  16  29  52  78 103 135 177 221 263 312
#
# _framework density 16.874404999999999
#
# number of rings (size 3 to 8) (size 9 to 14) (size 15 to 20)
#    0.000    1.769    3.077    2.077    0.000    4.923 
#    0.000    3.077    0.000    0.000    0.000    2.154 
#    0.000    3.692    0.000    0.000    0.000    0.000 
#
# Total GULP energy -290245.216166 kJ/mol
# GULP energy per Si atom -5581.638772 kJ/mol
# Density = 1.683600 g / cm^3
# Si number density = 16.874405 Si / 1000 Ang^3
#
#
#
# Elastic Constant Matrix: (Units=GPa)
#
#
# Indices 1 2 3 4 5 6 
#
# 1 64.6449 47.5934 30.8700 0.0000 0.0000 0.0000
# 2 47.5934 107.7935 57.9012 0.0000 0.0000 0.0000
# 3 30.8700 57.9012 124.5311 0.0000 0.0000 0.0000
# 4 0.0000 0.0000 0.0000 8.3840 0.0000 0.0000
# 5 0.0000 0.0000 0.0000 0.0000 13.6797 0.0000
# 6 0.0000 0.0000 0.0000 0.0000 0.0000 -0.5788
#
#
#
# Elastic Compliance Matrix: (Units=1/GPa)
#
#
# Indices 1 2 3 4 5 6 
#
# 1 0.023079 -0.009486 -0.001310 0.000000 0.000000 0.000000
# 2 -0.009486 0.016264 -0.005211 0.000000 0.000000 0.000000
# 3 -0.001310 -0.005211 0.010778 0.000000 0.000000 0.000000
# 4 0.000000 0.000000 0.000000 0.119275 0.000000 0.000000
# 5 0.000000 0.000000 0.000000 0.000000 0.073101 0.000000
# 6 0.000000 0.000000 0.000000 0.000000 0.000000 -1.727592
#
#
# Mechanical properties :
#
#
# Convention : Reuss Voigt Hill
#
# Bulk Modulus (GPa) = 55.22865 63.29987 59.26426
# Shear Modulus (GPa) = -3.45531 15.00395 5.77432
#
# Velocity S-wave (km/s) = -1.43252 2.98510 1.85186
# Velocity P-wave (km/s) = 5.48308 7.03384 6.30631
#
# Compressibility (1/GPa) = 0.01810654
#
# Stress axis : x y z
#
# Youngs Moduli (GPa) = 43.33000 61.48507 92.78440
#
# Poissons Ratio (x) = 0.58324 0.12159
# Poissons Ratio (y) = 0.41102 0.48346
# Poissons Ratio (z) = 0.05678 0.32037
#
# Static dielectric constant tensor:
#      x y z
#    x 1.557870 0.000000 0.000000 
#    y 0.000000 1.549500 0.000000 
#    z 0.000000 0.000000 1.598920 
# 
# From -- ./inp_files/15093.got.cif
#   From: 2010.05.17/outbox.cif.g08.bks.cpg/sg65_8_cif.got.tgz:15093.got - 2010.06.03 17:01:31.
