data_PCOD9486495
_publ_section_title
;
Structure prediction by ZEFSAII (Michael W. Deem and Ramdas Pophale) SiO2 
 PCOD9486495
Probable space group: C M M M
;
_chemical_formula_sum "Si O2"
_cell_formula_units_Z 112
_cell_length_a 15.453889
_cell_length_b 25.895018
_cell_length_c 14.917216
_cell_angle_alpha 90.000000
_cell_angle_beta 90.000000
_cell_angle_gamma 90.000000
_cell_volume 5969.552611
_symmetry_space_group_name_H-M "C M M M"
_symmetry_group_IT_number 65
_symmetry_cell_setting 'orthorhombic'
loop_
_space_group_symop_operation_xyz
x,y,z
-x,-y,z
x,-y,-z
-x,y,-z
-x,-y,-z
x,y,-z
-x,y,z
x,-y,z
1/2+x,1/2+y,z
1/2-x,1/2-y,z
1/2+x,1/2-y,-z
1/2-x,1/2+y,-z
1/2-x,1/2-y,-z
1/2+x,1/2+y,-z
1/2-x,1/2+y,z
1/2+x,1/2-y,z
loop_
_atom_site_type_symbol
_atom_site_label
_atom_site_fract_x
_atom_site_fract_y
_atom_site_fract_z
Si Si1 0.144148 0.169117 0.601144
Si Si2 0.827731 0.387488 0.403900
Si Si3 0.404334 0.657638 0.808029
Si Si4 0.844626 0.268619 0.177844
Si Si5 0.601084 0.061562 0.774106
Si Si6 0.403454 0.220100 0.370290
Si Si7 0.725105 0.871646 0.896351
O O1 0.108399 0.157060 0.500000
O O2 0.231717 0.135995 0.609020
O O3 0.099069 0.160209 0.698526
O O4 0.154995 0.231320 0.602228
O O5 0.831784 0.414846 0.500000
O O6 0.860784 0.420912 0.321691
O O7 0.883453 0.335259 0.408881
O O8 0.500000 0.637808 0.833012
O O9 0.393337 0.716060 0.847678
O O10 0.317744 0.630111 0.844761
O O11 0.750000 0.250000 0.210197
O O12 0.893801 0.289139 0.264218
O O13 0.821022 0.315076 0.112067
O O14 0.500000 0.076968 0.780676
O O15 0.660120 0.089279 0.848092
O O16 0.605962 0.000000 0.782978
O O17 0.500000 0.237303 0.392144
O O18 0.739325 0.883539 0.000000
#
# Coordination Sequence:
#
# PCOD9486495 Si02
#       7
#    16  16  16  16  16  16  16
#     4  10  19  32  52  83 123 165 202 232 268 327
#     4  11  21  35  57  85 118 159 197 232 283 348
#     4  10  20  35  58  90 128 164 197 234 278 339
#     4   9  17  31  52  79 116 158 196 229 272 329
#     4  11  25  45  66  87 113 144 188 250 308 357
#     4  11  19  28  47  80 123 163 197 232 270 326
#     4  11  23  41  63  86 116 153 196 247 302 357
#
# _framework density 18.761876000000001
#
# number of rings (size 3 to 8) (size 9 to 14) (size 15 to 20)
#    0.000    1.571    2.857    4.714    0.000    8.286 
#    0.000    1.429    0.000    0.429    0.000    1.000 
#    0.000    2.286    0.000    0.000    0.000    0.000 
#
# Total GULP energy -311971.062415 kJ/mol
# GULP energy per Si atom -5570.911829 kJ/mol
# Density = 1.871917 g / cm^3
# Si number density = 18.761876 Si / 1000 Ang^3
#
#
#
# Elastic Constant Matrix: (Units=GPa)
#
#
# Indices 1 2 3 4 5 6 
#
# 1 119.4398 38.7578 48.1422 0.0000 0.0000 0.0000
# 2 38.7578 49.3295 31.3291 0.0000 0.0000 0.0000
# 3 48.1422 31.3291 119.5406 0.0000 0.0000 0.0000
# 4 0.0000 0.0000 0.0000 -61.9624 0.0000 0.0000
# 5 0.0000 0.0000 0.0000 0.0000 18.3884 0.0000
# 6 0.0000 0.0000 0.0000 0.0000 0.0000 23.3211
#
#
#
# Elastic Compliance Matrix: (Units=1/GPa)
#
#
# Indices 1 2 3 4 5 6 
#
# 1 0.011986 -0.007620 -0.002830 0.000000 0.000000 0.000000
# 2 -0.007620 0.029164 -0.004575 0.000000 0.000000 0.000000
# 3 -0.002830 -0.004575 0.010704 0.000000 0.000000 0.000000
# 4 0.000000 0.000000 0.000000 -0.016139 0.000000 0.000000
# 5 0.000000 0.000000 0.000000 0.000000 0.054382 0.000000
# 6 0.000000 0.000000 0.000000 0.000000 0.000000 0.042880
#
#
# Mechanical properties :
#
#
# Convention : Reuss Voigt Hill
#
# Bulk Modulus (GPa) = 45.86108 58.30756 52.08432
# Shear Modulus (GPa) = 29.36109 7.28814 18.32462
#
# Velocity S-wave (km/s) = 3.96022 1.97306 3.12860
# Velocity P-wave (km/s) = 6.73854 6.02792 6.39311
#
# Compressibility (1/GPa) = 0.02180498
#
# Stress axis : x y z
#
# Youngs Moduli (GPa) = 83.43293 34.28892 93.42326
#
# Poissons Ratio (x) = 0.26127 0.26439
# Poissons Ratio (y) = 0.63574 0.42737
# Poissons Ratio (z) = 0.23611 0.15686
#
# Static dielectric constant tensor:
#      x y z
#    x 1.680130 0.000000 0.000000 
#    y 0.000000 1.632310 0.000000 
#    z 0.000000 0.000000 1.679450 
# 
# From -- ./inp_files/41073.got.cif
#   From: 2010.05.17/outbox.cif.g08.bks.cpg/sg65_21_cif.got.tgz:41073.got - 2010.06.03 17:01:31.
