data_PCOD9486936
_publ_section_title
;
Structure prediction by ZEFSAII (Michael W. Deem and Ramdas Pophale) SiO2 
 PCOD9486936
Probable space group: C M M M
;
_chemical_formula_sum "Si O2"
_cell_formula_units_Z 120
_cell_length_a 28.324626
_cell_length_b 8.443067
_cell_length_c 27.207840
_cell_angle_alpha 90.000000
_cell_angle_beta 90.000000
_cell_angle_gamma 90.000000
_cell_volume 6506.665560
_symmetry_space_group_name_H-M "C M M M"
_symmetry_group_IT_number 65
_symmetry_cell_setting 'orthorhombic'
loop_
_space_group_symop_operation_xyz
x,y,z
-x,-y,z
x,-y,-z
-x,y,-z
-x,-y,-z
x,y,-z
-x,y,z
x,-y,z
1/2+x,1/2+y,z
1/2-x,1/2-y,z
1/2+x,1/2-y,-z
1/2-x,1/2+y,-z
1/2-x,1/2-y,-z
1/2+x,1/2+y,-z
1/2-x,1/2+y,z
1/2+x,1/2-y,z
loop_
_atom_site_type_symbol
_atom_site_label
_atom_site_fract_x
_atom_site_fract_y
_atom_site_fract_z
Si Si1 0.554298 0.306675 0.000000
Si Si2 0.445561 0.308435 0.199137
Si Si3 0.895007 0.689524 0.703370
Si Si4 0.802172 0.689377 0.943616
Si Si5 0.446246 0.808626 0.397332
Si Si6 0.697535 0.310188 0.346573
Si Si7 0.105256 0.808931 0.900553
Si Si8 0.853030 0.190832 0.554274
O O1 0.579137 0.252285 0.049925
O O2 0.555961 0.500000 0.000000
O O3 0.500000 0.259371 0.000000
O O4 0.500000 0.254428 0.201503
O O5 0.445964 0.500000 0.198585
O O6 0.416616 0.252918 0.246372
O O7 0.420689 0.254095 0.148732
O O8 0.893773 0.500000 0.704691
O O9 0.928512 0.737213 0.657372
O O10 0.842744 0.751968 0.690891
O O11 0.802779 0.500000 0.943243
O O12 0.750000 0.750000 0.931979
O O13 0.841116 0.754735 0.906734
O O14 0.812972 0.743404 0.000000
O O15 0.500000 0.756009 0.406222
O O16 0.406526 0.742352 0.433660
O O17 0.445387 0.000000 0.400151
O O18 0.697695 0.500000 0.346541
O O19 0.750000 0.250000 0.336214
O O20 0.679732 0.253168 0.400646
O O21 0.103728 0.000000 0.900569
O O22 0.838968 0.247414 0.500000
O O23 0.851360 0.000000 0.554488
#
# Coordination Sequence:
#
# PCOD9486936 Si02
#       8
#     8  16  16  16  16  16  16  16
#     4   9  16  28  50  77 104 139 180 215 250 301
#     4  10  21  36  55  82 114 145 179 221 268 318
#     4  10  20  36  57  79 104 138 180 225 272 324
#     4  10  20  34  54  78 105 137 176 219 264 312
#     4   9  18  32  50  73 101 135 178 224 268 316
#     4  10  20  36  58  82 108 139 176 220 269 320
#     4  10  19  33  54  80 110 143 180 220 262 313
#     4   9  19  34  50  73 107 143 178 216 260 314
#
# _framework density 18.442626000000001
#
# number of rings (size 3 to 8) (size 9 to 14) (size 15 to 20)
#    0.000    2.333    0.667    2.000    0.000    5.600 
#    0.000    2.000    0.000    4.800    0.000    0.000 
#    0.000    0.000    0.000    0.000    0.000    0.000 
#
# Total GULP energy -334842.854450 kJ/mol
# GULP energy per Si atom -5580.714241 kJ/mol
# Density = 1.840065 g / cm^3
# Si number density = 18.442626 Si / 1000 Ang^3
#
#
#
# Elastic Constant Matrix: (Units=GPa)
#
#
# Indices 1 2 3 4 5 6 
#
# 1 140.8456 15.5507 63.9424 0.0000 0.0000 0.0000
# 2 15.5507 13.0445 19.6754 0.0000 0.0000 0.0000
# 3 63.9424 19.6754 125.3719 0.0000 0.0000 0.0000
# 4 0.0000 0.0000 0.0000 18.7636 0.0000 0.0000
# 5 0.0000 0.0000 0.0000 0.0000 14.1035 0.0000
# 6 0.0000 0.0000 0.0000 0.0000 0.0000 26.0603
#
#
#
# Elastic Compliance Matrix: (Units=1/GPa)
#
#
# Indices 1 2 3 4 5 6 
#
# 1 0.009508 -0.005267 -0.004023 0.000000 0.000000 0.000000
# 2 -0.005267 0.103352 -0.013533 0.000000 0.000000 0.000000
# 3 -0.004023 -0.013533 0.012152 0.000000 0.000000 0.000000
# 4 0.000000 0.000000 0.000000 0.053295 0.000000 0.000000
# 5 0.000000 0.000000 0.000000 0.000000 0.070904 0.000000
# 6 0.000000 0.000000 0.000000 0.000000 0.000000 0.038373
#
#
# Mechanical properties :
#
#
# Convention : Reuss Voigt Hill
#
# Bulk Modulus (GPa) = 12.59988 53.06654 32.83321
# Shear Modulus (GPa) = 13.90106 23.79172 18.84639
#
# Velocity S-wave (km/s) = 2.74842 3.59561 3.20017
# Velocity P-wave (km/s) = 4.11321 6.78780 5.61216
#
# Compressibility (1/GPa) = 0.07936583
#
# Stress axis : x y z
#
# Youngs Moduli (GPa) = 105.17794 9.67563 82.29274
#
# Poissons Ratio (x) = 0.05096 0.33103
# Poissons Ratio (y) = 0.55398 1.11370
# Poissons Ratio (z) = 0.42308 0.13094
#
# Static dielectric constant tensor:
#      x y z
#    x 1.616560 0.000000 0.000000 
#    y 0.000000 1.631760 0.000000 
#    z 0.000000 0.000000 1.633850 
# 
# From -- ./inp_files/73967.got.cif
#   From: 2010.05.17/outbox.cif.g08.bks.cpg/sg65_37_cif.got.tgz:73967.got - 2010.06.03 17:01:31.
