data_PCOD9486508
_publ_section_title
;
Structure prediction by ZEFSAII (Michael W. Deem and Ramdas Pophale) SiO2 
 PCOD9486508
Probable space group: C M M M
;
_chemical_formula_sum "Si O2"
_cell_formula_units_Z 88
_cell_length_a 8.459031
_cell_length_b 26.450365
_cell_length_c 21.435609
_cell_angle_alpha 90.000000
_cell_angle_beta 90.000000
_cell_angle_gamma 90.000000
_cell_volume 4796.098707
_symmetry_space_group_name_H-M "C M M M"
_symmetry_group_IT_number 65
_symmetry_cell_setting 'orthorhombic'
loop_
_space_group_symop_operation_xyz
x,y,z
-x,-y,z
x,-y,-z
-x,y,-z
-x,-y,-z
x,y,-z
-x,y,z
x,-y,z
1/2+x,1/2+y,z
1/2-x,1/2-y,z
1/2+x,1/2-y,-z
1/2-x,1/2+y,-z
1/2-x,1/2-y,-z
1/2+x,1/2+y,-z
1/2-x,1/2+y,z
1/2+x,1/2-y,z
loop_
_atom_site_type_symbol
_atom_site_label
_atom_site_fract_x
_atom_site_fract_y
_atom_site_fract_z
Si Si1 0.689405 0.941362 0.000000
Si Si2 0.189406 0.903603 0.131704
Si Si3 0.310562 0.194490 0.798344
Si Si4 0.691221 0.000000 0.354620
Si Si5 0.306734 0.899669 0.571824
Si Si6 0.809324 0.694810 0.654329
Si Si7 0.309118 0.500000 0.786643
O O1 0.749745 0.914630 0.062421
O O2 0.500000 0.941243 0.000000
O O3 0.744363 0.000000 0.000000
O O4 0.248021 0.850703 0.159289
O O5 0.000000 0.903905 0.131136
O O6 0.243968 0.949913 0.176158
O O7 0.500000 0.194470 0.799622
O O8 0.250000 0.250000 0.817125
O O9 0.258501 0.186089 0.726182
O O10 0.743325 0.949913 0.391483
O O11 0.749154 0.000000 0.283826
O O12 0.500000 0.000000 0.353868
O O13 0.255263 0.899856 0.500000
O O14 0.500000 0.899602 0.571601
O O15 0.254741 0.849981 0.609329
O O16 0.750000 0.750000 0.634955
O O17 0.000000 0.695160 0.653859
O O18 0.500000 0.500000 0.786050
#
# Coordination Sequence:
#
# PCOD9486508 Si02
#       7
#     8  16  16   8  16  16   8
#     4  11  23  39  60  87 118 151 187 226 268 318
#     4  11  22  38  59  84 115 151 186 224 274 328
#     4  10  20  36  57  83 113 146 187 232 279 330
#     4  10  19  32  53  77 100 133 179 227 272 324
#     4   9  17  30  49  74 103 135 174 222 274 326
#     4   9  18  32  51  75 104 137 175 223 273 322
#     4  10  22  36  54  81 113 145 178 223 280 333
#
# _framework density 18.348247000000001
#
# number of rings (size 3 to 8) (size 9 to 14) (size 15 to 20)
#    0.000    2.091    0.909    2.727    0.000    5.455 
#    0.000    1.364    0.000    2.182    0.000    0.000 
#    0.000    0.000    0.000    0.000    0.000    0.000 
#
# Total GULP energy -245726.051679 kJ/mol
# GULP energy per Si atom -5584.682993 kJ/mol
# Density = 1.830649 g / cm^3
# Si number density = 18.348247 Si / 1000 Ang^3
#
#
#
# Elastic Constant Matrix: (Units=GPa)
#
#
# Indices 1 2 3 4 5 6 
#
# 1 24.9401 33.8104 28.3199 0.0000 0.0000 0.0000
# 2 33.8104 203.8950 138.0950 0.0000 0.0000 0.0000
# 3 28.3199 138.0950 174.7816 0.0000 0.0000 0.0000
# 4 0.0000 0.0000 0.0000 2.7259 0.0000 0.0000
# 5 0.0000 0.0000 0.0000 0.0000 18.6755 0.0000
# 6 0.0000 0.0000 0.0000 0.0000 0.0000 25.7225
#
#
#
# Elastic Compliance Matrix: (Units=1/GPa)
#
#
# Indices 1 2 3 4 5 6 
#
# 1 0.052709 -0.006359 -0.003516 0.000000 0.000000 0.000000
# 2 -0.006359 0.011317 -0.007911 0.000000 0.000000 0.000000
# 3 -0.003516 -0.007911 0.012542 0.000000 0.000000 0.000000
# 4 0.000000 0.000000 0.000000 0.366858 0.000000 0.000000
# 5 0.000000 0.000000 0.000000 0.000000 0.053546 0.000000
# 6 0.000000 0.000000 0.000000 0.000000 0.000000 0.038877
#
#
# Mechanical properties :
#
#
# Convention : Reuss Voigt Hill
#
# Bulk Modulus (GPa) = 24.39300 89.34081 56.86690
# Shear Modulus (GPa) = 8.54573 22.98418 15.76496
#
# Velocity S-wave (km/s) = 2.16047 3.54314 2.93440
# Velocity P-wave (km/s) = 4.42118 8.09542 6.52237
#
# Compressibility (1/GPa) = 0.04099537
#
# Stress axis : x y z
#
# Youngs Moduli (GPa) = 18.97194 88.36120 79.73203
#
# Poissons Ratio (x) = 0.56187 0.28038
# Poissons Ratio (y) = 0.12064 0.63079
# Poissons Ratio (z) = 0.06671 0.69906
#
# Static dielectric constant tensor:
#      x y z
#    x 1.632460 0.000000 0.000000 
#    y 0.000000 1.609820 0.000000 
#    z 0.000000 0.000000 1.601240 
# 
# From -- ./inp_files/59887.got.cif
#   From: 2010.05.17/outbox.cif.g08.bks.cpg/sg65_30_cif.got.tgz:59887.got - 2010.06.03 17:01:31.
