data_PCOD9486565
_publ_section_title
;
Structure prediction by ZEFSAII (Michael W. Deem and Ramdas Pophale) SiO2 
 PCOD9486565
Probable space group: C M M M
;
_chemical_formula_sum "Si O2"
_cell_formula_units_Z 96
_cell_length_a 23.235747
_cell_length_b 9.808648
_cell_length_c 23.850966
_cell_angle_alpha 90.000000
_cell_angle_beta 90.000000
_cell_angle_gamma 90.000000
_cell_volume 5435.903793
_symmetry_space_group_name_H-M "C M M M"
_symmetry_group_IT_number 65
_symmetry_cell_setting 'orthorhombic'
loop_
_space_group_symop_operation_xyz
x,y,z
-x,-y,z
x,-y,-z
-x,y,-z
-x,-y,-z
x,y,-z
-x,y,z
x,-y,z
1/2+x,1/2+y,z
1/2-x,1/2-y,z
1/2+x,1/2-y,-z
1/2-x,1/2+y,-z
1/2-x,1/2-y,-z
1/2+x,1/2+y,-z
1/2-x,1/2+y,z
1/2+x,1/2-y,z
loop_
_atom_site_type_symbol
_atom_site_label
_atom_site_fract_x
_atom_site_fract_y
_atom_site_fract_z
Si Si1 0.000000 0.155836 0.067632
Si Si2 0.889635 0.339724 0.064313
Si Si3 0.350454 0.654477 0.658186
Si Si4 0.250000 0.750000 0.740504
Si Si5 0.308201 0.839857 0.435903
Si Si6 0.345720 0.152185 0.178741
Si Si7 0.934248 0.159564 0.241548
O O1 0.943183 0.243424 0.081081
O O2 0.000000 0.000000 0.089908
O O3 0.000000 0.146398 0.000000
O O4 0.907292 0.500000 0.064709
O O5 0.840977 0.323955 0.111984
O O6 0.872831 0.307752 0.000000
O O7 0.348429 0.500000 0.635631
O O8 0.295312 0.674508 0.699675
O O9 0.347523 0.767949 0.610284
O O10 0.406691 0.671008 0.696570
O O11 0.289123 0.836647 0.783136
O O12 0.329850 0.831285 0.500000
O O13 0.250000 0.750000 0.433611
O O14 0.297675 0.000000 0.423494
O O15 0.391802 0.257400 0.202287
O O16 0.369073 0.000000 0.185909
O O17 0.000000 0.206046 0.238760
O O18 0.932214 0.000000 0.226710
#
# Coordination Sequence:
#
# PCOD9486565 Si02
#       7
#     8  16  16   8  16  16  16
#     4   9  17  29  47  71  97 125 161 205 252 305
#     4   9  18  33  51  71  98 132 168 209 259 312
#     4  10  19  32  54  77 103 139 173 210 256 308
#     4  10  20  34  52  76 104 132 170 216 260 302
#     4  10  20  32  49  76 109 140 172 213 258 302
#     4  10  21  35  54  77 102 134 175 217 257 314
#     4   9  20  37  54  77 108 139 172 214 265 309
#
# _framework density 17.660357000000001
#
# number of rings (size 3 to 8) (size 9 to 14) (size 15 to 20)
#    0.000    2.417    0.833    1.250    1.167    6.333 
#    0.000    0.417    0.000    0.500    0.000    3.500 
#    0.000    0.000    0.000    0.000    0.000    0.000 
#
# Total GULP energy -267364.985353 kJ/mol
# GULP energy per Si atom -5570.103862 kJ/mol
# Density = 1.762016 g / cm^3
# Si number density = 17.660357 Si / 1000 Ang^3
#
#
#
# Elastic Constant Matrix: (Units=GPa)
#
#
# Indices 1 2 3 4 5 6 
#
# 1 42.8584 11.6796 17.8055 0.0000 0.0000 0.0000
# 2 11.6796 86.7284 51.8884 0.0000 0.0000 0.0000
# 3 17.8055 51.8884 93.8785 0.0000 0.0000 0.0000
# 4 0.0000 0.0000 0.0000 25.4203 0.0000 0.0000
# 5 0.0000 0.0000 0.0000 0.0000 15.9280 0.0000
# 6 0.0000 0.0000 0.0000 0.0000 0.0000 15.0831
#
#
#
# Elastic Compliance Matrix: (Units=1/GPa)
#
#
# Indices 1 2 3 4 5 6 
#
# 1 0.025366 -0.000803 -0.004367 0.000000 0.000000 0.000000
# 2 -0.000803 0.017252 -0.009383 0.000000 0.000000 0.000000
# 3 -0.004367 -0.009383 0.016667 0.000000 0.000000 0.000000
# 4 0.000000 0.000000 0.000000 0.039339 0.000000 0.000000
# 5 0.000000 0.000000 0.000000 0.000000 0.062782 0.000000
# 6 0.000000 0.000000 0.000000 0.000000 0.000000 0.066299
#
#
# Mechanical properties :
#
#
# Convention : Reuss Voigt Hill
#
# Bulk Modulus (GPa) = 33.13715 42.91247 38.02481
# Shear Modulus (GPa) = 18.73560 20.75908 19.74734
#
# Velocity S-wave (km/s) = 3.26066 3.43222 3.34754
# Velocity P-wave (km/s) = 5.74283 6.32917 6.04312
#
# Compressibility (1/GPa) = 0.03017761
#
# Stress axis : x y z
#
# Youngs Moduli (GPa) = 39.42312 57.96311 59.99985
#
# Poissons Ratio (x) = 0.04656 0.26202
# Poissons Ratio (y) = 0.03167 0.56300
# Poissons Ratio (z) = 0.17216 0.54389
#
# Static dielectric constant tensor:
#      x y z
#    x 1.577110 0.000000 0.000000 
#    y 0.000000 1.608430 0.000000 
#    z 0.000000 0.000000 1.636930 
# 
# From -- ./inp_files/71461.got.cif
#   From: 2010.05.17/outbox.cif.g08.bks.cpg/sg65_36_cif.got.tgz:71461.got - 2010.06.03 17:01:31.
