data_PCOD9486012
_publ_section_title
;
Structure prediction by ZEFSAII (Michael W. Deem and Ramdas Pophale) SiO2 
 PCOD9486012
Probable space group: C M M M
;
_chemical_formula_sum "Si O2"
_cell_formula_units_Z 112
_cell_length_a 15.092237
_cell_length_b 15.823586
_cell_length_c 23.811224
_cell_angle_alpha 90.000000
_cell_angle_beta 90.000000
_cell_angle_gamma 90.000000
_cell_volume 5686.437221
_symmetry_space_group_name_H-M "C M M M"
_symmetry_group_IT_number 65
_symmetry_cell_setting 'orthorhombic'
loop_
_space_group_symop_operation_xyz
x,y,z
-x,-y,z
x,-y,-z
-x,y,-z
-x,-y,-z
x,y,-z
-x,y,z
x,-y,z
1/2+x,1/2+y,z
1/2-x,1/2-y,z
1/2+x,1/2-y,-z
1/2-x,1/2+y,-z
1/2-x,1/2-y,-z
1/2+x,1/2+y,-z
1/2-x,1/2+y,z
1/2+x,1/2-y,z
loop_
_atom_site_type_symbol
_atom_site_label
_atom_site_fract_x
_atom_site_fract_y
_atom_site_fract_z
Si Si1 0.848802 0.407614 0.356183
Si Si2 0.900700 0.101485 0.935256
Si Si3 0.600805 0.862584 0.769957
Si Si4 0.404127 0.659104 0.245652
Si Si5 0.738936 0.648850 0.157977
Si Si6 0.135601 0.904203 0.369292
Si Si7 0.858049 0.743706 0.436464
O O1 0.880879 0.500000 0.375168
O O2 0.868999 0.398235 0.290220
O O3 0.742655 0.405308 0.364441
O O4 0.884492 0.329294 0.392541
O O5 0.817183 0.125783 0.896995
O O6 0.000000 0.131721 0.916823
O O7 0.904228 0.000000 0.934990
O O8 0.888866 0.129102 0.000000
O O9 0.500000 0.887262 0.781187
O O10 0.603153 0.760667 0.759933
O O11 0.665561 0.884458 0.821704
O O12 0.500000 0.633050 0.223213
O O13 0.325242 0.622715 0.209093
O O14 0.396827 0.629619 0.309341
O O15 0.750000 0.750000 0.156402
O O16 0.110035 0.834900 0.415277
O O17 0.106442 0.000000 0.379933
O O18 0.885205 0.724721 0.500000
O O19 0.750000 0.750000 0.435911
#
# Coordination Sequence:
#
# PCOD9486012 Si02
#       7
#    16  16  16  16  16  16  16
#     4  10  19  32  53  76 103 142 188 233 286 345
#     4   9  19  37  60  86 120 161 200 241 291 342
#     4  10  20  34  54  79 111 151 188 229 289 348
#     4  10  19  32  53  80 111 147 180 222 284 346
#     4  10  20  33  56  86 120 152 190 237 287 337
#     4  10  19  31  52  78 106 142 182 225 283 352
#     4   9  18  32  52  76 107 143 180 230 289 342
#
# _framework density 19.695988
#
# number of rings (size 3 to 8) (size 9 to 14) (size 15 to 20)
#    0.000    2.286    2.857    0.857    0.000    3.143 
#    0.000    2.857    0.000    2.143    0.000    3.000 
#    0.000    0.000    0.000    0.000    0.000    0.000 
#
# Total GULP energy -312330.061054 kJ/mol
# GULP energy per Si atom -5577.322519 kJ/mol
# Density = 1.965116 g / cm^3
# Si number density = 19.695988 Si / 1000 Ang^3
#
#
#
# Elastic Constant Matrix: (Units=GPa)
#
#
# Indices 1 2 3 4 5 6 
#
# 1 98.5719 39.4079 45.9091 0.0000 0.0000 0.0000
# 2 39.4079 69.4204 34.3689 0.0000 0.0000 0.0000
# 3 45.9091 34.3689 115.1500 0.0000 0.0000 0.0000
# 4 0.0000 0.0000 0.0000 -8.3728 0.0000 0.0000
# 5 0.0000 0.0000 0.0000 0.0000 -25.3913 0.0000
# 6 0.0000 0.0000 0.0000 0.0000 0.0000 5.5689
#
#
#
# Elastic Compliance Matrix: (Units=1/GPa)
#
#
# Indices 1 2 3 4 5 6 
#
# 1 0.014472 -0.006288 -0.003893 0.000000 0.000000 0.000000
# 2 -0.006288 0.019635 -0.003353 0.000000 0.000000 0.000000
# 3 -0.003893 -0.003353 0.011237 0.000000 0.000000 0.000000
# 4 0.000000 0.000000 0.000000 -0.119435 0.000000 0.000000
# 5 0.000000 0.000000 0.000000 0.000000 -0.039384 0.000000
# 6 0.000000 0.000000 0.000000 0.000000 0.000000 0.179568
#
#
# Mechanical properties :
#
#
# Convention : Reuss Voigt Hill
#
# Bulk Modulus (GPa) = 54.71913 58.05711 56.38812
# Shear Modulus (GPa) = 50.37589 5.25807 27.81698
#
# Velocity S-wave (km/s) = 5.06283 1.63567 3.76216
# Velocity P-wave (km/s) = 7.87518 5.75394 6.89661
#
# Compressibility (1/GPa) = 0.01827514
#
# Stress axis : x y z
#
# Youngs Moduli (GPa) = 69.09979 50.93031 88.98895
#
# Poissons Ratio (x) = 0.32024 0.34644
# Poissons Ratio (y) = 0.43449 0.29842
# Poissons Ratio (z) = 0.26901 0.17079
#
# Static dielectric constant tensor:
#      x y z
#    x 1.748940 0.000000 0.000000 
#    y 0.000000 1.705770 0.000000 
#    z 0.000000 0.000000 1.662440 
# 
# From -- ./inp_files/70049.got.cif
#   From: 2010.05.17/outbox.cif.g08.bks.cpg/sg65_36_cif.got.tgz:70049.got - 2010.06.03 17:01:31.
