data_PCOD9486987
_publ_section_title
;
Structure prediction by ZEFSAII (Michael W. Deem and Ramdas Pophale) SiO2 
 PCOD9486987
Probable space group: C M M M
;
_chemical_formula_sum "Si O2"
_cell_formula_units_Z 104
_cell_length_a 20.231495
_cell_length_b 33.335642
_cell_length_c 9.166920
_cell_angle_alpha 90.000000
_cell_angle_beta 90.000000
_cell_angle_gamma 90.000000
_cell_volume 6182.444705
_symmetry_space_group_name_H-M "C M M M"
_symmetry_group_IT_number 65
_symmetry_cell_setting 'orthorhombic'
loop_
_space_group_symop_operation_xyz
x,y,z
-x,-y,z
x,-y,-z
-x,y,-z
-x,-y,-z
x,y,-z
-x,y,z
x,-y,z
1/2+x,1/2+y,z
1/2-x,1/2-y,z
1/2+x,1/2-y,-z
1/2-x,1/2+y,-z
1/2-x,1/2-y,-z
1/2+x,1/2+y,-z
1/2-x,1/2+y,z
1/2+x,1/2-y,z
loop_
_atom_site_type_symbol
_atom_site_label
_atom_site_fract_x
_atom_site_fract_y
_atom_site_fract_z
Si Si1 0.576847 0.196337 0.174854
Si Si2 0.159591 0.931501 0.827178
Si Si3 0.153954 0.374054 0.327050
Si Si4 0.176603 0.767561 0.826268
Si Si5 0.306996 0.350917 0.673208
Si Si6 0.686862 0.954619 0.826712
Si Si7 0.578771 0.500000 0.329135
O O1 0.500000 0.203509 0.207954
O O2 0.603681 0.156665 0.253000
O O3 0.622842 0.234098 0.215849
O O4 0.583721 0.191120 0.000000
O O5 0.158402 0.887793 0.754959
O O6 0.234204 0.948471 0.806108
O O7 0.109660 0.961398 0.749096
O O8 0.147512 0.929583 0.000000
O O9 0.143901 0.375915 0.500000
O O10 0.228213 0.356944 0.299969
O O11 0.152241 0.418468 0.258464
O O12 0.250000 0.750000 0.801327
O O13 0.170716 0.808626 0.738170
O O14 0.170269 0.775433 0.000000
O O15 0.317778 0.353084 0.500000
O O16 0.669334 0.000000 0.781556
O O17 0.674220 0.950648 0.000000
O O18 0.500000 0.500000 0.317074
O O19 0.596991 0.500000 0.500000
#
# Coordination Sequence:
#
# PCOD9486987 Si02
#       7
#    16  16  16  16  16  16   8
#     4  10  21  37  56  78 106 141 180 221 268 322
#     4  10  19  34  54  77 104 138 181 224 266 316
#     4  10  20  32  50  79 110 141 175 214 264 319
#     4  10  19  33  55  80 105 139 182 228 270 316
#     4  10  20  33  52  80 110 139 174 221 275 324
#     4   9  17  31  52  79 108 136 171 218 267 313
#     4  11  23  37  53  75 107 145 182 223 274 329
#
# _framework density 16.821825
#
# number of rings (size 3 to 8) (size 9 to 14) (size 15 to 20)
#    0.000    2.077    2.308    1.615    0.000    4.000 
#    0.000    0.769    0.000    3.231    0.000    3.231 
#    0.000    0.000    0.000    0.000    0.000    0.000 
#
# Total GULP energy -290224.957300 kJ/mol
# GULP energy per Si atom -5581.249179 kJ/mol
# Density = 1.678354 g / cm^3
# Si number density = 16.821825 Si / 1000 Ang^3
#
#
#
# Elastic Constant Matrix: (Units=GPa)
#
#
# Indices 1 2 3 4 5 6 
#
# 1 78.8804 67.3150 54.1229 0.0000 0.0000 0.0000
# 2 67.3150 176.5313 77.3445 0.0000 0.0000 0.0000
# 3 54.1229 77.3445 67.0217 0.0000 0.0000 0.0000
# 4 0.0000 0.0000 0.0000 -23.5431 0.0000 0.0000
# 5 0.0000 0.0000 0.0000 0.0000 19.4380 0.0000
# 6 0.0000 0.0000 0.0000 0.0000 0.0000 20.3580
#
#
#
# Elastic Compliance Matrix: (Units=1/GPa)
#
#
# Indices 1 2 3 4 5 6 
#
# 1 0.028650 -0.001594 -0.021297 0.000000 0.000000 0.000000
# 2 -0.001594 0.011547 -0.012038 0.000000 0.000000 0.000000
# 3 -0.021297 -0.012038 0.046011 0.000000 0.000000 0.000000
# 4 0.000000 0.000000 0.000000 -0.042475 0.000000 0.000000
# 5 0.000000 0.000000 0.000000 0.000000 0.051446 0.000000
# 6 0.000000 0.000000 0.000000 0.000000 0.000000 0.049121
#
#
# Mechanical properties :
#
#
# Convention : Reuss Voigt Hill
#
# Bulk Modulus (GPa) = 61.16143 79.99978 70.58060
# Shear Modulus (GPa) = 22.76797 11.49398 17.13097
#
# Velocity S-wave (km/s) = 3.68296 2.61679 3.19467
# Velocity P-wave (km/s) = 7.38396 7.53595 7.46034
#
# Compressibility (1/GPa) = 0.01635017
#
# Stress axis : x y z
#
# Youngs Moduli (GPa) = 34.90362 86.60368 21.73409
#
# Poissons Ratio (x) = 0.13806 0.46286
# Poissons Ratio (y) = 0.05564 0.26163
# Poissons Ratio (z) = 0.74333 1.04254
#
# Static dielectric constant tensor:
#      x y z
#    x 1.549810 0.000000 0.000000 
#    y 0.000000 1.550280 0.000000 
#    z 0.000000 0.000000 1.554500 
# 
# From -- ./inp_files/12750.got.cif
#   From: 2010.05.17/outbox.cif.g08.bks.cpg/sg65_7_cif.got.tgz:12750.got - 2010.06.03 17:01:31.
