data_PCOD9486669
_publ_section_title
;
Structure prediction by ZEFSAII (Michael W. Deem and Ramdas Pophale) SiO2 
 PCOD9486669
Probable space group: C M M M
;
_chemical_formula_sum "Si O2"
_cell_formula_units_Z 80
_cell_length_a 29.831975
_cell_length_b 8.204738
_cell_length_c 14.542153
_cell_angle_alpha 90.000000
_cell_angle_beta 90.000000
_cell_angle_gamma 90.000000
_cell_volume 3559.388831
_symmetry_space_group_name_H-M "C M M M"
_symmetry_group_IT_number 65
_symmetry_cell_setting 'orthorhombic'
loop_
_space_group_symop_operation_xyz
x,y,z
-x,-y,z
x,-y,-z
-x,y,-z
-x,-y,-z
x,y,-z
-x,y,z
x,-y,z
1/2+x,1/2+y,z
1/2-x,1/2-y,z
1/2+x,1/2-y,-z
1/2-x,1/2+y,-z
1/2-x,1/2-y,-z
1/2+x,1/2+y,-z
1/2-x,1/2+y,z
1/2+x,1/2-y,z
loop_
_atom_site_type_symbol
_atom_site_label
_atom_site_fract_x
_atom_site_fract_y
_atom_site_fract_z
Si Si1 0.702466 0.314951 0.639454
Si Si2 0.947617 0.000000 0.112766
Si Si3 0.947936 0.500000 0.387387
Si Si4 0.298526 0.312985 0.138893
Si Si5 0.103875 0.812916 0.607084
Si Si6 0.895669 0.678773 0.892188
O O1 0.700077 0.500000 0.608357
O O2 0.750000 0.250000 0.606922
O O3 0.703087 0.309351 0.750171
O O4 0.654787 0.244546 0.611265
O O5 0.921648 0.837083 0.145043
O O6 0.000000 0.000000 0.138796
O O7 0.945764 0.000000 0.000000
O O8 0.942651 0.500000 0.500000
O O9 0.926238 0.668867 0.352849
O O10 0.000000 0.500000 0.366307
O O11 0.304973 0.500000 0.109787
O O12 0.250000 0.250000 0.106842
O O13 0.342266 0.211573 0.112419
O O14 0.091682 0.829209 0.500000
O O15 0.102099 0.000000 0.645677
O O16 0.905667 0.500000 0.851976
O O17 0.907660 0.671822 0.000000
#
# Coordination Sequence:
#
# PCOD9486669 Si02
#       6
#    16   8   8  16  16  16
#     4   9  19  32  49  75 102 137 176 206 247 302
#     4   9  18  34  56  79 104 134 167 210 260 304
#     4   9  18  32  52  77 100 128 169 212 256 304
#     4  10  19  33  51  74 105 139 176 211 249 304
#     4   9  18  33  51  75 105 133 166 209 256 300
#     4  10  20  34  53  79 106 133 170 212 256 304
#
# _framework density 22.475769
#
# number of rings (size 3 to 8) (size 9 to 14) (size 15 to 20)
#    0.000    2.600    1.000    0.600    1.400    2.400 
#    0.000    4.000    0.000    1.200    0.000    0.000 
#    0.000    0.000    0.000    0.000    0.000    0.000 
#
# Total GULP energy -223205.489334 kJ/mol
# GULP energy per Si atom -5580.137233 kJ/mol
# Density = 2.242461 g / cm^3
# Si number density = 22.475769 Si / 1000 Ang^3
#
#
#
# Elastic Constant Matrix: (Units=GPa)
#
#
# Indices 1 2 3 4 5 6 
#
# 1 162.0924 108.0272 -6.9772 0.0000 0.0000 0.0000
# 2 108.0272 181.6322 14.9612 0.0000 0.0000 0.0000
# 3 -6.9772 14.9612 63.2750 0.0000 0.0000 0.0000
# 4 0.0000 0.0000 0.0000 16.4810 0.0000 0.0000
# 5 0.0000 0.0000 0.0000 0.0000 21.2891 0.0000
# 6 0.0000 0.0000 0.0000 0.0000 0.0000 39.8698
#
#
#
# Elastic Compliance Matrix: (Units=1/GPa)
#
#
# Indices 1 2 3 4 5 6 
#
# 1 0.010663 -0.006567 0.002729 0.000000 0.000000 0.000000
# 2 -0.006567 0.009659 -0.003008 0.000000 0.000000 0.000000
# 3 0.002729 -0.003008 0.016816 0.000000 0.000000 0.000000
# 4 0.000000 0.000000 0.000000 0.060676 0.000000 0.000000
# 5 0.000000 0.000000 0.000000 0.000000 0.046972 0.000000
# 6 0.000000 0.000000 0.000000 0.000000 0.000000 0.025082
#
#
# Mechanical properties :
#
#
# Convention : Reuss Voigt Hill
#
# Bulk Modulus (GPa) = 42.65134 71.00246 56.82690
# Shear Modulus (GPa) = 26.12656 34.92721 30.52689
#
# Velocity S-wave (km/s) = 3.41315 3.94635 3.68939
# Velocity P-wave (km/s) = 5.87797 7.24045 6.59449
#
# Compressibility (1/GPa) = 0.02344592
#
# Stress axis : x y z
#
# Youngs Moduli (GPa) = 93.78014 103.52981 59.46674
#
# Poissons Ratio (x) = 0.67986 -0.16226
# Poissons Ratio (y) = 0.61584 0.17887
# Poissons Ratio (z) = -0.25588 0.31141
#
# Static dielectric constant tensor:
#      x y z
#    x 1.835500 0.000000 0.000000 
#    y 0.000000 1.828550 0.000000 
#    z 0.000000 0.000000 1.869910 
# 
# From -- ./inp_files/57251.got.cif
#   From: 2010.05.17/outbox.cif.g08.bks.cpg/sg65_29_cif.got.tgz:57251.got - 2010.06.03 17:01:31.
