data_PCOD9486385
_publ_section_title
;
Structure prediction by ZEFSAII (Michael W. Deem and Ramdas Pophale) SiO2 
 PCOD9486385
Probable space group: C M M M
;
_chemical_formula_sum "Si O2"
_cell_formula_units_Z 104
_cell_length_a 7.804415
_cell_length_b 30.677893
_cell_length_c 20.230375
_cell_angle_alpha 90.000000
_cell_angle_beta 90.000000
_cell_angle_gamma 90.000000
_cell_volume 4843.617241
_symmetry_space_group_name_H-M "C M M M"
_symmetry_group_IT_number 65
_symmetry_cell_setting 'orthorhombic'
loop_
_space_group_symop_operation_xyz
x,y,z
-x,-y,z
x,-y,-z
-x,y,-z
-x,-y,-z
x,y,-z
-x,y,z
x,-y,z
1/2+x,1/2+y,z
1/2-x,1/2-y,z
1/2+x,1/2-y,-z
1/2-x,1/2+y,-z
1/2-x,1/2-y,-z
1/2+x,1/2+y,-z
1/2-x,1/2+y,z
1/2+x,1/2-y,z
loop_
_atom_site_type_symbol
_atom_site_label
_atom_site_fract_x
_atom_site_fract_y
_atom_site_fract_z
Si Si1 0.706414 0.048980 0.244158
Si Si2 0.793347 0.608077 0.125506
Si Si3 0.294779 0.299545 0.693879
Si Si4 0.204083 0.049559 0.000000
Si Si5 0.709849 0.642137 0.571664
Si Si6 0.197199 0.700371 0.154543
Si Si7 0.700619 0.452466 0.395943
O O1 0.500000 0.052634 0.251539
O O2 0.769100 0.084687 0.192490
O O3 0.785335 0.052465 0.316701
O O4 0.742501 0.000000 0.218666
O O5 0.756007 0.577092 0.064128
O O6 0.723470 0.657463 0.120588
O O7 0.000000 0.610309 0.131385
O O8 0.500000 0.303445 0.700361
O O9 0.250000 0.250000 0.675309
O O10 0.232963 0.331482 0.636086
O O11 0.218200 0.307196 0.766554
O O12 0.000000 0.046514 0.000000
O O13 0.274269 0.000000 0.000000
O O14 0.757940 0.660956 0.500000
O O15 0.500000 0.641687 0.574405
O O16 0.771556 0.592202 0.575257
O O17 0.250000 0.750000 0.140665
O O18 0.000000 0.699753 0.136574
O O19 0.500000 0.453873 0.414210
O O20 0.775766 0.500000 0.413204
#
# Coordination Sequence:
#
# PCOD9486385 Si02
#       7
#    16  16  16   8  16  16  16
#     4   9  17  30  50  75 101 130 165 208 258 307
#     4  10  21  37  58  81 107 144 184 217 254 307
#     4  10  19  32  52  75 101 134 169 212 265 314
#     4  11  25  41  58  85 118 149 180 215 256 301
#     4   9  18  31  46  67  96 130 168 209 256 310
#     4  10  20  35  57  84 110 137 174 219 266 314
#     4   9  17  29  47  71  96 124 162 209 258 307
#
# _framework density 21.471557000000001
#
# number of rings (size 3 to 8) (size 9 to 14) (size 15 to 20)
#    0.000    2.385    0.000    3.462    0.000    3.692 
#    0.000    4.231    0.000    3.692    0.000    2.154 
#    0.000    0.000    0.000    0.000    0.000    0.000 
#
# Total GULP energy -290191.489158 kJ/mol
# GULP energy per Si atom -5580.605561 kJ/mol
# Density = 2.142269 g / cm^3
# Si number density = 21.471557 Si / 1000 Ang^3
#
#
#
# Elastic Constant Matrix: (Units=GPa)
#
#
# Indices 1 2 3 4 5 6 
#
# 1 20.7231 3.1255 -12.6433 0.0000 0.0000 0.0000
# 2 3.1255 163.5891 55.5939 0.0000 0.0000 0.0000
# 3 -12.6433 55.5939 53.4910 0.0000 0.0000 0.0000
# 4 0.0000 0.0000 0.0000 26.4407 0.0000 0.0000
# 5 0.0000 0.0000 0.0000 0.0000 15.2351 0.0000
# 6 0.0000 0.0000 0.0000 0.0000 0.0000 10.7902
#
#
#
# Elastic Compliance Matrix: (Units=1/GPa)
#
#
# Indices 1 2 3 4 5 6 
#
# 1 0.065642 -0.010091 0.026003 0.000000 0.000000 0.000000
# 2 -0.010091 0.011002 -0.013820 0.000000 0.000000 0.000000
# 3 0.026003 -0.013820 0.039204 0.000000 0.000000 0.000000
# 4 0.000000 0.000000 0.000000 0.037820 0.000000 0.000000
# 5 0.000000 0.000000 0.000000 0.000000 0.065638 0.000000
# 6 0.000000 0.000000 0.000000 0.000000 0.000000 0.092676
#
#
# Mechanical properties :
#
#
# Convention : Reuss Voigt Hill
#
# Bulk Modulus (GPa) = 8.33108 36.66169 22.49639
# Shear Modulus (GPa) = 14.37568 23.27501 18.82534
#
# Velocity S-wave (km/s) = 2.59032 3.29598 2.96422
# Velocity P-wave (km/s) = 3.58257 5.62105 4.71333
#
# Compressibility (1/GPa) = 0.12003249
#
# Stress axis : x y z
#
# Youngs Moduli (GPa) = 15.23417 90.89104 25.50759
#
# Poissons Ratio (x) = 0.91718 -0.66327
# Poissons Ratio (y) = 0.15373 0.35251
# Poissons Ratio (z) = -0.39613 1.25610
#
# Static dielectric constant tensor:
#      x y z
#    x 1.782680 0.000000 0.000000 
#    y 0.000000 1.749500 0.000000 
#    z 0.000000 0.000000 1.751950 
# 
# From -- ./inp_files/60844.got.cif
#   From: 2010.05.17/outbox.cif.g08.bks.cpg/sg65_31_cif.got.tgz:60844.got - 2010.06.03 17:01:31.
