data_PCOD9486418
_publ_section_title
;
Structure prediction by ZEFSAII (Michael W. Deem and Ramdas Pophale) SiO2 
 PCOD9486418
Probable space group: C M M M
;
_chemical_formula_sum "Si O2"
_cell_formula_units_Z 104
_cell_length_a 30.041850
_cell_length_b 8.209899
_cell_length_c 24.735019
_cell_angle_alpha 90.000000
_cell_angle_beta 90.000000
_cell_angle_gamma 90.000000
_cell_volume 6100.658796
_symmetry_space_group_name_H-M "C M M M"
_symmetry_group_IT_number 65
_symmetry_cell_setting 'orthorhombic'
loop_
_space_group_symop_operation_xyz
x,y,z
-x,-y,z
x,-y,-z
-x,y,-z
-x,-y,-z
x,y,-z
-x,y,z
x,-y,z
1/2+x,1/2+y,z
1/2-x,1/2-y,z
1/2+x,1/2-y,-z
1/2-x,1/2+y,-z
1/2-x,1/2-y,-z
1/2+x,1/2+y,-z
1/2-x,1/2+y,z
1/2+x,1/2-y,z
loop_
_atom_site_type_symbol
_atom_site_label
_atom_site_fract_x
_atom_site_fract_y
_atom_site_fract_z
Si Si1 0.946068 0.000000 0.561769
Si Si2 0.396668 0.693008 0.736760
Si Si3 0.675031 0.815765 0.114620
Si Si4 0.299792 0.310646 0.000000
Si Si5 0.500000 0.302608 0.062939
Si Si6 0.298184 0.803324 0.228797
Si Si7 0.919319 0.195551 0.857365
Si Si8 0.553300 0.814904 0.367137
O O1 0.933555 0.166486 0.593003
O O2 0.929906 0.000000 0.500000
O O3 0.000000 0.000000 0.560296
O O4 0.398533 0.500000 0.725523
O O5 0.344557 0.741256 0.745036
O O6 0.424064 0.720107 0.792833
O O7 0.419720 0.788238 0.688134
O O8 0.699354 0.738845 0.166492
O O9 0.623566 0.800596 0.128909
O O10 0.691092 0.000000 0.110915
O O11 0.679318 0.743716 0.055816
O O12 0.250000 0.250000 0.000000
O O13 0.300305 0.500000 0.000000
O O14 0.500000 0.500000 0.059736
O O15 0.457858 0.259027 0.100533
O O16 0.500000 0.244088 0.000000
O O17 0.250000 0.750000 0.251519
O O18 0.300269 0.000000 0.228540
O O19 0.910523 0.000000 0.864185
O O20 0.500000 0.799308 0.357302
O O21 0.560958 0.000000 0.387608
#
# Coordination Sequence:
#
# PCOD9486418 Si02
#       8
#     8  16  16   8   8  16  16  16
#     4   9  18  34  54  80 116 158 196 230 274 322
#     4  10  19  32  52  76 108 143 182 225 272 328
#     4  10  21  36  52  70  95 122 156 200 255 316
#     4  12  24  36  52  71  90 113 148 194 245 310
#     4   9  18  32  49  71  97 125 168 219 266 321
#     4  10  20  34  52  73 101 134 169 213 269 329
#     4   9  19  33  51  74  95 130 171 211 264 319
#     4  10  20  33  52  81 115 154 195 236 276 317
#
# _framework density 17.047339999999998
#
# number of rings (size 3 to 8) (size 9 to 14) (size 15 to 20)
#    0.000    2.154    0.769    2.538    2.154    4.000 
#    0.000    1.923    0.000    0.462    0.000    0.000 
#    0.000    0.615    0.308    0.000    0.000    0.000 
#
# Total GULP energy -289635.868823 kJ/mol
# GULP energy per Si atom -5569.920554 kJ/mol
# Density = 1.700854 g / cm^3
# Si number density = 17.047340 Si / 1000 Ang^3
#
#
#
# Elastic Constant Matrix: (Units=GPa)
#
#
# Indices 1 2 3 4 5 6 
#
# 1 56.8018 9.7524 27.8107 0.0000 0.0000 0.0000
# 2 9.7524 76.6634 44.4758 0.0000 0.0000 0.0000
# 3 27.8107 44.4758 97.2974 0.0000 0.0000 0.0000
# 4 0.0000 0.0000 0.0000 14.2857 0.0000 0.0000
# 5 0.0000 0.0000 0.0000 0.0000 9.2655 0.0000
# 6 0.0000 0.0000 0.0000 0.0000 0.0000 24.2844
#
#
#
# Elastic Compliance Matrix: (Units=1/GPa)
#
#
# Indices 1 2 3 4 5 6 
#
# 1 0.020535 0.001079 -0.006363 0.000000 0.000000 0.000000
# 2 0.001079 0.017808 -0.008449 0.000000 0.000000 0.000000
# 3 -0.006363 -0.008449 0.015959 0.000000 0.000000 0.000000
# 4 0.000000 0.000000 0.000000 0.070000 0.000000 0.000000
# 5 0.000000 0.000000 0.000000 0.000000 0.107927 0.000000
# 6 0.000000 0.000000 0.000000 0.000000 0.000000 0.041179
#
#
# Mechanical properties :
#
#
# Convention : Reuss Voigt Hill
#
# Bulk Modulus (GPa) = 37.26233 43.87116 40.56674
# Shear Modulus (GPa) = 16.13848 19.48203 17.81026
#
# Velocity S-wave (km/s) = 3.08016 3.38423 3.23577
# Velocity P-wave (km/s) = 5.87839 6.40792 6.14886
#
# Compressibility (1/GPa) = 0.02683675
#
# Stress axis : x y z
#
# Youngs Moduli (GPa) = 48.69713 56.15353 62.66237
#
# Poissons Ratio (x) = -0.06059 0.39871
# Poissons Ratio (y) = -0.05255 0.52942
# Poissons Ratio (z) = 0.30985 0.47443
#
# Static dielectric constant tensor:
#      x y z
#    x 1.366530 0.000000 0.000000 
#    y 0.000000 1.601770 0.000000 
#    z 0.000000 0.000000 1.457080 
# 
# From -- ./inp_files/68303.got.cif
#   From: 2010.05.17/outbox.cif.g08.bks.cpg/sg65_35_cif.got.tgz:68303.got - 2010.06.03 17:01:31.
