data_PCOD9486888
_publ_section_title
;
Structure prediction by ZEFSAII (Michael W. Deem and Ramdas Pophale) SiO2 
 PCOD9486888
Probable space group: C M M M
;
_chemical_formula_sum "Si O2"
_cell_formula_units_Z 88
_cell_length_a 8.428795
_cell_length_b 19.132361
_cell_length_c 29.032580
_cell_angle_alpha 90.000000
_cell_angle_beta 90.000000
_cell_angle_gamma 90.000000
_cell_volume 4681.873654
_symmetry_space_group_name_H-M "C M M M"
_symmetry_group_IT_number 65
_symmetry_cell_setting 'orthorhombic'
loop_
_space_group_symop_operation_xyz
x,y,z
-x,-y,z
x,-y,-z
-x,y,-z
-x,-y,-z
x,y,-z
-x,y,z
x,-y,z
1/2+x,1/2+y,z
1/2-x,1/2-y,z
1/2+x,1/2-y,-z
1/2-x,1/2+y,-z
1/2-x,1/2-y,-z
1/2+x,1/2+y,-z
1/2-x,1/2+y,z
1/2+x,1/2-y,z
loop_
_atom_site_type_symbol
_atom_site_label
_atom_site_fract_x
_atom_site_fract_y
_atom_site_fract_z
Si Si1 0.191944 0.170384 0.500000
Si Si2 0.311291 0.171439 0.222839
Si Si3 0.690430 0.671335 0.324303
Si Si4 0.192077 0.080125 0.138293
Si Si5 0.193713 0.080517 0.411399
Si Si6 0.691699 0.671437 0.948082
O O1 0.250000 0.250000 0.500000
O O2 0.244073 0.127529 0.454769
O O3 0.000000 0.171587 0.500000
O O4 0.500000 0.172626 0.223132
O O5 0.250000 0.250000 0.213803
O O6 0.250794 0.151145 0.273659
O O7 0.249842 0.120691 0.183253
O O8 0.500000 0.672813 0.323394
O O9 0.750000 0.750000 0.334069
O O10 0.742942 0.618386 0.364196
O O11 0.246434 0.120167 0.092205
O O12 0.000000 0.080931 0.138301
O O13 0.245080 0.000000 0.138440
O O14 0.000000 0.079580 0.411824
O O15 0.246242 0.000000 0.414638
O O16 0.500000 0.671726 0.947758
O O17 0.750000 0.750000 0.939044
O O18 0.743137 0.651720 0.000000
#
# Coordination Sequence:
#
# PCOD9486888 Si02
#       6
#     8  16  16  16  16  16
#     4  10  19  33  55  79 105 136 172 214 256 302
#     4  11  22  37  57  79 105 138 179 223 266 314
#     4  10  19  33  54  78 104 135 173 216 261 310
#     4  10  21  36  54  78 109 143 177 216 264 315
#     4   9  18  32  52  78 105 136 174 213 254 304
#     4   9  18  33  54  79 105 136 175 216 258 307
#
# _framework density 18.795894000000001
#
# number of rings (size 3 to 8) (size 9 to 14) (size 15 to 20)
#    0.000    2.182    0.000    4.636    0.000    4.727 
#    0.000    4.545    0.000    4.909    0.000    3.818 
#    0.000    0.000    0.000    0.000    0.000    0.000 
#
# Total GULP energy -245694.214871 kJ/mol
# GULP energy per Si atom -5583.959429 kJ/mol
# Density = 1.875311 g / cm^3
# Si number density = 18.795894 Si / 1000 Ang^3
#
#
#
# Elastic Constant Matrix: (Units=GPa)
#
#
# Indices 1 2 3 4 5 6 
#
# 1 28.8678 25.5891 29.0844 0.0000 0.0000 0.0000
# 2 25.5891 171.1687 153.9432 0.0000 0.0000 0.0000
# 3 29.0844 153.9432 195.4209 0.0000 0.0000 0.0000
# 4 0.0000 0.0000 0.0000 2.5781 0.0000 0.0000
# 5 0.0000 0.0000 0.0000 0.0000 1.6310 0.0000
# 6 0.0000 0.0000 0.0000 0.0000 0.0000 26.0309
#
#
#
# Elastic Compliance Matrix: (Units=1/GPa)
#
#
# Indices 1 2 3 4 5 6 
#
# 1 0.040991 -0.002200 -0.004368 0.000000 0.000000 0.000000
# 2 -0.002200 0.020158 -0.015552 0.000000 0.000000 0.000000
# 3 -0.004368 -0.015552 0.018019 0.000000 0.000000 0.000000
# 4 0.000000 0.000000 0.000000 0.387876 0.000000 0.000000
# 5 0.000000 0.000000 0.000000 0.000000 0.613122 0.000000
# 6 0.000000 0.000000 0.000000 0.000000 0.000000 0.038416
#
#
# Mechanical properties :
#
#
# Convention : Reuss Voigt Hill
#
# Bulk Modulus (GPa) = 28.63019 90.29899 59.46459
# Shear Modulus (GPa) = 4.25726 18.50407 11.38066
#
# Velocity S-wave (km/s) = 1.50662 3.14104 2.46333
# Velocity P-wave (km/s) = 4.27689 7.82949 6.30844
#
# Compressibility (1/GPa) = 0.03492817
#
# Stress axis : x y z
#
# Youngs Moduli (GPa) = 24.39552 49.60755 55.49837
#
# Poissons Ratio (x) = 0.10913 0.24241
# Poissons Ratio (y) = 0.05366 0.86313
# Poissons Ratio (z) = 0.10655 0.77151
#
# Static dielectric constant tensor:
#      x y z
#    x 1.647750 0.000000 0.000000 
#    y 0.000000 1.616550 0.000000 
#    z 0.000000 0.000000 1.645290 
# 
# From -- ./inp_files/76608.got.cif
#   From: 2010.05.17/outbox.cif.g08.bks.cpg/sg65_39_cif.got.tgz:76608.got - 2010.06.03 17:01:31.
