data_PCOD9486164
_publ_section_title
;
Structure prediction by ZEFSAII (Michael W. Deem and Ramdas Pophale) SiO2 
 PCOD9486164
Probable space group: C M M M
;
_chemical_formula_sum "Si O2"
_cell_formula_units_Z 104
_cell_length_a 10.531023
_cell_length_b 30.413026
_cell_length_c 19.170646
_cell_angle_alpha 90.000000
_cell_angle_beta 90.000000
_cell_angle_gamma 90.000000
_cell_volume 6139.979798
_symmetry_space_group_name_H-M "C M M M"
_symmetry_group_IT_number 65
_symmetry_cell_setting 'orthorhombic'
loop_
_space_group_symop_operation_xyz
x,y,z
-x,-y,z
x,-y,-z
-x,y,-z
-x,-y,-z
x,y,-z
-x,y,z
x,-y,z
1/2+x,1/2+y,z
1/2-x,1/2-y,z
1/2+x,1/2-y,-z
1/2-x,1/2+y,-z
1/2-x,1/2-y,-z
1/2+x,1/2+y,-z
1/2-x,1/2+y,z
1/2+x,1/2-y,z
loop_
_atom_site_type_symbol
_atom_site_label
_atom_site_fract_x
_atom_site_fract_y
_atom_site_fract_z
Si Si1 0.000000 0.947153 0.579138
Si Si2 0.765868 0.551845 0.352441
Si Si3 0.647222 0.136096 0.423041
Si Si4 0.846232 0.380435 0.078598
Si Si5 0.150918 0.289544 0.315315
Si Si6 0.851243 0.288523 0.150727
Si Si7 0.652458 0.050897 0.194918
O O1 0.124711 0.936494 0.622445
O O2 0.000000 0.929333 0.500000
O O3 0.000000 0.000000 0.572894
O O4 0.791386 0.500000 0.366513
O O5 0.847133 0.586175 0.396336
O O6 0.786958 0.559004 0.270468
O O7 0.707284 0.140355 0.500000
O O8 0.500000 0.147515 0.429806
O O9 0.693185 0.169714 0.363747
O O10 0.819855 0.331382 0.105415
O O11 0.802131 0.416027 0.135271
O O12 0.000000 0.384313 0.076921
O O13 0.799330 0.387778 0.000000
O O14 0.250000 0.250000 0.327840
O O15 0.157845 0.300627 0.232944
O O16 0.000000 0.278763 0.328172
O O17 0.750000 0.250000 0.137283
O O18 0.000000 0.276176 0.137882
O O19 0.500000 0.056321 0.203611
O O20 0.675311 0.000000 0.175627
#
# Coordination Sequence:
#
# PCOD9486164 Si02
#       7
#     8  16  16  16  16  16  16
#     4   9  18  32  48  66  93 129 165 205 250 290
#     4  10  19  32  50  71  97 130 165 203 247 296
#     4  10  20  32  48  71  98 128 160 198 247 300
#     4   9  17  29  47  72 102 134 163 194 240 296
#     4   9  18  34  53  71  96 128 165 209 254 297
#     4   9  17  30  50  73  96 127 163 202 247 297
#     4   9  17  29  48  74 100 127 163 205 245 289
#
# _framework density 16.938165999999999
#
# number of rings (size 3 to 8) (size 9 to 14) (size 15 to 20)
#    0.000    2.692    0.000    1.846    0.000    5.231 
#    1.385    2.308    5.077    0.000    0.000    0.000 
#    0.000    3.077    0.000    0.000    0.000    0.000 
#
# Total GULP energy -289475.620982 kJ/mol
# GULP energy per Si atom -5566.838865 kJ/mol
# Density = 1.689961 g / cm^3
# Si number density = 16.938166 Si / 1000 Ang^3
#
#
#
# Elastic Constant Matrix: (Units=GPa)
#
#
# Indices 1 2 3 4 5 6 
#
# 1 43.1311 25.5117 34.5250 0.0000 0.0000 0.0000
# 2 25.5117 53.8601 55.4059 0.0000 0.0000 0.0000
# 3 34.5250 55.4059 100.9371 0.0000 0.0000 0.0000
# 4 0.0000 0.0000 0.0000 13.9156 0.0000 0.0000
# 5 0.0000 0.0000 0.0000 0.0000 8.0960 0.0000
# 6 0.0000 0.0000 0.0000 0.0000 0.0000 19.6161
#
#
#
# Elastic Compliance Matrix: (Units=1/GPa)
#
#
# Indices 1 2 3 4 5 6 
#
# 1 0.033914 -0.009489 -0.006391 0.000000 0.000000 0.000000
# 2 -0.009489 0.045304 -0.021623 0.000000 0.000000 0.000000
# 3 -0.006391 -0.021623 0.023962 0.000000 0.000000 0.000000
# 4 0.000000 0.000000 0.000000 0.071862 0.000000 0.000000
# 5 0.000000 0.000000 0.000000 0.000000 0.123518 0.000000
# 6 0.000000 0.000000 0.000000 0.000000 0.000000 0.050978
#
#
# Mechanical properties :
#
#
# Convention : Reuss Voigt Hill
#
# Bulk Modulus (GPa) = 35.49303 47.64595 41.56949
# Shear Modulus (GPa) = 11.52243 13.82459 12.67351
#
# Velocity S-wave (km/s) = 2.61102 2.85999 2.73833
# Velocity P-wave (km/s) = 5.48542 6.25271 5.88159
#
# Compressibility (1/GPa) = 0.02817455
#
# Stress axis : x y z
#
# Youngs Moduli (GPa) = 29.48640 22.07293 41.73222
#
# Poissons Ratio (x) = 0.20945 0.26673
# Poissons Ratio (y) = 0.27980 0.90236
# Poissons Ratio (z) = 0.18846 0.47727
#
# Static dielectric constant tensor:
#      x y z
#    x 1.647580 0.000000 0.000000 
#    y 0.000000 1.563930 0.000000 
#    z 0.000000 0.000000 1.590880 
# 
# From -- ./inp_files/51932.got.cif
#   From: 2010.05.17/outbox.cif.g08.bks.cpg/sg65_26_cif.got.tgz:51932.got - 2010.06.03 17:01:31.
