data_PCOD9486932
_publ_section_title
;
Structure prediction by ZEFSAII (Michael W. Deem and Ramdas Pophale) SiO2 
 PCOD9486932
Probable space group: C M M M
;
_chemical_formula_sum "Si O2"
_cell_formula_units_Z 104
_cell_length_a 22.537431
_cell_length_b 8.892465
_cell_length_c 28.325216
_cell_angle_alpha 90.000000
_cell_angle_beta 90.000000
_cell_angle_gamma 90.000000
_cell_volume 5676.750475
_symmetry_space_group_name_H-M "C M M M"
_symmetry_group_IT_number 65
_symmetry_cell_setting 'orthorhombic'
loop_
_space_group_symop_operation_xyz
x,y,z
-x,-y,z
x,-y,-z
-x,y,-z
-x,-y,-z
x,y,-z
-x,y,z
x,-y,z
1/2+x,1/2+y,z
1/2-x,1/2-y,z
1/2+x,1/2-y,-z
1/2-x,1/2+y,-z
1/2-x,1/2-y,-z
1/2+x,1/2+y,-z
1/2-x,1/2+y,z
1/2+x,1/2-y,z
loop_
_atom_site_type_symbol
_atom_site_label
_atom_site_fract_x
_atom_site_fract_y
_atom_site_fract_z
Si Si1 0.814731 0.179754 0.550922
Si Si2 0.875786 0.319281 0.748874
Si Si3 0.428926 0.669721 0.000000
Si Si4 0.376542 0.820607 0.640594
Si Si5 0.500000 0.668867 0.756861
Si Si6 0.069009 0.681459 0.100320
Si Si7 0.812955 0.318870 0.158829
Si Si8 0.000000 0.829296 0.356885
O O1 0.845045 0.216709 0.500000
O O2 0.750000 0.250000 0.547947
O O3 0.840393 0.245400 0.598914
O O4 0.812333 0.000000 0.554270
O O5 0.881720 0.500000 0.748508
O O6 0.863151 0.271501 0.694840
O O7 0.938866 0.254679 0.766918
O O8 0.825680 0.277713 0.786464
O O9 0.415894 0.758422 0.951990
O O10 0.403914 0.500000 0.000000
O O11 0.500000 0.656704 0.000000
O O12 0.442835 0.765612 0.630598
O O13 0.370804 0.000000 0.638816
O O14 0.500000 0.500000 0.776600
O O15 0.500000 0.658586 0.699900
O O16 0.067394 0.500000 0.100737
O O17 0.125789 0.727299 0.132152
O O18 0.000000 0.730190 0.112484
O O19 0.808883 0.500000 0.155051
O O20 0.750000 0.250000 0.143006
O O21 0.000000 0.000000 0.375887
#
# Coordination Sequence:
#
# PCOD9486932 Si02
#       8
#    16  16   8  16   8  16  16   8
#     4  10  21  37  56  77 101 131 169 217 270 322
#     4   9  19  34  53  76 106 145 183 219 264 322
#     4   9  17  31  54  85 116 141 171 225 286 325
#     4  10  19  33  54  80 107 138 176 218 265 319
#     4   9  17  29  49  78 104 132 174 225 268 305
#     4   9  18  34  58  84 108 142 188 229 268 324
#     4  10  22  38  55  77 111 151 187 229 278 325
#     4   9  17  31  50  74 107 139 170 209 258 311
#
# _framework density 18.320340000000002
#
# number of rings (size 3 to 8) (size 9 to 14) (size 15 to 20)
#    0.000    2.538    0.000    1.615    1.077    6.154 
#    0.000    2.308    0.000    2.308    0.000    0.000 
#    0.000    0.000    0.000    0.000    0.000    0.000 
#
# Total GULP energy -289498.474196 kJ/mol
# GULP energy per Si atom -5567.278350 kJ/mol
# Density = 1.827864 g / cm^3
# Si number density = 18.320340 Si / 1000 Ang^3
#
#
#
# Elastic Constant Matrix: (Units=GPa)
#
#
# Indices 1 2 3 4 5 6 
#
# 1 105.1795 22.6411 68.1730 0.0000 0.0000 0.0000
# 2 22.6411 31.5854 31.6236 0.0000 0.0000 0.0000
# 3 68.1730 31.6236 116.7750 0.0000 0.0000 0.0000
# 4 0.0000 0.0000 0.0000 17.3249 0.0000 0.0000
# 5 0.0000 0.0000 0.0000 0.0000 30.0797 0.0000
# 6 0.0000 0.0000 0.0000 0.0000 0.0000 29.0223
#
#
#
# Elastic Compliance Matrix: (Units=1/GPa)
#
#
# Indices 1 2 3 4 5 6 
#
# 1 0.015475 -0.002809 -0.008273 0.000000 0.000000 0.000000
# 2 -0.002809 0.043948 -0.010261 0.000000 0.000000 0.000000
# 3 -0.008273 -0.010261 0.016172 0.000000 0.000000 0.000000
# 4 0.000000 0.000000 0.000000 0.057720 0.000000 0.000000
# 5 0.000000 0.000000 0.000000 0.000000 0.033245 0.000000
# 6 0.000000 0.000000 0.000000 0.000000 0.000000 0.034456
#
#
# Mechanical properties :
#
#
# Convention : Reuss Voigt Hill
#
# Bulk Modulus (GPa) = 30.38882 55.37948 42.88415
# Shear Modulus (GPa) = 19.63300 24.02552 21.82926
#
# Velocity S-wave (km/s) = 3.27716 3.62527 3.45560
# Velocity P-wave (km/s) = 5.56266 6.91502 6.27538
#
# Compressibility (1/GPa) = 0.03290683
#
# Stress axis : x y z
#
# Youngs Moduli (GPa) = 64.62146 22.75428 61.83411
#
# Poissons Ratio (x) = 0.06392 0.51158
# Poissons Ratio (y) = 0.18154 0.63450
# Poissons Ratio (z) = 0.53464 0.23349
#
# Static dielectric constant tensor:
#      x y z
#    x 1.613600 0.000000 0.000000 
#    y 0.000000 1.630510 0.000000 
#    z 0.000000 0.000000 1.663760 
# 
# From -- ./inp_files/75874.got.cif
#   From: 2010.05.17/outbox.cif.g08.bks.cpg/sg65_38_cif.got.tgz:75874.got - 2010.06.03 17:01:31.
