data_PCOD9486740
_publ_section_title
;
Structure prediction by ZEFSAII (Michael W. Deem and Ramdas Pophale) SiO2 
 PCOD9486740
Probable space group: C M M M
;
_chemical_formula_sum "Si O2"
_cell_formula_units_Z 96
_cell_length_a 29.640482
_cell_length_b 7.596008
_cell_length_c 21.440239
_cell_angle_alpha 90.000000
_cell_angle_beta 90.000000
_cell_angle_gamma 90.000000
_cell_volume 4827.255626
_symmetry_space_group_name_H-M "C M M M"
_symmetry_group_IT_number 65
_symmetry_cell_setting 'orthorhombic'
loop_
_space_group_symop_operation_xyz
x,y,z
-x,-y,z
x,-y,-z
-x,y,-z
-x,-y,-z
x,y,-z
-x,y,z
x,-y,z
1/2+x,1/2+y,z
1/2-x,1/2-y,z
1/2+x,1/2-y,-z
1/2-x,1/2+y,-z
1/2-x,1/2-y,-z
1/2+x,1/2+y,-z
1/2-x,1/2+y,z
1/2+x,1/2-y,z
loop_
_atom_site_type_symbol
_atom_site_label
_atom_site_fract_x
_atom_site_fract_y
_atom_site_fract_z
Si Si1 0.197988 0.788452 0.429705
Si Si2 0.050152 0.709917 0.745550
Si Si3 0.697322 0.711207 0.808608
Si Si4 0.549867 0.705416 0.110404
Si Si5 0.146129 0.215812 0.068394
Si Si6 0.356712 0.710512 0.688025
O O1 0.190040 0.720200 0.500000
O O2 0.250000 0.750000 0.412900
O O3 0.164697 0.720810 0.376099
O O4 0.193387 0.000000 0.432389
O O5 0.049811 0.500000 0.752555
O O6 0.057902 0.785288 0.814970
O O7 0.090669 0.757132 0.699890
O O8 0.000000 0.767178 0.725257
O O9 0.691795 0.500000 0.808877
O O10 0.750000 0.750000 0.804001
O O11 0.675911 0.776586 0.873354
O O12 0.670284 0.779791 0.748453
O O13 0.500000 0.782737 0.098076
O O14 0.547555 0.500000 0.092774
O O15 0.594517 0.777593 0.078120
O O16 0.145533 0.000000 0.070096
O O17 0.162711 0.268181 0.000000
O O18 0.350225 0.500000 0.687145
#
# Coordination Sequence:
#
# PCOD9486740 Si02
#       6
#    16  16  16  16  16  16
#     4   9  18  32  51  77 108 138 167 201 243 291
#     4  10  20  32  49  75 103 128 159 201 247 293
#     4  10  20  33  48  69  94 124 162 203 244 284
#     4   9  16  29  50  72  95 124 158 197 246 299
#     4   9  17  30  47  68  96 126 159 201 243 287
#     4  10  19  33  53  75 100 130 165 202 241 287
#
# _framework density 19.887077000000001
#
# number of rings (size 3 to 8) (size 9 to 14) (size 15 to 20)
#    0.000    2.500    1.667    1.000    0.000    3.000 
#    0.000    1.667    0.000    2.000    0.000    5.833 
#    0.000    0.000    0.000    0.000    0.000    0.000 
#
# Total GULP energy -267864.322399 kJ/mol
# GULP energy per Si atom -5580.506717 kJ/mol
# Density = 1.984181 g / cm^3
# Si number density = 19.887077 Si / 1000 Ang^3
#
#
#
# Elastic Constant Matrix: (Units=GPa)
#
#
# Indices 1 2 3 4 5 6 
#
# 1 127.2876 -5.5168 80.7998 0.0000 0.0000 0.0000
# 2 -5.5168 42.2905 7.4754 0.0000 0.0000 0.0000
# 3 80.7998 7.4754 121.3545 0.0000 0.0000 0.0000
# 4 0.0000 0.0000 0.0000 -6.7968 0.0000 0.0000
# 5 0.0000 0.0000 0.0000 0.0000 10.3424 0.0000
# 6 0.0000 0.0000 0.0000 0.0000 0.0000 17.7284
#
#
#
# Elastic Compliance Matrix: (Units=1/GPa)
#
#
# Indices 1 2 3 4 5 6 
#
# 1 0.014113 0.003541 -0.009615 0.000000 0.000000 0.000000
# 2 0.003541 0.024794 -0.003885 0.000000 0.000000 0.000000
# 3 -0.009615 -0.003885 0.014881 0.000000 0.000000 0.000000
# 4 0.000000 0.000000 0.000000 -0.147129 0.000000 0.000000
# 5 0.000000 0.000000 0.000000 0.000000 0.096690 0.000000
# 6 0.000000 0.000000 0.000000 0.000000 0.000000 0.056407
#
#
# Mechanical properties :
#
#
# Convention : Reuss Voigt Hill
#
# Bulk Modulus (GPa) = 29.52383 50.71662 40.12022
# Shear Modulus (GPa) = 54.96657 18.13307 36.54982
#
# Velocity S-wave (km/s) = 5.26302 3.02288 4.29169
# Velocity P-wave (km/s) = 7.19795 6.14340 6.69148
#
# Compressibility (1/GPa) = 0.03387095
#
# Stress axis : x y z
#
# Youngs Moduli (GPa) = 70.85701 40.33155 67.19861
#
# Poissons Ratio (x) = -0.14280 0.64610
# Poissons Ratio (y) = -0.25087 0.26105
# Poissons Ratio (z) = 0.68127 0.15668
#
# Static dielectric constant tensor:
#      x y z
#    x 1.694330 0.000000 0.000000 
#    y 0.000000 1.731690 0.000000 
#    z 0.000000 0.000000 1.701310 
# 
# From -- ./inp_files/60183.got.cif
#   From: 2010.05.17/outbox.cif.g08.bks.cpg/sg65_31_cif.got.tgz:60183.got - 2010.06.03 17:01:31.
