data_PCOD9486060
_publ_section_title
;
Structure prediction by ZEFSAII (Michael W. Deem and Ramdas Pophale) SiO2 
 PCOD9486060
Probable space group: C M M M
;
_chemical_formula_sum "Si O2"
_cell_formula_units_Z 80
_cell_length_a 24.239480
_cell_length_b 26.457098
_cell_length_c 8.876304
_cell_angle_alpha 90.000000
_cell_angle_beta 90.000000
_cell_angle_gamma 90.000000
_cell_volume 5692.429657
_symmetry_space_group_name_H-M "C M M M"
_symmetry_group_IT_number 65
_symmetry_cell_setting 'orthorhombic'
loop_
_space_group_symop_operation_xyz
x,y,z
-x,-y,z
x,-y,-z
-x,y,-z
-x,-y,-z
x,y,-z
-x,y,z
x,-y,z
1/2+x,1/2+y,z
1/2-x,1/2-y,z
1/2+x,1/2-y,-z
1/2-x,1/2+y,-z
1/2-x,1/2-y,-z
1/2+x,1/2+y,-z
1/2-x,1/2+y,z
1/2+x,1/2-y,z
loop_
_atom_site_type_symbol
_atom_site_label
_atom_site_fract_x
_atom_site_fract_y
_atom_site_fract_z
Si Si1 0.218525 0.195816 0.826783
Si Si2 0.616177 0.058714 0.819406
Si Si3 0.115617 0.257016 0.181485
Si Si4 0.500000 0.223132 0.320430
Si Si5 0.000000 0.387925 0.179697
Si Si6 0.181084 0.351776 0.321747
O O1 0.250000 0.250000 0.826292
O O2 0.156924 0.211008 0.778296
O O3 0.256041 0.159604 0.726824
O O4 0.218074 0.177947 0.000000
O O5 0.554925 0.080184 0.787388
O O6 0.659322 0.094667 0.736295
O O7 0.620137 0.000000 0.777546
O O8 0.624237 0.062872 0.000000
O O9 0.143475 0.308646 0.242504
O O10 0.055314 0.253038 0.251284
O O11 0.113341 0.260164 0.000000
O O12 0.500000 0.226539 0.500000
O O13 0.500000 0.164352 0.269521
O O14 0.000000 0.376143 0.000000
O O15 0.174838 0.347137 0.500000
#
# Coordination Sequence:
#
# PCOD9486060 Si02
#       6
#    16  16  16   8   8  16
#     4   8  16  30  47  63  80 107 143 176 211 259
#     4  10  20  33  48  63  81 112 154 192 225 264
#     4  10  19  32  47  62  83 114 147 178 212 258
#     4  12  22  29  43  67  91 115 143 181 226 262
#     4  10  19  32  48  60  79 113 150 189 227 263
#     4  11  20  29  44  65  88 110 137 181 229 265
#
# _framework density 14.053753
#
# number of rings (size 3 to 8) (size 9 to 14) (size 15 to 20)
#    0.000    2.000    2.000    4.800    0.000    6.000 
#    0.000    0.000    0.000    1.800    0.000    0.000 
#    0.000    0.000    0.000    0.900    0.000   17.400 
#
# Total GULP energy -223113.883376 kJ/mol
# GULP energy per Si atom -5577.847084 kJ/mol
# Density = 1.402177 g / cm^3
# Si number density = 14.053753 Si / 1000 Ang^3
#
#
#
# Elastic Constant Matrix: (Units=GPa)
#
#
# Indices 1 2 3 4 5 6 
#
# 1 125.3478 53.6145 56.7278 0.0000 0.0000 0.0000
# 2 53.6145 52.7005 39.4130 0.0000 0.0000 0.0000
# 3 56.7278 39.4130 68.7533 0.0000 0.0000 0.0000
# 4 0.0000 0.0000 0.0000 -30.5885 0.0000 0.0000
# 5 0.0000 0.0000 0.0000 0.0000 12.3341 0.0000
# 6 0.0000 0.0000 0.0000 0.0000 0.0000 13.1894
#
#
#
# Elastic Compliance Matrix: (Units=1/GPa)
#
#
# Indices 1 2 3 4 5 6 
#
# 1 0.015683 -0.010989 -0.006641 0.000000 0.000000 0.000000
# 2 -0.010989 0.040915 -0.014388 0.000000 0.000000 0.000000
# 3 -0.006641 -0.014388 0.028272 0.000000 0.000000 0.000000
# 4 0.000000 0.000000 0.000000 -0.032692 0.000000 0.000000
# 5 0.000000 0.000000 0.000000 0.000000 0.081076 0.000000
# 6 0.000000 0.000000 0.000000 0.000000 0.000000 0.075818
#
#
# Mechanical properties :
#
#
# Convention : Reuss Voigt Hill
#
# Bulk Modulus (GPa) = 47.99568 60.70135 54.34852
# Shear Modulus (GPa) = 17.85383 5.45676 11.65530
#
# Velocity S-wave (km/s) = 3.56813 1.97261 2.88295
# Velocity P-wave (km/s) = 7.15549 6.96235 7.05958
#
# Compressibility (1/GPa) = 0.02083521
#
# Stress axis : x y z
#
# Youngs Moduli (GPa) = 63.76131 24.44109 35.37098
#
# Poissons Ratio (x) = 0.26858 0.23489
# Poissons Ratio (y) = 0.70067 0.50890
# Poissons Ratio (z) = 0.42343 0.35165
#
# Static dielectric constant tensor:
#      x y z
#    x 1.483180 0.000000 0.000000 
#    y 0.000000 1.434600 0.000000 
#    z 0.000000 0.000000 1.465240 
# 
# From -- ./inp_files/14518.got.cif
#   From: 2010.05.17/outbox.cif.g08.bks.cpg/sg65_8_cif.got.tgz:14518.got - 2010.06.03 17:01:31.
