data_PCOD9486655
_publ_section_title
;
Structure prediction by ZEFSAII (Michael W. Deem and Ramdas Pophale) SiO2 
 PCOD9486655
Probable space group: C M M M
;
_chemical_formula_sum "Si O2"
_cell_formula_units_Z 120
_cell_length_a 13.683569
_cell_length_b 23.633693
_cell_length_c 20.382012
_cell_angle_alpha 90.000000
_cell_angle_beta 90.000000
_cell_angle_gamma 90.000000
_cell_volume 6591.405487
_symmetry_space_group_name_H-M "C M M M"
_symmetry_group_IT_number 65
_symmetry_cell_setting 'orthorhombic'
loop_
_space_group_symop_operation_xyz
x,y,z
-x,-y,z
x,-y,-z
-x,y,-z
-x,-y,-z
x,y,-z
-x,y,z
x,-y,z
1/2+x,1/2+y,z
1/2-x,1/2-y,z
1/2+x,1/2-y,-z
1/2-x,1/2+y,-z
1/2-x,1/2-y,-z
1/2+x,1/2+y,-z
1/2-x,1/2+y,z
1/2+x,1/2-y,z
loop_
_atom_site_type_symbol
_atom_site_label
_atom_site_fract_x
_atom_site_fract_y
_atom_site_fract_z
Si Si1 0.615824 0.216481 0.391337
Si Si2 0.616261 0.743697 0.253506
Si Si3 0.730043 0.151711 0.929058
Si Si4 0.190165 0.065870 0.162267
Si Si5 0.117632 0.884578 0.293835
Si Si6 0.809189 0.158435 0.427073
Si Si7 0.500000 0.431760 0.075076
Si Si8 0.386442 0.747113 0.895378
O O1 0.500000 0.204017 0.398805
O O2 0.647786 0.218469 0.314584
O O3 0.694143 0.174826 0.423623
O O4 0.635714 0.280835 0.416076
O O5 0.500000 0.747310 0.256446
O O6 0.639309 0.678538 0.267082
O O7 0.643517 0.758053 0.180239
O O8 0.730833 0.107913 0.869221
O O9 0.637904 0.193621 0.928775
O O10 0.819565 0.196388 0.921354
O O11 0.739097 0.122647 0.000000
O O12 0.165358 0.075802 0.238636
O O13 0.094308 0.082224 0.118903
O O14 0.211876 0.000000 0.151321
O O15 0.159013 0.882582 0.367829
O O16 0.000000 0.892874 0.295101
O O17 0.832914 0.137667 0.500000
O O18 0.500000 0.500000 0.069994
O O19 0.500000 0.409449 0.000000
O O20 0.500000 0.731841 0.899287
#
# Coordination Sequence:
#
# PCOD9486655 Si02
#       8
#    16  16  16  16  16  16   8  16
#     4   9  17  28  45  70 104 140 178 218 258 311
#     4   8  15  27  45  71  98 136 175 206 253 305
#     4  11  24  35  52  82 109 144 185 220 273 329
#     4  11  22  37  56  78 106 139 181 230 276 323
#     4  10  19  33  51  72 101 137 175 213 256 318
#     4  10  20  29  45  73 103 141 178 211 262 315
#     4   9  18  32  52  78 105 131 163 213 275 325
#     4  10  20  35  54  77 113 149 181 220 263 324
#
# _framework density 18.205525999999999
#
# number of rings (size 3 to 8) (size 9 to 14) (size 15 to 20)
#    0.000    2.200    2.000    3.200    2.800    4.800 
#    0.000    0.000    0.000    0.800    0.000    1.867 
#    0.000    0.000    0.000    1.200    0.000    0.000 
#
# Total GULP energy -334497.140484 kJ/mol
# GULP energy per Si atom -5574.952341 kJ/mol
# Density = 1.816409 g / cm^3
# Si number density = 18.205526 Si / 1000 Ang^3
#
#
#
# Elastic Constant Matrix: (Units=GPa)
#
#
# Indices 1 2 3 4 5 6 
#
# 1 63.2006 3.2976 4.8243 0.0000 0.0000 0.0000
# 2 3.2976 45.0907 19.6650 0.0000 0.0000 0.0000
# 3 4.8243 19.6650 138.7556 0.0000 0.0000 0.0000
# 4 0.0000 0.0000 0.0000 15.8216 0.0000 0.0000
# 5 0.0000 0.0000 0.0000 0.0000 18.6965 0.0000
# 6 0.0000 0.0000 0.0000 0.0000 0.0000 14.1038
#
#
#
# Elastic Compliance Matrix: (Units=1/GPa)
#
#
# Indices 1 2 3 4 5 6 
#
# 1 0.015905 -0.000983 -0.000414 0.000000 0.000000 0.000000
# 2 -0.000983 0.023699 -0.003325 0.000000 0.000000 0.000000
# 3 -0.000414 -0.003325 0.007692 0.000000 0.000000 0.000000
# 4 0.000000 0.000000 0.000000 0.063205 0.000000 0.000000
# 5 0.000000 0.000000 0.000000 0.000000 0.053486 0.000000
# 6 0.000000 0.000000 0.000000 0.000000 0.000000 0.070903
#
#
# Mechanical properties :
#
#
# Convention : Reuss Voigt Hill
#
# Bulk Modulus (GPa) = 26.41651 33.62452 30.02052
# Shear Modulus (GPa) = 19.45895 24.34173 21.90034
#
# Velocity S-wave (km/s) = 3.27287 3.66054 3.47212
# Velocity P-wave (km/s) = 5.36879 6.03121 5.70962
#
# Compressibility (1/GPa) = 0.03785511
#
# Stress axis : x y z
#
# Youngs Moduli (GPa) = 62.87138 42.19532 129.99715
#
# Poissons Ratio (x) = 0.04147 0.05378
# Poissons Ratio (y) = 0.06179 0.43219
# Poissons Ratio (z) = 0.02601 0.14028
#
# Static dielectric constant tensor:
#      x y z
#    x 1.656950 0.000000 0.000000 
#    y 0.000000 1.594140 0.000000 
#    z 0.000000 0.000000 1.705610 
# 
# From -- ./inp_files/63123.got.cif
#   From: 2010.05.17/outbox.cif.g08.bks.cpg/sg65_32_cif.got.tgz:63123.got - 2010.06.03 17:01:31.
