data_PCOD9486745
_publ_section_title
;
Structure prediction by ZEFSAII (Michael W. Deem and Ramdas Pophale) SiO2 
 PCOD9486745
Probable space group: C M M M
;
_chemical_formula_sum "Si O2"
_cell_formula_units_Z 88
_cell_length_a 9.052810
_cell_length_b 17.633243
_cell_length_c 30.043668
_cell_angle_alpha 90.000000
_cell_angle_beta 90.000000
_cell_angle_gamma 90.000000
_cell_volume 4795.882697
_symmetry_space_group_name_H-M "C M M M"
_symmetry_group_IT_number 65
_symmetry_cell_setting 'orthorhombic'
loop_
_space_group_symop_operation_xyz
x,y,z
-x,-y,z
x,-y,-z
-x,y,-z
-x,-y,-z
x,y,-z
-x,y,z
x,-y,z
1/2+x,1/2+y,z
1/2-x,1/2-y,z
1/2+x,1/2-y,-z
1/2-x,1/2+y,-z
1/2-x,1/2-y,-z
1/2+x,1/2+y,-z
1/2-x,1/2+y,z
1/2+x,1/2-y,z
loop_
_atom_site_type_symbol
_atom_site_label
_atom_site_fract_x
_atom_site_fract_y
_atom_site_fract_z
Si Si1 0.176888 0.833184 0.278375
Si Si2 0.829822 0.590434 0.000000
Si Si3 0.322140 0.333672 0.084019
Si Si4 0.327424 0.592283 0.549218
Si Si5 0.676836 0.332880 0.181369
Si Si6 0.331022 0.908508 0.638692
O O1 0.250000 0.750000 0.280343
O O2 0.215534 0.867761 0.229444
O O3 0.237621 0.880308 0.319570
O O4 0.000000 0.826732 0.281213
O O5 0.746648 0.619963 0.956298
O O6 0.830352 0.500000 0.000000
O O7 0.000000 0.617898 0.000000
O O8 0.500000 0.328585 0.079699
O O9 0.250000 0.250000 0.082374
O O10 0.285990 0.367663 0.133209
O O11 0.276202 0.617248 0.500000
O O12 0.500000 0.612396 0.554158
O O13 0.320789 0.500000 0.549177
O O14 0.235814 0.618846 0.591693
O O15 0.500000 0.323630 0.181371
O O16 0.750000 0.250000 0.181376
O O17 0.500000 0.883180 0.643346
O O18 0.328531 0.000000 0.637956
#
# Coordination Sequence:
#
# PCOD9486745 Si02
#       6
#    16   8  16  16  16  16
#     4  10  19  33  53  75 101 132 166 203 246 296
#     4  11  24  39  52  71 103 139 172 205 246 295
#     4  10  19  34  57  81 103 128 164 207 249 293
#     4   8  14  26  45  68  93 123 161 204 249 295
#     4   8  16  30  50  76 100 125 160 203 246 289
#     4  10  20  32  47  71 102 133 167 206 246 291
#
# _framework density 18.349073000000001
#
# number of rings (size 3 to 8) (size 9 to 14) (size 15 to 20)
#    0.000    2.636    0.000    2.727    0.000    3.636 
#    0.000    2.727    0.000    6.000    0.000    0.000 
#    0.000    0.000    0.000    0.000    0.000    0.000 
#
# Total GULP energy -245101.946954 kJ/mol
# GULP energy per Si atom -5570.498794 kJ/mol
# Density = 1.830731 g / cm^3
# Si number density = 18.349073 Si / 1000 Ang^3
#
#
#
# Elastic Constant Matrix: (Units=GPa)
#
#
# Indices 1 2 3 4 5 6 
#
# 1 88.2129 16.8248 81.7918 0.0000 0.0000 0.0000
# 2 16.8248 11.7051 28.4485 0.0000 0.0000 0.0000
# 3 81.7918 28.4485 212.3168 0.0000 0.0000 0.0000
# 4 0.0000 0.0000 0.0000 -1.3209 0.0000 0.0000
# 5 0.0000 0.0000 0.0000 0.0000 29.5889 0.0000
# 6 0.0000 0.0000 0.0000 0.0000 0.0000 20.5987
#
#
#
# Elastic Compliance Matrix: (Units=1/GPa)
#
#
# Indices 1 2 3 4 5 6 
#
# 1 0.019104 -0.014196 -0.005457 0.000000 0.000000 0.000000
# 2 -0.014196 0.137239 -0.012920 0.000000 0.000000 0.000000
# 3 -0.005457 -0.012920 0.008543 0.000000 0.000000 0.000000
# 4 0.000000 0.000000 0.000000 -0.757083 0.000000 0.000000
# 5 0.000000 0.000000 0.000000 0.000000 0.033796 0.000000
# 6 0.000000 0.000000 0.000000 0.000000 0.000000 0.048547
#
#
# Mechanical properties :
#
#
# Convention : Reuss Voigt Hill
#
# Bulk Modulus (GPa) = 10.02610 62.92942 36.47776
# Shear Modulus (GPa) = -12.15182 22.11801 4.98309
#
# Velocity S-wave (km/s) = -2.57623 3.47566 1.64973
# Velocity P-wave (km/s) = 1.83666 7.10472 4.85303
#
# Compressibility (1/GPa) = 0.09973969
#
# Stress axis : x y z
#
# Youngs Moduli (GPa) = 52.34534 7.28657 117.04860
#
# Poissons Ratio (x) = 0.10344 0.63878
# Poissons Ratio (y) = 0.74309 1.51226
# Poissons Ratio (z) = 0.28567 0.09414
#
# Static dielectric constant tensor:
#      x y z
#    x 1.613340 0.000000 0.000000 
#    y 0.000000 1.615490 0.000000 
#    z 0.000000 0.000000 1.677250 
# 
# From -- ./inp_files/76676.got.cif
#   From: 2010.05.17/outbox.cif.g08.bks.cpg/sg65_39_cif.got.tgz:76676.got - 2010.06.03 17:01:31.
