data_PCOD9486421
_publ_section_title
;
Structure prediction by ZEFSAII (Michael W. Deem and Ramdas Pophale) SiO2 
 PCOD9486421
Probable space group: C M M M
;
_chemical_formula_sum "Si O2"
_cell_formula_units_Z 104
_cell_length_a 26.205274
_cell_length_b 24.666404
_cell_length_c 7.545580
_cell_angle_alpha 90.000000
_cell_angle_beta 90.000000
_cell_angle_gamma 90.000000
_cell_volume 4877.386516
_symmetry_space_group_name_H-M "C M M M"
_symmetry_group_IT_number 65
_symmetry_cell_setting 'orthorhombic'
loop_
_space_group_symop_operation_xyz
x,y,z
-x,-y,z
x,-y,-z
-x,y,-z
-x,-y,-z
x,y,-z
-x,y,z
x,-y,z
1/2+x,1/2+y,z
1/2-x,1/2-y,z
1/2+x,1/2-y,-z
1/2-x,1/2+y,-z
1/2-x,1/2-y,-z
1/2+x,1/2+y,-z
1/2-x,1/2+y,z
1/2+x,1/2-y,z
loop_
_atom_site_type_symbol
_atom_site_label
_atom_site_fract_x
_atom_site_fract_y
_atom_site_fract_z
Si Si1 0.242155 0.171138 0.301104
Si Si2 0.150015 0.279156 0.213094
Si Si3 0.894434 0.392030 0.215698
Si Si4 0.209014 0.558522 0.214436
Si Si5 0.440179 0.437695 0.784147
Si Si6 0.500000 0.937879 0.782767
Si Si7 0.873000 0.164665 0.797609
O O1 0.227791 0.186202 0.500000
O O2 0.289357 0.210045 0.244927
O O3 0.264938 0.110749 0.294705
O O4 0.188995 0.163703 0.198328
O O5 0.123164 0.333363 0.279358
O O6 0.122711 0.224999 0.284363
O O7 0.145565 0.276946 0.000000
O O8 0.850592 0.435092 0.258333
O O9 0.949191 0.409051 0.279218
O O10 0.895647 0.389531 0.000000
O O11 0.228933 0.500000 0.269814
O O12 0.213959 0.562608 0.000000
O O13 0.500000 0.427256 0.736853
O O14 0.427518 0.500000 0.726636
O O15 0.401911 0.388903 0.724053
O O16 0.437840 0.438899 0.000000
O O17 0.500000 0.000000 0.729814
O O18 0.500000 0.936839 0.000000
O O19 0.891818 0.167569 0.000000
#
# Coordination Sequence:
#
# PCOD9486421 Si02
#       7
#    16  16  16  16  16   8  16
#     4  11  22  33  48  72 102 133 167 212 256 299
#     4   9  18  33  49  68  98 133 168 207 251 301
#     4   8  14  25  40  63  94 126 157 195 242 288
#     4   9  17  31  50  69  95 133 171 204 245 299
#     4   8  15  30  52  78 106 132 161 202 252 308
#     4   9  14  20  36  64  95 123 152 190 238 289
#     4  10  19  32  52  76  99 130 168 206 249 303
#
# _framework density 21.322894999999999
#
# number of rings (size 3 to 8) (size 9 to 14) (size 15 to 20)
#    0.000    2.846    0.000    3.692    0.000    5.231 
#    1.385    1.538    0.000    0.462    0.000    9.692 
#    0.000   14.769    0.000    0.000    0.000    0.000 
#
# Total GULP energy -289629.100138 kJ/mol
# GULP energy per Si atom -5569.790387 kJ/mol
# Density = 2.127436 g / cm^3
# Si number density = 21.322895 Si / 1000 Ang^3
#
#
#
# Elastic Constant Matrix: (Units=GPa)
#
#
# Indices 1 2 3 4 5 6 
#
# 1 83.3136 61.2568 -3.9302 0.0000 0.0000 0.0000
# 2 61.2568 179.1827 5.7397 0.0000 0.0000 0.0000
# 3 -3.9302 5.7397 56.3847 0.0000 0.0000 0.0000
# 4 0.0000 0.0000 0.0000 -1.9028 0.0000 0.0000
# 5 0.0000 0.0000 0.0000 0.0000 -41.2215 0.0000
# 6 0.0000 0.0000 0.0000 0.0000 0.0000 34.7542
#
#
#
# Elastic Compliance Matrix: (Units=1/GPa)
#
#
# Indices 1 2 3 4 5 6 
#
# 1 0.016193 -0.005590 0.001698 0.000000 0.000000 0.000000
# 2 -0.005590 0.007529 -0.001156 0.000000 0.000000 0.000000
# 3 0.001698 -0.001156 0.017971 0.000000 0.000000 0.000000
# 4 0.000000 0.000000 0.000000 -0.525528 0.000000 0.000000
# 5 0.000000 0.000000 0.000000 0.000000 -0.024259 0.000000
# 6 0.000000 0.000000 0.000000 0.000000 0.000000 0.028773
#
#
# Mechanical properties :
#
#
# Convention : Reuss Voigt Hill
#
# Bulk Modulus (GPa) = 31.64916 49.44595 40.54756
# Shear Modulus (GPa) = -10.90058 15.38028 2.23985
#
# Velocity S-wave (km/s) = -2.26346 2.68862 1.02602
# Velocity P-wave (km/s) = 2.83620 5.73391 4.52337
#
# Compressibility (1/GPa) = 0.03159641
#
# Stress axis : x y z
#
# Youngs Moduli (GPa) = 61.75400 132.81816 55.64418
#
# Poissons Ratio (x) = 0.74250 -0.09447
# Poissons Ratio (y) = 0.34523 0.06433
# Poissons Ratio (z) = -0.10485 0.15355
#
# Static dielectric constant tensor:
#      x y z
#    x 1.753610 0.000000 0.000000 
#    y 0.000000 1.802730 0.000000 
#    z 0.000000 0.000000 1.830600 
# 
# From -- ./inp_files/16803.got.cif
#   From: 2010.05.17/outbox.cif.g08.bks.cpg/sg65_9_cif.got.tgz:16803.got - 2010.06.03 17:01:31.
