data_PCOD9486771
_publ_section_title
;
Structure prediction by ZEFSAII (Michael W. Deem and Ramdas Pophale) SiO2 
 PCOD9486771
Probable space group: C M M M
;
_chemical_formula_sum "Si O2"
_cell_formula_units_Z 112
_cell_length_a 18.392531
_cell_length_b 25.826290
_cell_length_c 14.473005
_cell_angle_alpha 90.000000
_cell_angle_beta 90.000000
_cell_angle_gamma 90.000000
_cell_volume 6874.834254
_symmetry_space_group_name_H-M "C M M M"
_symmetry_group_IT_number 65
_symmetry_cell_setting 'orthorhombic'
loop_
_space_group_symop_operation_xyz
x,y,z
-x,-y,z
x,-y,-z
-x,y,-z
-x,-y,-z
x,y,-z
-x,y,z
x,-y,z
1/2+x,1/2+y,z
1/2-x,1/2-y,z
1/2+x,1/2-y,-z
1/2-x,1/2+y,-z
1/2-x,1/2-y,-z
1/2+x,1/2+y,-z
1/2-x,1/2+y,z
1/2+x,1/2-y,z
loop_
_atom_site_type_symbol
_atom_site_label
_atom_site_fract_x
_atom_site_fract_y
_atom_site_fract_z
Si Si1 0.163477 0.750385 0.891494
Si Si2 0.916679 0.156484 0.204434
Si Si3 0.158442 0.940611 0.110202
Si Si4 0.919099 0.107878 0.394326
Si Si5 0.812376 0.438774 0.209559
Si Si6 0.086173 0.641281 0.889945
Si Si7 0.762527 0.061555 0.602622
O O1 0.250000 0.750000 0.879385
O O2 0.130436 0.796653 0.832774
O O3 0.126888 0.695324 0.868795
O O4 0.148397 0.760453 0.000000
O O5 0.888742 0.102481 0.161453
O O6 0.912980 0.150608 0.314993
O O7 0.000000 0.164598 0.176947
O O8 0.241547 0.934186 0.143765
O O9 0.136938 0.000000 0.132923
O O10 0.153749 0.933882 0.000000
O O11 0.916360 0.127086 0.500000
O O12 0.848245 0.072320 0.382098
O O13 0.000000 0.083408 0.382252
O O14 0.831139 0.500000 0.214071
O O15 0.876158 0.404178 0.168046
O O16 0.784893 0.419961 0.310619
O O17 0.000000 0.645510 0.872310
O O18 0.095944 0.631415 0.000000
O O19 0.743521 0.082030 0.500000
O O20 0.753085 0.000000 0.601044
#
# Coordination Sequence:
#
# PCOD9486771 Si02
#       7
#    16  16  16  16  16  16  16
#     4  10  21  36  55  77 102 134 172 213 256 304
#     4  11  21  33  52  74 100 137 174 210 255 308
#     4  10  20  32  46  69 103 140 175 210 249 299
#     4   9  18  31  48  73 104 137 173 216 263 307
#     4  10  19  33  53  76 103 137 172 209 260 317
#     4  10  21  36  54  78 107 136 171 218 264 306
#     4   9  17  30  50  75 102 135 177 222 261 302
#
# _framework density 16.291302000000002
#
# number of rings (size 3 to 8) (size 9 to 14) (size 15 to 20)
#    0.000    2.143    1.429    2.143    0.000    4.571 
#    0.000    4.286    0.000    1.714    0.000    2.000 
#    0.000    0.000    0.000    0.000    0.000    0.000 
#
# Total GULP energy -312147.794115 kJ/mol
# GULP energy per Si atom -5574.067752 kJ/mol
# Density = 1.625422 g / cm^3
# Si number density = 16.291302 Si / 1000 Ang^3
#
#
#
# Elastic Constant Matrix: (Units=GPa)
#
#
# Indices 1 2 3 4 5 6 
#
# 1 64.5061 29.5982 45.1625 0.0000 0.0000 0.0000
# 2 29.5982 50.3084 43.6247 0.0000 0.0000 0.0000
# 3 45.1625 43.6247 85.9369 0.0000 0.0000 0.0000
# 4 0.0000 0.0000 0.0000 16.4199 0.0000 0.0000
# 5 0.0000 0.0000 0.0000 0.0000 27.7098 0.0000
# 6 0.0000 0.0000 0.0000 0.0000 0.0000 -87.5535
#
#
#
# Elastic Compliance Matrix: (Units=1/GPa)
#
#
# Indices 1 2 3 4 5 6 
#
# 1 0.025516 -0.006045 -0.010341 0.000000 0.000000 0.000000
# 2 -0.006045 0.036940 -0.015575 0.000000 0.000000 0.000000
# 3 -0.010341 -0.015575 0.024977 0.000000 0.000000 0.000000
# 4 0.000000 0.000000 0.000000 0.060902 0.000000 0.000000
# 5 0.000000 0.000000 0.000000 0.000000 0.036088 0.000000
# 6 0.000000 0.000000 0.000000 0.000000 0.000000 -0.011422
#
#
# Mechanical properties :
#
#
# Convention : Reuss Voigt Hill
#
# Bulk Modulus (GPa) = 42.53277 48.61358 45.57317
# Shear Modulus (GPa) = 20.42812 -3.19371 8.61721
#
# Velocity S-wave (km/s) = 3.54493 -1.40165 2.30238
# Velocity P-wave (km/s) = 6.55131 5.22355 5.92474
#
# Compressibility (1/GPa) = 0.02351129
#
# Stress axis : x y z
#
# Youngs Moduli (GPa) = 39.19118 27.07107 40.03620
#
# Poissons Ratio (x) = 0.16364 0.41401
# Poissons Ratio (y) = 0.23691 0.62357
# Poissons Ratio (z) = 0.40527 0.42164
#
# Static dielectric constant tensor:
#      x y z
#    x 1.539230 0.000000 0.000000 
#    y 0.000000 1.524230 0.000000 
#    z 0.000000 0.000000 1.572130 
# 
# From -- ./inp_files/41039.got.cif
#   From: 2010.05.17/outbox.cif.g08.bks.cpg/sg65_21_cif.got.tgz:41039.got - 2010.06.03 17:01:31.
