data_PCOD9486602
_publ_section_title
;
Structure prediction by ZEFSAII (Michael W. Deem and Ramdas Pophale) SiO2 
 PCOD9486602
Probable space group: C M M M
;
_chemical_formula_sum "Si O2"
_cell_formula_units_Z 112
_cell_length_a 15.783319
_cell_length_b 15.017908
_cell_length_c 24.575568
_cell_angle_alpha 90.000000
_cell_angle_beta 90.000000
_cell_angle_gamma 90.000000
_cell_volume 5825.206667
_symmetry_space_group_name_H-M "C M M M"
_symmetry_group_IT_number 65
_symmetry_cell_setting 'orthorhombic'
loop_
_space_group_symop_operation_xyz
x,y,z
-x,-y,z
x,-y,-z
-x,y,-z
-x,-y,-z
x,y,-z
-x,y,z
x,-y,z
1/2+x,1/2+y,z
1/2-x,1/2-y,z
1/2+x,1/2-y,-z
1/2-x,1/2+y,-z
1/2-x,1/2-y,-z
1/2+x,1/2+y,-z
1/2-x,1/2+y,z
1/2+x,1/2-y,z
loop_
_atom_site_type_symbol
_atom_site_label
_atom_site_fract_x
_atom_site_fract_y
_atom_site_fract_z
Si Si1 0.294372 0.101724 0.936949
Si Si2 0.196951 0.402210 0.227548
Si Si3 0.098883 0.699173 0.437833
Si Si4 0.353456 0.597816 0.151091
Si Si5 0.593864 0.207723 0.144597
Si Si6 0.231637 0.352478 0.653753
Si Si7 0.096989 0.098879 0.401768
O O1 0.209532 0.101337 0.900836
O O2 0.355541 0.171200 0.907428
O O3 0.328368 0.000000 0.933654
O O4 0.279515 0.122505 0.000000
O O5 0.166437 0.500000 0.209615
O O6 0.292073 0.394619 0.203811
O O7 0.142992 0.328123 0.197302
O O8 0.194966 0.395525 0.292086
O O9 0.116775 0.672730 0.500000
O O10 0.164696 0.653960 0.396135
O O11 0.106319 0.807707 0.434248
O O12 0.000000 0.678487 0.425281
O O13 0.394005 0.500000 0.152256
O O14 0.407359 0.686056 0.147119
O O15 0.500000 0.170905 0.143823
O O16 0.250000 0.250000 0.668042
O O17 0.321588 0.395767 0.637578
O O18 0.000000 0.103484 0.378671
O O19 0.101401 0.000000 0.428672
#
# Coordination Sequence:
#
# PCOD9486602 Si02
#       7
#    16  16  16  16  16  16  16
#     4   9  18  34  57  81 105 140 185 227 266 312
#     4  10  20  36  57  78 102 135 177 221 263 313
#     4   9  19  35  53  75 104 139 180 221 261 312
#     4   9  19  36  56  77 103 138 180 221 260 311
#     4  11  22  34  52  80 113 144 173 216 272 321
#     4  10  19  32  55  80 105 140 178 217 268 327
#     4   9  18  32  51  78 108 133 164 213 271 328
#
# _framework density 19.226787000000002
#
# number of rings (size 3 to 8) (size 9 to 14) (size 15 to 20)
#    0.000    2.429    0.000    4.286    0.000    6.286 
#    0.000    5.714    0.000    3.429    0.000    7.000 
#    0.000    0.000    0.000    0.000    0.000    0.000 
#
# Total GULP energy -311945.855172 kJ/mol
# GULP energy per Si atom -5570.461699 kJ/mol
# Density = 1.918303 g / cm^3
# Si number density = 19.226787 Si / 1000 Ang^3
#
#
#
# Elastic Constant Matrix: (Units=GPa)
#
#
# Indices 1 2 3 4 5 6 
#
# 1 74.5904 34.7192 38.4358 0.0000 0.0000 0.0000
# 2 34.7192 86.2186 26.0307 0.0000 0.0000 0.0000
# 3 38.4358 26.0307 112.6582 0.0000 0.0000 0.0000
# 4 0.0000 0.0000 0.0000 17.7905 0.0000 0.0000
# 5 0.0000 0.0000 0.0000 0.0000 -3.1973 0.0000
# 6 0.0000 0.0000 0.0000 0.0000 0.0000 -113.6949
#
#
#
# Elastic Compliance Matrix: (Units=1/GPa)
#
#
# Indices 1 2 3 4 5 6 
#
# 1 0.018814 -0.006061 -0.005018 0.000000 0.000000 0.000000
# 2 -0.006061 0.014421 -0.001264 0.000000 0.000000 0.000000
# 3 -0.005018 -0.001264 0.010881 0.000000 0.000000 0.000000
# 4 0.000000 0.000000 0.000000 0.056210 0.000000 0.000000
# 5 0.000000 0.000000 0.000000 0.000000 -0.312762 0.000000
# 6 0.000000 0.000000 0.000000 0.000000 0.000000 -0.008795
#
#
# Mechanical properties :
#
#
# Convention : Reuss Voigt Hill
#
# Bulk Modulus (GPa) = 51.47165 52.42651 51.94908
# Shear Modulus (GPa) = -26.30613 -8.20157 -17.25385
#
# Velocity S-wave (km/s) = -3.70293 -2.06760 -2.99889
# Velocity P-wave (km/s) = 2.92346 4.65045 3.88415
#
# Compressibility (1/GPa) = 0.01942817
#
# Stress axis : x y z
#
# Youngs Moduli (GPa) = 53.15324 69.34444 91.90678
#
# Poissons Ratio (x) = 0.42029 0.46121
# Poissons Ratio (y) = 0.32216 0.11619
# Poissons Ratio (z) = 0.26673 0.08767
#
# Static dielectric constant tensor:
#      x y z
#    x 1.643370 0.000000 0.000000 
#    y 0.000000 1.711760 0.000000 
#    z 0.000000 0.000000 1.644160 
# 
# From -- ./inp_files/69992.got.cif
#   From: 2010.05.17/outbox.cif.g08.bks.cpg/sg65_35_cif.got.tgz:69992.got - 2010.06.03 17:01:31.
