data_PCOD9486705
_publ_section_title
;
Structure prediction by ZEFSAII (Michael W. Deem and Ramdas Pophale) SiO2 
 PCOD9486705
Probable space group: C M M M
;
_chemical_formula_sum "Si O2"
_cell_formula_units_Z 104
_cell_length_a 9.221994
_cell_length_b 29.508955
_cell_length_c 23.761912
_cell_angle_alpha 90.000000
_cell_angle_beta 90.000000
_cell_angle_gamma 90.000000
_cell_volume 6466.362521
_symmetry_space_group_name_H-M "C M M M"
_symmetry_group_IT_number 65
_symmetry_cell_setting 'orthorhombic'
loop_
_space_group_symop_operation_xyz
x,y,z
-x,-y,z
x,-y,-z
-x,y,-z
-x,-y,-z
x,y,-z
-x,y,z
x,-y,z
1/2+x,1/2+y,z
1/2-x,1/2-y,z
1/2+x,1/2-y,-z
1/2-x,1/2+y,-z
1/2-x,1/2-y,-z
1/2+x,1/2+y,-z
1/2-x,1/2+y,z
1/2+x,1/2-y,z
loop_
_atom_site_type_symbol
_atom_site_label
_atom_site_fract_x
_atom_site_fract_y
_atom_site_fract_z
Si Si1 0.833327 0.944942 0.500000
Si Si2 0.671792 0.795969 0.764650
Si Si3 0.327357 0.613397 0.937056
Si Si4 0.173620 0.446717 0.385914
Si Si5 0.825682 0.947086 0.829944
Si Si6 0.324789 0.105277 0.727896
Si Si7 0.672050 0.796499 0.899236
O O1 0.752235 0.931342 0.442866
O O2 0.000000 0.930263 0.500000
O O3 0.830618 0.000000 0.500000
O O4 0.500000 0.790538 0.756731
O O5 0.750000 0.750000 0.746548
O O6 0.718667 0.842114 0.734128
O O7 0.696877 0.801887 0.831799
O O8 0.500000 0.622566 0.931885
O O9 0.287563 0.578422 0.887911
O O10 0.241514 0.659962 0.928266
O O11 0.301000 0.595575 0.000000
O O12 0.208306 0.500000 0.375773
O O13 0.214019 0.417283 0.331597
O O14 0.000000 0.443829 0.393736
O O15 0.747253 0.922588 0.778354
O O16 0.000000 0.943714 0.822823
O O17 0.787269 0.000000 0.832098
O O18 0.500000 0.103113 0.733756
O O19 0.500000 0.793834 0.908991
O O20 0.750000 0.750000 0.916783
#
# Coordination Sequence:
#
# PCOD9486705 Si02
#       7
#     8  16  16  16  16  16  16
#     4   9  17  29  45  67 100 137 170 205 240 275
#     4   9  18  31  49  73  99 126 157 194 241 294
#     4  10  21  36  52  70  94 126 164 203 245 296
#     4   9  17  29  47  71 100 135 170 200 234 281
#     4  10  21  35  51  72  97 126 161 203 249 294
#     4  10  19  33  52  76 102 130 164 202 244 291
#     4  10  19  33  53  75  98 124 155 196 246 300
#
# _framework density 16.083231999999999
#
# number of rings (size 3 to 8) (size 9 to 14) (size 15 to 20)
#    0.000    2.385    1.538    1.154    0.000    4.615 
#    0.000    3.077    0.000    0.000    0.000    2.692 
#    0.000    0.000    0.000    0.000    0.000    0.000 
#
# Total GULP energy -290049.140506 kJ/mol
# GULP energy per Si atom -5577.868087 kJ/mol
# Density = 1.604663 g / cm^3
# Si number density = 16.083232 Si / 1000 Ang^3
#
#
#
# Elastic Constant Matrix: (Units=GPa)
#
#
# Indices 1 2 3 4 5 6 
#
# 1 28.2630 40.2288 52.6452 0.0000 0.0000 0.0000
# 2 40.2288 118.7940 76.8207 0.0000 0.0000 0.0000
# 3 52.6452 76.8207 135.3876 0.0000 0.0000 0.0000
# 4 0.0000 0.0000 0.0000 24.0295 0.0000 0.0000
# 5 0.0000 0.0000 0.0000 0.0000 15.1561 0.0000
# 6 0.0000 0.0000 0.0000 0.0000 0.0000 23.0300
#
#
#
# Elastic Compliance Matrix: (Units=1/GPa)
#
#
# Indices 1 2 3 4 5 6 
#
# 1 0.157093 -0.021635 -0.048809 0.000000 0.000000 0.000000
# 2 -0.021635 0.016277 -0.000823 0.000000 0.000000 0.000000
# 3 -0.048809 -0.000823 0.026833 0.000000 0.000000 0.000000
# 4 0.000000 0.000000 0.000000 0.041616 0.000000 0.000000
# 5 0.000000 0.000000 0.000000 0.000000 0.065980 0.000000
# 6 0.000000 0.000000 0.000000 0.000000 0.000000 0.043422
#
#
# Mechanical properties :
#
#
# Convention : Reuss Voigt Hill
#
# Bulk Modulus (GPa) = 17.34071 69.09269 43.21670
# Shear Modulus (GPa) = 9.74706 19.95978 14.85342
#
# Velocity S-wave (km/s) = 2.46446 3.52665 3.04227
# Velocity P-wave (km/s) = 4.34780 7.72242 6.26654
#
# Compressibility (1/GPa) = 0.05766775
#
# Stress axis : x y z
#
# Youngs Moduli (GPa) = 6.36567 61.43815 37.26822
#
# Poissons Ratio (x) = 1.32920 1.81904
# Poissons Ratio (y) = 0.13772 0.03067
# Poissons Ratio (z) = 0.31070 0.05056
#
# Static dielectric constant tensor:
#      x y z
#    x 1.535040 0.000000 0.000000 
#    y 0.000000 1.521070 0.000000 
#    z 0.000000 0.000000 1.528570 
# 
# From -- ./inp_files/60882.got.cif
#   From: 2010.05.17/outbox.cif.g08.bks.cpg/sg65_31_cif.got.tgz:60882.got - 2010.06.03 17:01:31.
