data_PCOD9486384
_publ_section_title
;
Structure prediction by ZEFSAII (Michael W. Deem and Ramdas Pophale) SiO2 
 PCOD9486384
Probable space group: C M M M
;
_chemical_formula_sum "Si O2"
_cell_formula_units_Z 96
_cell_length_a 8.668947
_cell_length_b 29.795046
_cell_length_c 21.134213
_cell_angle_alpha 90.000000
_cell_angle_beta 90.000000
_cell_angle_gamma 90.000000
_cell_volume 5458.791268
_symmetry_space_group_name_H-M "C M M M"
_symmetry_group_IT_number 65
_symmetry_cell_setting 'orthorhombic'
loop_
_space_group_symop_operation_xyz
x,y,z
-x,-y,z
x,-y,-z
-x,y,-z
-x,-y,-z
x,y,-z
-x,y,z
x,-y,z
1/2+x,1/2+y,z
1/2-x,1/2-y,z
1/2+x,1/2-y,-z
1/2-x,1/2+y,-z
1/2-x,1/2-y,-z
1/2+x,1/2+y,-z
1/2-x,1/2+y,z
1/2+x,1/2-y,z
loop_
_atom_site_type_symbol
_atom_site_label
_atom_site_fract_x
_atom_site_fract_y
_atom_site_fract_z
Si Si1 0.185988 0.448550 0.427625
Si Si2 0.813693 0.948212 0.189048
Si Si3 0.814026 0.107479 0.312798
Si Si4 0.686086 0.105921 0.929695
Si Si5 0.185285 0.202906 0.738282
Si Si6 0.315173 0.203018 0.880710
O O1 0.233339 0.438523 0.500000
O O2 0.234194 0.500000 0.413169
O O3 0.250774 0.414776 0.376065
O O4 0.000000 0.447517 0.425796
O O5 0.762405 0.921182 0.251488
O O6 0.754309 0.923754 0.126340
O O7 0.000000 0.947305 0.188318
O O8 0.763503 0.000000 0.191664
O O9 0.768658 0.159124 0.301345
O O10 0.000000 0.105819 0.314413
O O11 0.500000 0.103194 0.926636
O O12 0.727648 0.158145 0.918336
O O13 0.735624 0.091790 0.000000
O O14 0.250000 0.250000 0.713230
O O15 0.249963 0.197776 0.809528
O O16 0.000000 0.204906 0.741765
O O17 0.500000 0.206070 0.877920
O O18 0.250000 0.250000 0.906403
#
# Coordination Sequence:
#
# PCOD9486384 Si02
#       6
#    16  16  16  16  16  16
#     4   9  19  35  54  80 114 147 178 213 255 305
#     4  10  21  37  55  76 103 134 172 218 265 313
#     4  10  20  34  55  81 109 139 173 215 261 307
#     4  10  22  38  53  72 101 136 174 217 265 316
#     4  10  19  32  52  78 107 136 170 212 259 309
#     4  10  19  32  52  75 101 132 168 211 262 316
#
# _framework density 17.586310999999998
#
# number of rings (size 3 to 8) (size 9 to 14) (size 15 to 20)
#    0.000    2.167    1.667    3.000    0.000    5.333 
#    0.000    2.500    0.000    0.500    0.000    0.000 
#    0.000    0.000    0.000    0.000    0.000    0.000 
#
# Total GULP energy -267894.490985 kJ/mol
# GULP energy per Si atom -5581.135229 kJ/mol
# Density = 1.754628 g / cm^3
# Si number density = 17.586311 Si / 1000 Ang^3
#
#
#
# Elastic Constant Matrix: (Units=GPa)
#
#
# Indices 1 2 3 4 5 6 
#
# 1 22.3317 32.7666 20.7006 0.0000 0.0000 0.0000
# 2 32.7666 147.4169 79.4737 0.0000 0.0000 0.0000
# 3 20.7006 79.4737 112.3077 0.0000 0.0000 0.0000
# 4 0.0000 0.0000 0.0000 5.7562 0.0000 0.0000
# 5 0.0000 0.0000 0.0000 0.0000 21.2156 0.0000
# 6 0.0000 0.0000 0.0000 0.0000 0.0000 29.7925
#
#
#
# Elastic Compliance Matrix: (Units=1/GPa)
#
#
# Indices 1 2 3 4 5 6 
#
# 1 0.067043 -0.013322 -0.002930 0.000000 0.000000 0.000000
# 2 -0.013322 0.013615 -0.007179 0.000000 0.000000 0.000000
# 3 -0.002930 -0.007179 0.014524 0.000000 0.000000 0.000000
# 4 0.000000 0.000000 0.000000 0.173725 0.000000 0.000000
# 5 0.000000 0.000000 0.000000 0.000000 0.047135 0.000000
# 6 0.000000 0.000000 0.000000 0.000000 0.000000 0.033565
#
#
# Mechanical properties :
#
#
# Convention : Reuss Voigt Hill
#
# Bulk Modulus (GPa) = 20.69549 60.88201 40.78875
# Shear Modulus (GPa) = 12.11900 21.29390 16.70645
#
# Velocity S-wave (km/s) = 2.62795 3.48346 3.08550
# Velocity P-wave (km/s) = 4.58276 7.13256 5.99479
#
# Compressibility (1/GPa) = 0.04831971
#
# Stress axis : x y z
#
# Youngs Moduli (GPa) = 14.91587 73.44949 68.85041
#
# Poissons Ratio (x) = 0.97850 0.20173
# Poissons Ratio (y) = 0.19871 0.49427
# Poissons Ratio (z) = 0.04370 0.52728
#
# Static dielectric constant tensor:
#      x y z
#    x 1.598630 0.000000 0.000000 
#    y 0.000000 1.607590 0.000000 
#    z 0.000000 0.000000 1.571550 
# 
# From -- ./inp_files/60274.got.cif
#   From: 2010.05.17/outbox.cif.g08.bks.cpg/sg65_31_cif.got.tgz:60274.got - 2010.06.03 17:01:31.
