data_PCOD9486719
_publ_section_title
;
Structure prediction by ZEFSAII (Michael W. Deem and Ramdas Pophale) SiO2 
 PCOD9486719
Probable space group: C M M M
;
_chemical_formula_sum "Si O2"
_cell_formula_units_Z 104
_cell_length_a 8.811405
_cell_length_b 29.164587
_cell_length_c 23.393323
_cell_angle_alpha 90.000000
_cell_angle_beta 90.000000
_cell_angle_gamma 90.000000
_cell_volume 6011.639250
_symmetry_space_group_name_H-M "C M M M"
_symmetry_group_IT_number 65
_symmetry_cell_setting 'orthorhombic'
loop_
_space_group_symop_operation_xyz
x,y,z
-x,-y,z
x,-y,-z
-x,y,-z
-x,-y,-z
x,y,-z
-x,y,z
x,-y,z
1/2+x,1/2+y,z
1/2-x,1/2-y,z
1/2+x,1/2-y,-z
1/2-x,1/2+y,-z
1/2-x,1/2-y,-z
1/2+x,1/2+y,-z
1/2-x,1/2+y,z
1/2+x,1/2-y,z
loop_
_atom_site_type_symbol
_atom_site_label
_atom_site_fract_x
_atom_site_fract_y
_atom_site_fract_z
Si Si1 0.682427 0.300497 0.779034
Si Si2 0.818512 0.301001 0.000000
Si Si3 0.318680 0.200485 0.433820
Si Si4 0.181162 0.552374 0.145490
Si Si5 0.318069 0.644172 0.893676
Si Si6 0.681041 0.447936 0.728644
Si Si7 0.682761 0.643229 0.666245
O O1 0.500000 0.297333 0.778494
O O2 0.750000 0.250000 0.783772
O O3 0.724054 0.331451 0.833607
O O4 0.728940 0.325104 0.720189
O O5 0.750000 0.250000 0.000000
O O6 0.759379 0.328116 0.055388
O O7 0.000000 0.298526 0.000000
O O8 0.275917 0.191590 0.500000
O O9 0.500000 0.203132 0.430328
O O10 0.250000 0.250000 0.417674
O O11 0.257193 0.162514 0.390730
O O12 0.221504 0.500000 0.129056
O O13 0.261947 0.591901 0.109554
O O14 0.233605 0.558219 0.211344
O O15 0.000000 0.557326 0.141635
O O16 0.500000 0.645826 0.899654
O O17 0.500000 0.442738 0.740276
O O18 0.707431 0.500000 0.708611
O O19 0.723478 0.408613 0.683967
O O20 0.500000 0.645812 0.660769
#
# Coordination Sequence:
#
# PCOD9486719 Si02
#       7
#    16   8  16  16  16  16  16
#     4  10  21  34  50  77 109 139 174 219 269 322
#     4  12  26  44  63  86 113 148 192 233 275 329
#     4  10  21  36  53  75 104 142 185 225 269 323
#     4  10  20  34  55  85 117 147 181 225 278 333
#     4  11  22  40  61  82 110 148 190 230 276 329
#     4   9  17  32  54  79 110 146 181 221 270 327
#     4  10  19  33  52  80 110 139 179 223 271 322
#
# _framework density 17.299773999999999
#
# number of rings (size 3 to 8) (size 9 to 14) (size 15 to 20)
#    0.000    1.846    1.538    3.000    0.000    6.769 
#    0.000    0.385    0.000    2.769    0.000    3.231 
#    0.000    0.000    0.000    0.000    0.000    0.000 
#
# Total GULP energy -290388.450749 kJ/mol
# GULP energy per Si atom -5584.393284 kJ/mol
# Density = 1.726040 g / cm^3
# Si number density = 17.299774 Si / 1000 Ang^3
#
#
#
# Elastic Constant Matrix: (Units=GPa)
#
#
# Indices 1 2 3 4 5 6 
#
# 1 51.7140 55.4840 39.7816 0.0000 0.0000 0.0000
# 2 55.4840 152.4704 64.2490 0.0000 0.0000 0.0000
# 3 39.7816 64.2490 83.0523 0.0000 0.0000 0.0000
# 4 0.0000 0.0000 0.0000 31.2926 0.0000 0.0000
# 5 0.0000 0.0000 0.0000 0.0000 27.6517 0.0000
# 6 0.0000 0.0000 0.0000 0.0000 0.0000 29.4894
#
#
#
# Elastic Compliance Matrix: (Units=1/GPa)
#
#
# Indices 1 2 3 4 5 6 
#
# 1 0.037428 -0.008999 -0.010966 0.000000 0.000000 0.000000
# 2 -0.008999 0.011894 -0.004891 0.000000 0.000000 0.000000
# 3 -0.010966 -0.004891 0.021077 0.000000 0.000000 0.000000
# 4 0.000000 0.000000 0.000000 0.031956 0.000000 0.000000
# 5 0.000000 0.000000 0.000000 0.000000 0.036164 0.000000
# 6 0.000000 0.000000 0.000000 0.000000 0.000000 0.033910
#
#
# Mechanical properties :
#
#
# Convention : Reuss Voigt Hill
#
# Bulk Modulus (GPa) = 48.33951 67.36290 57.85120
# Shear Modulus (GPa) = 21.83038 26.20155 24.01597
#
# Velocity S-wave (km/s) = 3.55616 3.89596 3.72993
# Velocity P-wave (km/s) = 6.69811 7.69812 7.21546
#
# Compressibility (1/GPa) = 0.02068701
#
# Stress axis : x y z
#
# Youngs Moduli (GPa) = 26.71790 84.07317 47.44514
#
# Poissons Ratio (x) = 0.75658 0.52029
# Poissons Ratio (y) = 0.24044 0.23205
# Poissons Ratio (z) = 0.29299 0.41120
#
# Static dielectric constant tensor:
#      x y z
#    x 1.581660 0.000000 0.000000 
#    y 0.000000 1.585300 0.000000 
#    z 0.000000 0.000000 1.565310 
# 
# From -- ./inp_files/60411.got.cif
#   From: 2010.05.17/outbox.cif.g08.bks.cpg/sg65_31_cif.got.tgz:60411.got - 2010.06.03 17:01:31.
