data_PCOD9486175
_publ_section_title
;
Structure prediction by ZEFSAII (Michael W. Deem and Ramdas Pophale) SiO2 
 PCOD9486175
Probable space group: C M M M
;
_chemical_formula_sum "Si O2"
_cell_formula_units_Z 96
_cell_length_a 20.456398
_cell_length_b 32.965684
_cell_length_c 7.694944
_cell_angle_alpha 90.000000
_cell_angle_beta 90.000000
_cell_angle_gamma 90.000000
_cell_volume 5189.155912
_symmetry_space_group_name_H-M "C M M M"
_symmetry_group_IT_number 65
_symmetry_cell_setting 'orthorhombic'
loop_
_space_group_symop_operation_xyz
x,y,z
-x,-y,z
x,-y,-z
-x,y,-z
-x,-y,-z
x,y,-z
-x,y,z
x,-y,z
1/2+x,1/2+y,z
1/2-x,1/2-y,z
1/2+x,1/2-y,-z
1/2-x,1/2+y,-z
1/2-x,1/2-y,-z
1/2+x,1/2+y,-z
1/2-x,1/2+y,z
1/2+x,1/2-y,z
loop_
_atom_site_type_symbol
_atom_site_label
_atom_site_fract_x
_atom_site_fract_y
_atom_site_fract_z
Si Si1 0.788446 0.131136 0.205436
Si Si2 0.788915 0.954777 0.291610
Si Si3 0.791692 0.288578 0.290913
Si Si4 0.573101 0.337887 0.207435
Si Si5 0.572463 0.756974 0.710272
Si Si6 0.431548 0.548797 0.700475
O O1 0.755585 0.088377 0.259354
O O2 0.743800 0.169618 0.248782
O O3 0.862205 0.139657 0.279075
O O4 0.795291 0.130023 0.000000
O O5 0.795340 0.958169 0.500000
O O6 0.861324 0.945503 0.215055
O O7 0.767192 0.000000 0.231752
O O8 0.793230 0.285609 0.500000
O O9 0.750000 0.250000 0.225921
O O10 0.866173 0.283317 0.228328
O O11 0.500000 0.347511 0.277933
O O12 0.583189 0.289904 0.237934
O O13 0.570870 0.344843 0.000000
O O14 0.571618 0.758088 0.500000
O O15 0.500000 0.769018 0.772053
O O16 0.430453 0.563261 0.500000
O O17 0.500000 0.562734 0.782698
O O18 0.434737 0.500000 0.691020
#
# Coordination Sequence:
#
# PCOD9486175 Si02
#       6
#    16  16  16  16  16  16
#     4  11  22  32  46  68  94 126 162 199 239 286
#     4   9  18  32  48  64  85 116 155 200 246 287
#     4  10  19  32  50  72  98 126 156 194 237 279
#     4   9  18  31  44  61  90 127 163 197 235 280
#     4   9  17  30  49  71  94 122 157 195 233 273
#     4   7  10  19  37  59  79 101 137 187 237 278
#
# _framework density 18.500119000000002
#
# number of rings (size 3 to 8) (size 9 to 14) (size 15 to 20)
#    0.000    2.833    1.667    2.000    0.000    2.667 
#    0.000    0.000    0.000    0.000    0.000    4.667 
#    0.000    0.667    0.000    7.667    0.000    2.167 
#
# Total GULP energy -267258.448960 kJ/mol
# GULP energy per Si atom -5567.884353 kJ/mol
# Density = 1.845801 g / cm^3
# Si number density = 18.500119 Si / 1000 Ang^3
#
#
#
# Elastic Constant Matrix: (Units=GPa)
#
#
# Indices 1 2 3 4 5 6 
#
# 1 87.0231 68.4282 14.4168 0.0000 0.0000 0.0000
# 2 68.4282 154.1707 2.8709 0.0000 0.0000 0.0000
# 3 14.4168 2.8709 35.2610 0.0000 0.0000 0.0000
# 4 0.0000 0.0000 0.0000 33.4561 0.0000 0.0000
# 5 0.0000 0.0000 0.0000 0.0000 -1.9631 0.0000
# 6 0.0000 0.0000 0.0000 0.0000 0.0000 11.1487
#
#
#
# Elastic Compliance Matrix: (Units=1/GPa)
#
#
# Indices 1 2 3 4 5 6 
#
# 1 0.019325 -0.008443 -0.007214 0.000000 0.000000 0.000000
# 2 -0.008443 0.010185 0.002623 0.000000 0.000000 0.000000
# 3 -0.007214 0.002623 0.031096 0.000000 0.000000 0.000000
# 4 0.000000 0.000000 0.000000 0.029890 0.000000 0.000000
# 5 0.000000 0.000000 0.000000 0.000000 -0.509409 0.000000
# 6 0.000000 0.000000 0.000000 0.000000 0.000000 0.089696
#
#
# Mechanical properties :
#
#
# Convention : Reuss Voigt Hill
#
# Bulk Modulus (GPa) = 28.95391 49.76516 39.35954
# Shear Modulus (GPa) = -17.14471 21.24430 2.04979
#
# Velocity S-wave (km/s) = -3.04753 3.39238 1.05375
# Velocity P-wave (km/s) = 1.81696 6.50405 4.77514
#
# Compressibility (1/GPa) = 0.03453765
#
# Stress axis : x y z
#
# Youngs Moduli (GPa) = 51.74554 98.18417 32.15864
#
# Poissons Ratio (x) = 0.82898 0.23199
# Poissons Ratio (y) = 0.43690 -0.08435
# Poissons Ratio (z) = 0.37329 -0.25752
#
# Static dielectric constant tensor:
#      x y z
#    x 1.700990 0.000000 0.000000 
#    y 0.000000 1.680360 0.000000 
#    z 0.000000 0.000000 1.682560 
# 
# From -- ./inp_files/14611.got.cif
#   From: 2010.05.17/outbox.cif.g08.bks.cpg/sg65_8_cif.got.tgz:14611.got - 2010.06.03 17:01:31.
