data_PCOD9486691
_publ_section_title
;
Structure prediction by ZEFSAII (Michael W. Deem and Ramdas Pophale) SiO2 
 PCOD9486691
Probable space group: C M M M
;
_chemical_formula_sum "Si O2"
_cell_formula_units_Z 104
_cell_length_a 30.249230
_cell_length_b 22.830366
_cell_length_c 9.215528
_cell_angle_alpha 90.000000
_cell_angle_beta 90.000000
_cell_angle_gamma 90.000000
_cell_volume 6364.252780
_symmetry_space_group_name_H-M "C M M M"
_symmetry_group_IT_number 65
_symmetry_cell_setting 'orthorhombic'
loop_
_space_group_symop_operation_xyz
x,y,z
-x,-y,z
x,-y,-z
-x,y,-z
-x,-y,-z
x,y,-z
-x,y,z
x,-y,z
1/2+x,1/2+y,z
1/2-x,1/2-y,z
1/2+x,1/2-y,-z
1/2-x,1/2+y,-z
1/2-x,1/2-y,-z
1/2+x,1/2+y,-z
1/2-x,1/2+y,z
1/2+x,1/2-y,z
loop_
_atom_site_type_symbol
_atom_site_label
_atom_site_fract_x
_atom_site_fract_y
_atom_site_fract_z
Si Si1 0.622341 0.429935 0.171645
Si Si2 0.448001 0.651088 0.327270
Si Si3 0.551923 0.227000 0.171602
Si Si4 0.699071 0.930114 0.171792
Si Si5 0.601458 0.892462 0.174357
Si Si6 0.787871 0.071213 0.333288
Si Si7 0.447525 0.000000 0.673065
O O1 0.617662 0.500000 0.192799
O O2 0.582965 0.395831 0.249501
O O3 0.669101 0.411444 0.241902
O O4 0.622402 0.418426 0.000000
O O5 0.441448 0.649705 0.500000
O O6 0.500000 0.639848 0.297448
O O7 0.437785 0.715417 0.263857
O O8 0.500000 0.212477 0.193533
O O9 0.581288 0.170833 0.209077
O O10 0.557800 0.239835 0.000000
O O11 0.653294 0.898624 0.209903
O O12 0.741798 0.910182 0.260914
O O13 0.692492 0.000000 0.196249
O O14 0.707534 0.922610 0.000000
O O15 0.574771 0.943061 0.255964
O O16 0.597134 0.901605 0.000000
O O17 0.791420 0.090169 0.500000
O O18 0.787162 0.000000 0.331583
O O19 0.500000 0.000000 0.701234
O O20 0.440548 0.000000 0.500000
#
# Coordination Sequence:
#
# PCOD9486691 Si02
#       7
#    16  16  16  16  16  16   8
#     4  10  20  34  54  80 107 134 165 203 247 293
#     4  10  21  36  54  76 104 137 169 203 246 299
#     4   9  18  33  53  74  96 129 175 218 253 298
#     4   9  16  28  46  70 100 131 167 210 255 302
#     4  10  19  33  52  73  97 132 175 218 261 307
#     4   9  17  29  47  72 102 135 167 200 244 301
#     4  11  23  33  43  67 103 137 169 215 272 319
#
# _framework density 16.341273999999999
#
# number of rings (size 3 to 8) (size 9 to 14) (size 15 to 20)
#    0.000    2.385    0.769    2.077    0.000    6.462 
#    0.000    3.077    0.000    0.923    0.000    6.462 
#    0.000    0.000    0.000    0.000    0.000    0.000 
#
# Total GULP energy -290062.435613 kJ/mol
# GULP energy per Si atom -5578.123762 kJ/mol
# Density = 1.630408 g / cm^3
# Si number density = 16.341274 Si / 1000 Ang^3
#
#
#
# Elastic Constant Matrix: (Units=GPa)
#
#
# Indices 1 2 3 4 5 6 
#
# 1 141.0334 74.8980 91.9108 0.0000 0.0000 0.0000
# 2 74.8980 63.8127 62.1103 0.0000 0.0000 0.0000
# 3 91.9108 62.1103 92.8462 0.0000 0.0000 0.0000
# 4 0.0000 0.0000 0.0000 16.7029 0.0000 0.0000
# 5 0.0000 0.0000 0.0000 0.0000 28.9429 0.0000
# 6 0.0000 0.0000 0.0000 0.0000 0.0000 8.9701
#
#
#
# Elastic Compliance Matrix: (Units=1/GPa)
#
#
# Indices 1 2 3 4 5 6 
#
# 1 0.023828 -0.014356 -0.013984 0.000000 0.000000 0.000000
# 2 -0.014356 0.053566 -0.021622 0.000000 0.000000 0.000000
# 3 -0.013984 -0.021622 0.039078 0.000000 0.000000 0.000000
# 4 0.000000 0.000000 0.000000 0.059870 0.000000 0.000000
# 5 0.000000 0.000000 0.000000 0.000000 0.034551 0.000000
# 6 0.000000 0.000000 0.000000 0.000000 0.000000 0.111482
#
#
# Mechanical properties :
#
#
# Convention : Reuss Voigt Hill
#
# Bulk Modulus (GPa) = 60.43262 83.94782 72.19022
# Shear Modulus (GPa) = 11.68729 15.50806 13.59767
#
# Velocity S-wave (km/s) = 2.67722 3.08395 2.88775
# Velocity P-wave (km/s) = 6.82778 8.01025 7.44254
#
# Compressibility (1/GPa) = 0.01654735
#
# Stress axis : x y z
#
# Youngs Moduli (GPa) = 41.96716 18.66861 25.58969
#
# Poissons Ratio (x) = 0.26801 0.35786
# Poissons Ratio (y) = 0.60248 0.55330
# Poissons Ratio (z) = 0.58689 0.40365
#
# Static dielectric constant tensor:
#      x y z
#    x 1.538370 0.000000 0.000000 
#    y 0.000000 1.517730 0.000000 
#    z 0.000000 0.000000 1.545060 
# 
# From -- ./inp_files/12797.got.cif
#   From: 2010.05.17/outbox.cif.g08.bks.cpg/sg65_7_cif.got.tgz:12797.got - 2010.06.03 17:01:31.
