data_PCOD9486264
_publ_section_title
;
Structure prediction by ZEFSAII (Michael W. Deem and Ramdas Pophale) SiO2 
 PCOD9486264
Probable space group: C M M M
;
_chemical_formula_sum "Si O2"
_cell_formula_units_Z 80
_cell_length_a 8.364351
_cell_length_b 18.337941
_cell_length_c 27.790126
_cell_angle_alpha 90.000000
_cell_angle_beta 90.000000
_cell_angle_gamma 90.000000
_cell_volume 4262.587786
_symmetry_space_group_name_H-M "C M M M"
_symmetry_group_IT_number 65
_symmetry_cell_setting 'orthorhombic'
loop_
_space_group_symop_operation_xyz
x,y,z
-x,-y,z
x,-y,-z
-x,y,-z
-x,-y,-z
x,y,-z
-x,y,z
x,-y,z
1/2+x,1/2+y,z
1/2-x,1/2-y,z
1/2+x,1/2-y,-z
1/2-x,1/2+y,-z
1/2-x,1/2-y,-z
1/2+x,1/2+y,-z
1/2-x,1/2+y,z
1/2+x,1/2-y,z
loop_
_atom_site_type_symbol
_atom_site_label
_atom_site_fract_x
_atom_site_fract_y
_atom_site_fract_z
Si Si1 0.692019 0.166360 0.687844
Si Si2 0.191248 0.916910 0.406080
Si Si3 0.806425 0.665617 0.000000
Si Si4 0.810515 0.332470 0.500000
Si Si5 0.806827 0.334072 0.792878
Si Si6 0.306404 0.834406 0.103630
O O1 0.500000 0.166207 0.686405
O O2 0.750000 0.250000 0.683777
O O3 0.755789 0.120796 0.643273
O O4 0.744843 0.136709 0.740651
O O5 0.251251 0.872955 0.452217
O O6 0.000000 0.917562 0.407691
O O7 0.250693 0.000000 0.408076
O O8 0.750000 0.750000 0.000000
O O9 0.753142 0.633951 0.051812
O O10 0.000000 0.664594 0.000000
O O11 0.750000 0.250000 0.500000
O O12 0.000000 0.332228 0.500000
O O13 0.750000 0.250000 0.792991
O O14 0.753130 0.366177 0.844572
O O15 0.000000 0.335326 0.792944
O O16 0.500000 0.835389 0.103613
O O17 0.250000 0.750000 0.103641
#
# Coordination Sequence:
#
# PCOD9486264 Si02
#       6
#    16  16   8   8  16  16
#     4  10  19  32  51  74 100 131 169 209 248 293
#     4  11  24  41  59  80 108 138 167 203 247 291
#     4   8  12  16  24  38  60  94 135 178 221 271
#     4  12  25  42  65  89 113 139 169 202 235 278
#     4   8  14  23  36  55  80 111 148 192 236 279
#     4   8  12  18  27  42  66  98 138 181 226 273
#
# _framework density 18.767942999999999
#
# number of rings (size 3 to 8) (size 9 to 14) (size 15 to 20)
#    0.000    2.600    0.000    3.000    0.000    3.600 
#    0.000    0.000    0.000    0.000    0.000    0.000 
#    0.000    0.000    0.000    0.900    0.000   23.000 
#
# Total GULP energy -222671.142139 kJ/mol
# GULP energy per Si atom -5566.778553 kJ/mol
# Density = 1.872523 g / cm^3
# Si number density = 18.767943 Si / 1000 Ang^3
#
#
#
# Elastic Constant Matrix: (Units=GPa)
#
#
# Indices 1 2 3 4 5 6 
#
# 1 33.8604 14.7629 32.5248 0.0000 0.0000 0.0000
# 2 14.7629 61.0085 70.8408 0.0000 0.0000 0.0000
# 3 32.5248 70.8408 267.9142 0.0000 0.0000 0.0000
# 4 0.0000 0.0000 0.0000 -7.9518 0.0000 0.0000
# 5 0.0000 0.0000 0.0000 0.0000 8.9125 0.0000
# 6 0.0000 0.0000 0.0000 0.0000 0.0000 14.0632
#
#
#
# Elastic Compliance Matrix: (Units=1/GPa)
#
#
# Indices 1 2 3 4 5 6 
#
# 1 0.034467 -0.005024 -0.002856 0.000000 0.000000 0.000000
# 2 -0.005024 0.024386 -0.005838 0.000000 0.000000 0.000000
# 3 -0.002856 -0.005838 0.005623 0.000000 0.000000 0.000000
# 4 0.000000 0.000000 0.000000 -0.125758 0.000000 0.000000
# 5 0.000000 0.000000 0.000000 0.000000 0.112202 0.000000
# 6 0.000000 0.000000 0.000000 0.000000 0.000000 0.071107
#
#
# Mechanical properties :
#
#
# Convention : Reuss Voigt Hill
#
# Bulk Modulus (GPa) = 26.99839 66.56003 46.77921
# Shear Modulus (GPa) = 30.90048 19.31509 25.10779
#
# Velocity S-wave (km/s) = 4.06205 3.21152 3.66157
# Velocity P-wave (km/s) = 6.03464 7.02094 6.54639
#
# Compressibility (1/GPa) = 0.03703924
#
# Stress axis : x y z
#
# Youngs Moduli (GPa) = 29.01351 41.00733 177.84396
#
# Poissons Ratio (x) = 0.20603 0.50788
# Poissons Ratio (y) = 0.14577 1.03827
# Poissons Ratio (z) = 0.08286 0.23940
#
# Static dielectric constant tensor:
#      x y z
#    x 1.640180 0.000000 0.000000 
#    y 0.000000 1.593170 0.000000 
#    z 0.000000 0.000000 1.754490 
# 
# From -- ./inp_files/72887.got.cif
#   From: 2010.05.17/outbox.cif.g08.bks.cpg/sg65_37_cif.got.tgz:72887.got - 2010.06.03 17:01:31.
