data_PCOD9486220
_publ_section_title
;
Structure prediction by ZEFSAII (Michael W. Deem and Ramdas Pophale) SiO2 
 PCOD9486220
Probable space group: C M M M
;
_chemical_formula_sum "Si O2"
_cell_formula_units_Z 104
_cell_length_a 26.145152
_cell_length_b 9.605260
_cell_length_c 24.209050
_cell_angle_alpha 90.000000
_cell_angle_beta 90.000000
_cell_angle_gamma 90.000000
_cell_volume 6079.642517
_symmetry_space_group_name_H-M "C M M M"
_symmetry_group_IT_number 65
_symmetry_cell_setting 'orthorhombic'
loop_
_space_group_symop_operation_xyz
x,y,z
-x,-y,z
x,-y,-z
-x,y,-z
-x,-y,-z
x,y,-z
-x,y,z
x,-y,z
1/2+x,1/2+y,z
1/2-x,1/2-y,z
1/2+x,1/2-y,-z
1/2-x,1/2+y,-z
1/2-x,1/2-y,-z
1/2+x,1/2+y,-z
1/2-x,1/2+y,z
1/2+x,1/2-y,z
loop_
_atom_site_type_symbol
_atom_site_label
_atom_site_fract_x
_atom_site_fract_y
_atom_site_fract_z
Si Si1 0.000000 0.164235 0.433777
Si Si2 0.598759 0.168844 0.388296
Si Si3 0.059915 0.663631 0.733888
Si Si4 0.832173 0.500000 0.066466
Si Si5 0.302268 0.665885 0.566742
Si Si6 0.128817 0.204595 0.065658
Si Si7 0.058265 0.156605 0.834290
Si Si8 0.781730 0.000000 0.066299
O O1 0.950086 0.251090 0.414517
O O2 0.000000 0.160241 0.500000
O O3 0.000000 0.000000 0.414836
O O4 0.590800 0.184840 0.322417
O O5 0.649699 0.248491 0.408522
O O6 0.599053 0.000000 0.400371
O O7 0.059879 0.500000 0.746003
O O8 0.080555 0.745587 0.786810
O O9 0.000000 0.705422 0.724622
O O10 0.863578 0.635495 0.079235
O O11 0.774859 0.500000 0.090127
O O12 0.826433 0.500000 0.000000
O O13 0.306989 0.668821 0.500000
O O14 0.301163 0.500000 0.582540
O O15 0.250000 0.750000 0.580961
O O16 0.086434 0.153335 0.107364
O O17 0.182823 0.131370 0.078957
O O18 0.118669 0.182957 0.000000
O O19 0.000000 0.202191 0.843870
O O20 0.058226 0.000000 0.811909
O O21 0.776714 0.000000 0.000000
#
# Coordination Sequence:
#
# PCOD9486220 Si02
#       8
#     8  16  16   8  16  16  16   8
#     4  11  23  35  51  83 125 157 182 223 280 335
#     4  11  21  36  58  84 112 146 189 235 285 335
#     4   9  19  37  57  78 104 138 181 225 271 324
#     4   9  18  30  49  75 101 131 170 208 255 318
#     4  10  21  37  57  84 117 154 194 231 272 327
#     4  10  19  32  50  77 107 136 172 212 262 323
#     4  10  21  35  52  76 103 136 178 218 262 318
#     4   9  16  30  51  73 101 133 164 208 257 310
#
# _framework density 17.106269000000001
#
# number of rings (size 3 to 8) (size 9 to 14) (size 15 to 20)
#    0.000    2.077    1.538    2.077    1.077    6.769 
#    0.000    0.769    0.000    3.231    0.000    0.000 
#    0.000    0.000    0.000    0.000    0.000    0.000 
#
# Total GULP energy -289577.479340 kJ/mol
# GULP energy per Si atom -5568.797680 kJ/mol
# Density = 1.706733 g / cm^3
# Si number density = 17.106269 Si / 1000 Ang^3
#
#
#
# Elastic Constant Matrix: (Units=GPa)
#
#
# Indices 1 2 3 4 5 6 
#
# 1 102.7698 55.6303 40.6160 0.0000 0.0000 0.0000
# 2 55.6303 131.6854 45.6769 0.0000 0.0000 0.0000
# 3 40.6160 45.6769 72.3933 0.0000 0.0000 0.0000
# 4 0.0000 0.0000 0.0000 32.2652 0.0000 0.0000
# 5 0.0000 0.0000 0.0000 0.0000 15.0815 0.0000
# 6 0.0000 0.0000 0.0000 0.0000 0.0000 33.8938
#
#
#
# Elastic Compliance Matrix: (Units=1/GPa)
#
#
# Indices 1 2 3 4 5 6 
#
# 1 0.014039 -0.004095 -0.005293 0.000000 0.000000 0.000000
# 2 -0.004095 0.010916 -0.004590 0.000000 0.000000 0.000000
# 3 -0.005293 -0.004590 0.019679 0.000000 0.000000 0.000000
# 4 0.000000 0.000000 0.000000 0.030993 0.000000 0.000000
# 5 0.000000 0.000000 0.000000 0.000000 0.066306 0.000000
# 6 0.000000 0.000000 0.000000 0.000000 0.000000 0.029504
#
#
# Mechanical properties :
#
#
# Convention : Reuss Voigt Hill
#
# Bulk Modulus (GPa) = 59.95763 65.63275 62.79519
# Shear Modulus (GPa) = 24.39598 27.24312 25.81955
#
# Velocity S-wave (km/s) = 3.78053 3.99504 3.88927
# Velocity P-wave (km/s) = 7.36089 7.72861 7.54699
#
# Compressibility (1/GPa) = 0.01667844
#
# Stress axis : x y z
#
# Youngs Moduli (GPa) = 71.23098 91.61030 50.81551
#
# Poissons Ratio (x) = 0.37513 0.26896
# Poissons Ratio (y) = 0.29168 0.23324
# Poissons Ratio (z) = 0.37701 0.42049
#
# Static dielectric constant tensor:
#      x y z
#    x 1.585180 0.000000 0.000000 
#    y 0.000000 1.605760 0.000000 
#    z 0.000000 0.000000 1.556920 
# 
# From -- ./inp_files/71925.got.cif
#   From: 2010.05.17/outbox.cif.g08.bks.cpg/sg65_36_cif.got.tgz:71925.got - 2010.06.03 17:01:31.
