data_PCOD9486783
_publ_section_title
;
Structure prediction by ZEFSAII (Michael W. Deem and Ramdas Pophale) SiO2 
 PCOD9486783
Probable space group: C M M M
;
_chemical_formula_sum "Si O2"
_cell_formula_units_Z 80
_cell_length_a 27.884187
_cell_length_b 8.712720
_cell_length_c 18.950065
_cell_angle_alpha 90.000000
_cell_angle_beta 90.000000
_cell_angle_gamma 90.000000
_cell_volume 4603.863597
_symmetry_space_group_name_H-M "C M M M"
_symmetry_group_IT_number 65
_symmetry_cell_setting 'orthorhombic'
loop_
_space_group_symop_operation_xyz
x,y,z
-x,-y,z
x,-y,-z
-x,y,-z
-x,-y,-z
x,y,-z
-x,y,z
x,-y,z
1/2+x,1/2+y,z
1/2-x,1/2-y,z
1/2+x,1/2-y,-z
1/2-x,1/2+y,-z
1/2-x,1/2-y,-z
1/2+x,1/2+y,-z
1/2-x,1/2+y,z
1/2+x,1/2-y,z
loop_
_atom_site_type_symbol
_atom_site_label
_atom_site_fract_x
_atom_site_fract_y
_atom_site_fract_z
Si Si1 0.945664 0.184815 0.213170
Si Si2 0.556066 0.815844 0.500000
Si Si3 0.853559 0.684674 0.144754
Si Si4 0.696480 0.814025 0.000000
Si Si5 0.104647 0.184159 0.360107
Si Si6 0.302600 0.184253 0.709491
O O1 0.906287 0.251106 0.160161
O O2 0.928024 0.226422 0.292141
O O3 0.000000 0.237537 0.200978
O O4 0.944763 0.000000 0.208845
O O5 0.500000 0.770286 0.500000
O O6 0.581839 0.751370 0.430574
O O7 0.558637 0.000000 0.500000
O O8 0.855910 0.500000 0.144468
O O9 0.820425 0.729906 0.211593
O O10 0.830957 0.735698 0.070957
O O11 0.750000 0.750000 0.000000
O O12 0.698384 0.000000 0.000000
O O13 0.157269 0.249981 0.343181
O O14 0.106705 0.000000 0.364338
O O15 0.250000 0.250000 0.696254
O O16 0.302007 0.000000 0.705575
#
# Coordination Sequence:
#
# PCOD9486783 Si02
#       6
#    16   8  16   8  16  16
#     4   9  18  33  53  76 101 131 170 213 253 297
#     4  11  23  37  54  79 110 139 167 205 253 303
#     4   9  19  33  50  74 103 134 170 211 253 303
#     4  10  20  34  51  74 103 133 168 209 255 304
#     4  10  20  35  55  78 104 135 172 212 254 301
#     4  10  19  33  53  77 104 135 172 212 256 304
#
# _framework density 17.376709000000002
#
# number of rings (size 3 to 8) (size 9 to 14) (size 15 to 20)
#    0.000    2.300    0.000    2.700    0.000    4.400 
#    0.000    1.000    0.000    3.000    0.000    0.000 
#    0.000    0.000    0.000    0.000    0.000    0.000 
#
# Total GULP energy -223272.122110 kJ/mol
# GULP energy per Si atom -5581.803053 kJ/mol
# Density = 1.733716 g / cm^3
# Si number density = 17.376709 Si / 1000 Ang^3
#
#
#
# Elastic Constant Matrix: (Units=GPa)
#
#
# Indices 1 2 3 4 5 6 
#
# 1 199.5238 46.7010 101.2080 0.0000 0.0000 0.0000
# 2 46.7010 33.7719 38.4541 0.0000 0.0000 0.0000
# 3 101.2080 38.4541 142.5395 0.0000 0.0000 0.0000
# 4 0.0000 0.0000 0.0000 22.1837 0.0000 0.0000
# 5 0.0000 0.0000 0.0000 0.0000 18.7437 0.0000
# 6 0.0000 0.0000 0.0000 0.0000 0.0000 33.1875
#
#
#
# Elastic Compliance Matrix: (Units=1/GPa)
#
#
# Indices 1 2 3 4 5 6 
#
# 1 0.008962 -0.007430 -0.004359 0.000000 0.000000 0.000000
# 2 -0.007430 0.048898 -0.007916 0.000000 0.000000 0.000000
# 3 -0.004359 -0.007916 0.012246 0.000000 0.000000 0.000000
# 4 0.000000 0.000000 0.000000 0.045078 0.000000 0.000000
# 5 0.000000 0.000000 0.000000 0.000000 0.053351 0.000000
# 6 0.000000 0.000000 0.000000 0.000000 0.000000 0.030132
#
#
# Mechanical properties :
#
#
# Convention : Reuss Voigt Hill
#
# Bulk Modulus (GPa) = 32.57688 83.17347 57.87517
# Shear Modulus (GPa) = 20.13608 27.45444 23.79526
#
# Velocity S-wave (km/s) = 3.40780 3.97918 3.70452
# Velocity P-wave (km/s) = 5.85426 8.31148 7.18864
#
# Compressibility (1/GPa) = 0.03069662
#
# Stress axis : x y z
#
# Youngs Moduli (GPa) = 111.58178 20.45054 81.65733
#
# Poissons Ratio (x) = 0.15194 0.35594
# Poissons Ratio (y) = 0.82902 0.64643
# Poissons Ratio (z) = 0.48638 0.16189
#
# Static dielectric constant tensor:
#      x y z
#    x 1.565940 0.000000 0.000000 
#    y 0.000000 1.584250 0.000000 
#    z 0.000000 0.000000 1.573770 
# 
# From -- ./inp_files/49901.got.cif
#   From: 2010.05.17/outbox.cif.g08.bks.cpg/sg65_25_cif.got.tgz:49901.got - 2010.06.03 17:01:31.
