data_PCOD9486255
_publ_section_title
;
Structure prediction by ZEFSAII (Michael W. Deem and Ramdas Pophale) SiO2 
 PCOD9486255
Probable space group: C M M M
;
_chemical_formula_sum "Si O2"
_cell_formula_units_Z 88
_cell_length_a 8.294552
_cell_length_b 18.431213
_cell_length_c 30.222342
_cell_angle_alpha 90.000000
_cell_angle_beta 90.000000
_cell_angle_gamma 90.000000
_cell_volume 4620.350985
_symmetry_space_group_name_H-M "C M M M"
_symmetry_group_IT_number 65
_symmetry_cell_setting 'orthorhombic'
loop_
_space_group_symop_operation_xyz
x,y,z
-x,-y,z
x,-y,-z
-x,y,-z
-x,-y,-z
x,y,-z
-x,y,z
x,-y,z
1/2+x,1/2+y,z
1/2-x,1/2-y,z
1/2+x,1/2-y,-z
1/2-x,1/2+y,-z
1/2-x,1/2-y,-z
1/2+x,1/2+y,-z
1/2-x,1/2+y,z
1/2+x,1/2-y,z
loop_
_atom_site_type_symbol
_atom_site_label
_atom_site_fract_x
_atom_site_fract_y
_atom_site_fract_z
Si Si1 0.192617 0.667466 0.587757
Si Si2 0.804804 0.334268 0.952356
Si Si3 0.302817 0.083639 0.500000
Si Si4 0.807367 0.917441 0.325803
Si Si5 0.693556 0.833525 0.760564
Si Si6 0.305214 0.833928 0.857205
O O1 0.250000 0.750000 0.587055
O O2 0.251798 0.624728 0.544244
O O3 0.246762 0.627998 0.632393
O O4 0.000000 0.666967 0.586597
O O5 0.750000 0.250000 0.952350
O O6 0.750288 0.365607 0.904733
O O7 0.000000 0.335980 0.952367
O O8 0.750321 0.365465 0.000000
O O9 0.500000 0.084167 0.500000
O O10 0.251566 0.000000 0.500000
O O11 0.756566 0.879894 0.280157
O O12 0.000000 0.918831 0.327574
O O13 0.745641 0.000000 0.328026
O O14 0.500000 0.834003 0.759564
O O15 0.750000 0.750000 0.756281
O O16 0.748062 0.862375 0.809150
O O17 0.500000 0.836092 0.857265
O O18 0.250000 0.750000 0.857353
#
# Coordination Sequence:
#
# PCOD9486255 Si02
#       6
#    16  16   8  16  16  16
#     4  11  22  38  61  86 114 145 178 214 252 298
#     4   8  12  18  29  47  75 111 148 185 228 279
#     4   9  19  36  59  87 116 147 182 217 252 292
#     4  11  24  40  56  76 103 133 169 214 262 310
#     4  10  19  32  51  73  99 131 168 208 251 302
#     4   8  14  23  36  57  84 116 154 194 236 285
#
# _framework density 19.046173
#
# number of rings (size 3 to 8) (size 9 to 14) (size 15 to 20)
#    0.000    2.455    0.000    3.000    0.000    2.909 
#    0.000    1.364    0.000    3.273    0.000    0.000 
#    0.000    0.727    0.000    9.091    0.000    4.727 
#
# Total GULP energy -245185.001191 kJ/mol
# GULP energy per Si atom -5572.386391 kJ/mol
# Density = 1.900282 g / cm^3
# Si number density = 19.046173 Si / 1000 Ang^3
#
#
#
# Elastic Constant Matrix: (Units=GPa)
#
#
# Indices 1 2 3 4 5 6 
#
# 1 26.7468 14.8002 25.0535 0.0000 0.0000 0.0000
# 2 14.8002 99.9333 91.2560 0.0000 0.0000 0.0000
# 3 25.0535 91.2560 253.7270 0.0000 0.0000 0.0000
# 4 0.0000 0.0000 0.0000 -9.1522 0.0000 0.0000
# 5 0.0000 0.0000 0.0000 0.0000 -984.1449 0.0000
# 6 0.0000 0.0000 0.0000 0.0000 0.0000 5.8544
#
#
#
# Elastic Compliance Matrix: (Units=1/GPa)
#
#
# Indices 1 2 3 4 5 6 
#
# 1 0.042064 -0.003629 -0.002848 0.000000 0.000000 0.000000
# 2 -0.003629 0.015213 -0.005113 0.000000 0.000000 0.000000
# 3 -0.002848 -0.005113 0.006062 0.000000 0.000000 0.000000
# 4 0.000000 0.000000 0.000000 -0.109263 0.000000 0.000000
# 5 0.000000 0.000000 0.000000 0.000000 -0.001016 0.000000
# 6 0.000000 0.000000 0.000000 0.000000 0.000000 0.170812
#
#
# Mechanical properties :
#
#
# Convention : Reuss Voigt Hill
#
# Bulk Modulus (GPa) = 24.90168 71.40290 48.15229
# Shear Modulus (GPa) = 31.16466 -180.86872 -74.85203
#
# Velocity S-wave (km/s) = 4.04947 -9.75548 -6.27580
# Velocity P-wave (km/s) = 5.91329 9.45102 5.21319
#
# Compressibility (1/GPa) = 0.04015793
#
# Stress axis : x y z
#
# Youngs Moduli (GPa) = 23.77352 65.73113 164.97295
#
# Poissons Ratio (x) = 0.23851 0.46990
# Poissons Ratio (y) = 0.08626 0.84358
# Poissons Ratio (z) = 0.06772 0.33611
#
# Static dielectric constant tensor:
#      x y z
#    x 1.733060 0.000000 0.000000 
#    y 0.000000 1.618250 0.000000 
#    z 0.000000 0.000000 1.726890 
# 
# From -- ./inp_files/76432.got.cif
#   From: 2010.05.17/outbox.cif.g08.bks.cpg/sg65_39_cif.got.tgz:76432.got - 2010.06.03 17:01:31.
