data_PCOD9486502
_publ_section_title
;
Structure prediction by ZEFSAII (Michael W. Deem and Ramdas Pophale) SiO2 
 PCOD9486502
Probable space group: C M M M
;
_chemical_formula_sum "Si O2"
_cell_formula_units_Z 116
_cell_length_a 7.365521
_cell_length_b 30.057204
_cell_length_c 25.962024
_cell_angle_alpha 90.000000
_cell_angle_beta 90.000000
_cell_angle_gamma 90.000000
_cell_volume 5747.653757
_symmetry_space_group_name_H-M "C M M M"
_symmetry_group_IT_number 65
_symmetry_cell_setting 'orthorhombic'
loop_
_space_group_symop_operation_xyz
x,y,z
-x,-y,z
x,-y,-z
-x,y,-z
-x,-y,-z
x,y,-z
-x,y,z
x,-y,z
1/2+x,1/2+y,z
1/2-x,1/2-y,z
1/2+x,1/2-y,-z
1/2-x,1/2+y,-z
1/2-x,1/2-y,-z
1/2+x,1/2+y,-z
1/2-x,1/2+y,z
1/2+x,1/2-y,z
loop_
_atom_site_type_symbol
_atom_site_label
_atom_site_fract_x
_atom_site_fract_y
_atom_site_fract_z
Si Si1 0.783331 0.302487 0.761343
Si Si2 0.000000 0.500000 0.087504
Si Si3 0.791501 0.076350 0.939674
Si Si4 0.777233 0.353192 0.657551
Si Si5 0.216611 0.697481 0.443661
Si Si6 0.280265 0.048186 0.672628
Si Si7 0.279513 0.047935 0.793703
Si Si8 0.719141 0.863889 0.851764
O O1 0.750000 0.250000 0.756187
O O2 0.717604 0.330190 0.711239
O O3 0.718072 0.322967 0.815940
O O4 0.000000 0.308711 0.761213
O O5 0.156725 0.460426 0.083593
O O6 0.774956 0.123410 0.909524
O O7 0.000000 0.061629 0.935701
O O8 0.745620 0.080710 0.000000
O O9 0.715266 0.326237 0.607562
O O10 0.719082 0.404452 0.651627
O O11 0.000000 0.352792 0.658941
O O12 0.286470 0.682846 0.500000
O O13 0.250000 0.750000 0.439501
O O14 0.000000 0.690512 0.444315
O O15 0.500000 0.047717 0.668499
O O16 0.237824 0.049903 0.733374
O O17 0.216355 0.000000 0.652501
O O18 0.500000 0.047309 0.798357
O O19 0.217210 0.092008 0.821183
O O20 0.215765 0.000000 0.813119
O O21 0.500000 0.862429 0.852141
#
# Coordination Sequence:
#
# PCOD9486502 Si02
#       8
#    16   4  16  16  16  16  16  16
#     4  10  20  33  50  75 103 134 173 221 281 339
#     4  12  23  42  64  86 122 164 198 234 277 330
#     4  11  24  39  58  86 118 155 196 234 279 333
#     4   9  15  26  43  65  98 131 170 214 261 325
#     4   9  17  28  43  64  92 129 169 214 264 313
#     4   8  12  20  36  61  92 124 160 204 246 298
#     4   8  13  21  38  65  94 123 160 202 245 300
#     4  10  19  32  53  76 104 140 180 223 277 335
#
# _framework density 20.182148000000002
#
# number of rings (size 3 to 8) (size 9 to 14) (size 15 to 20)
#    0.000    2.621    2.069    2.069    0.966    1.103 
#    0.000    0.000    0.000    0.828    0.000    2.897 
#    0.000    1.655    0.000    3.448    0.000    3.586 
#
# Total GULP energy -322943.584129 kJ/mol
# GULP energy per Si atom -5567.992830 kJ/mol
# Density = 2.013621 g / cm^3
# Si number density = 20.182148 Si / 1000 Ang^3
#
#
#
# Elastic Constant Matrix: (Units=GPa)
#
#
# Indices 1 2 3 4 5 6 
#
# 1 85.7148 5.1586 15.0323 0.0000 0.0000 0.0000
# 2 5.1586 125.6971 59.0665 0.0000 0.0000 0.0000
# 3 15.0323 59.0665 104.1341 0.0000 0.0000 0.0000
# 4 0.0000 0.0000 0.0000 21.4323 0.0000 0.0000
# 5 0.0000 0.0000 0.0000 0.0000 173.2386 0.0000
# 6 0.0000 0.0000 0.0000 0.0000 0.0000 10.0429
#
#
#
# Elastic Compliance Matrix: (Units=1/GPa)
#
#
# Indices 1 2 3 4 5 6 
#
# 1 0.011987 0.000438 -0.001979 0.000000 0.000000 0.000000
# 2 0.000438 0.010863 -0.006225 0.000000 0.000000 0.000000
# 3 -0.001979 -0.006225 0.013419 0.000000 0.000000 0.000000
# 4 0.000000 0.000000 0.000000 0.046659 0.000000 0.000000
# 5 0.000000 0.000000 0.000000 0.000000 0.005772 0.000000
# 6 0.000000 0.000000 0.000000 0.000000 0.000000 0.099573
#
#
# Mechanical properties :
#
#
# Convention : Reuss Voigt Hill
#
# Bulk Modulus (GPa) = 48.22028 52.67343 50.44685
# Shear Modulus (GPa) = 23.72849 56.69534 40.21191
#
# Velocity S-wave (km/s) = 3.43259 5.30592 4.46853
# Velocity P-wave (km/s) = 6.29719 7.98077 7.18844
#
# Compressibility (1/GPa) = 0.02073816
#
# Stress axis : x y z
#
# Youngs Moduli (GPa) = 83.42176 92.05782 74.51887
#
# Poissons Ratio (x) = -0.04031 0.14746
# Poissons Ratio (y) = -0.03653 0.46386
# Poissons Ratio (z) = 0.16508 0.57304
#
# Static dielectric constant tensor:
#      x y z
#    x 1.808350 0.000000 0.000000 
#    y 0.000000 1.713840 0.000000 
#    z 0.000000 0.000000 1.747700 
# 
# From -- ./inp_files/74088.got.cif
#   From: 2010.05.17/outbox.cif.g08.bks.cpg/sg65_38_cif.got.tgz:74088.got - 2010.06.03 17:01:31.
