data_PCOD9486876
_publ_section_title
;
Structure prediction by ZEFSAII (Michael W. Deem and Ramdas Pophale) SiO2 
 PCOD9486876
Probable space group: C M M M
;
_chemical_formula_sum "Si O2"
_cell_formula_units_Z 88
_cell_length_a 19.444295
_cell_length_b 8.686877
_cell_length_c 29.275293
_cell_angle_alpha 90.000000
_cell_angle_beta 90.000000
_cell_angle_gamma 90.000000
_cell_volume 4944.895567
_symmetry_space_group_name_H-M "C M M M"
_symmetry_group_IT_number 65
_symmetry_cell_setting 'orthorhombic'
loop_
_space_group_symop_operation_xyz
x,y,z
-x,-y,z
x,-y,-z
-x,y,-z
-x,-y,-z
x,y,-z
-x,y,z
x,-y,z
1/2+x,1/2+y,z
1/2-x,1/2-y,z
1/2+x,1/2-y,-z
1/2-x,1/2+y,-z
1/2-x,1/2-y,-z
1/2+x,1/2+y,-z
1/2-x,1/2+y,z
1/2+x,1/2-y,z
loop_
_atom_site_type_symbol
_atom_site_label
_atom_site_fract_x
_atom_site_fract_y
_atom_site_fract_z
Si Si1 0.325654 0.815950 0.869668
Si Si2 0.672958 0.315014 0.500000
Si Si3 0.825928 0.685686 0.234107
Si Si4 0.579627 0.186372 0.318163
Si Si5 0.580651 0.314808 0.949024
Si Si6 0.827840 0.814687 0.399524
O O1 0.250000 0.750000 0.878734
O O2 0.344536 0.767640 0.817750
O O3 0.376951 0.757034 0.908085
O O4 0.323211 0.000000 0.870644
O O5 0.675289 0.500000 0.500000
O O6 0.750000 0.250000 0.500000
O O7 0.644536 0.269359 0.549678
O O8 0.822011 0.500000 0.235104
O O9 0.750000 0.750000 0.244620
O O10 0.881192 0.734578 0.271778
O O11 0.500000 0.235334 0.318885
O O12 0.622876 0.250634 0.360531
O O13 0.581009 0.000000 0.319919
O O14 0.500000 0.276339 0.944969
O O15 0.586518 0.500000 0.946995
O O16 0.603908 0.266055 0.000000
O O17 0.750000 0.750000 0.394458
O O18 0.824561 0.000000 0.396856
#
# Coordination Sequence:
#
# PCOD9486876 Si02
#       6
#    16   8  16  16  16  16
#     4  10  20  34  54  79 105 133 168 210 254 301
#     4   8  16  30  49  74 101 129 163 207 253 296
#     4   9  19  35  54  75 100 132 168 208 254 302
#     4  10  21  36  52  73 104 138 170 207 253 302
#     4   9  19  36  55  75 103 138 172 208 253 302
#     4  10  19  33  54  78 103 132 169 210 253 301
#
# _framework density 17.796128
#
# number of rings (size 3 to 8) (size 9 to 14) (size 15 to 20)
#    0.000    2.545    0.000    2.182    0.000    5.818 
#    0.000    3.182    0.000    2.727    0.000    0.000 
#    0.000    0.000    0.000    0.000    0.000    0.000 
#
# Total GULP energy -245327.521670 kJ/mol
# GULP energy per Si atom -5575.625492 kJ/mol
# Density = 1.775562 g / cm^3
# Si number density = 17.796128 Si / 1000 Ang^3
#
#
#
# Elastic Constant Matrix: (Units=GPa)
#
#
# Indices 1 2 3 4 5 6 
#
# 1 112.2406 32.4336 116.3380 0.0000 0.0000 0.0000
# 2 32.4336 19.1768 42.3014 0.0000 0.0000 0.0000
# 3 116.3380 42.3014 184.8300 0.0000 0.0000 0.0000
# 4 0.0000 0.0000 0.0000 21.3511 0.0000 0.0000
# 5 0.0000 0.0000 0.0000 0.0000 -26.7211 0.0000
# 6 0.0000 0.0000 0.0000 0.0000 0.0000 25.1094
#
#
#
# Elastic Compliance Matrix: (Units=1/GPa)
#
#
# Indices 1 2 3 4 5 6 
#
# 1 0.028200 -0.017248 -0.013802 0.000000 0.000000 0.000000
# 2 -0.017248 0.115863 -0.015661 0.000000 0.000000 0.000000
# 3 -0.013802 -0.015661 0.017682 0.000000 0.000000 0.000000
# 4 0.000000 0.000000 0.000000 0.046836 0.000000 0.000000
# 5 0.000000 0.000000 0.000000 0.000000 -0.037424 0.000000
# 6 0.000000 0.000000 0.000000 0.000000 0.000000 0.039826
#
#
# Mechanical properties :
#
#
# Convention : Reuss Voigt Hill
#
# Bulk Modulus (GPa) = 14.63640 77.59926 46.11783
# Shear Modulus (GPa) = 15.28219 12.29285 13.78752
#
# Velocity S-wave (km/s) = 2.93360 2.63108 2.78645
# Velocity P-wave (km/s) = 4.44039 7.27526 6.02687
#
# Compressibility (1/GPa) = 0.06832280
#
# Stress axis : x y z
#
# Youngs Moduli (GPa) = 35.46154 8.63091 56.55396
#
# Poissons Ratio (x) = 0.14886 0.78057
# Poissons Ratio (y) = 0.61163 0.88568
# Poissons Ratio (z) = 0.48945 0.13517
#
# Static dielectric constant tensor:
#      x y z
#    x 1.565780 0.000000 0.000000 
#    y 0.000000 1.610390 0.000000 
#    z 0.000000 0.000000 1.634160 
# 
# From -- ./inp_files/76490.got.cif
#   From: 2010.05.17/outbox.cif.g08.bks.cpg/sg65_39_cif.got.tgz:76490.got - 2010.06.03 17:01:31.
