data_PCOD9486190
_publ_section_title
;
Structure prediction by ZEFSAII (Michael W. Deem and Ramdas Pophale) SiO2 
 PCOD9486190
Probable space group: C M M M
;
_chemical_formula_sum "Si O2"
_cell_formula_units_Z 120
_cell_length_a 8.542543
_cell_length_b 28.805880
_cell_length_c 27.298872
_cell_angle_alpha 90.000000
_cell_angle_beta 90.000000
_cell_angle_gamma 90.000000
_cell_volume 6717.582718
_symmetry_space_group_name_H-M "C M M M"
_symmetry_group_IT_number 65
_symmetry_cell_setting 'orthorhombic'
loop_
_space_group_symop_operation_xyz
x,y,z
-x,-y,z
x,-y,-z
-x,y,-z
-x,-y,-z
x,y,-z
-x,y,z
x,-y,z
1/2+x,1/2+y,z
1/2-x,1/2-y,z
1/2+x,1/2-y,-z
1/2-x,1/2+y,-z
1/2-x,1/2-y,-z
1/2+x,1/2+y,-z
1/2-x,1/2+y,z
1/2+x,1/2-y,z
loop_
_atom_site_type_symbol
_atom_site_label
_atom_site_fract_x
_atom_site_fract_y
_atom_site_fract_z
Si Si1 0.313065 0.892341 0.702971
Si Si2 0.689192 0.698133 0.055361
Si Si3 0.190791 0.053163 0.500000
Si Si4 0.311009 0.947013 0.199902
Si Si5 0.811877 0.799099 0.556746
Si Si6 0.811096 0.857664 0.149686
Si Si7 0.689306 0.395382 0.598892
Si Si8 0.187467 0.197936 0.247311
O O1 0.500000 0.889482 0.703732
O O2 0.262281 0.926303 0.747145
O O3 0.256496 0.910545 0.650638
O O4 0.245602 0.841055 0.714465
O O5 0.500000 0.699285 0.056293
O O6 0.750000 0.750000 0.065233
O O7 0.741953 0.663581 0.098088
O O8 0.738330 0.685244 0.000000
O O9 0.241239 0.077217 0.449610
O O10 0.000000 0.055851 0.500000
O O11 0.237881 0.000000 0.500000
O O12 0.500000 0.947210 0.198761
O O13 0.251444 0.908863 0.161440
O O14 0.256946 0.000000 0.192814
O O15 0.760271 0.805521 0.500000
O O16 0.750000 0.750000 0.574484
O O17 0.761703 0.842282 0.589057
O O18 0.000000 0.798388 0.556145
O O19 0.763273 0.823144 0.194196
O O20 0.000000 0.859322 0.150079
O O21 0.500000 0.397548 0.600976
O O22 0.250000 0.250000 0.254574
O O23 0.000000 0.199409 0.248958
#
# Coordination Sequence:
#
# PCOD9486190 Si02
#       8
#    16  16   8  16  16  16  16  16
#     4  10  21  35  51  73 100 129 161 198 247 301
#     4   9  17  29  46  72 108 145 177 209 247 293
#     4   9  18  34  56  77  95 121 157 193 235 289
#     4   9  19  36  55  73  95 126 165 211 262 310
#     4   9  17  30  48  69  92 120 151 184 221 263
#     4   9  18  31  49  75 103 133 171 213 253 294
#     4  10  19  34  53  73  99 126 155 195 239 283
#     4  10  19  32  50  73 102 134 168 205 243 287
#
# _framework density 17.863568999999998
#
# number of rings (size 3 to 8) (size 9 to 14) (size 15 to 20)
#    0.000    2.600    0.667    1.200    0.000    3.467 
#    0.000    1.667    0.000    0.800    0.000    2.800 
#    0.000    0.000    0.000    0.000    0.000    0.000 
#
# Total GULP energy -334607.430562 kJ/mol
# GULP energy per Si atom -5576.790509 kJ/mol
# Density = 1.782291 g / cm^3
# Si number density = 17.863569 Si / 1000 Ang^3
#
#
#
# Elastic Constant Matrix: (Units=GPa)
#
#
# Indices 1 2 3 4 5 6 
#
# 1 11.6764 18.8904 18.5369 0.0000 0.0000 0.0000
# 2 18.8904 121.1571 73.5803 0.0000 0.0000 0.0000
# 3 18.5369 73.5803 134.0774 0.0000 0.0000 0.0000
# 4 0.0000 0.0000 0.0000 10.7827 0.0000 0.0000
# 5 0.0000 0.0000 0.0000 0.0000 18.4234 0.0000
# 6 0.0000 0.0000 0.0000 0.0000 0.0000 22.1096
#
#
#
# Elastic Compliance Matrix: (Units=1/GPa)
#
#
# Indices 1 2 3 4 5 6 
#
# 1 0.122358 -0.013205 -0.009670 0.000000 0.000000 0.000000
# 2 -0.013205 0.013805 -0.005750 0.000000 0.000000 0.000000
# 3 -0.009670 -0.005750 0.011951 0.000000 0.000000 0.000000
# 4 0.000000 0.000000 0.000000 0.092741 0.000000 0.000000
# 5 0.000000 0.000000 0.000000 0.000000 0.054279 0.000000
# 6 0.000000 0.000000 0.000000 0.000000 0.000000 0.045229
#
#
# Mechanical properties :
#
#
# Convention : Reuss Voigt Hill
#
# Bulk Modulus (GPa) = 11.00555 54.32512 32.66534
# Shear Modulus (GPa) = 11.68496 20.65669 16.17083
#
# Velocity S-wave (km/s) = 2.56036 3.40422 3.01199
# Velocity P-wave (km/s) = 3.86197 6.77707 5.51559
#
# Compressibility (1/GPa) = 0.09086323
#
# Stress axis : x y z
#
# Youngs Moduli (GPa) = 8.17277 72.43836 83.67505
#
# Poissons Ratio (x) = 0.95654 0.80913
# Poissons Ratio (y) = 0.10792 0.48116
# Poissons Ratio (z) = 0.07903 0.41654
#
# Static dielectric constant tensor:
#      x y z
#    x 1.610030 0.000000 0.000000 
#    y 0.000000 1.593100 0.000000 
#    z 0.000000 0.000000 1.630000 
# 
# From -- ./inp_files/73958.got.cif
#   From: 2010.05.17/outbox.cif.g08.bks.cpg/sg65_37_cif.got.tgz:73958.got - 2010.06.03 17:01:31.
