data_PCOD9486149
_publ_section_title
;
Structure prediction by ZEFSAII (Michael W. Deem and Ramdas Pophale) SiO2 
 PCOD9486149
Probable space group: C M M M
;
_chemical_formula_sum "Si O2"
_cell_formula_units_Z 104
_cell_length_a 14.812263
_cell_length_b 18.652891
_cell_length_c 18.289431
_cell_angle_alpha 90.000000
_cell_angle_beta 90.000000
_cell_angle_gamma 90.000000
_cell_volume 5053.214823
_symmetry_space_group_name_H-M "C M M M"
_symmetry_group_IT_number 65
_symmetry_cell_setting 'orthorhombic'
loop_
_space_group_symop_operation_xyz
x,y,z
-x,-y,z
x,-y,-z
-x,y,-z
-x,-y,-z
x,y,-z
-x,y,z
x,-y,z
1/2+x,1/2+y,z
1/2-x,1/2-y,z
1/2+x,1/2-y,-z
1/2-x,1/2+y,-z
1/2-x,1/2-y,-z
1/2+x,1/2+y,-z
1/2-x,1/2+y,z
1/2+x,1/2-y,z
loop_
_atom_site_type_symbol
_atom_site_label
_atom_site_fract_x
_atom_site_fract_y
_atom_site_fract_z
Si Si1 0.389256 0.842934 0.584651
Si Si2 0.106072 0.077927 0.243440
Si Si3 0.639040 0.922264 0.916196
Si Si4 0.103731 0.733314 0.139598
Si Si5 0.654299 0.377373 0.919134
Si Si6 0.110256 0.774484 0.699220
Si Si7 0.395093 0.000000 0.410773
O O1 0.363557 0.833318 0.500000
O O2 0.500000 0.844838 0.586555
O O3 0.358988 0.776812 0.634381
O O4 0.357487 0.922035 0.610882
O O5 0.110811 0.095689 0.156606
O O6 0.143323 0.143866 0.291150
O O7 0.000000 0.074077 0.261049
O O8 0.147940 0.000000 0.256420
O O9 0.605547 0.849291 0.881257
O O10 0.746979 0.912224 0.917836
O O11 0.616191 0.000000 0.883105
O O12 0.607903 0.922729 0.000000
O O13 0.157409 0.790949 0.091067
O O14 0.134013 0.739407 0.223119
O O15 0.000000 0.758654 0.134442
O O16 0.614648 0.392918 0.000000
O O17 0.000000 0.776678 0.695092
O O18 0.500000 0.000000 0.387481
O O19 0.394678 0.000000 0.500000
#
# Coordination Sequence:
#
# PCOD9486149 Si02
#       7
#    16  16  16  16  16  16   8
#     4   8  12  20  36  57  82 113 147 181 219 266
#     4   9  17  28  43  64  91 120 147 186 242 293
#     4  10  21  35  49  66  91 123 158 197 238 280
#     4  10  20  33  48  68  95 125 157 192 234 285
#     4  10  19  32  50  69  88 114 154 202 243 277
#     4   8  15  27  40  58  86 118 150 181 221 276
#     4   7  10  16  28  50  76 100 133 175 213 251
#
# _framework density 20.580957000000001
#
# number of rings (size 3 to 8) (size 9 to 14) (size 15 to 20)
#    0.000    3.000    0.000    3.692    0.000    4.615 
#    1.385    1.538    0.000    0.462    0.000    3.231 
#    0.000    9.846    0.000    2.462    0.000    4.000 
#
# Total GULP energy -289645.799055 kJ/mol
# GULP energy per Si atom -5570.111520 kJ/mol
# Density = 2.053411 g / cm^3
# Si number density = 20.580957 Si / 1000 Ang^3
#
#
#
# Elastic Constant Matrix: (Units=GPa)
#
#
# Indices 1 2 3 4 5 6 
#
# 1 29.8634 9.0983 -1.1609 0.0000 0.0000 0.0000
# 2 9.0983 220.2680 77.1745 0.0000 0.0000 0.0000
# 3 -1.1609 77.1745 73.3118 0.0000 0.0000 0.0000
# 4 0.0000 0.0000 0.0000 23.1686 0.0000 0.0000
# 5 0.0000 0.0000 0.0000 0.0000 5.5609 0.0000
# 6 0.0000 0.0000 0.0000 0.0000 0.0000 -17.1163
#
#
#
# Elastic Compliance Matrix: (Units=1/GPa)
#
#
# Indices 1 2 3 4 5 6 
#
# 1 0.034389 -0.002553 0.003232 0.000000 0.000000 0.000000
# 2 -0.002553 0.007382 -0.007812 0.000000 0.000000 0.000000
# 3 0.003232 -0.007812 0.021915 0.000000 0.000000 0.000000
# 4 0.000000 0.000000 0.000000 0.043162 0.000000 0.000000
# 5 0.000000 0.000000 0.000000 0.000000 0.179827 0.000000
# 6 0.000000 0.000000 0.000000 0.000000 0.000000 -0.058424
#
#
# Mechanical properties :
#
#
# Convention : Reuss Voigt Hill
#
# Bulk Modulus (GPa) = 20.23425 54.85187 37.54306
# Shear Modulus (GPa) = 19.30575 18.21139 18.75857
#
# Velocity S-wave (km/s) = 3.06607 2.97790 3.02230
# Velocity P-wave (km/s) = 4.73151 6.20753 5.51909
#
# Compressibility (1/GPa) = 0.04942115
#
# Stress axis : x y z
#
# Youngs Moduli (GPa) = 29.07886 135.45847 45.63111
#
# Poissons Ratio (x) = 0.34580 -0.14747
# Poissons Ratio (y) = 0.07423 0.35646
# Poissons Ratio (z) = -0.09398 1.05816
#
# Static dielectric constant tensor:
#      x y z
#    x 1.775590 0.000000 0.000000 
#    y 0.000000 1.793900 0.000000 
#    z 0.000000 0.000000 1.710690 
# 
# From -- ./inp_files/54602.got.cif
#   From: 2010.05.17/outbox.cif.g08.bks.cpg/sg65_28_cif.got.tgz:54602.got - 2010.06.03 17:01:31.
