data_PCOD9486877
_publ_section_title
;
Structure prediction by ZEFSAII (Michael W. Deem and Ramdas Pophale) SiO2 
 PCOD9486877
Probable space group: C M M M
;
_chemical_formula_sum "Si O2"
_cell_formula_units_Z 64
_cell_length_a 18.584455
_cell_length_b 7.854063
_cell_length_c 21.630275
_cell_angle_alpha 90.000000
_cell_angle_beta 90.000000
_cell_angle_gamma 90.000000
_cell_volume 3157.230221
_symmetry_space_group_name_H-M "C M M M"
_symmetry_group_IT_number 65
_symmetry_cell_setting 'orthorhombic'
loop_
_space_group_symop_operation_xyz
x,y,z
-x,-y,z
x,-y,-z
-x,y,-z
-x,-y,-z
x,y,-z
-x,y,z
x,-y,z
1/2+x,1/2+y,z
1/2-x,1/2-y,z
1/2+x,1/2-y,-z
1/2-x,1/2+y,-z
1/2-x,1/2-y,-z
1/2+x,1/2+y,-z
1/2-x,1/2+y,z
1/2+x,1/2-y,z
loop_
_atom_site_type_symbol
_atom_site_label
_atom_site_fract_x
_atom_site_fract_y
_atom_site_fract_z
Si Si1 0.166339 0.794733 0.122765
Si Si2 0.165373 0.295019 0.500000
Si Si3 0.083214 0.208456 0.000000
Si Si4 0.834227 0.703444 0.634409
Si Si5 0.081382 0.796381 0.757199
O O1 0.250000 0.750000 0.121099
O O2 0.124642 0.734571 0.061594
O O3 0.128174 0.730010 0.185205
O O4 0.161467 0.000000 0.122940
O O5 0.157626 0.500000 0.500000
O O6 0.250000 0.250000 0.500000
O O7 0.138843 0.232069 0.566925
O O8 0.000000 0.261302 0.000000
O O9 0.083652 0.000000 0.000000
O O10 0.838495 0.500000 0.633495
O O11 0.750000 0.750000 0.641371
O O12 0.879516 0.765228 0.692397
O O13 0.000000 0.728320 0.757567
O O14 0.076964 0.000000 0.765068
#
# Coordination Sequence:
#
# PCOD9486877 Si02
#       5
#    16   8   8  16  16
#     4  10  20  34  54  78 103 133 170 212 254 299
#     4   8  16  30  49  74 101 129 165 209 253 300
#     4   9  17  32  55  79 102 133 172 208 246 297
#     4  10  19  33  54  78 103 133 170 211 256 306
#     4  10  21  36  52  73 103 137 173 214 259 306
#
# _framework density 20.270932999999999
#
# number of rings (size 3 to 8) (size 9 to 14) (size 15 to 20)
#    0.000    2.375    0.000    2.625    0.000    7.500 
#    0.000    0.625    0.000    6.750    0.000    0.000 
#    0.000    0.000    0.000    0.000    0.000    0.000 
#
# Total GULP energy -178573.572339 kJ/mol
# GULP energy per Si atom -5580.424136 kJ/mol
# Density = 2.022480 g / cm^3
# Si number density = 20.270933 Si / 1000 Ang^3
#
#
#
# Elastic Constant Matrix: (Units=GPa)
#
#
# Indices 1 2 3 4 5 6 
#
# 1 165.2650 3.3567 128.3543 0.0000 0.0000 0.0000
# 2 3.3567 23.9428 7.6994 0.0000 0.0000 0.0000
# 3 128.3543 7.6994 248.2907 0.0000 0.0000 0.0000
# 4 0.0000 0.0000 0.0000 20.7078 0.0000 0.0000
# 5 0.0000 0.0000 0.0000 0.0000 -8.4104 0.0000
# 6 0.0000 0.0000 0.0000 0.0000 0.0000 23.5244
#
#
#
# Elastic Compliance Matrix: (Units=1/GPa)
#
#
# Indices 1 2 3 4 5 6 
#
# 1 0.010112 0.000266 -0.005235 0.000000 0.000000 0.000000
# 2 0.000266 0.042194 -0.001446 0.000000 0.000000 0.000000
# 3 -0.005235 -0.001446 0.006779 0.000000 0.000000 0.000000
# 4 0.000000 0.000000 0.000000 0.048291 0.000000 0.000000
# 5 0.000000 0.000000 0.000000 0.000000 -0.118900 0.000000
# 6 0.000000 0.000000 0.000000 0.000000 0.000000 0.042509
#
#
# Mechanical properties :
#
#
# Convention : Reuss Voigt Hill
#
# Bulk Modulus (GPa) = 21.61994 79.59103 50.60548
# Shear Modulus (GPa) = 84.41250 27.03690 55.72470
#
# Velocity S-wave (km/s) = 6.46007 3.65605 5.24877
# Velocity P-wave (km/s) = 8.14445 7.56116 7.85822
#
# Compressibility (1/GPa) = 0.04625360
#
# Stress axis : x y z
#
# Youngs Moduli (GPa) = 98.89556 23.70010 147.51710
#
# Poissons Ratio (x) = -0.00630 0.77233
# Poissons Ratio (y) = -0.02630 0.21330
# Poissons Ratio (z) = 0.51777 0.03427
#
# Static dielectric constant tensor:
#      x y z
#    x 1.668640 0.000000 0.000000 
#    y 0.000000 1.798830 0.000000 
#    z 0.000000 0.000000 1.742500 
# 
# From -- ./inp_files/58780.got.cif
#   From: 2010.05.17/outbox.cif.g08.bks.cpg/sg65_30_cif.got.tgz:58780.got - 2010.06.03 17:01:31.
