data_PCOD9486867
_publ_section_title
;
Structure prediction by ZEFSAII (Michael W. Deem and Ramdas Pophale) SiO2 
 PCOD9486867
Probable space group: C M M M
;
_chemical_formula_sum "Si O2"
_cell_formula_units_Z 88
_cell_length_a 8.201893
_cell_length_b 19.453397
_cell_length_c 30.203714
_cell_angle_alpha 90.000000
_cell_angle_beta 90.000000
_cell_angle_gamma 90.000000
_cell_volume 4819.143943
_symmetry_space_group_name_H-M "C M M M"
_symmetry_group_IT_number 65
_symmetry_cell_setting 'orthorhombic'
loop_
_space_group_symop_operation_xyz
x,y,z
-x,-y,z
x,-y,-z
-x,y,-z
-x,-y,-z
x,y,-z
-x,y,z
x,-y,z
1/2+x,1/2+y,z
1/2-x,1/2-y,z
1/2+x,1/2-y,-z
1/2-x,1/2+y,-z
1/2-x,1/2-y,-z
1/2+x,1/2+y,-z
1/2-x,1/2+y,z
1/2+x,1/2-y,z
loop_
_atom_site_type_symbol
_atom_site_label
_atom_site_fract_x
_atom_site_fract_y
_atom_site_fract_z
Si Si1 0.196462 0.078861 0.774339
Si Si2 0.303049 0.670113 0.047560
Si Si3 0.305590 0.921462 0.677890
Si Si4 0.304780 0.329222 0.403578
Si Si5 0.697448 0.329256 0.144222
Si Si6 0.803322 0.170387 0.500000
O O1 0.244198 0.104418 0.725574
O O2 0.256940 0.125688 0.814609
O O3 0.000000 0.077634 0.776565
O O4 0.255336 0.000000 0.778404
O O5 0.500000 0.667040 0.047409
O O6 0.250000 0.750000 0.047490
O O7 0.247937 0.643481 0.095642
O O8 0.246231 0.640494 0.000000
O O9 0.500000 0.923623 0.679600
O O10 0.254675 0.874535 0.637069
O O11 0.243357 0.000000 0.672377
O O12 0.500000 0.330069 0.403682
O O13 0.250000 0.250000 0.399037
O O14 0.246755 0.356501 0.452056
O O15 0.500000 0.330789 0.144521
O O16 0.750000 0.250000 0.148566
O O17 0.750000 0.250000 0.500000
O O18 0.000000 0.166568 0.500000
#
# Coordination Sequence:
#
# PCOD9486867 Si02
#       6
#    16  16  16  16  16   8
#     4   9  18  33  50  65  86 121 159 191 230 282
#     4   8  13  22  37  58  85 114 142 175 218 267
#     4  10  21  36  52  71  96 126 162 202 242 285
#     4  10  19  33  54  78 103 130 161 196 235 279
#     4   9  17  28  44  67  91 115 147 188 229 270
#     4   8  16  30  49  74 101 129 159 191 229 276
#
# _framework density 18.260504999999998
#
# number of rings (size 3 to 8) (size 9 to 14) (size 15 to 20)
#    0.000    2.909    0.000    1.091    0.000    3.273 
#    0.000    2.273    0.000    3.273    0.000    3.818 
#    0.000    0.000    0.000   34.000    0.000   18.545 
#
# Total GULP energy -244938.504283 kJ/mol
# GULP energy per Si atom -5566.784188 kJ/mol
# Density = 1.821894 g / cm^3
# Si number density = 18.260505 Si / 1000 Ang^3
#
#
#
# Elastic Constant Matrix: (Units=GPa)
#
#
# Indices 1 2 3 4 5 6 
#
# 1 14.0242 5.4326 17.0881 0.0000 0.0000 0.0000
# 2 5.4326 41.7550 76.0848 0.0000 0.0000 0.0000
# 3 17.0881 76.0848 244.6768 0.0000 0.0000 0.0000
# 4 0.0000 0.0000 0.0000 -18.6812 0.0000 0.0000
# 5 0.0000 0.0000 0.0000 0.0000 13.8975 0.0000
# 6 0.0000 0.0000 0.0000 0.0000 0.0000 17.4214
#
#
#
# Elastic Compliance Matrix: (Units=1/GPa)
#
#
# Indices 1 2 3 4 5 6 
#
# 1 0.077942 -0.000512 -0.005284 0.000000 0.000000 0.000000
# 2 -0.000512 0.055265 -0.017150 0.000000 0.000000 0.000000
# 3 -0.005284 -0.017150 0.009789 0.000000 0.000000 0.000000
# 4 0.000000 0.000000 0.000000 -0.053530 0.000000 0.000000
# 5 0.000000 0.000000 0.000000 0.000000 0.071955 0.000000
# 6 0.000000 0.000000 0.000000 0.000000 0.000000 0.057401
#
#
# Mechanical properties :
#
#
# Convention : Reuss Voigt Hill
#
# Bulk Modulus (GPa) = 10.29815 55.29631 32.79723
# Shear Modulus (GPa) = 16.83035 15.98425 16.40730
#
# Velocity S-wave (km/s) = 3.03921 2.96183 3.00077
# Velocity P-wave (km/s) = 4.23882 6.48415 5.47777
#
# Compressibility (1/GPa) = 0.09710484
#
# Stress axis : x y z
#
# Youngs Moduli (GPa) = 12.83004 18.09454 102.15646
#
# Poissons Ratio (x) = 0.00926 0.53982
# Poissons Ratio (y) = 0.00657 1.75194
# Poissons Ratio (z) = 0.06780 0.31031
#
# Static dielectric constant tensor:
#      x y z
#    x 1.630760 0.000000 0.000000 
#    y 0.000000 1.598410 0.000000 
#    z 0.000000 0.000000 1.689760 
# 
# From -- ./inp_files/75383.got.cif
#   From: 2010.05.17/outbox.cif.g08.bks.cpg/sg65_38_cif.got.tgz:75383.got - 2010.06.03 17:01:31.
