data_PCOD9486517
_publ_section_title
;
Structure prediction by ZEFSAII (Michael W. Deem and Ramdas Pophale) SiO2 
 PCOD9486517
Probable space group: C M M M
;
_chemical_formula_sum "Si O2"
_cell_formula_units_Z 80
_cell_length_a 20.411810
_cell_length_b 25.231698
_cell_length_c 7.539549
_cell_angle_alpha 90.000000
_cell_angle_beta 90.000000
_cell_angle_gamma 90.000000
_cell_volume 3883.053401
_symmetry_space_group_name_H-M "C M M M"
_symmetry_group_IT_number 65
_symmetry_cell_setting 'orthorhombic'
loop_
_space_group_symop_operation_xyz
x,y,z
-x,-y,z
x,-y,-z
-x,y,-z
-x,-y,-z
x,y,-z
-x,y,z
x,-y,z
1/2+x,1/2+y,z
1/2-x,1/2-y,z
1/2+x,1/2-y,-z
1/2-x,1/2+y,-z
1/2-x,1/2-y,-z
1/2+x,1/2+y,-z
1/2-x,1/2+y,z
1/2+x,1/2-y,z
loop_
_atom_site_type_symbol
_atom_site_label
_atom_site_fract_x
_atom_site_fract_y
_atom_site_fract_z
Si Si1 0.613296 0.363324 0.297822
Si Si2 0.500000 0.167796 0.284651
Si Si3 0.131642 0.385816 0.288263
Si Si4 0.247155 0.812391 0.282158
Si Si5 0.000000 0.938982 0.717602
Si Si6 0.000000 0.210533 0.793830
Si Si7 0.076932 0.500000 0.209809
O O1 0.628231 0.379722 0.500000
O O2 0.680863 0.341918 0.220025
O O3 0.566163 0.409154 0.220709
O O4 0.563964 0.313755 0.295940
O O5 0.500000 0.165568 0.500000
O O6 0.435049 0.139732 0.218693
O O7 0.500000 0.227608 0.226089
O O8 0.133758 0.379362 0.500000
O O9 0.192759 0.350288 0.224390
O O10 0.119762 0.448175 0.257632
O O11 0.245884 0.811097 0.500000
O O12 0.250000 0.750000 0.227870
O O13 0.000000 0.934662 0.500000
O O14 0.000000 0.000000 0.766051
O O15 0.000000 0.195141 0.000000
O O16 0.000000 0.500000 0.281506
O O17 0.069835 0.500000 0.000000
#
# Coordination Sequence:
#
# PCOD9486517 Si02
#       7
#    16   8  16  16   8   8   8
#     4   9  17  32  52  73 101 137 171 212 270 323
#     4  10  19  32  53  78 104 138 177 221 279 327
#     4  10  20  35  58  84 108 141 184 232 277 325
#     4   9  17  31  53  82 111 135 170 221 275 327
#     4   8  14  26  46  71  96 121 160 208 253 303
#     4  11  21  31  49  77 107 139 179 222 261 318
#     4  11  23  39  57  77 111 154 191 232 275 321
#
# _framework density 20.602343000000001
#
# number of rings (size 3 to 8) (size 9 to 14) (size 15 to 20)
#    0.000    2.400    1.000    3.000    0.000    4.400 
#    1.800    1.000    0.000    7.200    0.000    0.000 
#    0.000    0.000    0.000    0.000    0.000    0.000 
#
# Total GULP energy -222923.403909 kJ/mol
# GULP energy per Si atom -5573.085098 kJ/mol
# Density = 2.055545 g / cm^3
# Si number density = 20.602343 Si / 1000 Ang^3
#
#
#
# Elastic Constant Matrix: (Units=GPa)
#
#
# Indices 1 2 3 4 5 6 
#
# 1 210.1468 112.0252 10.4614 0.0000 0.0000 0.0000
# 2 112.0252 207.7525 -5.1226 0.0000 0.0000 0.0000
# 3 10.4614 -5.1226 52.0632 0.0000 0.0000 0.0000
# 4 0.0000 0.0000 0.0000 -31.2446 0.0000 0.0000
# 5 0.0000 0.0000 0.0000 0.0000 -2.2378 0.0000
# 6 0.0000 0.0000 0.0000 0.0000 0.0000 -70.0258
#
#
#
# Elastic Compliance Matrix: (Units=1/GPa)
#
#
# Indices 1 2 3 4 5 6 
#
# 1 0.006832 -0.003727 -0.001739 0.000000 0.000000 0.000000
# 2 -0.003727 0.006858 0.001424 0.000000 0.000000 0.000000
# 3 -0.001739 0.001424 0.019697 0.000000 0.000000 0.000000
# 4 0.000000 0.000000 0.000000 -0.032005 0.000000 0.000000
# 5 0.000000 0.000000 0.000000 0.000000 -0.446868 0.000000
# 6 0.000000 0.000000 0.000000 0.000000 0.000000 -0.014280
#
#
# Mechanical properties :
#
#
# Convention : Reuss Voigt Hill
#
# Bulk Modulus (GPa) = 39.52297 78.29894 58.91095
# Shear Modulus (GPa) = -11.28038 2.80492 -4.23773
#
# Velocity S-wave (km/s) = -2.34247 1.16808 -1.43575
# Velocity P-wave (km/s) = 3.45096 6.31717 5.08998
#
# Compressibility (1/GPa) = 0.02530174
#
# Stress axis : x y z
#
# Youngs Moduli (GPa) = 146.37328 145.81308 50.76908
#
# Poissons Ratio (x) = 0.54341 0.08831
# Poissons Ratio (y) = 0.54550 -0.07228
# Poissons Ratio (z) = 0.25461 -0.20758
#
# Static dielectric constant tensor:
#      x y z
#    x 1.737520 0.000000 0.000000 
#    y 0.000000 1.723280 0.000000 
#    z 0.000000 0.000000 1.767710 
# 
# From -- ./inp_files/11660.got.cif
#   From: 2010.05.17/outbox.cif.g08.bks.cpg/sg65_6_cif.got.tgz:11660.got - 2010.06.03 17:01:31.
