data_PCOD9486591
_publ_section_title
;
Structure prediction by ZEFSAII (Michael W. Deem and Ramdas Pophale) SiO2 
 PCOD9486591
Probable space group: C M M M
;
_chemical_formula_sum "Si O2"
_cell_formula_units_Z 104
_cell_length_a 26.848893
_cell_length_b 24.385733
_cell_length_c 7.606287
_cell_angle_alpha 90.000000
_cell_angle_beta 90.000000
_cell_angle_gamma 90.000000
_cell_volume 4980.063801
_symmetry_space_group_name_H-M "C M M M"
_symmetry_group_IT_number 65
_symmetry_cell_setting 'orthorhombic'
loop_
_space_group_symop_operation_xyz
x,y,z
-x,-y,z
x,-y,-z
-x,y,-z
-x,-y,-z
x,y,-z
-x,y,z
x,-y,z
1/2+x,1/2+y,z
1/2-x,1/2-y,z
1/2+x,1/2-y,-z
1/2-x,1/2+y,-z
1/2-x,1/2-y,-z
1/2+x,1/2+y,-z
1/2-x,1/2+y,z
1/2+x,1/2-y,z
loop_
_atom_site_type_symbol
_atom_site_label
_atom_site_fract_x
_atom_site_fract_y
_atom_site_fract_z
Si Si1 0.204480 0.940826 0.795289
Si Si2 0.748574 0.171310 0.299088
Si Si3 0.500000 0.562761 0.714988
Si Si4 0.650077 0.721579 0.714092
Si Si5 0.443040 0.937484 0.210259
Si Si6 0.604207 0.607747 0.713371
Si Si7 0.863517 0.658666 0.288646
O O1 0.225567 0.888083 0.699329
O O2 0.145241 0.934764 0.779544
O O3 0.220875 0.000000 0.727219
O O4 0.218522 0.936734 0.000000
O O5 0.739658 0.189138 0.500000
O O6 0.792189 0.211649 0.226483
O O7 0.694026 0.158293 0.221314
O O8 0.500000 0.500000 0.770532
O O9 0.500000 0.563202 0.500000
O O10 0.549750 0.592341 0.773178
O O11 0.651912 0.720407 0.500000
O O12 0.620438 0.668155 0.772210
O O13 0.623865 0.778533 0.763983
O O14 0.500000 0.924603 0.273201
O O15 0.401761 0.890158 0.243154
O O16 0.430302 0.000000 0.273043
O O17 0.445918 0.940849 0.000000
O O18 0.605752 0.606416 0.500000
O O19 0.861477 0.656288 0.500000
#
# Coordination Sequence:
#
# PCOD9486591 Si02
#       7
#    16  16   8  16  16  16  16
#     4  10  20  32  46  67  97 131 168 210 253 296
#     4   9  18  32  51  73 102 137 169 202 246 305
#     4   9  16  26  45  73  97 121 164 213 244 278
#     4   8  15  30  50  74 104 135 164 199 248 301
#     4   9  20  40  60  75  99 138 177 211 254 312
#     4   9  17  31  50  70  95 130 169 208 249 296
#     4  10  19  32  54  84 107 127 163 210 256 302
#
# _framework density 20.883267
#
# number of rings (size 3 to 8) (size 9 to 14) (size 15 to 20)
#    0.000    2.846    0.000    2.769    0.000    5.538 
#    1.385    7.308    0.000    6.000    0.000    0.000 
#    0.000    0.000    0.000    0.000    0.000    0.000 
#
# Total GULP energy -289641.231603 kJ/mol
# GULP energy per Si atom -5570.023685 kJ/mol
# Density = 2.083574 g / cm^3
# Si number density = 20.883267 Si / 1000 Ang^3
#
#
#
# Elastic Constant Matrix: (Units=GPa)
#
#
# Indices 1 2 3 4 5 6 
#
# 1 127.5202 83.8411 4.5143 0.0000 0.0000 0.0000
# 2 83.8411 170.4788 9.1483 0.0000 0.0000 0.0000
# 3 4.5143 9.1483 47.5724 0.0000 0.0000 0.0000
# 4 0.0000 0.0000 0.0000 27.4470 0.0000 0.0000
# 5 0.0000 0.0000 0.0000 0.0000 26.4221 0.0000
# 6 0.0000 0.0000 0.0000 0.0000 0.0000 29.1991
#
#
#
# Elastic Compliance Matrix: (Units=1/GPa)
#
#
# Indices 1 2 3 4 5 6 
#
# 1 0.011589 -0.005699 -0.000004 0.000000 0.000000 0.000000
# 2 -0.005699 0.008730 -0.001138 0.000000 0.000000 0.000000
# 3 -0.000004 -0.001138 0.021240 0.000000 0.000000 0.000000
# 4 0.000000 0.000000 0.000000 0.036434 0.000000 0.000000
# 5 0.000000 0.000000 0.000000 0.000000 0.037847 0.000000
# 6 0.000000 0.000000 0.000000 0.000000 0.000000 0.034248
#
#
# Mechanical properties :
#
#
# Convention : Reuss Voigt Hill
#
# Bulk Modulus (GPa) = 35.87219 60.06430 47.96824
# Shear Modulus (GPa) = 28.89145 33.15149 31.02147
#
# Velocity S-wave (km/s) = 3.72354 3.98863 3.85836
# Velocity P-wave (km/s) = 5.97504 7.07365 6.54743
#
# Compressibility (1/GPa) = 0.02787675
#
# Stress axis : x y z
#
# Youngs Moduli (GPa) = 86.28739 114.54998 47.08148
#
# Poissons Ratio (x) = 0.65286 0.00018
# Poissons Ratio (y) = 0.49178 0.05358
# Poissons Ratio (z) = 0.00032 0.13035
#
# Static dielectric constant tensor:
#      x y z
#    x 1.761670 0.000000 0.000000 
#    y 0.000000 1.758340 0.000000 
#    z 0.000000 0.000000 1.786790 
# 
# From -- ./inp_files/16774.got.cif
#   From: 2010.05.17/outbox.cif.g08.bks.cpg/sg65_9_cif.got.tgz:16774.got - 2010.06.03 17:01:31.
