data_PCOD9486753
_publ_section_title
;
Structure prediction by ZEFSAII (Michael W. Deem and Ramdas Pophale) SiO2 
 PCOD9486753
Probable space group: C M M M
;
_chemical_formula_sum "Si O2"
_cell_formula_units_Z 72
_cell_length_a 14.738908
_cell_length_b 27.613814
_cell_length_c 9.849848
_cell_angle_alpha 90.000000
_cell_angle_beta 90.000000
_cell_angle_gamma 90.000000
_cell_volume 4008.863158
_symmetry_space_group_name_H-M "C M M M"
_symmetry_group_IT_number 65
_symmetry_cell_setting 'orthorhombic'
loop_
_space_group_symop_operation_xyz
x,y,z
-x,-y,z
x,-y,-z
-x,y,-z
-x,-y,-z
x,y,-z
-x,y,z
x,-y,z
1/2+x,1/2+y,z
1/2-x,1/2-y,z
1/2+x,1/2-y,-z
1/2-x,1/2+y,-z
1/2-x,1/2-y,-z
1/2+x,1/2+y,-z
1/2-x,1/2+y,z
1/2+x,1/2-y,z
loop_
_atom_site_type_symbol
_atom_site_label
_atom_site_fract_x
_atom_site_fract_y
_atom_site_fract_z
Si Si1 0.599060 0.322815 0.158048
Si Si2 0.268097 0.409448 0.836361
Si Si3 0.106260 0.623431 0.338549
Si Si4 0.643850 0.763840 0.345675
Si Si5 0.895327 0.000000 0.835471
O O1 0.500000 0.346882 0.172137
O O2 0.677398 0.360127 0.196068
O O3 0.600771 0.274450 0.244765
O O4 0.611176 0.310510 0.000000
O O5 0.174870 0.407541 0.753019
O O6 0.335592 0.453148 0.798253
O O7 0.252990 0.411377 0.000000
O O8 0.123644 0.616435 0.500000
O O9 0.125244 0.680437 0.309237
O O10 0.000000 0.613533 0.313053
O O11 0.610955 0.757156 0.500000
O O12 0.750000 0.750000 0.343883
O O13 0.000000 0.000000 0.786028
O O14 0.900635 0.000000 0.000000
#
# Coordination Sequence:
#
# PCOD9486753 Si02
#       5
#    16  16  16  16   8
#     4  10  20  32  49  77 110 140 172 215 266 317
#     4  10  20  35  57  82 107 136 176 222 267 318
#     4  10  21  37  55  76 107 147 185 220 263 315
#     4  10  19  33  53  75 103 142 185 222 258 307
#     4   9  18  36  62  87 110 138 171 213 270 329
#
# _framework density 17.960204000000001
#
# number of rings (size 3 to 8) (size 9 to 14) (size 15 to 20)
#    0.000    2.111    2.222    1.333    0.000    5.778 
#    0.000    1.111    0.000    6.000    0.000    0.000 
#    0.000    0.000    0.000    0.000    0.000    0.000 
#
# Total GULP energy -200756.323407 kJ/mol
# GULP energy per Si atom -5576.564539 kJ/mol
# Density = 1.791933 g / cm^3
# Si number density = 17.960204 Si / 1000 Ang^3
#
#
#
# Elastic Constant Matrix: (Units=GPa)
#
#
# Indices 1 2 3 4 5 6 
#
# 1 152.4628 52.9316 55.9398 0.0000 0.0000 0.0000
# 2 52.9316 74.8567 39.4350 0.0000 0.0000 0.0000
# 3 55.9398 39.4350 35.1203 0.0000 0.0000 0.0000
# 4 0.0000 0.0000 0.0000 16.1505 0.0000 0.0000
# 5 0.0000 0.0000 0.0000 0.0000 7.1426 0.0000
# 6 0.0000 0.0000 0.0000 0.0000 0.0000 23.4473
#
#
#
# Elastic Compliance Matrix: (Units=1/GPa)
#
#
# Indices 1 2 3 4 5 6 
#
# 1 0.016620 0.005371 -0.032503 0.000000 0.000000 0.000000
# 2 0.005371 0.034440 -0.047225 0.000000 0.000000 0.000000
# 3 -0.032503 -0.047225 0.133271 0.000000 0.000000 0.000000
# 4 0.000000 0.000000 0.000000 0.061918 0.000000 0.000000
# 5 0.000000 0.000000 0.000000 0.000000 0.140004 0.000000
# 6 0.000000 0.000000 0.000000 0.000000 0.000000 0.042649
#
#
# Mechanical properties :
#
#
# Convention : Reuss Voigt Hill
#
# Bulk Modulus (GPa) = 28.07708 62.11693 45.09701
# Shear Modulus (GPa) = 8.48193 16.95696 12.71945
#
# Velocity S-wave (km/s) = 2.17552 3.07602 2.66409
# Velocity P-wave (km/s) = 4.68800 6.87581 5.88448
#
# Compressibility (1/GPa) = 0.03561624
#
# Stress axis : x y z
#
# Youngs Moduli (GPa) = 60.16860 29.03617 7.50350
#
# Poissons Ratio (x) = -0.15594 0.24388
# Poissons Ratio (y) = -0.32314 0.35435
# Poissons Ratio (z) = 1.95565 1.37124
#
# Static dielectric constant tensor:
#      x y z
#    x 1.651580 0.000000 0.000000 
#    y 0.000000 1.598100 0.000000 
#    z 0.000000 0.000000 1.598520 
# 
# From -- ./inp_files/7211.got.cif
#   From: 2010.05.17/outbox.cif.g08.bks.cpg/sg65_4_cif.got.tgz:7211.got - 2010.06.03 17:01:31.
