data_PCOD9486341
_publ_section_title
;
Structure prediction by ZEFSAII (Michael W. Deem and Ramdas Pophale) SiO2 
 PCOD9486341
Probable space group: C M M M
;
_chemical_formula_sum "Si O2"
_cell_formula_units_Z 120
_cell_length_a 7.846958
_cell_length_b 27.108401
_cell_length_c 27.934259
_cell_angle_alpha 90.000000
_cell_angle_beta 90.000000
_cell_angle_gamma 90.000000
_cell_volume 5942.133229
_symmetry_space_group_name_H-M "C M M M"
_symmetry_group_IT_number 65
_symmetry_cell_setting 'orthorhombic'
loop_
_space_group_symop_operation_xyz
x,y,z
-x,-y,z
x,-y,-z
-x,y,-z
-x,-y,-z
x,y,-z
-x,y,z
x,-y,z
1/2+x,1/2+y,z
1/2-x,1/2-y,z
1/2+x,1/2-y,-z
1/2-x,1/2+y,-z
1/2-x,1/2-y,-z
1/2+x,1/2+y,-z
1/2-x,1/2+y,z
1/2+x,1/2-y,z
loop_
_atom_site_type_symbol
_atom_site_label
_atom_site_fract_x
_atom_site_fract_y
_atom_site_fract_z
Si Si1 0.702867 0.053426 0.914776
Si Si2 0.705507 0.555390 0.292003
Si Si3 0.706005 0.159891 0.052071
Si Si4 0.708536 0.000000 0.555601
Si Si5 0.207584 0.091356 0.188063
Si Si6 0.800069 0.803695 0.154325
Si Si7 0.704247 0.901320 0.390193
Si Si8 0.705264 0.195155 0.555000
O O1 0.500000 0.052693 0.923704
O O2 0.768264 0.103499 0.939277
O O3 0.732448 0.060843 0.858060
O O4 0.772422 0.000000 0.929800
O O5 0.500000 0.554280 0.290726
O O6 0.767314 0.500000 0.303338
O O7 0.764065 0.570857 0.239149
O O8 0.757195 0.591669 0.334411
O O9 0.500000 0.159029 0.052148
O O10 0.759206 0.190876 0.098046
O O11 0.764202 0.177612 0.000000
O O12 0.767802 0.049727 0.582142
O O13 0.500000 0.000000 0.557011
O O14 0.758134 0.000000 0.500000
O O15 0.271633 0.147408 0.179701
O O16 0.000000 0.090252 0.187274
O O17 0.750000 0.750000 0.172254
O O18 0.000000 0.807383 0.159801
O O19 0.500000 0.901163 0.395887
O O20 0.769045 0.850530 0.413355
O O21 0.767323 0.190607 0.500000
O O22 0.500000 0.192293 0.553675
O O23 0.750000 0.250000 0.572537
#
# Coordination Sequence:
#
# PCOD9486341 Si02
#       8
#    16  16  16   8  16  16  16  16
#     4   9  17  29  47  73 101 128 162 204 245 286
#     4  10  20  34  52  74 104 138 167 199 247 304
#     4   9  18  32  49  71 101 134 165 197 239 294
#     4   9  16  28  49  75 103 135 169 209 254 299
#     4   9  19  35  53  72  94 128 168 203 244 298
#     4  10  20  35  55  75  96 123 161 208 253 297
#     4  10  19  32  51  77 105 134 172 213 253 302
#     4   9  18  33  53  76 101 133 174 215 254 298
#
# _framework density 20.194766999999999
#
# number of rings (size 3 to 8) (size 9 to 14) (size 15 to 20)
#    0.000    2.600    0.667    1.200    0.000    4.800 
#    0.000    2.000    0.000    4.800    0.000    3.733 
#    0.000    0.000    0.000    0.000    0.000    0.000 
#
# Total GULP energy -334757.109791 kJ/mol
# GULP energy per Si atom -5579.285163 kJ/mol
# Density = 2.014880 g / cm^3
# Si number density = 20.194767 Si / 1000 Ang^3
#
#
#
# Elastic Constant Matrix: (Units=GPa)
#
#
# Indices 1 2 3 4 5 6 
#
# 1 18.9614 4.4465 -8.3505 0.0000 0.0000 0.0000
# 2 4.4465 112.4905 13.2768 0.0000 0.0000 0.0000
# 3 -8.3505 13.2768 56.2895 0.0000 0.0000 0.0000
# 4 0.0000 0.0000 0.0000 4.0063 0.0000 0.0000
# 5 0.0000 0.0000 0.0000 0.0000 287.7305 0.0000
# 6 0.0000 0.0000 0.0000 0.0000 0.0000 15.6863
#
#
#
# Elastic Compliance Matrix: (Units=1/GPa)
#
#
# Indices 1 2 3 4 5 6 
#
# 1 0.057650 -0.003382 0.009350 0.000000 0.000000 0.000000
# 2 -0.003382 0.009343 -0.002705 0.000000 0.000000 0.000000
# 3 0.009350 -0.002705 0.019790 0.000000 0.000000 0.000000
# 4 0.000000 0.000000 0.000000 0.249604 0.000000 0.000000
# 5 0.000000 0.000000 0.000000 0.000000 0.003475 0.000000
# 6 0.000000 0.000000 0.000000 0.000000 0.000000 0.063750
#
#
# Mechanical properties :
#
#
# Convention : Reuss Voigt Hill
#
# Bulk Modulus (GPa) = 10.71728 22.94300 16.83014
# Shear Modulus (GPa) = 11.67706 73.37586 42.52646
#
# Velocity S-wave (km/s) = 2.40723 6.03432 4.59390
# Velocity P-wave (km/s) = 3.61176 7.74184 6.04074
#
# Compressibility (1/GPa) = 0.09330723
#
# Stress axis : x y z
#
# Youngs Moduli (GPa) = 17.34620 107.03611 50.52935
#
# Poissons Ratio (x) = 0.36203 -0.47245
# Poissons Ratio (y) = 0.05867 0.13670
# Poissons Ratio (z) = -0.16219 0.28957
#
# Static dielectric constant tensor:
#      x y z
#    x 1.739480 0.000000 0.000000 
#    y 0.000000 1.752270 0.000000 
#    z 0.000000 0.000000 1.691450 
# 
# From -- ./inp_files/73969.got.cif
#   From: 2010.05.17/outbox.cif.g08.bks.cpg/sg65_37_cif.got.tgz:73969.got - 2010.06.03 17:01:31.
