data_PCOD9486715
_publ_section_title
;
Structure prediction by ZEFSAII (Michael W. Deem and Ramdas Pophale) SiO2 
 PCOD9486715
Probable space group: C M M M
;
_chemical_formula_sum "Si O2"
_cell_formula_units_Z 112
_cell_length_a 13.511581
_cell_length_b 28.505231
_cell_length_c 15.411843
_cell_angle_alpha 90.000000
_cell_angle_beta 90.000000
_cell_angle_gamma 90.000000
_cell_volume 5935.882699
_symmetry_space_group_name_H-M "C M M M"
_symmetry_group_IT_number 65
_symmetry_cell_setting 'orthorhombic'
loop_
_space_group_symop_operation_xyz
x,y,z
-x,-y,z
x,-y,-z
-x,y,-z
-x,-y,-z
x,y,-z
-x,y,z
x,-y,z
1/2+x,1/2+y,z
1/2-x,1/2-y,z
1/2+x,1/2-y,-z
1/2-x,1/2+y,-z
1/2-x,1/2-y,-z
1/2+x,1/2+y,-z
1/2-x,1/2+y,z
1/2+x,1/2-y,z
loop_
_atom_site_type_symbol
_atom_site_label
_atom_site_fract_x
_atom_site_fract_y
_atom_site_fract_z
Si Si1 0.887014 0.092858 0.398364
Si Si2 0.188407 0.674236 0.095979
Si Si3 0.320159 0.053284 0.601111
Si Si4 0.616024 0.308585 0.665768
Si Si5 0.617824 0.135755 0.729328
Si Si6 0.387958 0.721731 0.135549
Si Si7 0.621019 0.213579 0.593592
O O1 0.890253 0.106432 0.500000
O O2 0.799582 0.055501 0.390149
O O3 0.849980 0.138418 0.345885
O O4 0.000000 0.079134 0.373945
O O5 0.167137 0.639771 0.176070
O O6 0.303073 0.689839 0.094864
O O7 0.132715 0.723725 0.115306
O O8 0.159630 0.657279 0.000000
O O9 0.343230 0.066005 0.500000
O O10 0.362744 0.090262 0.669880
O O11 0.354259 0.000000 0.615559
O O12 0.500000 0.313617 0.644500
O O13 0.623090 0.287919 0.761927
O O14 0.653160 0.267429 0.604161
O O15 0.500000 0.140080 0.742446
O O16 0.652322 0.180964 0.672960
O O17 0.500000 0.710160 0.110261
O O18 0.650091 0.193997 0.500000
O O19 0.500000 0.213665 0.596398
#
# Coordination Sequence:
#
# PCOD9486715 Si02
#       7
#    16  16  16  16  16  16  16
#     4   9  17  30  50  77 111 152 191 224 264 319
#     4  11  23  36  54  80 109 145 190 235 276 325
#     4  10  22  39  58  83 112 140 180 234 286 338
#     4   9  15  26  46  74 110 149 184 218 257 311
#     4  11  22  38  57  78 107 143 185 232 283 338
#     4  10  19  33  52  77 113 153 190 228 270 318
#     4   9  16  27  46  73 106 145 183 218 260 315
#
# _framework density 18.868296999999998
#
# number of rings (size 3 to 8) (size 9 to 14) (size 15 to 20)
#    0.000    2.143    1.429    3.000    0.000    5.143 
#    0.000    2.143    0.000    3.857    0.000    1.000 
#    0.000    0.000    0.000    8.000    0.000    0.143 
#
# Total GULP energy -312583.537992 kJ/mol
# GULP energy per Si atom -5581.848893 kJ/mol
# Density = 1.882535 g / cm^3
# Si number density = 18.868297 Si / 1000 Ang^3
#
#
#
# Elastic Constant Matrix: (Units=GPa)
#
#
# Indices 1 2 3 4 5 6 
#
# 1 69.7768 2.1705 18.2009 0.0000 0.0000 0.0000
# 2 2.1705 77.9231 49.3704 0.0000 0.0000 0.0000
# 3 18.2009 49.3704 114.1854 0.0000 0.0000 0.0000
# 4 0.0000 0.0000 0.0000 8.7283 0.0000 0.0000
# 5 0.0000 0.0000 0.0000 0.0000 10.7775 0.0000
# 6 0.0000 0.0000 0.0000 0.0000 0.0000 15.5347
#
#
#
# Elastic Compliance Matrix: (Units=1/GPa)
#
#
# Indices 1 2 3 4 5 6 
#
# 1 0.015083 0.001519 -0.003061 0.000000 0.000000 0.000000
# 2 0.001519 0.017828 -0.007951 0.000000 0.000000 0.000000
# 3 -0.003061 -0.007951 0.012683 0.000000 0.000000 0.000000
# 4 0.000000 0.000000 0.000000 0.114570 0.000000 0.000000
# 5 0.000000 0.000000 0.000000 0.000000 0.092786 0.000000
# 6 0.000000 0.000000 0.000000 0.000000 0.000000 0.064372
#
#
# Mechanical properties :
#
#
# Convention : Reuss Voigt Hill
#
# Bulk Modulus (GPa) = 37.58074 44.59654 41.08864
# Shear Modulus (GPa) = 14.48533 19.81765 17.15149
#
# Velocity S-wave (km/s) = 2.77376 3.24437 3.01825
# Velocity P-wave (km/s) = 5.49718 6.14179 5.82840
#
# Compressibility (1/GPa) = 0.02660938
#
# Stress axis : x y z
#
# Youngs Moduli (GPa) = 66.30151 56.09114 78.84462
#
# Poissons Ratio (x) = -0.08522 0.24135
# Poissons Ratio (y) = -0.10073 0.62686
# Poissons Ratio (z) = 0.20295 0.44595
#
# Static dielectric constant tensor:
#      x y z
#    x 1.738500 0.000000 0.000000 
#    y 0.000000 1.630180 0.000000 
#    z 0.000000 0.000000 1.657720 
# 
# From -- ./inp_files/41391.got.cif
#   From: 2010.05.17/outbox.cif.g08.bks.cpg/sg65_21_cif.got.tgz:41391.got - 2010.06.03 17:01:31.
