data_PCOD9486610
_publ_section_title
;
Structure prediction by ZEFSAII (Michael W. Deem and Ramdas Pophale) SiO2 
 PCOD9486610
Probable space group: C M M M
;
_chemical_formula_sum "Si O2"
_cell_formula_units_Z 104
_cell_length_a 11.096406
_cell_length_b 31.299621
_cell_length_c 17.295211
_cell_angle_alpha 90.000000
_cell_angle_beta 90.000000
_cell_angle_gamma 90.000000
_cell_volume 6006.856846
_symmetry_space_group_name_H-M "C M M M"
_symmetry_group_IT_number 65
_symmetry_cell_setting 'orthorhombic'
loop_
_space_group_symop_operation_xyz
x,y,z
-x,-y,z
x,-y,-z
-x,y,-z
-x,-y,-z
x,y,-z
-x,y,z
x,-y,z
1/2+x,1/2+y,z
1/2-x,1/2-y,z
1/2+x,1/2-y,-z
1/2-x,1/2+y,-z
1/2-x,1/2-y,-z
1/2+x,1/2+y,-z
1/2-x,1/2+y,z
1/2+x,1/2-y,z
loop_
_atom_site_type_symbol
_atom_site_label
_atom_site_fract_x
_atom_site_fract_y
_atom_site_fract_z
Si Si1 0.354608 0.628724 0.412051
Si Si2 0.357433 0.283043 0.321053
Si Si3 0.863506 0.170513 0.836943
Si Si4 0.862726 0.781928 0.000000
Si Si5 0.750369 0.582630 0.155426
Si Si6 0.641905 0.547893 0.000000
Si Si7 0.354662 0.452141 0.311225
Si Si8 0.500000 0.948732 0.908394
O O1 0.309159 0.630361 0.500000
O O2 0.500000 0.625265 0.415444
O O3 0.332104 0.672646 0.366343
O O4 0.312971 0.586528 0.366313
O O5 0.500000 0.270949 0.336560
O O6 0.250000 0.250000 0.340195
O O7 0.349650 0.294371 0.229864
O O8 0.853807 0.190114 0.922144
O O9 0.771100 0.132127 0.825734
O O10 0.000000 0.152683 0.827283
O O11 0.750000 0.750000 0.000000
O O12 0.000000 0.762978 0.000000
O O13 0.678860 0.572106 0.077064
O O14 0.700105 0.555544 0.226730
O O15 0.884730 0.570154 0.134070
O O16 0.697963 0.500000 0.000000
O O17 0.500000 0.543806 0.000000
O O18 0.500000 0.449547 0.304978
O O19 0.324815 0.500000 0.339145
O O20 0.500000 0.000000 0.903334
O O21 0.500000 0.937605 0.000000
#
# Coordination Sequence:
#
# PCOD9486610 Si02
#       8
#    16  16  16   8  16   8  16   8
#     4   9  18  34  56  83 118 153 181 222 287 351
#     4  10  20  37  59  85 116 151 190 236 289 345
#     4  10  20  36  57  79 110 143 183 236 289 335
#     4  10  21  37  53  78 105 145 185 230 285 341
#     4  12  21  36  54  76 106 149 193 229 280 330
#     4  11  21  30  48  77 105 136 181 233 276 322
#     4  10  19  32  55  86 115 144 185 234 279 335
#     4  11  24  40  52  70 111 157 193 237 280 328
#
# _framework density 17.313547
#
# number of rings (size 3 to 8) (size 9 to 14) (size 15 to 20)
#    0.000    1.692    2.308    3.692    0.000    2.462 
#    2.769    1.538    0.000    0.000    0.000    0.000 
#    0.000    1.846    0.000    0.000    0.000    0.000 
#
# Total GULP energy -290027.748735 kJ/mol
# GULP energy per Si atom -5577.456706 kJ/mol
# Density = 1.727414 g / cm^3
# Si number density = 17.313547 Si / 1000 Ang^3
#
#
#
# Elastic Constant Matrix: (Units=GPa)
#
#
# Indices 1 2 3 4 5 6 
#
# 1 85.8183 55.0901 21.3192 0.0000 0.0000 0.0000
# 2 55.0901 101.8564 38.6071 0.0000 0.0000 0.0000
# 3 21.3192 38.6071 103.4693 0.0000 0.0000 0.0000
# 4 0.0000 0.0000 0.0000 9.3231 0.0000 0.0000
# 5 0.0000 0.0000 0.0000 0.0000 107.7113 0.0000
# 6 0.0000 0.0000 0.0000 0.0000 0.0000 30.8615
#
#
#
# Elastic Compliance Matrix: (Units=1/GPa)
#
#
# Indices 1 2 3 4 5 6 
#
# 1 0.017851 -0.009621 -0.000088 0.000000 0.000000 0.000000
# 2 -0.009621 0.016621 -0.004219 0.000000 0.000000 0.000000
# 3 -0.000088 -0.004219 0.011257 0.000000 0.000000 0.000000
# 4 0.000000 0.000000 0.000000 0.107260 0.000000 0.000000
# 5 0.000000 0.000000 0.000000 0.000000 0.009284 0.000000
# 6 0.000000 0.000000 0.000000 0.000000 0.000000 0.032403
#
#
# Mechanical properties :
#
#
# Convention : Reuss Voigt Hill
#
# Bulk Modulus (GPa) = 55.95541 57.90854 56.93198
# Shear Modulus (GPa) = 21.88275 41.32101 31.60188
#
# Velocity S-wave (km/s) = 3.55901 4.89061 4.27695
# Velocity P-wave (km/s) = 7.01981 8.08767 7.57259
#
# Compressibility (1/GPa) = 0.01787137
#
# Stress axis : x y z
#
# Youngs Moduli (GPa) = 56.02004 60.16553 88.83249
#
# Poissons Ratio (x) = 0.57888 0.00782
# Poissons Ratio (y) = 0.53899 0.37480
# Poissons Ratio (z) = 0.00493 0.25385
#
# Static dielectric constant tensor:
#      x y z
#    x 1.567000 0.000000 0.000000 
#    y 0.000000 1.610890 0.000000 
#    z 0.000000 0.000000 1.582130 
# 
# From -- ./inp_files/51985.got.cif
#   From: 2010.05.17/outbox.cif.g08.bks.cpg/sg65_26_cif.got.tgz:51985.got - 2010.06.03 17:01:31.
