data_PCOD9486488
_publ_section_title
;
Structure prediction by ZEFSAII (Michael W. Deem and Ramdas Pophale) SiO2 
 PCOD9486488
Probable space group: C M M M
;
_chemical_formula_sum "Si O2"
_cell_formula_units_Z 96
_cell_length_a 23.143434
_cell_length_b 25.347694
_cell_length_c 7.787010
_cell_angle_alpha 90.000000
_cell_angle_beta 90.000000
_cell_angle_gamma 90.000000
_cell_volume 4568.114570
_symmetry_space_group_name_H-M "C M M M"
_symmetry_group_IT_number 65
_symmetry_cell_setting 'orthorhombic'
loop_
_space_group_symop_operation_xyz
x,y,z
-x,-y,z
x,-y,-z
-x,y,-z
-x,-y,-z
x,y,-z
-x,y,z
x,-y,z
1/2+x,1/2+y,z
1/2-x,1/2-y,z
1/2+x,1/2-y,-z
1/2-x,1/2+y,-z
1/2-x,1/2-y,-z
1/2+x,1/2+y,-z
1/2-x,1/2+y,z
1/2+x,1/2-y,z
loop_
_atom_site_type_symbol
_atom_site_label
_atom_site_fract_x
_atom_site_fract_y
_atom_site_fract_z
Si Si1 0.064808 0.684531 0.792758
Si Si2 0.224966 0.808305 0.294301
Si Si3 0.594509 0.301221 0.198699
Si Si4 0.156122 0.000000 0.702057
Si Si5 0.711872 0.000000 0.288842
Si Si6 0.174335 0.386025 0.706022
Si Si7 0.437519 0.414130 0.207386
O O1 0.079736 0.743731 0.727102
O O2 0.114732 0.643598 0.745115
O O3 0.000000 0.670184 0.735838
O O4 0.064807 0.686754 0.000000
O O5 0.216645 0.815355 0.500000
O O6 0.250000 0.750000 0.266850
O O7 0.162939 0.810465 0.207957
O O8 0.271640 0.850733 0.231356
O O9 0.567803 0.354361 0.274651
O O10 0.575517 0.299131 0.000000
O O11 0.117138 0.050498 0.746308
O O12 0.163764 0.000000 0.500000
O O13 0.221285 0.000000 0.772509
O O14 0.681042 0.946011 0.232679
O O15 0.711597 0.000000 0.500000
O O16 0.179548 0.386900 0.500000
O O17 0.500000 0.436048 0.262311
O O18 0.437674 0.412304 0.000000
#
# Coordination Sequence:
#
# PCOD9486488 Si02
#       7
#    16  16  16   8   8  16  16
#     4  10  21  37  56  80 111 143 176 220 272 321
#     4  10  19  32  52  80 113 143 173 221 278 322
#     4  10  20  34  55  81 110 146 186 222 264 324
#     4  11  22  38  59  81 107 142 186 231 276 321
#     4   9  20  38  59  80 106 141 176 221 274 327
#     4  10  20  37  58  80 107 141 181 219 266 325
#     4  10  21  37  55  77 110 151 189 225 268 320
#
# _framework density 21.015234
#
# number of rings (size 3 to 8) (size 9 to 14) (size 15 to 20)
#    0.000    2.000    1.667    2.000    0.000    6.667 
#    0.000    2.500    0.000    5.500    0.000    0.000 
#    0.000    0.000    0.000    0.000    0.000    0.000 
#
# Total GULP energy -268068.004977 kJ/mol
# GULP energy per Si atom -5584.750104 kJ/mol
# Density = 2.096740 g / cm^3
# Si number density = 21.015234 Si / 1000 Ang^3
#
#
#
# Elastic Constant Matrix: (Units=GPa)
#
#
# Indices 1 2 3 4 5 6 
#
# 1 144.7681 75.5822 2.4642 0.0000 0.0000 0.0000
# 2 75.5822 167.1479 16.6418 0.0000 0.0000 0.0000
# 3 2.4642 16.6418 22.1901 0.0000 0.0000 0.0000
# 4 0.0000 0.0000 0.0000 97.2468 0.0000 0.0000
# 5 0.0000 0.0000 0.0000 0.0000 24.2148 0.0000
# 6 0.0000 0.0000 0.0000 0.0000 0.0000 -0.5373
#
#
#
# Elastic Compliance Matrix: (Units=1/GPa)
#
#
# Indices 1 2 3 4 5 6 
#
# 1 0.009146 -0.004360 0.002254 0.000000 0.000000 0.000000
# 2 -0.004360 0.008544 -0.005924 0.000000 0.000000 0.000000
# 3 0.002254 -0.005924 0.049257 0.000000 0.000000 0.000000
# 4 0.000000 0.000000 0.000000 0.010283 0.000000 0.000000
# 5 0.000000 0.000000 0.000000 0.000000 0.041297 0.000000
# 6 0.000000 0.000000 0.000000 0.000000 0.000000 -1.861041
#
#
# Mechanical properties :
#
#
# Convention : Reuss Voigt Hill
#
# Bulk Modulus (GPa) = 19.65088 58.16474 38.90781
# Shear Modulus (GPa) = -2.92485 40.14603 18.61059
#
# Velocity S-wave (km/s) = -1.18101 4.37547 2.97909
# Velocity P-wave (km/s) = 2.74068 7.29821 5.51250
#
# Compressibility (1/GPa) = 0.05088830
#
# Stress axis : x y z
#
# Youngs Moduli (GPa) = 109.34335 117.04129 20.30153
#
# Poissons Ratio (x) = 0.51029 -0.04576
# Poissons Ratio (y) = 0.47673 0.12026
# Poissons Ratio (z) = -0.24648 0.69330
#
# Static dielectric constant tensor:
#      x y z
#    x 1.751000 0.000000 0.000000 
#    y 0.000000 1.765750 0.000000 
#    z 0.000000 0.000000 1.788100 
# 
# From -- ./inp_files/14360.got.cif
#   From: 2010.05.17/outbox.cif.g08.bks.cpg/sg65_8_cif.got.tgz:14360.got - 2010.06.03 17:01:31.
