data_PCOD9486868
_publ_section_title
;
Structure prediction by ZEFSAII (Michael W. Deem and Ramdas Pophale) SiO2 
 PCOD9486868
Probable space group: C M M M
;
_chemical_formula_sum "Si O2"
_cell_formula_units_Z 80
_cell_length_a 19.535141
_cell_length_b 8.379467
_cell_length_c 27.231321
_cell_angle_alpha 90.000000
_cell_angle_beta 90.000000
_cell_angle_gamma 90.000000
_cell_volume 4457.605748
_symmetry_space_group_name_H-M "C M M M"
_symmetry_group_IT_number 65
_symmetry_cell_setting 'orthorhombic'
loop_
_space_group_symop_operation_xyz
x,y,z
-x,-y,z
x,-y,-z
-x,y,-z
-x,-y,-z
x,y,-z
-x,y,z
x,-y,z
1/2+x,1/2+y,z
1/2-x,1/2-y,z
1/2+x,1/2-y,-z
1/2-x,1/2+y,-z
1/2-x,1/2-y,-z
1/2+x,1/2+y,-z
1/2-x,1/2+y,z
1/2+x,1/2-y,z
loop_
_atom_site_type_symbol
_atom_site_label
_atom_site_fract_x
_atom_site_fract_y
_atom_site_fract_z
Si Si1 0.078887 0.192713 0.697353
Si Si2 0.828485 0.192434 0.000000
Si Si3 0.671456 0.692455 0.500000
Si Si4 0.171669 0.191438 0.107193
Si Si5 0.421282 0.190723 0.804110
Si Si6 0.328312 0.693357 0.392813
O O1 0.102998 0.248426 0.750913
O O2 0.125862 0.249678 0.652573
O O3 0.000000 0.246086 0.691366
O O4 0.079179 0.000000 0.696846
O O5 0.750000 0.250000 0.000000
O O6 0.856013 0.245109 0.053218
O O7 0.830145 0.000000 0.000000
O O8 0.669727 0.500000 0.500000
O O9 0.750000 0.750000 0.500000
O O10 0.643882 0.744842 0.553251
O O11 0.250000 0.250000 0.111997
O O12 0.125756 0.252190 0.151571
O O13 0.172234 0.000000 0.108001
O O14 0.500000 0.247580 0.810481
O O15 0.421613 0.000000 0.803238
O O16 0.328179 0.500000 0.392139
O O17 0.250000 0.750000 0.388043
#
# Coordination Sequence:
#
# PCOD9486868 Si02
#       6
#    16   8   8  16  16  16
#     4   9  18  33  50  67  91 125 161 196 239 289
#     4   8  16  30  49  74 101 129 159 193 237 286
#     4   8  14  26  43  65  93 121 149 184 230 280
#     4  10  19  33  54  78 103 130 162 200 241 287
#     4  10  21  36  52  71  97 130 167 205 246 291
#     4   9  17  29  47  70  94 121 154 192 233 280
#
# _framework density 17.946854999999999
#
# number of rings (size 3 to 8) (size 9 to 14) (size 15 to 20)
#    0.000    2.800    0.000    1.200    0.000    3.600 
#    0.000    3.000    0.000    6.000    0.000    0.000 
#    0.000   11.200    0.000    0.000    0.000    0.000 
#
# Total GULP energy -222775.600519 kJ/mol
# GULP energy per Si atom -5569.390013 kJ/mol
# Density = 1.790601 g / cm^3
# Si number density = 17.946855 Si / 1000 Ang^3
#
#
#
# Elastic Constant Matrix: (Units=GPa)
#
#
# Indices 1 2 3 4 5 6 
#
# 1 51.8557 9.9548 85.3351 0.0000 0.0000 0.0000
# 2 9.9548 14.0873 24.9931 0.0000 0.0000 0.0000
# 3 85.3351 24.9931 238.7859 0.0000 0.0000 0.0000
# 4 0.0000 0.0000 0.0000 15.9814 0.0000 0.0000
# 5 0.0000 0.0000 0.0000 0.0000 -34.8681 0.0000
# 6 0.0000 0.0000 0.0000 0.0000 0.0000 20.4017
#
#
#
# Elastic Compliance Matrix: (Units=1/GPa)
#
#
# Indices 1 2 3 4 5 6 
#
# 1 0.047019 -0.004193 -0.016364 0.000000 0.000000 0.000000
# 2 -0.004193 0.087548 -0.007665 0.000000 0.000000 0.000000
# 3 -0.016364 -0.007665 0.010838 0.000000 0.000000 0.000000
# 4 0.000000 0.000000 0.000000 0.062573 0.000000 0.000000
# 5 0.000000 0.000000 0.000000 0.000000 -0.028679 0.000000
# 6 0.000000 0.000000 0.000000 0.000000 0.000000 0.049015
#
#
# Mechanical properties :
#
#
# Convention : Reuss Voigt Hill
#
# Bulk Modulus (GPa) = 11.24101 60.58834 35.91467
# Shear Modulus (GPa) = 15.90275 12.59939 14.25107
#
# Velocity S-wave (km/s) = 2.97998 2.65248 2.82098
# Velocity P-wave (km/s) = 4.25646 6.57373 5.53766
#
# Compressibility (1/GPa) = 0.08895995
#
# Stress axis : x y z
#
# Youngs Moduli (GPa) = 21.26816 11.42236 92.26626
#
# Poissons Ratio (x) = 0.04790 1.50986
# Poissons Ratio (y) = 0.08918 0.70721
# Poissons Ratio (z) = 0.34804 0.08755
#
# Static dielectric constant tensor:
#      x y z
#    x 1.578470 0.000000 0.000000 
#    y 0.000000 1.613160 0.000000 
#    z 0.000000 0.000000 1.656650 
# 
# From -- ./inp_files/67331.got.cif
#   From: 2010.05.17/outbox.cif.g08.bks.cpg/sg65_34_cif.got.tgz:67331.got - 2010.06.03 17:01:31.
