data_PCOD9486142
_publ_section_title
;
Structure prediction by ZEFSAII (Michael W. Deem and Ramdas Pophale) SiO2 
 PCOD9486142
Probable space group: C M M M
;
_chemical_formula_sum "Si O2"
_cell_formula_units_Z 128
_cell_length_a 22.512392
_cell_length_b 24.069454
_cell_length_c 14.347926
_cell_angle_alpha 90.000000
_cell_angle_beta 90.000000
_cell_angle_gamma 90.000000
_cell_volume 7774.581296
_symmetry_space_group_name_H-M "C M M M"
_symmetry_group_IT_number 65
_symmetry_cell_setting 'orthorhombic'
loop_
_space_group_symop_operation_xyz
x,y,z
-x,-y,z
x,-y,-z
-x,y,-z
-x,-y,-z
x,y,-z
-x,y,z
x,-y,z
1/2+x,1/2+y,z
1/2-x,1/2-y,z
1/2+x,1/2-y,-z
1/2-x,1/2+y,-z
1/2-x,1/2-y,-z
1/2+x,1/2+y,-z
1/2-x,1/2+y,z
1/2+x,1/2-y,z
loop_
_atom_site_type_symbol
_atom_site_label
_atom_site_fract_x
_atom_site_fract_y
_atom_site_fract_z
Si Si1 0.567778 0.434066 0.244407
Si Si2 0.105140 0.845227 0.390944
Si Si3 0.069362 0.279200 0.608911
Si Si4 0.242882 0.183468 0.390964
Si Si5 0.328794 0.433061 0.104156
Si Si6 0.690520 0.933712 0.888200
Si Si7 0.435401 0.065876 0.605504
Si Si8 0.149529 0.635145 0.719758
O O1 0.500000 0.427202 0.209906
O O2 0.575774 0.500000 0.264110
O O3 0.578331 0.395468 0.333112
O O4 0.618622 0.415606 0.171991
O O5 0.096224 0.855623 0.500000
O O6 0.075926 0.785823 0.368870
O O7 0.175504 0.835923 0.374934
O O8 0.091143 0.285865 0.500000
O O9 0.106361 0.314684 0.684369
O O10 0.000000 0.293978 0.610243
O O11 0.257708 0.172221 0.500000
O O12 0.250000 0.250000 0.377954
O O13 0.287130 0.152223 0.321976
O O14 0.332961 0.500000 0.099424
O O15 0.260555 0.422530 0.131712
O O16 0.337711 0.410652 0.000000
O O17 0.655416 0.889303 0.824271
O O18 0.678932 0.000000 0.867412
O O19 0.681368 0.927073 0.000000
O O20 0.432081 0.087961 0.500000
O O21 0.500000 0.082468 0.645315
O O22 0.379729 0.085031 0.662939
O O23 0.435637 0.000000 0.600259
#
# Coordination Sequence:
#
# PCOD9486142 Si02
#       8
#    16  16  16  16  16  16  16  16
#     4  10  20  32  49  76 105 134 174 216 253 304
#     4  10  20  35  51  69 102 143 176 207 251 303
#     4  10  20  33  51  75 100 131 176 221 256 300
#     4  10  19  32  49  75 107 136 168 214 265 310
#     4   8  15  31  53  74  98 126 159 206 260 305
#     4   9  19  35  54  77 104 135 172 214 260 313
#     4   9  18  31  46  70 106 139 165 204 259 310
#     4  12  19  29  53  77  99 130 173 211 259 309
#
# _framework density 16.463909000000001
#
# number of rings (size 3 to 8) (size 9 to 14) (size 15 to 20)
#    0.000    2.250    1.250    4.125    0.000    2.250 
#    0.000    2.500    0.000    4.125    0.000    4.375 
#    0.000    0.000    0.000    0.000    0.000    0.000 
#
# Total GULP energy -356354.978846 kJ/mol
# GULP energy per Si atom -5568.046544 kJ/mol
# Density = 1.642644 g / cm^3
# Si number density = 16.463909 Si / 1000 Ang^3
#
#
#
# Elastic Constant Matrix: (Units=GPa)
#
#
# Indices 1 2 3 4 5 6 
#
# 1 55.7363 25.0589 39.9208 0.0000 0.0000 0.0000
# 2 25.0589 64.1824 38.7356 0.0000 0.0000 0.0000
# 3 39.9208 38.7356 74.7786 0.0000 0.0000 0.0000
# 4 0.0000 0.0000 0.0000 27.9718 0.0000 0.0000
# 5 0.0000 0.0000 0.0000 0.0000 13.0926 0.0000
# 6 0.0000 0.0000 0.0000 0.0000 0.0000 35.3958
#
#
#
# Elastic Compliance Matrix: (Units=1/GPa)
#
#
# Indices 1 2 3 4 5 6 
#
# 1 0.029421 -0.002921 -0.014193 0.000000 0.000000 0.000000
# 2 -0.002921 0.022957 -0.010332 0.000000 0.000000 0.000000
# 3 -0.014193 -0.010332 0.026302 0.000000 0.000000 0.000000
# 4 0.000000 0.000000 0.000000 0.035750 0.000000 0.000000
# 5 0.000000 0.000000 0.000000 0.000000 0.076379 0.000000
# 6 0.000000 0.000000 0.000000 0.000000 0.000000 0.028252
#
#
# Mechanical properties :
#
#
# Convention : Reuss Voigt Hill
#
# Bulk Modulus (GPa) = 42.04052 44.68089 43.36071
# Shear Modulus (GPa) = 17.73786 21.35753 19.54769
#
# Velocity S-wave (km/s) = 3.28591 3.60562 3.44947
# Velocity P-wave (km/s) = 6.32350 6.67320 6.50070
#
# Compressibility (1/GPa) = 0.02378657
#
# Stress axis : x y z
#
# Youngs Moduli (GPa) = 33.98959 43.56005 38.01956
#
# Poissons Ratio (x) = 0.12723 0.53963
# Poissons Ratio (y) = 0.09928 0.39283
# Poissons Ratio (z) = 0.48243 0.45008
#
# Static dielectric constant tensor:
#      x y z
#    x 1.411190 0.000000 0.000000 
#    y 0.000000 1.561370 0.000000 
#    z 0.000000 0.000000 1.547850 
# 
# From -- ./inp_files/31318.got.cif
#   From: 2010.05.17/outbox.cif.g08.bks.cpg/sg65_16_cif.got.tgz:31318.got - 2010.06.03 17:01:31.
