data_PCOD9486235
_publ_section_title
;
Structure prediction by ZEFSAII (Michael W. Deem and Ramdas Pophale) SiO2 
 PCOD9486235
Probable space group: C M M M
;
_chemical_formula_sum "Si O2"
_cell_formula_units_Z 104
_cell_length_a 23.255807
_cell_length_b 28.247740
_cell_length_c 9.859858
_cell_angle_alpha 90.000000
_cell_angle_beta 90.000000
_cell_angle_gamma 90.000000
_cell_volume 6477.177255
_symmetry_space_group_name_H-M "C M M M"
_symmetry_group_IT_number 65
_symmetry_cell_setting 'orthorhombic'
loop_
_space_group_symop_operation_xyz
x,y,z
-x,-y,z
x,-y,-z
-x,y,-z
-x,-y,-z
x,y,-z
-x,y,z
x,-y,z
1/2+x,1/2+y,z
1/2-x,1/2-y,z
1/2+x,1/2-y,-z
1/2-x,1/2+y,-z
1/2-x,1/2-y,-z
1/2+x,1/2+y,-z
1/2-x,1/2+y,z
1/2+x,1/2-y,z
loop_
_atom_site_type_symbol
_atom_site_label
_atom_site_fract_x
_atom_site_fract_y
_atom_site_fract_z
Si Si1 0.568264 0.914354 0.344649
Si Si2 0.643573 0.821073 0.341567
Si Si3 0.376410 0.650918 0.836973
Si Si4 0.570031 0.000000 0.154953
Si Si5 0.433351 0.729972 0.340012
Si Si6 0.249524 0.806700 0.839912
Si Si7 0.566638 0.553391 0.835553
O O1 0.576865 0.931092 0.500000
O O2 0.500000 0.906475 0.327777
O O3 0.601670 0.865645 0.326987
O O4 0.587682 0.953688 0.238145
O O5 0.659964 0.817216 0.500000
O O6 0.608301 0.773691 0.305447
O O7 0.699170 0.826878 0.249531
O O8 0.417580 0.686035 0.754534
O O9 0.311500 0.668681 0.808465
O O10 0.392256 0.596980 0.797088
O O11 0.385210 0.655464 0.000000
O O12 0.500000 0.000000 0.154647
O O13 0.589669 0.000000 0.000000
O O14 0.425024 0.718704 0.500000
O O15 0.500000 0.743665 0.322662
O O16 0.250000 0.750000 0.814529
O O17 0.260384 0.813359 0.000000
O O18 0.500000 0.562511 0.794904
O O19 0.582448 0.500000 0.789717
O O20 0.566894 0.552298 0.000000
#
# Coordination Sequence:
#
# PCOD9486235 Si02
#       7
#    16  16  16   8  16  16  16
#     4   9  17  31  51  73  97 127 163 202 247 299
#     4  10  20  33  51  72  95 129 168 204 244 294
#     4  10  19  32  51  72  96 131 168 200 239 295
#     4   9  17  29  47  73 101 127 157 195 242 295
#     4  10  20  32  47  72 104 130 156 198 247 293
#     4  10  20  34  49  68  97 131 166 205 244 285
#     4   8  14  26  47  75 100 120 152 202 249 287
#
# _framework density 16.056377000000001
#
# number of rings (size 3 to 8) (size 9 to 14) (size 15 to 20)
#    0.000    2.538    1.538    1.615    0.000    5.231 
#    0.000    0.000    1.692    3.231    0.000    2.154 
#    0.000    0.000    0.000    0.000    0.000    0.000 
#
# Total GULP energy -289727.921903 kJ/mol
# GULP energy per Si atom -5571.690806 kJ/mol
# Density = 1.601983 g / cm^3
# Si number density = 16.056377 Si / 1000 Ang^3
#
#
#
# Elastic Constant Matrix: (Units=GPa)
#
#
# Indices 1 2 3 4 5 6 
#
# 1 74.2501 43.5659 31.8928 0.0000 0.0000 0.0000
# 2 43.5659 106.7227 37.1951 0.0000 0.0000 0.0000
# 3 31.8928 37.1951 38.1411 0.0000 0.0000 0.0000
# 4 0.0000 0.0000 0.0000 19.0590 0.0000 0.0000
# 5 0.0000 0.0000 0.0000 0.0000 23.3706 0.0000
# 6 0.0000 0.0000 0.0000 0.0000 0.0000 16.7135
#
#
#
# Elastic Compliance Matrix: (Units=1/GPa)
#
#
# Indices 1 2 3 4 5 6 
#
# 1 0.022038 -0.003899 -0.014625 0.000000 0.000000 0.000000
# 2 -0.003899 0.014884 -0.011255 0.000000 0.000000 0.000000
# 3 -0.014625 -0.011255 0.049423 0.000000 0.000000 0.000000
# 4 0.000000 0.000000 0.000000 0.052469 0.000000 0.000000
# 5 0.000000 0.000000 0.000000 0.000000 0.042789 0.000000
# 6 0.000000 0.000000 0.000000 0.000000 0.000000 0.059832
#
#
# Mechanical properties :
#
#
# Convention : Reuss Voigt Hill
#
# Bulk Modulus (GPa) = 37.33110 49.38018 43.35564
# Shear Modulus (GPa) = 16.13311 18.92597 17.52954
#
# Velocity S-wave (km/s) = 3.17326 3.43697 3.30775
# Velocity P-wave (km/s) = 6.06025 6.82432 6.45360
#
# Compressibility (1/GPa) = 0.02678732
#
# Stress axis : x y z
#
# Youngs Moduli (GPa) = 45.37680 67.18511 20.23332
#
# Poissons Ratio (x) = 0.26195 0.29592
# Poissons Ratio (y) = 0.17692 0.22772
# Poissons Ratio (z) = 0.66365 0.75616
#
# Static dielectric constant tensor:
#      x y z
#    x 1.525040 0.000000 0.000000 
#    y 0.000000 1.536020 0.000000 
#    z 0.000000 0.000000 1.529780 
# 
# From -- ./inp_files/14712.got.cif
#   From: 2010.05.17/outbox.cif.g08.bks.cpg/sg65_8_cif.got.tgz:14712.got - 2010.06.03 17:01:31.
