data_PCOD9486961
_publ_section_title
;
Structure prediction by ZEFSAII (Michael W. Deem and Ramdas Pophale) SiO2 
 PCOD9486961
Probable space group: C M M M
;
_chemical_formula_sum "Si O2"
_cell_formula_units_Z 72
_cell_length_a 8.576942
_cell_length_b 19.601060
_cell_length_c 23.267272
_cell_angle_alpha 90.000000
_cell_angle_beta 90.000000
_cell_angle_gamma 90.000000
_cell_volume 3911.627568
_symmetry_space_group_name_H-M "C M M M"
_symmetry_group_IT_number 65
_symmetry_cell_setting 'orthorhombic'
loop_
_space_group_symop_operation_xyz
x,y,z
-x,-y,z
x,-y,-z
-x,y,-z
-x,-y,-z
x,y,-z
-x,y,z
x,-y,z
1/2+x,1/2+y,z
1/2-x,1/2-y,z
1/2+x,1/2-y,-z
1/2-x,1/2+y,-z
1/2-x,1/2-y,-z
1/2+x,1/2+y,-z
1/2-x,1/2+y,z
1/2+x,1/2-y,z
loop_
_atom_site_type_symbol
_atom_site_label
_atom_site_fract_x
_atom_site_fract_y
_atom_site_fract_z
Si Si1 0.186643 0.824469 0.433535
Si Si2 0.687333 0.825390 0.768913
Si Si3 0.688391 0.921639 0.335835
Si Si4 0.687448 0.674516 0.895620
Si Si5 0.190104 0.921885 0.000000
O O1 0.234354 0.836042 0.500000
O O2 0.250000 0.750000 0.416164
O O3 0.250404 0.881795 0.391306
O O4 0.000000 0.823169 0.431063
O O5 0.500000 0.822762 0.771047
O O6 0.750000 0.750000 0.754156
O O7 0.736551 0.879531 0.720794
O O8 0.750675 0.842706 0.832164
O O9 0.500000 0.921153 0.337307
O O10 0.741005 0.000000 0.334227
O O11 0.500000 0.677111 0.894160
O O12 0.750000 0.750000 0.910205
O O13 0.737695 0.620149 0.943485
O O14 0.000000 0.922951 0.000000
O O15 0.244156 0.000000 0.000000
#
# Coordination Sequence:
#
# PCOD9486961 Si02
#       5
#    16  16  16  16   8
#     4  10  21  37  58  83 109 139 178 223 267 313
#     4  10  20  35  55  78 105 136 175 220 262 309
#     4  10  22  38  55  78 110 146 179 216 266 319
#     4  10  19  33  55  78 102 134 172 215 260 307
#     4   9  19  34  51  75 106 137 170 210 256 307
#
# _framework density 18.406661
#
# number of rings (size 3 to 8) (size 9 to 14) (size 15 to 20)
#    0.000    2.111    0.000    4.333    0.000    6.667 
#    0.000    3.889    0.000    4.667    0.000    0.000 
#    0.000    0.000    0.000    0.000    0.000    0.000 
#
# Total GULP energy -201061.150031 kJ/mol
# GULP energy per Si atom -5585.031945 kJ/mol
# Density = 1.836477 g / cm^3
# Si number density = 18.406661 Si / 1000 Ang^3
#
#
#
# Elastic Constant Matrix: (Units=GPa)
#
#
# Indices 1 2 3 4 5 6 
#
# 1 34.4094 35.0021 31.5828 0.0000 0.0000 0.0000
# 2 35.0021 183.5090 134.6318 0.0000 0.0000 0.0000
# 3 31.5828 134.6318 136.3585 0.0000 0.0000 0.0000
# 4 0.0000 0.0000 0.0000 -59.7792 0.0000 0.0000
# 5 0.0000 0.0000 0.0000 0.0000 18.6339 0.0000
# 6 0.0000 0.0000 0.0000 0.0000 0.0000 22.1104
#
#
#
# Elastic Compliance Matrix: (Units=1/GPa)
#
#
# Indices 1 2 3 4 5 6 
#
# 1 0.037305 -0.002817 -0.005859 0.000000 0.000000 0.000000
# 2 -0.002817 0.019983 -0.019077 0.000000 0.000000 0.000000
# 3 -0.005859 -0.019077 0.027526 0.000000 0.000000 0.000000
# 4 0.000000 0.000000 0.000000 -0.016728 0.000000 0.000000
# 5 0.000000 0.000000 0.000000 0.000000 0.053666 0.000000
# 6 0.000000 0.000000 0.000000 0.000000 0.000000 0.045228
#
#
# Mechanical properties :
#
#
# Convention : Reuss Voigt Hill
#
# Bulk Modulus (GPa) = 34.12101 84.07893 59.09997
# Shear Modulus (GPa) = 21.52809 6.39704 13.96257
#
# Velocity S-wave (km/s) = 3.42362 1.86626 2.75719
# Velocity P-wave (km/s) = 5.84858 7.10082 6.50490
#
# Compressibility (1/GPa) = 0.02930745
#
# Stress axis : x y z
#
# Youngs Moduli (GPa) = 26.80597 50.04368 36.32890
#
# Poissons Ratio (x) = 0.14096 0.21287
# Poissons Ratio (y) = 0.07550 0.69305
# Poissons Ratio (z) = 0.15707 0.95469
#
# Static dielectric constant tensor:
#      x y z
#    x 1.631330 0.000000 0.000000 
#    y 0.000000 1.607440 0.000000 
#    z 0.000000 0.000000 1.623640 
# 
# From -- ./inp_files/67088.got.cif
#   From: 2010.05.17/outbox.cif.g08.bks.cpg/sg65_34_cif.got.tgz:67088.got - 2010.06.03 17:01:31.
