data_PCOD9486064
_publ_section_title
;
Structure prediction by ZEFSAII (Michael W. Deem and Ramdas Pophale) SiO2 
 PCOD9486064
Probable space group: C M M M
;
_chemical_formula_sum "Si O2"
_cell_formula_units_Z 80
_cell_length_a 24.003148
_cell_length_b 26.748257
_cell_length_c 8.861229
_cell_angle_alpha 90.000000
_cell_angle_beta 90.000000
_cell_angle_gamma 90.000000
_cell_volume 5689.284482
_symmetry_space_group_name_H-M "C M M M"
_symmetry_group_IT_number 65
_symmetry_cell_setting 'orthorhombic'
loop_
_space_group_symop_operation_xyz
x,y,z
-x,-y,z
x,-y,-z
-x,y,-z
-x,-y,-z
x,y,-z
-x,y,z
x,-y,z
1/2+x,1/2+y,z
1/2-x,1/2-y,z
1/2+x,1/2-y,-z
1/2-x,1/2+y,-z
1/2-x,1/2-y,-z
1/2+x,1/2+y,-z
1/2-x,1/2+y,z
1/2+x,1/2-y,z
loop_
_atom_site_type_symbol
_atom_site_label
_atom_site_fract_x
_atom_site_fract_y
_atom_site_fract_z
Si Si1 0.113647 0.941320 0.819739
Si Si2 0.000000 0.101216 0.319672
Si Si3 0.790223 0.701156 0.673753
Si Si4 0.617273 0.261803 0.179155
Si Si5 0.315870 0.355591 0.318218
Si Si6 0.500000 0.720647 0.320120
O O1 0.054961 0.922901 0.751844
O O2 0.161173 0.907260 0.745393
O O3 0.120994 0.000000 0.788903
O O4 0.113111 0.933779 0.000000
O O5 0.000000 0.093725 0.500000
O O6 0.000000 0.160757 0.290895
O O7 0.807720 0.693506 0.500000
O O8 0.750000 0.750000 0.674974
O O9 0.842717 0.715913 0.773998
O O10 0.748216 0.657237 0.721830
O O11 0.645504 0.311500 0.250697
O O12 0.555922 0.257495 0.247858
O O13 0.615125 0.267243 0.000000
O O14 0.320450 0.353675 0.500000
O O15 0.500000 0.727722 0.500000
#
# Coordination Sequence:
#
# PCOD9486064 Si02
#       6
#    16   8  16  16  16   8
#     4  11  23  35  47  64  86 112 145 190 236 268
#     4  11  22  34  49  62  79 114 154 189 227 267
#     4   8  16  30  46  63  85 110 139 174 213 260
#     4  11  20  29  45  67  88 111 142 179 220 262
#     4  10  19  32  48  64  83 112 146 180 218 262
#     4  11  21  32  46  63  87 118 150 184 221 259
#
# _framework density 14.061521000000001
#
# number of rings (size 3 to 8) (size 9 to 14) (size 15 to 20)
#    0.000    1.800    2.000    5.100    0.000    8.000 
#    0.000    0.000    0.000    0.000    0.000    0.000 
#    0.000    0.000    0.000    0.900    0.000   16.800 
#
# Total GULP energy -223196.965791 kJ/mol
# GULP energy per Si atom -5579.924145 kJ/mol
# Density = 1.402952 g / cm^3
# Si number density = 14.061521 Si / 1000 Ang^3
#
#
#
# Elastic Constant Matrix: (Units=GPa)
#
#
# Indices 1 2 3 4 5 6 
#
# 1 113.5436 58.1740 65.0864 0.0000 0.0000 0.0000
# 2 58.1740 64.8868 42.8626 0.0000 0.0000 0.0000
# 3 65.0864 42.8626 80.6264 0.0000 0.0000 0.0000
# 4 0.0000 0.0000 0.0000 19.6937 0.0000 0.0000
# 5 0.0000 0.0000 0.0000 0.0000 72.0781 0.0000
# 6 0.0000 0.0000 0.0000 0.0000 0.0000 11.5207
#
#
#
# Elastic Compliance Matrix: (Units=1/GPa)
#
#
# Indices 1 2 3 4 5 6 
#
# 1 0.020919 -0.011713 -0.010660 0.000000 0.000000 0.000000
# 2 -0.011713 0.030311 -0.006659 0.000000 0.000000 0.000000
# 3 -0.010660 -0.006659 0.024548 0.000000 0.000000 0.000000
# 4 0.000000 0.000000 0.000000 0.050778 0.000000 0.000000
# 5 0.000000 0.000000 0.000000 0.000000 0.013874 0.000000
# 6 0.000000 0.000000 0.000000 0.000000 0.000000 0.086800
#
#
# Mechanical properties :
#
#
# Convention : Reuss Voigt Hill
#
# Bulk Modulus (GPa) = 56.44974 65.70030 61.07502
# Shear Modulus (GPa) = 17.17037 26.85408 22.01222
#
# Velocity S-wave (km/s) = 3.49820 4.37482 3.96083
# Velocity P-wave (km/s) = 7.51987 8.50550 8.02783
#
# Compressibility (1/GPa) = 0.01771487
#
# Stress axis : x y z
#
# Youngs Moduli (GPa) = 47.80322 32.99107 40.73603
#
# Poissons Ratio (x) = 0.38643 0.43426
# Poissons Ratio (y) = 0.55992 0.27125
# Poissons Ratio (z) = 0.50959 0.21967
#
# Static dielectric constant tensor:
#      x y z
#    x 1.463980 0.000000 0.000000 
#    y 0.000000 1.451480 0.000000 
#    z 0.000000 0.000000 1.466410 
# 
# From -- ./inp_files/12120.got.cif
#   From: 2010.05.17/outbox.cif.g08.bks.cpg/sg65_7_cif.got.tgz:12120.got - 2010.06.03 17:01:31.
