data_PCOD9486129
_publ_section_title
;
Structure prediction by ZEFSAII (Michael W. Deem and Ramdas Pophale) SiO2 
 PCOD9486129
Probable space group: C M M M
;
_chemical_formula_sum "Si O2"
_cell_formula_units_Z 100
_cell_length_a 22.715680
_cell_length_b 17.400954
_cell_length_c 13.429962
_cell_angle_alpha 90.000000
_cell_angle_beta 90.000000
_cell_angle_gamma 90.000000
_cell_volume 5308.521552
_symmetry_space_group_name_H-M "C M M M"
_symmetry_group_IT_number 65
_symmetry_cell_setting 'orthorhombic'
loop_
_space_group_symop_operation_xyz
x,y,z
-x,-y,z
x,-y,-z
-x,y,-z
-x,-y,-z
x,y,-z
-x,y,z
x,-y,z
1/2+x,1/2+y,z
1/2-x,1/2-y,z
1/2+x,1/2-y,-z
1/2-x,1/2+y,-z
1/2-x,1/2-y,-z
1/2+x,1/2+y,-z
1/2-x,1/2+y,z
1/2+x,1/2-y,z
loop_
_atom_site_type_symbol
_atom_site_label
_atom_site_fract_x
_atom_site_fract_y
_atom_site_fract_z
Si Si1 0.629030 0.000000 0.881397
Si Si2 0.120791 0.754006 0.121217
Si Si3 0.806411 0.406923 0.384529
Si Si4 0.500000 0.000000 0.849419
Si Si5 0.937719 0.407166 0.615003
Si Si6 0.216279 0.637088 0.178892
Si Si7 0.657089 0.585943 0.883912
Si Si8 0.500000 0.178321 0.886271
O O1 0.569115 0.000000 0.816659
O O2 0.668693 0.072881 0.855244
O O3 0.613873 0.000000 0.000000
O O4 0.181500 0.715167 0.157440
O O5 0.119229 0.842608 0.155756
O O6 0.062087 0.709055 0.155625
O O7 0.123279 0.750531 0.000000
O O8 0.795966 0.385436 0.500000
O O9 0.802845 0.500000 0.380223
O O10 0.873067 0.383549 0.352731
O O11 0.768538 0.372160 0.295951
O O12 0.500000 0.086156 0.893155
O O13 0.940593 0.381214 0.500000
O O14 0.937444 0.500000 0.609688
O O15 0.000000 0.385638 0.665871
O O16 0.275663 0.615428 0.122251
O O17 0.652299 0.500000 0.839632
O O18 0.641684 0.579466 0.000000
O O19 0.500000 0.208030 0.000000
#
# Coordination Sequence:
#
# PCOD9486129 Si02
#       8
#     8  16  16   4  16  16  16   8
#     4  12  21  30  45  71 104 142 181 211 241 292
#     4  10  21  35  52  75 104 135 167 212 258 303
#     4   9  17  29  41  61  95 133 173 213 252 293
#     4  12  21  32  48  68 111 156 175 198 234 290
#     4   7  10  19  34  49  72 111 156 202 241 271
#     4  12  20  31  49  76 103 139 175 210 252 305
#     4  10  20  35  55  77 100 127 167 217 265 308
#     4  10  19  32  49  72 105 142 174 200 240 298
#
# _framework density 18.837637000000001
#
# number of rings (size 3 to 8) (size 9 to 14) (size 15 to 20)
#    0.000    2.080    3.200    4.080    0.000    1.280 
#    2.880    0.400    0.000    4.320    0.000    0.000 
#    0.000    0.000    0.000    0.000    0.000    7.280 
#
# Total GULP energy -278396.761126 kJ/mol
# GULP energy per Si atom -5567.935223 kJ/mol
# Density = 1.879476 g / cm^3
# Si number density = 18.837637 Si / 1000 Ang^3
#
#
#
# Elastic Constant Matrix: (Units=GPa)
#
#
# Indices 1 2 3 4 5 6 
#
# 1 43.0184 22.6518 -4.7095 0.0000 0.0000 0.0000
# 2 22.6518 115.2626 9.8788 0.0000 0.0000 0.0000
# 3 -4.7095 9.8788 71.6327 0.0000 0.0000 0.0000
# 4 0.0000 0.0000 0.0000 8.5882 0.0000 0.0000
# 5 0.0000 0.0000 0.0000 0.0000 11.4206 0.0000
# 6 0.0000 0.0000 0.0000 0.0000 0.0000 20.0125
#
#
#
# Elastic Compliance Matrix: (Units=1/GPa)
#
#
# Indices 1 2 3 4 5 6 
#
# 1 0.026356 -0.005392 0.002476 0.000000 0.000000 0.000000
# 2 -0.005392 0.009883 -0.001717 0.000000 0.000000 0.000000
# 3 0.002476 -0.001717 0.014360 0.000000 0.000000 0.000000
# 4 0.000000 0.000000 0.000000 0.116439 0.000000 0.000000
# 5 0.000000 0.000000 0.000000 0.000000 0.087561 0.000000
# 6 0.000000 0.000000 0.000000 0.000000 0.000000 0.049969
#
#
# Mechanical properties :
#
#
# Convention : Reuss Voigt Hill
#
# Bulk Modulus (GPa) = 24.19390 31.72846 27.96118
# Shear Modulus (GPa) = 15.26202 21.47710 18.36956
#
# Velocity S-wave (km/s) = 2.84947 3.38022 3.12613
# Velocity P-wave (km/s) = 4.86798 5.66694 5.28259
#
# Compressibility (1/GPa) = 0.04133273
#
# Stress axis : x y z
#
# Youngs Moduli (GPa) = 37.94193 101.18740 69.63906
#
# Poissons Ratio (x) = 0.54559 -0.17245
# Poissons Ratio (y) = 0.20458 0.11960
# Poissons Ratio (z) = -0.09396 0.17378
#
# Static dielectric constant tensor:
#      x y z
#    x 1.695600 0.000000 0.000000 
#    y 0.000000 1.704520 0.000000 
#    z 0.000000 0.000000 1.726770 
# 
# From -- ./inp_files/44468.got.cif
#   From: 2010.05.17/outbox.cif.g08.bks.cpg/sg65_23_cif.got.tgz:44468.got - 2010.06.03 17:01:31.
