data_PCOD9486774
_publ_section_title
;
Structure prediction by ZEFSAII (Michael W. Deem and Ramdas Pophale) SiO2 
 PCOD9486774
Probable space group: C M M M
;
_chemical_formula_sum "Si O2"
_cell_formula_units_Z 104
_cell_length_a 26.075017
_cell_length_b 7.983608
_cell_length_c 24.048051
_cell_angle_alpha 90.000000
_cell_angle_beta 90.000000
_cell_angle_gamma 90.000000
_cell_volume 5006.148051
_symmetry_space_group_name_H-M "C M M M"
_symmetry_group_IT_number 65
_symmetry_cell_setting 'orthorhombic'
loop_
_space_group_symop_operation_xyz
x,y,z
-x,-y,z
x,-y,-z
-x,y,-z
-x,-y,-z
x,y,-z
-x,y,z
x,-y,z
1/2+x,1/2+y,z
1/2-x,1/2-y,z
1/2+x,1/2-y,-z
1/2-x,1/2+y,-z
1/2-x,1/2-y,-z
1/2+x,1/2+y,-z
1/2-x,1/2+y,z
1/2+x,1/2-y,z
loop_
_atom_site_type_symbol
_atom_site_label
_atom_site_fract_x
_atom_site_fract_y
_atom_site_fract_z
Si Si1 0.109931 0.799024 0.179844
Si Si2 0.000000 0.198369 0.647294
Si Si3 0.887203 0.194926 0.062288
Si Si4 0.305969 0.798403 0.603483
Si Si5 0.000000 0.311647 0.934135
Si Si6 0.085709 0.702201 0.439285
Si Si7 0.193600 0.300227 0.268926
Si Si8 0.000000 0.794317 0.225499
O O1 0.132486 0.731620 0.120840
O O2 0.148579 0.763406 0.229823
O O3 0.052743 0.738228 0.196132
O O4 0.106297 0.000000 0.173746
O O5 0.950688 0.248633 0.611264
O O6 0.000000 0.264206 0.710333
O O7 0.000000 0.000000 0.652270
O O8 0.948124 0.209860 0.074782
O O9 0.872524 0.000000 0.058697
O O10 0.877673 0.268072 0.000000
O O11 0.250000 0.750000 0.581561
O O12 0.356031 0.739750 0.570801
O O13 0.310334 0.736631 0.667426
O O14 0.307704 0.000000 0.604355
O O15 0.000000 0.500000 0.909450
O O16 0.000000 0.335303 0.000000
O O17 0.067284 0.760860 0.500000
O O18 0.085809 0.500000 0.440401
O O19 0.190427 0.500000 0.270785
O O20 0.250000 0.250000 0.248014
O O21 0.000000 0.000000 0.224637
#
# Coordination Sequence:
#
# PCOD9486774 Si02
#       8
#    16   8  16  16   8  16  16   8
#     4  10  19  33  53  76 104 136 171 210 253 305
#     4  11  22  35  52  74 102 137 179 220 252 290
#     4   9  17  29  46  68  96 132 169 204 248 305
#     4   9  19  35  55  79 105 133 166 207 257 309
#     4   9  16  25  39  61  90 125 164 203 241 285
#     4  10  21  37  55  75 103 139 174 208 252 305
#     4  10  20  35  55  78 103 132 169 212 257 304
#     4   9  19  33  50  76 108 139 168 206 259 306
#
# _framework density 20.774455
#
# number of rings (size 3 to 8) (size 9 to 14) (size 15 to 20)
#    0.000    2.385    0.000    2.538    0.000    5.538 
#    0.000    1.154    0.000    0.462    0.000    0.000 
#    0.000    0.000    0.000    0.000    0.000    0.000 
#
# Total GULP energy -289910.763582 kJ/mol
# GULP energy per Si atom -5575.206992 kJ/mol
# Density = 2.072717 g / cm^3
# Si number density = 20.774455 Si / 1000 Ang^3
#
#
#
# Elastic Constant Matrix: (Units=GPa)
#
#
# Indices 1 2 3 4 5 6 
#
# 1 85.0334 4.5305 40.6040 0.0000 0.0000 0.0000
# 2 4.5305 23.6337 12.4560 0.0000 0.0000 0.0000
# 3 40.6040 12.4560 135.0256 0.0000 0.0000 0.0000
# 4 0.0000 0.0000 0.0000 13.4949 0.0000 0.0000
# 5 0.0000 0.0000 0.0000 0.0000 43.0929 0.0000
# 6 0.0000 0.0000 0.0000 0.0000 0.0000 19.8874
#
#
#
# Elastic Compliance Matrix: (Units=1/GPa)
#
#
# Indices 1 2 3 4 5 6 
#
# 1 0.013737 -0.000480 -0.004087 0.000000 0.000000 0.000000
# 2 -0.000480 0.044492 -0.003960 0.000000 0.000000 0.000000
# 3 -0.004087 -0.003960 0.009000 0.000000 0.000000 0.000000
# 4 0.000000 0.000000 0.000000 0.074102 0.000000 0.000000
# 5 0.000000 0.000000 0.000000 0.000000 0.023206 0.000000
# 6 0.000000 0.000000 0.000000 0.000000 0.000000 0.050283
#
#
# Mechanical properties :
#
#
# Convention : Reuss Voigt Hill
#
# Bulk Modulus (GPa) = 19.92975 39.87486 29.90231
# Shear Modulus (GPa) = 20.11284 27.70187 23.90735
#
# Velocity S-wave (km/s) = 3.11489 3.65562 3.39603
# Velocity P-wave (km/s) = 4.74878 6.08719 5.45916
#
# Compressibility (1/GPa) = 0.05017625
#
# Stress axis : x y z
#
# Youngs Moduli (GPa) = 72.79582 22.47618 111.10815
#
# Poissons Ratio (x) = 0.01078 0.45406
# Poissons Ratio (y) = 0.03491 0.44000
# Poissons Ratio (z) = 0.29749 0.08901
#
# Static dielectric constant tensor:
#      x y z
#    x 2.588680 0.000000 0.000000 
#    y 0.000000 1.766530 0.000000 
#    z 0.000000 0.000000 1.807170 
# 
# From -- ./inp_files/75860.got.cif
#   From: 2010.05.17/outbox.cif.g08.bks.cpg/sg65_38_cif.got.tgz:75860.got - 2010.06.03 17:01:31.
