data_PCOD9486708
_publ_section_title
;
Structure prediction by ZEFSAII (Michael W. Deem and Ramdas Pophale) SiO2 
 PCOD9486708
Probable space group: C M M M
;
_chemical_formula_sum "Si O2"
_cell_formula_units_Z 116
_cell_length_a 28.397360
_cell_length_b 18.312385
_cell_length_c 12.678201
_cell_angle_alpha 90.000000
_cell_angle_beta 90.000000
_cell_angle_gamma 90.000000
_cell_volume 6592.961054
_symmetry_space_group_name_H-M "C M M M"
_symmetry_group_IT_number 65
_symmetry_cell_setting 'orthorhombic'
loop_
_space_group_symop_operation_xyz
x,y,z
-x,-y,z
x,-y,-z
-x,y,-z
-x,-y,-z
x,y,-z
-x,y,z
x,-y,z
1/2+x,1/2+y,z
1/2-x,1/2-y,z
1/2+x,1/2-y,-z
1/2-x,1/2+y,-z
1/2-x,1/2-y,-z
1/2+x,1/2+y,-z
1/2-x,1/2+y,z
1/2+x,1/2-y,z
loop_
_atom_site_type_symbol
_atom_site_label
_atom_site_fract_x
_atom_site_fract_y
_atom_site_fract_z
Si Si1 0.302601 0.717381 0.379868
Si Si2 0.444638 0.211557 0.618499
Si Si3 0.698069 0.084586 0.875658
Si Si4 0.128896 0.298220 0.783025
Si Si5 0.389756 0.356051 0.878792
Si Si6 0.912093 0.000000 0.500000
Si Si7 0.798173 0.914179 0.232802
Si Si8 0.055541 0.116569 0.329840
O O1 0.318934 0.721302 0.500000
O O2 0.250000 0.750000 0.374426
O O3 0.335456 0.762714 0.301924
O O4 0.303279 0.635026 0.336560
O O5 0.429215 0.191787 0.500000
O O6 0.500000 0.196051 0.627751
O O7 0.414997 0.176297 0.712445
O O8 0.438984 0.299263 0.633599
O O9 0.656740 0.138318 0.841185
O O10 0.746873 0.101532 0.816135
O O11 0.686301 0.000000 0.853275
O O12 0.706645 0.091923 0.000000
O O13 0.113960 0.231379 0.858854
O O14 0.338930 0.389508 0.847945
O O15 0.425431 0.386208 0.789850
O O16 0.401721 0.371541 0.000000
O O17 0.916651 0.063540 0.592640
O O18 0.802194 0.000000 0.253710
O O19 0.000000 0.097988 0.337196
#
# Coordination Sequence:
#
# PCOD9486708 Si02
#       8
#    16  16  16  16  16   4  16  16
#     4  10  19  33  52  76 107 140 174 216 263 311
#     4   9  17  32  54  80 107 134 173 216 257 311
#     4  10  20  35  57  79 101 133 174 219 263 317
#     4  10  19  34  55  81 105 139 175 218 263 317
#     4  10  22  36  52  78 109 143 180 223 274 323
#     4  12  21  36  58  78 104 138 190 242 274 320
#     4  10  21  37  52  74 104 144 182 221 263 314
#     4  10  20  34  54  78 103 139 182 229 273 313
#
# _framework density 17.594522000000001
#
# number of rings (size 3 to 8) (size 9 to 14) (size 15 to 20)
#    0.000    2.069    2.069    1.862    0.966    1.379 
#    1.241    2.069    0.000    4.138    0.000    1.931 
#    0.000    0.000    0.000    0.000    0.000    0.000 
#
# Total GULP energy -323232.845633 kJ/mol
# GULP energy per Si atom -5572.980097 kJ/mol
# Density = 1.755448 g / cm^3
# Si number density = 17.594522 Si / 1000 Ang^3
#
#
#
# Elastic Constant Matrix: (Units=GPa)
#
#
# Indices 1 2 3 4 5 6 
#
# 1 33.1120 3.5076 -2.1319 0.0000 0.0000 0.0000
# 2 3.5076 34.5266 9.6005 0.0000 0.0000 0.0000
# 3 -2.1319 9.6005 87.1436 0.0000 0.0000 0.0000
# 4 0.0000 0.0000 0.0000 24.2967 0.0000 0.0000
# 5 0.0000 0.0000 0.0000 0.0000 14.1356 0.0000
# 6 0.0000 0.0000 0.0000 0.0000 0.0000 5.3715
#
#
#
# Elastic Compliance Matrix: (Units=1/GPa)
#
#
# Indices 1 2 3 4 5 6 
#
# 1 0.030636 -0.003426 0.001127 0.000000 0.000000 0.000000
# 2 -0.003426 0.030262 -0.003418 0.000000 0.000000 0.000000
# 3 0.001127 -0.003418 0.011879 0.000000 0.000000 0.000000
# 4 0.000000 0.000000 0.000000 0.041158 0.000000 0.000000
# 5 0.000000 0.000000 0.000000 0.000000 0.070743 0.000000
# 6 0.000000 0.000000 0.000000 0.000000 0.000000 0.186166
#
#
# Mechanical properties :
#
#
# Convention : Reuss Voigt Hill
#
# Bulk Modulus (GPa) = 16.30154 19.63719 17.96937
# Shear Modulus (GPa) = 12.41542 18.34785 15.38163
#
# Velocity S-wave (km/s) = 2.65927 3.23277 2.95994
# Velocity P-wave (km/s) = 4.32599 5.01195 4.68155
#
# Compressibility (1/GPa) = 0.06134390
#
# Stress axis : x y z
#
# Youngs Moduli (GPa) = 32.64139 33.04526 84.17936
#
# Poissons Ratio (x) = 0.11320 -0.09486
# Poissons Ratio (y) = 0.11182 0.28770
# Poissons Ratio (z) = -0.03678 0.11294
#
# Static dielectric constant tensor:
#      x y z
#    x 1.626730 0.000000 0.000000 
#    y 0.000000 1.586610 0.000000 
#    z 0.000000 0.000000 1.585810 
# 
# From -- ./inp_files/27806.got.cif
#   From: 2010.05.17/outbox.cif.g08.bks.cpg/sg65_14_cif.got.tgz:27806.got - 2010.06.03 17:01:31.
