data_PCOD9486271
_publ_section_title
;
Structure prediction by ZEFSAII (Michael W. Deem and Ramdas Pophale) SiO2 
 PCOD9486271
Probable space group: C M M M
;
_chemical_formula_sum "Si O2"
_cell_formula_units_Z 88
_cell_length_a 20.301551
_cell_length_b 8.244375
_cell_length_c 30.237161
_cell_angle_alpha 90.000000
_cell_angle_beta 90.000000
_cell_angle_gamma 90.000000
_cell_volume 5060.902476
_symmetry_space_group_name_H-M "C M M M"
_symmetry_group_IT_number 65
_symmetry_cell_setting 'orthorhombic'
loop_
_space_group_symop_operation_xyz
x,y,z
-x,-y,z
x,-y,-z
-x,y,-z
-x,-y,-z
x,y,-z
-x,y,z
x,-y,z
1/2+x,1/2+y,z
1/2-x,1/2-y,z
1/2+x,1/2-y,-z
1/2-x,1/2+y,-z
1/2-x,1/2-y,-z
1/2+x,1/2+y,-z
1/2-x,1/2+y,z
1/2+x,1/2-y,z
loop_
_atom_site_type_symbol
_atom_site_label
_atom_site_fract_x
_atom_site_fract_y
_atom_site_fract_z
Si Si1 0.675620 0.304982 0.275749
Si Si2 0.924684 0.304455 0.549711
Si Si3 0.419649 0.000000 0.948657
Si Si4 0.580021 0.681055 0.104825
Si Si5 0.576427 0.192460 0.200845
Si Si6 0.823517 0.806765 0.623652
O O1 0.672608 0.500000 0.274402
O O2 0.750000 0.250000 0.265068
O O3 0.623667 0.235087 0.241206
O O4 0.661813 0.248771 0.326230
O O5 0.905589 0.250227 0.500000
O O6 0.924980 0.500000 0.549327
O O7 0.875699 0.249161 0.587601
O O8 0.000000 0.250374 0.557800
O O9 0.397576 0.165339 0.924277
O O10 0.500000 0.000000 0.946692
O O11 0.400774 0.000000 0.000000
O O12 0.500000 0.681395 0.102480
O O13 0.602195 0.500000 0.091445
O O14 0.596510 0.715295 0.156043
O O15 0.500000 0.234112 0.210740
O O16 0.578862 0.000000 0.191657
O O17 0.750000 0.750000 0.612074
O O18 0.823554 0.000000 0.624962
#
# Coordination Sequence:
#
# PCOD9486271 Si02
#       6
#    16  16   8  16  16  16
#     4  10  21  36  52  73 102 135 169 212 261 307
#     4   9  19  36  56  77 102 132 166 207 254 303
#     4   9  16  26  40  62  96 134 172 214 260 316
#     4   9  16  27  43  64  94 132 171 214 262 309
#     4  10  19  32  51  74 101 136 175 213 258 312
#     4  10  21  36  54  75 101 133 169 208 255 308
#
# _framework density 17.388204000000002
#
# number of rings (size 3 to 8) (size 9 to 14) (size 15 to 20)
#    0.000    2.455    0.909    2.182    0.000    5.455 
#    0.000    6.364    0.000    0.000    0.000    0.000 
#    0.000    0.727    0.364    0.000    0.000    0.000 
#
# Total GULP energy -245347.663787 kJ/mol
# GULP energy per Si atom -5576.083268 kJ/mol
# Density = 1.734863 g / cm^3
# Si number density = 17.388204 Si / 1000 Ang^3
#
#
#
# Elastic Constant Matrix: (Units=GPa)
#
#
# Indices 1 2 3 4 5 6 
#
# 1 56.4466 30.3088 71.4141 0.0000 0.0000 0.0000
# 2 30.3088 84.2226 53.1600 0.0000 0.0000 0.0000
# 3 71.4141 53.1600 129.2080 0.0000 0.0000 0.0000
# 4 0.0000 0.0000 0.0000 26.2752 0.0000 0.0000
# 5 0.0000 0.0000 0.0000 0.0000 -16.3013 0.0000
# 6 0.0000 0.0000 0.0000 0.0000 0.0000 23.1379
#
#
#
# Elastic Compliance Matrix: (Units=1/GPa)
#
#
# Indices 1 2 3 4 5 6 
#
# 1 0.058956 -0.000876 -0.032225 0.000000 0.000000 0.000000
# 2 -0.000876 0.016051 -0.006120 0.000000 0.000000 0.000000
# 3 -0.032225 -0.006120 0.028068 0.000000 0.000000 0.000000
# 4 0.000000 0.000000 0.000000 0.038059 0.000000 0.000000
# 5 0.000000 0.000000 0.000000 0.000000 -0.061345 0.000000
# 6 0.000000 0.000000 0.000000 0.000000 0.000000 0.043219
#
#
# Mechanical properties :
#
#
# Convention : Reuss Voigt Hill
#
# Bulk Modulus (GPa) = 40.59454 64.40478 52.49966
# Shear Modulus (GPa) = 23.84788 14.28864 19.06826
#
# Velocity S-wave (km/s) = 3.70739 2.86972 3.31512
# Velocity P-wave (km/s) = 6.45934 6.93543 6.70161
#
# Compressibility (1/GPa) = 0.02463385
#
# Stress axis : x y z
#
# Youngs Moduli (GPa) = 16.96169 62.30042 35.62749
#
# Poissons Ratio (x) = 0.05460 1.14810
# Poissons Ratio (y) = 0.01487 0.21802
# Poissons Ratio (z) = 0.54659 0.38125
#
# Static dielectric constant tensor:
#      x y z
#    x 1.482930 0.000000 0.000000 
#    y 0.000000 1.613380 0.000000 
#    z 0.000000 0.000000 1.588030 
# 
# From -- ./inp_files/70949.got.cif
#   From: 2010.05.17/outbox.cif.g08.bks.cpg/sg65_36_cif.got.tgz:70949.got - 2010.06.03 17:01:31.
