data_PCOD9486989
_publ_section_title
;
Structure prediction by ZEFSAII (Michael W. Deem and Ramdas Pophale) SiO2 
 PCOD9486989
Probable space group: C M M M
;
_chemical_formula_sum "Si O2"
_cell_formula_units_Z 72
_cell_length_a 26.140262
_cell_length_b 8.603172
_cell_length_c 17.663842
_cell_angle_alpha 90.000000
_cell_angle_beta 90.000000
_cell_angle_gamma 90.000000
_cell_volume 3972.406768
_symmetry_space_group_name_H-M "C M M M"
_symmetry_group_IT_number 65
_symmetry_cell_setting 'orthorhombic'
loop_
_space_group_symop_operation_xyz
x,y,z
-x,-y,z
x,-y,-z
-x,y,-z
-x,-y,-z
x,y,-z
-x,y,z
x,-y,z
1/2+x,1/2+y,z
1/2-x,1/2-y,z
1/2+x,1/2-y,-z
1/2-x,1/2+y,-z
1/2-x,1/2-y,-z
1/2+x,1/2+y,-z
1/2-x,1/2+y,z
1/2+x,1/2-y,z
loop_
_atom_site_type_symbol
_atom_site_label
_atom_site_fract_x
_atom_site_fract_y
_atom_site_fract_z
Si Si1 0.000000 0.315782 0.719720
Si Si2 0.194075 0.814339 0.586412
Si Si3 0.692542 0.312376 0.000000
Si Si4 0.000000 0.818156 0.884871
Si Si5 0.611908 0.311176 0.126109
Si Si6 0.887232 0.315714 0.703434
O O1 0.000000 0.209483 0.794371
O O2 0.053694 0.287196 0.679113
O O3 0.000000 0.500000 0.742766
O O4 0.182701 0.762254 0.500000
O O5 0.250000 0.750000 0.606579
O O6 0.152174 0.757980 0.645507
O O7 0.196052 0.000000 0.587004
O O8 0.750000 0.250000 0.000000
O O9 0.658820 0.264183 0.072787
O O10 0.694660 0.500000 0.000000
O O11 0.943653 0.756878 0.906494
O O12 0.000000 0.000000 0.904739
O O13 0.610207 0.500000 0.128110
O O14 0.618049 0.249969 0.211383
O O15 0.879095 0.500000 0.706084
#
# Coordination Sequence:
#
# PCOD9486989 Si02
#       6
#     8  16   8   8  16  16
#     4   8  16  30  48  74 107 138 168 203 246 299
#     4  10  21  37  56  78 104 134 170 214 260 304
#     4  10  22  37  51  69  99 136 171 210 254 302
#     4   8  14  27  50  75  97 123 160 210 261 302
#     4   9  18  33  52  75 101 131 169 212 257 304
#     4  10  19  33  55  80 106 138 173 209 252 304
#
# _framework density 18.125031
#
# number of rings (size 3 to 8) (size 9 to 14) (size 15 to 20)
#    0.000    2.667    0.000    1.333    0.000    4.444 
#    0.000    5.000    0.000    3.333    0.000    8.556 
#    0.000    0.000    0.000    0.000    0.000    0.000 
#
# Total GULP energy -200608.657599 kJ/mol
# GULP energy per Si atom -5572.462711 kJ/mol
# Density = 1.808378 g / cm^3
# Si number density = 18.125031 Si / 1000 Ang^3
#
#
#
# Elastic Constant Matrix: (Units=GPa)
#
#
# Indices 1 2 3 4 5 6 
#
# 1 201.8973 43.8174 100.1657 0.0000 0.0000 0.0000
# 2 43.8174 31.2539 28.5419 0.0000 0.0000 0.0000
# 3 100.1657 28.5419 93.9353 0.0000 0.0000 0.0000
# 4 0.0000 0.0000 0.0000 13.7108 0.0000 0.0000
# 5 0.0000 0.0000 0.0000 0.0000 42.1536 0.0000
# 6 0.0000 0.0000 0.0000 0.0000 0.0000 25.4814
#
#
#
# Elastic Compliance Matrix: (Units=1/GPa)
#
#
# Indices 1 2 3 4 5 6 
#
# 1 0.011474 -0.006800 -0.010168 0.000000 0.000000 0.000000
# 2 -0.006800 0.048314 -0.007429 0.000000 0.000000 0.000000
# 3 -0.010168 -0.007429 0.023746 0.000000 0.000000 0.000000
# 4 0.000000 0.000000 0.000000 0.072935 0.000000 0.000000
# 5 0.000000 0.000000 0.000000 0.000000 0.023723 0.000000
# 6 0.000000 0.000000 0.000000 0.000000 0.000000 0.039244
#
#
# Mechanical properties :
#
#
# Convention : Reuss Voigt Hill
#
# Bulk Modulus (GPa) = 28.78672 74.68183 51.73427
# Shear Modulus (GPa) = 17.86928 26.57325 22.22126
#
# Velocity S-wave (km/s) = 3.14329 3.83313 3.50522
# Velocity P-wave (km/s) = 5.39356 7.80280 6.70724
#
# Compressibility (1/GPa) = 0.03473825
#
# Stress axis : x y z
#
# Youngs Moduli (GPa) = 87.15720 20.69808 42.11246
#
# Poissons Ratio (x) = 0.14074 0.42822
# Poissons Ratio (y) = 0.59263 0.31287
# Poissons Ratio (z) = 0.88626 0.15377
#
# Static dielectric constant tensor:
#      x y z
#    x 1.639990 0.000000 0.000000 
#    y 0.000000 1.624720 0.000000 
#    z 0.000000 0.000000 1.598280 
# 
# From -- ./inp_files/36715.got.cif
#   From: 2010.05.17/outbox.cif.g08.bks.cpg/sg65_19_cif.got.tgz:36715.got - 2010.06.03 17:01:31.
