data_PCOD9486480
_publ_section_title
;
Structure prediction by ZEFSAII (Michael W. Deem and Ramdas Pophale) SiO2 
 PCOD9486480
Probable space group: C M M M
;
_chemical_formula_sum "Si O2"
_cell_formula_units_Z 120
_cell_length_a 28.362157
_cell_length_b 8.896221
_cell_length_c 26.981862
_cell_angle_alpha 90.000000
_cell_angle_beta 90.000000
_cell_angle_gamma 90.000000
_cell_volume 6807.955943
_symmetry_space_group_name_H-M "C M M M"
_symmetry_group_IT_number 65
_symmetry_cell_setting 'orthorhombic'
loop_
_space_group_symop_operation_xyz
x,y,z
-x,-y,z
x,-y,-z
-x,y,-z
-x,-y,-z
x,y,-z
-x,y,z
x,-y,z
1/2+x,1/2+y,z
1/2-x,1/2-y,z
1/2+x,1/2-y,-z
1/2-x,1/2+y,-z
1/2-x,1/2-y,-z
1/2+x,1/2+y,-z
1/2-x,1/2+y,z
1/2+x,1/2-y,z
loop_
_atom_site_type_symbol
_atom_site_label
_atom_site_fract_x
_atom_site_fract_y
_atom_site_fract_z
Si Si1 0.444960 0.680574 0.442733
Si Si2 0.643121 0.319317 0.797410
Si Si3 0.301321 0.178332 0.000000
Si Si4 0.109791 0.320473 0.352481
Si Si5 0.945659 0.324919 0.059680
Si Si6 0.053955 0.680692 0.747591
Si Si7 0.645869 0.322589 0.092356
Si Si8 0.198702 0.180466 0.301289
O O1 0.434204 0.718574 0.500000
O O2 0.500000 0.719000 0.433727
O O3 0.440610 0.500000 0.437577
O O4 0.412070 0.761544 0.403340
O O5 0.638597 0.500000 0.796837
O O6 0.592221 0.250099 0.784658
O O7 0.659923 0.275539 0.852160
O O8 0.678812 0.276582 0.753391
O O9 0.250000 0.250000 0.000000
O O10 0.328184 0.234433 0.951107
O O11 0.201048 0.500000 0.000000
O O12 0.115515 0.500000 0.353332
O O13 0.073536 0.283218 0.307506
O O14 0.159297 0.243391 0.338768
O O15 0.934633 0.500000 0.071022
O O16 0.909213 0.215970 0.085804
O O17 0.000000 0.297539 0.073022
O O18 0.941514 0.308242 0.000000
O O19 0.054735 0.500000 0.752785
O O20 0.000000 0.731738 0.754132
O O21 0.654170 0.500000 0.086158
O O22 0.250000 0.250000 0.309382
O O23 0.200720 0.000000 0.304282
#
# Coordination Sequence:
#
# PCOD9486480 Si02
#       8
#    16  16   8  16  16  16  16  16
#     4   9  18  32  50  76 113 155 194 229 268 315
#     4   9  21  37  53  77 108 138 170 210 259 314
#     4  12  26  44  63  82 103 130 166 205 253 311
#     4  10  19  32  52  79 109 143 185 229 272 318
#     4   9  18  33  53  77 105 138 175 210 248 299
#     4   9  18  32  50  75 108 144 181 219 259 307
#     4  11  22  38  58  82 110 137 169 212 259 309
#     4  10  20  37  58  79 104 135 174 221 272 325
#
# _framework density 17.626436000000002
#
# number of rings (size 3 to 8) (size 9 to 14) (size 15 to 20)
#    0.000    2.267    0.667    3.000    0.000    4.800 
#    0.000    5.333    0.000    0.400    0.000    0.000 
#    0.000    0.000    0.000    0.000    0.000    0.000 
#
# Total GULP energy -334908.579148 kJ/mol
# GULP energy per Si atom -5581.809652 kJ/mol
# Density = 1.758632 g / cm^3
# Si number density = 17.626436 Si / 1000 Ang^3
#
#
#
# Elastic Constant Matrix: (Units=GPa)
#
#
# Indices 1 2 3 4 5 6 
#
# 1 107.3766 44.5407 62.9490 0.0000 0.0000 0.0000
# 2 44.5407 55.7415 51.8058 0.0000 0.0000 0.0000
# 3 62.9490 51.8058 119.6287 0.0000 0.0000 0.0000
# 4 0.0000 0.0000 0.0000 21.8610 0.0000 0.0000
# 5 0.0000 0.0000 0.0000 0.0000 8.1374 0.0000
# 6 0.0000 0.0000 0.0000 0.0000 0.0000 32.6226
#
#
#
# Elastic Compliance Matrix: (Units=1/GPa)
#
#
# Indices 1 2 3 4 5 6 
#
# 1 0.015317 -0.007947 -0.004618 0.000000 0.000000 0.000000
# 2 -0.007947 0.034147 -0.010606 0.000000 0.000000 0.000000
# 3 -0.004618 -0.010606 0.015382 0.000000 0.000000 0.000000
# 4 0.000000 0.000000 0.000000 0.045744 0.000000 0.000000
# 5 0.000000 0.000000 0.000000 0.000000 0.122889 0.000000
# 6 0.000000 0.000000 0.000000 0.000000 0.000000 0.030654
#
#
# Mechanical properties :
#
#
# Convention : Reuss Voigt Hill
#
# Bulk Modulus (GPa) = 54.04222 66.81530 60.42876
# Shear Modulus (GPa) = 15.79065 20.75428 18.27246
#
# Velocity S-wave (km/s) = 2.99632 3.43512 3.22320
# Velocity P-wave (km/s) = 6.53429 7.32953 6.94330
#
# Compressibility (1/GPa) = 0.01850405
#
# Stress axis : x y z
#
# Youngs Moduli (GPa) = 65.28727 29.28521 65.00953
#
# Poissons Ratio (x) = 0.23272 0.30024
# Poissons Ratio (y) = 0.51882 0.68948
# Poissons Ratio (z) = 0.30152 0.31060
#
# Static dielectric constant tensor:
#      x y z
#    x 1.594440 0.000000 0.000000 
#    y 0.000000 1.587700 0.000000 
#    z 0.000000 0.000000 1.606190 
# 
# From -- ./inp_files/76133.got.cif
#   From: 2010.05.17/outbox.cif.g08.bks.cpg/sg65_39_cif.got.tgz:76133.got - 2010.06.03 17:01:31.
