data_PCOD9486793
_publ_section_title
;
Structure prediction by ZEFSAII (Michael W. Deem and Ramdas Pophale) SiO2 
 PCOD9486793
Probable space group: C M M M
;
_chemical_formula_sum "Si O2"
_cell_formula_units_Z 128
_cell_length_a 18.728953
_cell_length_b 21.152270
_cell_length_c 18.603267
_cell_angle_alpha 90.000000
_cell_angle_beta 90.000000
_cell_angle_gamma 90.000000
_cell_volume 7369.867849
_symmetry_space_group_name_H-M "C M M M"
_symmetry_group_IT_number 65
_symmetry_cell_setting 'orthorhombic'
loop_
_space_group_symop_operation_xyz
x,y,z
-x,-y,z
x,-y,-z
-x,y,-z
-x,-y,-z
x,y,-z
-x,y,z
x,-y,z
1/2+x,1/2+y,z
1/2-x,1/2-y,z
1/2+x,1/2-y,-z
1/2-x,1/2+y,-z
1/2-x,1/2-y,-z
1/2+x,1/2+y,-z
1/2-x,1/2+y,z
1/2+x,1/2-y,z
loop_
_atom_site_type_symbol
_atom_site_label
_atom_site_fract_x
_atom_site_fract_y
_atom_site_fract_z
Si Si1 0.579516 0.728024 0.581961
Si Si2 0.304024 0.192508 0.914423
Si Si3 0.686121 0.799809 0.671195
Si Si4 0.422034 0.619139 0.827149
Si Si5 0.225042 0.071281 0.146646
Si Si6 0.078335 0.904154 0.661126
Si Si7 0.915807 0.269172 0.804524
Si Si8 0.237017 0.068984 0.679094
O O1 0.587228 0.705428 0.500000
O O2 0.500000 0.756227 0.589268
O O3 0.641085 0.775703 0.603430
O O4 0.582195 0.668640 0.635737
O O5 0.250000 0.250000 0.892985
O O6 0.271748 0.126372 0.887635
O O7 0.379304 0.203064 0.875583
O O8 0.310182 0.193569 0.000000
O O9 0.750000 0.750000 0.685129
O O10 0.631396 0.794738 0.738189
O O11 0.718918 0.868860 0.658855
O O12 0.500000 0.612314 0.861021
O O13 0.357423 0.587907 0.869159
O O14 0.425104 0.589946 0.747202
O O15 0.408163 0.693288 0.812299
O O16 0.230893 0.074061 0.233768
O O17 0.243024 0.000000 0.124083
O O18 0.157269 0.929811 0.644696
O O19 0.000000 0.927082 0.633529
O O20 0.000000 0.282674 0.796034
O O21 0.269026 0.000000 0.662800
#
# Coordination Sequence:
#
# PCOD9486793 Si02
#       8
#    16  16  16  16  16  16  16  16
#     4  10  20  33  52  82 114 142 182 229 269 316
#     4  11  22  36  55  79 108 140 179 223 269 321
#     4  12  19  33  58  82 108 142 178 227 273 321
#     4   9  16  28  50  80 110 138 172 213 263 321
#     4  10  19  33  53  77 108 142 176 215 267 321
#     4   9  16  30  49  75 110 144 173 210 267 324
#     4  11  20  33  57  81 105 138 177 221 272 322
#     4  10  20  32  51  81 109 138 177 226 273 321
#
# _framework density 17.368017999999999
#
# number of rings (size 3 to 8) (size 9 to 14) (size 15 to 20)
#    0.000    1.750    5.000    1.500    0.000    1.250 
#    0.000    2.500    0.000    4.500    0.000    4.375 
#    0.000    0.000    0.000    0.000    0.000    0.000 
#
# Total GULP energy -356616.688283 kJ/mol
# GULP energy per Si atom -5572.135754 kJ/mol
# Density = 1.732849 g / cm^3
# Si number density = 17.368018 Si / 1000 Ang^3
#
#
#
# Elastic Constant Matrix: (Units=GPa)
#
#
# Indices 1 2 3 4 5 6 
#
# 1 97.6045 46.6061 18.8967 0.0000 0.0000 0.0000
# 2 46.6061 106.2077 4.0982 0.0000 0.0000 0.0000
# 3 18.8967 4.0982 30.5486 0.0000 0.0000 0.0000
# 4 0.0000 0.0000 0.0000 5.2000 0.0000 0.0000
# 5 0.0000 0.0000 0.0000 0.0000 15.8356 0.0000
# 6 0.0000 0.0000 0.0000 0.0000 0.0000 12.1938
#
#
#
# Elastic Compliance Matrix: (Units=1/GPa)
#
#
# Indices 1 2 3 4 5 6 
#
# 1 0.014808 -0.006176 -0.008331 0.000000 0.000000 0.000000
# 2 -0.006176 0.012041 0.002205 0.000000 0.000000 0.000000
# 3 -0.008331 0.002205 0.037592 0.000000 0.000000 0.000000
# 4 0.000000 0.000000 0.000000 0.192309 0.000000 0.000000
# 5 0.000000 0.000000 0.000000 0.000000 0.063149 0.000000
# 6 0.000000 0.000000 0.000000 0.000000 0.000000 0.082009
#
#
# Mechanical properties :
#
#
# Convention : Reuss Voigt Hill
#
# Bulk Modulus (GPa) = 25.10277 41.50699 33.30488
# Shear Modulus (GPa) = 11.36906 17.62987 14.49946
#
# Velocity S-wave (km/s) = 2.56129 3.18948 2.89249
# Velocity P-wave (km/s) = 4.81993 6.12488 5.51116
#
# Compressibility (1/GPa) = 0.03983624
#
# Stress axis : x y z
#
# Youngs Moduli (GPa) = 67.53294 83.05131 26.60119
#
# Poissons Ratio (x) = 0.51296 0.22162
# Poissons Ratio (y) = 0.41711 -0.05866
# Poissons Ratio (z) = 0.56262 -0.18315
#
# Static dielectric constant tensor:
#      x y z
#    x 1.615640 0.000000 0.000000 
#    y 0.000000 1.596150 0.000000 
#    z 0.000000 0.000000 1.591270 
# 
# From -- ./inp_files/64105.got.cif
#   From: 2010.05.17/outbox.cif.g08.bks.cpg/sg65_33_cif.got.tgz:64105.got - 2010.06.03 17:01:31.
