data_PCOD9486809
_publ_section_title
;
Structure prediction by ZEFSAII (Michael W. Deem and Ramdas Pophale) SiO2 
 PCOD9486809
Probable space group: C M M M
;
_chemical_formula_sum "Si O2"
_cell_formula_units_Z 88
_cell_length_a 7.606275
_cell_length_b 18.792911
_cell_length_c 31.583855
_cell_angle_alpha 90.000000
_cell_angle_beta 90.000000
_cell_angle_gamma 90.000000
_cell_volume 4514.724120
_symmetry_space_group_name_H-M "C M M M"
_symmetry_group_IT_number 65
_symmetry_cell_setting 'orthorhombic'
loop_
_space_group_symop_operation_xyz
x,y,z
-x,-y,z
x,-y,-z
-x,y,-z
-x,-y,-z
x,y,-z
-x,y,z
x,-y,z
1/2+x,1/2+y,z
1/2-x,1/2-y,z
1/2+x,1/2-y,-z
1/2-x,1/2+y,-z
1/2-x,1/2-y,-z
1/2+x,1/2+y,-z
1/2-x,1/2+y,z
1/2+x,1/2-y,z
loop_
_atom_site_type_symbol
_atom_site_label
_atom_site_fract_x
_atom_site_fract_y
_atom_site_fract_z
Si Si1 0.210092 0.834157 0.302442
Si Si2 0.709040 0.666205 0.210871
Si Si3 0.710973 0.334884 0.396388
Si Si4 0.288570 0.166875 0.952950
Si Si5 0.500000 0.084318 0.449473
Si Si6 0.791054 0.420384 0.872927
O O1 0.250000 0.750000 0.301952
O O2 0.278995 0.860151 0.256838
O O3 0.268528 0.859129 0.348765
O O4 0.000000 0.843659 0.302465
O O5 0.500000 0.659659 0.212434
O O6 0.750000 0.750000 0.206226
O O7 0.769100 0.623157 0.170214
O O8 0.500000 0.344854 0.401108
O O9 0.750000 0.250000 0.399693
O O10 0.829018 0.377698 0.429383
O O11 0.500000 0.159536 0.953886
O O12 0.250000 0.250000 0.946087
O O13 0.218872 0.121214 0.913785
O O14 0.222660 0.147126 0.000000
O O15 0.500000 0.093341 0.500000
O O16 0.500000 0.000000 0.440061
O O17 0.718848 0.500000 0.869166
O O18 0.000000 0.425807 0.879664
#
# Coordination Sequence:
#
# PCOD9486809 Si02
#       6
#    16  16  16  16   8  16
#     4   8  16  29  52  83 111 138 179 229 279 327
#     4  10  19  33  53  79 107 140 177 219 267 323
#     4  10  19  38  65  94 122 157 203 259 307 358
#     4   9  18  33  53  74  95 124 164 213 265 318
#     4  11  26  44  60  88 129 167 207 253 307 371
#     4  10  21  35  49  70 103 138 175 217 261 315
#
# _framework density 19.491778
#
# number of rings (size 3 to 8) (size 9 to 14) (size 15 to 20)
#    0.000    2.455    0.909    1.091    1.273    4.727 
#    0.000    3.636    0.000    3.273    0.000    3.818 
#    0.000    0.000    0.000    0.000    0.000    0.000 
#
# Total GULP energy -245257.560901 kJ/mol
# GULP energy per Si atom -5574.035475 kJ/mol
# Density = 1.944741 g / cm^3
# Si number density = 19.491778 Si / 1000 Ang^3
#
#
#
# Elastic Constant Matrix: (Units=GPa)
#
#
# Indices 1 2 3 4 5 6 
#
# 1 76.0831 23.6598 38.9492 0.0000 0.0000 0.0000
# 2 23.6598 88.7846 96.1671 0.0000 0.0000 0.0000
# 3 38.9492 96.1671 195.0916 0.0000 0.0000 0.0000
# 4 0.0000 0.0000 0.0000 -25.6354 0.0000 0.0000
# 5 0.0000 0.0000 0.0000 0.0000 15.8805 0.0000
# 6 0.0000 0.0000 0.0000 0.0000 0.0000 15.1640
#
#
#
# Elastic Compliance Matrix: (Units=1/GPa)
#
#
# Indices 1 2 3 4 5 6 
#
# 1 0.014744 -0.001589 -0.002160 0.000000 0.000000 0.000000
# 2 -0.001589 0.024337 -0.011679 0.000000 0.000000 0.000000
# 3 -0.002160 -0.011679 0.011314 0.000000 0.000000 0.000000
# 4 0.000000 0.000000 0.000000 -0.039009 0.000000 0.000000
# 5 0.000000 0.000000 0.000000 0.000000 0.062970 0.000000
# 6 0.000000 0.000000 0.000000 0.000000 0.000000 0.065946
#
#
# Mechanical properties :
#
#
# Convention : Reuss Voigt Hill
#
# Bulk Modulus (GPa) = 51.18332 75.27907 63.23120
# Shear Modulus (GPa) = 28.14173 14.49403 21.31788
#
# Velocity S-wave (km/s) = 3.80383 2.72986 3.31068
# Velocity P-wave (km/s) = 6.75337 6.97431 6.86473
#
# Compressibility (1/GPa) = 0.01953761
#
# Stress axis : x y z
#
# Youngs Moduli (GPa) = 67.82622 41.08940 88.38467
#
# Poissons Ratio (x) = 0.06530 0.19092
# Poissons Ratio (y) = 0.10779 1.03227
# Poissons Ratio (z) = 0.14651 0.47990
#
# Static dielectric constant tensor:
#      x y z
#    x 1.721770 0.000000 0.000000 
#    y 0.000000 1.638520 0.000000 
#    z 0.000000 0.000000 1.727410 
# 
# From -- ./inp_files/76423.got.cif
#   From: 2010.05.17/outbox.cif.g08.bks.cpg/sg65_39_cif.got.tgz:76423.got - 2010.06.03 17:01:31.
