data_PCOD9486525
_publ_section_title
;
Structure prediction by ZEFSAII (Michael W. Deem and Ramdas Pophale) SiO2 
 PCOD9486525
Probable space group: C M M M
;
_chemical_formula_sum "Si O2"
_cell_formula_units_Z 88
_cell_length_a 15.141612
_cell_length_b 13.470815
_cell_length_c 21.642897
_cell_angle_alpha 90.000000
_cell_angle_beta 90.000000
_cell_angle_gamma 90.000000
_cell_volume 4414.498542
_symmetry_space_group_name_H-M "C M M M"
_symmetry_group_IT_number 65
_symmetry_cell_setting 'orthorhombic'
loop_
_space_group_symop_operation_xyz
x,y,z
-x,-y,z
x,-y,-z
-x,y,-z
-x,-y,-z
x,y,-z
-x,y,z
x,-y,z
1/2+x,1/2+y,z
1/2-x,1/2-y,z
1/2+x,1/2-y,-z
1/2-x,1/2+y,-z
1/2-x,1/2-y,-z
1/2+x,1/2+y,-z
1/2-x,1/2+y,z
1/2+x,1/2-y,z
loop_
_atom_site_type_symbol
_atom_site_label
_atom_site_fract_x
_atom_site_fract_y
_atom_site_fract_z
Si Si1 0.000000 0.890532 0.572858
Si Si2 0.101659 0.378971 0.930347
Si Si3 0.853411 0.274817 0.429709
Si Si4 0.600651 0.817348 0.299199
Si Si5 0.400963 0.615393 0.234868
Si Si6 0.783433 0.382187 0.816472
O O1 0.085947 0.822121 0.581889
O O2 0.000000 0.906166 0.500000
O O3 0.000000 0.000000 0.603351
O O4 0.102878 0.500000 0.930779
O O5 0.165643 0.342843 0.876367
O O6 0.000000 0.350179 0.917570
O O7 0.125159 0.346843 0.000000
O O8 0.874092 0.310766 0.500000
O O9 0.750000 0.250000 0.428176
O O10 0.874343 0.341467 0.369741
O O11 0.500000 0.849811 0.286764
O O12 0.603126 0.697835 0.288268
O O13 0.666743 0.857377 0.247434
O O14 0.500000 0.623391 0.207815
O O15 0.389411 0.500000 0.254280
O O16 0.319639 0.642690 0.190605
O O17 0.786736 0.500000 0.822579
#
# Coordination Sequence:
#
# PCOD9486525 Si02
#       6
#     8  16  16  16  16  16
#     4   9  18  34  56  82 107 135 182 241 287 327
#     4   8  14  26  46  74 106 136 167 210 264 314
#     4  10  20  35  54  78 107 141 179 223 281 341
#     4  11  21  34  54  77 104 139 174 217 268 322
#     4   9  19  34  51  73 101 136 176 219 265 311
#     4  10  19  32  53  79 107 136 172 215 259 318
#
# _framework density 19.934313
#
# number of rings (size 3 to 8) (size 9 to 14) (size 15 to 20)
#    0.000    2.455    0.909    2.727    0.000    1.818 
#    0.000    0.909    0.000    4.364    0.000    7.636 
#    0.000    0.000    0.000    0.000    0.000    0.000 
#
# Total GULP energy -245060.723169 kJ/mol
# GULP energy per Si atom -5569.561890 kJ/mol
# Density = 1.988894 g / cm^3
# Si number density = 19.934313 Si / 1000 Ang^3
#
#
#
# Elastic Constant Matrix: (Units=GPa)
#
#
# Indices 1 2 3 4 5 6 
#
# 1 150.9268 17.2293 83.4607 0.0000 0.0000 0.0000
# 2 17.2293 12.1577 15.2888 0.0000 0.0000 0.0000
# 3 83.4607 15.2888 147.7825 0.0000 0.0000 0.0000
# 4 0.0000 0.0000 0.0000 18.2864 0.0000 0.0000
# 5 0.0000 0.0000 0.0000 0.0000 37.0131 0.0000
# 6 0.0000 0.0000 0.0000 0.0000 0.0000 20.4655
#
#
#
# Elastic Compliance Matrix: (Units=1/GPa)
#
#
# Indices 1 2 3 4 5 6 
#
# 1 0.010330 -0.008395 -0.004965 0.000000 0.000000 0.000000
# 2 -0.008395 0.101376 -0.005747 0.000000 0.000000 0.000000
# 3 -0.004965 -0.005747 0.010165 0.000000 0.000000 0.000000
# 4 0.000000 0.000000 0.000000 0.054685 0.000000 0.000000
# 5 0.000000 0.000000 0.000000 0.000000 0.027017 0.000000
# 6 0.000000 0.000000 0.000000 0.000000 0.000000 0.048863
#
#
# Mechanical properties :
#
#
# Convention : Reuss Voigt Hill
#
# Bulk Modulus (GPa) = 11.95351 60.31386 36.13369
# Shear Modulus (GPa) = 15.69677 28.14555 21.92116
#
# Velocity S-wave (km/s) = 2.80915 3.76162 3.31972
# Velocity P-wave (km/s) = 4.06586 7.01344 5.73235
#
# Compressibility (1/GPa) = 0.08365744
#
# Stress axis : x y z
#
# Youngs Moduli (GPa) = 96.80712 9.86424 98.37270
#
# Poissons Ratio (x) = 0.08281 0.48845
# Poissons Ratio (y) = 0.81268 0.56533
# Poissons Ratio (z) = 0.48068 0.05669
#
# Static dielectric constant tensor:
#      x y z
#    x 1.708120 0.000000 0.000000 
#    y 0.000000 1.745590 0.000000 
#    z 0.000000 0.000000 1.708630 
# 
# From -- ./inp_files/62492.got.cif
#   From: 2010.05.17/outbox.cif.g08.bks.cpg/sg65_32_cif.got.tgz:62492.got - 2010.06.03 17:01:31.
