data_PCOD9486647
_publ_section_title
;
Structure prediction by ZEFSAII (Michael W. Deem and Ramdas Pophale) SiO2 
 PCOD9486647
Probable space group: C M M M
;
_chemical_formula_sum "Si O2"
_cell_formula_units_Z 56
_cell_length_a 7.676027
_cell_length_b 24.107732
_cell_length_c 16.164589
_cell_angle_alpha 90.000000
_cell_angle_beta 90.000000
_cell_angle_gamma 90.000000
_cell_volume 2991.283086
_symmetry_space_group_name_H-M "C M M M"
_symmetry_group_IT_number 65
_symmetry_cell_setting 'orthorhombic'
loop_
_space_group_symop_operation_xyz
x,y,z
-x,-y,z
x,-y,-z
-x,y,-z
-x,-y,-z
x,y,-z
-x,y,z
x,-y,z
1/2+x,1/2+y,z
1/2-x,1/2-y,z
1/2+x,1/2-y,-z
1/2-x,1/2+y,-z
1/2-x,1/2-y,-z
1/2+x,1/2+y,-z
1/2-x,1/2+y,z
1/2+x,1/2-y,z
loop_
_atom_site_type_symbol
_atom_site_label
_atom_site_fract_x
_atom_site_fract_y
_atom_site_fract_z
Si Si1 0.286037 0.000000 0.403609
Si Si2 0.794353 0.382949 0.337204
Si Si3 0.791158 0.684525 0.000000
Si Si4 0.210351 0.315351 0.180615
Si Si5 0.293804 0.685178 0.500000
O O1 0.224735 0.056206 0.359547
O O2 0.500000 0.000000 0.403561
O O3 0.234161 0.000000 0.500000
O O4 0.721365 0.351470 0.257029
O O5 0.775837 0.344604 0.417953
O O6 0.000000 0.390345 0.321944
O O7 0.750000 0.750000 0.000000
O O8 0.725776 0.665026 0.089785
O O9 0.000000 0.677047 0.000000
O O10 0.250000 0.250000 0.191535
O O11 0.000000 0.319182 0.179910
O O12 0.500000 0.678591 0.500000
O O13 0.250000 0.750000 0.500000
#
# Coordination Sequence:
#
# PCOD9486647 Si02
#       5
#     8  16   8  16   8
#     4   9  16  30  52  69  87 121 164 201 231 274
#     4  10  19  33  51  70  92 124 162 197 231 276
#     4   8  14  26  42  65  93 121 149 184 229 276
#     4   9  17  28  46  69  95 122 152 189 232 281
#     4  12  24  35  48  69  97 126 152 190 239 286
#
# _framework density 18.721063000000001
#
# number of rings (size 3 to 8) (size 9 to 14) (size 15 to 20)
#    0.000    2.429    1.429    2.143    0.000    3.429 
#    0.000    1.429    0.000    0.857    0.000    6.000 
#    0.000    0.000    0.000   23.571    0.000   17.429 
#
# Total GULP energy -156114.685165 kJ/mol
# GULP energy per Si atom -5575.524470 kJ/mol
# Density = 1.867845 g / cm^3
# Si number density = 18.721063 Si / 1000 Ang^3
#
#
#
# Elastic Constant Matrix: (Units=GPa)
#
#
# Indices 1 2 3 4 5 6 
#
# 1 35.3187 -3.3900 -1.0954 0.0000 0.0000 0.0000
# 2 -3.3900 142.8162 100.2092 0.0000 0.0000 0.0000
# 3 -1.0954 100.2092 218.4152 0.0000 0.0000 0.0000
# 4 0.0000 0.0000 0.0000 7.5593 0.0000 0.0000
# 5 0.0000 0.0000 0.0000 0.0000 -27.0171 0.0000
# 6 0.0000 0.0000 0.0000 0.0000 0.0000 10.8420
#
#
#
# Elastic Compliance Matrix: (Units=1/GPa)
#
#
# Indices 1 2 3 4 5 6 
#
# 1 0.028387 0.000846 -0.000246 0.000000 0.000000 0.000000
# 2 0.000846 0.010352 -0.004745 0.000000 0.000000 0.000000
# 3 -0.000246 -0.004745 0.006754 0.000000 0.000000 0.000000
# 4 0.000000 0.000000 0.000000 0.132287 0.000000 0.000000
# 5 0.000000 0.000000 0.000000 0.000000 -0.037014 0.000000
# 6 0.000000 0.000000 0.000000 0.000000 0.000000 0.092234
#
#
# Mechanical properties :
#
#
# Convention : Reuss Voigt Hill
#
# Bulk Modulus (GPa) = 26.87897 65.33307 46.10602
# Shear Modulus (GPa) = 19.70903 18.33192 19.02048
#
# Velocity S-wave (km/s) = 3.24817 3.13263 3.19092
# Velocity P-wave (km/s) = 5.33444 6.93242 6.18525
#
# Compressibility (1/GPa) = 0.03720381
#
# Stress axis : x y z
#
# Youngs Moduli (GPa) = 35.22708 96.60399 148.05507
#
# Poissons Ratio (x) = -0.08177 0.03642
# Poissons Ratio (y) = -0.02982 0.70253
# Poissons Ratio (z) = 0.00866 0.45839
#
# Static dielectric constant tensor:
#      x y z
#    x 1.702620 0.000000 0.000000 
#    y 0.000000 1.613490 0.000000 
#    z 0.000000 0.000000 1.659430 
# 
# From -- ./inp_files/35816.got.cif
#   From: 2010.05.17/outbox.cif.g08.bks.cpg/sg65_18_cif.got.tgz:35816.got - 2010.06.03 17:01:31.
