data_PCOD9486954
_publ_section_title
;
Structure prediction by ZEFSAII (Michael W. Deem and Ramdas Pophale) SiO2 
 PCOD9486954
Probable space group: C M M M
;
_chemical_formula_sum "Si O2"
_cell_formula_units_Z 58
_cell_length_a 7.900236
_cell_length_b 23.811245
_cell_length_c 16.383100
_cell_angle_alpha 90.000000
_cell_angle_beta 90.000000
_cell_angle_gamma 90.000000
_cell_volume 3081.897927
_symmetry_space_group_name_H-M "C M M M"
_symmetry_group_IT_number 65
_symmetry_cell_setting 'orthorhombic'
loop_
_space_group_symop_operation_xyz
x,y,z
-x,-y,z
x,-y,-z
-x,y,-z
-x,-y,-z
x,y,-z
-x,y,z
x,-y,z
1/2+x,1/2+y,z
1/2-x,1/2-y,z
1/2+x,1/2-y,-z
1/2-x,1/2+y,-z
1/2-x,1/2-y,-z
1/2+x,1/2+y,-z
1/2-x,1/2+y,z
1/2+x,1/2-y,z
loop_
_atom_site_type_symbol
_atom_site_label
_atom_site_fract_x
_atom_site_fract_y
_atom_site_fract_z
Si Si1 0.000000 0.500000 0.000000
Si Si2 0.297018 0.684454 0.677247
Si Si3 0.796345 0.815958 0.500000
Si Si4 0.688075 0.500000 0.128035
Si Si5 0.795870 0.315956 0.000000
Si Si6 0.800623 0.381836 0.163378
O O1 0.151629 0.500000 0.931562
O O2 0.500000 0.679377 0.680865
O O3 0.250000 0.750000 0.680857
O O4 0.237007 0.662051 0.588224
O O5 0.222007 0.654559 0.755837
O O6 0.750000 0.750000 0.500000
O O7 0.000000 0.820305 0.500000
O O8 0.500000 0.500000 0.091210
O O9 0.708366 0.441130 0.174532
O O10 0.750000 0.250000 0.000000
O O11 0.737846 0.348568 0.917965
O O12 0.000000 0.318555 0.000000
O O13 0.000000 0.391780 0.149931
#
# Coordination Sequence:
#
# PCOD9486954 Si02
#       6
#     2  16   8   8   8  16
#     4  12  22  44  60  86 116 138 198 256 288 336
#     4  10  19  33  54  84 115 154 195 240 299 358
#     4   8  16  30  50  77 114 147 190 242 290 351
#     4  12  25  41  65  89 112 156 200 250 304 349
#     4  10  23  37  54  76 111 149 184 227 284 338
#     4  11  22  39  59  81 116 153 192 248 294 346
#
# _framework density 18.819572000000001
#
# number of rings (size 3 to 8) (size 9 to 14) (size 15 to 20)
#    0.000    1.655    1.379    3.517    1.931    5.517 
#    0.000    0.000    0.000    0.828    0.000    5.793 
#    0.000    0.000    0.000    0.000    0.000    0.000 
#
# Total GULP energy -161447.686925 kJ/mol
# GULP energy per Si atom -5567.161618 kJ/mol
# Density = 1.877674 g / cm^3
# Si number density = 18.819572 Si / 1000 Ang^3
#
#
#
# Elastic Constant Matrix: (Units=GPa)
#
#
# Indices 1 2 3 4 5 6 
#
# 1 76.6797 10.5727 13.9860 0.0000 0.0000 0.0000
# 2 10.5727 108.1605 67.2869 0.0000 0.0000 0.0000
# 3 13.9860 67.2869 169.6617 0.0000 0.0000 0.0000
# 4 0.0000 0.0000 0.0000 -7.8840 0.0000 0.0000
# 5 0.0000 0.0000 0.0000 0.0000 28.3322 0.0000
# 6 0.0000 0.0000 0.0000 0.0000 0.0000 25.6685
#
#
#
# Elastic Compliance Matrix: (Units=1/GPa)
#
#
# Indices 1 2 3 4 5 6 
#
# 1 0.013295 -0.000820 -0.000771 0.000000 0.000000 0.000000
# 2 -0.000820 0.012324 -0.004820 0.000000 0.000000 0.000000
# 3 -0.000771 -0.004820 0.007869 0.000000 0.000000 0.000000
# 4 0.000000 0.000000 0.000000 -0.126839 0.000000 0.000000
# 5 0.000000 0.000000 0.000000 0.000000 0.035295 0.000000
# 6 0.000000 0.000000 0.000000 0.000000 0.000000 0.038958
#
#
# Mechanical properties :
#
#
# Convention : Reuss Voigt Hill
#
# Bulk Modulus (GPa) = 48.38740 59.79923 54.09331
# Shear Modulus (GPa) = 8146.99309 26.73376 4086.86342
#
# Velocity S-wave (km/s) = 65.86652 3.77308 46.65101
# Velocity P-wave (km/s) = 76.22531 7.12920 54.13466
#
# Compressibility (1/GPa) = 0.02066654
#
# Stress axis : x y z
#
# Youngs Moduli (GPa) = 75.21673 81.14044 127.07673
#
# Poissons Ratio (x) = 0.06654 0.09794
# Poissons Ratio (y) = 0.06169 0.61253
# Poissons Ratio (z) = 0.05797 0.39111
#
# Static dielectric constant tensor:
#      x y z
#    x 1.677180 0.000000 0.000000 
#    y 0.000000 1.611780 0.000000 
#    z 0.000000 0.000000 1.674600 
# 
# From -- ./inp_files/35895.got.cif
#   From: 2010.05.17/outbox.cif.g08.bks.cpg/sg65_18_cif.got.tgz:35895.got - 2010.06.03 17:01:31.
