data_PCOD9486703
_publ_section_title
;
Structure prediction by ZEFSAII (Michael W. Deem and Ramdas Pophale) SiO2 
 PCOD9486703
Probable space group: C M M M
;
_chemical_formula_sum "Si O2"
_cell_formula_units_Z 80
_cell_length_a 29.244181
_cell_length_b 8.210181
_cell_length_c 19.094980
_cell_angle_alpha 90.000000
_cell_angle_beta 90.000000
_cell_angle_gamma 90.000000
_cell_volume 4584.705065
_symmetry_space_group_name_H-M "C M M M"
_symmetry_group_IT_number 65
_symmetry_cell_setting 'orthorhombic'
loop_
_space_group_symop_operation_xyz
x,y,z
-x,-y,z
x,-y,-z
-x,y,-z
-x,-y,-z
x,y,-z
-x,y,z
x,-y,z
1/2+x,1/2+y,z
1/2-x,1/2-y,z
1/2+x,1/2-y,-z
1/2-x,1/2+y,-z
1/2-x,1/2-y,-z
1/2+x,1/2+y,-z
1/2-x,1/2+y,z
1/2+x,1/2-y,z
loop_
_atom_site_type_symbol
_atom_site_label
_atom_site_fract_x
_atom_site_fract_y
_atom_site_fract_z
Si Si1 0.447986 0.696652 0.651960
Si Si2 0.944266 0.813236 0.500000
Si Si3 0.302728 0.803069 0.577578
Si Si4 0.197278 0.195115 0.847224
Si Si5 0.802873 0.803585 0.000000
Si Si6 0.641637 0.194033 0.287398
O O1 0.500000 0.750806 0.666002
O O2 0.449134 0.500000 0.646551
O O3 0.432650 0.762629 0.575003
O O4 0.410274 0.745869 0.707542
O O5 0.000000 0.820358 0.500000
O O6 0.927404 0.000000 0.500000
O O7 0.318858 0.748393 0.500000
O O8 0.250000 0.750000 0.585008
O O9 0.331621 0.741404 0.643596
O O10 0.304055 0.000000 0.578176
O O11 0.250000 0.250000 0.839243
O O12 0.179484 0.252629 0.923998
O O13 0.167499 0.255275 0.782670
O O14 0.196926 0.000000 0.846919
O O15 0.750000 0.750000 0.000000
O O16 0.805308 0.000000 0.000000
O O17 0.641787 0.000000 0.291383
#
# Coordination Sequence:
#
# PCOD9486703 Si02
#       6
#    16   8  16  16   8  16
#     4   9  18  33  51  70  93 123 162 208 255 299
#     4   7  12  26  47  67  86 111 150 201 251 295
#     4   9  19  34  47  61  87 124 164 202 236 275
#     4  10  19  33  52  75 104 132 163 198 239 288
#     4   8  16  30  50  74  99 130 159 192 236 287
#     4  11  22  32  47  71  99 130 166 203 245 292
#
# _framework density 17.449324000000001
#
# number of rings (size 3 to 8) (size 9 to 14) (size 15 to 20)
#    0.000    2.700    0.000    3.000    1.400    4.400 
#    0.000    0.000    0.000    1.800    0.000    0.700 
#    0.000    5.600    0.000    0.000    0.000    0.000 
#
# Total GULP energy -222933.700790 kJ/mol
# GULP energy per Si atom -5573.342520 kJ/mol
# Density = 1.740961 g / cm^3
# Si number density = 17.449324 Si / 1000 Ang^3
#
#
#
# Elastic Constant Matrix: (Units=GPa)
#
#
# Indices 1 2 3 4 5 6 
#
# 1 85.6029 11.5740 79.0619 0.0000 0.0000 0.0000
# 2 11.5740 19.3934 18.2635 0.0000 0.0000 0.0000
# 3 79.0619 18.2635 152.3838 0.0000 0.0000 0.0000
# 4 0.0000 0.0000 0.0000 20.6669 0.0000 0.0000
# 5 0.0000 0.0000 0.0000 0.0000 14.6282 0.0000
# 6 0.0000 0.0000 0.0000 0.0000 0.0000 18.7463
#
#
#
# Elastic Compliance Matrix: (Units=1/GPa)
#
#
# Indices 1 2 3 4 5 6 
#
# 1 0.022560 -0.002751 -0.011375 0.000000 0.000000 0.000000
# 2 -0.002751 0.058460 -0.005579 0.000000 0.000000 0.000000
# 3 -0.011375 -0.005579 0.013133 0.000000 0.000000 0.000000
# 4 0.000000 0.000000 0.000000 0.048387 0.000000 0.000000
# 5 0.000000 0.000000 0.000000 0.000000 0.068361 0.000000
# 6 0.000000 0.000000 0.000000 0.000000 0.000000 0.053344
#
#
# Mechanical properties :
#
#
# Convention : Reuss Voigt Hill
#
# Bulk Modulus (GPa) = 18.26762 52.79765 35.53264
# Shear Modulus (GPa) = 15.53269 20.70699 18.11984
#
# Velocity S-wave (km/s) = 2.98679 3.44858 3.22596
# Velocity P-wave (km/s) = 4.73141 6.79561 5.85519
#
# Compressibility (1/GPa) = 0.05474168
#
# Stress axis : x y z
#
# Youngs Moduli (GPa) = 44.32702 17.10571 76.14552
#
# Poissons Ratio (x) = 0.04706 0.86615
# Poissons Ratio (y) = 0.12196 0.42482
# Poissons Ratio (z) = 0.50422 0.09543
#
# Static dielectric constant tensor:
#      x y z
#    x 1.580270 0.000000 0.000000 
#    y 0.000000 1.617910 0.000000 
#    z 0.000000 0.000000 1.640690 
# 
# From -- ./inp_files/57283.got.cif
#   From: 2010.05.17/outbox.cif.g08.bks.cpg/sg65_29_cif.got.tgz:57283.got - 2010.06.03 17:01:31.
