data_PCOD9486108
_publ_section_title
;
Structure prediction by ZEFSAII (Michael W. Deem and Ramdas Pophale) SiO2 
 PCOD9486108
Probable space group: C M M M
;
_chemical_formula_sum "Si O2"
_cell_formula_units_Z 104
_cell_length_a 19.306677
_cell_length_b 8.173501
_cell_length_c 36.765672
_cell_angle_alpha 90.000000
_cell_angle_beta 90.000000
_cell_angle_gamma 90.000000
_cell_volume 5801.738624
_symmetry_space_group_name_H-M "C M M M"
_symmetry_group_IT_number 65
_symmetry_cell_setting 'orthorhombic'
loop_
_space_group_symop_operation_xyz
x,y,z
-x,-y,z
x,-y,-z
-x,y,-z
-x,-y,-z
x,y,-z
-x,y,z
x,-y,z
1/2+x,1/2+y,z
1/2-x,1/2-y,z
1/2+x,1/2-y,-z
1/2-x,1/2+y,-z
1/2-x,1/2-y,-z
1/2+x,1/2+y,-z
1/2-x,1/2+y,z
1/2+x,1/2-y,z
loop_
_atom_site_type_symbol
_atom_site_label
_atom_site_fract_x
_atom_site_fract_y
_atom_site_fract_z
Si Si1 0.169640 0.802702 0.686924
Si Si2 0.330215 0.303199 0.233621
Si Si3 0.584346 0.682011 0.912733
Si Si4 0.079490 0.697033 0.459678
Si Si5 0.580359 0.806407 0.834394
Si Si6 0.829674 0.804690 0.391946
Si Si7 0.084546 0.500000 0.042102
O O1 0.250000 0.750000 0.686746
O O2 0.142490 0.747579 0.726360
O O3 0.142177 0.744883 0.647631
O O4 0.165866 0.000000 0.687136
O O5 0.333234 0.500000 0.232182
O O6 0.250000 0.250000 0.230730
O O7 0.374011 0.232662 0.200554
O O8 0.500000 0.684687 0.913375
O O9 0.606367 0.500000 0.924472
O O10 0.604226 0.714062 0.870815
O O11 0.607415 0.834688 0.937307
O O12 0.103061 0.752830 0.500000
O O13 0.078798 0.500000 0.460350
O O14 0.126561 0.749221 0.426350
O O15 0.000000 0.752656 0.454743
O O16 0.500000 0.761492 0.827484
O O17 0.582455 0.000000 0.842317
O O18 0.750000 0.750000 0.395447
O O19 0.830525 0.000000 0.391059
O O20 0.000000 0.500000 0.043146
O O21 0.105283 0.500000 0.000000
#
# Coordination Sequence:
#
# PCOD9486108 Si02
#       7
#    16  16  16  16  16  16   8
#     4   8  16  30  47  68  95 126 159 195 242 291
#     4  10  19  32  50  72  98 129 164 206 250 296
#     4   9  16  27  43  63  90 128 167 203 253 308
#     4   9  19  36  54  71  95 127 160 196 242 292
#     4  10  19  32  49  69  97 133 170 209 253 301
#     4  10  19  32  52  76  99 125 159 199 240 289
#     4   9  16  26  40  62  94 128 164 208 253 303
#
# _framework density 17.925660000000001
#
# number of rings (size 3 to 8) (size 9 to 14) (size 15 to 20)
#    0.000    2.692    0.769    1.846    0.000    3.385 
#    0.000    3.077    0.000    4.615    0.000    0.000 
#    0.000    0.615    0.308    0.000    0.000    0.000 
#
# Total GULP energy -289633.545505 kJ/mol
# GULP energy per Si atom -5569.875875 kJ/mol
# Density = 1.788486 g / cm^3
# Si number density = 17.925660 Si / 1000 Ang^3
#
#
#
# Elastic Constant Matrix: (Units=GPa)
#
#
# Indices 1 2 3 4 5 6 
#
# 1 26.8969 14.8149 44.5900 0.0000 0.0000 0.0000
# 2 14.8149 69.3443 54.3983 0.0000 0.0000 0.0000
# 3 44.5900 54.3983 176.2682 0.0000 0.0000 0.0000
# 4 0.0000 0.0000 0.0000 22.7429 0.0000 0.0000
# 5 0.0000 0.0000 0.0000 0.0000 25.8443 0.0000
# 6 0.0000 0.0000 0.0000 0.0000 0.0000 17.2448
#
#
#
# Elastic Compliance Matrix: (Units=1/GPa)
#
#
# Indices 1 2 3 4 5 6 
#
# 1 0.064119 -0.001286 -0.015823 0.000000 0.000000 0.000000
# 2 -0.001286 0.019053 -0.005555 0.000000 0.000000 0.000000
# 3 -0.015823 -0.005555 0.011390 0.000000 0.000000 0.000000
# 4 0.000000 0.000000 0.000000 0.043970 0.000000 0.000000
# 5 0.000000 0.000000 0.000000 0.000000 0.038693 0.000000
# 6 0.000000 0.000000 0.000000 0.000000 0.000000 0.057989
#
#
# Mechanical properties :
#
#
# Convention : Reuss Voigt Hill
#
# Bulk Modulus (GPa) = 20.31081 55.56843 37.93962
# Shear Modulus (GPa) = 16.83769 23.74682 20.29225
#
# Velocity S-wave (km/s) = 3.06814 3.64364 3.36820
# Velocity P-wave (km/s) = 4.88942 6.98342 6.02804
#
# Compressibility (1/GPa) = 0.04923487
#
# Stress axis : x y z
#
# Youngs Moduli (GPa) = 15.59594 52.48525 87.79515
#
# Poissons Ratio (x) = 0.06749 1.38920
# Poissons Ratio (y) = 0.02005 0.48767
# Poissons Ratio (z) = 0.24678 0.29154
#
# Static dielectric constant tensor:
#      x y z
#    x 1.579460 0.000000 0.000000 
#    y 0.000000 1.635890 0.000000 
#    z 0.000000 0.000000 1.647950 
# 
# From -- ./inp_files/78240.got.cif
#   From: 2010.05.17/outbox.cif.g08.bks.cpg/sg65_40_cif.got.tgz:78240.got - 2010.06.03 17:01:31.
