data_PCOD9486296
_publ_section_title
;
Structure prediction by ZEFSAII (Michael W. Deem and Ramdas Pophale) SiO2 
 PCOD9486296
Probable space group: C M M M
;
_chemical_formula_sum "Si O2"
_cell_formula_units_Z 80
_cell_length_a 19.690374
_cell_length_b 8.676278
_cell_length_c 26.688112
_cell_angle_alpha 90.000000
_cell_angle_beta 90.000000
_cell_angle_gamma 90.000000
_cell_volume 4559.374603
_symmetry_space_group_name_H-M "C M M M"
_symmetry_group_IT_number 65
_symmetry_cell_setting 'orthorhombic'
loop_
_space_group_symop_operation_xyz
x,y,z
-x,-y,z
x,-y,-z
-x,y,-z
-x,-y,-z
x,y,-z
-x,y,z
x,-y,z
1/2+x,1/2+y,z
1/2-x,1/2-y,z
1/2+x,1/2-y,-z
1/2-x,1/2+y,-z
1/2-x,1/2-y,-z
1/2+x,1/2+y,-z
1/2-x,1/2+y,z
1/2+x,1/2-y,z
loop_
_atom_site_type_symbol
_atom_site_label
_atom_site_fract_x
_atom_site_fract_y
_atom_site_fract_z
Si Si1 0.325663 0.685701 0.646552
Si Si2 0.917721 0.680963 0.944977
Si Si3 0.421697 0.312362 0.556060
Si Si4 0.419862 0.682977 0.160416
Si Si5 0.825485 0.683342 0.753803
O O1 0.323845 0.500000 0.647877
O O2 0.250000 0.750000 0.638948
O O3 0.373636 0.737842 0.601096
O O4 0.349223 0.746928 0.700617
O O5 0.900638 0.500000 0.939892
O O6 0.896100 0.771247 0.895559
O O7 0.000000 0.690806 0.945999
O O8 0.893714 0.735087 0.000000
O O9 0.400273 0.263317 0.500000
O O10 0.500000 0.265354 0.563590
O O11 0.420950 0.500000 0.556201
O O12 0.500000 0.724074 0.164775
O O13 0.413779 0.500000 0.167115
O O14 0.375672 0.767991 0.201988
O O15 0.821027 0.500000 0.749658
O O16 0.750000 0.750000 0.763140
#
# Coordination Sequence:
#
# PCOD9486296 Si02
#       5
#    16  16  16  16  16
#     4  10  19  32  51  74  99 128 164 205 248 296
#     4   8  14  26  45  70 101 135 169 206 249 295
#     4   8  15  29  49  73 100 130 164 201 242 289
#     4  10  20  33  51  77 106 134 169 211 252 299
#     4  11  22  37  55  73  99 134 171 211 257 308
#
# _framework density 17.546267
#
# number of rings (size 3 to 8) (size 9 to 14) (size 15 to 20)
#    0.000    2.600    0.000    5.400    0.000    2.800 
#    0.000    4.000    0.000    4.200    0.000    5.600 
#    0.000    0.000    0.000    0.000    0.000    0.000 
#
# Total GULP energy -222990.695526 kJ/mol
# GULP energy per Si atom -5574.767388 kJ/mol
# Density = 1.750633 g / cm^3
# Si number density = 17.546267 Si / 1000 Ang^3
#
#
#
# Elastic Constant Matrix: (Units=GPa)
#
#
# Indices 1 2 3 4 5 6 
#
# 1 42.3971 28.4817 69.9426 0.0000 0.0000 0.0000
# 2 28.4817 67.4254 52.8071 0.0000 0.0000 0.0000
# 3 69.9426 52.8071 169.5520 0.0000 0.0000 0.0000
# 4 0.0000 0.0000 0.0000 24.9463 0.0000 0.0000
# 5 0.0000 0.0000 0.0000 0.0000 -182.9991 0.0000
# 6 0.0000 0.0000 0.0000 0.0000 0.0000 20.0465
#
#
#
# Elastic Compliance Matrix: (Units=1/GPa)
#
#
# Indices 1 2 3 4 5 6 
#
# 1 0.078959 -0.010374 -0.029341 0.000000 0.000000 0.000000
# 2 -0.010374 0.020979 -0.002254 0.000000 0.000000 0.000000
# 3 -0.029341 -0.002254 0.018703 0.000000 0.000000 0.000000
# 4 0.000000 0.000000 0.000000 0.040086 0.000000 0.000000
# 5 0.000000 0.000000 0.000000 0.000000 -0.005465 0.000000
# 6 0.000000 0.000000 0.000000 0.000000 0.000000 0.049884
#
#
# Mechanical properties :
#
#
# Convention : Reuss Voigt Hill
#
# Bulk Modulus (GPa) = 28.81600 64.64859 46.73229
# Shear Modulus (GPa) = 16.74178 -19.05840 -1.15831
#
# Velocity S-wave (km/s) = 3.09228 -3.29930 -0.81338
# Velocity P-wave (km/s) = 5.40446 4.73400 5.08030
#
# Compressibility (1/GPa) = 0.03470294
#
# Stress axis : x y z
#
# Youngs Moduli (GPa) = 12.66477 47.66633 53.46597
#
# Poissons Ratio (x) = 0.49451 1.56873
# Poissons Ratio (y) = 0.13139 0.12053
# Poissons Ratio (z) = 0.37159 0.10746
#
# Static dielectric constant tensor:
#      x y z
#    x 1.576410 0.000000 0.000000 
#    y 0.000000 1.594980 0.000000 
#    z 0.000000 0.000000 1.609740 
# 
# From -- ./inp_files/72845.got.cif
#   From: 2010.05.17/outbox.cif.g08.bks.cpg/sg65_37_cif.got.tgz:72845.got - 2010.06.03 17:01:31.
