data_PCOD9486019
_publ_section_title
;
Structure prediction by ZEFSAII (Michael W. Deem and Ramdas Pophale) SiO2 
 PCOD9486019
Probable space group: C M M M
;
_chemical_formula_sum "Si O2"
_cell_formula_units_Z 48
_cell_length_a 38.893735
_cell_length_b 7.502784
_cell_length_c 7.898852
_cell_angle_alpha 90.000000
_cell_angle_beta 90.000000
_cell_angle_gamma 90.000000
_cell_volume 2304.974213
_symmetry_space_group_name_H-M "C M M M"
_symmetry_group_IT_number 65
_symmetry_cell_setting 'orthorhombic'
loop_
_space_group_symop_operation_xyz
x,y,z
-x,-y,z
x,-y,-z
-x,y,-z
-x,-y,-z
x,y,-z
-x,y,z
x,-y,z
1/2+x,1/2+y,z
1/2-x,1/2-y,z
1/2+x,1/2-y,-z
1/2-x,1/2+y,-z
1/2-x,1/2-y,-z
1/2+x,1/2+y,-z
1/2-x,1/2+y,z
1/2+x,1/2-y,z
loop_
_atom_site_type_symbol
_atom_site_label
_atom_site_fract_x
_atom_site_fract_y
_atom_site_fract_z
Si Si1 0.413375 0.285984 0.190600
Si Si2 0.664277 0.213450 0.309930
Si Si3 0.790293 0.713802 0.000000
Si Si4 0.539592 0.718326 0.500000
O O1 0.416841 0.500000 0.184598
O O2 0.374595 0.247151 0.249461
O O3 0.439852 0.221703 0.333061
O O4 0.418938 0.217694 0.000000
O O5 0.669279 0.284144 0.500000
O O6 0.690482 0.282504 0.167986
O O7 0.668635 0.000000 0.318084
O O8 0.750000 0.750000 0.000000
O O9 0.794814 0.500000 0.000000
O O10 0.540141 0.500000 0.500000
O O11 0.500000 0.773457 0.500000
#
# Coordination Sequence:
#
# PCOD9486019 Si02
#       4
#    16  16   8   8
#     4  10  19  31  52  80 105 135 178 219 258 308
#     4  10  20  35  56  79 104 138 176 213 259 312
#     4  10  22  38  54  78 109 138 171 213 262 313
#     4   9  18  32  49  75 112 143 170 215 268 311
#
# _framework density 20.824527
#
# number of rings (size 3 to 8) (size 9 to 14) (size 15 to 20)
#    0.000    2.167    3.333    0.000    0.000    2.667 
#    0.000    3.333    0.000    2.000    0.000    2.333 
#    0.000    0.000    0.000    0.000    0.000    0.000 
#
# Total GULP energy -134066.676034 kJ/mol
# GULP energy per Si atom -5586.111501 kJ/mol
# Density = 2.077713 g / cm^3
# Si number density = 20.824527 Si / 1000 Ang^3
#
#
#
# Elastic Constant Matrix: (Units=GPa)
#
#
# Indices 1 2 3 4 5 6 
#
# 1 203.7787 -6.4213 143.8417 0.0000 0.0000 0.0000
# 2 -6.4213 57.8751 13.6756 0.0000 0.0000 0.0000
# 3 143.8417 13.6756 279.4109 0.0000 0.0000 0.0000
# 4 0.0000 0.0000 0.0000 5.7522 0.0000 0.0000
# 5 0.0000 0.0000 0.0000 0.0000 39.6351 0.0000
# 6 0.0000 0.0000 0.0000 0.0000 0.0000 16.9995
#
#
#
# Elastic Compliance Matrix: (Units=1/GPa)
#
#
# Indices 1 2 3 4 5 6 
#
# 1 0.007901 0.001859 -0.004159 0.000000 0.000000 0.000000
# 2 0.001859 0.017918 -0.001834 0.000000 0.000000 0.000000
# 3 -0.004159 -0.001834 0.005810 0.000000 0.000000 0.000000
# 4 0.000000 0.000000 0.000000 0.173848 0.000000 0.000000
# 5 0.000000 0.000000 0.000000 0.000000 0.025230 0.000000
# 6 0.000000 0.000000 0.000000 0.000000 0.000000 0.058825
#
#
# Mechanical properties :
#
#
# Convention : Reuss Voigt Hill
#
# Bulk Modulus (GPa) = 42.80412 93.69519 68.24966
# Shear Modulus (GPa) = 16.36197 38.47526 27.41861
#
# Velocity S-wave (km/s) = 2.80609 4.30303 3.63250
# Velocity P-wave (km/s) = 5.57657 8.35335 7.10199
#
# Compressibility (1/GPa) = 0.02336224
#
# Stress axis : x y z
#
# Youngs Moduli (GPa) = 126.56077 55.80890 172.12844
#
# Poissons Ratio (x) = -0.10377 0.71582
# Poissons Ratio (y) = -0.23532 0.31572
# Poissons Ratio (z) = 0.52632 0.10236
#
# Static dielectric constant tensor:
#      x y z
#    x 1.669680 0.000000 0.000000 
#    y 0.000000 1.825680 0.000000 
#    z 0.000000 0.000000 1.758100 
# 
# From -- ./inp_files/3091.got.cif
#   From: 2010.05.17/outbox.cif.g08.bks.cpg/sg65_2_cif.got.tgz:3091.got - 2010.06.03 17:01:31.
