data_PCOD9486281
_publ_section_title
;
Structure prediction by ZEFSAII (Michael W. Deem and Ramdas Pophale) SiO2 
 PCOD9486281
Probable space group: C M M M
;
_chemical_formula_sum "Si O2"
_cell_formula_units_Z 104
_cell_length_a 17.462751
_cell_length_b 17.234997
_cell_length_c 21.328660
_cell_angle_alpha 90.000000
_cell_angle_beta 90.000000
_cell_angle_gamma 90.000000
_cell_volume 6419.296635
_symmetry_space_group_name_H-M "C M M M"
_symmetry_group_IT_number 65
_symmetry_cell_setting 'orthorhombic'
loop_
_space_group_symop_operation_xyz
x,y,z
-x,-y,z
x,-y,-z
-x,y,-z
-x,-y,-z
x,y,-z
-x,y,z
x,-y,z
1/2+x,1/2+y,z
1/2-x,1/2-y,z
1/2+x,1/2-y,-z
1/2-x,1/2+y,-z
1/2-x,1/2-y,-z
1/2+x,1/2+y,-z
1/2-x,1/2+y,z
1/2+x,1/2-y,z
loop_
_atom_site_type_symbol
_atom_site_label
_atom_site_fract_x
_atom_site_fract_y
_atom_site_fract_z
Si Si1 0.797617 0.411705 0.342376
Si Si2 0.180683 0.305373 0.105028
Si Si3 0.589921 0.769459 0.665529
Si Si4 0.093203 0.405778 0.000000
Si Si5 0.190006 0.822069 0.571320
Si Si6 0.772039 0.910333 0.796253
Si Si7 0.589909 0.696848 0.802605
O O1 0.824336 0.500000 0.347366
O O2 0.865198 0.349322 0.345700
O O3 0.736042 0.391350 0.395835
O O4 0.757208 0.401063 0.274884
O O5 0.250000 0.250000 0.078756
O O6 0.134888 0.361887 0.058097
O O7 0.221577 0.357580 0.157956
O O8 0.120962 0.249744 0.140842
O O9 0.500000 0.779649 0.657421
O O10 0.622710 0.706586 0.616758
O O11 0.604502 0.740728 0.736545
O O12 0.105892 0.500000 0.000000
O O13 0.000000 0.394405 0.000000
O O14 0.166664 0.838071 0.500000
O O15 0.250000 0.750000 0.570297
O O16 0.858445 0.879754 0.801045
O O17 0.765313 0.000000 0.813696
O O18 0.500000 0.682255 0.808131
#
# Coordination Sequence:
#
# PCOD9486281 Si02
#       7
#    16  16  16   8  16  16  16
#     4  10  19  32  51  74 104 135 172 216 260 309
#     4  10  20  35  58  79 103 141 179 217 253 303
#     4  10  19  32  51  74 104 135 172 216 260 309
#     4  11  23  38  54  78 117 149 172 208 252 307
#     4   9  18  32  52  73  97 131 175 214 252 310
#     4  10  19  32  52  77 103 136 174 217 261 307
#     4  10  19  32  52  77 103 136 174 217 261 307
#
# _framework density 16.201150999999999
#
# number of rings (size 3 to 8) (size 9 to 14) (size 15 to 20)
#    0.000    2.077    3.077    1.154    0.000    1.231 
#    0.000    0.000    0.000    0.462    0.000    5.385 
#    0.000   11.077    0.000    0.000    0.000    0.000 
#
# Total GULP energy -289820.494673 kJ/mol
# GULP energy per Si atom -5573.471051 kJ/mol
# Density = 1.616428 g / cm^3
# Si number density = 16.201151 Si / 1000 Ang^3
#
#
#
# Elastic Constant Matrix: (Units=GPa)
#
#
# Indices 1 2 3 4 5 6 
#
# 1 58.8699 10.0280 10.5021 0.0000 0.0000 0.0000
# 2 10.0280 24.6297 -4.4228 0.0000 0.0000 0.0000
# 3 10.5021 -4.4228 64.2081 0.0000 0.0000 0.0000
# 4 0.0000 0.0000 0.0000 14.8987 0.0000 0.0000
# 5 0.0000 0.0000 0.0000 0.0000 14.4825 0.0000
# 6 0.0000 0.0000 0.0000 0.0000 0.0000 22.1460
#
#
#
# Elastic Compliance Matrix: (Units=1/GPa)
#
#
# Indices 1 2 3 4 5 6 
#
# 1 0.019084 -0.008435 -0.003702 0.000000 0.000000 0.000000
# 2 -0.008435 0.044838 0.004468 0.000000 0.000000 0.000000
# 3 -0.003702 0.004468 0.016488 0.000000 0.000000 0.000000
# 4 0.000000 0.000000 0.000000 0.067120 0.000000 0.000000
# 5 0.000000 0.000000 0.000000 0.000000 0.069049 0.000000
# 6 0.000000 0.000000 0.000000 0.000000 0.000000 0.045155
#
#
# Mechanical properties :
#
#
# Convention : Reuss Voigt Hill
#
# Bulk Modulus (GPa) = 15.36772 19.99134 17.67953
# Shear Modulus (GPa) = 16.73571 19.07879 17.90725
#
# Velocity S-wave (km/s) = 3.21751 3.43537 3.32822
# Velocity P-wave (km/s) = 4.82797 5.30112 5.07007
#
# Compressibility (1/GPa) = 0.06507147
#
# Stress axis : x y z
#
# Youngs Moduli (GPa) = 52.40012 22.30248 60.65115
#
# Poissons Ratio (x) = 0.18812 0.22456
# Poissons Ratio (y) = 0.44199 -0.27100
# Poissons Ratio (z) = 0.19401 -0.09965
#
# Static dielectric constant tensor:
#      x y z
#    x 1.521760 0.000000 0.000000 
#    y 0.000000 1.525350 0.000000 
#    z 0.000000 0.000000 1.545330 
# 
# From -- ./inp_files/62840.got.cif
#   From: 2010.05.17/outbox.cif.g08.bks.cpg/sg65_32_cif.got.tgz:62840.got - 2010.06.03 17:01:31.
