data_PCOD9486871
_publ_section_title
;
Structure prediction by ZEFSAII (Michael W. Deem and Ramdas Pophale) SiO2 
 PCOD9486871
Probable space group: C M M M
;
_chemical_formula_sum "Si O2"
_cell_formula_units_Z 104
_cell_length_a 20.280491
_cell_length_b 8.048755
_cell_length_c 34.593702
_cell_angle_alpha 90.000000
_cell_angle_beta 90.000000
_cell_angle_gamma 90.000000
_cell_volume 5646.823496
_symmetry_space_group_name_H-M "C M M M"
_symmetry_group_IT_number 65
_symmetry_cell_setting 'orthorhombic'
loop_
_space_group_symop_operation_xyz
x,y,z
-x,-y,z
x,-y,-z
-x,y,-z
-x,-y,-z
x,y,-z
-x,y,z
x,-y,z
1/2+x,1/2+y,z
1/2-x,1/2-y,z
1/2+x,1/2-y,-z
1/2-x,1/2+y,-z
1/2-x,1/2-y,-z
1/2+x,1/2+y,-z
1/2-x,1/2+y,z
1/2+x,1/2-y,z
loop_
_atom_site_type_symbol
_atom_site_label
_atom_site_fract_x
_atom_site_fract_y
_atom_site_fract_z
Si Si1 0.825046 0.299392 0.390456
Si Si2 0.425008 0.800172 0.237818
Si Si3 0.325051 0.200721 0.696978
Si Si4 0.673537 0.801507 0.084343
Si Si5 0.924977 0.802021 0.151763
Si Si6 0.924133 0.297115 0.456390
Si Si7 0.826768 0.700230 0.000000
O O1 0.828576 0.500000 0.390117
O O2 0.750000 0.250000 0.399150
O O3 0.840533 0.241220 0.346747
O O4 0.875159 0.237933 0.423096
O O5 0.500000 0.737342 0.242817
O O6 0.375549 0.737031 0.270635
O O7 0.403835 0.758975 0.194207
O O8 0.427004 0.000000 0.241085
O O9 0.250000 0.250000 0.705768
O O10 0.328207 0.000000 0.696669
O O11 0.750000 0.750000 0.089844
O O12 0.625939 0.746298 0.118557
O O13 0.672899 0.000000 0.083261
O O14 0.648920 0.739203 0.041935
O O15 0.000000 0.738252 0.144683
O O16 0.927983 0.000000 0.153171
O O17 0.905429 0.245554 0.500000
O O18 0.923046 0.500000 0.456048
O O19 0.000000 0.247687 0.449462
O O20 0.750000 0.750000 0.000000
O O21 0.832801 0.500000 0.000000
#
# Coordination Sequence:
#
# PCOD9486871 Si02
#       7
#    16  16  16  16  16  16   8
#     4   9  17  29  45  66  92 120 150 186 229 276
#     4   9  18  33  51  69  90 119 156 196 238 283
#     4   9  18  31  47  68  93 120 150 188 233 279
#     4  10  19  33  54  78 103 131 165 203 243 287
#     4  10  21  36  52  72 100 132 165 201 242 288
#     4   8  14  25  42  65  91 118 151 191 230 267
#     4   8  16  30  49  74 101 129 161 199 241 284
#
# _framework density 18.417434
#
# number of rings (size 3 to 8) (size 9 to 14) (size 15 to 20)
#    0.000    2.923    0.000    1.385    0.000    3.692 
#    0.000    5.000    0.000    2.769    0.000    5.385 
#    0.000    0.000    0.000    0.000    0.000    0.000 
#
# Total GULP energy -289760.349398 kJ/mol
# GULP energy per Si atom -5572.314411 kJ/mol
# Density = 1.837552 g / cm^3
# Si number density = 18.417434 Si / 1000 Ang^3
#
#
#
# Elastic Constant Matrix: (Units=GPa)
#
#
# Indices 1 2 3 4 5 6 
#
# 1 102.4776 7.0470 129.6804 0.0000 0.0000 0.0000
# 2 7.0470 14.5656 11.0084 0.0000 0.0000 0.0000
# 3 129.6804 11.0084 206.2287 0.0000 0.0000 0.0000
# 4 0.0000 0.0000 0.0000 9.9291 0.0000 0.0000
# 5 0.0000 0.0000 0.0000 0.0000 215.1758 0.0000
# 6 0.0000 0.0000 0.0000 0.0000 0.0000 21.5387
#
#
#
# Elastic Compliance Matrix: (Units=1/GPa)
#
#
# Indices 1 2 3 4 5 6 
#
# 1 0.047776 -0.000426 -0.030020 0.000000 0.000000 0.000000
# 2 -0.000426 0.071545 -0.003551 0.000000 0.000000 0.000000
# 3 -0.030020 -0.003551 0.023915 0.000000 0.000000 0.000000
# 4 0.000000 0.000000 0.000000 0.100714 0.000000 0.000000
# 5 0.000000 0.000000 0.000000 0.000000 0.004647 0.000000
# 6 0.000000 0.000000 0.000000 0.000000 0.000000 0.046428
#
#
# Mechanical properties :
#
#
# Convention : Reuss Voigt Hill
#
# Bulk Modulus (GPa) = 13.29033 68.74928 41.01980
# Shear Modulus (GPa) = 12.88327 61.03113 36.95720
#
# Velocity S-wave (km/s) = 2.64770 5.76278 4.48442
# Velocity P-wave (km/s) = 4.07173 9.03819 7.00956
#
# Compressibility (1/GPa) = 0.07524267
#
# Stress axis : x y z
#
# Youngs Moduli (GPa) = 20.93107 13.97722 41.81400
#
# Poissons Ratio (x) = 0.00595 1.25524
# Poissons Ratio (y) = 0.00892 0.14849
# Poissons Ratio (z) = 0.62834 0.04964
#
# Static dielectric constant tensor:
#      x y z
#    x 1.614740 0.000000 0.000000 
#    y 0.000000 1.657500 0.000000 
#    z 0.000000 0.000000 1.654940 
# 
# From -- ./inp_files/78193.got.cif
#   From: 2010.05.17/outbox.cif.g08.bks.cpg/sg65_40_cif.got.tgz:78193.got - 2010.06.03 17:01:31.
