data_PCOD9486755
_publ_section_title
;
Structure prediction by ZEFSAII (Michael W. Deem and Ramdas Pophale) SiO2 
 PCOD9486755
Probable space group: C M M M
;
_chemical_formula_sum "Si O2"
_cell_formula_units_Z 68
_cell_length_a 7.513363
_cell_length_b 14.600798
_cell_length_c 24.138927
_cell_angle_alpha 90.000000
_cell_angle_beta 90.000000
_cell_angle_gamma 90.000000
_cell_volume 2648.066735
_symmetry_space_group_name_H-M "C M M M"
_symmetry_group_IT_number 65
_symmetry_cell_setting 'orthorhombic'
loop_
_space_group_symop_operation_xyz
x,y,z
-x,-y,z
x,-y,-z
-x,y,-z
-x,-y,-z
x,y,-z
-x,y,z
x,-y,z
1/2+x,1/2+y,z
1/2-x,1/2-y,z
1/2+x,1/2-y,-z
1/2-x,1/2+y,-z
1/2-x,1/2-y,-z
1/2+x,1/2+y,-z
1/2-x,1/2+y,z
1/2+x,1/2-y,z
loop_
_atom_site_type_symbol
_atom_site_label
_atom_site_fract_x
_atom_site_fract_y
_atom_site_fract_z
Si Si1 0.303114 0.105735 0.077882
Si Si2 0.000000 0.178263 0.000000
Si Si3 0.286365 0.640666 0.321048
Si Si4 0.288084 0.358332 0.201332
Si Si5 0.713788 0.640597 0.559666
O O1 0.500000 0.137365 0.061335
O O2 0.290778 0.106644 0.144266
O O3 0.154000 0.163498 0.048188
O O4 0.279507 0.000000 0.060937
O O5 0.500000 0.627301 0.320897
O O6 0.250000 0.750000 0.321133
O O7 0.221443 0.606654 0.261217
O O8 0.218961 0.606184 0.380675
O O9 0.500000 0.374306 0.198948
O O10 0.250000 0.250000 0.201176
O O11 0.781051 0.606233 0.500000
O O12 0.500000 0.626990 0.559689
O O13 0.750000 0.750000 0.559653
#
# Coordination Sequence:
#
# PCOD9486755 Si02
#       5
#    16   4  16  16  16
#     4  11  23  39  62  87 109 137 175 214 257 313
#     4  12  23  42  66  86 110 140 169 208 263 316
#     4   8  14  23  37  59  86 125 166 202 250 300
#     4  10  19  33  53  75 108 143 177 219 262 312
#     4   8  12  18  29  48  78 115 158 203 244 290
#
# _framework density 25.679112
#
# number of rings (size 3 to 8) (size 9 to 14) (size 15 to 20)
#    0.000    2.588    1.176    2.118    0.000    1.882 
#    0.000    0.588    0.000    0.000    0.000    0.000 
#    0.000    0.941    0.000   11.765    0.000    6.118 
#
# Total GULP energy -189531.030029 kJ/mol
# GULP energy per Si atom -5574.442060 kJ/mol
# Density = 2.562067 g / cm^3
# Si number density = 25.679112 Si / 1000 Ang^3
#
#
#
# Elastic Constant Matrix: (Units=GPa)
#
#
# Indices 1 2 3 4 5 6 
#
# 1 144.6509 11.6368 42.1320 0.0000 0.0000 0.0000
# 2 11.6368 101.2060 14.4165 0.0000 0.0000 0.0000
# 3 42.1320 14.4165 334.8661 0.0000 0.0000 0.0000
# 4 0.0000 0.0000 0.0000 674.1413 0.0000 0.0000
# 5 0.0000 0.0000 0.0000 0.0000 45.3167 0.0000
# 6 0.0000 0.0000 0.0000 0.0000 0.0000 -6.5904
#
#
#
# Elastic Compliance Matrix: (Units=1/GPa)
#
#
# Indices 1 2 3 4 5 6 
#
# 1 0.007226 -0.000706 -0.000879 0.000000 0.000000 0.000000
# 2 -0.000706 0.010011 -0.000342 0.000000 0.000000 0.000000
# 3 -0.000879 -0.000342 0.003112 0.000000 0.000000 0.000000
# 4 0.000000 0.000000 0.000000 0.001483 0.000000 0.000000
# 5 0.000000 0.000000 0.000000 0.000000 0.022067 0.000000
# 6 0.000000 0.000000 0.000000 0.000000 0.000000 -0.151735
#
#
# Mechanical properties :
#
#
# Convention : Reuss Voigt Hill
#
# Bulk Modulus (GPa) = 60.62461 79.67708 70.15085
# Shear Modulus (GPa) = -50.76928 176.74268 62.98670
#
# Velocity S-wave (km/s) = -4.45124 8.30523 4.95799
# Velocity P-wave (km/s) = 1.66082 11.09344 7.75584
#
# Compressibility (1/GPa) = 0.01649495
#
# Stress axis : x y z
#
# Youngs Moduli (GPa) = 138.39069 99.89289 321.38177
#
# Poissons Ratio (x) = 0.07049 0.28242
# Poissons Ratio (y) = 0.09766 0.10997
# Poissons Ratio (z) = 0.12161 0.03418
#
# Static dielectric constant tensor:
#      x y z
#    x 1.929770 0.000000 0.000000 
#    y 0.000000 2.036060 0.000000 
#    z 0.000000 0.000000 2.070470 
# 
# From -- ./inp_files/67062.got.cif
#   From: 2010.05.17/outbox.cif.g08.bks.cpg/sg65_34_cif.got.tgz:67062.got - 2010.06.03 17:01:31.
