data_PCOD9486612
_publ_section_title
;
Structure prediction by ZEFSAII (Michael W. Deem and Ramdas Pophale) SiO2 
 PCOD9486612
Probable space group: C M M M
;
_chemical_formula_sum "Si O2"
_cell_formula_units_Z 72
_cell_length_a 22.530957
_cell_length_b 17.145379
_cell_length_c 8.076585
_cell_angle_alpha 90.000000
_cell_angle_beta 90.000000
_cell_angle_gamma 90.000000
_cell_volume 3119.999299
_symmetry_space_group_name_H-M "C M M M"
_symmetry_group_IT_number 65
_symmetry_cell_setting 'orthorhombic'
loop_
_space_group_symop_operation_xyz
x,y,z
-x,-y,z
x,-y,-z
-x,y,-z
-x,-y,-z
x,y,-z
-x,y,z
x,-y,z
1/2+x,1/2+y,z
1/2-x,1/2-y,z
1/2+x,1/2-y,-z
1/2-x,1/2+y,-z
1/2-x,1/2-y,-z
1/2+x,1/2+y,-z
1/2-x,1/2+y,z
1/2+x,1/2-y,z
loop_
_atom_site_type_symbol
_atom_site_label
_atom_site_fract_x
_atom_site_fract_y
_atom_site_fract_z
Si Si1 0.068380 0.302294 0.000000
Si Si2 0.000000 0.091207 0.200560
Si Si3 0.305195 0.809744 0.000000
Si Si4 0.371814 0.591252 0.199686
Si Si5 0.251643 0.843527 0.678800
Si Si6 0.928926 0.412148 0.317993
O O1 0.133200 0.261267 0.000000
O O2 0.076018 0.354788 0.836502
O O3 0.000000 0.269881 0.000000
O O4 0.063608 0.126055 0.250131
O O5 0.000000 0.000000 0.252306
O O6 0.000000 0.089567 0.000000
O O7 0.250000 0.750000 0.000000
O O8 0.294574 0.859988 0.166126
O O9 0.371934 0.500000 0.248035
O O10 0.314700 0.630157 0.277703
O O11 0.367770 0.591785 0.000000
O O12 0.268994 0.876360 0.500000
O O13 0.250000 0.750000 0.665327
O O14 0.907867 0.384242 0.500000
O O15 0.905632 0.500000 0.287271
O O16 0.000000 0.419717 0.331546
#
# Coordination Sequence:
#
# PCOD9486612 Si02
#       6
#     8   8   8  16  16  16
#     4  10  19  32  56  85 105 135 190 240 275 332
#     4   7  12  24  47  83 125 160 192 237 303 367
#     4  10  22  41  61  76 107 150 191 240 304 357
#     4   9  16  30  56  90 126 162 201 248 302 363
#     4  10  21  38  61  81 107 156 208 246 295 360
#     4   8  14  26  46  76 115 149 172 207 269 337
#
# _framework density 23.076930000000001
#
# number of rings (size 3 to 8) (size 9 to 14) (size 15 to 20)
#    0.000    3.000    1.111    2.333    0.000    2.667 
#    0.000    2.778    9.778    2.000    0.000    0.000 
#    0.000    0.000    0.000    0.000    1.333    0.000 
#
# Total GULP energy -200616.024691 kJ/mol
# GULP energy per Si atom -5572.667353 kJ/mol
# Density = 2.302441 g / cm^3
# Si number density = 23.076930 Si / 1000 Ang^3
#
#
#
# Elastic Constant Matrix: (Units=GPa)
#
#
# Indices 1 2 3 4 5 6 
#
# 1 214.5581 31.5066 30.3675 0.0000 0.0000 0.0000
# 2 31.5066 45.2597 13.0951 0.0000 0.0000 0.0000
# 3 30.3675 13.0951 127.1353 0.0000 0.0000 0.0000
# 4 0.0000 0.0000 0.0000 100.6682 0.0000 0.0000
# 5 0.0000 0.0000 0.0000 0.0000 -11.0218 0.0000
# 6 0.0000 0.0000 0.0000 0.0000 0.0000 35.4245
#
#
#
# Elastic Compliance Matrix: (Units=1/GPa)
#
#
# Indices 1 2 3 4 5 6 
#
# 1 0.005292 -0.003420 -0.000912 0.000000 0.000000 0.000000
# 2 -0.003420 0.024984 -0.001756 0.000000 0.000000 0.000000
# 3 -0.000912 -0.001756 0.008264 0.000000 0.000000 0.000000
# 4 0.000000 0.000000 0.000000 0.009934 0.000000 0.000000
# 5 0.000000 0.000000 0.000000 0.000000 -0.090729 0.000000
# 6 0.000000 0.000000 0.000000 0.000000 0.000000 0.028229
#
#
# Mechanical properties :
#
#
# Convention : Reuss Voigt Hill
#
# Bulk Modulus (GPa) = 37.93130 59.65460 48.79295
# Shear Modulus (GPa) = 720.67370 45.81311 383.24341
#
# Velocity S-wave (km/s) = 17.69095 4.46043 12.90088
# Velocity P-wave (km/s) = 20.82704 7.24111 15.59165
#
# Compressibility (1/GPa) = 0.02636345
#
# Stress axis : x y z
#
# Youngs Moduli (GPa) = 188.96393 40.02602 121.00182
#
# Poissons Ratio (x) = 0.13689 0.11033
# Poissons Ratio (y) = 0.64628 0.21253
# Poissons Ratio (z) = 0.17229 0.07030
#
# Static dielectric constant tensor:
#      x y z
#    x 1.910390 0.000000 0.000000 
#    y 0.000000 2.008730 0.000000 
#    z 0.000000 0.000000 1.937000 
# 
# From -- ./inp_files/11343.got.cif
#   From: 2010.05.17/outbox.cif.g08.bks.cpg/sg65_6_cif.got.tgz:11343.got - 2010.06.03 17:01:31.
