data_PCOD9486958
_publ_section_title
;
Structure prediction by ZEFSAII (Michael W. Deem and Ramdas Pophale) SiO2 
 PCOD9486958
Probable space group: C M M M
;
_chemical_formula_sum "Si O2"
_cell_formula_units_Z 112
_cell_length_a 13.193941
_cell_length_b 12.916729
_cell_length_c 30.591414
_cell_angle_alpha 90.000000
_cell_angle_beta 90.000000
_cell_angle_gamma 90.000000
_cell_volume 5213.467098
_symmetry_space_group_name_H-M "C M M M"
_symmetry_group_IT_number 65
_symmetry_cell_setting 'orthorhombic'
loop_
_space_group_symop_operation_xyz
x,y,z
-x,-y,z
x,-y,-z
-x,y,-z
-x,-y,-z
x,y,-z
-x,y,z
x,-y,z
1/2+x,1/2+y,z
1/2-x,1/2-y,z
1/2+x,1/2-y,-z
1/2-x,1/2+y,-z
1/2-x,1/2-y,-z
1/2+x,1/2+y,-z
1/2-x,1/2+y,z
1/2+x,1/2-y,z
loop_
_atom_site_type_symbol
_atom_site_label
_atom_site_fract_x
_atom_site_fract_y
_atom_site_fract_z
Si Si1 0.678922 0.617830 0.356570
Si Si2 0.387831 0.166691 0.215163
Si Si3 0.111650 0.335277 0.948890
Si Si4 0.831683 0.886476 0.080883
Si Si5 0.612216 0.172714 0.682032
Si Si6 0.118573 0.125223 0.452642
Si Si7 0.330939 0.613405 0.183603
O O1 0.639844 0.500000 0.352340
O O2 0.625849 0.703872 0.326319
O O3 0.796389 0.620665 0.343536
O O4 0.667486 0.654342 0.406735
O O5 0.500000 0.132278 0.200965
O O6 0.376869 0.147147 0.266771
O O7 0.378966 0.290249 0.208274
O O8 0.290781 0.121481 0.190353
O O9 0.122074 0.210969 0.943987
O O10 0.209775 0.379154 0.924749
O O11 0.000000 0.366633 0.932957
O O12 0.119739 0.362605 0.000000
O O13 0.854459 0.875500 0.132260
O O14 0.865150 0.000000 0.065944
O O15 0.500000 0.141984 0.667764
O O16 0.158059 0.161944 0.500000
O O17 0.000000 0.153724 0.450170
O O18 0.123599 0.000000 0.453663
O O19 0.364302 0.500000 0.198491
#
# Coordination Sequence:
#
# PCOD9486958 Si02
#       7
#    16  16  16  16  16  16  16
#     4  10  19  33  55  76  99 136 174 210 255 306
#     4  10  21  37  55  74 103 140 171 209 260 308
#     4  10  21  36  55  79 106 139 177 212 250 302
#     4  10  21  36  55  79 107 137 169 212 262 306
#     4  10  22  36  50  76 108 134 169 215 259 306
#     4   8  14  26  47  76 105 132 168 213 257 303
#     4  10  21  36  55  80 105 132 172 216 257 306
#
# _framework density 21.482824999999998
#
# number of rings (size 3 to 8) (size 9 to 14) (size 15 to 20)
#    0.000    2.286    0.000    5.143    0.000    8.000 
#    0.000    8.571    0.000    1.286    0.000    2.000 
#    0.000    0.000    0.000    0.000    0.000    0.000 
#
# Total GULP energy -312715.919038 kJ/mol
# GULP energy per Si atom -5584.212840 kJ/mol
# Density = 2.143393 g / cm^3
# Si number density = 21.482825 Si / 1000 Ang^3
#
#
#
# Elastic Constant Matrix: (Units=GPa)
#
#
# Indices 1 2 3 4 5 6 
#
# 1 81.2376 -14.5772 6.8095 0.0000 0.0000 0.0000
# 2 -14.5772 73.9450 -4.8709 0.0000 0.0000 0.0000
# 3 6.8095 -4.8709 47.0978 0.0000 0.0000 0.0000
# 4 0.0000 0.0000 0.0000 21.6780 0.0000 0.0000
# 5 0.0000 0.0000 0.0000 0.0000 131.2261 0.0000
# 6 0.0000 0.0000 0.0000 0.0000 0.0000 -2.1998
#
#
#
# Elastic Compliance Matrix: (Units=1/GPa)
#
#
# Indices 1 2 3 4 5 6 
#
# 1 0.012881 0.002433 -0.001611 0.000000 0.000000 0.000000
# 2 0.002433 0.014076 0.001104 0.000000 0.000000 0.000000
# 3 -0.001611 0.001104 0.021579 0.000000 0.000000 0.000000
# 4 0.000000 0.000000 0.000000 0.046130 0.000000 0.000000
# 5 0.000000 0.000000 0.000000 0.000000 0.007620 0.000000
# 6 0.000000 0.000000 0.000000 0.000000 0.000000 -0.454578
#
#
# Mechanical properties :
#
#
# Convention : Reuss Voigt Hill
#
# Bulk Modulus (GPa) = 19.08777 19.66701 19.37739
# Shear Modulus (GPa) = -14.76313 44.46880 14.85283
#
# Velocity S-wave (km/s) = -2.62431 4.55463 2.63227
# Velocity P-wave (km/s) = 0.52747 6.06911 4.27527
#
# Compressibility (1/GPa) = 0.05238956
#
# Stress axis : x y z
#
# Youngs Moduli (GPa) = 77.63250 71.04313 46.34034
#
# Poissons Ratio (x) = -0.17287 0.07464
# Poissons Ratio (y) = -0.18890 -0.05116
# Poissons Ratio (z) = 0.12505 -0.07843
#
# Static dielectric constant tensor:
#      x y z
#    x 1.785560 0.000000 0.000000 
#    y 0.000000 1.816040 0.000000 
#    z 0.000000 0.000000 1.745120 
# 
# From -- ./inp_files/74887.got.cif
#   From: 2010.05.17/outbox.cif.g08.bks.cpg/sg65_38_cif.got.tgz:74887.got - 2010.06.03 17:01:31.
