data_PCOD9486838
_publ_section_title
;
Structure prediction by ZEFSAII (Michael W. Deem and Ramdas Pophale) SiO2 
 PCOD9486838
Probable space group: C M M M
;
_chemical_formula_sum "Si O2"
_cell_formula_units_Z 80
_cell_length_a 7.482951
_cell_length_b 30.472127
_cell_length_c 16.694031
_cell_angle_alpha 90.000000
_cell_angle_beta 90.000000
_cell_angle_gamma 90.000000
_cell_volume 3806.596875
_symmetry_space_group_name_H-M "C M M M"
_symmetry_group_IT_number 65
_symmetry_cell_setting 'orthorhombic'
loop_
_space_group_symop_operation_xyz
x,y,z
-x,-y,z
x,-y,-z
-x,y,-z
-x,-y,-z
x,y,-z
-x,y,z
x,-y,z
1/2+x,1/2+y,z
1/2-x,1/2-y,z
1/2+x,1/2-y,-z
1/2-x,1/2+y,-z
1/2-x,1/2-y,-z
1/2+x,1/2+y,-z
1/2-x,1/2+y,z
1/2+x,1/2-y,z
loop_
_atom_site_type_symbol
_atom_site_label
_atom_site_fract_x
_atom_site_fract_y
_atom_site_fract_z
Si Si1 0.715955 0.673574 0.000000
Si Si2 0.286386 0.429509 0.000000
Si Si3 0.717655 0.450436 0.593431
Si Si4 0.299301 0.622245 0.715596
Si Si5 0.293870 0.046983 0.175408
Si Si6 0.714179 0.699994 0.823107
O O1 0.781284 0.692587 0.085304
O O2 0.500000 0.679010 0.000000
O O3 0.756837 0.622047 0.000000
O O4 0.213527 0.450264 0.919680
O O5 0.500000 0.434403 0.000000
O O6 0.761760 0.444513 0.500000
O O7 0.500000 0.450777 0.600257
O O8 0.777743 0.500000 0.616502
O O9 0.781345 0.409253 0.646637
O O10 0.500000 0.634168 0.688306
O O11 0.307617 0.588002 0.788995
O O12 0.215939 0.665326 0.756898
O O13 0.500000 0.050059 0.200696
O O14 0.219515 0.000000 0.201377
O O15 0.500000 0.692561 0.826159
O O16 0.750000 0.750000 0.800381
#
# Coordination Sequence:
#
# PCOD9486838 Si02
#       6
#     8   8  16  16  16  16
#     4   9  17  33  51  69  94 121 161 215 257 293
#     4  11  20  35  54  70  94 132 176 218 251 293
#     4   8  14  26  48  80 110 131 160 206 253 296
#     4  10  19  33  54  76 100 132 171 212 254 304
#     4  11  23  35  47  70 105 138 169 208 253 302
#     4  10  20  34  51  72  97 127 167 215 260 306
#
# _framework density 21.016148000000001
#
# number of rings (size 3 to 8) (size 9 to 14) (size 15 to 20)
#    0.000    2.200    2.000    2.700    0.000    4.400 
#    0.000    0.000    0.000    1.200    0.000    2.800 
#    0.000    0.000    0.000    0.000    0.000    0.000 
#
# Total GULP energy -223206.854711 kJ/mol
# GULP energy per Si atom -5580.171368 kJ/mol
# Density = 2.096831 g / cm^3
# Si number density = 21.016148 Si / 1000 Ang^3
#
#
#
# Elastic Constant Matrix: (Units=GPa)
#
#
# Indices 1 2 3 4 5 6 
#
# 1 64.9633 8.1916 -2.8563 0.0000 0.0000 0.0000
# 2 8.1916 180.4019 73.5940 0.0000 0.0000 0.0000
# 3 -2.8563 73.5940 140.1829 0.0000 0.0000 0.0000
# 4 0.0000 0.0000 0.0000 12.2941 0.0000 0.0000
# 5 0.0000 0.0000 0.0000 0.0000 -5.2997 0.0000
# 6 0.0000 0.0000 0.0000 0.0000 0.0000 -15.2602
#
#
#
# Elastic Compliance Matrix: (Units=1/GPa)
#
#
# Indices 1 2 3 4 5 6 
#
# 1 0.015566 -0.001064 0.000876 0.000000 0.000000 0.000000
# 2 -0.001064 0.007127 -0.003763 0.000000 0.000000 0.000000
# 3 0.000876 -0.003763 0.009127 0.000000 0.000000 0.000000
# 4 0.000000 0.000000 0.000000 0.081340 0.000000 0.000000
# 5 0.000000 0.000000 0.000000 0.000000 -0.188690 0.000000
# 6 0.000000 0.000000 0.000000 0.000000 0.000000 -0.065530
#
#
# Mechanical properties :
#
#
# Convention : Reuss Voigt Hill
#
# Bulk Modulus (GPa) = 41.81152 60.37851 51.09501
# Shear Modulus (GPa) = -39.94051 18.78810 -10.57620
#
# Velocity S-wave (km/s) = -4.36417 2.99320 -2.24574
# Velocity P-wave (km/s) = 2.33590 6.38260 4.20007
#
# Compressibility (1/GPa) = 0.02391686
#
# Stress axis : x y z
#
# Youngs Moduli (GPa) = 64.24259 140.31915 109.56590
#
# Poissons Ratio (x) = 0.14931 -0.09596
# Poissons Ratio (y) = 0.06836 0.41230
# Poissons Ratio (z) = -0.05626 0.52803
#
# Static dielectric constant tensor:
#      x y z
#    x 1.815450 0.000000 0.000000 
#    y 0.000000 1.743520 0.000000 
#    z 0.000000 0.000000 1.766200 
# 
# From -- ./inp_files/50185.got.cif
#   From: 2010.05.17/outbox.cif.g08.bks.cpg/sg65_26_cif.got.tgz:50185.got - 2010.06.03 17:01:31.
