data_PCOD9486930
_publ_section_title
;
Structure prediction by ZEFSAII (Michael W. Deem and Ramdas Pophale) SiO2 
 PCOD9486930
Probable space group: C M M M
;
_chemical_formula_sum "Si O2"
_cell_formula_units_Z 80
_cell_length_a 19.481070
_cell_length_b 10.018810
_cell_length_c 23.619074
_cell_angle_alpha 90.000000
_cell_angle_beta 90.000000
_cell_angle_gamma 90.000000
_cell_volume 4609.903287
_symmetry_space_group_name_H-M "C M M M"
_symmetry_group_IT_number 65
_symmetry_cell_setting 'orthorhombic'
loop_
_space_group_symop_operation_xyz
x,y,z
-x,-y,z
x,-y,-z
-x,y,-z
-x,-y,-z
x,y,-z
-x,y,z
x,-y,z
1/2+x,1/2+y,z
1/2-x,1/2-y,z
1/2+x,1/2-y,-z
1/2-x,1/2+y,-z
1/2-x,1/2-y,-z
1/2+x,1/2+y,-z
1/2-x,1/2+y,z
1/2+x,1/2-y,z
loop_
_atom_site_type_symbol
_atom_site_label
_atom_site_fract_x
_atom_site_fract_y
_atom_site_fract_z
Si Si1 0.581751 0.848918 0.932507
Si Si2 0.816278 0.157405 0.869613
Si Si3 0.184168 0.842511 0.265686
Si Si4 0.916962 0.000000 0.563201
Si Si5 0.082514 0.247239 0.359121
Si Si6 0.416547 0.000000 0.434310
O O1 0.500000 0.838702 0.923313
O O2 0.621734 0.731894 0.901023
O O3 0.603095 0.000000 0.914391
O O4 0.593746 0.839855 0.000000
O O5 0.750000 0.250000 0.882282
O O6 0.827427 0.162803 0.801848
O O7 0.808080 0.000000 0.884973
O O8 0.250000 0.750000 0.278275
O O9 0.121522 0.779863 0.300885
O O10 0.193752 0.000000 0.280275
O O11 0.898441 0.127059 0.599408
O O12 0.888984 0.000000 0.500000
O O13 0.000000 0.000000 0.559086
O O14 0.103087 0.375108 0.395709
O O15 0.000000 0.249808 0.350367
O O16 0.500000 0.000000 0.437899
O O17 0.392461 0.000000 0.500000
#
# Coordination Sequence:
#
# PCOD9486930 Si02
#       6
#    16  16  16   8  16   8
#     4   9  19  37  59  84 116 150 182 221 271 322
#     4  10  21  37  57  81 109 145 189 231 272 321
#     4  10  22  38  56  77 107 144 179 222 272 321
#     4   9  16  28  51  79 103 131 170 217 266 315
#     4  10  19  33  54  80 106 135 176 221 265 317
#     4   9  18  32  51  79 111 137 168 217 270 317
#
# _framework density 17.353943000000001
#
# number of rings (size 3 to 8) (size 9 to 14) (size 15 to 20)
#    0.000    2.400    1.000    1.800    1.400    5.200 
#    0.000    3.000    0.000    3.600    0.000    0.000 
#    0.000    0.000    0.000    0.000    0.000    0.000 
#
# Total GULP energy -222835.923537 kJ/mol
# GULP energy per Si atom -5570.898088 kJ/mol
# Density = 1.731444 g / cm^3
# Si number density = 17.353943 Si / 1000 Ang^3
#
#
#
# Elastic Constant Matrix: (Units=GPa)
#
#
# Indices 1 2 3 4 5 6 
#
# 1 57.5111 56.7902 42.7687 0.0000 0.0000 0.0000
# 2 56.7902 183.4575 55.9101 0.0000 0.0000 0.0000
# 3 42.7687 55.9101 43.6949 0.0000 0.0000 0.0000
# 4 0.0000 0.0000 0.0000 38.7592 0.0000 0.0000
# 5 0.0000 0.0000 0.0000 0.0000 159.3205 0.0000
# 6 0.0000 0.0000 0.0000 0.0000 0.0000 34.0417
#
#
#
# Elastic Compliance Matrix: (Units=1/GPa)
#
#
# Indices 1 2 3 4 5 6 
#
# 1 0.064058 -0.001182 -0.061188 0.000000 0.000000 0.000000
# 2 -0.001182 0.008957 -0.010304 0.000000 0.000000 0.000000
# 3 -0.061188 -0.010304 0.095962 0.000000 0.000000 0.000000
# 4 0.000000 0.000000 0.000000 0.025800 0.000000 0.000000
# 5 0.000000 0.000000 0.000000 0.000000 0.006277 0.000000
# 6 0.000000 0.000000 0.000000 0.000000 0.000000 0.029376
#
#
# Mechanical properties :
#
#
# Convention : Reuss Voigt Hill
#
# Bulk Modulus (GPa) = 42.32126 66.17795 54.24961
# Shear Modulus (GPa) = 13.03255 55.03723 34.03489
#
# Velocity S-wave (km/s) = 2.74338 5.63768 4.43337
# Velocity P-wave (km/s) = 5.87154 8.97747 7.58518
#
# Compressibility (1/GPa) = 0.02362878
#
# Stress axis : x y z
#
# Youngs Moduli (GPa) = 15.61075 111.64484 10.42081
#
# Poissons Ratio (x) = 0.13197 0.63763
# Poissons Ratio (y) = 0.01845 0.10738
# Poissons Ratio (z) = 0.95519 1.15039
#
# Static dielectric constant tensor:
#      x y z
#    x 1.581300 0.000000 0.000000 
#    y 0.000000 1.507710 0.000000 
#    z 0.000000 0.000000 1.575150 
# 
# From -- ./inp_files/70849.got.cif
#   From: 2010.05.17/outbox.cif.g08.bks.cpg/sg65_36_cif.got.tgz:70849.got - 2010.06.03 17:01:31.
