data_PCOD9486363
_publ_section_title
;
Structure prediction by ZEFSAII (Michael W. Deem and Ramdas Pophale) SiO2 
 PCOD9486363
Probable space group: C M M M
;
_chemical_formula_sum "Si O2"
_cell_formula_units_Z 96
_cell_length_a 20.506926
_cell_length_b 30.675003
_cell_length_c 7.690443
_cell_angle_alpha 90.000000
_cell_angle_beta 90.000000
_cell_angle_gamma 90.000000
_cell_volume 4837.673297
_symmetry_space_group_name_H-M "C M M M"
_symmetry_group_IT_number 65
_symmetry_cell_setting 'orthorhombic'
loop_
_space_group_symop_operation_xyz
x,y,z
-x,-y,z
x,-y,-z
-x,y,-z
-x,-y,-z
x,y,-z
-x,y,z
x,-y,z
1/2+x,1/2+y,z
1/2-x,1/2-y,z
1/2+x,1/2-y,-z
1/2-x,1/2+y,-z
1/2-x,1/2-y,-z
1/2+x,1/2+y,-z
1/2-x,1/2+y,z
1/2+x,1/2-y,z
loop_
_atom_site_type_symbol
_atom_site_label
_atom_site_fract_x
_atom_site_fract_y
_atom_site_fract_z
Si Si1 0.069616 0.448866 0.209142
Si Si2 0.711228 0.049438 0.707344
Si Si3 0.283426 0.204884 0.795319
Si Si4 0.927815 0.170228 0.287560
Si Si5 0.801263 0.876419 0.297668
Si Si6 0.427253 0.228433 0.710018
O O1 0.070079 0.500000 0.263247
O O2 0.138882 0.430801 0.266526
O O3 0.000000 0.429989 0.269808
O O4 0.069293 0.448012 0.000000
O O5 0.719965 0.046493 0.500000
O O6 0.765749 0.081591 0.780562
O O7 0.712971 0.000000 0.778344
O O8 0.250000 0.250000 0.730315
O O9 0.248866 0.163807 0.709195
O O10 0.361359 0.205251 0.770295
O O11 0.269342 0.202117 0.000000
O O12 0.925535 0.170589 0.500000
O O13 0.868931 0.140895 0.221115
O O14 0.920184 0.220797 0.235511
O O15 0.000000 0.155538 0.236072
O O16 0.814407 0.886487 0.500000
O O17 0.427267 0.227182 0.500000
O O18 0.500000 0.213462 0.767258
#
# Coordination Sequence:
#
# PCOD9486363 Si02
#       6
#    16  16  16  16  16  16
#     4   8  14  26  45  67  89 117 155 195 236 284
#     4   9  18  31  47  71  99 125 158 201 247 288
#     4  11  22  33  47  72 104 131 156 197 247 292
#     4   8  14  26  47  73  94 118 160 204 235 274
#     4  10  19  32  52  72  95 131 167 201 241 289
#     4   9  17  31  52  74  96 128 169 205 236 282
#
# _framework density 19.844251
#
# number of rings (size 3 to 8) (size 9 to 14) (size 15 to 20)
#    0.000    2.833    1.667    2.000    0.000    2.000 
#    0.000    2.500    0.000    2.000    0.000    3.500 
#    0.000    0.000    0.000    5.667    0.000    6.000 
#
# Total GULP energy -267535.911541 kJ/mol
# GULP energy per Si atom -5573.664824 kJ/mol
# Density = 1.979908 g / cm^3
# Si number density = 19.844251 Si / 1000 Ang^3
#
#
#
# Elastic Constant Matrix: (Units=GPa)
#
#
# Indices 1 2 3 4 5 6 
#
# 1 167.6995 43.8019 -6.1551 0.0000 0.0000 0.0000
# 2 43.8019 43.5768 -4.1711 0.0000 0.0000 0.0000
# 3 -6.1551 -4.1711 33.4519 0.0000 0.0000 0.0000
# 4 0.0000 0.0000 0.0000 2.3353 0.0000 0.0000
# 5 0.0000 0.0000 0.0000 0.0000 106.6818 0.0000
# 6 0.0000 0.0000 0.0000 0.0000 0.0000 25.1210
#
#
#
# Elastic Compliance Matrix: (Units=1/GPa)
#
#
# Indices 1 2 3 4 5 6 
#
# 1 0.008094 -0.008089 0.000481 0.000000 0.000000 0.000000
# 2 -0.008089 0.031310 0.002416 0.000000 0.000000 0.000000
# 3 0.000481 0.002416 0.030283 0.000000 0.000000 0.000000
# 4 0.000000 0.000000 0.000000 0.428202 0.000000 0.000000
# 5 0.000000 0.000000 0.000000 0.000000 0.009374 0.000000
# 6 0.000000 0.000000 0.000000 0.000000 0.000000 0.039807
#
#
# Mechanical properties :
#
#
# Convention : Reuss Voigt Hill
#
# Bulk Modulus (GPa) = 16.86315 34.63107 25.74711
# Shear Modulus (GPa) = 8.66215 40.91112 24.78663
#
# Velocity S-wave (km/s) = 2.09154 4.54542 3.53804
# Velocity P-wave (km/s) = 3.78800 6.71097 5.44913
#
# Compressibility (1/GPa) = 0.05930090
#
# Stress axis : x y z
#
# Youngs Moduli (GPa) = 123.55479 31.93829 33.02148
#
# Poissons Ratio (x) = 0.25836 -0.01587
# Poissons Ratio (y) = 0.99948 -0.07977
# Poissons Ratio (z) = -0.05937 -0.07715
#
# Static dielectric constant tensor:
#      x y z
#    x 1.735890 0.000000 0.000000 
#    y 0.000000 1.703150 0.000000 
#    z 0.000000 0.000000 1.731320 
# 
# From -- ./inp_files/12197.got.cif
#   From: 2010.05.17/outbox.cif.g08.bks.cpg/sg65_7_cif.got.tgz:12197.got - 2010.06.03 17:01:31.
