data_PCOD9486823
_publ_section_title
;
Structure prediction by ZEFSAII (Michael W. Deem and Ramdas Pophale) SiO2 
 PCOD9486823
Probable space group: C M M M
;
_chemical_formula_sum "Si O2"
_cell_formula_units_Z 56
_cell_length_a 27.348014
_cell_length_b 8.513876
_cell_length_c 11.563242
_cell_angle_alpha 90.000000
_cell_angle_beta 90.000000
_cell_angle_gamma 90.000000
_cell_volume 2692.357516
_symmetry_space_group_name_H-M "C M M M"
_symmetry_group_IT_number 65
_symmetry_cell_setting 'orthorhombic'
loop_
_space_group_symop_operation_xyz
x,y,z
-x,-y,z
x,-y,-z
-x,y,-z
-x,-y,-z
x,y,-z
-x,y,z
x,-y,z
1/2+x,1/2+y,z
1/2-x,1/2-y,z
1/2+x,1/2-y,-z
1/2-x,1/2+y,-z
1/2-x,1/2-y,-z
1/2+x,1/2+y,-z
1/2-x,1/2+y,z
1/2+x,1/2-y,z
loop_
_atom_site_type_symbol
_atom_site_label
_atom_site_fract_x
_atom_site_fract_y
_atom_site_fract_z
Si Si1 0.057313 0.688444 0.000000
Si Si2 0.500000 0.819375 0.637661
Si Si3 0.304768 0.188166 0.259610
Si Si4 0.304400 0.811520 0.000000
Si Si5 0.403813 0.314005 0.245857
O O1 0.082929 0.749017 0.116695
O O2 0.060789 0.500000 0.000000
O O3 0.000000 0.733741 0.000000
O O4 0.500000 0.822915 0.500000
O O5 0.451773 0.733977 0.682879
O O6 0.500000 0.000000 0.682464
O O7 0.250000 0.250000 0.289993
O O8 0.318042 0.242102 0.127943
O O9 0.355690 0.246204 0.313093
O O10 0.301923 0.000000 0.264493
O O11 0.250000 0.750000 0.000000
O O12 0.309712 0.000000 0.000000
O O13 0.398052 0.500000 0.237407
#
# Coordination Sequence:
#
# PCOD9486823 Si02
#       5
#     8   8  16   8  16
#     4  11  22  37  59  86 124 166 205 248 301 359
#     4  11  25  46  69  90 115 153 201 251 304 361
#     4  10  19  33  53  80 118 160 203 245 293 351
#     4   8  15  26  43  68 103 149 193 233 274 326
#     4  12  24  38  61  92 126 161 201 248 304 362
#
# _framework density 20.799613999999998
#
# number of rings (size 3 to 8) (size 9 to 14) (size 15 to 20)
#    0.000    1.429    1.429    5.143    0.000    4.000 
#    0.000    2.857    0.000    0.857    0.000    0.000 
#    0.000    0.000    0.000    0.000    0.000    0.000 
#
# Total GULP energy -155914.147645 kJ/mol
# GULP energy per Si atom -5568.362416 kJ/mol
# Density = 2.075227 g / cm^3
# Si number density = 20.799614 Si / 1000 Ang^3
#
#
#
# Elastic Constant Matrix: (Units=GPa)
#
#
# Indices 1 2 3 4 5 6 
#
# 1 240.6794 65.3477 18.4799 0.0000 0.0000 0.0000
# 2 65.3477 91.2604 9.4090 0.0000 0.0000 0.0000
# 3 18.4799 9.4090 30.9297 0.0000 0.0000 0.0000
# 4 0.0000 0.0000 0.0000 51.3265 0.0000 0.0000
# 5 0.0000 0.0000 0.0000 0.0000 -10.6056 0.0000
# 6 0.0000 0.0000 0.0000 0.0000 0.0000 34.2184
#
#
#
# Elastic Compliance Matrix: (Units=1/GPa)
#
#
# Indices 1 2 3 4 5 6 
#
# 1 0.005283 -0.003569 -0.002071 0.000000 0.000000 0.000000
# 2 -0.003569 0.013724 -0.002042 0.000000 0.000000 0.000000
# 3 -0.002071 -0.002042 0.034190 0.000000 0.000000 0.000000
# 4 0.000000 0.000000 0.000000 0.019483 0.000000 0.000000
# 5 0.000000 0.000000 0.000000 0.000000 -0.094290 0.000000
# 6 0.000000 0.000000 0.000000 0.000000 0.000000 0.029224
#
#
# Mechanical properties :
#
#
# Convention : Reuss Voigt Hill
#
# Bulk Modulus (GPa) = 26.43246 61.03807 43.73527
# Shear Modulus (GPa) = 140.48876 32.96338 86.72607
#
# Velocity S-wave (km/s) = 8.22743 3.98528 6.46425
# Velocity P-wave (km/s) = 10.14839 7.11239 8.76287
#
# Compressibility (1/GPa) = 0.03783226
#
# Stress axis : x y z
#
# Youngs Moduli (GPa) = 189.28414 72.86410 29.24843
#
# Poissons Ratio (x) = 0.26009 0.06056
# Poissons Ratio (y) = 0.67565 0.05973
# Poissons Ratio (z) = 0.39195 0.14881
#
# Static dielectric constant tensor:
#      x y z
#    x 1.838280 0.000000 0.000000 
#    y 0.000000 1.724980 0.000000 
#    z 0.000000 0.000000 1.756590 
# 
# From -- ./inp_files/31786.got.cif
#   From: 2010.05.17/outbox.cif.g08.bks.cpg/sg65_16_cif.got.tgz:31786.got - 2010.06.03 17:01:31.
