data_PCOD9486276
_publ_section_title
;
Structure prediction by ZEFSAII (Michael W. Deem and Ramdas Pophale) SiO2 
 PCOD9486276
Probable space group: C M M M
;
_chemical_formula_sum "Si O2"
_cell_formula_units_Z 88
_cell_length_a 8.531762
_cell_length_b 18.291904
_cell_length_c 30.080521
_cell_angle_alpha 90.000000
_cell_angle_beta 90.000000
_cell_angle_gamma 90.000000
_cell_volume 4694.431426
_symmetry_space_group_name_H-M "C M M M"
_symmetry_group_IT_number 65
_symmetry_cell_setting 'orthorhombic'
loop_
_space_group_symop_operation_xyz
x,y,z
-x,-y,z
x,-y,-z
-x,y,-z
-x,-y,-z
x,y,-z
-x,y,z
x,-y,z
1/2+x,1/2+y,z
1/2-x,1/2-y,z
1/2+x,1/2-y,-z
1/2-x,1/2+y,-z
1/2-x,1/2-y,-z
1/2+x,1/2+y,-z
1/2-x,1/2+y,z
1/2+x,1/2-y,z
loop_
_atom_site_type_symbol
_atom_site_label
_atom_site_fract_x
_atom_site_fract_y
_atom_site_fract_z
Si Si1 0.188762 0.166633 0.759117
Si Si2 0.310191 0.666136 0.047879
Si Si3 0.312194 0.915105 0.672836
Si Si4 0.313542 0.332216 0.413530
Si Si5 0.689228 0.333422 0.143482
Si Si6 0.811897 0.415359 0.500000
O O1 0.250000 0.250000 0.755503
O O2 0.255928 0.119916 0.718903
O O3 0.236792 0.136723 0.808179
O O4 0.000000 0.167568 0.756616
O O5 0.500000 0.666977 0.047855
O O6 0.250000 0.750000 0.047889
O O7 0.259932 0.633570 0.095749
O O8 0.259777 0.633736 0.000000
O O9 0.500000 0.910518 0.670257
O O10 0.241288 0.871426 0.631496
O O11 0.265729 0.000000 0.670382
O O12 0.500000 0.330783 0.415270
O O13 0.250000 0.250000 0.414329
O O14 0.249339 0.375523 0.456071
O O15 0.500000 0.332534 0.143425
O O16 0.750000 0.250000 0.143323
O O17 0.762168 0.500000 0.500000
O O18 0.000000 0.412788 0.500000
#
# Coordination Sequence:
#
# PCOD9486276 Si02
#       6
#    16  16  16  16  16   8
#     4  10  19  32  51  74 102 135 173 215 260 314
#     4   8  12  18  29  47  75 112 152 192 237 291
#     4  11  24  41  59  80 108 140 176 221 273 324
#     4  12  25  42  65  91 120 152 189 228 267 315
#     4   8  14  23  36  57  85 119 158 200 246 297
#     4  11  24  43  66  93 127 161 192 229 272 313
#
# _framework density 18.745614
#
# number of rings (size 3 to 8) (size 9 to 14) (size 15 to 20)
#    0.000    2.091    0.000    4.364    0.000    5.091 
#    0.000    0.000    0.000    0.000    0.000    0.000 
#    0.000    0.727    0.000    9.091    0.000    4.727 
#
# Total GULP energy -245326.282452 kJ/mol
# GULP energy per Si atom -5575.597328 kJ/mol
# Density = 1.870295 g / cm^3
# Si number density = 18.745614 Si / 1000 Ang^3
#
#
#
# Elastic Constant Matrix: (Units=GPa)
#
#
# Indices 1 2 3 4 5 6 
#
# 1 51.4093 36.4056 44.7260 0.0000 0.0000 0.0000
# 2 36.4056 98.6985 85.2905 0.0000 0.0000 0.0000
# 3 44.7260 85.2905 239.7950 0.0000 0.0000 0.0000
# 4 0.0000 0.0000 0.0000 -19.7763 0.0000 0.0000
# 5 0.0000 0.0000 0.0000 0.0000 32.5308 0.0000
# 6 0.0000 0.0000 0.0000 0.0000 0.0000 20.1407
#
#
#
# Elastic Compliance Matrix: (Units=1/GPa)
#
#
# Indices 1 2 3 4 5 6 
#
# 1 0.027085 -0.008121 -0.002163 0.000000 0.000000 0.000000
# 2 -0.008121 0.017063 -0.004554 0.000000 0.000000 0.000000
# 3 -0.002163 -0.004554 0.006194 0.000000 0.000000 0.000000
# 4 0.000000 0.000000 0.000000 -0.050566 0.000000 0.000000
# 5 0.000000 0.000000 0.000000 0.000000 0.030740 0.000000
# 6 0.000000 0.000000 0.000000 0.000000 0.000000 0.049651
#
#
# Mechanical properties :
#
#
# Convention : Reuss Voigt Hill
#
# Bulk Modulus (GPa) = 48.39295 80.30524 64.34910
# Shear Modulus (GPa) = 42.83341 21.47776 32.15558
#
# Velocity S-wave (km/s) = 4.78534 3.38856 4.14619
# Velocity P-wave (km/s) = 7.51028 7.63166 7.57121
#
# Compressibility (1/GPa) = 0.02066417
#
# Stress axis : x y z
#
# Youngs Moduli (GPa) = 36.92123 58.60678 161.45751
#
# Poissons Ratio (x) = 0.47594 0.34928
# Poissons Ratio (y) = 0.29983 0.73532
# Poissons Ratio (z) = 0.07987 0.26691
#
# Static dielectric constant tensor:
#      x y z
#    x 1.644570 0.000000 0.000000 
#    y 0.000000 1.614770 0.000000 
#    z 0.000000 0.000000 1.704390 
# 
# From -- ./inp_files/76693.got.cif
#   From: 2010.05.17/outbox.cif.g08.bks.cpg/sg65_39_cif.got.tgz:76693.got - 2010.06.03 17:01:31.
