data_PCOD9486063
_publ_section_title
;
Structure prediction by ZEFSAII (Michael W. Deem and Ramdas Pophale) SiO2 
 PCOD9486063
Probable space group: C M M M
;
_chemical_formula_sum "Si O2"
_cell_formula_units_Z 80
_cell_length_a 7.952583
_cell_length_b 29.742408
_cell_length_c 23.037857
_cell_angle_alpha 90.000000
_cell_angle_beta 90.000000
_cell_angle_gamma 90.000000
_cell_volume 5449.120547
_symmetry_space_group_name_H-M "C M M M"
_symmetry_group_IT_number 65
_symmetry_cell_setting 'orthorhombic'
loop_
_space_group_symop_operation_xyz
x,y,z
-x,-y,z
x,-y,-z
-x,y,-z
-x,-y,-z
x,y,-z
-x,y,z
x,-y,z
1/2+x,1/2+y,z
1/2-x,1/2-y,z
1/2+x,1/2-y,-z
1/2-x,1/2+y,-z
1/2-x,1/2-y,-z
1/2+x,1/2+y,-z
1/2-x,1/2+y,z
1/2+x,1/2-y,z
loop_
_atom_site_type_symbol
_atom_site_label
_atom_site_fract_x
_atom_site_fract_y
_atom_site_fract_z
Si Si1 0.795901 0.947722 0.725697
Si Si2 0.812411 0.445341 0.854758
Si Si3 0.702527 0.700566 0.566907
Si Si4 0.298459 0.948459 0.500000
Si Si5 0.702033 0.607064 0.385754
Si Si6 0.000000 0.054893 0.066932
O O1 0.727452 0.932981 0.788231
O O2 0.735821 0.917427 0.672241
O O3 0.000000 0.946447 0.728568
O O4 0.748368 0.000000 0.715931
O O5 0.809452 0.500000 0.855641
O O6 0.665667 0.430366 0.898018
O O7 0.000000 0.430813 0.871289
O O8 0.763495 0.696726 0.500000
O O9 0.500000 0.698177 0.565195
O O10 0.750000 0.750000 0.588733
O O11 0.765028 0.657667 0.602770
O O12 0.500000 0.949082 0.500000
O O13 0.240188 0.922403 0.557395
O O14 0.236777 0.000000 0.500000
O O15 0.500000 0.609320 0.380406
O O16 0.000000 0.000000 0.067301
O O17 0.000000 0.069086 0.000000
#
# Coordination Sequence:
#
# PCOD9486063 Si02
#       6
#    16  16  16   8  16   8
#     4   9  16  27  43  60  79 107 141 178 216 254
#     4   9  16  26  40  57  80 110 143 179 215 252
#     4   9  17  30  46  63  80 100 130 171 218 265
#     4  11  23  33  40  57  86 109 130 173 226 265
#     4  10  19  32  48  63  78 104 143 178 212 264
#     4   9  16  26  40  58  82 109 143 185 217 246
#
# _framework density 14.681269
#
# number of rings (size 3 to 8) (size 9 to 14) (size 15 to 20)
#    0.000    2.600    2.000    0.900    0.000    3.600 
#    0.000    4.000    0.000    0.000    0.000    0.000 
#    0.000    0.000    0.000    0.000    0.000    1.000 
#
# Total GULP energy -222927.850310 kJ/mol
# GULP energy per Si atom -5573.196258 kJ/mol
# Density = 1.464785 g / cm^3
# Si number density = 14.681269 Si / 1000 Ang^3
#
#
#
# Elastic Constant Matrix: (Units=GPa)
#
#
# Indices 1 2 3 4 5 6 
#
# 1 51.2108 20.0125 45.6119 0.0000 0.0000 0.0000
# 2 20.0125 81.0857 46.8659 0.0000 0.0000 0.0000
# 3 45.6119 46.8659 122.9315 0.0000 0.0000 0.0000
# 4 0.0000 0.0000 0.0000 -0.9659 0.0000 0.0000
# 5 0.0000 0.0000 0.0000 0.0000 -1.0700 0.0000
# 6 0.0000 0.0000 0.0000 0.0000 0.0000 11.6632
#
#
#
# Elastic Compliance Matrix: (Units=1/GPa)
#
#
# Indices 1 2 3 4 5 6 
#
# 1 0.029258 -0.001214 -0.010393 0.000000 0.000000 0.000000
# 2 -0.001214 0.015868 -0.005599 0.000000 0.000000 0.000000
# 3 -0.010393 -0.005599 0.014125 0.000000 0.000000 0.000000
# 4 0.000000 0.000000 0.000000 -1.035334 0.000000 0.000000
# 5 0.000000 0.000000 0.000000 0.000000 -0.934563 0.000000
# 6 0.000000 0.000000 0.000000 0.000000 0.000000 0.085740
#
#
# Mechanical properties :
#
#
# Convention : Reuss Voigt Hill
#
# Bulk Modulus (GPa) = 40.25837 53.35651 46.80744
# Shear Modulus (GPa) = -2.80550 11.44131 4.31790
#
# Velocity S-wave (km/s) = -1.38387 2.79465 1.71682
# Velocity P-wave (km/s) = 4.99276 6.84365 5.99013
#
# Compressibility (1/GPa) = 0.02483955
#
# Stress axis : x y z
#
# Youngs Moduli (GPa) = 34.17828 63.01798 70.79471
#
# Poissons Ratio (x) = 0.07652 0.73577
# Poissons Ratio (y) = 0.04150 0.39639
# Poissons Ratio (z) = 0.35521 0.35284
#
# Static dielectric constant tensor:
#      x y z
#    x 1.523820 0.000000 0.000000 
#    y 0.000000 1.472530 0.000000 
#    z 0.000000 0.000000 1.472590 
# 
# From -- ./inp_files/60593.got.cif
#   From: 2010.05.17/outbox.cif.g08.bks.cpg/sg65_31_cif.got.tgz:60593.got - 2010.06.03 17:01:31.
