data_PCOD9486605
_publ_section_title
;
Structure prediction by ZEFSAII (Michael W. Deem and Ramdas Pophale) SiO2 
 PCOD9486605
Probable space group: C M M M
;
_chemical_formula_sum "Si O2"
_cell_formula_units_Z 76
_cell_length_a 15.735887
_cell_length_b 23.290507
_cell_length_c 12.185362
_cell_angle_alpha 90.000000
_cell_angle_beta 90.000000
_cell_angle_gamma 90.000000
_cell_volume 4465.896013
_symmetry_space_group_name_H-M "C M M M"
_symmetry_group_IT_number 65
_symmetry_cell_setting 'orthorhombic'
loop_
_space_group_symop_operation_xyz
x,y,z
-x,-y,z
x,-y,-z
-x,y,-z
-x,-y,-z
x,y,-z
-x,y,z
x,-y,z
1/2+x,1/2+y,z
1/2-x,1/2-y,z
1/2+x,1/2-y,-z
1/2-x,1/2+y,-z
1/2-x,1/2-y,-z
1/2+x,1/2+y,-z
1/2-x,1/2+y,z
1/2+x,1/2-y,z
loop_
_atom_site_type_symbol
_atom_site_label
_atom_site_fract_x
_atom_site_fract_y
_atom_site_fract_z
Si Si1 0.500000 0.299781 0.630333
Si Si2 0.000000 0.684136 0.232999
Si Si3 0.171864 0.609448 0.757494
Si Si4 0.833397 0.124360 0.368405
Si Si5 0.601617 0.000000 0.368887
Si Si6 0.500000 0.845219 0.000000
Si Si7 0.902401 0.000000 0.367071
Si Si8 0.160087 0.430565 0.000000
O O1 0.500000 0.288813 0.500000
O O2 0.500000 0.240276 0.694001
O O3 0.415762 0.336926 0.654513
O O4 0.913824 0.647406 0.247535
O O5 0.000000 0.695564 0.103951
O O6 0.250402 0.640965 0.699625
O O7 0.146287 0.554526 0.684988
O O8 0.196965 0.588083 0.880694
O O9 0.817742 0.126145 0.500000
O O10 0.856048 0.058698 0.336393
O O11 0.500000 0.000000 0.344053
O O12 0.611646 0.000000 0.500000
O O13 0.423387 0.890634 0.000000
O O14 0.905765 0.000000 0.500000
O O15 0.000000 0.000000 0.328123
O O16 0.146700 0.500000 0.000000
#
# Coordination Sequence:
#
# PCOD9486605 Si02
#       8
#     8   8  16  16   8   4   8   8
#     4  10  22  39  58  80 108 146 193 235 271 323
#     4  10  22  38  56  79 106 143 190 233 271 324
#     4  11  21  36  55  81 113 147 182 227 280 328
#     4  10  20  35  56  83 112 145 183 223 275 335
#     4  11  21  32  49  81 120 152 174 209 276 348
#     4   8  19  36  58  76 100 145 194 230 270 314
#     4   9  15  29  54  79 104 135 176 222 263 315
#     4  10  19  32  55  81 111 142 186 229 269 328
#
# _framework density 17.017861
#
# number of rings (size 3 to 8) (size 9 to 14) (size 15 to 20)
#    0.000    1.895    3.158    1.421    0.000    3.368 
#    0.000    3.158    0.000    3.789    0.000    1.474 
#    0.000    0.000    0.000    0.000    0.000    0.000 
#
# Total GULP energy -211712.005923 kJ/mol
# GULP energy per Si atom -5571.368577 kJ/mol
# Density = 1.697913 g / cm^3
# Si number density = 17.017861 Si / 1000 Ang^3
#
#
#
# Elastic Constant Matrix: (Units=GPa)
#
#
# Indices 1 2 3 4 5 6 
#
# 1 113.2487 33.6990 63.6534 0.0000 0.0000 0.0000
# 2 33.6990 92.3588 48.1352 0.0000 0.0000 0.0000
# 3 63.6534 48.1352 87.6789 0.0000 0.0000 0.0000
# 4 0.0000 0.0000 0.0000 28.1010 0.0000 0.0000
# 5 0.0000 0.0000 0.0000 0.0000 13.6460 0.0000
# 6 0.0000 0.0000 0.0000 0.0000 0.0000 -7.0546
#
#
#
# Elastic Compliance Matrix: (Units=1/GPa)
#
#
# Indices 1 2 3 4 5 6 
#
# 1 0.014922 0.000282 -0.010988 0.000000 0.000000 0.000000
# 2 0.000282 0.015172 -0.008534 0.000000 0.000000 0.000000
# 3 -0.010988 -0.008534 0.024068 0.000000 0.000000 0.000000
# 4 0.000000 0.000000 0.000000 0.035586 0.000000 0.000000
# 5 0.000000 0.000000 0.000000 0.000000 0.073282 0.000000
# 6 0.000000 0.000000 0.000000 0.000000 0.000000 -0.141751
#
#
# Mechanical properties :
#
#
# Convention : Reuss Voigt Hill
#
# Bulk Modulus (GPa) = 63.76920 64.91797 64.34359
# Shear Modulus (GPa) = 76.93885 16.79173 46.86529
#
# Velocity S-wave (km/s) = 6.73118 3.14461 5.25344
# Velocity P-wave (km/s) = 9.89773 7.17039 8.64232
#
# Compressibility (1/GPa) = 0.01568155
#
# Stress axis : x y z
#
# Youngs Moduli (GPa) = 67.01389 65.90960 41.54932
#
# Poissons Ratio (x) = -0.01859 0.45655
# Poissons Ratio (y) = -0.01890 0.35459
# Poissons Ratio (z) = 0.73636 0.56249
#
# Static dielectric constant tensor:
#      x y z
#    x 1.604680 0.000000 0.000000 
#    y 0.000000 1.552760 0.000000 
#    z 0.000000 0.000000 1.587360 
# 
# From -- ./inp_files/24759.got.cif
#   From: 2010.05.17/outbox.cif.g08.bks.cpg/sg65_13_cif.got.tgz:24759.got - 2010.06.03 17:01:31.
