data_PCOD9486211
_publ_section_title
;
Structure prediction by ZEFSAII (Michael W. Deem and Ramdas Pophale) SiO2 
 PCOD9486211
Probable space group: C M M M
;
_chemical_formula_sum "Si O2"
_cell_formula_units_Z 64
_cell_length_a 8.567488
_cell_length_b 23.824281
_cell_length_c 18.851887
_cell_angle_alpha 90.000000
_cell_angle_beta 90.000000
_cell_angle_gamma 90.000000
_cell_volume 3847.938617
_symmetry_space_group_name_H-M "C M M M"
_symmetry_group_IT_number 65
_symmetry_cell_setting 'orthorhombic'
loop_
_space_group_symop_operation_xyz
x,y,z
-x,-y,z
x,-y,-z
-x,y,-z
-x,-y,-z
x,y,-z
-x,y,z
x,-y,z
1/2+x,1/2+y,z
1/2-x,1/2-y,z
1/2+x,1/2-y,-z
1/2-x,1/2+y,-z
1/2-x,1/2-y,-z
1/2+x,1/2+y,-z
1/2-x,1/2+y,z
1/2+x,1/2-y,z
loop_
_atom_site_type_symbol
_atom_site_label
_atom_site_fract_x
_atom_site_fract_y
_atom_site_fract_z
Si Si1 0.686623 0.812898 0.000000
Si Si2 0.811731 0.313754 0.576101
Si Si3 0.186337 0.118306 0.133937
Si Si4 0.311834 0.814035 0.267367
Si Si5 0.187621 0.500000 0.916403
O O1 0.750000 0.750000 0.000000
O O2 0.748154 0.844786 0.069162
O O3 0.500000 0.813138 0.000000
O O4 0.761414 0.339525 0.500000
O O5 0.750000 0.250000 0.575449
O O6 0.764817 0.335704 0.653669
O O7 0.000000 0.312814 0.576054
O O8 0.245228 0.146572 0.206287
O O9 0.248571 0.055643 0.121046
O O10 0.000000 0.118588 0.132023
O O11 0.500000 0.812565 0.262819
O O12 0.250000 0.750000 0.259206
O O13 0.000000 0.500000 0.914158
O O14 0.234171 0.500000 0.000000
#
# Coordination Sequence:
#
# PCOD9486211 Si02
#       5
#     8  16  16  16   8
#     4  12  24  39  56  77 104 136 172 210 256 308
#     4   8  14  25  43  68  99 136 174 210 250 299
#     4  12  24  38  56  78 104 135 172 213 258 308
#     4  10  19  32  50  75 109 143 176 215 259 308
#     4  11  23  41  63  81  99 128 169 218 262 307
#
# _framework density 16.632280999999999
#
# number of rings (size 3 to 8) (size 9 to 14) (size 15 to 20)
#    0.000    1.625    1.250    5.250    0.000    1.500 
#    0.000    0.000    0.000    0.000    0.000    0.875 
#    0.000    7.000    0.000    0.000    0.000    0.000 
#
# Total GULP energy -178502.547203 kJ/mol
# GULP energy per Si atom -5578.204600 kJ/mol
# Density = 1.659443 g / cm^3
# Si number density = 16.632281 Si / 1000 Ang^3
#
#
#
# Elastic Constant Matrix: (Units=GPa)
#
#
# Indices 1 2 3 4 5 6 
#
# 1 96.5821 42.7247 57.2065 0.0000 0.0000 0.0000
# 2 42.7247 114.6133 81.4775 0.0000 0.0000 0.0000
# 3 57.2065 81.4775 205.9127 0.0000 0.0000 0.0000
# 4 0.0000 0.0000 0.0000 -7.7493 0.0000 0.0000
# 5 0.0000 0.0000 0.0000 0.0000 3.8560 0.0000
# 6 0.0000 0.0000 0.0000 0.0000 0.0000 26.9414
#
#
#
# Elastic Compliance Matrix: (Units=1/GPa)
#
#
# Indices 1 2 3 4 5 6 
#
# 1 0.013194 -0.003218 -0.002392 0.000000 0.000000 0.000000
# 2 -0.003218 0.012925 -0.004220 0.000000 0.000000 0.000000
# 3 -0.002392 -0.004220 0.007191 0.000000 0.000000 0.000000
# 4 0.000000 0.000000 0.000000 -0.129045 0.000000 0.000000
# 5 0.000000 0.000000 0.000000 0.000000 0.259335 0.000000
# 6 0.000000 0.000000 0.000000 0.000000 0.000000 0.037118
#
#
# Mechanical properties :
#
#
# Convention : Reuss Voigt Hill
#
# Bulk Modulus (GPa) = 73.26427 86.65841 79.96134
# Shear Modulus (GPa) = 22.22927 20.32291 21.27609
#
# Velocity S-wave (km/s) = 3.65980 3.49935 3.58048
# Velocity P-wave (km/s) = 7.87426 8.27907 8.07920
#
# Compressibility (1/GPa) = 0.01364922
#
# Stress axis : x y z
#
# Youngs Moduli (GPa) = 75.78993 77.37209 139.06348
#
# Poissons Ratio (x) = 0.24896 0.33270
# Poissons Ratio (y) = 0.24387 0.58687
# Poissons Ratio (z) = 0.18132 0.32652
#
# Static dielectric constant tensor:
#      x y z
#    x 1.554690 0.000000 0.000000 
#    y 0.000000 1.512090 0.000000 
#    z 0.000000 0.000000 1.607940 
# 
# From -- ./inp_files/49370.got.cif
#   From: 2010.05.17/outbox.cif.g08.bks.cpg/sg65_25_cif.got.tgz:49370.got - 2010.06.03 17:01:31.
