data_PCOD9486278
_publ_section_title
;
Structure prediction by ZEFSAII (Michael W. Deem and Ramdas Pophale) SiO2 
 PCOD9486278
Probable space group: C M M M
;
_chemical_formula_sum "Si O2"
_cell_formula_units_Z 104
_cell_length_a 22.922925
_cell_length_b 28.539371
_cell_length_c 7.541789
_cell_angle_alpha 90.000000
_cell_angle_beta 90.000000
_cell_angle_gamma 90.000000
_cell_volume 4933.882566
_symmetry_space_group_name_H-M "C M M M"
_symmetry_group_IT_number 65
_symmetry_cell_setting 'orthorhombic'
loop_
_space_group_symop_operation_xyz
x,y,z
-x,-y,z
x,-y,-z
-x,y,-z
-x,-y,-z
x,y,-z
-x,y,z
x,-y,z
1/2+x,1/2+y,z
1/2-x,1/2-y,z
1/2+x,1/2-y,-z
1/2-x,1/2+y,-z
1/2-x,1/2-y,-z
1/2+x,1/2+y,-z
1/2-x,1/2+y,z
1/2+x,1/2-y,z
loop_
_atom_site_type_symbol
_atom_site_label
_atom_site_fract_x
_atom_site_fract_y
_atom_site_fract_z
Si Si1 0.433099 0.696700 0.209276
Si Si2 0.000000 0.446164 0.787084
Si Si3 0.264611 0.053135 0.711541
Si Si4 0.121265 0.397191 0.292379
Si Si5 0.062183 0.053313 0.784385
Si Si6 0.339573 0.378214 0.213438
Si Si7 0.433580 0.194931 0.714728
O O1 0.500000 0.688193 0.280324
O O2 0.376252 0.667766 0.276179
O O3 0.421604 0.751910 0.230409
O O4 0.437134 0.685366 0.000000
O O5 0.058658 0.421675 0.721816
O O6 0.000000 0.500000 0.730086
O O7 0.000000 0.444183 0.000000
O O8 0.267640 0.047944 0.500000
O O9 0.327732 0.069992 0.782058
O O10 0.222160 0.097944 0.741430
O O11 0.248269 0.000000 0.778898
O O12 0.135455 0.391340 0.500000
O O13 0.110759 0.344794 0.219161
O O14 0.116408 0.081684 0.722332
O O15 0.000000 0.074065 0.731482
O O16 0.064555 0.000000 0.726403
O O17 0.063531 0.053390 0.000000
O O18 0.338162 0.374676 0.000000
O O19 0.433459 0.193714 0.500000
O O20 0.500000 0.183661 0.772796
#
# Coordination Sequence:
#
# PCOD9486278 Si02
#       7
#    16   8  16  16  16  16  16
#     4   9  18  32  52  80 111 141 176 221 273 325
#     4  11  23  35  53  87 121 141 167 217 276 327
#     4  10  22  38  55  76 104 141 183 224 268 319
#     4  10  20  38  60  80 105 143 186 222 261 319
#     4   8  13  22  40  67  94 121 161 213 262 308
#     4  10  19  32  51  74 102 139 180 220 265 318
#     4   9  17  32  55  82 106 132 173 222 268 318
#
# _framework density 21.078735000000002
#
# number of rings (size 3 to 8) (size 9 to 14) (size 15 to 20)
#    0.000    2.538    0.769    2.077    0.000    5.846 
#    0.000    0.769    0.000    6.000    0.000    5.385 
#    0.000    0.000    0.000    0.000    0.000    0.000 
#
# Total GULP energy -289556.021382 kJ/mol
# GULP energy per Si atom -5568.385027 kJ/mol
# Density = 2.103076 g / cm^3
# Si number density = 21.078735 Si / 1000 Ang^3
#
#
#
# Elastic Constant Matrix: (Units=GPa)
#
#
# Indices 1 2 3 4 5 6 
#
# 1 108.4912 53.7247 -0.7094 0.0000 0.0000 0.0000
# 2 53.7247 135.5860 3.0818 0.0000 0.0000 0.0000
# 3 -0.7094 3.0818 53.0078 0.0000 0.0000 0.0000
# 4 0.0000 0.0000 0.0000 18.2986 0.0000 0.0000
# 5 0.0000 0.0000 0.0000 0.0000 8.3896 0.0000
# 6 0.0000 0.0000 0.0000 0.0000 0.0000 25.3482
#
#
#
# Elastic Compliance Matrix: (Units=1/GPa)
#
#
# Indices 1 2 3 4 5 6 
#
# 1 0.011477 -0.004557 0.000419 0.000000 0.000000 0.000000
# 2 -0.004557 0.009195 -0.000596 0.000000 0.000000 0.000000
# 3 0.000419 -0.000596 0.018905 0.000000 0.000000 0.000000
# 4 0.000000 0.000000 0.000000 0.054649 0.000000 0.000000
# 5 0.000000 0.000000 0.000000 0.000000 0.119196 0.000000
# 6 0.000000 0.000000 0.000000 0.000000 0.000000 0.039451
#
#
# Mechanical properties :
#
#
# Convention : Reuss Voigt Hill
#
# Bulk Modulus (GPa) = 33.21315 45.47547 39.34431
# Shear Modulus (GPa) = 18.35697 26.47315 22.41506
#
# Velocity S-wave (km/s) = 2.95426 3.54774 3.26451
# Velocity P-wave (km/s) = 5.23716 6.19700 5.73719
#
# Compressibility (1/GPa) = 0.03010856
#
# Stress axis : x y z
#
# Youngs Moduli (GPa) = 87.13294 108.75928 52.89504
#
# Poissons Ratio (x) = 0.49562 -0.02214
# Poissons Ratio (y) = 0.39707 0.03150
# Poissons Ratio (z) = -0.03647 0.06477
#
# Static dielectric constant tensor:
#      x y z
#    x 1.797420 0.000000 0.000000 
#    y 0.000000 1.789460 0.000000 
#    z 0.000000 0.000000 1.774010 
# 
# From -- ./inp_files/12765.got.cif
#   From: 2010.05.17/outbox.cif.g08.bks.cpg/sg65_7_cif.got.tgz:12765.got - 2010.06.03 17:01:31.
