data_PCOD9486971
_publ_section_title
;
Structure prediction by ZEFSAII (Michael W. Deem and Ramdas Pophale) SiO2 
 PCOD9486971
Probable space group: C M M M
;
_chemical_formula_sum "Si O2"
_cell_formula_units_Z 96
_cell_length_a 24.497718
_cell_length_b 25.977238
_cell_length_c 8.073191
_cell_angle_alpha 90.000000
_cell_angle_beta 90.000000
_cell_angle_gamma 90.000000
_cell_volume 5137.641919
_symmetry_space_group_name_H-M "C M M M"
_symmetry_group_IT_number 65
_symmetry_cell_setting 'orthorhombic'
loop_
_space_group_symop_operation_xyz
x,y,z
-x,-y,z
x,-y,-z
-x,y,-z
-x,-y,-z
x,y,-z
-x,y,z
x,-y,z
1/2+x,1/2+y,z
1/2-x,1/2-y,z
1/2+x,1/2-y,-z
1/2-x,1/2+y,-z
1/2-x,1/2-y,-z
1/2+x,1/2+y,-z
1/2-x,1/2+y,z
1/2+x,1/2-y,z
loop_
_atom_site_type_symbol
_atom_site_label
_atom_site_fract_x
_atom_site_fract_y
_atom_site_fract_z
Si Si1 0.813454 0.558443 0.300783
Si Si2 0.617296 0.651232 0.699906
Si Si3 0.500000 0.686095 0.697592
Si Si4 0.615556 0.153106 0.700555
Si Si5 0.000000 0.695648 0.194836
Si Si6 0.187492 0.750801 0.702462
Si Si7 0.191743 0.058684 0.802090
O O1 0.817771 0.556587 0.500000
O O2 0.820616 0.500000 0.236839
O O3 0.857432 0.599857 0.240321
O O4 0.751676 0.575429 0.260161
O O5 0.615713 0.653902 0.500000
O O6 0.556034 0.661437 0.763149
O O7 0.655780 0.698144 0.757331
O O8 0.645163 0.597822 0.747259
O O9 0.500000 0.677803 0.500000
O O10 0.500000 0.747585 0.724163
O O11 0.615855 0.152566 0.500000
O O12 0.554355 0.164981 0.755638
O O13 0.654023 0.200463 0.754440
O O14 0.000000 0.703986 0.000000
O O15 0.187930 0.750948 0.500000
O O16 0.250000 0.750000 0.758121
O O17 0.182903 0.000000 0.741725
O O18 0.193473 0.057812 0.000000
#
# Coordination Sequence:
#
# PCOD9486971 Si02
#       7
#    16  16   8  16   8  16  16
#     4   9  18  34  59  87 109 137 182 230 272 315
#     4  10  19  33  55  79 104 136 182 229 267 317
#     4  10  20  38  59  78 103 143 186 224 276 325
#     4  10  19  35  57  78 108 144 180 224 273 322
#     4  12  24  36  53  78 111 147 186 224 264 321
#     4   9  16  27  49  80 106 131 166 212 270 324
#     4  10  21  36  54  78 112 150 179 211 268 332
#
# _framework density 18.685614000000001
#
# number of rings (size 3 to 8) (size 9 to 14) (size 15 to 20)
#    0.000    2.167    1.667    2.250    0.000    5.000 
#    0.000    0.833    0.000    7.000    0.000    0.000 
#    0.000    0.000    0.000    0.000    0.000    0.000 
#
# Total GULP energy -267935.363118 kJ/mol
# GULP energy per Si atom -5581.986732 kJ/mol
# Density = 1.864309 g / cm^3
# Si number density = 18.685614 Si / 1000 Ang^3
#
#
#
# Elastic Constant Matrix: (Units=GPa)
#
#
# Indices 1 2 3 4 5 6 
#
# 1 199.4177 96.9725 5.8762 0.0000 0.0000 0.0000
# 2 96.9725 105.8196 -0.8294 0.0000 0.0000 0.0000
# 3 5.8762 -0.8294 3.7131 0.0000 0.0000 0.0000
# 4 0.0000 0.0000 0.0000 8.5773 0.0000 0.0000
# 5 0.0000 0.0000 0.0000 0.0000 380.8208 0.0000
# 6 0.0000 0.0000 0.0000 0.0000 0.0000 25.3709
#
#
#
# Elastic Compliance Matrix: (Units=1/GPa)
#
#
# Indices 1 2 3 4 5 6 
#
# 1 0.010135 -0.009430 -0.018145 0.000000 0.000000 0.000000
# 2 -0.009430 0.018240 0.018998 0.000000 0.000000 0.000000
# 3 -0.018145 0.018998 0.302278 0.000000 0.000000 0.000000
# 4 0.000000 0.000000 0.000000 0.116587 0.000000 0.000000
# 5 0.000000 0.000000 0.000000 0.000000 0.002626 0.000000
# 6 0.000000 0.000000 0.000000 0.000000 0.000000 0.039415
#
#
# Mechanical properties :
#
#
# Convention : Reuss Voigt Hill
#
# Bulk Modulus (GPa) = 3.18981 56.99875 30.09428
# Shear Modulus (GPa) = 8.18418 96.74920 52.46669
#
# Velocity S-wave (km/s) = 2.09510 7.20346 5.30468
# Velocity P-wave (km/s) = 2.75016 9.98783 7.32530
#
# Compressibility (1/GPa) = 0.31349809
#
# Stress axis : x y z
#
# Youngs Moduli (GPa) = 98.67090 54.82395 3.30821
#
# Poissons Ratio (x) = 0.51697 0.06003
# Poissons Ratio (y) = 0.93043 -0.06285
# Poissons Ratio (z) = 1.79041 -1.04152
#
# Static dielectric constant tensor:
#      x y z
#    x 1.626950 0.000000 0.000000 
#    y 0.000000 1.645440 0.000000 
#    z 0.000000 0.000000 1.657360 
# 
# From -- ./inp_files/14363.got.cif
#   From: 2010.05.17/outbox.cif.g08.bks.cpg/sg65_8_cif.got.tgz:14363.got - 2010.06.03 17:01:31.
