data_PCOD9486393
_publ_section_title
;
Structure prediction by ZEFSAII (Michael W. Deem and Ramdas Pophale) SiO2 
 PCOD9486393
Probable space group: C M M M
;
_chemical_formula_sum "Si O2"
_cell_formula_units_Z 120
_cell_length_a 8.716585
_cell_length_b 27.664998
_cell_length_c 28.699030
_cell_angle_alpha 90.000000
_cell_angle_beta 90.000000
_cell_angle_gamma 90.000000
_cell_volume 6920.607689
_symmetry_space_group_name_H-M "C M M M"
_symmetry_group_IT_number 65
_symmetry_cell_setting 'orthorhombic'
loop_
_space_group_symop_operation_xyz
x,y,z
-x,-y,z
x,-y,-z
-x,y,-z
-x,-y,-z
x,y,-z
-x,y,z
x,-y,z
1/2+x,1/2+y,z
1/2-x,1/2-y,z
1/2+x,1/2-y,-z
1/2-x,1/2+y,-z
1/2-x,1/2-y,-z
1/2+x,1/2+y,-z
1/2-x,1/2+y,z
1/2+x,1/2-y,z
loop_
_atom_site_type_symbol
_atom_site_label
_atom_site_fract_x
_atom_site_fract_y
_atom_site_fract_z
Si Si1 0.186273 0.052887 0.143924
Si Si2 0.683221 0.802301 0.716466
Si Si3 0.316215 0.197039 0.392599
Si Si4 0.315693 0.351755 0.196714
Si Si5 0.814608 0.891836 0.947046
Si Si6 0.182824 0.301505 0.892944
Si Si7 0.819790 0.500000 0.443658
Si Si8 0.183154 0.103355 0.444715
O O1 0.233242 0.095408 0.178596
O O2 0.228566 0.068214 0.091375
O O3 0.000000 0.051892 0.145219
O O4 0.244581 0.000000 0.155870
O O5 0.500000 0.801904 0.720870
O O6 0.750000 0.750000 0.729513
O O7 0.722308 0.810258 0.662194
O O8 0.754848 0.839912 0.752315
O O9 0.500000 0.198855 0.397359
O O10 0.250000 0.250000 0.406446
O O11 0.252230 0.150854 0.420278
O O12 0.500000 0.348367 0.195423
O O13 0.247559 0.315408 0.158144
O O14 0.741502 0.842464 0.928306
O O15 0.000000 0.886887 0.945371
O O16 0.770442 0.902780 0.000000
O O17 0.250000 0.250000 0.906750
O O18 0.000000 0.300510 0.891531
O O19 0.801299 0.500000 0.500000
O O20 0.746958 0.551105 0.427699
O O21 0.000000 0.500000 0.432887
O O22 0.218066 0.106535 0.500000
O O23 0.000000 0.103428 0.438969
#
# Coordination Sequence:
#
# PCOD9486393 Si02
#       8
#    16  16  16  16  16  16   8  16
#     4   8  15  29  50  75  99 124 158 200 243 286
#     4  10  20  34  53  77 104 134 170 208 253 303
#     4  10  21  36  54  77 107 144 182 223 270 325
#     4  10  19  32  52  76 100 127 161 203 248 295
#     4   9  18  32  49  71  98 126 159 198 240 289
#     4  11  21  33  49  69  96 127 160 199 241 290
#     4   9  17  31  53  79 105 137 179 225 273 321
#     4  10  20  34  54  80 110 144 184 230 275 321
#
# _framework density 17.339517000000001
#
# number of rings (size 3 to 8) (size 9 to 14) (size 15 to 20)
#    0.000    2.333    0.000    4.200    0.000    4.267 
#    0.000    1.333    1.467   10.000    0.000    3.733 
#    0.000    0.000    0.000    0.000    0.000    0.000 
#
# Total GULP energy -334630.874615 kJ/mol
# GULP energy per Si atom -5577.181244 kJ/mol
# Density = 1.730005 g / cm^3
# Si number density = 17.339517 Si / 1000 Ang^3
#
#
#
# Elastic Constant Matrix: (Units=GPa)
#
#
# Indices 1 2 3 4 5 6 
#
# 1 45.6076 39.0246 35.6085 0.0000 0.0000 0.0000
# 2 39.0246 135.5747 60.3418 0.0000 0.0000 0.0000
# 3 35.6085 60.3418 69.5675 0.0000 0.0000 0.0000
# 4 0.0000 0.0000 0.0000 14.0473 0.0000 0.0000
# 5 0.0000 0.0000 0.0000 0.0000 26.0607 0.0000
# 6 0.0000 0.0000 0.0000 0.0000 0.0000 25.2157
#
#
#
# Elastic Compliance Matrix: (Units=1/GPa)
#
#
# Indices 1 2 3 4 5 6 
#
# 1 0.037615 -0.003678 -0.016063 0.000000 0.000000 0.000000
# 2 -0.003678 0.012374 -0.008850 0.000000 0.000000 0.000000
# 3 -0.016063 -0.008850 0.030273 0.000000 0.000000 0.000000
# 4 0.000000 0.000000 0.000000 0.071188 0.000000 0.000000
# 5 0.000000 0.000000 0.000000 0.000000 0.038372 0.000000
# 6 0.000000 0.000000 0.000000 0.000000 0.000000 0.039658
#
#
# Mechanical properties :
#
#
# Convention : Reuss Voigt Hill
#
# Bulk Modulus (GPa) = 43.32949 57.85550 50.59250
# Shear Modulus (GPa) = 16.98631 20.78309 18.88470
#
# Velocity S-wave (km/s) = 3.13330 3.46583 3.30375
# Velocity P-wave (km/s) = 6.17521 7.03240 6.61770
#
# Compressibility (1/GPa) = 0.02307897
#
# Stress axis : x y z
#
# Youngs Moduli (GPa) = 26.58545 80.81629 33.03253
#
# Poissons Ratio (x) = 0.29722 0.53061
# Poissons Ratio (y) = 0.09777 0.29235
# Poissons Ratio (z) = 0.42705 0.71525
#
# Static dielectric constant tensor:
#      x y z
#    x 1.582390 0.000000 0.000000 
#    y 0.000000 1.587220 0.000000 
#    z 0.000000 0.000000 1.580440 
# 
# From -- ./inp_files/73903.got.cif
#   From: 2010.05.17/outbox.cif.g08.bks.cpg/sg65_37_cif.got.tgz:73903.got - 2010.06.03 17:01:31.
