data_PCOD9487459
_publ_section_title
;
Structure prediction by ZEFSAII (Michael W. Deem and Ramdas Pophale) SiO2 
 PCOD9487459
Probable space group: C M M M
;
_chemical_formula_sum "Si O2"
_cell_formula_units_Z 60
_cell_length_a 14.320819
_cell_length_b 18.242878
_cell_length_c 12.784275
_cell_angle_alpha 90.000000
_cell_angle_beta 90.000000
_cell_angle_gamma 90.000000
_cell_volume 3339.929607
_symmetry_space_group_name_H-M "C M M M"
_symmetry_group_IT_number 65
_symmetry_cell_setting 'orthorhombic'
loop_
_space_group_symop_operation_xyz
x,y,z
-x,-y,z
x,-y,-z
-x,y,-z
-x,-y,-z
x,y,-z
-x,y,z
x,-y,z
1/2+x,1/2+y,z
1/2-x,1/2-y,z
1/2+x,1/2-y,-z
1/2-x,1/2+y,-z
1/2-x,1/2-y,-z
1/2+x,1/2+y,-z
1/2-x,1/2+y,z
1/2+x,1/2-y,z
loop_
_atom_site_type_symbol
_atom_site_label
_atom_site_fract_x
_atom_site_fract_y
_atom_site_fract_z
Si Si1 0.294961 0.831152 0.694054
Si Si2 0.200467 0.912773 0.500000
Si Si3 0.802398 0.913429 0.123119
Si Si4 0.000000 0.835847 0.877224
Si Si5 0.000000 0.838536 0.500000
Si Si6 0.500000 0.776054 0.309209
O O1 0.250000 0.750000 0.690270
O O2 0.250039 0.878395 0.601404
O O3 0.266770 0.868861 0.802845
O O4 0.405505 0.822142 0.681194
O O5 0.093101 0.886829 0.500000
O O6 0.206789 0.000000 0.500000
O O7 0.906967 0.883214 0.142947
O O8 0.798726 0.000000 0.145366
O O9 0.782524 0.902541 0.000000
O O10 0.000000 0.766508 0.801260
O O11 0.000000 0.815585 0.000000
O O12 0.000000 0.785994 0.601109
#
# Coordination Sequence:
#
# PCOD9487459 Si02
#       6
#    16   8  16   8   4   8
#     4  12  23  41  62  88 124 160 199 246 293 358
#     4  12  25  42  65  93 121 156 197 246 305 358
#     4  10  21  38  61  90 124 160 199 248 304 355
#     4  10  19  34  60  92 123 152 194 252 307 356
#     4  12  21  40  66  92 123 146 190 254 309 354
#     4  12  24  38  61  92 119 157 201 245 295 351
#
# _framework density 17.964448999999998
#
# number of rings (size 3 to 8) (size 9 to 14) (size 15 to 20)
#    0.000    0.800    5.333    2.600    0.000    3.200 
#    0.000    7.333    0.000    1.600    0.000    0.000 
#    0.000    0.000    0.000    0.000    0.000    0.000 
#
# Total GULP energy -167762.739185 kJ/mol
# GULP energy per Si atom -5592.091306 kJ/mol
# Density = 1.792356 g / cm^3
# Si number density = 17.964449 Si / 1000 Ang^3
#
#
#
# Elastic Constant Matrix: (Units=GPa)
#
#
# Indices 1 2 3 4 5 6 
#
# 1 172.2591 82.1233 59.8591 0.0000 0.0000 0.0000
# 2 82.1233 129.3397 71.8944 0.0000 0.0000 0.0000
# 3 59.8591 71.8944 73.8432 0.0000 0.0000 0.0000
# 4 0.0000 0.0000 0.0000 41.3586 0.0000 0.0000
# 5 0.0000 0.0000 0.0000 0.0000 -106.6205 0.0000
# 6 0.0000 0.0000 0.0000 0.0000 0.0000 9.8360
#
#
#
# Elastic Compliance Matrix: (Units=1/GPa)
#
#
# Indices 1 2 3 4 5 6 
#
# 1 0.008760 -0.003520 -0.003674 0.000000 0.000000 0.000000
# 2 -0.003520 0.018266 -0.014930 0.000000 0.000000 0.000000
# 3 -0.003674 -0.014930 0.031057 0.000000 0.000000 0.000000
# 4 0.000000 0.000000 0.000000 0.024179 0.000000 0.000000
# 5 0.000000 0.000000 0.000000 0.000000 -0.009379 0.000000
# 6 0.000000 0.000000 0.000000 0.000000 0.000000 0.101667
#
#
# Mechanical properties :
#
#
# Convention : Reuss Voigt Hill
#
# Bulk Modulus (GPa) = 72.28618 89.24396 80.76507
# Shear Modulus (GPa) = 22.38046 -0.31417 11.03314
#
# Velocity S-wave (km/s) = 3.53345 -0.41865 2.48092
# Velocity P-wave (km/s) = 7.54803 7.03934 7.29812
#
# Compressibility (1/GPa) = 0.01383390
#
# Stress axis : x y z
#
# Youngs Moduli (GPa) = 114.15540 54.74797 32.19906
#
# Poissons Ratio (x) = 0.19270 0.11830
# Poissons Ratio (y) = 0.40180 0.48074
# Poissons Ratio (z) = 0.41943 0.81740
#
# Static dielectric constant tensor:
#      x y z
#    x 1.593850 0.000000 0.000000 
#    y 0.000000 1.575430 0.000000 
#    z 0.000000 0.000000 1.618770 
# 
# From -- ./inp_files/23836.got.cif
#   From: 2010.05.17/outbox.cif.g08.bks.cpg/sg65_12_cif.got.tgz:23836.got - 2010.06.03 17:01:31.
