data_PCOD9487936
_publ_section_title
;
Structure prediction by ZEFSAII (Michael W. Deem and Ramdas Pophale) SiO2 
 PCOD9487936
Probable space group: C M M M
;
_chemical_formula_sum "Si O2"
_cell_formula_units_Z 72
_cell_length_a 37.169428
_cell_length_b 8.866794
_cell_length_c 14.742753
_cell_angle_alpha 90.000000
_cell_angle_beta 90.000000
_cell_angle_gamma 90.000000
_cell_volume 4858.823082
_symmetry_space_group_name_H-M "C M M M"
_symmetry_group_IT_number 65
_symmetry_cell_setting 'orthorhombic'
loop_
_space_group_symop_operation_xyz
x,y,z
-x,-y,z
x,-y,-z
-x,y,-z
-x,-y,-z
x,y,-z
-x,y,z
x,-y,z
1/2+x,1/2+y,z
1/2-x,1/2-y,z
1/2+x,1/2-y,-z
1/2-x,1/2+y,-z
1/2-x,1/2-y,-z
1/2+x,1/2+y,-z
1/2-x,1/2+y,z
1/2+x,1/2-y,z
loop_
_atom_site_type_symbol
_atom_site_label
_atom_site_fract_x
_atom_site_fract_y
_atom_site_fract_z
Si Si1 0.569348 0.318331 0.707010
Si Si2 0.287065 0.326275 0.389709
Si Si3 0.637418 0.179934 0.607294
Si Si4 0.500000 0.819885 0.607953
Si Si5 0.041866 0.816783 0.100530
O O1 0.568406 0.500000 0.702560
O O2 0.605792 0.257482 0.663240
O O3 0.535333 0.252670 0.652465
O O4 0.564460 0.270058 0.812087
O O5 0.286102 0.324160 0.500000
O O6 0.288917 0.500000 0.361057
O O7 0.250000 0.250000 0.358380
O O8 0.323253 0.238584 0.363952
O O9 0.632873 0.216089 0.500000
O O10 0.635503 0.000000 0.616596
O O11 0.500000 0.793405 0.500000
O O12 0.500000 0.000000 0.623084
O O13 0.000000 0.772469 0.113406
O O14 0.042227 0.000000 0.099477
O O15 0.053469 0.765749 0.000000
#
# Coordination Sequence:
#
# PCOD9487936 Si02
#       5
#    16  16  16   8  16
#     4  11  20  31  48  68  86 111 150 191 226 263
#     4   9  16  27  44  65  88 116 151 188 223 261
#     4  10  20  32  44  61  90 126 156 184 222 264
#     4  11  23  35  44  57  84 122 155 183 220 265
#     4   8  14  27  47  68  87 107 137 181 232 279
#
# _framework density 14.818402000000001
#
# number of rings (size 3 to 8) (size 9 to 14) (size 15 to 20)
#    0.000    2.333    1.111    3.667    0.000    7.556 
#    0.000    0.000    0.000    3.333    0.000    0.000 
#    0.000    0.889    0.000    2.444    0.000    3.556 
#
# Total GULP energy -200695.563586 kJ/mol
# GULP energy per Si atom -5574.876766 kJ/mol
# Density = 1.478467 g / cm^3
# Si number density = 14.818402 Si / 1000 Ang^3
#
#
#
# Elastic Constant Matrix: (Units=GPa)
#
#
# Indices 1 2 3 4 5 6 
#
# 1 135.4548 49.0164 68.6626 0.0000 0.0000 0.0000
# 2 49.0164 57.6315 45.9281 0.0000 0.0000 0.0000
# 3 68.6626 45.9281 94.6713 0.0000 0.0000 0.0000
# 4 0.0000 0.0000 0.0000 4.6728 0.0000 0.0000
# 5 0.0000 0.0000 0.0000 0.0000 2.0835 0.0000
# 6 0.0000 0.0000 0.0000 0.0000 0.0000 30.0561
#
#
#
# Elastic Compliance Matrix: (Units=1/GPa)
#
#
# Indices 1 2 3 4 5 6 
#
# 1 0.012710 -0.005647 -0.006479 0.000000 0.000000 0.000000
# 2 -0.005647 0.030797 -0.010845 0.000000 0.000000 0.000000
# 3 -0.006479 -0.010845 0.020523 0.000000 0.000000 0.000000
# 4 0.000000 0.000000 0.000000 0.214006 0.000000 0.000000
# 5 0.000000 0.000000 0.000000 0.000000 0.479951 0.000000
# 6 0.000000 0.000000 0.000000 0.000000 0.000000 0.033271
#
#
# Mechanical properties :
#
#
# Convention : Reuss Voigt Hill
#
# Bulk Modulus (GPa) = 55.28333 68.33019 61.80676
# Shear Modulus (GPa) = 5.92959 15.63918 10.78438
#
# Velocity S-wave (km/s) = 2.00255 3.25220 2.70065
# Velocity P-wave (km/s) = 6.53721 7.76622 7.17807
#
# Compressibility (1/GPa) = 0.01808864
#
# Stress axis : x y z
#
# Youngs Moduli (GPa) = 78.67760 32.47041 48.72565
#
# Poissons Ratio (x) = 0.18336 0.31568
# Poissons Ratio (y) = 0.44429 0.52844
# Poissons Ratio (z) = 0.50973 0.35215
#
# Static dielectric constant tensor:
#      x y z
#    x 1.469160 0.000000 0.000000 
#    y 0.000000 1.498400 0.000000 
#    z 0.000000 0.000000 1.487850 
# 
# From -- ./inp_files/36938.got.cif
#   From: 2010.05.17/outbox.cif.g08.bks.cpg/sg65_19_cif.got.tgz:36938.got - 2010.06.03 17:01:31.
