data_PCOD9487892
_publ_section_title
;
Structure prediction by ZEFSAII (Michael W. Deem and Ramdas Pophale) SiO2 
 PCOD9487892
Probable space group: C M M M
;
_chemical_formula_sum "Si O2"
_cell_formula_units_Z 82
_cell_length_a 26.803657
_cell_length_b 22.713762
_cell_length_c 9.244863
_cell_angle_alpha 90.000000
_cell_angle_beta 90.000000
_cell_angle_gamma 90.000000
_cell_volume 5628.382477
_symmetry_space_group_name_H-M "C M M M"
_symmetry_group_IT_number 65
_symmetry_cell_setting 'orthorhombic'
loop_
_space_group_symop_operation_xyz
x,y,z
-x,-y,z
x,-y,-z
-x,y,-z
-x,-y,-z
x,y,-z
-x,y,z
x,-y,z
1/2+x,1/2+y,z
1/2-x,1/2-y,z
1/2+x,1/2-y,-z
1/2-x,1/2+y,-z
1/2-x,1/2-y,-z
1/2+x,1/2+y,-z
1/2-x,1/2+y,z
1/2+x,1/2-y,z
loop_
_atom_site_type_symbol
_atom_site_label
_atom_site_fract_x
_atom_site_fract_y
_atom_site_fract_z
Si Si1 0.695153 0.000000 0.324876
Si Si2 0.237481 0.612617 0.168284
Si Si3 0.000000 0.500000 0.000000
Si Si4 0.919625 0.500000 0.737852
Si Si5 0.298284 0.293464 0.666740
Si Si6 0.557315 0.868217 0.336317
Si Si7 0.358193 0.199531 0.833381
O O1 0.724237 0.057127 0.267650
O O2 0.640484 0.000000 0.249092
O O3 0.689121 0.000000 0.500000
O O4 0.281938 0.650919 0.237399
O O5 0.188660 0.654656 0.170872
O O6 0.246638 0.596964 0.000000
O O7 0.044368 0.500000 0.875994
O O8 0.931987 0.438051 0.662865
O O9 0.308496 0.308951 0.500000
O O10 0.250000 0.250000 0.666606
O O11 0.342256 0.255748 0.738997
O O12 0.564175 0.846276 0.500000
O O13 0.500000 0.859800 0.291839
O O14 0.595051 0.835069 0.231681
O O15 0.366377 0.215996 0.000000
#
# Coordination Sequence:
#
# PCOD9487892 Si02
#       7
#     8  16   2   8  16  16  16
#     4  12  23  33  49  70  93 123 159 195 240 284
#     4  10  20  32  47  68  93 118 150 190 233 282
#     4  12  28  36  50  64  84 120 170 208 256 286
#     4  12  24  35  49  61  88 120 161 204 245 287
#     4   9  17  31  49  67  88 114 147 186 230 279
#     4  11  22  35  48  65  88 119 159 203 243 281
#     4  10  20  31  48  67  88 117 151 192 237 282
#
# _framework density 14.569017000000001
#
# number of rings (size 3 to 8) (size 9 to 14) (size 15 to 20)
#    0.000    1.561    2.927    2.927    2.732    5.073 
#    0.000    0.000    0.000    0.000    0.000    0.000 
#    0.000    0.000    0.000    0.878    0.000   16.195 
#
# Total GULP energy -228381.266819 kJ/mol
# GULP energy per Si atom -5570.274800 kJ/mol
# Density = 1.453586 g / cm^3
# Si number density = 14.569017 Si / 1000 Ang^3
#
#
#
# Elastic Constant Matrix: (Units=GPa)
#
#
# Indices 1 2 3 4 5 6 
#
# 1 56.7905 34.3327 44.8225 0.0000 0.0000 0.0000
# 2 34.3327 54.4292 42.5802 0.0000 0.0000 0.0000
# 3 44.8225 42.5802 101.5639 0.0000 0.0000 0.0000
# 4 0.0000 0.0000 0.0000 60.0244 0.0000 0.0000
# 5 0.0000 0.0000 0.0000 0.0000 20.6889 0.0000
# 6 0.0000 0.0000 0.0000 0.0000 0.0000 13.3101
#
#
#
# Elastic Compliance Matrix: (Units=1/GPa)
#
#
# Indices 1 2 3 4 5 6 
#
# 1 0.032888 -0.013973 -0.008656 0.000000 0.000000 0.000000
# 2 -0.013973 0.033276 -0.007784 0.000000 0.000000 0.000000
# 3 -0.008656 -0.007784 0.016930 0.000000 0.000000 0.000000
# 4 0.000000 0.000000 0.000000 0.016660 0.000000 0.000000
# 5 0.000000 0.000000 0.000000 0.000000 0.048335 0.000000
# 6 0.000000 0.000000 0.000000 0.000000 0.000000 0.075131
#
#
# Mechanical properties :
#
#
# Convention : Reuss Voigt Hill
#
# Bulk Modulus (GPa) = 44.90995 50.69492 47.80243
# Shear Modulus (GPa) = 17.15453 24.87459 21.01456
#
# Velocity S-wave (km/s) = 3.43515 4.13651 3.80203
# Velocity P-wave (km/s) = 6.82834 7.59514 7.22192
#
# Compressibility (1/GPa) = 0.02226678
#
# Stress axis : x y z
#
# Youngs Moduli (GPa) = 30.40626 30.05161 59.06844
#
# Poissons Ratio (x) = 0.41992 0.51129
# Poissons Ratio (y) = 0.42488 0.45979
# Poissons Ratio (z) = 0.26319 0.23392
#
# Static dielectric constant tensor:
#      x y z
#    x 1.455310 0.000000 0.000000 
#    y 0.000000 1.471630 0.000000 
#    z 0.000000 0.000000 1.503120 
# 
# From -- ./inp_files/13881.got.cif
#   From: 2010.05.17/outbox.cif.g08.bks.cpg/sg65_7_cif.got.tgz:13881.got - 2010.06.03 17:01:31.
