data_PCOD9487630
_publ_section_title
;
Structure prediction by ZEFSAII (Michael W. Deem and Ramdas Pophale) SiO2 
 PCOD9487630
Probable space group: C M M M
;
_chemical_formula_sum "Si O2"
_cell_formula_units_Z 64
_cell_length_a 9.731548
_cell_length_b 32.536068
_cell_length_c 11.778087
_cell_angle_alpha 90.000000
_cell_angle_beta 90.000000
_cell_angle_gamma 90.000000
_cell_volume 3729.252196
_symmetry_space_group_name_H-M "C M M M"
_symmetry_group_IT_number 65
_symmetry_cell_setting 'orthorhombic'
loop_
_space_group_symop_operation_xyz
x,y,z
-x,-y,z
x,-y,-z
-x,y,-z
-x,-y,-z
x,y,-z
-x,y,z
x,-y,z
1/2+x,1/2+y,z
1/2-x,1/2-y,z
1/2+x,1/2-y,-z
1/2-x,1/2+y,-z
1/2-x,1/2-y,-z
1/2+x,1/2+y,-z
1/2-x,1/2+y,z
1/2+x,1/2-y,z
loop_
_atom_site_type_symbol
_atom_site_label
_atom_site_fract_x
_atom_site_fract_y
_atom_site_fract_z
Si Si1 0.000000 0.319949 0.273823
Si Si2 0.000000 0.224067 0.273197
Si Si3 0.500000 0.605805 0.869059
Si Si4 0.000000 0.169244 0.500000
Si Si5 0.301141 0.593044 0.500000
Si Si6 0.500000 0.548697 0.332579
Si Si7 0.500000 0.875454 0.500000
Si Si8 0.278960 0.323490 0.864426
O O1 0.000000 0.271671 0.304061
O O2 0.134354 0.327728 0.197531
O O3 0.000000 0.347243 0.387101
O O4 0.000000 0.196547 0.386834
O O5 0.131356 0.211846 0.196615
O O6 0.500000 0.565843 0.793280
O O7 0.630567 0.635314 0.846672
O O8 0.500000 0.595067 0.000000
O O9 0.130689 0.138572 0.500000
O O10 0.367875 0.568751 0.394555
O O11 0.138989 0.597824 0.500000
O O12 0.500000 0.500000 0.343817
O O13 0.267369 0.316301 0.000000
#
# Coordination Sequence:
#
# PCOD9487630 Si02
#       8
#     8   8   8   4   8   8   4  16
#     4  12  23  33  49  76 104 135 179 227 264 298
#     4  11  21  34  51  72 103 137 178 226 269 300
#     4   9  18  35  56  77 103 133 165 202 249 308
#     4  10  19  36  55  72 100 142 178 212 263 310
#     4  10  20  35  56  75 101 136 170 204 245 306
#     4  10  19  36  59  83 105 127 161 202 251 305
#     4  12  23  36  53  76 106 138 176 212 255 308
#     4  10  21  36  53  73 101 140 180 215 257 306
#
# _framework density 17.161617
#
# number of rings (size 3 to 8) (size 9 to 14) (size 15 to 20)
#    0.000    1.750    0.000    9.375    0.000    3.250 
#    0.000    5.000    0.000    0.000    0.000    0.000 
#    0.000   10.000    0.000    0.000    0.000    0.000 
#
# Total GULP energy -178735.958128 kJ/mol
# GULP energy per Si atom -5585.498692 kJ/mol
# Density = 1.712256 g / cm^3
# Si number density = 17.161617 Si / 1000 Ang^3
#
#
#
# Elastic Constant Matrix: (Units=GPa)
#
#
# Indices 1 2 3 4 5 6 
#
# 1 171.5712 55.3998 61.3210 0.0000 0.0000 0.0000
# 2 55.3998 111.9628 71.8625 0.0000 0.0000 0.0000
# 3 61.3210 71.8625 97.8775 0.0000 0.0000 0.0000
# 4 0.0000 0.0000 0.0000 -18.2986 0.0000 0.0000
# 5 0.0000 0.0000 0.0000 0.0000 -1.8337 0.0000
# 6 0.0000 0.0000 0.0000 0.0000 0.0000 4.4389
#
#
#
# Elastic Compliance Matrix: (Units=1/GPa)
#
#
# Indices 1 2 3 4 5 6 
#
# 1 0.007614 -0.001335 -0.003790 0.000000 0.000000 0.000000
# 2 -0.001335 0.017126 -0.011738 0.000000 0.000000 0.000000
# 3 -0.003790 -0.011738 0.021209 0.000000 0.000000 0.000000
# 4 0.000000 0.000000 0.000000 -0.054649 0.000000 0.000000
# 5 0.000000 0.000000 0.000000 0.000000 -0.545340 0.000000
# 6 0.000000 0.000000 0.000000 0.000000 0.000000 0.225282
#
#
# Mechanical properties :
#
#
# Convention : Reuss Voigt Hill
#
# Bulk Modulus (GPa) = 81.80728 84.28646 83.04687
# Shear Modulus (GPa) = -17.18464 9.71653 -3.73406
#
# Velocity S-wave (km/s) = -3.16783 2.38203 -1.47667
# Velocity P-wave (km/s) = 5.86447 7.53561 6.75194
#
# Compressibility (1/GPa) = 0.01222385
#
# Stress axis : x y z
#
# Youngs Moduli (GPa) = 131.33407 58.39207 47.14901
#
# Poissons Ratio (x) = 0.07794 0.17871
# Poissons Ratio (y) = 0.17529 0.55341
# Poissons Ratio (z) = 0.49781 0.68538
#
# Static dielectric constant tensor:
#      x y z
#    x 1.585650 0.000000 0.000000 
#    y 0.000000 1.557650 0.000000 
#    z 0.000000 0.000000 1.584760 
# 
# From -- ./inp_files/21148.got.cif
#   From: 2010.05.17/outbox.cif.g08.bks.cpg/sg65_11_cif.got.tgz:21148.got - 2010.06.03 17:01:31.
