data_PCOD9487939
_publ_section_title
;
Structure prediction by ZEFSAII (Michael W. Deem and Ramdas Pophale) SiO2 
 PCOD9487939
Probable space group: C M M M
;
_chemical_formula_sum "Si O2"
_cell_formula_units_Z 80
_cell_length_a 24.243966
_cell_length_b 7.246931
_cell_length_c 21.537015
_cell_angle_alpha 90.000000
_cell_angle_beta 90.000000
_cell_angle_gamma 90.000000
_cell_volume 3783.931825
_symmetry_space_group_name_H-M "C M M M"
_symmetry_group_IT_number 65
_symmetry_cell_setting 'orthorhombic'
loop_
_space_group_symop_operation_xyz
x,y,z
-x,-y,z
x,-y,-z
-x,y,-z
-x,-y,-z
x,y,-z
-x,y,z
x,-y,z
1/2+x,1/2+y,z
1/2-x,1/2-y,z
1/2+x,1/2-y,-z
1/2-x,1/2+y,-z
1/2-x,1/2-y,-z
1/2+x,1/2+y,-z
1/2-x,1/2+y,z
1/2+x,1/2-y,z
loop_
_atom_site_type_symbol
_atom_site_label
_atom_site_fract_x
_atom_site_fract_y
_atom_site_fract_z
Si Si1 0.500000 0.723457 0.760193
Si Si2 0.936193 0.775589 0.429708
Si Si3 0.000000 0.775942 0.097040
Si Si4 0.814918 0.219301 0.191350
Si Si5 0.877211 0.775086 0.932741
Si Si6 0.113314 0.775601 0.695029
O O1 0.500000 0.500000 0.759601
O O2 0.500000 0.779647 0.831235
O O3 0.444399 0.779074 0.726566
O O4 0.923430 0.717240 0.500000
O O5 0.893797 0.715558 0.376328
O O6 0.000000 0.722285 0.415665
O O7 0.936387 0.000000 0.429424
O O8 0.941399 0.718333 0.069828
O O9 0.000000 0.000000 0.093445
O O10 0.750000 0.250000 0.187199
O O11 0.845824 0.288530 0.129278
O O12 0.839857 0.287633 0.256891
O O13 0.824996 0.000000 0.191513
O O14 0.876313 0.000000 0.931254
O O15 0.853690 0.719649 0.000000
O O16 0.116128 0.000000 0.693187
#
# Coordination Sequence:
#
# PCOD9487939 Si02
#       6
#     8  16   8  16  16  16
#     4   9  12  17  33  57  81 104 130 164 209 256
#     4   8  12  17  29  54  87 115 132 154 201 260
#     4   9  13  20  35  59  88 108 125 160 214 265
#     4  10  20  32  45  61  82 112 148 179 207 241
#     4   9  16  25  39  61  87 110 133 168 214 258
#     4   9  14  22  37  57  83 110 136 169 209 251
#
# _framework density 21.142029000000001
#
# number of rings (size 3 to 8) (size 9 to 14) (size 15 to 20)
#    0.000    3.000    3.000    0.900    0.000    1.600 
#    0.000    0.000    0.000    0.600    0.000    2.800 
#    0.000    1.600    0.000    2.200    0.000    2.000 
#
# Total GULP energy -223127.430869 kJ/mol
# GULP energy per Si atom -5578.185772 kJ/mol
# Density = 2.109391 g / cm^3
# Si number density = 21.142029 Si / 1000 Ang^3
#
#
#
# Elastic Constant Matrix: (Units=GPa)
#
#
# Indices 1 2 3 4 5 6 
#
# 1 119.0571 -3.0316 90.6003 0.0000 0.0000 0.0000
# 2 -3.0316 95.4685 6.8614 0.0000 0.0000 0.0000
# 3 90.6003 6.8614 226.6930 0.0000 0.0000 0.0000
# 4 0.0000 0.0000 0.0000 -20.9918 0.0000 0.0000
# 5 0.0000 0.0000 0.0000 0.0000 19.0841 0.0000
# 6 0.0000 0.0000 0.0000 0.0000 0.0000 -9.9753
#
#
#
# Elastic Compliance Matrix: (Units=1/GPa)
#
#
# Indices 1 2 3 4 5 6 
#
# 1 0.012122 0.000735 -0.004867 0.000000 0.000000 0.000000
# 2 0.000735 0.010542 -0.000613 0.000000 0.000000 0.000000
# 3 -0.004867 -0.000613 0.006375 0.000000 0.000000 0.000000
# 4 0.000000 0.000000 0.000000 -0.047638 0.000000 0.000000
# 5 0.000000 0.000000 0.000000 0.000000 0.052400 0.000000
# 6 0.000000 0.000000 0.000000 0.000000 0.000000 -0.100247
#
#
# Mechanical properties :
#
#
# Convention : Reuss Voigt Hill
#
# Bulk Modulus (GPa) = 51.15378 70.00876 60.58127
# Shear Modulus (GPa) = -99.12597 20.74262 -39.19167
#
# Velocity S-wave (km/s) = -6.85474 3.13566 -4.31017
# Velocity P-wave (km/s) = 6.19695 6.80406 1.98659
#
# Compressibility (1/GPa) = 0.01954890
#
# Stress axis : x y z
#
# Youngs Moduli (GPa) = 82.49781 94.85844 156.86664
#
# Poissons Ratio (x) = -0.06969 0.76343
# Poissons Ratio (y) = -0.06061 0.09611
# Poissons Ratio (z) = 0.40150 0.05812
#
# Static dielectric constant tensor:
#      x y z
#    x 1.709930 0.000000 0.000000 
#    y 0.000000 1.858360 0.000000 
#    z 0.000000 0.000000 1.787700 
# 
# From -- ./inp_files/65662.got.cif
#   From: 2010.05.17/outbox.cif.g08.bks.cpg/sg65_33_cif.got.tgz:65662.got - 2010.06.03 17:01:31.
