data_PCOD9487652
_publ_section_title
;
Structure prediction by ZEFSAII (Michael W. Deem and Ramdas Pophale) SiO2 
 PCOD9487652
Probable space group: C M M M
;
_chemical_formula_sum "Si O2"
_cell_formula_units_Z 66
_cell_length_a 26.535920
_cell_length_b 15.094378
_cell_length_c 8.095756
_cell_angle_alpha 90.000000
_cell_angle_beta 90.000000
_cell_angle_gamma 90.000000
_cell_volume 3242.700072
_symmetry_space_group_name_H-M "C M M M"
_symmetry_group_IT_number 65
_symmetry_cell_setting 'orthorhombic'
loop_
_space_group_symop_operation_xyz
x,y,z
-x,-y,z
x,-y,-z
-x,y,-z
-x,-y,-z
x,y,-z
-x,y,z
x,-y,z
1/2+x,1/2+y,z
1/2-x,1/2-y,z
1/2+x,1/2-y,-z
1/2-x,1/2+y,-z
1/2-x,1/2-y,-z
1/2+x,1/2+y,-z
1/2-x,1/2+y,z
1/2+x,1/2-y,z
loop_
_atom_site_type_symbol
_atom_site_label
_atom_site_fract_x
_atom_site_fract_y
_atom_site_fract_z
Si Si1 0.441360 0.000000 0.798043
Si Si2 0.860101 0.644307 0.801076
Si Si3 0.924647 0.000000 0.316408
Si Si4 0.249997 0.142319 0.687473
Si Si5 0.643281 0.349585 0.191617
Si Si6 0.000000 0.000000 0.000000
O O1 0.407421 0.084755 0.746456
O O2 0.500000 0.000000 0.743330
O O3 0.442709 0.000000 0.000000
O O4 0.805193 0.611513 0.742600
O O5 0.863071 0.747529 0.751993
O O6 0.859306 0.641832 0.000000
O O7 0.890162 0.086491 0.299498
O O8 0.947376 0.000000 0.500000
O O9 0.957676 0.000000 0.150107
O O10 0.240880 0.114283 0.500000
O O11 0.250000 0.250000 0.692469
O O12 0.201389 0.119847 0.794769
O O13 0.628004 0.353436 0.000000
#
# Coordination Sequence:
#
# PCOD9487652 Si02
#       6
#     8  16   8  16  16   2
#     4   9  18  35  55  83 112 149 203 255 297 351
#     4   9  18  33  56  85 119 160 202 250 304 361
#     4  12  25  44  68  92 124 159 203 259 310 368
#     4   9  17  30  52  83 119 156 197 245 299 365
#     4  10  19  36  58  90 123 159 200 248 305 370
#     4  12  26  52  64  90 120 158 206 260 306 374
#
# _framework density 20.353408999999999
#
# number of rings (size 3 to 8) (size 9 to 14) (size 15 to 20)
#    0.000    2.303    1.212    1.636    0.000    4.848 
#    2.182    4.242    0.000    1.455    0.000    0.000 
#    0.000    0.000    0.000    0.000    0.000    0.000 
#
# Total GULP energy -183768.108434 kJ/mol
# GULP energy per Si atom -5568.730559 kJ/mol
# Density = 2.030708 g / cm^3
# Si number density = 20.353409 Si / 1000 Ang^3
#
#
#
# Elastic Constant Matrix: (Units=GPa)
#
#
# Indices 1 2 3 4 5 6 
#
# 1 166.9251 69.2682 36.9306 0.0000 0.0000 0.0000
# 2 69.2682 97.6076 27.0216 0.0000 0.0000 0.0000
# 3 36.9306 27.0216 82.6859 0.0000 0.0000 0.0000
# 4 0.0000 0.0000 0.0000 -1.2403 0.0000 0.0000
# 5 0.0000 0.0000 0.0000 0.0000 -685.4899 0.0000
# 6 0.0000 0.0000 0.0000 0.0000 0.0000 -25.8864
#
#
#
# Elastic Compliance Matrix: (Units=1/GPa)
#
#
# Indices 1 2 3 4 5 6 
#
# 1 0.008805 -0.005673 -0.002079 0.000000 0.000000 0.000000
# 2 -0.005673 0.014919 -0.002342 0.000000 0.000000 0.000000
# 3 -0.002079 -0.002342 0.013788 0.000000 0.000000 0.000000
# 4 0.000000 0.000000 0.000000 -0.806240 0.000000 0.000000
# 5 0.000000 0.000000 0.000000 0.000000 -0.001459 0.000000
# 6 0.000000 0.000000 0.000000 0.000000 0.000000 -0.038630
#
#
# Mechanical properties :
#
#
# Convention : Reuss Voigt Hill
#
# Bulk Modulus (GPa) = 57.72049 68.18439 62.95244
# Shear Modulus (GPa) = -6.38687 -128.25680 -67.32183
#
# Velocity S-wave (km/s) = -1.77336 -7.94680 -5.75745
# Velocity P-wave (km/s) = 4.92216 7.11543 3.63330
#
# Compressibility (1/GPa) = 0.01732487
#
# Stress axis : x y z
#
# Youngs Moduli (GPa) = 113.57671 67.02761 72.52860
#
# Poissons Ratio (x) = 0.38024 0.15076
# Poissons Ratio (y) = 0.64430 0.16985
# Poissons Ratio (z) = 0.23608 0.15697
#
# Static dielectric constant tensor:
#      x y z
#    x 1.708670 0.000000 0.000000 
#    y 0.000000 1.745480 0.000000 
#    z 0.000000 0.000000 1.703570 
# 
# From -- ./inp_files/15691.got.cif
#   From: 2010.05.17/outbox.cif.g08.bks.cpg/sg65_8_cif.got.tgz:15691.got - 2010.06.03 17:01:31.
