data_PCOD9487923
_publ_section_title
;
Structure prediction by ZEFSAII (Michael W. Deem and Ramdas Pophale) SiO2 
 PCOD9487923
Probable space group: C M M M
;
_chemical_formula_sum "Si O2"
_cell_formula_units_Z 104
_cell_length_a 23.818282
_cell_length_b 21.307675
_cell_length_c 9.434955
_cell_angle_alpha 90.000000
_cell_angle_beta 90.000000
_cell_angle_gamma 90.000000
_cell_volume 4788.354881
_symmetry_space_group_name_H-M "C M M M"
_symmetry_group_IT_number 65
_symmetry_cell_setting 'orthorhombic'
loop_
_space_group_symop_operation_xyz
x,y,z
-x,-y,z
x,-y,-z
-x,y,-z
-x,-y,-z
x,y,-z
-x,y,z
x,-y,z
1/2+x,1/2+y,z
1/2-x,1/2-y,z
1/2+x,1/2-y,-z
1/2-x,1/2+y,-z
1/2-x,1/2-y,-z
1/2+x,1/2+y,-z
1/2-x,1/2+y,z
1/2+x,1/2-y,z
loop_
_atom_site_type_symbol
_atom_site_label
_atom_site_fract_x
_atom_site_fract_y
_atom_site_fract_z
Si Si1 0.179928 0.405772 0.338178
Si Si2 0.313398 0.755232 0.337761
Si Si3 0.211827 0.073416 0.157236
Si Si4 0.500000 0.423191 0.161967
Si Si5 0.562133 0.248876 0.328260
Si Si6 0.608812 0.423288 0.339362
Si Si7 0.440589 0.900121 0.671529
O O1 0.190651 0.427709 0.500000
O O2 0.178451 0.330266 0.345863
O O3 0.228546 0.423038 0.231432
O O4 0.119031 0.427112 0.284366
O O5 0.308496 0.730190 0.500000
O O6 0.250000 0.750000 0.272239
O O7 0.374506 0.731416 0.279478
O O8 0.165694 0.098853 0.265435
O O9 0.197690 0.000000 0.142228
O O10 0.210374 0.101820 0.000000
O O11 0.500000 0.500000 0.158960
O O12 0.555647 0.404596 0.246126
O O13 0.500000 0.401558 0.000000
O O14 0.563095 0.255129 0.500000
O O15 0.500000 0.273784 0.280858
O O16 0.559523 0.174240 0.297107
O O17 0.603407 0.401077 0.500000
O O18 0.609101 0.500000 0.344858
O O19 0.439941 0.905625 0.500000
O O20 0.500000 0.926219 0.722991
#
# Coordination Sequence:
#
# PCOD9487923 Si02
#       7
#    16  16  16   8  16  16  16
#     4   9  16  26  43  65  85 110 142 175 216 261
#     4   8  13  21  35  59  87 109 133 168 210 255
#     4  10  20  32  44  59  82 112 145 182 223 265
#     4   9  15  23  37  59  87 113 135 165 211 263
#     4   7   9  14  26  47  76 106 132 160 197 240
#     4   9  16  26  41  61  83 106 136 176 218 256
#     4   7  10  18  34  57  82 103 129 171 214 247
#
# _framework density 21.719358
#
# number of rings (size 3 to 8) (size 9 to 14) (size 15 to 20)
#    0.000    3.615    0.000    3.923    0.000    3.692 
#    0.000    0.000    0.000    1.385    2.000    3.231 
#    0.000    0.000    0.000    0.000    0.000    0.000 
#
# Total GULP energy -289540.366778 kJ/mol
# GULP energy per Si atom -5568.083976 kJ/mol
# Density = 2.166992 g / cm^3
# Si number density = 21.719358 Si / 1000 Ang^3
#
#
#
# Elastic Constant Matrix: (Units=GPa)
#
#
# Indices 1 2 3 4 5 6 
#
# 1 253.7160 10.2307 74.0278 0.0000 0.0000 0.0000
# 2 10.2307 63.4736 -2.0278 0.0000 0.0000 0.0000
# 3 74.0278 -2.0278 108.4949 0.0000 0.0000 0.0000
# 4 0.0000 0.0000 0.0000 4.0847 0.0000 0.0000
# 5 0.0000 0.0000 0.0000 0.0000 -12.1690 0.0000
# 6 0.0000 0.0000 0.0000 0.0000 0.0000 14.4549
#
#
#
# Elastic Compliance Matrix: (Units=1/GPa)
#
#
# Indices 1 2 3 4 5 6 
#
# 1 0.004973 -0.000911 -0.003410 0.000000 0.000000 0.000000
# 2 -0.000911 0.015931 0.000919 0.000000 0.000000 0.000000
# 3 -0.003410 0.000919 0.011561 0.000000 0.000000 0.000000
# 4 0.000000 0.000000 0.000000 0.244816 0.000000 0.000000
# 5 0.000000 0.000000 0.000000 0.000000 -0.082176 0.000000
# 6 0.000000 0.000000 0.000000 0.000000 0.000000 0.069181
#
#
# Mechanical properties :
#
#
# Convention : Reuss Voigt Hill
#
# Bulk Modulus (GPa) = 38.96907 65.57176 52.27042
# Shear Modulus (GPa) = 17.87991 24.17104 21.02547
#
# Velocity S-wave (km/s) = 2.87230 3.33960 3.11473
# Velocity P-wave (km/s) = 5.38342 6.71764 6.08719
#
# Compressibility (1/GPa) = 0.02566138
#
# Stress axis : x y z
#
# Youngs Moduli (GPa) = 201.07914 62.77186 86.49698
#
# Poissons Ratio (x) = 0.05716 0.29498
# Poissons Ratio (y) = 0.18309 -0.07949
# Poissons Ratio (z) = 0.68574 -0.05769
#
# Static dielectric constant tensor:
#      x y z
#    x 1.864200 0.000000 0.000000 
#    y 0.000000 1.902620 0.000000 
#    z 0.000000 0.000000 1.716820 
# 
# From -- ./inp_files/15040.got.cif
#   From: 2010.05.17/outbox.cif.g08.bks.cpg/sg65_8_cif.got.tgz:15040.got - 2010.06.03 17:01:31.
