data_PCOD9487381
_publ_section_title
;
Structure prediction by ZEFSAII (Michael W. Deem and Ramdas Pophale) SiO2 
 PCOD9487381
Probable space group: C M M M
;
_chemical_formula_sum "Si O2"
_cell_formula_units_Z 66
_cell_length_a 7.808634
_cell_length_b 19.475081
_cell_length_c 21.192773
_cell_angle_alpha 90.000000
_cell_angle_beta 90.000000
_cell_angle_gamma 90.000000
_cell_volume 3222.865091
_symmetry_space_group_name_H-M "C M M M"
_symmetry_group_IT_number 65
_symmetry_cell_setting 'orthorhombic'
loop_
_space_group_symop_operation_xyz
x,y,z
-x,-y,z
x,-y,-z
-x,y,-z
-x,-y,-z
x,y,-z
-x,y,z
x,-y,z
1/2+x,1/2+y,z
1/2-x,1/2-y,z
1/2+x,1/2-y,-z
1/2-x,1/2+y,-z
1/2-x,1/2-y,-z
1/2+x,1/2+y,-z
1/2-x,1/2+y,z
1/2+x,1/2-y,z
loop_
_atom_site_type_symbol
_atom_site_label
_atom_site_fract_x
_atom_site_fract_y
_atom_site_fract_z
Si Si1 0.295540 0.577439 0.243384
Si Si2 0.500000 0.500000 0.000000
Si Si3 0.295469 0.169556 0.362411
Si Si4 0.294511 0.673524 0.869257
Si Si5 0.294098 0.169287 0.500000
Si Si6 0.307590 0.113431 0.000000
O O1 0.500000 0.572450 0.235361
O O2 0.226596 0.500000 0.248378
O O3 0.265353 0.622451 0.305515
O O4 0.231273 0.618353 0.182117
O O5 0.652464 0.559237 0.000000
O O6 0.500000 0.165936 0.363719
O O7 0.250000 0.250000 0.353668
O O8 0.229957 0.144834 0.431571
O O9 0.500000 0.667669 0.874747
O O10 0.250000 0.750000 0.847352
O O11 0.214051 0.658488 0.937026
O O12 0.500000 0.160975 0.500000
O O13 0.250000 0.250000 0.500000
O O14 0.500000 0.083795 0.000000
#
# Coordination Sequence:
#
# PCOD9487381 Si02
#       6
#    16   2  16  16   8   8
#     4  10  23  40  60  84 120 162 201 249 308 362
#     4  12  26  48  68 102 144 168 208 266 324 366
#     4  10  19  34  57  84 115 150 196 248 300 365
#     4  11  23  42  67  93 127 163 207 264 316 373
#     4   8  16  30  51  80 111 147 189 243 303 354
#     4  12  26  44  72 101 131 174 218 258 316 381
#
# _framework density 20.478674000000002
#
# number of rings (size 3 to 8) (size 9 to 14) (size 15 to 20)
#    0.000    1.697    1.212    2.727    1.697    5.333 
#    0.000    0.606    0.000    3.636    0.000    0.000 
#    0.000    0.000    0.000    0.000    0.000    0.000 
#
# Total GULP energy -183980.263036 kJ/mol
# GULP energy per Si atom -5575.159486 kJ/mol
# Density = 2.043206 g / cm^3
# Si number density = 20.478674 Si / 1000 Ang^3
#
#
#
# Elastic Constant Matrix: (Units=GPa)
#
#
# Indices 1 2 3 4 5 6 
#
# 1 79.3448 15.0542 6.5078 0.0000 0.0000 0.0000
# 2 15.0542 132.4538 79.9068 0.0000 0.0000 0.0000
# 3 6.5078 79.9068 186.0397 0.0000 0.0000 0.0000
# 4 0.0000 0.0000 0.0000 -10.9968 0.0000 0.0000
# 5 0.0000 0.0000 0.0000 0.0000 12.7983 0.0000
# 6 0.0000 0.0000 0.0000 0.0000 0.0000 21.2818
#
#
#
# Elastic Compliance Matrix: (Units=1/GPa)
#
#
# Indices 1 2 3 4 5 6 
#
# 1 0.012889 -0.001610 0.000241 0.000000 0.000000 0.000000
# 2 -0.001610 0.010391 -0.004407 0.000000 0.000000 0.000000
# 3 0.000241 -0.004407 0.007260 0.000000 0.000000 0.000000
# 4 0.000000 0.000000 0.000000 -0.090936 0.000000 0.000000
# 5 0.000000 0.000000 0.000000 0.000000 0.078135 0.000000
# 6 0.000000 0.000000 0.000000 0.000000 0.000000 0.046988
#
#
# Mechanical properties :
#
#
# Convention : Reuss Voigt Hill
#
# Bulk Modulus (GPa) = 52.66679 66.75285 59.70982
# Shear Modulus (GPa) = 60.52546 24.37465 42.45006
#
# Velocity S-wave (km/s) = 5.44238 3.45374 4.55784
# Velocity P-wave (km/s) = 8.07876 6.96932 7.54446
#
# Compressibility (1/GPa) = 0.01898730
#
# Stress axis : x y z
#
# Youngs Moduli (GPa) = 77.58574 96.23316 137.74818
#
# Poissons Ratio (x) = 0.15495 -0.03316
# Poissons Ratio (y) = 0.12492 0.60705
# Poissons Ratio (z) = -0.01868 0.42409
#
# Static dielectric constant tensor:
#      x y z
#    x 1.769580 0.000000 0.000000 
#    y 0.000000 1.700920 0.000000 
#    z 0.000000 0.000000 1.755990 
# 
# From -- ./inp_files/58990.got.cif
#   From: 2010.05.17/outbox.cif.g08.bks.cpg/sg65_30_cif.got.tgz:58990.got - 2010.06.03 17:01:31.
