data_PCOD9487348
_publ_section_title
;
Structure prediction by ZEFSAII (Michael W. Deem and Ramdas Pophale) SiO2 
 PCOD9487348
Probable space group: C M M M
;
_chemical_formula_sum "Si O2"
_cell_formula_units_Z 116
_cell_length_a 24.886714
_cell_length_b 17.300087
_cell_length_c 15.526403
_cell_angle_alpha 90.000000
_cell_angle_beta 90.000000
_cell_angle_gamma 90.000000
_cell_volume 6684.773528
_symmetry_space_group_name_H-M "C M M M"
_symmetry_group_IT_number 65
_symmetry_cell_setting 'orthorhombic'
loop_
_space_group_symop_operation_xyz
x,y,z
-x,-y,z
x,-y,-z
-x,y,-z
-x,-y,-z
x,y,-z
-x,y,z
x,-y,z
1/2+x,1/2+y,z
1/2-x,1/2-y,z
1/2+x,1/2-y,-z
1/2-x,1/2+y,-z
1/2-x,1/2-y,-z
1/2+x,1/2+y,-z
1/2-x,1/2+y,z
1/2+x,1/2-y,z
loop_
_atom_site_type_symbol
_atom_site_label
_atom_site_fract_x
_atom_site_fract_y
_atom_site_fract_z
Si Si1 0.062661 0.130071 0.401926
Si Si2 0.203507 0.314760 0.903291
Si Si3 0.657889 0.907076 0.399630
Si Si4 0.500000 0.262464 0.000000
Si Si5 0.408089 0.735535 0.147759
Si Si6 0.756834 0.592622 0.257768
Si Si7 0.438492 0.197505 0.666013
Si Si8 0.633374 0.411449 0.242013
O O1 0.076647 0.110204 0.500000
O O2 0.066906 0.222558 0.387364
O O3 0.100372 0.092329 0.330814
O O4 0.000000 0.109593 0.387188
O O5 0.250000 0.250000 0.898832
O O6 0.146425 0.275130 0.885392
O O7 0.216281 0.375211 0.828539
O O8 0.204193 0.347909 0.000000
O O9 0.667237 0.889698 0.500000
O O10 0.707828 0.882077 0.339599
O O11 0.604847 0.863628 0.366720
O O12 0.651603 0.000000 0.391271
O O13 0.546841 0.262332 0.075526
O O14 0.426928 0.778921 0.234994
O O15 0.394252 0.647885 0.176465
O O16 0.757289 0.500000 0.257230
O O17 0.694373 0.616256 0.259338
O O18 0.500000 0.170395 0.657430
O O19 0.634471 0.500000 0.210701
#
# Coordination Sequence:
#
# PCOD9487348 Si02
#       8
#    16  16  16   4  16  16  16  16
#     4   9  19  35  55  80 107 142 194 240 275 324
#     4  11  21  36  62  88 109 143 190 239 283 334
#     4  10  21  35  54  84 119 154 193 235 284 343
#     4  12  24  40  63  92 111 144 188 234 294 340
#     4  11  21  38  60  85 113 141 186 234 278 341
#     4  10  21  38  58  83 117 153 188 232 288 340
#     4  10  19  34  57  80 109 150 187 234 283 332
#     4  10  22  38  56  79 114 153 185 226 283 340
#
# _framework density 17.352868999999998
#
# number of rings (size 3 to 8) (size 9 to 14) (size 15 to 20)
#    0.000    1.793    4.138    0.414    0.966    2.483 
#    0.000    3.448    0.000    2.897    0.000    0.966 
#    0.000    0.000    0.000    0.000    0.000    0.000 
#
# Total GULP energy -323145.107366 kJ/mol
# GULP energy per Si atom -5571.467368 kJ/mol
# Density = 1.731337 g / cm^3
# Si number density = 17.352869 Si / 1000 Ang^3
#
#
#
# Elastic Constant Matrix: (Units=GPa)
#
#
# Indices 1 2 3 4 5 6 
#
# 1 116.6976 17.7605 49.2625 0.0000 0.0000 0.0000
# 2 17.7605 16.6365 21.5977 0.0000 0.0000 0.0000
# 3 49.2625 21.5977 125.4870 0.0000 0.0000 0.0000
# 4 0.0000 0.0000 0.0000 15.3504 0.0000 0.0000
# 5 0.0000 0.0000 0.0000 0.0000 30.2273 0.0000
# 6 0.0000 0.0000 0.0000 0.0000 0.0000 16.7065
#
#
#
# Elastic Compliance Matrix: (Units=1/GPa)
#
#
# Indices 1 2 3 4 5 6 
#
# 1 0.011027 -0.007922 -0.002965 0.000000 0.000000 0.000000
# 2 -0.007922 0.083095 -0.011192 0.000000 0.000000 0.000000
# 3 -0.002965 -0.011192 0.011059 0.000000 0.000000 0.000000
# 4 0.000000 0.000000 0.000000 0.065145 0.000000 0.000000
# 5 0.000000 0.000000 0.000000 0.000000 0.033083 0.000000
# 6 0.000000 0.000000 0.000000 0.000000 0.000000 0.059857
#
#
# Mechanical properties :
#
#
# Convention : Reuss Voigt Hill
#
# Bulk Modulus (GPa) = 16.38721 48.45138 32.41929
# Shear Modulus (GPa) = 15.25486 23.80353 19.52919
#
# Velocity S-wave (km/s) = 2.96817 3.70771 3.35836
# Velocity P-wave (km/s) = 4.60551 6.80525 5.81043
#
# Compressibility (1/GPa) = 0.06102320
#
# Stress axis : x y z
#
# Youngs Moduli (GPa) = 90.68999 12.03439 90.42236
#
# Poissons Ratio (x) = 0.09534 0.26812
# Poissons Ratio (y) = 0.71845 1.01197
# Poissons Ratio (z) = 0.26892 0.13468
#
# Static dielectric constant tensor:
#      x y z
#    x 1.577000 0.000000 0.000000 
#    y 0.000000 1.583840 0.000000 
#    z 0.000000 0.000000 1.574800 
# 
# From -- ./inp_files/43190.got.cif
#   From: 2010.05.17/outbox.cif.g08.bks.cpg/sg65_22_cif.got.tgz:43190.got - 2010.06.03 17:01:31.
