data_PCOD9487715
_publ_section_title
;
Structure prediction by ZEFSAII (Michael W. Deem and Ramdas Pophale) SiO2 
 PCOD9487715
Probable space group: C M M M
;
_chemical_formula_sum "Si O2"
_cell_formula_units_Z 64
_cell_length_a 19.609328
_cell_length_b 10.701116
_cell_length_c 15.896357
_cell_angle_alpha 90.000000
_cell_angle_beta 90.000000
_cell_angle_gamma 90.000000
_cell_volume 3335.718475
_symmetry_space_group_name_H-M "C M M M"
_symmetry_group_IT_number 65
_symmetry_cell_setting 'orthorhombic'
loop_
_space_group_symop_operation_xyz
x,y,z
-x,-y,z
x,-y,-z
-x,y,-z
-x,-y,-z
x,y,-z
-x,y,z
x,-y,z
1/2+x,1/2+y,z
1/2-x,1/2-y,z
1/2+x,1/2-y,-z
1/2-x,1/2+y,-z
1/2-x,1/2-y,-z
1/2+x,1/2+y,-z
1/2-x,1/2+y,z
1/2+x,1/2-y,z
loop_
_atom_site_type_symbol
_atom_site_label
_atom_site_fract_x
_atom_site_fract_y
_atom_site_fract_z
Si Si1 0.426031 0.737783 0.306577
Si Si2 0.419305 0.000000 0.100485
Si Si3 0.398138 0.000000 0.597706
Si Si4 0.883508 0.000000 0.598637
Si Si5 0.236948 0.500000 0.682387
Si Si6 0.682671 0.802515 0.815949
O O1 0.500000 0.734985 0.265104
O O2 0.420674 0.626611 0.373244
O O3 0.367277 0.714648 0.237899
O O4 0.419399 0.873620 0.352276
O O5 0.372280 0.884613 0.132543
O O6 0.500000 0.000000 0.129867
O O7 0.421684 0.000000 0.000000
O O8 0.419345 0.000000 0.500000
O O9 0.316478 0.000000 0.606012
O O10 0.873602 0.000000 0.500000
O O11 0.811118 0.000000 0.645215
O O12 0.218498 0.385196 0.743097
O O13 0.750000 0.750000 0.863003
#
# Coordination Sequence:
#
# PCOD9487715 Si02
#       6
#    16   8   8   8   8  16
#     4  11  23  37  55  80 112 154 200 249 304 358
#     4  10  22  39  62  96 130 153 184 244 313 364
#     4  10  21  35  54  75 104 145 200 259 310 362
#     4  12  23  35  53  78 116 155 197 253 309 350
#     4   9  19  35  52  80 106 145 194 246 295 343
#     4  10  19  37  63  83 112 153 201 239 284 359
#
# _framework density 19.186271000000001
#
# number of rings (size 3 to 8) (size 9 to 14) (size 15 to 20)
#    0.000    1.625    2.500    3.375    0.000    3.500 
#    0.000    3.750    0.000    0.000    0.000    0.000 
#    0.000   10.500    0.000    0.000    0.000    0.000 
#
# Total GULP energy -178194.371387 kJ/mol
# GULP energy per Si atom -5568.574106 kJ/mol
# Density = 1.914260 g / cm^3
# Si number density = 19.186271 Si / 1000 Ang^3
#
#
#
# Elastic Constant Matrix: (Units=GPa)
#
#
# Indices 1 2 3 4 5 6 
#
# 1 192.7992 37.7442 35.1884 0.0000 0.0000 0.0000
# 2 37.7442 87.2667 16.3375 0.0000 0.0000 0.0000
# 3 35.1884 16.3375 62.6104 0.0000 0.0000 0.0000
# 4 0.0000 0.0000 0.0000 -10.1053 0.0000 0.0000
# 5 0.0000 0.0000 0.0000 0.0000 20.4032 0.0000
# 6 0.0000 0.0000 0.0000 0.0000 0.0000 55.1050
#
#
#
# Elastic Compliance Matrix: (Units=1/GPa)
#
#
# Indices 1 2 3 4 5 6 
#
# 1 0.006128 -0.002109 -0.002894 0.000000 0.000000 0.000000
# 2 -0.002109 0.012773 -0.002148 0.000000 0.000000 0.000000
# 3 -0.002894 -0.002148 0.018159 0.000000 0.000000 0.000000
# 4 0.000000 0.000000 0.000000 -0.098958 0.000000 0.000000
# 5 0.000000 0.000000 0.000000 0.000000 0.049012 0.000000
# 6 0.000000 0.000000 0.000000 0.000000 0.000000 0.018147
#
#
# Mechanical properties :
#
#
# Convention : Reuss Voigt Hill
#
# Bulk Modulus (GPa) = 43.93857 57.91294 50.92576
# Shear Modulus (GPa) = 184.17812 29.97433 107.07623
#
# Velocity S-wave (km/s) = 9.80832 3.95686 7.47863
# Velocity P-wave (km/s) = 12.29722 7.15023 10.05851
#
# Compressibility (1/GPa) = 0.02275905
#
# Stress axis : x y z
#
# Youngs Moduli (GPa) = 163.19410 78.28862 55.07041
#
# Poissons Ratio (x) = 0.16508 0.15936
# Poissons Ratio (y) = 0.34411 0.11829
# Poissons Ratio (z) = 0.47223 0.16816
#
# Static dielectric constant tensor:
#      x y z
#    x 1.728020 0.000000 0.000000 
#    y 0.000000 1.859870 0.000000 
#    z 0.000000 0.000000 1.640880 
# 
# From -- ./inp_files/41957.got.cif
#   From: 2010.05.17/outbox.cif.g08.bks.cpg/sg65_21_cif.got.tgz:41957.got - 2010.06.03 17:01:31.
