data_PCOD9487561
_publ_section_title
;
Structure prediction by ZEFSAII (Michael W. Deem and Ramdas Pophale) SiO2 
 PCOD9487561
Probable space group: C M M M
;
_chemical_formula_sum "Si O2"
_cell_formula_units_Z 72
_cell_length_a 13.492732
_cell_length_b 32.596638
_cell_length_c 9.465034
_cell_angle_alpha 90.000000
_cell_angle_beta 90.000000
_cell_angle_gamma 90.000000
_cell_volume 4162.889490
_symmetry_space_group_name_H-M "C M M M"
_symmetry_group_IT_number 65
_symmetry_cell_setting 'orthorhombic'
loop_
_space_group_symop_operation_xyz
x,y,z
-x,-y,z
x,-y,-z
-x,y,-z
-x,-y,-z
x,y,-z
-x,y,z
x,-y,z
1/2+x,1/2+y,z
1/2-x,1/2-y,z
1/2+x,1/2-y,-z
1/2-x,1/2+y,-z
1/2-x,1/2-y,-z
1/2+x,1/2+y,-z
1/2-x,1/2+y,z
1/2+x,1/2-y,z
loop_
_atom_site_type_symbol
_atom_site_label
_atom_site_fract_x
_atom_site_fract_y
_atom_site_fract_z
Si Si1 0.886021 0.131859 0.170568
Si Si2 0.500000 0.220584 0.665801
Si Si3 0.380994 0.000000 0.669436
Si Si4 0.000000 0.636988 0.164130
Si Si5 0.352776 0.273310 0.160671
Si Si6 0.306428 0.079970 0.169114
O O1 0.853870 0.178782 0.201326
O O2 0.797163 0.101384 0.214560
O O3 0.000000 0.124738 0.220893
O O4 0.889070 0.128691 0.000000
O O5 0.500000 0.216528 0.500000
O O6 0.500000 0.176393 0.738071
O O7 0.589655 0.247291 0.724789
O O8 0.332272 0.039752 0.741759
O O9 0.500000 0.000000 0.697530
O O10 0.367656 0.000000 0.500000
O O11 0.099669 0.610523 0.186848
O O12 0.000000 0.650338 0.000000
O O13 0.250000 0.250000 0.151641
O O14 0.394275 0.271649 0.000000
O O15 0.300665 0.070846 0.000000
#
# Coordination Sequence:
#
# PCOD9487561 Si02
#       6
#    16   8   8   8  16  16
#     4   9  17  32  56  85 113 143 187 243 293 333
#     4  12  24  34  49  79 120 157 190 232 288 348
#     4  11  23  39  60  87 122 152 177 220 291 360
#     4  10  20  35  55  82 113 146 197 247 284 332
#     4  10  19  35  59  80 105 147 200 251 291 329
#     4  10  20  36  62  89 111 143 189 239 285 336
#
# _framework density 17.295679
#
# number of rings (size 3 to 8) (size 9 to 14) (size 15 to 20)
#    0.000    1.889    2.222    2.667    0.000    5.333 
#    0.000    1.667    0.000    3.333    0.000    0.000 
#    0.000    0.000    0.000    0.000    0.000    0.000 
#
# Total GULP energy -200639.982171 kJ/mol
# GULP energy per Si atom -5573.332838 kJ/mol
# Density = 1.725631 g / cm^3
# Si number density = 17.295679 Si / 1000 Ang^3
#
#
#
# Elastic Constant Matrix: (Units=GPa)
#
#
# Indices 1 2 3 4 5 6 
#
# 1 160.8681 87.8990 48.7647 0.0000 0.0000 0.0000
# 2 87.8990 156.5434 90.3223 0.0000 0.0000 0.0000
# 3 48.7647 90.3223 84.2778 0.0000 0.0000 0.0000
# 4 0.0000 0.0000 0.0000 103.7744 0.0000 0.0000
# 5 0.0000 0.0000 0.0000 0.0000 10.9994 0.0000
# 6 0.0000 0.0000 0.0000 0.0000 0.0000 33.1263
#
#
#
# Elastic Compliance Matrix: (Units=1/GPa)
#
#
# Indices 1 2 3 4 5 6 
#
# 1 0.008977 -0.005355 0.000545 0.000000 0.000000 0.000000
# 2 -0.005355 0.019933 -0.018264 0.000000 0.000000 0.000000
# 3 0.000545 -0.018264 0.031124 0.000000 0.000000 0.000000
# 4 0.000000 0.000000 0.000000 0.009636 0.000000 0.000000
# 5 0.000000 0.000000 0.000000 0.000000 0.090914 0.000000
# 6 0.000000 0.000000 0.000000 0.000000 0.000000 0.030188
#
#
# Mechanical properties :
#
#
# Convention : Reuss Voigt Hill
#
# Bulk Modulus (GPa) = 72.01643 95.07347 83.54495
# Shear Modulus (GPa) = 20.69984 41.22691 30.96338
#
# Velocity S-wave (km/s) = 3.46326 4.88756 4.23571
# Velocity P-wave (km/s) = 7.59744 9.32416 8.50473
#
# Compressibility (1/GPa) = 0.01388572
#
# Stress axis : x y z
#
# Youngs Moduli (GPa) = 111.39458 50.16925 32.12951
#
# Poissons Ratio (x) = 0.26865 -0.01750
# Poissons Ratio (y) = 0.59650 0.58680
# Poissons Ratio (z) = -0.06066 0.91628
#
# Static dielectric constant tensor:
#      x y z
#    x 1.617670 0.000000 0.000000 
#    y 0.000000 1.568650 0.000000 
#    z 0.000000 0.000000 1.559020 
# 
# From -- ./inp_files/7343.got.cif
#   From: 2010.05.17/outbox.cif.g08.bks.cpg/sg65_4_cif.got.tgz:7343.got - 2010.06.03 17:01:31.
