data_PCOD9487548
_publ_section_title
;
Structure prediction by ZEFSAII (Michael W. Deem and Ramdas Pophale) SiO2 
 PCOD9487548
Probable space group: C M M M
;
_chemical_formula_sum "Si O2"
_cell_formula_units_Z 76
_cell_length_a 27.786298
_cell_length_b 7.803619
_cell_length_c 18.239735
_cell_angle_alpha 90.000000
_cell_angle_beta 90.000000
_cell_angle_gamma 90.000000
_cell_volume 3954.988917
_symmetry_space_group_name_H-M "C M M M"
_symmetry_group_IT_number 65
_symmetry_cell_setting 'orthorhombic'
loop_
_space_group_symop_operation_xyz
x,y,z
-x,-y,z
x,-y,-z
-x,y,-z
-x,-y,-z
x,y,-z
-x,y,z
x,-y,z
1/2+x,1/2+y,z
1/2-x,1/2-y,z
1/2+x,1/2-y,-z
1/2-x,1/2+y,-z
1/2-x,1/2-y,-z
1/2+x,1/2+y,-z
1/2-x,1/2+y,z
1/2+x,1/2-y,z
loop_
_atom_site_type_symbol
_atom_site_label
_atom_site_fract_x
_atom_site_fract_y
_atom_site_fract_z
Si Si1 0.349789 0.204255 0.155284
Si Si2 0.194224 0.200858 0.000000
Si Si3 0.304645 0.205590 0.306522
Si Si4 0.098400 0.805525 0.381923
Si Si5 0.415918 0.000000 0.500000
Si Si6 0.553870 0.208441 0.772850
O O1 0.316668 0.266146 0.223217
O O2 0.404000 0.265004 0.171870
O O3 0.350396 0.000000 0.162507
O O4 0.330405 0.240390 0.075060
O O5 0.250000 0.250000 0.000000
O O6 0.191308 0.000000 0.000000
O O7 0.250000 0.250000 0.325559
O O8 0.345380 0.283883 0.358899
O O9 0.310399 0.000000 0.310032
O O10 0.085290 0.652742 0.436693
O O11 0.068769 0.777093 0.306831
O O12 0.090384 0.000000 0.408506
O O13 0.500000 0.261464 0.792753
O O14 0.554749 0.000000 0.769115
#
# Coordination Sequence:
#
# PCOD9487548 Si02
#       6
#    16   8  16  16   4  16
#     4   9  19  35  57  85 116 154 193 241 294 347
#     4  12  24  36  53  80 121 159 198 245 295 344
#     4  10  19  35  58  84 114 149 200 248 289 348
#     4  11  22  38  62  86 116 158 194 242 302 356
#     4  12  22  44  59  84 126 152 190 248 301 370
#     4   9  18  38  65  90 116 149 194 246 293 347
#
# _framework density 19.216237
#
# number of rings (size 3 to 8) (size 9 to 14) (size 15 to 20)
#    0.000    1.895    2.105    3.789    0.000    6.316 
#    0.000    2.105    0.000    4.421    0.000    0.000 
#    0.000    0.000    0.000    0.000    0.000    0.000 
#
# Total GULP energy -211542.178444 kJ/mol
# GULP energy per Si atom -5566.899433 kJ/mol
# Density = 1.917250 g / cm^3
# Si number density = 19.216237 Si / 1000 Ang^3
#
#
#
# Elastic Constant Matrix: (Units=GPa)
#
#
# Indices 1 2 3 4 5 6 
#
# 1 96.5626 11.4939 21.3244 0.0000 0.0000 0.0000
# 2 11.4939 96.4171 21.3963 0.0000 0.0000 0.0000
# 3 21.3244 21.3963 91.5905 0.0000 0.0000 0.0000
# 4 0.0000 0.0000 0.0000 -4.7390 0.0000 0.0000
# 5 0.0000 0.0000 0.0000 0.0000 92.7140 0.0000
# 6 0.0000 0.0000 0.0000 0.0000 0.0000 16.3407
#
#
#
# Elastic Compliance Matrix: (Units=1/GPa)
#
#
# Indices 1 2 3 4 5 6 
#
# 1 0.010973 -0.000782 -0.002372 0.000000 0.000000 0.000000
# 2 -0.000782 0.010994 -0.002386 0.000000 0.000000 0.000000
# 3 -0.002372 -0.002386 0.012028 0.000000 0.000000 0.000000
# 4 0.000000 0.000000 0.000000 -0.211016 0.000000 0.000000
# 5 0.000000 0.000000 0.000000 0.000000 0.010786 0.000000
# 6 0.000000 0.000000 0.000000 0.000000 0.000000 0.061197
#
#
# Mechanical properties :
#
#
# Convention : Reuss Voigt Hill
#
# Bulk Modulus (GPa) = 43.63992 43.66658 43.65325
# Shear Modulus (GPa) = -57.92422 36.22019 -10.85201
#
# Velocity S-wave (km/s) = -5.49625 4.34622 -2.37899
# Velocity P-wave (km/s) = 4.18559 6.92527 3.90129
#
# Compressibility (1/GPa) = 0.02291480
#
# Stress axis : x y z
#
# Youngs Moduli (GPa) = 91.13387 90.95578 83.13981
#
# Poissons Ratio (x) = 0.07110 0.19722
# Poissons Ratio (y) = 0.07124 0.19840
# Poissons Ratio (z) = 0.21618 0.21706
#
# Static dielectric constant tensor:
#      x y z
#    x 1.675340 0.000000 0.000000 
#    y 0.000000 1.698130 0.000000 
#    z 0.000000 0.000000 1.512950 
# 
# From -- ./inp_files/57277.got.cif
#   From: 2010.05.17/outbox.cif.g08.bks.cpg/sg65_29_cif.got.tgz:57277.got - 2010.06.03 17:01:31.
