data_PCOD9487895
_publ_section_title
;
Structure prediction by ZEFSAII (Michael W. Deem and Ramdas Pophale) SiO2 
 PCOD9487895
Probable space group: C M M M
;
_chemical_formula_sum "Si O2"
_cell_formula_units_Z 104
_cell_length_a 7.544441
_cell_length_b 22.382368
_cell_length_c 33.693574
_cell_angle_alpha 90.000000
_cell_angle_beta 90.000000
_cell_angle_gamma 90.000000
_cell_volume 5689.579617
_symmetry_space_group_name_H-M "C M M M"
_symmetry_group_IT_number 65
_symmetry_cell_setting 'orthorhombic'
loop_
_space_group_symop_operation_xyz
x,y,z
-x,-y,z
x,-y,-z
-x,y,-z
-x,-y,-z
x,y,-z
-x,y,z
x,-y,z
1/2+x,1/2+y,z
1/2-x,1/2-y,z
1/2+x,1/2-y,-z
1/2-x,1/2+y,-z
1/2-x,1/2-y,-z
1/2+x,1/2+y,-z
1/2-x,1/2+y,z
1/2+x,1/2-y,z
loop_
_atom_site_type_symbol
_atom_site_label
_atom_site_fract_x
_atom_site_fract_y
_atom_site_fract_z
Si Si1 0.288019 0.681483 0.159882
Si Si2 0.712222 0.318931 0.000000
Si Si3 0.799617 0.927810 0.605610
Si Si4 0.213151 0.180560 0.249810
Si Si5 0.783513 0.930925 0.695921
Si Si6 0.706415 0.374355 0.080427
Si Si7 0.286725 0.000000 0.046307
Si Si8 0.500000 0.926948 0.545610
O O1 0.500000 0.672457 0.162771
O O2 0.250000 0.750000 0.149142
O O3 0.218665 0.672496 0.204568
O O4 0.218055 0.642326 0.123341
O O5 0.750000 0.250000 0.000000
O O6 0.786863 0.344287 0.041135
O O7 0.500000 0.331733 0.000000
O O8 0.733122 0.916773 0.650360
O O9 0.670157 0.907211 0.570979
O O10 0.000000 0.904843 0.601536
O O11 0.807600 0.000000 0.602906
O O12 0.250000 0.250000 0.261884
O O13 0.275327 0.124417 0.276481
O O14 0.000000 0.176329 0.249383
O O15 0.000000 0.932285 0.696631
O O16 0.727857 0.000000 0.705594
O O17 0.500000 0.355340 0.082066
O O18 0.718841 0.443132 0.069813
O O19 0.500000 0.000000 0.045958
O O20 0.227891 0.000000 0.000000
O O21 0.500000 0.907544 0.500000
O O22 0.500000 0.000000 0.545393
#
# Coordination Sequence:
#
# PCOD9487895 Si02
#       8
#    16   8  16  16  16  16   8   8
#     4   9  18  32  51  74  97 126 158 187 234 288
#     4  10  20  31  48  71  95 118 148 190 231 270
#     4   8  14  25  40  59  86 125 167 205 252 304
#     4   9  17  31  49  72 100 128 159 201 249 294
#     4   8  14  27  47  67  91 127 167 204 244 291
#     4  10  20  35  52  71  95 125 156 187 229 280
#     4  11  23  37  53  73  93 121 157 191 237 281
#     4   9  16  24  36  60  94 130 166 206 253 304
#
# _framework density 18.279031
#
# number of rings (size 3 to 8) (size 9 to 14) (size 15 to 20)
#    0.000    2.923    0.769    1.615    0.000    1.846 
#    2.769    1.538    0.000    0.000    0.000    0.000 
#    0.000    0.615    0.308    0.000    0.000    0.000 
#
# Total GULP energy -289551.245323 kJ/mol
# GULP energy per Si atom -5568.293179 kJ/mol
# Density = 1.823743 g / cm^3
# Si number density = 18.279031 Si / 1000 Ang^3
#
#
#
# Elastic Constant Matrix: (Units=GPa)
#
#
# Indices 1 2 3 4 5 6 
#
# 1 54.5937 2.1927 29.0898 0.0000 0.0000 0.0000
# 2 2.1927 102.9350 86.1555 0.0000 0.0000 0.0000
# 3 29.0898 86.1555 156.1317 0.0000 0.0000 0.0000
# 4 0.0000 0.0000 0.0000 53.8551 0.0000 0.0000
# 5 0.0000 0.0000 0.0000 0.0000 16.5457 0.0000
# 6 0.0000 0.0000 0.0000 0.0000 0.0000 15.8606
#
#
#
# Elastic Compliance Matrix: (Units=1/GPa)
#
#
# Indices 1 2 3 4 5 6 
#
# 1 0.021879 0.005474 -0.007097 0.000000 0.000000 0.000000
# 2 0.005474 0.019422 -0.011737 0.000000 0.000000 0.000000
# 3 -0.007097 -0.011737 0.014204 0.000000 0.000000 0.000000
# 4 0.000000 0.000000 0.000000 0.018568 0.000000 0.000000
# 5 0.000000 0.000000 0.000000 0.000000 0.060439 0.000000
# 6 0.000000 0.000000 0.000000 0.000000 0.000000 0.063049
#
#
# Mechanical properties :
#
#
# Convention : Reuss Voigt Hill
#
# Bulk Modulus (GPa) = 34.74098 60.94850 47.84474
# Shear Modulus (GPa) = 21.37878 30.33378 25.85628
#
# Velocity S-wave (km/s) = 3.42362 4.07810 3.76511
# Velocity P-wave (km/s) = 5.88858 7.45589 6.71810
#
# Compressibility (1/GPa) = 0.02878445
#
# Stress axis : x y z
#
# Youngs Moduli (GPa) = 45.70625 51.48710 70.40277
#
# Poissons Ratio (x) = -0.28184 0.49965
# Poissons Ratio (y) = -0.25020 0.82635
# Poissons Ratio (z) = 0.32438 0.60432
#
# Static dielectric constant tensor:
#      x y z
#    x 1.763240 0.000000 0.000000 
#    y 0.000000 1.550540 0.000000 
#    z 0.000000 0.000000 1.644960 
# 
# From -- ./inp_files/77062.got.cif
#   From: 2010.05.17/outbox.cif.g08.bks.cpg/sg65_39_cif.got.tgz:77062.got - 2010.06.03 17:01:31.
