data_PCOD9487741
_publ_section_title
;
Structure prediction by ZEFSAII (Michael W. Deem and Ramdas Pophale) SiO2 
 PCOD9487741
Probable space group: C M M M
;
_chemical_formula_sum "Si O2"
_cell_formula_units_Z 62
_cell_length_a 21.743025
_cell_length_b 14.342394
_cell_length_c 9.995182
_cell_angle_alpha 90.000000
_cell_angle_beta 90.000000
_cell_angle_gamma 90.000000
_cell_volume 3116.967834
_symmetry_space_group_name_H-M "C M M M"
_symmetry_group_IT_number 65
_symmetry_cell_setting 'orthorhombic'
loop_
_space_group_symop_operation_xyz
x,y,z
-x,-y,z
x,-y,-z
-x,y,-z
-x,-y,-z
x,y,-z
-x,y,z
x,-y,z
1/2+x,1/2+y,z
1/2-x,1/2-y,z
1/2+x,1/2-y,-z
1/2-x,1/2+y,-z
1/2-x,1/2-y,-z
1/2+x,1/2+y,-z
1/2-x,1/2+y,z
1/2+x,1/2-y,z
loop_
_atom_site_type_symbol
_atom_site_label
_atom_site_fract_x
_atom_site_fract_y
_atom_site_fract_z
Si Si1 0.893397 0.337129 0.000000
Si Si2 0.740479 0.386277 0.500000
Si Si3 0.000000 0.500000 0.000000
Si Si4 0.663866 0.113009 0.274226
Si Si5 0.068174 0.613079 0.500000
Si Si6 0.100930 0.113910 0.500000
Si Si7 0.000000 0.889090 0.292929
Si Si8 0.000000 0.188212 0.000000
O O1 0.944836 0.419640 0.000000
O O2 0.850247 0.344655 0.130419
O O3 0.937097 0.247581 0.000000
O O4 0.740802 0.500000 0.500000
O O5 0.777726 0.359602 0.365633
O O6 0.670692 0.352083 0.500000
O O7 0.605789 0.136756 0.368196
O O8 0.666038 0.000000 0.259087
O O9 0.064963 0.500000 0.500000
O O10 0.000000 0.651225 0.500000
O O11 0.060773 0.143850 0.627962
O O12 0.104252 0.000000 0.500000
O O13 0.000000 0.000000 0.310235
O O14 0.000000 0.866697 0.138417
#
# Coordination Sequence:
#
# PCOD9487741 Si02
#       8
#     8   8   2  16   8   8   8   4
#     4  11  21  31  47  70 112 155 199 217 244 299
#     4   8  15  29  52  84 110 130 178 231 265 306
#     4  10  20  28  46  66  98 160 206 216 244 270
#     4   9  16  28  44  69 106 148 182 219 249 291
#     4   8  15  21  36  57  87 128 186 230 253 268
#     4   8  15  33  66  92 100 122 166 224 285 351
#     4   9  18  38  65  87 105 124 161 222 299 354
#     4  11  25  35  49  82 114 144 169 233 269 311
#
# _framework density 19.891126
#
# number of rings (size 3 to 8) (size 9 to 14) (size 15 to 20)
#    0.000    2.968    1.290    2.516    3.613    0.000 
#    0.000    6.452    0.000   10.839    0.000    0.000 
#    0.000    0.000    0.000    0.000    0.000    0.000 
#
# Total GULP energy -172705.314860 kJ/mol
# GULP energy per Si atom -5571.139189 kJ/mol
# Density = 1.984585 g / cm^3
# Si number density = 19.891126 Si / 1000 Ang^3
#
#
#
# Elastic Constant Matrix: (Units=GPa)
#
#
# Indices 1 2 3 4 5 6 
#
# 1 183.1342 16.4423 97.3894 0.0000 0.0000 0.0000
# 2 16.4423 41.2600 7.0343 0.0000 0.0000 0.0000
# 3 97.3894 7.0343 196.7733 0.0000 0.0000 0.0000
# 4 0.0000 0.0000 0.0000 97.3549 0.0000 0.0000
# 5 0.0000 0.0000 0.0000 0.0000 3.9513 0.0000
# 6 0.0000 0.0000 0.0000 0.0000 0.0000 11.1026
#
#
#
# Elastic Compliance Matrix: (Units=1/GPa)
#
#
# Indices 1 2 3 4 5 6 
#
# 1 0.007643 -0.002416 -0.003696 0.000000 0.000000 0.000000
# 2 -0.002416 0.025149 0.000297 0.000000 0.000000 0.000000
# 3 -0.003696 0.000297 0.006901 0.000000 0.000000 0.000000
# 4 0.000000 0.000000 0.000000 0.010272 0.000000 0.000000
# 5 0.000000 0.000000 0.000000 0.000000 0.253079 0.000000
# 6 0.000000 0.000000 0.000000 0.000000 0.000000 0.090069
#
#
# Mechanical properties :
#
#
# Convention : Reuss Voigt Hill
#
# Bulk Modulus (GPa) = 35.63598 73.65552 54.64575
# Shear Modulus (GPa) = 12.07445 42.50187 27.28816
#
# Velocity S-wave (km/s) = 2.46646 4.62749 3.70790
# Velocity P-wave (km/s) = 5.10545 8.10316 6.77226
#
# Compressibility (1/GPa) = 0.02806153
#
# Stress axis : x y z
#
# Youngs Moduli (GPa) = 130.83680 39.76365 144.90882
#
# Poissons Ratio (x) = 0.09605 0.53565
# Poissons Ratio (y) = 0.31605 -0.04297
# Poissons Ratio (z) = 0.48363 -0.01179
#
# Static dielectric constant tensor:
#      x y z
#    x 1.686500 0.000000 0.000000 
#    y 0.000000 1.731200 0.000000 
#    z 0.000000 0.000000 1.624780 
# 
# From -- ./inp_files/10908.got.cif
#   From: 2010.05.17/outbox.cif.g08.bks.cpg/sg65_6_cif.got.tgz:10908.got - 2010.06.03 17:01:31.
