data_PCOD9487076
_publ_section_title
;
Structure prediction by ZEFSAII (Michael W. Deem and Ramdas Pophale) SiO2 
 PCOD9487076
Probable space group: C M M M
;
_chemical_formula_sum "Si O2"
_cell_formula_units_Z 88
_cell_length_a 17.787695
_cell_length_b 29.602055
_cell_length_c 8.999986
_cell_angle_alpha 90.000000
_cell_angle_beta 90.000000
_cell_angle_gamma 90.000000
_cell_volume 4738.963560
_symmetry_space_group_name_H-M "C M M M"
_symmetry_group_IT_number 65
_symmetry_cell_setting 'orthorhombic'
loop_
_space_group_symop_operation_xyz
x,y,z
-x,-y,z
x,-y,-z
-x,y,-z
-x,-y,-z
x,y,-z
-x,y,z
x,-y,z
1/2+x,1/2+y,z
1/2-x,1/2-y,z
1/2+x,1/2-y,-z
1/2-x,1/2+y,-z
1/2-x,1/2-y,-z
1/2+x,1/2+y,-z
1/2-x,1/2+y,z
1/2+x,1/2-y,z
loop_
_atom_site_type_symbol
_atom_site_label
_atom_site_fract_x
_atom_site_fract_y
_atom_site_fract_z
Si Si1 0.908512 0.284966 0.170710
Si Si2 0.215753 0.447141 0.678100
Si Si3 0.642519 0.601295 0.177360
Si Si4 0.087171 0.377578 0.677404
Si Si5 0.590264 0.691673 0.676204
Si Si6 0.500000 0.445868 0.673262
O O1 0.884376 0.332358 0.241766
O O2 0.886639 0.240830 0.263606
O O3 0.000000 0.285804 0.173458
O O4 0.884439 0.281070 0.000000
O O5 0.229656 0.443932 0.500000
O O6 0.211791 0.500000 0.716212
O O7 0.282380 0.422288 0.763766
O O8 0.138996 0.420377 0.710330
O O9 0.633153 0.651939 0.239448
O O10 0.572932 0.573591 0.246111
O O11 0.639171 0.601178 0.000000
O O12 0.089537 0.369519 0.500000
O O13 0.000000 0.385318 0.718536
O O14 0.602123 0.688458 0.500000
O O15 0.500000 0.686264 0.703556
O O16 0.500000 0.500000 0.678132
O O17 0.500000 0.431511 0.500000
#
# Coordination Sequence:
#
# PCOD9487076 Si02
#       6
#    16  16  16  16  16   8
#     4   9  17  30  52  83 118 151 185 228 282 340
#     4  10  22  40  60  82 113 152 191 237 292 345
#     4  12  24  37  56  83 116 151 192 240 287 338
#     4   9  18  35  60  88 115 146 189 236 285 345
#     4  10  19  33  56  83 114 152 193 234 280 336
#     4  11  23  39  59  81 109 149 197 243 286 337
#
# _framework density 18.569461
#
# number of rings (size 3 to 8) (size 9 to 14) (size 15 to 20)
#    0.000    1.909    0.909    3.545    0.000    7.273 
#    0.000    2.727    0.000    5.455    0.000    3.818 
#    0.000    0.000    0.000    0.000    0.000    0.000 
#
# Total GULP energy -245785.052205 kJ/mol
# GULP energy per Si atom -5586.023914 kJ/mol
# Density = 1.852720 g / cm^3
# Si number density = 18.569461 Si / 1000 Ang^3
#
#
#
# Elastic Constant Matrix: (Units=GPa)
#
#
# Indices 1 2 3 4 5 6 
#
# 1 75.3711 66.3460 59.1264 0.0000 0.0000 0.0000
# 2 66.3460 153.3923 86.5290 0.0000 0.0000 0.0000
# 3 59.1264 86.5290 105.1818 0.0000 0.0000 0.0000
# 4 0.0000 0.0000 0.0000 -34.2505 0.0000 0.0000
# 5 0.0000 0.0000 0.0000 0.0000 9.1745 0.0000
# 6 0.0000 0.0000 0.0000 0.0000 0.0000 33.0597
#
#
#
# Elastic Compliance Matrix: (Units=1/GPa)
#
#
# Indices 1 2 3 4 5 6 
#
# 1 0.026095 -0.005620 -0.010046 0.000000 0.000000 0.000000
# 2 -0.005620 0.013375 -0.007844 0.000000 0.000000 0.000000
# 3 -0.010046 -0.007844 0.021607 0.000000 0.000000 0.000000
# 4 0.000000 0.000000 0.000000 -0.029197 0.000000 0.000000
# 5 0.000000 0.000000 0.000000 0.000000 0.108998 0.000000
# 6 0.000000 0.000000 0.000000 0.000000 0.000000 0.030248
#
#
# Mechanical properties :
#
#
# Convention : Reuss Voigt Hill
#
# Bulk Modulus (GPa) = 71.13230 84.21646 77.67438
# Shear Modulus (GPa) = 22.43847 9.72631 16.08239
#
# Velocity S-wave (km/s) = 3.47991 2.29111 2.94609
# Velocity P-wave (km/s) = 7.38482 7.24220 7.31386
#
# Compressibility (1/GPa) = 0.01405831
#
# Stress axis : x y z
#
# Youngs Moduli (GPa) = 38.32094 74.76845 46.28135
#
# Poissons Ratio (x) = 0.42021 0.46493
# Poissons Ratio (y) = 0.21537 0.36301
# Poissons Ratio (z) = 0.38496 0.58645
#
# Static dielectric constant tensor:
#      x y z
#    x 1.633350 0.000000 0.000000 
#    y 0.000000 1.622800 0.000000 
#    z 0.000000 0.000000 1.618060 
# 
# From -- ./inp_files/10062.got.cif
#   From: 2010.05.17/outbox.cif.g08.bks.cpg/sg65_6_cif.got.tgz:10062.got - 2010.06.03 17:01:31.
