data_PCOD9487365
_publ_section_title
;
Structure prediction by ZEFSAII (Michael W. Deem and Ramdas Pophale) SiO2 
 PCOD9487365
Probable space group: C M M M
;
_chemical_formula_sum "Si O2"
_cell_formula_units_Z 72
_cell_length_a 21.097427
_cell_length_b 21.414747
_cell_length_c 7.736774
_cell_angle_alpha 90.000000
_cell_angle_beta 90.000000
_cell_angle_gamma 90.000000
_cell_volume 3495.444022
_symmetry_space_group_name_H-M "C M M M"
_symmetry_group_IT_number 65
_symmetry_cell_setting 'orthorhombic'
loop_
_space_group_symop_operation_xyz
x,y,z
-x,-y,z
x,-y,-z
-x,y,-z
-x,-y,-z
x,y,-z
-x,y,z
x,-y,z
1/2+x,1/2+y,z
1/2-x,1/2-y,z
1/2+x,1/2-y,-z
1/2-x,1/2+y,-z
1/2-x,1/2-y,-z
1/2+x,1/2+y,-z
1/2-x,1/2+y,z
1/2+x,1/2-y,z
loop_
_atom_site_type_symbol
_atom_site_label
_atom_site_fract_x
_atom_site_fract_y
_atom_site_fract_z
Si Si1 0.926651 0.620654 0.789594
Si Si2 0.500000 0.574136 0.699403
Si Si3 0.364493 0.617268 0.803065
Si Si4 0.217984 0.000000 0.307579
Si Si5 0.926042 0.238515 0.788391
Si Si6 0.355918 0.000000 0.197829
O O1 0.910755 0.691019 0.731991
O O2 0.883104 0.564265 0.725449
O O3 0.000000 0.608119 0.745494
O O4 0.922941 0.623461 0.000000
O O5 0.500000 0.500000 0.690575
O O6 0.500000 0.597150 0.500000
O O7 0.436952 0.594163 0.796128
O O8 0.323678 0.562488 0.717479
O O9 0.375199 0.686870 0.728238
O O10 0.341597 0.622060 0.000000
O O11 0.243514 0.000000 0.500000
O O12 0.280390 0.000000 0.193278
O O13 0.000000 0.225568 0.738780
O O14 0.925385 0.236031 0.000000
O O15 0.379977 0.000000 0.000000
#
# Coordination Sequence:
#
# PCOD9487365 Si02
#       6
#    16   8  16   8  16   8
#     4   8  14  27  53  88 117 130 154 210 271 315
#     4  11  21  31  47  75 110 141 170 213 267 312
#     4  11  20  33  54  77 102 138 182 222 255 303
#     4  12  26  40  50  67 102 147 183 223 268 304
#     4   8  14  26  47  81 114 134 157 207 270 310
#     4  10  19  34  57  83 104 135 178 215 255 313
#
# _framework density 20.598241000000002
#
# number of rings (size 3 to 8) (size 9 to 14) (size 15 to 20)
#    0.000    2.333    2.222    3.667    0.000    1.778 
#    0.000    1.111    0.000   10.667    0.000    0.000 
#    0.000    0.000    0.000    0.000    0.000    0.000 
#
# Total GULP energy -200644.725744 kJ/mol
# GULP energy per Si atom -5573.464604 kJ/mol
# Density = 2.055136 g / cm^3
# Si number density = 20.598241 Si / 1000 Ang^3
#
#
#
# Elastic Constant Matrix: (Units=GPa)
#
#
# Indices 1 2 3 4 5 6 
#
# 1 64.5201 67.2716 -8.7643 0.0000 0.0000 0.0000
# 2 67.2716 184.2290 7.7790 0.0000 0.0000 0.0000
# 3 -8.7643 7.7790 41.8682 0.0000 0.0000 0.0000
# 4 0.0000 0.0000 0.0000 -29.1374 0.0000 0.0000
# 5 0.0000 0.0000 0.0000 0.0000 -41.7328 0.0000
# 6 0.0000 0.0000 0.0000 0.0000 0.0000 -4.1352
#
#
#
# Elastic Compliance Matrix: (Units=1/GPa)
#
#
# Indices 1 2 3 4 5 6 
#
# 1 0.027238 -0.010267 0.007609 0.000000 0.000000 0.000000
# 2 -0.010267 0.009341 -0.003885 0.000000 0.000000 0.000000
# 3 0.007609 -0.003885 0.026199 0.000000 0.000000 0.000000
# 4 0.000000 0.000000 0.000000 -0.034320 0.000000 0.000000
# 5 0.000000 0.000000 0.000000 0.000000 -0.023962 0.000000
# 6 0.000000 0.000000 0.000000 0.000000 0.000000 -0.241828
#
#
# Mechanical properties :
#
#
# Convention : Reuss Voigt Hill
#
# Bulk Modulus (GPa) = 20.12372 47.02111 33.57242
# Shear Modulus (GPa) = -24.07518 -0.04568 -12.06043
#
# Velocity S-wave (km/s) = -3.42248 -0.14908 -2.42235
# Velocity P-wave (km/s) = 2.41391 4.77992 2.91725
#
# Compressibility (1/GPa) = 0.04969259
#
# Stress axis : x y z
#
# Youngs Moduli (GPa) = 36.71378 107.05310 38.16922
#
# Poissons Ratio (x) = 1.09914 -0.29044
# Poissons Ratio (y) = 0.37695 0.14828
# Poissons Ratio (z) = -0.27937 0.41588
#
# Static dielectric constant tensor:
#      x y z
#    x 1.678810 0.000000 0.000000 
#    y 0.000000 1.806130 0.000000 
#    z 0.000000 0.000000 1.772210 
# 
# From -- ./inp_files/9325.got.cif
#   From: 2010.05.17/outbox.cif.g08.bks.cpg/sg65_5_cif.got.tgz:9325.got - 2010.06.03 17:01:31.
