data_PCOD9487910
_publ_section_title
;
Structure prediction by ZEFSAII (Michael W. Deem and Ramdas Pophale) SiO2 
 PCOD9487910
Probable space group: C M M M
;
_chemical_formula_sum "Si O2"
_cell_formula_units_Z 104
_cell_length_a 26.036906
_cell_length_b 28.121225
_cell_length_c 8.564505
_cell_angle_alpha 90.000000
_cell_angle_beta 90.000000
_cell_angle_gamma 90.000000
_cell_volume 6270.842277
_symmetry_space_group_name_H-M "C M M M"
_symmetry_group_IT_number 65
_symmetry_cell_setting 'orthorhombic'
loop_
_space_group_symop_operation_xyz
x,y,z
-x,-y,z
x,-y,-z
-x,y,-z
-x,-y,-z
x,y,-z
-x,y,z
x,-y,z
1/2+x,1/2+y,z
1/2-x,1/2-y,z
1/2+x,1/2-y,-z
1/2-x,1/2+y,-z
1/2-x,1/2-y,-z
1/2+x,1/2+y,-z
1/2-x,1/2+y,z
1/2+x,1/2-y,z
loop_
_atom_site_type_symbol
_atom_site_label
_atom_site_fract_x
_atom_site_fract_y
_atom_site_fract_z
Si Si1 0.231211 0.053177 0.683195
Si Si2 0.939990 0.841909 0.500000
Si Si3 0.441576 0.443509 0.000000
Si Si4 0.710848 0.146625 0.685060
Si Si5 0.871655 0.107642 0.755806
Si Si6 0.125909 0.289172 0.185394
Si Si7 0.196531 0.803469 0.828302
Si Si8 0.939622 0.272289 0.500000
O O1 0.243332 0.049739 0.500000
O O2 0.268104 0.095389 0.743107
O O3 0.173232 0.073223 0.693338
O O4 0.235451 0.000000 0.752087
O O5 0.909284 0.864827 0.358828
O O6 0.935680 0.785106 0.500000
O O7 0.000000 0.854354 0.500000
O O8 0.409096 0.424074 0.857104
O O9 0.442896 0.500000 0.000000
O O10 0.500000 0.425456 0.000000
O O11 0.698970 0.144602 0.500000
O O12 0.663097 0.166193 0.782153
O O13 0.758369 0.183303 0.709331
O O14 0.840282 0.150668 0.833467
O O15 0.161844 0.242276 0.206078
O O16 0.086428 0.288142 0.333814
O O17 0.108428 0.288701 0.000000
O O18 0.220296 0.797506 0.000000
O O19 0.000000 0.285279 0.500000
#
# Coordination Sequence:
#
# PCOD9487910 Si02
#       8
#    16   8   8  16  16  16  16   8
#     4   9  18  32  52  77 105 138 178 221 270 332
#     4  11  22  36  54  76 100 132 186 244 287 330
#     4  11  24  38  50  68  95 134 190 248 297 338
#     4  10  20  31  54  80 109 147 181 222 275 329
#     4  11  19  35  53  71  97 137 177 229 286 330
#     4  11  22  37  57  82 115 148 182 227 274 331
#     4  10  20  32  49  76 106 140 180 221 270 340
#     4  11  24  40  58  82 115 151 191 231 276 336
#
# _framework density 16.584693999999999
#
# number of rings (size 3 to 8) (size 9 to 14) (size 15 to 20)
#    0.000    1.615    3.846    1.846    2.154    2.154 
#    0.000    0.000    0.000    1.846    0.000    0.000 
#    0.000    1.231    0.000    1.385    0.000    0.000 
#
# Total GULP energy -289531.805647 kJ/mol
# GULP energy per Si atom -5567.919339 kJ/mol
# Density = 1.654695 g / cm^3
# Si number density = 16.584694 Si / 1000 Ang^3
#
#
#
# Elastic Constant Matrix: (Units=GPa)
#
#
# Indices 1 2 3 4 5 6 
#
# 1 78.7378 50.2310 43.7937 0.0000 0.0000 0.0000
# 2 50.2310 88.4761 25.1725 0.0000 0.0000 0.0000
# 3 43.7937 25.1725 82.2607 0.0000 0.0000 0.0000
# 4 0.0000 0.0000 0.0000 16.1198 0.0000 0.0000
# 5 0.0000 0.0000 0.0000 0.0000 15.5648 0.0000
# 6 0.0000 0.0000 0.0000 0.0000 0.0000 25.1924
#
#
#
# Elastic Compliance Matrix: (Units=1/GPa)
#
#
# Indices 1 2 3 4 5 6 
#
# 1 0.025887 -0.011803 -0.010169 0.000000 0.000000 0.000000
# 2 -0.011803 0.017762 0.000848 0.000000 0.000000 0.000000
# 3 -0.010169 0.000848 0.017311 0.000000 0.000000 0.000000
# 4 0.000000 0.000000 0.000000 0.062035 0.000000 0.000000
# 5 0.000000 0.000000 0.000000 0.000000 0.064248 0.000000
# 6 0.000000 0.000000 0.000000 0.000000 0.000000 0.039694
#
#
# Mechanical properties :
#
#
# Convention : Reuss Voigt Hill
#
# Bulk Modulus (GPa) = 53.44491 54.20766 53.82629
# Shear Modulus (GPa) = 18.15390 20.06058 19.10724
#
# Velocity S-wave (km/s) = 3.31209 3.48168 3.39794
# Velocity P-wave (km/s) = 6.84996 6.99422 6.92247
#
# Compressibility (1/GPa) = 0.01871085
#
# Stress axis : x y z
#
# Youngs Moduli (GPa) = 38.63001 56.29905 57.76728
#
# Poissons Ratio (x) = 0.66452 0.58746
# Poissons Ratio (y) = 0.45597 -0.04901
# Poissons Ratio (z) = 0.39285 -0.04777
#
# Static dielectric constant tensor:
#      x y z
#    x 1.536810 0.000000 0.000000 
#    y 0.000000 1.569440 0.000000 
#    z 0.000000 0.000000 1.643980 
# 
# From -- ./inp_files/15107.got.cif
#   From: 2010.05.17/outbox.cif.g08.bks.cpg/sg65_8_cif.got.tgz:15107.got - 2010.06.03 17:01:31.
