data_PCOD9487861
_publ_section_title
;
Structure prediction by ZEFSAII (Michael W. Deem and Ramdas Pophale) SiO2 
 PCOD9487861
Probable space group: C M M M
;
_chemical_formula_sum "Si O2"
_cell_formula_units_Z 104
_cell_length_a 9.056313
_cell_length_b 30.722222
_cell_length_c 23.613794
_cell_angle_alpha 90.000000
_cell_angle_beta 90.000000
_cell_angle_gamma 90.000000
_cell_volume 6570.067286
_symmetry_space_group_name_H-M "C M M M"
_symmetry_group_IT_number 65
_symmetry_cell_setting 'orthorhombic'
loop_
_space_group_symop_operation_xyz
x,y,z
-x,-y,z
x,-y,-z
-x,y,-z
-x,-y,-z
x,y,-z
-x,y,z
x,-y,z
1/2+x,1/2+y,z
1/2-x,1/2-y,z
1/2+x,1/2-y,-z
1/2-x,1/2+y,-z
1/2-x,1/2-y,-z
1/2+x,1/2+y,-z
1/2-x,1/2+y,z
1/2+x,1/2-y,z
loop_
_atom_site_type_symbol
_atom_site_label
_atom_site_fract_x
_atom_site_fract_y
_atom_site_fract_z
Si Si1 0.176311 0.705912 0.818683
Si Si2 0.674666 0.320501 0.063667
Si Si3 0.323273 0.112199 0.226489
Si Si4 0.670721 0.052671 0.562869
Si Si5 0.665477 0.000000 0.933162
Si Si6 0.323546 0.551340 0.679465
Si Si7 0.673416 0.584608 0.889663
O O1 0.250000 0.750000 0.796952
O O2 0.237976 0.698343 0.882628
O O3 0.212516 0.663748 0.780083
O O4 0.000000 0.709875 0.821459
O O5 0.500000 0.309823 0.069428
O O6 0.688596 0.372707 0.071129
O O7 0.722815 0.307842 0.000000
O O8 0.500000 0.108052 0.229042
O O9 0.251189 0.084462 0.276712
O O10 0.259571 0.093247 0.168245
O O11 0.717745 0.067742 0.500000
O O12 0.500000 0.066095 0.571996
O O13 0.770717 0.063995 0.616283
O O14 0.670835 0.000000 0.560990
O O15 0.755649 0.042405 0.916402
O O16 0.500000 0.000000 0.907761
O O17 0.651130 0.000000 0.000000
O O18 0.500000 0.553735 0.684068
O O19 0.281412 0.500000 0.689331
O O20 0.500000 0.578620 0.878234
#
# Coordination Sequence:
#
# PCOD9487861 Si02
#       7
#    16  16  16  16   8  16  16
#     4  10  21  36  54  74  94 120 153 192 242 295
#     4   9  18  33  52  72  93 117 146 184 234 290
#     4  10  21  36  52  71  96 126 161 199 242 290
#     4   8  14  26  44  66  95 133 173 208 243 280
#     4  11  23  35  47  65  89 119 156 195 236 285
#     4  10  20  31  46  71 102 136 173 207 241 280
#     4  10  20  34  51  68  89 118 154 197 241 284
#
# _framework density 15.829366
#
# number of rings (size 3 to 8) (size 9 to 14) (size 15 to 20)
#    0.000    2.385    0.000    3.000    1.077    5.538 
#    0.000    1.538    0.000    0.000    0.000    0.000 
#    0.000    0.615    0.000    2.000    0.000    2.462 
#
# Total GULP energy -289876.554384 kJ/mol
# GULP energy per Si atom -5574.549123 kJ/mol
# Density = 1.579334 g / cm^3
# Si number density = 15.829366 Si / 1000 Ang^3
#
#
#
# Elastic Constant Matrix: (Units=GPa)
#
#
# Indices 1 2 3 4 5 6 
#
# 1 63.5072 51.5441 44.6379 0.0000 0.0000 0.0000
# 2 51.5441 96.1618 46.1534 0.0000 0.0000 0.0000
# 3 44.6379 46.1534 100.5379 0.0000 0.0000 0.0000
# 4 0.0000 0.0000 0.0000 -4.3195 0.0000 0.0000
# 5 0.0000 0.0000 0.0000 0.0000 21.6383 0.0000
# 6 0.0000 0.0000 0.0000 0.0000 0.0000 23.9337
#
#
#
# Elastic Compliance Matrix: (Units=1/GPa)
#
#
# Indices 1 2 3 4 5 6 
#
# 1 0.032439 -0.013435 -0.008235 0.000000 0.000000 0.000000
# 2 -0.013435 0.018902 -0.002712 0.000000 0.000000 0.000000
# 3 -0.008235 -0.002712 0.014848 0.000000 0.000000 0.000000
# 4 0.000000 0.000000 0.000000 -0.231507 0.000000 0.000000
# 5 0.000000 0.000000 0.000000 0.000000 0.046214 0.000000
# 6 0.000000 0.000000 0.000000 0.000000 0.000000 0.041782
#
#
# Mechanical properties :
#
#
# Convention : Reuss Voigt Hill
#
# Bulk Modulus (GPa) = 57.39160 60.54198 58.96679
# Shear Modulus (GPa) = -219.79030 16.10860 -101.84085
#
# Velocity S-wave (km/s) = -11.79623 3.19351 -8.02972
# Velocity P-wave (km/s) = 12.21473 7.20608 6.97396
#
# Compressibility (1/GPa) = 0.01742415
#
# Stress axis : x y z
#
# Youngs Moduli (GPa) = 30.82730 52.90321 67.34997
#
# Poissons Ratio (x) = 0.71077 0.55462
# Poissons Ratio (y) = 0.41417 0.18267
# Poissons Ratio (z) = 0.25386 0.14349
#
# Static dielectric constant tensor:
#      x y z
#    x 1.535780 0.000000 0.000000 
#    y 0.000000 1.536680 0.000000 
#    z 0.000000 0.000000 1.520000 
# 
# From -- ./inp_files/68492.got.cif
#   From: 2010.05.17/outbox.cif.g08.bks.cpg/sg65_35_cif.got.tgz:68492.got - 2010.06.03 17:01:31.
