data_PCOD9487991
_publ_section_title
;
Structure prediction by ZEFSAII (Michael W. Deem and Ramdas Pophale) SiO2 
 PCOD9487991
Probable space group: C M M M
;
_chemical_formula_sum "Si O2"
_cell_formula_units_Z 80
_cell_length_a 18.626415
_cell_length_b 7.491815
_cell_length_c 27.815662
_cell_angle_alpha 90.000000
_cell_angle_beta 90.000000
_cell_angle_gamma 90.000000
_cell_volume 3881.554781
_symmetry_space_group_name_H-M "C M M M"
_symmetry_group_IT_number 65
_symmetry_cell_setting 'orthorhombic'
loop_
_space_group_symop_operation_xyz
x,y,z
-x,-y,z
x,-y,-z
-x,y,-z
-x,-y,-z
x,y,-z
-x,y,z
x,-y,z
1/2+x,1/2+y,z
1/2-x,1/2-y,z
1/2+x,1/2-y,-z
1/2-x,1/2+y,-z
1/2-x,1/2-y,-z
1/2+x,1/2+y,-z
1/2-x,1/2+y,z
1/2+x,1/2-y,z
loop_
_atom_site_type_symbol
_atom_site_label
_atom_site_fract_x
_atom_site_fract_y
_atom_site_fract_z
Si Si1 0.583466 0.717549 0.446607
Si Si2 0.166048 0.786060 0.352711
Si Si3 0.581950 0.713051 0.259681
Si Si4 0.413517 0.214772 0.948276
Si Si5 0.082842 0.285748 0.154803
O O1 0.607042 0.775474 0.500000
O O2 0.500000 0.767407 0.440259
O O3 0.585494 0.500000 0.446698
O O4 0.630104 0.781697 0.401873
O O5 0.250000 0.750000 0.351497
O O6 0.127040 0.717344 0.304650
O O7 0.156304 0.000000 0.353051
O O8 0.500000 0.784021 0.260529
O O9 0.577219 0.500000 0.264892
O O10 0.615039 0.744146 0.206784
O O11 0.500000 0.244201 0.947415
O O12 0.385822 0.279443 0.896290
O O13 0.403628 0.000000 0.949305
O O14 0.386770 0.284373 0.000000
O O15 0.080239 0.500000 0.151529
O O16 0.000000 0.220026 0.157176
#
# Coordination Sequence:
#
# PCOD9487991 Si02
#       5
#    16  16  16  16  16
#     4   8  14  27  49  73  92 113 146 183 212 245
#     4  10  20  32  46  66  91 117 145 178 217 258
#     4   9  17  29  44  60  81 112 147 180 213 252
#     4   7   9  14  26  46  73 103 132 163 202 248
#     4   8  13  21  35  56  79 104 138 177 212 248
#
# _framework density 20.610298
#
# number of rings (size 3 to 8) (size 9 to 14) (size 15 to 20)
#    0.000    3.600    0.000    3.000    0.000    3.600 
#    0.000    0.000    0.000    2.400    0.000    5.600 
#    0.000    0.800    0.000    1.800    0.000    4.800 
#
# Total GULP energy -222678.325305 kJ/mol
# GULP energy per Si atom -5566.958133 kJ/mol
# Density = 2.056339 g / cm^3
# Si number density = 20.610298 Si / 1000 Ang^3
#
#
#
# Elastic Constant Matrix: (Units=GPa)
#
#
# Indices 1 2 3 4 5 6 
#
# 1 47.7133 -0.3809 85.4077 0.0000 0.0000 0.0000
# 2 -0.3809 56.0856 9.3297 0.0000 0.0000 0.0000
# 3 85.4077 9.3297 290.9497 0.0000 0.0000 0.0000
# 4 0.0000 0.0000 0.0000 11.2258 0.0000 0.0000
# 5 0.0000 0.0000 0.0000 0.0000 -4.7811 0.0000
# 6 0.0000 0.0000 0.0000 0.0000 0.0000 9.2784
#
#
#
# Elastic Compliance Matrix: (Units=1/GPa)
#
#
# Indices 1 2 3 4 5 6 
#
# 1 0.044509 0.002489 -0.013145 0.000000 0.000000 0.000000
# 2 0.002489 0.018065 -0.001310 0.000000 0.000000 0.000000
# 3 -0.013145 -0.001310 0.007338 0.000000 0.000000 0.000000
# 4 0.000000 0.000000 0.000000 0.089080 0.000000 0.000000
# 5 0.000000 0.000000 0.000000 0.000000 -0.209155 0.000000
# 6 0.000000 0.000000 0.000000 0.000000 0.000000 0.107777
#
#
# Mechanical properties :
#
#
# Convention : Reuss Voigt Hill
#
# Bulk Modulus (GPa) = 21.74924 64.82910 43.28917
# Shear Modulus (GPa) = 51.61426 23.17075 37.39251
#
# Velocity S-wave (km/s) = 5.00972 3.35659 4.26404
# Velocity P-wave (km/s) = 6.63616 6.82241 6.72993
#
# Compressibility (1/GPa) = 0.04597862
#
# Stress axis : x y z
#
# Youngs Moduli (GPa) = 22.46762 55.35665 136.28117
#
# Poissons Ratio (x) = -0.13778 1.79144
# Poissons Ratio (y) = -0.05592 0.17851
# Poissons Ratio (z) = 0.29534 0.07251
#
# Static dielectric constant tensor:
#      x y z
#    x 1.667700 0.000000 0.000000 
#    y 0.000000 1.808760 0.000000 
#    z 0.000000 0.000000 1.816710 
# 
# From -- ./inp_files/68796.got.cif
#   From: 2010.05.17/outbox.cif.g08.bks.cpg/sg65_35_cif.got.tgz:68796.got - 2010.06.03 17:01:31.
