data_PCOD9487048
_publ_section_title
;
Structure prediction by ZEFSAII (Michael W. Deem and Ramdas Pophale) SiO2 
 PCOD9487048
Probable space group: C M M M
;
_chemical_formula_sum "Si O2"
_cell_formula_units_Z 128
_cell_length_a 20.294916
_cell_length_b 18.367746
_cell_length_c 20.068405
_cell_angle_alpha 90.000000
_cell_angle_beta 90.000000
_cell_angle_gamma 90.000000
_cell_volume 7480.936703
_symmetry_space_group_name_H-M "C M M M"
_symmetry_group_IT_number 65
_symmetry_cell_setting 'orthorhombic'
loop_
_space_group_symop_operation_xyz
x,y,z
-x,-y,z
x,-y,-z
-x,y,-z
-x,-y,-z
x,y,-z
-x,y,z
x,-y,z
1/2+x,1/2+y,z
1/2-x,1/2-y,z
1/2+x,1/2-y,-z
1/2-x,1/2+y,-z
1/2-x,1/2-y,-z
1/2+x,1/2+y,-z
1/2-x,1/2+y,z
1/2+x,1/2-y,z
loop_
_atom_site_type_symbol
_atom_site_label
_atom_site_fract_x
_atom_site_fract_y
_atom_site_fract_z
Si Si1 0.761405 0.582032 0.316733
Si Si2 0.811367 0.695425 0.574559
Si Si3 0.424985 0.735944 0.344465
Si Si4 0.073441 0.692847 0.795551
Si Si5 0.281243 0.330683 0.078540
Si Si6 0.181113 0.416774 0.168582
Si Si7 0.392704 0.415599 0.282290
Si Si8 0.425036 0.649314 0.861143
O O1 0.767794 0.500000 0.342516
O O2 0.791542 0.635984 0.370573
O O3 0.796913 0.586621 0.245625
O O4 0.684726 0.593970 0.298606
O O5 0.821488 0.665582 0.500000
O O6 0.750000 0.750000 0.572620
O O7 0.874449 0.741053 0.598926
O O8 0.500000 0.755633 0.360748
O O9 0.404407 0.781157 0.278012
O O10 0.424052 0.650582 0.324256
O O11 0.119736 0.637243 0.833469
O O12 0.070385 0.768077 0.835285
O O13 0.000000 0.662323 0.788744
O O14 0.250000 0.250000 0.095563
O O15 0.239278 0.386610 0.122572
O O16 0.358838 0.346411 0.093835
O O17 0.270339 0.340369 0.000000
O O18 0.165592 0.500000 0.151697
O O19 0.410661 0.500000 0.297192
O O20 0.409130 0.399232 0.204641
O O21 0.500000 0.630080 0.886088
#
# Coordination Sequence:
#
# PCOD9487048 Si02
#       8
#    16  16  16  16  16  16  16  16
#     4  10  20  34  57  85 108 143 188 232 282 330
#     4  11  22  36  56  81 109 146 189 231 277 333
#     4  10  20  34  55  82 112 147 185 227 276 332
#     4   9  18  33  55  84 110 139 183 232 282 332
#     4  11  23  38  57  81 111 154 196 231 277 331
#     4  11  21  35  59  85 110 143 185 233 283 337
#     4  10  19  33  55  85 116 145 185 236 284 328
#     4  10  20  34  56  84 113 147 189 233 278 334
#
# _framework density 17.110157000000001
#
# number of rings (size 3 to 8) (size 9 to 14) (size 15 to 20)
#    0.000    1.750    5.000    1.125    0.000    2.750 
#    0.000    0.000    0.000    1.125    0.000    4.375 
#    0.000    0.000    0.000    0.000    0.000    0.000 
#
# Total GULP energy -356432.243692 kJ/mol
# GULP energy per Si atom -5569.253808 kJ/mol
# Density = 1.707121 g / cm^3
# Si number density = 17.110157 Si / 1000 Ang^3
#
#
#
# Elastic Constant Matrix: (Units=GPa)
#
#
# Indices 1 2 3 4 5 6 
#
# 1 79.5533 41.1045 18.1984 0.0000 0.0000 0.0000
# 2 41.1045 88.7604 29.9402 0.0000 0.0000 0.0000
# 3 18.1984 29.9402 51.3463 0.0000 0.0000 0.0000
# 4 0.0000 0.0000 0.0000 12.6247 0.0000 0.0000
# 5 0.0000 0.0000 0.0000 0.0000 -3.6138 0.0000
# 6 0.0000 0.0000 0.0000 0.0000 0.0000 13.7183
#
#
#
# Elastic Compliance Matrix: (Units=1/GPa)
#
#
# Indices 1 2 3 4 5 6 
#
# 1 0.016649 -0.007120 -0.001749 0.000000 0.000000 0.000000
# 2 -0.007120 0.017070 -0.007430 0.000000 0.000000 0.000000
# 3 -0.001749 -0.007430 0.024428 0.000000 0.000000 0.000000
# 4 0.000000 0.000000 0.000000 0.079210 0.000000 0.000000
# 5 0.000000 0.000000 0.000000 0.000000 -0.276716 0.000000
# 6 0.000000 0.000000 0.000000 0.000000 0.000000 0.072896
#
#
# Mechanical properties :
#
#
# Convention : Reuss Voigt Hill
#
# Bulk Modulus (GPa) = 39.14104 44.23845 41.68974
# Shear Modulus (GPa) = -197.24667 13.24029 -92.00319
#
# Velocity S-wave (km/s) = -10.74852 2.78479 -7.34083
# Velocity P-wave (km/s) = 11.45056 6.02090 6.88709
#
# Compressibility (1/GPa) = 0.02554863
#
# Stress axis : x y z
#
# Youngs Moduli (GPa) = 60.06274 58.58287 40.93675
#
# Poissons Ratio (x) = 0.41712 0.07160
# Poissons Ratio (y) = 0.42766 0.30416
# Poissons Ratio (z) = 0.10506 0.43526
#
# Static dielectric constant tensor:
#      x y z
#    x 1.615650 0.000000 0.000000 
#    y 0.000000 1.578820 0.000000 
#    z 0.000000 0.000000 1.565890 
# 
# From -- ./inp_files/64878.got.cif
#   From: 2010.05.17/outbox.cif.g08.bks.cpg/sg65_33_cif.got.tgz:64878.got - 2010.06.03 17:01:31.
