data_PCOD9487327
_publ_section_title
;
Structure prediction by ZEFSAII (Michael W. Deem and Ramdas Pophale) SiO2 
 PCOD9487327
Probable space group: C M M M
;
_chemical_formula_sum "Si O2"
_cell_formula_units_Z 50
_cell_length_a 8.300982
_cell_length_b 16.102060
_cell_length_c 18.988288
_cell_angle_alpha 90.000000
_cell_angle_beta 90.000000
_cell_angle_gamma 90.000000
_cell_volume 2538.029834
_symmetry_space_group_name_H-M "C M M M"
_symmetry_group_IT_number 65
_symmetry_cell_setting 'orthorhombic'
loop_
_space_group_symop_operation_xyz
x,y,z
-x,-y,z
x,-y,-z
-x,y,-z
-x,-y,-z
x,y,-z
-x,y,z
x,-y,z
1/2+x,1/2+y,z
1/2-x,1/2-y,z
1/2+x,1/2-y,-z
1/2-x,1/2+y,-z
1/2-x,1/2-y,-z
1/2+x,1/2+y,-z
1/2-x,1/2+y,z
1/2+x,1/2-y,z
loop_
_atom_site_type_symbol
_atom_site_label
_atom_site_fract_x
_atom_site_fract_y
_atom_site_fract_z
Si Si1 0.500000 0.906707 0.854819
Si Si2 0.500000 0.000000 0.000000
Si Si3 0.309711 0.843759 0.349713
Si Si4 0.676582 0.402967 0.209030
Si Si5 0.314096 0.400546 0.500000
O O1 0.500000 0.928818 0.936971
O O2 0.666773 0.865984 0.829882
O O3 0.500000 0.000000 0.819050
O O4 0.500000 0.851043 0.336876
O O5 0.250000 0.750000 0.339674
O O6 0.213830 0.896731 0.291938
O O7 0.270190 0.869700 0.429174
O O8 0.500000 0.365980 0.194268
O O9 0.668317 0.500000 0.187913
O O10 0.312699 0.500000 0.500000
O O11 0.500000 0.371340 0.500000
#
# Coordination Sequence:
#
# PCOD9487327 Si02
#       5
#     8   2  16  16   8
#     4   8  16  32  52  83 118 146 181 224 281 331
#     4   8  16  32  58  88 128 148 188 224 288 348
#     4  12  24  38  56  80 113 150 198 246 295 347
#     4  10  19  34  56  82 115 150 190 237 286 339
#     4  11  24  41  58  79 109 151 196 246 298 352
#
# _framework density 19.700320000000001
#
# number of rings (size 3 to 8) (size 9 to 14) (size 15 to 20)
#    0.480    1.120    1.600    4.800    0.000    5.120 
#    0.000    1.600    0.000    0.000    0.000    1.120 
#    0.000    0.000    0.000    0.000    0.000    0.000 
#
# Total GULP energy -139179.407406 kJ/mol
# GULP energy per Si atom -5567.176296 kJ/mol
# Density = 1.965548 g / cm^3
# Si number density = 19.700320 Si / 1000 Ang^3
#
#
#
# Elastic Constant Matrix: (Units=GPa)
#
#
# Indices 1 2 3 4 5 6 
#
# 1 197.3356 7.4957 46.0913 0.0000 0.0000 0.0000
# 2 7.4957 22.4278 -9.7925 0.0000 0.0000 0.0000
# 3 46.0913 -9.7925 105.0631 0.0000 0.0000 0.0000
# 4 0.0000 0.0000 0.0000 -17.3437 0.0000 0.0000
# 5 0.0000 0.0000 0.0000 0.0000 3.6986 0.0000
# 6 0.0000 0.0000 0.0000 0.0000 0.0000 5.6880
#
#
#
# Elastic Compliance Matrix: (Units=1/GPa)
#
#
# Indices 1 2 3 4 5 6 
#
# 1 0.005860 -0.003212 -0.002870 0.000000 0.000000 0.000000
# 2 -0.003212 0.048239 0.005905 0.000000 0.000000 0.000000
# 3 -0.002870 0.005905 0.011328 0.000000 0.000000 0.000000
# 4 0.000000 0.000000 0.000000 -0.057658 0.000000 0.000000
# 5 0.000000 0.000000 0.000000 0.000000 0.270371 0.000000
# 6 0.000000 0.000000 0.000000 0.000000 0.000000 0.175809
#
#
# Mechanical properties :
#
#
# Convention : Reuss Voigt Hill
#
# Bulk Modulus (GPa) = 15.36724 45.82396 30.59560
# Shear Modulus (GPa) = 10.50433 17.14404 13.82419
#
# Velocity S-wave (km/s) = 2.31163 2.95319 2.65188
# Velocity P-wave (km/s) = 3.86553 5.91096 4.99408
#
# Compressibility (1/GPa) = 0.06507351
#
# Stress axis : x y z
#
# Youngs Moduli (GPa) = 170.65264 20.73003 88.28014
#
# Poissons Ratio (x) = 0.06658 0.25337
# Poissons Ratio (y) = 0.54807 -0.52130
# Poissons Ratio (z) = 0.48978 -0.12241
#
# Static dielectric constant tensor:
#      x y z
#    x 1.772710 0.000000 0.000000 
#    y 0.000000 1.719780 0.000000 
#    z 0.000000 0.000000 1.652310 
# 
# From -- ./inp_files/48709.got.cif
#   From: 2010.05.17/outbox.cif.g08.bks.cpg/sg65_25_cif.got.tgz:48709.got - 2010.06.03 17:01:31.
