data_PCOD9487594
_publ_section_title
;
Structure prediction by ZEFSAII (Michael W. Deem and Ramdas Pophale) SiO2 
 PCOD9487594
Probable space group: C M M M
;
_chemical_formula_sum "Si O2"
_cell_formula_units_Z 58
_cell_length_a 11.828154
_cell_length_b 18.660627
_cell_length_c 14.640765
_cell_angle_alpha 90.000000
_cell_angle_beta 90.000000
_cell_angle_gamma 90.000000
_cell_volume 3231.520923
_symmetry_space_group_name_H-M "C M M M"
_symmetry_group_IT_number 65
_symmetry_cell_setting 'orthorhombic'
loop_
_space_group_symop_operation_xyz
x,y,z
-x,-y,z
x,-y,-z
-x,y,-z
-x,-y,-z
x,y,-z
-x,y,z
x,-y,z
1/2+x,1/2+y,z
1/2-x,1/2-y,z
1/2+x,1/2-y,-z
1/2-x,1/2+y,-z
1/2-x,1/2-y,-z
1/2+x,1/2+y,-z
1/2-x,1/2+y,z
1/2+x,1/2-y,z
loop_
_atom_site_type_symbol
_atom_site_label
_atom_site_fract_x
_atom_site_fract_y
_atom_site_fract_z
Si Si1 0.135692 0.156552 0.600505
Si Si2 0.281641 0.500000 0.134257
Si Si3 0.636473 0.500000 0.340893
Si Si4 0.250000 0.250000 0.756455
Si Si5 0.132609 0.357777 0.895642
Si Si6 0.000000 0.000000 0.000000
O O1 0.172071 0.182600 0.500000
O O2 0.169660 0.073422 0.610150
O O3 0.181067 0.199378 0.687326
O O4 0.000000 0.159963 0.603020
O O5 0.311756 0.500000 0.240577
O O6 0.208137 0.570751 0.112814
O O7 0.398654 0.500000 0.078446
O O8 0.500000 0.500000 0.334664
O O9 0.174087 0.299447 0.822447
O O10 0.000000 0.374339 0.881618
O O11 0.145373 0.330460 0.000000
#
# Coordination Sequence:
#
# PCOD9487594 Si02
#       6
#    16   8   8   8  16   2
#     4  10  21  37  59  87 118 154 199 256 313 362
#     4  12  21  40  62  91 121 157 202 259 298 355
#     4  10  19  35  60  86 115 149 198 249 305 353
#     4  12  22  38  60  88 122 160 202 252 298 370
#     4  11  24  42  61  87 121 167 205 244 302 366
#     4  12  24  36  66 104 118 152 212 264 316 332
#
# _framework density 17.948205999999999
#
# number of rings (size 3 to 8) (size 9 to 14) (size 15 to 20)
#    0.000    1.103    4.828    2.483    0.000    2.759 
#    2.483    0.000    0.000    0.000    0.000    1.931 
#    0.000    0.000    0.000    0.000    0.000    0.000 
#
# Total GULP energy -161584.254265 kJ/mol
# GULP energy per Si atom -5571.870837 kJ/mol
# Density = 1.790735 g / cm^3
# Si number density = 17.948206 Si / 1000 Ang^3
#
#
#
# Elastic Constant Matrix: (Units=GPa)
#
#
# Indices 1 2 3 4 5 6 
#
# 1 110.6585 61.9384 64.5077 0.0000 0.0000 0.0000
# 2 61.9384 117.5320 63.5333 0.0000 0.0000 0.0000
# 3 64.5077 63.5333 162.9582 0.0000 0.0000 0.0000
# 4 0.0000 0.0000 0.0000 9.9507 0.0000 0.0000
# 5 0.0000 0.0000 0.0000 0.0000 43.3941 0.0000
# 6 0.0000 0.0000 0.0000 0.0000 0.0000 62.4851
#
#
#
# Elastic Compliance Matrix: (Units=1/GPa)
#
#
# Indices 1 2 3 4 5 6 
#
# 1 0.014178 -0.005623 -0.003420 0.000000 0.000000 0.000000
# 2 -0.005623 0.013010 -0.002847 0.000000 0.000000 0.000000
# 3 -0.003420 -0.002847 0.008600 0.000000 0.000000 0.000000
# 4 0.000000 0.000000 0.000000 0.100495 0.000000 0.000000
# 5 0.000000 0.000000 0.000000 0.000000 0.023045 0.000000
# 6 0.000000 0.000000 0.000000 0.000000 0.000000 0.016004
#
#
# Mechanical properties :
#
#
# Convention : Reuss Voigt Hill
#
# Bulk Modulus (GPa) = 83.26912 85.67860 84.47386
# Shear Modulus (GPa) = 24.61672 36.57726 30.59699
#
# Velocity S-wave (km/s) = 3.70745 4.51925 4.13333
# Velocity P-wave (km/s) = 8.05120 8.66439 8.36342
#
# Compressibility (1/GPa) = 0.01200925
#
# Stress axis : x y z
#
# Youngs Moduli (GPa) = 70.53292 76.86272 116.27600
#
# Poissons Ratio (x) = 0.43218 0.39768
# Poissons Ratio (y) = 0.39659 0.33099
# Poissons Ratio (z) = 0.24123 0.21879
#
# Static dielectric constant tensor:
#      x y z
#    x 1.581390 0.000000 0.000000 
#    y 0.000000 1.619820 0.000000 
#    z 0.000000 0.000000 1.621100 
# 
# From -- ./inp_files/37712.got.cif
#   From: 2010.05.17/outbox.cif.g08.bks.cpg/sg65_19_cif.got.tgz:37712.got - 2010.06.03 17:01:31.
