data_PCOD9487769
_publ_section_title
;
Structure prediction by ZEFSAII (Michael W. Deem and Ramdas Pophale) SiO2 
 PCOD9487769
Probable space group: C M M M
;
_chemical_formula_sum "Si O2"
_cell_formula_units_Z 104
_cell_length_a 7.317685
_cell_length_b 30.165814
_cell_length_c 24.568787
_cell_angle_alpha 90.000000
_cell_angle_beta 90.000000
_cell_angle_gamma 90.000000
_cell_volume 5423.410466
_symmetry_space_group_name_H-M "C M M M"
_symmetry_group_IT_number 65
_symmetry_cell_setting 'orthorhombic'
loop_
_space_group_symop_operation_xyz
x,y,z
-x,-y,z
x,-y,-z
-x,y,-z
-x,-y,-z
x,y,-z
-x,y,z
x,-y,z
1/2+x,1/2+y,z
1/2-x,1/2-y,z
1/2+x,1/2-y,-z
1/2-x,1/2+y,-z
1/2-x,1/2-y,-z
1/2+x,1/2+y,-z
1/2-x,1/2+y,z
1/2+x,1/2-y,z
loop_
_atom_site_type_symbol
_atom_site_label
_atom_site_fract_x
_atom_site_fract_y
_atom_site_fract_z
Si Si1 0.500000 0.946826 0.938945
Si Si2 0.704460 0.621878 0.755412
Si Si3 0.279222 0.075644 0.441931
Si Si4 0.279551 0.448076 0.153944
Si Si5 0.711959 0.319632 0.560150
Si Si6 0.278687 0.952764 0.325905
Si Si7 0.281930 0.699706 0.318602
O O1 0.322563 0.936715 0.902254
O O2 0.500000 0.000000 0.944050
O O3 0.500000 0.927991 0.000000
O O4 0.500000 0.634273 0.773987
O O5 0.781051 0.589318 0.802334
O O6 0.697281 0.588139 0.705142
O O7 0.789813 0.665262 0.726890
O O8 0.217465 0.057754 0.500000
O O9 0.500000 0.075273 0.441822
O O10 0.221704 0.126934 0.438293
O O11 0.222288 0.050284 0.388470
O O12 0.500000 0.446612 0.150002
O O13 0.232095 0.500000 0.167740
O O14 0.788510 0.306554 0.500000
O O15 0.500000 0.305550 0.559523
O O16 0.789724 0.305091 0.618894
O O17 0.500000 0.949568 0.323085
O O18 0.223987 0.000000 0.302042
O O19 0.500000 0.690831 0.322172
O O20 0.250000 0.750000 0.301589
#
# Coordination Sequence:
#
# PCOD9487769 Si02
#       7
#     8  16  16  16  16  16  16
#     4   9  18  32  52  82 118 152 187 223 251 287
#     4  10  20  35  51  69  97 133 167 207 250 299
#     4   9  17  29  44  62  85 114 151 196 248 304
#     4   9  18  32  51  77 111 152 188 217 254 300
#     4   9  17  31  49  65  84 113 151 198 255 315
#     4  10  20  30  44  68  92 120 160 202 248 300
#     4  10  21  35  50  70  94 122 158 206 263 318
#
# _framework density 19.176126
#
# number of rings (size 3 to 8) (size 9 to 14) (size 15 to 20)
#    0.000    2.538    1.538    0.462    1.077    3.077 
#    0.000    3.077    0.000    0.000    0.000    3.231 
#    0.000    0.615    0.308    0.000    0.000    0.000 
#
# Total GULP energy -289767.600753 kJ/mol
# GULP energy per Si atom -5572.453861 kJ/mol
# Density = 1.913248 g / cm^3
# Si number density = 19.176126 Si / 1000 Ang^3
#
#
#
# Elastic Constant Matrix: (Units=GPa)
#
#
# Indices 1 2 3 4 5 6 
#
# 1 81.0198 5.1746 20.9174 0.0000 0.0000 0.0000
# 2 5.1746 110.8635 55.5997 0.0000 0.0000 0.0000
# 3 20.9174 55.5997 139.9193 0.0000 0.0000 0.0000
# 4 0.0000 0.0000 0.0000 15.0663 0.0000 0.0000
# 5 0.0000 0.0000 0.0000 0.0000 1.5351 0.0000
# 6 0.0000 0.0000 0.0000 0.0000 0.0000 10.6328
#
#
#
# Elastic Compliance Matrix: (Units=1/GPa)
#
#
# Indices 1 2 3 4 5 6 
#
# 1 0.012856 0.000454 -0.002103 0.000000 0.000000 0.000000
# 2 0.000454 0.011281 -0.004551 0.000000 0.000000 0.000000
# 3 -0.002103 -0.004551 0.009270 0.000000 0.000000 0.000000
# 4 0.000000 0.000000 0.000000 0.066373 0.000000 0.000000
# 5 0.000000 0.000000 0.000000 0.000000 0.651444 0.000000
# 6 0.000000 0.000000 0.000000 0.000000 0.000000 0.094048
#
#
# Mechanical properties :
#
#
# Convention : Reuss Voigt Hill
#
# Bulk Modulus (GPa) = 47.59761 55.02067 51.30914
# Shear Modulus (GPa) = 5.78252 22.12091 13.95172
#
# Velocity S-wave (km/s) = 1.73840 3.40010 2.70025
# Velocity P-wave (km/s) = 5.37629 6.64596 6.04456
#
# Compressibility (1/GPa) = 0.02100946
#
# Stress axis : x y z
#
# Youngs Moduli (GPa) = 77.78189 88.64355 107.87939
#
# Poissons Ratio (x) = -0.04028 0.22682
# Poissons Ratio (y) = -0.03534 0.49093
# Poissons Ratio (z) = 0.16354 0.40339
#
# Static dielectric constant tensor:
#      x y z
#    x 1.767600 0.000000 0.000000 
#    y 0.000000 1.656930 0.000000 
#    z 0.000000 0.000000 1.684770 
# 
# From -- ./inp_files/60869.got.cif
#   From: 2010.05.17/outbox.cif.g08.bks.cpg/sg65_31_cif.got.tgz:60869.got - 2010.06.03 17:01:31.
