data_PCOD9487781
_publ_section_title
;
Structure prediction by ZEFSAII (Michael W. Deem and Ramdas Pophale) SiO2 
 PCOD9487781
Probable space group: C M M M
;
_chemical_formula_sum "Si O2"
_cell_formula_units_Z 96
_cell_length_a 27.675438
_cell_length_b 16.332367
_cell_length_c 12.968729
_cell_angle_alpha 90.000000
_cell_angle_beta 90.000000
_cell_angle_gamma 90.000000
_cell_volume 5861.935673
_symmetry_space_group_name_H-M "C M M M"
_symmetry_group_IT_number 65
_symmetry_cell_setting 'orthorhombic'
loop_
_space_group_symop_operation_xyz
x,y,z
-x,-y,z
x,-y,-z
-x,y,-z
-x,-y,-z
x,y,-z
-x,y,z
x,-y,z
1/2+x,1/2+y,z
1/2-x,1/2-y,z
1/2+x,1/2-y,-z
1/2-x,1/2+y,-z
1/2-x,1/2-y,-z
1/2+x,1/2+y,-z
1/2-x,1/2+y,z
1/2+x,1/2-y,z
loop_
_atom_site_type_symbol
_atom_site_label
_atom_site_fract_x
_atom_site_fract_y
_atom_site_fract_z
Si Si1 0.128237 0.641765 0.879184
Si Si2 0.224646 0.339279 0.500000
Si Si3 0.000000 0.094689 0.874799
Si Si4 0.209158 0.401019 0.715182
Si Si5 0.671912 0.406286 0.500000
Si Si6 0.445282 0.000000 0.875179
Si Si7 0.178354 0.098731 0.723203
Si Si8 0.102008 0.169293 0.879485
O O1 0.174059 0.628108 0.805824
O O2 0.086232 0.578937 0.846964
O O3 0.108215 0.733416 0.872306
O O4 0.140511 0.625586 0.000000
O O5 0.250000 0.250000 0.500000
O O6 0.197120 0.357806 0.606004
O O7 0.269523 0.403435 0.500000
O O8 0.950591 0.139053 0.842895
O O9 0.000000 0.000000 0.841808
O O10 0.000000 0.096006 0.000000
O O11 0.205937 0.500000 0.705808
O O12 0.265341 0.378606 0.737017
O O13 0.654863 0.500000 0.500000
O O14 0.659890 0.369158 0.388742
O O15 0.500000 0.000000 0.835300
O O16 0.448290 0.000000 0.000000
O O17 0.144170 0.129415 0.812771
O O18 0.177022 0.000000 0.718976
O O19 0.106948 0.145941 0.000000
#
# Coordination Sequence:
#
# PCOD9487781 Si02
#       8
#    16   8   8  16   8   8  16  16
#     4  10  21  34  50  77 109 138 172 214 263 316
#     4  10  20  30  52  76  98 132 179 221 255 302
#     4   9  18  34  54  72  98 132 169 214 259 311
#     4  10  20  35  52  74 107 141 175 215 258 311
#     4   8  16  32  48  67  95 127 165 209 246 289
#     4   9  18  34  56  75  99 139 183 219 258 313
#     4   9  18  32  52  72  99 136 171 206 254 311
#     4  10  21  33  49  75 104 132 168 212 258 308
#
# _framework density 16.376843000000001
#
# number of rings (size 3 to 8) (size 9 to 14) (size 15 to 20)
#    0.000    2.500    0.833    2.250    5.833    1.667 
#    0.000    3.333    0.000    0.500    0.000    3.500 
#    0.000    0.000    0.000    0.000    0.000    0.000 
#
# Total GULP energy -267415.699388 kJ/mol
# GULP energy per Si atom -5571.160404 kJ/mol
# Density = 1.633957 g / cm^3
# Si number density = 16.376843 Si / 1000 Ang^3
#
#
#
# Elastic Constant Matrix: (Units=GPa)
#
#
# Indices 1 2 3 4 5 6 
#
# 1 118.2199 46.2619 72.5850 0.0000 0.0000 0.0000
# 2 46.2619 59.2181 42.3959 0.0000 0.0000 0.0000
# 3 72.5850 42.3959 99.7810 0.0000 0.0000 0.0000
# 4 0.0000 0.0000 0.0000 18.1834 0.0000 0.0000
# 5 0.0000 0.0000 0.0000 0.0000 -2.2785 0.0000
# 6 0.0000 0.0000 0.0000 0.0000 0.0000 20.3434
#
#
#
# Elastic Compliance Matrix: (Units=1/GPa)
#
#
# Indices 1 2 3 4 5 6 
#
# 1 0.016765 -0.006275 -0.009530 0.000000 0.000000 0.000000
# 2 -0.006275 0.026618 -0.006745 0.000000 0.000000 0.000000
# 3 -0.009530 -0.006745 0.019820 0.000000 0.000000 0.000000
# 4 0.000000 0.000000 0.000000 0.054995 0.000000 0.000000
# 5 0.000000 0.000000 0.000000 0.000000 -0.438879 0.000000
# 6 0.000000 0.000000 0.000000 0.000000 0.000000 0.049156
#
#
# Mechanical properties :
#
#
# Convention : Reuss Voigt Hill
#
# Bulk Modulus (GPa) = 55.23608 66.63384 60.93496
# Shear Modulus (GPa) = -22.68691 14.98141 -3.85275
#
# Velocity S-wave (km/s) = -3.72601 3.02783 -1.53547
# Velocity P-wave (km/s) = 3.91031 7.28010 5.84339
#
# Compressibility (1/GPa) = 0.01810411
#
# Stress axis : x y z
#
# Youngs Moduli (GPa) = 59.64683 37.56916 50.45351
#
# Poissons Ratio (x) = 0.23573 0.48081
# Poissons Ratio (y) = 0.37426 0.34031
# Poissons Ratio (z) = 0.56842 0.25341
#
# Static dielectric constant tensor:
#      x y z
#    x 1.522040 0.000000 0.000000 
#    y 0.000000 1.576810 0.000000 
#    z 0.000000 0.000000 1.572830 
# 
# From -- ./inp_files/32492.got.cif
#   From: 2010.05.17/outbox.cif.g08.bks.cpg/sg65_17_cif.got.tgz:32492.got - 2010.06.03 17:01:31.
