data_PCOD9487241
_publ_section_title
;
Structure prediction by ZEFSAII (Michael W. Deem and Ramdas Pophale) SiO2 
 PCOD9487241
Probable space group: C M M M
;
_chemical_formula_sum "Si O2"
_cell_formula_units_Z 120
_cell_length_a 19.098431
_cell_length_b 20.496344
_cell_length_c 17.277767
_cell_angle_alpha 90.000000
_cell_angle_beta 90.000000
_cell_angle_gamma 90.000000
_cell_volume 6763.347538
_symmetry_space_group_name_H-M "C M M M"
_symmetry_group_IT_number 65
_symmetry_cell_setting 'orthorhombic'
loop_
_space_group_symop_operation_xyz
x,y,z
-x,-y,z
x,-y,-z
-x,y,-z
-x,-y,-z
x,y,-z
-x,y,z
x,-y,z
1/2+x,1/2+y,z
1/2-x,1/2-y,z
1/2+x,1/2-y,-z
1/2-x,1/2+y,-z
1/2-x,1/2-y,-z
1/2+x,1/2+y,-z
1/2-x,1/2+y,z
1/2+x,1/2-y,z
loop_
_atom_site_type_symbol
_atom_site_label
_atom_site_fract_x
_atom_site_fract_y
_atom_site_fract_z
Si Si1 0.219058 0.823546 0.589396
Si Si2 0.415998 0.000000 0.591318
Si Si3 0.640879 0.135790 0.654932
Si Si4 0.921483 0.766490 0.591781
Si Si5 0.825190 0.213687 0.907745
Si Si6 0.885794 0.571006 0.907483
Si Si7 0.220636 0.928463 0.906285
Si Si8 0.078904 0.691132 0.811840
O O1 0.217320 0.847139 0.500000
O O2 0.250000 0.750000 0.586908
O O3 0.276134 0.862693 0.638109
O O4 0.140776 0.813243 0.622146
O O5 0.388471 0.934812 0.633164
O O6 0.500000 0.000000 0.594369
O O7 0.395283 0.000000 0.500000
O O8 0.603085 0.191728 0.603259
O O9 0.621755 0.161616 0.739872
O O10 0.922729 0.778077 0.500000
O O11 0.000000 0.776465 0.622058
O O12 0.750000 0.250000 0.900148
O O13 0.816616 0.138303 0.882853
O O14 0.880339 0.250982 0.854457
O O15 0.843127 0.216992 0.000000
O O16 0.910491 0.500000 0.879931
O O17 0.803184 0.576681 0.887957
O O18 0.923820 0.631718 0.871793
O O19 0.891325 0.572352 0.000000
O O20 0.195619 0.000000 0.878854
O O21 0.216767 0.929125 0.000000
O O22 0.000000 0.708961 0.788428
#
# Coordination Sequence:
#
# PCOD9487241 Si02
#       8
#    16   8  16  16  16  16  16  16
#     4   8  15  30  52  75  99 130 170 214 258 307
#     4  11  22  36  56  76  98 144 198 232 270 327
#     4  11  22  35  48  71 109 145 182 223 266 323
#     4   9  16  30  54  80 105 132 165 211 265 318
#     4  10  19  34  55  78 102 137 186 230 271 326
#     4   9  18  34  54  73  96 133 179 219 264 325
#     4   8  14  29  55  81 101 125 169 228 274 315
#     4  12  25  35  47  71 108 146 176 221 281 329
#
# _framework density 17.742694
#
# number of rings (size 3 to 8) (size 9 to 14) (size 15 to 20)
#    0.000    2.333    1.333    4.400    0.933    4.000 
#    0.000    0.667    0.000    0.400    0.000    2.333 
#    0.000    2.667    2.400    0.000    5.067    0.000 
#
# Total GULP energy -334377.438193 kJ/mol
# GULP energy per Si atom -5572.957303 kJ/mol
# Density = 1.770231 g / cm^3
# Si number density = 17.742694 Si / 1000 Ang^3
#
#
#
# Elastic Constant Matrix: (Units=GPa)
#
#
# Indices 1 2 3 4 5 6 
#
# 1 127.9697 59.7478 38.0614 0.0000 0.0000 0.0000
# 2 59.7478 127.0975 40.8725 0.0000 0.0000 0.0000
# 3 38.0614 40.8725 48.4976 0.0000 0.0000 0.0000
# 4 0.0000 0.0000 0.0000 -10.6381 0.0000 0.0000
# 5 0.0000 0.0000 0.0000 0.0000 -4.4651 0.0000
# 6 0.0000 0.0000 0.0000 0.0000 0.0000 18.5178
#
#
#
# Elastic Compliance Matrix: (Units=1/GPa)
#
#
# Indices 1 2 3 4 5 6 
#
# 1 0.011132 -0.003324 -0.005934 0.000000 0.000000 0.000000
# 2 -0.003324 0.011786 -0.007324 0.000000 0.000000 0.000000
# 3 -0.005934 -0.007324 0.031449 0.000000 0.000000 0.000000
# 4 0.000000 0.000000 0.000000 -0.094002 0.000000 0.000000
# 5 0.000000 0.000000 0.000000 0.000000 -0.223959 0.000000
# 6 0.000000 0.000000 0.000000 0.000000 0.000000 0.054002
#
#
# Mechanical properties :
#
#
# Convention : Reuss Voigt Hill
#
# Bulk Modulus (GPa) = 47.16660 64.54757 55.85709
# Shear Modulus (GPa) = -29.52295 11.67512 -8.92391
#
# Velocity S-wave (km/s) = -4.08358 2.56798 -2.24512
# Velocity P-wave (km/s) = 2.09934 6.72692 4.98291
#
# Compressibility (1/GPa) = 0.02120144
#
# Stress axis : x y z
#
# Youngs Moduli (GPa) = 89.83471 84.84621 31.79722
#
# Poissons Ratio (x) = 0.28207 0.18870
# Poissons Ratio (y) = 0.29865 0.23288
# Poissons Ratio (z) = 0.53311 0.62140
#
# Static dielectric constant tensor:
#      x y z
#    x 1.647240 0.000000 0.000000 
#    y 0.000000 1.599940 0.000000 
#    z 0.000000 0.000000 1.689580 
# 
# From -- ./inp_files/54986.got.cif
#   From: 2010.05.17/outbox.cif.g08.bks.cpg/sg65_28_cif.got.tgz:54986.got - 2010.06.03 17:01:31.
