data_PCOD9487825
_publ_section_title
;
Structure prediction by ZEFSAII (Michael W. Deem and Ramdas Pophale) SiO2 
 PCOD9487825
Probable space group: C M M M
;
_chemical_formula_sum "Si O2"
_cell_formula_units_Z 104
_cell_length_a 7.760802
_cell_length_b 27.793070
_cell_length_c 24.911015
_cell_angle_alpha 90.000000
_cell_angle_beta 90.000000
_cell_angle_gamma 90.000000
_cell_volume 5373.219077
_symmetry_space_group_name_H-M "C M M M"
_symmetry_group_IT_number 65
_symmetry_cell_setting 'orthorhombic'
loop_
_space_group_symop_operation_xyz
x,y,z
-x,-y,z
x,-y,-z
-x,y,-z
-x,-y,-z
x,y,-z
-x,y,z
x,-y,z
1/2+x,1/2+y,z
1/2-x,1/2-y,z
1/2+x,1/2-y,-z
1/2-x,1/2+y,-z
1/2-x,1/2-y,-z
1/2+x,1/2+y,-z
1/2-x,1/2+y,z
1/2+x,1/2-y,z
loop_
_atom_site_type_symbol
_atom_site_label
_atom_site_fract_x
_atom_site_fract_y
_atom_site_fract_z
Si Si1 0.703345 0.053676 0.278342
Si Si2 0.204927 0.604434 0.560060
Si Si3 0.196393 0.849218 0.335239
Si Si4 0.710106 0.555961 0.940426
Si Si5 0.707206 0.696314 0.770598
Si Si6 0.803180 0.500000 0.565300
Si Si7 0.790680 0.100946 0.830241
O O1 0.500000 0.057075 0.290711
O O2 0.793632 0.097868 0.307983
O O3 0.729769 0.063486 0.215068
O O4 0.763066 0.000000 0.292575
O O5 0.269771 0.615763 0.500000
O O6 0.230250 0.643919 0.605592
O O7 0.276431 0.551923 0.578336
O O8 0.000000 0.597060 0.555679
O O9 0.276615 0.815084 0.289517
O O10 0.000000 0.834491 0.342371
O O11 0.500000 0.557185 0.940393
O O12 0.759010 0.500000 0.933471
O O13 0.768898 0.586519 0.889458
O O14 0.766440 0.571704 0.000000
O O15 0.500000 0.691965 0.767892
O O16 0.750000 0.750000 0.787630
O O17 0.766631 0.653584 0.809800
O O18 0.811377 0.500000 0.500000
O O19 0.000000 0.500000 0.586814
O O20 0.000000 0.099915 0.829892
#
# Coordination Sequence:
#
# PCOD9487825 Si02
#       7
#    16  16  16  16  16   8  16
#     4  10  20  31  44  65  94 128 162 193 230 281
#     4   9  17  30  48  69  95 128 161 190 224 272
#     4  10  21  34  48  70  96 120 152 195 242 286
#     4   8  13  22  41  71 103 134 165 193 224 268
#     4   9  19  34  51  70  90 116 152 197 250 298
#     4   7  12  24  41  61  87 121 157 185 206 241
#     4   9  17  30  48  71  97 123 157 201 244 280
#
# _framework density 19.355249000000001
#
# number of rings (size 3 to 8) (size 9 to 14) (size 15 to 20)
#    0.000    3.000    0.000    3.692    1.077    5.231 
#    0.000    0.000    0.000    2.769    0.000    2.154 
#    0.000    0.000    0.000    0.000    0.000    0.308 
#
# Total GULP energy -289803.225920 kJ/mol
# GULP energy per Si atom -5573.138960 kJ/mol
# Density = 1.931120 g / cm^3
# Si number density = 19.355249 Si / 1000 Ang^3
#
#
#
# Elastic Constant Matrix: (Units=GPa)
#
#
# Indices 1 2 3 4 5 6 
#
# 1 26.1203 -2.4090 2.5608 0.0000 0.0000 0.0000
# 2 -2.4090 58.3121 22.7844 0.0000 0.0000 0.0000
# 3 2.5608 22.7844 125.6698 0.0000 0.0000 0.0000
# 4 0.0000 0.0000 0.0000 19.2519 0.0000 0.0000
# 5 0.0000 0.0000 0.0000 0.0000 16.2586 0.0000
# 6 0.0000 0.0000 0.0000 0.0000 0.0000 156.5205
#
#
#
# Elastic Compliance Matrix: (Units=1/GPa)
#
#
# Indices 1 2 3 4 5 6 
#
# 1 0.038587 0.002046 -0.001157 0.000000 0.000000 0.000000
# 2 0.002046 0.018565 -0.003408 0.000000 0.000000 0.000000
# 3 -0.001157 -0.003408 0.008599 0.000000 0.000000 0.000000
# 4 0.000000 0.000000 0.000000 0.051943 0.000000 0.000000
# 5 0.000000 0.000000 0.000000 0.000000 0.061506 0.000000
# 6 0.000000 0.000000 0.000000 0.000000 0.000000 0.006389
#
#
# Mechanical properties :
#
#
# Convention : Reuss Voigt Hill
#
# Bulk Modulus (GPa) = 16.47089 28.44163 22.45626
# Shear Modulus (GPa) = 23.71209 50.88396 37.29802
#
# Velocity S-wave (km/s) = 3.50394 5.13289 4.39455
# Velocity P-wave (km/s) = 4.98983 7.06082 6.11365
#
# Compressibility (1/GPa) = 0.06071318
#
# Stress axis : x y z
#
# Youngs Moduli (GPa) = 25.91574 53.86455 116.29595
#
# Poissons Ratio (x) = -0.11022 0.13459
# Poissons Ratio (y) = -0.05303 0.39629
# Poissons Ratio (z) = 0.02999 0.18355
#
# Static dielectric constant tensor:
#      x y z
#    x 1.715630 0.000000 0.000000 
#    y 0.000000 1.672910 0.000000 
#    z 0.000000 0.000000 1.710850 
# 
# From -- ./inp_files/68249.got.cif
#   From: 2010.05.17/outbox.cif.g08.bks.cpg/sg65_35_cif.got.tgz:68249.got - 2010.06.03 17:01:31.
