data_PCOD9487062
_publ_section_title
;
Structure prediction by ZEFSAII (Michael W. Deem and Ramdas Pophale) SiO2 
 PCOD9487062
Probable space group: C M M M
;
_chemical_formula_sum "Si O2"
_cell_formula_units_Z 104
_cell_length_a 13.808438
_cell_length_b 21.097555
_cell_length_c 15.737050
_cell_angle_alpha 90.000000
_cell_angle_beta 90.000000
_cell_angle_gamma 90.000000
_cell_volume 4584.584763
_symmetry_space_group_name_H-M "C M M M"
_symmetry_group_IT_number 65
_symmetry_cell_setting 'orthorhombic'
loop_
_space_group_symop_operation_xyz
x,y,z
-x,-y,z
x,-y,-z
-x,y,-z
-x,-y,-z
x,y,-z
-x,y,z
x,-y,z
1/2+x,1/2+y,z
1/2-x,1/2-y,z
1/2+x,1/2-y,-z
1/2-x,1/2+y,-z
1/2-x,1/2-y,-z
1/2+x,1/2+y,-z
1/2-x,1/2+y,z
1/2+x,1/2-y,z
loop_
_atom_site_type_symbol
_atom_site_label
_atom_site_fract_x
_atom_site_fract_y
_atom_site_fract_z
Si Si1 0.250000 0.250000 0.304751
Si Si2 0.617960 0.000000 0.789423
Si Si3 0.385661 0.737986 0.842919
Si Si4 0.172449 0.500000 0.598550
Si Si5 0.723488 0.869355 0.403755
Si Si6 0.383360 0.122989 0.902952
Si Si7 0.111257 0.074250 0.282580
Si Si8 0.885112 0.103311 0.908944
O O1 0.330834 0.278832 0.243172
O O2 0.301614 0.195837 0.358691
O O3 0.639733 0.936641 0.843549
O O4 0.500000 0.000000 0.771441
O O5 0.678815 0.000000 0.702797
O O6 0.500000 0.742821 0.828622
O O7 0.350083 0.807404 0.872369
O O8 0.371494 0.679401 0.906001
O O9 0.221828 0.500000 0.500000
O O10 0.143208 0.574635 0.595509
O O11 0.751773 0.855707 0.500000
O O12 0.814623 0.897153 0.350948
O O13 0.500000 0.126317 0.903459
O O14 0.353175 0.112782 0.000000
O O15 0.146094 0.080271 0.184294
O O16 0.000000 0.100026 0.287006
O O17 0.105080 0.000000 0.302638
O O18 0.000000 0.090191 0.908947
O O19 0.848555 0.078511 0.000000
#
# Coordination Sequence:
#
# PCOD9487062 Si02
#       8
#     8   8  16   8  16  16  16  16
#     4  12  23  38  63  88 118 154 199 252 301 364
#     4  10  19  33  56  82 106 138 184 238 290 337
#     4  10  20  35  57  83 115 157 198 239 289 346
#     4  10  22  40  60  78 106 147 187 231 296 361
#     4  11  23  40  60  83 114 153 191 238 302 363
#     4   9  17  31  53  81 113 149 187 229 281 341
#     4  10  20  36  61  90 118 152 197 245 293 353
#     4   9  17  32  55  83 118 157 192 232 287 349
#
# _framework density 22.684716000000002
#
# number of rings (size 3 to 8) (size 9 to 14) (size 15 to 20)
#    0.000    2.000    2.308    1.846    0.000    3.538 
#    0.000    3.846    0.000    3.231    0.000    0.000 
#    0.000    0.000    0.000    0.000    0.000    0.000 
#
# Total GULP energy -289535.616652 kJ/mol
# GULP energy per Si atom -5567.992628 kJ/mol
# Density = 2.263308 g / cm^3
# Si number density = 22.684716 Si / 1000 Ang^3
#
#
#
# Elastic Constant Matrix: (Units=GPa)
#
#
# Indices 1 2 3 4 5 6 
#
# 1 77.7402 -23.7013 -6.4890 0.0000 0.0000 0.0000
# 2 -23.7013 80.3277 15.2572 0.0000 0.0000 0.0000
# 3 -6.4890 15.2572 158.8706 0.0000 0.0000 0.0000
# 4 0.0000 0.0000 0.0000 19.2717 0.0000 0.0000
# 5 0.0000 0.0000 0.0000 0.0000 13.3232 0.0000
# 6 0.0000 0.0000 0.0000 0.0000 0.0000 9.0673
#
#
#
# Elastic Compliance Matrix: (Units=1/GPa)
#
#
# Indices 1 2 3 4 5 6 
#
# 1 0.014140 0.004138 0.000180 0.000000 0.000000 0.000000
# 2 0.004138 0.013891 -0.001165 0.000000 0.000000 0.000000
# 3 0.000180 -0.001165 0.006414 0.000000 0.000000 0.000000
# 4 0.000000 0.000000 0.000000 0.051890 0.000000 0.000000
# 5 0.000000 0.000000 0.000000 0.000000 0.075057 0.000000
# 6 0.000000 0.000000 0.000000 0.000000 0.000000 0.110287
#
#
# Mechanical properties :
#
#
# Convention : Reuss Voigt Hill
#
# Bulk Modulus (GPa) = 24.53940 31.89694 28.21817
# Shear Modulus (GPa) = 17.92399 30.45721 24.19060
#
# Velocity S-wave (km/s) = 2.81398 3.66817 3.26910
# Velocity P-wave (km/s) = 4.62591 5.65969 5.16871
#
# Compressibility (1/GPa) = 0.04075080
#
# Stress axis : x y z
#
# Youngs Moduli (GPa) = 70.72166 71.98801 155.91689
#
# Poissons Ratio (x) = -0.29788 -0.02809
# Poissons Ratio (y) = -0.29264 0.18165
# Poissons Ratio (z) = -0.01274 0.08387
#
# Static dielectric constant tensor:
#      x y z
#    x 1.896810 0.000000 0.000000 
#    y 0.000000 1.888210 0.000000 
#    z 0.000000 0.000000 1.830450 
# 
# From -- ./inp_files/42906.got.cif
#   From: 2010.05.17/outbox.cif.g08.bks.cpg/sg65_22_cif.got.tgz:42906.got - 2010.06.03 17:01:31.
