data_PCOD9487943
_publ_section_title
;
Structure prediction by ZEFSAII (Michael W. Deem and Ramdas Pophale) SiO2 
 PCOD9487943
Probable space group: C M M M
;
_chemical_formula_sum "Si O2"
_cell_formula_units_Z 88
_cell_length_a 20.918567
_cell_length_b 17.879360
_cell_length_c 17.113378
_cell_angle_alpha 90.000000
_cell_angle_beta 90.000000
_cell_angle_gamma 90.000000
_cell_volume 6400.584604
_symmetry_space_group_name_H-M "C M M M"
_symmetry_group_IT_number 65
_symmetry_cell_setting 'orthorhombic'
loop_
_space_group_symop_operation_xyz
x,y,z
-x,-y,z
x,-y,-z
-x,y,-z
-x,-y,-z
x,y,-z
-x,y,z
x,-y,z
1/2+x,1/2+y,z
1/2-x,1/2-y,z
1/2+x,1/2-y,-z
1/2-x,1/2+y,-z
1/2-x,1/2-y,-z
1/2+x,1/2+y,-z
1/2-x,1/2+y,z
1/2+x,1/2-y,z
loop_
_atom_site_type_symbol
_atom_site_label
_atom_site_fract_x
_atom_site_fract_y
_atom_site_fract_z
Si Si1 0.926587 0.909419 0.000000
Si Si2 0.876472 0.840792 0.671404
Si Si3 0.125122 0.681037 0.593139
Si Si4 0.500000 0.413988 0.593291
Si Si5 0.244902 0.087988 0.591107
Si Si6 0.000000 0.414636 0.405531
Si Si7 0.922299 0.911329 0.827325
O O1 0.899796 0.889499 0.085065
O O2 0.000000 0.882860 0.000000
O O3 0.928670 0.000000 0.000000
O O4 0.872200 0.754727 0.645772
O O5 0.811886 0.881019 0.643774
O O6 0.891075 0.860447 0.761133
O O7 0.936802 0.874901 0.625082
O O8 0.119777 0.700895 0.500000
O O9 0.189598 0.633168 0.602332
O O10 0.063671 0.631143 0.615004
O O11 0.500000 0.500000 0.620228
O O12 0.500000 0.412163 0.500000
O O13 0.225781 0.097793 0.500000
O O14 0.255321 0.000000 0.604283
O O15 0.000000 0.500000 0.375976
O O16 0.000000 0.419003 0.500000
O O17 0.000000 0.904655 0.824111
O O18 0.908437 0.000000 0.814071
#
# Coordination Sequence:
#
# PCOD9487943 Si02
#       7
#     8  16  16   8  16   8  16
#     4   7  12  24  42  60  81 112 146 177 208 245
#     4  12  20  28  42  63  90 117 143 177 219 260
#     4  10  20  32  45  62  84 112 148 189 228 259
#     4  11  21  29  37  54  85 122 152 171 195 243
#     4  10  20  33  46  59  80 115 157 192 219 254
#     4   9  17  31  49  63  76 104 149 194 229 257
#     4   9  16  27  42  62  88 117 147 176 208 254
#
# _framework density 13.748744
#
# number of rings (size 3 to 8) (size 9 to 14) (size 15 to 20)
#    0.000    2.091    0.909    6.000    0.000    5.818 
#    0.000    0.000    0.000    0.000    0.000    2.545 
#    0.000    0.000    0.000    3.273    0.000    0.000 
#
# Total GULP energy -245286.268586 kJ/mol
# GULP energy per Si atom -5574.687922 kJ/mol
# Density = 1.371745 g / cm^3
# Si number density = 13.748744 Si / 1000 Ang^3
#
#
#
# Elastic Constant Matrix: (Units=GPa)
#
#
# Indices 1 2 3 4 5 6 
#
# 1 72.5067 33.9742 44.0490 0.0000 0.0000 0.0000
# 2 33.9742 92.7460 59.5361 0.0000 0.0000 0.0000
# 3 44.0490 59.5361 100.0070 0.0000 0.0000 0.0000
# 4 0.0000 0.0000 0.0000 18.8194 0.0000 0.0000
# 5 0.0000 0.0000 0.0000 0.0000 0.5553 0.0000
# 6 0.0000 0.0000 0.0000 0.0000 0.0000 20.6144
#
#
#
# Elastic Compliance Matrix: (Units=1/GPa)
#
#
# Indices 1 2 3 4 5 6 
#
# 1 0.019210 -0.002598 -0.006914 0.000000 0.000000 0.000000
# 2 -0.002598 0.017803 -0.009454 0.000000 0.000000 0.000000
# 3 -0.006914 -0.009454 0.018673 0.000000 0.000000 0.000000
# 4 0.000000 0.000000 0.000000 0.053137 0.000000 0.000000
# 5 0.000000 0.000000 0.000000 0.000000 1.800911 0.000000
# 6 0.000000 0.000000 0.000000 0.000000 0.000000 0.048510
#
#
# Mechanical properties :
#
#
# Convention : Reuss Voigt Hill
#
# Bulk Modulus (GPa) = 56.33049 60.04203 58.18626
# Shear Modulus (GPa) = 2.49739 16.51117 9.50428
#
# Velocity S-wave (km/s) = 1.34922 3.46919 2.63208
# Velocity P-wave (km/s) = 6.59451 7.73387 7.18680
#
# Compressibility (1/GPa) = 0.01775237
#
# Stress axis : x y z
#
# Youngs Moduli (GPa) = 52.05655 56.17168 53.55399
#
# Poissons Ratio (x) = 0.14596 0.37029
# Poissons Ratio (y) = 0.13526 0.50628
# Poissons Ratio (z) = 0.35993 0.53103
#
# Static dielectric constant tensor:
#      x y z
#    x 1.439000 0.000000 0.000000 
#    y 0.000000 1.449710 0.000000 
#    z 0.000000 0.000000 1.458820 
# 
# From -- ./inp_files/53261.got.cif
#   From: 2010.05.17/outbox.cif.g08.bks.cpg/sg65_27_cif.got.tgz:53261.got - 2010.06.03 17:01:31.
