data_PCOD9487436
_publ_section_title
;
Structure prediction by ZEFSAII (Michael W. Deem and Ramdas Pophale) SiO2 
 PCOD9487436
Probable space group: C M M M
;
_chemical_formula_sum "Si O2"
_cell_formula_units_Z 100
_cell_length_a 19.196980
_cell_length_b 14.622610
_cell_length_c 20.198340
_cell_angle_alpha 90.000000
_cell_angle_beta 90.000000
_cell_angle_gamma 90.000000
_cell_volume 5669.875046
_symmetry_space_group_name_H-M "C M M M"
_symmetry_group_IT_number 65
_symmetry_cell_setting 'orthorhombic'
loop_
_space_group_symop_operation_xyz
x,y,z
-x,-y,z
x,-y,-z
-x,y,-z
-x,-y,-z
x,y,-z
-x,y,z
x,-y,z
1/2+x,1/2+y,z
1/2-x,1/2-y,z
1/2+x,1/2-y,-z
1/2-x,1/2+y,-z
1/2-x,1/2-y,-z
1/2+x,1/2+y,-z
1/2-x,1/2+y,z
1/2+x,1/2-y,z
loop_
_atom_site_type_symbol
_atom_site_label
_atom_site_fract_x
_atom_site_fract_y
_atom_site_fract_z
Si Si1 0.577905 0.760531 0.783048
Si Si2 0.796315 0.605868 0.749911
Si Si3 0.758488 0.000000 0.500000
Si Si4 0.252919 0.607646 0.104164
Si Si5 0.632068 0.753360 0.072201
Si Si6 0.080642 0.892446 0.677334
Si Si7 0.280421 0.348263 0.386980
O O1 0.500000 0.793959 0.767226
O O2 0.637644 0.827865 0.756749
O O3 0.586076 0.752643 0.862000
O O4 0.586804 0.664198 0.745352
O O5 0.818456 0.500000 0.749944
O O6 0.750404 0.619731 0.816094
O O7 0.753496 0.626621 0.684084
O O8 0.761098 0.078986 0.557983
O O9 0.254226 0.500000 0.088881
O O10 0.317801 0.664736 0.077178
O O11 0.183759 0.659024 0.078292
O O12 0.597806 0.755029 0.000000
O O13 0.136512 0.851765 0.626184
O O14 0.000000 0.884271 0.655260
O O15 0.096066 0.000000 0.686419
O O16 0.250000 0.250000 0.405052
#
# Coordination Sequence:
#
# PCOD9487436 Si02
#       7
#    16  16   4  16  16  16  16
#     4  10  21  36  55  80 108 146 198 248 292 344
#     4  10  19  34  59  84 108 145 188 248 295 333
#     4  12  26  40  57  94 133 158 184 230 286 350
#     4   9  18  31  51  78 105 136 185 237 289 342
#     4  10  20  31  47  75 110 145 181 231 294 356
#     4  10  20  37  62  89 116 151 196 244 289 333
#     4  12  22  38  61  89 122 157 189 229 286 344
#
# _framework density 17.637073000000001
#
# number of rings (size 3 to 8) (size 9 to 14) (size 15 to 20)
#    0.000    1.760    3.200    2.160    2.240    3.840 
#    0.000    0.800    0.000    0.000    0.000   10.640 
#    0.000    0.000    0.000    0.000    0.000    0.000 
#
# Total GULP energy -278523.941349 kJ/mol
# GULP energy per Si atom -5570.478827 kJ/mol
# Density = 1.759693 g / cm^3
# Si number density = 17.637073 Si / 1000 Ang^3
#
#
#
# Elastic Constant Matrix: (Units=GPa)
#
#
# Indices 1 2 3 4 5 6 
#
# 1 75.5424 39.4625 21.7267 0.0000 0.0000 0.0000
# 2 39.4625 130.7623 46.4550 0.0000 0.0000 0.0000
# 3 21.7267 46.4550 106.4206 0.0000 0.0000 0.0000
# 4 0.0000 0.0000 0.0000 18.4435 0.0000 0.0000
# 5 0.0000 0.0000 0.0000 0.0000 -2.5105 0.0000
# 6 0.0000 0.0000 0.0000 0.0000 0.0000 16.6504
#
#
#
# Elastic Compliance Matrix: (Units=1/GPa)
#
#
# Indices 1 2 3 4 5 6 
#
# 1 0.015880 -0.004309 -0.001361 0.000000 0.000000 0.000000
# 2 -0.004309 0.010220 -0.003582 0.000000 0.000000 0.000000
# 3 -0.001361 -0.003582 0.011238 0.000000 0.000000 0.000000
# 4 0.000000 0.000000 0.000000 0.054220 0.000000 0.000000
# 5 0.000000 0.000000 0.000000 0.000000 -0.398333 0.000000
# 6 0.000000 0.000000 0.000000 0.000000 0.000000 0.060059
#
#
# Mechanical properties :
#
#
# Convention : Reuss Voigt Hill
#
# Bulk Modulus (GPa) = 53.09271 58.66818 55.88044
# Shear Modulus (GPa) = -22.52910 20.18875 -1.17018
#
# Velocity S-wave (km/s) = -3.57791 3.38698 -0.81542
# Velocity P-wave (km/s) = 3.61934 6.97365 5.55569
#
# Compressibility (1/GPa) = 0.01883498
#
# Stress axis : x y z
#
# Youngs Moduli (GPa) = 62.97245 97.84486 88.98334
#
# Poissons Ratio (x) = 0.42160 0.12112
# Poissons Ratio (y) = 0.27134 0.31871
# Poissons Ratio (z) = 0.08571 0.35045
#
# Static dielectric constant tensor:
#      x y z
#    x 1.603570 0.000000 0.000000 
#    y 0.000000 1.593930 0.000000 
#    z 0.000000 0.000000 1.602230 
# 
# From -- ./inp_files/55894.got.cif
#   From: 2010.05.17/outbox.cif.g08.bks.cpg/sg65_28_cif.got.tgz:55894.got - 2010.06.03 17:01:31.
