data_PCOD9487998
_publ_section_title
;
Structure prediction by ZEFSAII (Michael W. Deem and Ramdas Pophale) SiO2 
 PCOD9487998
Probable space group: C M M M
;
_chemical_formula_sum "Si O2"
_cell_formula_units_Z 104
_cell_length_a 9.111866
_cell_length_b 28.005211
_cell_length_c 26.826234
_cell_angle_alpha 90.000000
_cell_angle_beta 90.000000
_cell_angle_gamma 90.000000
_cell_volume 6845.511147
_symmetry_space_group_name_H-M "C M M M"
_symmetry_group_IT_number 65
_symmetry_cell_setting 'orthorhombic'
loop_
_space_group_symop_operation_xyz
x,y,z
-x,-y,z
x,-y,-z
-x,y,-z
-x,-y,-z
x,y,-z
-x,y,z
x,-y,z
1/2+x,1/2+y,z
1/2-x,1/2-y,z
1/2+x,1/2-y,-z
1/2-x,1/2+y,-z
1/2-x,1/2-y,-z
1/2+x,1/2+y,-z
1/2-x,1/2+y,z
1/2+x,1/2-y,z
loop_
_atom_site_type_symbol
_atom_site_label
_atom_site_fract_x
_atom_site_fract_y
_atom_site_fract_z
Si Si1 0.331247 0.442015 0.500000
Si Si2 0.825002 0.444589 0.802456
Si Si3 0.823495 0.444055 0.397772
Si Si4 0.174492 0.859187 0.856264
Si Si5 0.674094 0.198890 0.941668
Si Si6 0.674885 0.698713 0.754726
Si Si7 0.675428 0.112229 0.701441
O O1 0.328230 0.500000 0.500000
O O2 0.500000 0.426581 0.500000
O O3 0.250036 0.427690 0.550763
O O4 0.785262 0.500000 0.806574
O O5 0.737526 0.410148 0.839365
O O6 0.797758 0.425031 0.746561
O O7 0.000000 0.439843 0.811455
O O8 0.785089 0.500000 0.388980
O O9 0.780859 0.411988 0.350555
O O10 0.000000 0.442103 0.402787
O O11 0.254397 0.839039 0.904749
O O12 0.204714 0.823514 0.809659
O O13 0.000000 0.861106 0.863522
O O14 0.500000 0.202745 0.932817
O O15 0.750000 0.250000 0.932406
O O16 0.697083 0.187035 0.000000
O O17 0.500000 0.702578 0.748895
O O18 0.750000 0.750000 0.750083
O O19 0.740816 0.660470 0.715935
O O20 0.500000 0.121285 0.700260
#
# Coordination Sequence:
#
# PCOD9487998 Si02
#       7
#     8  16  16  16  16  16  16
#     4   9  17  27  39  59  88 121 154 187 225 265
#     4   9  17  30  48  69  94 124 156 189 226 269
#     4   9  16  27  44  65  90 120 153 187 222 263
#     4  10  20  32  48  70  95 124 155 187 225 269
#     4  10  20  33  50  72  96 121 150 186 229 275
#     4  10  20  32  46  66  92 121 152 185 223 267
#     4   9  17  29  46  68  92 119 152 188 226 268
#
# _framework density 15.192437999999999
#
# number of rings (size 3 to 8) (size 9 to 14) (size 15 to 20)
#    0.000    2.538    0.000    2.538    0.000    7.692 
#    0.000    0.000    0.000    3.231    0.000    3.769 
#    0.000    0.000    0.000    0.000    0.000    0.000 
#
# Total GULP energy -289991.215901 kJ/mol
# GULP energy per Si atom -5576.754152 kJ/mol
# Density = 1.515786 g / cm^3
# Si number density = 15.192438 Si / 1000 Ang^3
#
#
#
# Elastic Constant Matrix: (Units=GPa)
#
#
# Indices 1 2 3 4 5 6 
#
# 1 62.6439 63.4632 64.4369 0.0000 0.0000 0.0000
# 2 63.4632 123.9102 70.4935 0.0000 0.0000 0.0000
# 3 64.4369 70.4935 107.7951 0.0000 0.0000 0.0000
# 4 0.0000 0.0000 0.0000 23.4152 0.0000 0.0000
# 5 0.0000 0.0000 0.0000 0.0000 20.5870 0.0000
# 6 0.0000 0.0000 0.0000 0.0000 0.0000 24.9006
#
#
#
# Elastic Compliance Matrix: (Units=1/GPa)
#
#
# Indices 1 2 3 4 5 6 
#
# 1 0.054701 -0.014991 -0.022895 0.000000 0.000000 0.000000
# 2 -0.014991 0.016960 -0.002130 0.000000 0.000000 0.000000
# 3 -0.022895 -0.002130 0.024356 0.000000 0.000000 0.000000
# 4 0.000000 0.000000 0.000000 0.042707 0.000000 0.000000
# 5 0.000000 0.000000 0.000000 0.000000 0.048574 0.000000
# 6 0.000000 0.000000 0.000000 0.000000 0.000000 0.040160
#
#
# Mechanical properties :
#
#
# Convention : Reuss Voigt Hill
#
# Bulk Modulus (GPa) = 62.56057 76.79295 69.67676
# Shear Modulus (GPa) = 15.98373 20.17758 18.08065
#
# Velocity S-wave (km/s) = 3.24710 3.64831 3.45354
# Velocity P-wave (km/s) = 7.43817 8.27064 7.86543
#
# Compressibility (1/GPa) = 0.01598451
#
# Stress axis : x y z
#
# Youngs Moduli (GPa) = 18.28134 58.96211 41.05789
#
# Poissons Ratio (x) = 0.88389 0.94002
# Poissons Ratio (y) = 0.27405 0.08745
# Poissons Ratio (z) = 0.41855 0.12559
#
# Static dielectric constant tensor:
#      x y z
#    x 1.504990 0.000000 0.000000 
#    y 0.000000 1.476770 0.000000 
#    z 0.000000 0.000000 1.491670 
# 
# From -- ./inp_files/68269.got.cif
#   From: 2010.05.17/outbox.cif.g08.bks.cpg/sg65_35_cif.got.tgz:68269.got - 2010.06.03 17:01:31.
