data_PCOD9487668
_publ_section_title
;
Structure prediction by ZEFSAII (Michael W. Deem and Ramdas Pophale) SiO2 
 PCOD9487668
Probable space group: C M M M
;
_chemical_formula_sum "Si O2"
_cell_formula_units_Z 88
_cell_length_a 7.742989
_cell_length_b 29.706245
_cell_length_c 18.403834
_cell_angle_alpha 90.000000
_cell_angle_beta 90.000000
_cell_angle_gamma 90.000000
_cell_volume 4233.160238
_symmetry_space_group_name_H-M "C M M M"
_symmetry_group_IT_number 65
_symmetry_cell_setting 'orthorhombic'
loop_
_space_group_symop_operation_xyz
x,y,z
-x,-y,z
x,-y,-z
-x,y,-z
-x,-y,-z
x,y,-z
-x,y,z
x,-y,z
1/2+x,1/2+y,z
1/2-x,1/2-y,z
1/2+x,1/2-y,-z
1/2-x,1/2+y,-z
1/2-x,1/2-y,-z
1/2+x,1/2+y,-z
1/2-x,1/2+y,z
1/2+x,1/2-y,z
loop_
_atom_site_type_symbol
_atom_site_label
_atom_site_fract_x
_atom_site_fract_y
_atom_site_fract_z
Si Si1 0.207177 0.700561 0.136943
Si Si2 0.290728 0.895112 0.919930
Si Si3 0.795802 0.051339 0.775496
Si Si4 0.212525 0.448221 0.500000
Si Si5 0.201622 0.391621 0.363070
Si Si6 0.292113 0.799471 0.695915
O O1 0.250000 0.750000 0.107080
O O2 0.267964 0.656304 0.094998
O O3 0.272375 0.698230 0.220460
O O4 0.000000 0.697895 0.139210
O O5 0.500000 0.895099 0.919398
O O6 0.233785 0.926298 0.853750
O O7 0.233142 0.909822 0.000000
O O8 0.713397 0.081460 0.712495
O O9 0.000000 0.050780 0.761272
O O10 0.730936 0.000000 0.773752
O O11 0.269080 0.500000 0.500000
O O12 0.272825 0.421600 0.428444
O O13 0.000000 0.449435 0.500000
O O14 0.276215 0.341951 0.348979
O O15 0.000000 0.385171 0.380922
O O16 0.500000 0.803397 0.699495
O O17 0.250000 0.750000 0.666958
#
# Coordination Sequence:
#
# PCOD9487668 Si02
#       6
#    16  16  16   8  16  16
#     4   9  17  31  50  77 108 140 178 220 268 320
#     4  10  21  38  58  80 108 142 184 231 274 323
#     4  11  24  39  56  80 109 143 183 227 277 331
#     4   9  18  32  56  89 115 139 179 233 282 319
#     4  10  19  36  60  85 112 144 184 227 271 323
#     4   9  17  30  51  78 109 143 179 221 266 317
#
# _framework density 20.788252
#
# number of rings (size 3 to 8) (size 9 to 14) (size 15 to 20)
#    0.000    2.273    1.818    1.091    0.000    4.727 
#    0.000    2.727    0.000    1.636    0.000    0.000 
#    0.000    0.000    0.000    0.000    0.000    0.000 
#
# Total GULP energy -245625.824616 kJ/mol
# GULP energy per Si atom -5582.405105 kJ/mol
# Density = 2.074094 g / cm^3
# Si number density = 20.788252 Si / 1000 Ang^3
#
#
#
# Elastic Constant Matrix: (Units=GPa)
#
#
# Indices 1 2 3 4 5 6 
#
# 1 27.5176 -8.2874 -9.8448 0.0000 0.0000 0.0000
# 2 -8.2874 151.4333 58.9057 0.0000 0.0000 0.0000
# 3 -9.8448 58.9057 105.7943 0.0000 0.0000 0.0000
# 4 0.0000 0.0000 0.0000 2.3301 0.0000 0.0000
# 5 0.0000 0.0000 0.0000 0.0000 11.3752 0.0000
# 6 0.0000 0.0000 0.0000 0.0000 0.0000 21.1915
#
#
#
# Elastic Compliance Matrix: (Units=1/GPa)
#
#
# Indices 1 2 3 4 5 6 
#
# 1 0.037686 0.000891 0.003011 0.000000 0.000000 0.000000
# 2 0.000891 0.008450 -0.004622 0.000000 0.000000 0.000000
# 3 0.003011 -0.004622 0.012306 0.000000 0.000000 0.000000
# 4 0.000000 0.000000 0.000000 0.429158 0.000000 0.000000
# 5 0.000000 0.000000 0.000000 0.000000 0.087910 0.000000
# 6 0.000000 0.000000 0.000000 0.000000 0.000000 0.047189
#
#
# Mechanical properties :
#
#
# Convention : Reuss Voigt Hill
#
# Bulk Modulus (GPa) = 17.54326 40.69913 29.12119
# Shear Modulus (GPa) = 7.77435 23.24415 15.50925
#
# Velocity S-wave (km/s) = 1.93595 3.34749 2.73437
# Velocity P-wave (km/s) = 3.66804 5.87889 4.89979
#
# Compressibility (1/GPa) = 0.05700194
#
# Stress axis : x y z
#
# Youngs Moduli (GPa) = 26.53508 118.33895 81.26084
#
# Poissons Ratio (x) = -0.10548 -0.24465
# Poissons Ratio (y) = -0.02365 0.37560
# Poissons Ratio (z) = -0.07989 0.54698
#
# Static dielectric constant tensor:
#      x y z
#    x 1.767420 0.000000 0.000000 
#    y 0.000000 1.746590 0.000000 
#    z 0.000000 0.000000 1.722740 
# 
# From -- ./inp_files/50368.got.cif
#   From: 2010.05.17/outbox.cif.g08.bks.cpg/sg65_26_cif.got.tgz:50368.got - 2010.06.03 17:01:31.
