data_PCOD9487083
_publ_section_title
;
Structure prediction by ZEFSAII (Michael W. Deem and Ramdas Pophale) SiO2 
 PCOD9487083
Probable space group: C M M M
;
_chemical_formula_sum "Si O2"
_cell_formula_units_Z 56
_cell_length_a 22.157839
_cell_length_b 17.131847
_cell_length_c 7.874056
_cell_angle_alpha 90.000000
_cell_angle_beta 90.000000
_cell_angle_gamma 90.000000
_cell_volume 2989.028725
_symmetry_space_group_name_H-M "C M M M"
_symmetry_group_IT_number 65
_symmetry_cell_setting 'orthorhombic'
loop_
_space_group_symop_operation_xyz
x,y,z
-x,-y,z
x,-y,-z
-x,y,-z
-x,-y,-z
x,y,-z
-x,y,z
x,-y,z
1/2+x,1/2+y,z
1/2-x,1/2-y,z
1/2+x,1/2-y,-z
1/2-x,1/2+y,-z
1/2-x,1/2-y,-z
1/2+x,1/2+y,-z
1/2-x,1/2+y,z
1/2+x,1/2-y,z
loop_
_atom_site_type_symbol
_atom_site_label
_atom_site_fract_x
_atom_site_fract_y
_atom_site_fract_z
Si Si1 0.568640 0.500000 0.708509
Si Si2 0.141417 0.408700 0.500000
Si Si3 0.929192 0.739628 0.500000
Si Si4 0.769034 0.591915 0.189416
Si Si5 0.852768 0.855502 0.306173
O O1 0.500000 0.500000 0.766710
O O2 0.567015 0.500000 0.500000
O O3 0.604635 0.423505 0.763034
O O4 0.125850 0.500000 0.500000
O O5 0.084936 0.351273 0.500000
O O6 0.182837 0.391961 0.335602
O O7 0.894083 0.780027 0.340978
O O8 0.000000 0.758772 0.500000
O O9 0.750245 0.500000 0.210315
O O10 0.709900 0.645616 0.208768
O O11 0.794202 0.600149 0.000000
O O12 0.834408 0.879138 0.500000
#
# Coordination Sequence:
#
# PCOD9487083 Si02
#       5
#     8   8   8  16  16
#     4   9  14  22  43  75 103 146 181 194 240 308
#     4  10  21  38  58  78 105 141 183 232 287 326
#     4  10  21  35  55  81 106 142 189 231 271 322
#     4  10  19  33  56  85 115 143 177 220 268 325
#     4   9  17  28  52  77 110 142 171 214 257 315
#
# _framework density 18.735182999999999
#
# number of rings (size 3 to 8) (size 9 to 14) (size 15 to 20)
#    0.857    1.571    2.857    0.857    0.000    2.571 
#    0.000    2.857    0.000    6.857    0.000    4.000 
#    0.000    0.000    0.000    0.000    0.000    0.000 
#
# Total GULP energy -155924.334658 kJ/mol
# GULP energy per Si atom -5568.726238 kJ/mol
# Density = 1.869254 g / cm^3
# Si number density = 18.735183 Si / 1000 Ang^3
#
#
#
# Elastic Constant Matrix: (Units=GPa)
#
#
# Indices 1 2 3 4 5 6 
#
# 1 27.6024 27.7315 10.5278 0.0000 0.0000 0.0000
# 2 27.7315 72.1943 7.4812 0.0000 0.0000 0.0000
# 3 10.5278 7.4812 75.1343 0.0000 0.0000 0.0000
# 4 0.0000 0.0000 0.0000 4.0347 0.0000 0.0000
# 5 0.0000 0.0000 0.0000 0.0000 -2.5068 0.0000
# 6 0.0000 0.0000 0.0000 0.0000 0.0000 24.1575
#
#
#
# Elastic Compliance Matrix: (Units=1/GPa)
#
#
# Indices 1 2 3 4 5 6 
#
# 1 0.061873 -0.023107 -0.006369 0.000000 0.000000 0.000000
# 2 -0.023107 0.022625 0.000985 0.000000 0.000000 0.000000
# 3 -0.006369 0.000985 0.014104 0.000000 0.000000 0.000000
# 4 0.000000 0.000000 0.000000 0.247847 0.000000 0.000000
# 5 0.000000 0.000000 0.000000 0.000000 -0.398922 0.000000
# 6 0.000000 0.000000 0.000000 0.000000 0.000000 0.041395
#
#
# Mechanical properties :
#
#
# Convention : Reuss Voigt Hill
#
# Bulk Modulus (GPa) = 24.02669 29.60135 26.81402
# Shear Modulus (GPa) = 83.64479 13.74980 48.69730
#
# Velocity S-wave (km/s) = 6.68900 2.71200 5.10381
# Velocity P-wave (km/s) = 8.51523 5.06367 7.00536
#
# Compressibility (1/GPa) = 0.04162039
#
# Stress axis : x y z
#
# Youngs Moduli (GPa) = 16.16221 44.19822 70.90274
#
# Poissons Ratio (x) = 1.02128 0.45157
# Poissons Ratio (y) = 0.37346 -0.06983
# Poissons Ratio (z) = 0.10293 -0.04353
#
# Static dielectric constant tensor:
#      x y z
#    x 1.614440 0.000000 0.000000 
#    y 0.000000 1.675040 0.000000 
#    z 0.000000 0.000000 1.691240 
# 
# From -- ./inp_files/10798.got.cif
#   From: 2010.05.17/outbox.cif.g08.bks.cpg/sg65_6_cif.got.tgz:10798.got - 2010.06.03 17:01:31.
