data_PCOD9487323
_publ_section_title
;
Structure prediction by ZEFSAII (Michael W. Deem and Ramdas Pophale) SiO2 
 PCOD9487323
Probable space group: C M M M
;
_chemical_formula_sum "Si O2"
_cell_formula_units_Z 96
_cell_length_a 26.018311
_cell_length_b 8.577923
_cell_length_c 24.265588
_cell_angle_alpha 90.000000
_cell_angle_beta 90.000000
_cell_angle_gamma 90.000000
_cell_volume 5415.668385
_symmetry_space_group_name_H-M "C M M M"
_symmetry_group_IT_number 65
_symmetry_cell_setting 'orthorhombic'
loop_
_space_group_symop_operation_xyz
x,y,z
-x,-y,z
x,-y,-z
-x,y,-z
-x,-y,-z
x,y,-z
-x,y,z
x,-y,z
1/2+x,1/2+y,z
1/2-x,1/2-y,z
1/2+x,1/2-y,-z
1/2-x,1/2+y,-z
1/2-x,1/2-y,-z
1/2+x,1/2+y,-z
1/2-x,1/2+y,z
1/2+x,1/2-y,z
loop_
_atom_site_type_symbol
_atom_site_label
_atom_site_fract_x
_atom_site_fract_y
_atom_site_fract_z
Si Si1 0.500000 0.310065 0.936947
Si Si2 0.599255 0.686967 0.132950
Si Si3 0.193028 0.813381 0.436915
Si Si4 0.439861 0.188475 0.752216
Si Si5 0.500000 0.809893 0.437018
Si Si6 0.193030 0.313236 0.936720
Si Si7 0.599378 0.188510 0.367345
O O1 0.500000 0.500000 0.937496
O O2 0.550858 0.260217 0.904432
O O3 0.500000 0.256340 0.000000
O O4 0.600246 0.500000 0.133007
O O5 0.588590 0.746548 0.194351
O O6 0.650991 0.749133 0.105243
O O7 0.179673 0.764020 0.500000
O O8 0.250000 0.750000 0.425166
O O9 0.151178 0.751723 0.394206
O O10 0.194072 0.000000 0.435539
O O11 0.500000 0.237257 0.752230
O O12 0.412703 0.236823 0.695276
O O13 0.439414 0.000000 0.754156
O O14 0.500000 0.756637 0.500000
O O15 0.448989 0.760983 0.404720
O O16 0.500000 0.000000 0.437116
O O17 0.193717 0.500000 0.934603
O O18 0.250000 0.250000 0.924813
O O19 0.180124 0.265524 0.000000
O O20 0.601126 0.000000 0.368264
#
# Coordination Sequence:
#
# PCOD9487323 Si02
#       7
#     8  16  16  16   8  16  16
#     4   9  18  31  49  77 111 143 178 223 274 327
#     4  11  21  35  56  82 113 150 191 231 277 332
#     4  10  21  37  57  82 112 146 183 227 280 334
#     4  10  20  36  56  79 112 151 191 234 278 327
#     4   9  16  27  49  81 111 139 176 221 270 327
#     4  10  21  38  60  86 115 148 185 228 281 336
#     4  10  19  34  56  82 110 146 188 228 274 328
#
# _framework density 17.726344000000001
#
# number of rings (size 3 to 8) (size 9 to 14) (size 15 to 20)
#    0.000    2.000    1.667    2.500    0.000    4.000 
#    0.000    1.250    0.000    7.500    0.000    0.000 
#    0.000    0.000    0.000    0.000    0.000    0.000 
#
# Total GULP energy -268028.845900 kJ/mol
# GULP energy per Si atom -5583.934290 kJ/mol
# Density = 1.768600 g / cm^3
# Si number density = 17.726344 Si / 1000 Ang^3
#
#
#
# Elastic Constant Matrix: (Units=GPa)
#
#
# Indices 1 2 3 4 5 6 
#
# 1 153.2407 37.6381 121.1355 0.0000 0.0000 0.0000
# 2 37.6381 29.9286 42.3209 0.0000 0.0000 0.0000
# 3 121.1355 42.3209 195.7512 0.0000 0.0000 0.0000
# 4 0.0000 0.0000 0.0000 25.5630 0.0000 0.0000
# 5 0.0000 0.0000 0.0000 0.0000 19.0727 0.0000
# 6 0.0000 0.0000 0.0000 0.0000 0.0000 21.0789
#
#
#
# Elastic Compliance Matrix: (Units=1/GPa)
#
#
# Indices 1 2 3 4 5 6 
#
# 1 0.013894 -0.007656 -0.006943 0.000000 0.000000 0.000000
# 2 -0.007656 0.052344 -0.006579 0.000000 0.000000 0.000000
# 3 -0.006943 -0.006579 0.010827 0.000000 0.000000 0.000000
# 4 0.000000 0.000000 0.000000 0.039119 0.000000 0.000000
# 5 0.000000 0.000000 0.000000 0.000000 0.052431 0.000000
# 6 0.000000 0.000000 0.000000 0.000000 0.000000 0.047441
#
#
# Mechanical properties :
#
#
# Convention : Reuss Voigt Hill
#
# Bulk Modulus (GPa) = 28.81007 86.78995 57.80001
# Shear Modulus (GPa) = 18.51973 24.99799 21.75886
#
# Velocity S-wave (km/s) = 3.23578 3.75936 3.50735
# Velocity P-wave (km/s) = 5.49985 8.24081 7.00569
#
# Compressibility (1/GPa) = 0.03471009
#
# Stress axis : x y z
#
# Youngs Moduli (GPa) = 71.97111 19.10443 92.35769
#
# Poissons Ratio (x) = 0.14626 0.64125
# Poissons Ratio (y) = 0.55098 0.60763
# Poissons Ratio (z) = 0.49970 0.12569
#
# Static dielectric constant tensor:
#      x y z
#    x 1.571250 0.000000 0.000000 
#    y 0.000000 1.604910 0.000000 
#    z 0.000000 0.000000 1.590840 
# 
# From -- ./inp_files/71456.got.cif
#   From: 2010.05.17/outbox.cif.g08.bks.cpg/sg65_36_cif.got.tgz:71456.got - 2010.06.03 17:01:31.
