data_PCOD9487579
_publ_section_title
;
Structure prediction by ZEFSAII (Michael W. Deem and Ramdas Pophale) SiO2 
 PCOD9487579
Probable space group: C M M M
;
_chemical_formula_sum "Si O2"
_cell_formula_units_Z 44
_cell_length_a 14.730474
_cell_length_b 7.588896
_cell_length_c 15.463115
_cell_angle_alpha 90.000000
_cell_angle_beta 90.000000
_cell_angle_gamma 90.000000
_cell_volume 1728.591244
_symmetry_space_group_name_H-M "C M M M"
_symmetry_group_IT_number 65
_symmetry_cell_setting 'orthorhombic'
loop_
_space_group_symop_operation_xyz
x,y,z
-x,-y,z
x,-y,-z
-x,y,-z
-x,-y,-z
x,y,-z
-x,y,z
x,-y,z
1/2+x,1/2+y,z
1/2-x,1/2-y,z
1/2+x,1/2-y,-z
1/2-x,1/2+y,-z
1/2-x,1/2-y,-z
1/2+x,1/2+y,-z
1/2-x,1/2+y,z
1/2+x,1/2-y,z
loop_
_atom_site_type_symbol
_atom_site_label
_atom_site_fract_x
_atom_site_fract_y
_atom_site_fract_z
Si Si1 0.174987 0.500000 0.000000
Si Si2 0.357281 0.789710 0.313080
Si Si3 0.394822 0.695641 0.121221
Si Si4 0.141887 0.711614 0.500000
O O1 0.161414 0.346124 0.924929
O O2 0.250000 0.750000 0.312483
O O3 0.393313 0.710161 0.224754
O O4 0.392407 0.724734 0.406666
O O5 0.372081 0.000000 0.309034
O O6 0.500000 0.716648 0.094974
O O7 0.362888 0.500000 0.096183
O O8 0.129903 0.500000 0.500000
O O9 0.250000 0.750000 0.500000
#
# Coordination Sequence:
#
# PCOD9487579 Si02
#       4
#     4  16  16   8
#     4  12  23  42  66  84 112 156 199 242 297 354
#     4  10  19  35  59  86 122 155 193 239 291 345
#     4  11  23  39  62  89 115 151 199 243 289 350
#     4   8  16  30  53  84 113 155 194 228 278 348
#
# _framework density 25.454255
#
# number of rings (size 3 to 8) (size 9 to 14) (size 15 to 20)
#    0.000    1.818    1.818    3.273    0.000    2.909 
#    0.000    1.818    0.000    5.455    0.000    0.000 
#    0.000    0.000    0.000    0.000    0.000    0.000 
#
# Total GULP energy -122669.857085 kJ/mol
# GULP energy per Si atom -5575.902595 kJ/mol
# Density = 2.539632 g / cm^3
# Si number density = 25.454255 Si / 1000 Ang^3
#
#
#
# Elastic Constant Matrix: (Units=GPa)
#
#
# Indices 1 2 3 4 5 6 
#
# 1 91.5436 17.7366 12.2081 0.0000 0.0000 0.0000
# 2 17.7366 185.8944 54.1077 0.0000 0.0000 0.0000
# 3 12.2081 54.1077 291.3533 0.0000 0.0000 0.0000
# 4 0.0000 0.0000 0.0000 42.1591 0.0000 0.0000
# 5 0.0000 0.0000 0.0000 0.0000 939.7104 0.0000
# 6 0.0000 0.0000 0.0000 0.0000 0.0000 4.8213
#
#
#
# Elastic Compliance Matrix: (Units=1/GPa)
#
#
# Indices 1 2 3 4 5 6 
#
# 1 0.011152 -0.000981 -0.000285 0.000000 0.000000 0.000000
# 2 -0.000981 0.005773 -0.001031 0.000000 0.000000 0.000000
# 3 -0.000285 -0.001031 0.003636 0.000000 0.000000 0.000000
# 4 0.000000 0.000000 0.000000 0.023720 0.000000 0.000000
# 5 0.000000 0.000000 0.000000 0.000000 0.001064 0.000000
# 6 0.000000 0.000000 0.000000 0.000000 0.000000 0.207415
#
#
# Mechanical properties :
#
#
# Convention : Reuss Voigt Hill
#
# Bulk Modulus (GPa) = 62.63182 81.87734 72.25458
# Shear Modulus (GPa) = 19.03488 229.65406 124.34447
#
# Velocity S-wave (km/s) = 2.73757 9.50885 6.99687
# Velocity P-wave (km/s) = 5.88655 12.36098 9.68105
#
# Compressibility (1/GPa) = 0.01596633
#
# Stress axis : x y z
#
# Youngs Moduli (GPa) = 89.67116 173.21720 275.05188
#
# Poissons Ratio (x) = 0.16993 0.07841
# Poissons Ratio (y) = 0.08797 0.28359
# Poissons Ratio (z) = 0.02556 0.17859
#
# Static dielectric constant tensor:
#      x y z
#    x 2.151780 0.000000 0.000000 
#    y 0.000000 1.921540 0.000000 
#    z 0.000000 0.000000 2.016500 
# 
# From -- ./inp_files/34942.got.cif
#   From: 2010.05.17/outbox.cif.g08.bks.cpg/sg65_18_cif.got.tgz:34942.got - 2010.06.03 17:01:31.
