data_PCOD9487102
_publ_section_title
;
Structure prediction by ZEFSAII (Michael W. Deem and Ramdas Pophale) SiO2 
 PCOD9487102
Probable space group: C M M M
;
_chemical_formula_sum "Si O2"
_cell_formula_units_Z 96
_cell_length_a 8.726173
_cell_length_b 29.755684
_cell_length_c 20.995098
_cell_angle_alpha 90.000000
_cell_angle_beta 90.000000
_cell_angle_gamma 90.000000
_cell_volume 5451.445352
_symmetry_space_group_name_H-M "C M M M"
_symmetry_group_IT_number 65
_symmetry_cell_setting 'orthorhombic'
loop_
_space_group_symop_operation_xyz
x,y,z
-x,-y,z
x,-y,-z
-x,y,-z
-x,-y,-z
x,y,-z
-x,y,z
x,-y,z
1/2+x,1/2+y,z
1/2-x,1/2-y,z
1/2+x,1/2-y,-z
1/2-x,1/2+y,-z
1/2-x,1/2-y,-z
1/2+x,1/2+y,-z
1/2-x,1/2+y,z
1/2+x,1/2-y,z
loop_
_atom_site_type_symbol
_atom_site_label
_atom_site_fract_x
_atom_site_fract_y
_atom_site_fract_z
Si Si1 0.683570 0.800010 0.687815
Si Si2 0.682821 0.356249 0.429252
Si Si3 0.814247 0.549289 0.238446
Si Si4 0.315728 0.949312 0.389231
Si Si5 0.683332 0.700891 0.926490
Si Si6 0.185446 0.356380 0.813531
O O1 0.500000 0.798130 0.686483
O O2 0.750000 0.750000 0.687558
O O3 0.740402 0.827885 0.626854
O O4 0.729376 0.826240 0.752302
O O5 0.726599 0.339972 0.500000
O O6 0.500000 0.353258 0.422911
O O7 0.734022 0.408081 0.422830
O O8 0.758832 0.500000 0.217510
O O9 0.780602 0.554345 0.313627
O O10 0.761001 0.592757 0.200220
O O11 0.000000 0.548917 0.234405
O O12 0.500000 0.944858 0.396474
O O13 0.273937 0.000000 0.409948
O O14 0.500000 0.702683 0.922421
O O15 0.750000 0.750000 0.910337
O O16 0.747731 0.665059 0.877050
O O17 0.726335 0.691158 0.000000
O O18 0.000000 0.356223 0.817073
#
# Coordination Sequence:
#
# PCOD9487102 Si02
#       6
#    16  16  16  16  16  16
#     4  11  23  39  58  81 106 136 177 224 274 327
#     4  11  24  39  54  75 106 143 181 224 274 325
#     4   8  14  28  52  81 110 137 170 215 262 309
#     4   9  17  33  57  81 106 138 177 221 270 324
#     4  10  21  36  54  79 112 148 183 219 262 313
#     4  10  19  33  57  86 111 139 176 218 266 313
#
# _framework density 17.610008000000001
#
# number of rings (size 3 to 8) (size 9 to 14) (size 15 to 20)
#    0.000    2.167    1.667    3.000    0.000    6.000 
#    0.000    1.667    0.000    1.000    0.000    3.500 
#    0.000    0.000    0.000    0.000    0.000    0.000 
#
# Total GULP energy -267910.947781 kJ/mol
# GULP energy per Si atom -5581.478079 kJ/mol
# Density = 1.756993 g / cm^3
# Si number density = 17.610008 Si / 1000 Ang^3
#
#
#
# Elastic Constant Matrix: (Units=GPa)
#
#
# Indices 1 2 3 4 5 6 
#
# 1 22.8108 28.6369 26.0822 0.0000 0.0000 0.0000
# 2 28.6369 135.0781 67.8086 0.0000 0.0000 0.0000
# 3 26.0822 67.8086 90.8914 0.0000 0.0000 0.0000
# 4 0.0000 0.0000 0.0000 4.6095 0.0000 0.0000
# 5 0.0000 0.0000 0.0000 0.0000 25.7693 0.0000
# 6 0.0000 0.0000 0.0000 0.0000 0.0000 27.8372
#
#
#
# Elastic Compliance Matrix: (Units=1/GPa)
#
#
# Indices 1 2 3 4 5 6 
#
# 1 0.069788 -0.007581 -0.014370 0.000000 0.000000 0.000000
# 2 -0.007581 0.012659 -0.007269 0.000000 0.000000 0.000000
# 3 -0.014370 -0.007269 0.020549 0.000000 0.000000 0.000000
# 4 0.000000 0.000000 0.000000 0.216941 0.000000 0.000000
# 5 0.000000 0.000000 0.000000 0.000000 0.038806 0.000000
# 6 0.000000 0.000000 0.000000 0.000000 0.000000 0.035923
#
#
# Mechanical properties :
#
#
# Convention : Reuss Voigt Hill
#
# Bulk Modulus (GPa) = 22.44426 54.87063 38.65745
# Shear Modulus (GPa) = 10.68472 20.06005 15.37239
#
# Velocity S-wave (km/s) = 2.46588 3.37876 2.95775
# Velocity P-wave (km/s) = 4.56950 6.81526 5.80207
#
# Compressibility (1/GPa) = 0.04455482
#
# Stress axis : x y z
#
# Youngs Moduli (GPa) = 14.32916 78.99338 48.66510
#
# Poissons Ratio (x) = 0.59888 0.69933
# Poissons Ratio (y) = 0.10864 0.35374
# Poissons Ratio (z) = 0.20591 0.57418
#
# Static dielectric constant tensor:
#      x y z
#    x 1.592190 0.000000 0.000000 
#    y 0.000000 1.599330 0.000000 
#    z 0.000000 0.000000 1.587980 
# 
# From -- ./inp_files/60208.got.cif
#   From: 2010.05.17/outbox.cif.g08.bks.cpg/sg65_31_cif.got.tgz:60208.got - 2010.06.03 17:01:31.
