data_PCOD9487913
_publ_section_title
;
Structure prediction by ZEFSAII (Michael W. Deem and Ramdas Pophale) SiO2 
 PCOD9487913
Probable space group: C M M M
;
_chemical_formula_sum "Si O2"
_cell_formula_units_Z 96
_cell_length_a 15.367358
_cell_length_b 23.401197
_cell_length_c 17.049254
_cell_angle_alpha 90.000000
_cell_angle_beta 90.000000
_cell_angle_gamma 90.000000
_cell_volume 6131.160179
_symmetry_space_group_name_H-M "C M M M"
_symmetry_group_IT_number 65
_symmetry_cell_setting 'orthorhombic'
loop_
_space_group_symop_operation_xyz
x,y,z
-x,-y,z
x,-y,-z
-x,y,-z
-x,-y,-z
x,y,-z
-x,y,z
x,-y,z
1/2+x,1/2+y,z
1/2-x,1/2-y,z
1/2+x,1/2-y,-z
1/2-x,1/2+y,-z
1/2-x,1/2-y,-z
1/2+x,1/2+y,-z
1/2-x,1/2+y,z
1/2+x,1/2-y,z
loop_
_atom_site_type_symbol
_atom_site_label
_atom_site_fract_x
_atom_site_fract_y
_atom_site_fract_z
Si Si1 0.402554 0.185701 0.000000
Si Si2 0.601495 0.130270 0.743016
Si Si3 0.895223 0.564790 0.411441
Si Si4 0.849126 0.736958 0.838842
Si Si5 0.359535 0.059918 0.000000
Si Si6 0.751235 0.564579 0.841897
Si Si7 0.099877 0.857294 0.906446
O O1 0.352685 0.203006 0.921507
O O2 0.500000 0.211892 0.000000
O O3 0.411193 0.118042 0.000000
O O4 0.500000 0.112556 0.759022
O O5 0.621501 0.113464 0.652929
O O6 0.609643 0.195520 0.773432
O O7 0.676254 0.095903 0.789246
O O8 0.863003 0.576105 0.500000
O O9 0.866617 0.500000 0.387817
O O10 0.000000 0.562027 0.415830
O O11 0.750000 0.750000 0.817283
O O12 0.893896 0.796424 0.862224
O O13 0.298330 0.060549 0.074875
O O14 0.408363 0.000000 0.000000
O O15 0.732875 0.500000 0.813619
O O16 0.665087 0.600993 0.860296
O O17 0.000000 0.877275 0.904608
O O18 0.123885 0.850993 0.000000
#
# Coordination Sequence:
#
# PCOD9487913 Si02
#       7
#     8  16  16  16   8  16  16
#     4  12  21  32  48  68  92 129 180 219 247 291
#     4  11  21  33  52  79 107 133 161 199 249 306
#     4   8  15  30  52  77 105 135 163 191 230 289
#     4  12  22  34  50  69  97 132 172 214 257 292
#     4  10  20  32  43  61  98 137 160 192 250 308
#     4  11  22  35  50  71 100 133 170 211 260 306
#     4  11  22  36  53  70  90 129 184 231 263 290
#
# _framework density 15.657722
#
# number of rings (size 3 to 8) (size 9 to 14) (size 15 to 20)
#    0.000    1.333    5.000    2.750    0.000    1.500 
#    0.000    2.500    0.000    0.500    0.000    0.000 
#    0.000    0.667    0.000    3.500    0.000    0.167 
#
# Total GULP energy -267300.686774 kJ/mol
# GULP energy per Si atom -5568.764308 kJ/mol
# Density = 1.562208 g / cm^3
# Si number density = 15.657722 Si / 1000 Ang^3
#
#
#
# Elastic Constant Matrix: (Units=GPa)
#
#
# Indices 1 2 3 4 5 6 
#
# 1 81.9246 43.6824 28.8062 0.0000 0.0000 0.0000
# 2 43.6824 103.9839 33.0789 0.0000 0.0000 0.0000
# 3 28.8062 33.0789 78.4962 0.0000 0.0000 0.0000
# 4 0.0000 0.0000 0.0000 15.5797 0.0000 0.0000
# 5 0.0000 0.0000 0.0000 0.0000 2.7451 0.0000
# 6 0.0000 0.0000 0.0000 0.0000 0.0000 14.3416
#
#
#
# Elastic Compliance Matrix: (Units=1/GPa)
#
#
# Indices 1 2 3 4 5 6 
#
# 1 0.016583 -0.005809 -0.003637 0.000000 0.000000 0.000000
# 2 -0.005809 0.013141 -0.003406 0.000000 0.000000 0.000000
# 3 -0.003637 -0.003406 0.015510 0.000000 0.000000 0.000000
# 4 0.000000 0.000000 0.000000 0.064186 0.000000 0.000000
# 5 0.000000 0.000000 0.000000 0.000000 0.364286 0.000000
# 6 0.000000 0.000000 0.000000 0.000000 0.000000 0.069727
#
#
# Mechanical properties :
#
#
# Convention : Reuss Voigt Hill
#
# Bulk Modulus (GPa) = 51.20777 52.83774 52.02275
# Shear Modulus (GPa) = 8.68589 17.12242 12.90416
#
# Velocity S-wave (km/s) = 2.35784 3.31047 2.87390
# Velocity P-wave (km/s) = 6.33940 6.95924 6.65654
#
# Compressibility (1/GPa) = 0.01952829
#
# Stress axis : x y z
#
# Youngs Moduli (GPa) = 60.30361 76.09990 64.47640
#
# Poissons Ratio (x) = 0.44207 0.23453
# Poissons Ratio (y) = 0.35031 0.21959
# Poissons Ratio (z) = 0.21935 0.25918
#
# Static dielectric constant tensor:
#      x y z
#    x 1.538440 0.000000 0.000000 
#    y 0.000000 1.579740 0.000000 
#    z 0.000000 0.000000 1.498960 
# 
# From -- ./inp_files/40680.got.cif
#   From: 2010.05.17/outbox.cif.g08.bks.cpg/sg65_21_cif.got.tgz:40680.got - 2010.06.03 17:01:31.
