data_PCOD9487334
_publ_section_title
;
Structure prediction by ZEFSAII (Michael W. Deem and Ramdas Pophale) SiO2 
 PCOD9487334
Probable space group: C M M M
;
_chemical_formula_sum "Si O2"
_cell_formula_units_Z 100
_cell_length_a 33.365316
_cell_length_b 21.278090
_cell_length_c 7.593374
_cell_angle_alpha 90.000000
_cell_angle_beta 90.000000
_cell_angle_gamma 90.000000
_cell_volume 5390.917365
_symmetry_space_group_name_H-M "C M M M"
_symmetry_group_IT_number 65
_symmetry_cell_setting 'orthorhombic'
loop_
_space_group_symop_operation_xyz
x,y,z
-x,-y,z
x,-y,-z
-x,y,-z
-x,-y,-z
x,y,-z
-x,y,z
x,-y,z
1/2+x,1/2+y,z
1/2-x,1/2-y,z
1/2+x,1/2-y,-z
1/2-x,1/2+y,-z
1/2-x,1/2-y,-z
1/2+x,1/2+y,-z
1/2-x,1/2+y,z
1/2+x,1/2-y,z
loop_
_atom_site_type_symbol
_atom_site_label
_atom_site_fract_x
_atom_site_fract_y
_atom_site_fract_z
Si Si1 0.593483 0.430163 0.790667
Si Si2 0.256554 0.180186 0.794267
Si Si3 0.669311 0.351536 0.289294
Si Si4 0.664541 0.892650 0.204354
Si Si5 0.120999 0.729136 0.707590
Si Si6 0.954455 0.191224 0.213172
Si Si7 0.151865 0.500000 0.500000
O O1 0.587111 0.500000 0.718020
O O2 0.638907 0.406431 0.763978
O O3 0.564991 0.374466 0.721622
O O4 0.586412 0.433118 0.000000
O O5 0.250000 0.250000 0.715145
O O6 0.214545 0.144330 0.775907
O O7 0.294047 0.140244 0.728956
O O8 0.265788 0.189675 0.000000
O O9 0.670088 0.349521 0.500000
O O10 0.649524 0.285930 0.224810
O O11 0.632315 0.836163 0.205412
O O12 0.653043 0.945463 0.343463
O O13 0.669700 0.914141 0.000000
O O14 0.128467 0.722590 0.500000
O O15 0.075994 0.753877 0.733919
O O16 0.000000 0.198974 0.273326
O O17 0.954618 0.189181 0.000000
#
# Coordination Sequence:
#
# PCOD9487334 Si02
#       7
#    16  16  16  16  16  16   4
#     4   9  18  33  50  70 105 153 199 238 282 339
#     4  10  20  34  56  82 107 139 186 239 296 345
#     4  10  20  31  51  77 107 143 189 246 293 340
#     4  11  23  40  62  86 116 155 195 243 294 347
#     4  10  19  34  56  84 112 144 186 238 293 345
#     4   9  18  32  53  83 115 144 183 237 292 348
#     4  12  26  44  58  82 121 158 196 236 277 362
#
# _framework density 18.549717999999999
#
# number of rings (size 3 to 8) (size 9 to 14) (size 15 to 20)
#    0.000    2.080    2.400    1.200    1.120    2.560 
#    1.440    1.600    0.000    0.000    0.000    5.600 
#    0.000    2.560    0.000    0.000    0.000    0.000 
#
# Total GULP energy -278466.566704 kJ/mol
# GULP energy per Si atom -5569.331334 kJ/mol
# Density = 1.850750 g / cm^3
# Si number density = 18.549718 Si / 1000 Ang^3
#
#
#
# Elastic Constant Matrix: (Units=GPa)
#
#
# Indices 1 2 3 4 5 6 
#
# 1 113.9674 49.2420 -0.7284 0.0000 0.0000 0.0000
# 2 49.2420 112.4303 28.0340 0.0000 0.0000 0.0000
# 3 -0.7284 28.0340 76.0428 0.0000 0.0000 0.0000
# 4 0.0000 0.0000 0.0000 12.1007 0.0000 0.0000
# 5 0.0000 0.0000 0.0000 0.0000 -19.9107 0.0000
# 6 0.0000 0.0000 0.0000 0.0000 0.0000 2.9628
#
#
#
# Elastic Compliance Matrix: (Units=1/GPa)
#
#
# Indices 1 2 3 4 5 6 
#
# 1 0.011117 -0.005391 0.002094 0.000000 0.000000 0.000000
# 2 -0.005391 0.012409 -0.004626 0.000000 0.000000 0.000000
# 3 0.002094 -0.004626 0.014876 0.000000 0.000000 0.000000
# 4 0.000000 0.000000 0.000000 0.082640 0.000000 0.000000
# 5 0.000000 0.000000 0.000000 0.000000 -0.050224 0.000000
# 6 0.000000 0.000000 0.000000 0.000000 0.000000 0.337516
#
#
# Mechanical properties :
#
#
# Convention : Reuss Voigt Hill
#
# Bulk Modulus (GPa) = 44.33550 50.61509 47.47530
# Shear Modulus (GPa) = 11.58211 14.09007 12.83609
#
# Velocity S-wave (km/s) = 2.50147 2.75905 2.63341
# Velocity P-wave (km/s) = 5.68295 6.12333 5.90725
#
# Compressibility (1/GPa) = 0.02255529
#
# Stress axis : x y z
#
# Youngs Moduli (GPa) = 89.95053 80.58512 67.22169
#
# Poissons Ratio (x) = 0.43445 -0.14076
# Poissons Ratio (y) = 0.48495 0.31100
# Poissons Ratio (z) = -0.18836 0.37282
#
# Static dielectric constant tensor:
#      x y z
#    x 1.634280 0.000000 0.000000 
#    y 0.000000 1.637380 0.000000 
#    z 0.000000 0.000000 1.685880 
# 
# From -- ./inp_files/18696.got.cif
#   From: 2010.05.17/outbox.cif.g08.bks.cpg/sg65_10_cif.got.tgz:18696.got - 2010.06.03 17:01:31.
