data_PCOD9487568
_publ_section_title
;
Structure prediction by ZEFSAII (Michael W. Deem and Ramdas Pophale) SiO2 
 PCOD9487568
Probable space group: C M M M
;
_chemical_formula_sum "Si O2"
_cell_formula_units_Z 72
_cell_length_a 27.705605
_cell_length_b 15.942995
_cell_length_c 8.029118
_cell_angle_alpha 90.000000
_cell_angle_beta 90.000000
_cell_angle_gamma 90.000000
_cell_volume 3546.544297
_symmetry_space_group_name_H-M "C M M M"
_symmetry_group_IT_number 65
_symmetry_cell_setting 'orthorhombic'
loop_
_space_group_symop_operation_xyz
x,y,z
-x,-y,z
x,-y,-z
-x,y,-z
-x,-y,-z
x,y,-z
-x,y,z
x,-y,z
1/2+x,1/2+y,z
1/2-x,1/2-y,z
1/2+x,1/2-y,-z
1/2-x,1/2+y,-z
1/2-x,1/2-y,-z
1/2+x,1/2+y,-z
1/2-x,1/2+y,z
1/2+x,1/2-y,z
loop_
_atom_site_type_symbol
_atom_site_label
_atom_site_fract_x
_atom_site_fract_y
_atom_site_fract_z
Si Si1 0.444279 0.665292 0.296126
Si Si2 0.220908 0.331065 0.700264
Si Si3 0.275119 0.500000 0.802859
Si Si4 0.613247 0.500000 0.701369
Si Si5 0.889176 0.667563 0.299166
Si Si6 0.945024 0.500000 0.800970
O O1 0.444244 0.665265 0.500000
O O2 0.500000 0.662342 0.243231
O O3 0.414636 0.583479 0.241891
O O4 0.418009 0.750319 0.240411
O O5 0.218271 0.323111 0.500000
O O6 0.250000 0.250000 0.764048
O O7 0.248852 0.416632 0.737634
O O8 0.165918 0.333401 0.763424
O O9 0.331160 0.500000 0.752884
O O10 0.271419 0.500000 0.000000
O O11 0.611997 0.500000 0.500000
O O12 0.887412 0.672301 0.500000
O O13 0.916923 0.582959 0.254273
O O14 0.000000 0.500000 0.735719
O O15 0.946893 0.500000 0.000000
#
# Coordination Sequence:
#
# PCOD9487568 Si02
#       6
#    16  16   8   8  16   8
#     4   9  17  31  56  89 116 139 176 226 276 325
#     4  10  21  39  62  86 112 145 187 233 282 336
#     4  12  25  38  55  82 116 153 190 231 280 332
#     4  10  19  35  59  84 113 149 186 225 269 322
#     4  10  20  35  58  85 110 140 180 227 277 327
#     4  11  24  39  54  76 109 149 188 225 271 326
#
# _framework density 20.301452999999999
#
# number of rings (size 3 to 8) (size 9 to 14) (size 15 to 20)
#    0.000    1.889    0.000    4.333    0.000   10.667 
#    0.000    3.333    0.000    2.667    0.000    0.000 
#    0.000    0.000    0.000    0.000    0.000    0.000 
#
# Total GULP energy -201226.808916 kJ/mol
# GULP energy per Si atom -5589.633581 kJ/mol
# Density = 2.025525 g / cm^3
# Si number density = 20.301453 Si / 1000 Ang^3
#
#
#
# Elastic Constant Matrix: (Units=GPa)
#
#
# Indices 1 2 3 4 5 6 
#
# 1 208.1271 92.1357 0.9552 0.0000 0.0000 0.0000
# 2 92.1357 164.1736 -7.2423 0.0000 0.0000 0.0000
# 3 0.9552 -7.2423 12.3919 0.0000 0.0000 0.0000
# 4 0.0000 0.0000 0.0000 55.9428 0.0000 0.0000
# 5 0.0000 0.0000 0.0000 0.0000 27.3311 0.0000
# 6 0.0000 0.0000 0.0000 0.0000 0.0000 -105.1585
#
#
#
# Elastic Compliance Matrix: (Units=1/GPa)
#
#
# Indices 1 2 3 4 5 6 
#
# 1 0.006480 -0.003755 -0.002694 0.000000 0.000000 0.000000
# 2 -0.003755 0.008429 0.005216 0.000000 0.000000 0.000000
# 3 -0.002694 0.005216 0.083954 0.000000 0.000000 0.000000
# 4 0.000000 0.000000 0.000000 0.017875 0.000000 0.000000
# 5 0.000000 0.000000 0.000000 0.000000 0.036588 0.000000
# 6 0.000000 0.000000 0.000000 0.000000 0.000000 -0.009509
#
#
# Mechanical properties :
#
#
# Convention : Reuss Voigt Hill
#
# Bulk Modulus (GPa) = 10.37404 61.82106 36.09755
# Shear Modulus (GPa) = 28.02445 15.54601 21.78523
#
# Velocity S-wave (km/s) = 3.71943 2.77024 3.27935
# Velocity P-wave (km/s) = 4.85454 6.38357 5.67083
#
# Compressibility (1/GPa) = 0.09639444
#
# Stress axis : x y z
#
# Youngs Moduli (GPa) = 154.33260 118.64298 11.91129
#
# Poissons Ratio (x) = 0.44553 0.03209
# Poissons Ratio (y) = 0.57955 -0.06212
# Poissons Ratio (z) = 0.41580 -0.61878
#
# Static dielectric constant tensor:
#      x y z
#    x 1.701480 0.000000 0.000000 
#    y 0.000000 1.674900 0.000000 
#    z 0.000000 0.000000 1.715780 
# 
# From -- ./inp_files/15822.got.cif
#   From: 2010.05.17/outbox.cif.g08.bks.cpg/sg65_8_cif.got.tgz:15822.got - 2010.06.03 17:01:31.
