data_PCOD9487881
_publ_section_title
;
Structure prediction by ZEFSAII (Michael W. Deem and Ramdas Pophale) SiO2 
 PCOD9487881
Probable space group: C M M M
;
_chemical_formula_sum "Si O2"
_cell_formula_units_Z 120
_cell_length_a 14.905980
_cell_length_b 16.190059
_cell_length_c 24.188410
_cell_angle_alpha 90.000000
_cell_angle_beta 90.000000
_cell_angle_gamma 90.000000
_cell_volume 5837.357435
_symmetry_space_group_name_H-M "C M M M"
_symmetry_group_IT_number 65
_symmetry_cell_setting 'orthorhombic'
loop_
_space_group_symop_operation_xyz
x,y,z
-x,-y,z
x,-y,-z
-x,y,-z
-x,-y,-z
x,y,-z
-x,y,z
x,-y,z
1/2+x,1/2+y,z
1/2-x,1/2-y,z
1/2+x,1/2-y,-z
1/2-x,1/2+y,-z
1/2-x,1/2-y,-z
1/2+x,1/2+y,-z
1/2-x,1/2+y,z
1/2+x,1/2-y,z
loop_
_atom_site_type_symbol
_atom_site_label
_atom_site_fract_x
_atom_site_fract_y
_atom_site_fract_z
Si Si1 0.392890 0.091807 0.865439
Si Si2 0.391802 0.179330 0.437403
Si Si3 0.860301 0.408596 0.264815
Si Si4 0.890157 0.252230 0.063724
Si Si5 0.856488 0.247412 0.673626
Si Si6 0.353596 0.591931 0.739786
Si Si7 0.391768 0.406767 0.131863
Si Si8 0.602855 0.000000 0.432582
O O1 0.500000 0.089069 0.873956
O O2 0.377834 0.105046 0.800224
O O3 0.358958 0.168256 0.901410
O O4 0.357163 0.000000 0.879287
O O5 0.360988 0.196086 0.500000
O O6 0.500000 0.171717 0.439620
O O7 0.369446 0.246675 0.391835
O O8 0.355833 0.088766 0.418001
O O9 0.895150 0.500000 0.280065
O O10 0.895109 0.331054 0.299342
O O11 0.752858 0.411844 0.271260
O O12 0.860948 0.166931 0.092431
O O13 0.000000 0.252396 0.064966
O O14 0.863008 0.257030 0.000000
O O15 0.750000 0.250000 0.684560
O O16 0.891869 0.165207 0.702621
O O17 0.390707 0.500000 0.729819
O O18 0.365690 0.610668 0.804703
O O19 0.500000 0.407678 0.129696
O O20 0.361105 0.500000 0.117875
O O21 0.500000 0.000000 0.412626
O O22 0.599773 0.000000 0.500000
#
# Coordination Sequence:
#
# PCOD9487881 Si02
#       8
#    16  16  16  16  16  16  16   8
#     4   9  17  29  45  66  91 119 153 188 221 270
#     4   9  18  32  50  72  99 130 160 191 232 280
#     4   9  18  31  47  68  95 123 150 185 235 285
#     4   9  17  28  43  65  92 119 147 185 231 274
#     4  10  20  31  47  72  96 125 158 195 233 278
#     4   9  18  33  49  66  92 123 155 192 235 281
#     4   9  17  29  47  68  86 110 149 194 235 275
#     4   7  12  26  46  68  94 122 151 181 218 272
#
# _framework density 20.557248000000001
#
# number of rings (size 3 to 8) (size 9 to 14) (size 15 to 20)
#    0.000    3.000    0.000    1.600    0.933    1.867 
#    0.000    2.667    0.000    2.000    0.000    4.667 
#    0.000    0.000    0.000    0.000    0.000    0.000 
#
# Total GULP energy -334694.657738 kJ/mol
# GULP energy per Si atom -5578.244296 kJ/mol
# Density = 2.051046 g / cm^3
# Si number density = 20.557248 Si / 1000 Ang^3
#
#
#
# Elastic Constant Matrix: (Units=GPa)
#
#
# Indices 1 2 3 4 5 6 
#
# 1 52.4121 4.0548 -7.6093 0.0000 0.0000 0.0000
# 2 4.0548 149.8466 104.1849 0.0000 0.0000 0.0000
# 3 -7.6093 104.1849 105.9855 0.0000 0.0000 0.0000
# 4 0.0000 0.0000 0.0000 -13.7636 0.0000 0.0000
# 5 0.0000 0.0000 0.0000 0.0000 22.4936 0.0000
# 6 0.0000 0.0000 0.0000 0.0000 0.0000 -9.1869
#
#
#
# Elastic Compliance Matrix: (Units=1/GPa)
#
#
# Indices 1 2 3 4 5 6 
#
# 1 0.020383 -0.004957 0.006336 0.000000 0.000000 0.000000
# 2 -0.004957 0.022288 -0.022266 0.000000 0.000000 0.000000
# 3 0.006336 -0.022266 0.031777 0.000000 0.000000 0.000000
# 4 0.000000 0.000000 0.000000 -0.072655 0.000000 0.000000
# 5 0.000000 0.000000 0.000000 0.000000 0.044457 0.000000
# 6 0.000000 0.000000 0.000000 0.000000 0.000000 -0.108851
#
#
# Mechanical properties :
#
#
# Convention : Reuss Voigt Hill
#
# Bulk Modulus (GPa) = 30.60350 56.61165 43.60758
# Shear Modulus (GPa) = -503.26436 13.74953 -244.75741
#
# Velocity S-wave (km/s) = -15.66342 2.58900 -10.92336
# Velocity P-wave (km/s) = 17.66930 6.04447 11.74029
#
# Compressibility (1/GPa) = 0.03267600
#
# Stress axis : x y z
#
# Youngs Moduli (GPa) = 49.06062 44.86649 31.46887
#
# Poissons Ratio (x) = 0.22240 -0.19939
# Poissons Ratio (y) = 0.24319 0.70067
# Poissons Ratio (z) = -0.31085 0.99898
#
# Static dielectric constant tensor:
#      x y z
#    x 1.748730 0.000000 0.000000 
#    y 0.000000 1.776350 0.000000 
#    z 0.000000 0.000000 1.698800 
# 
# From -- ./inp_files/71280.got.cif
#   From: 2010.05.17/outbox.cif.g08.bks.cpg/sg65_36_cif.got.tgz:71280.got - 2010.06.03 17:01:31.
