data_PCOD9487205
_publ_section_title
;
Structure prediction by ZEFSAII (Michael W. Deem and Ramdas Pophale) SiO2 
 PCOD9487205
Probable space group: C M M M
;
_chemical_formula_sum "Si O2"
_cell_formula_units_Z 88
_cell_length_a 8.481551
_cell_length_b 30.399628
_cell_length_c 18.008449
_cell_angle_alpha 90.000000
_cell_angle_beta 90.000000
_cell_angle_gamma 90.000000
_cell_volume 4643.226371
_symmetry_space_group_name_H-M "C M M M"
_symmetry_group_IT_number 65
_symmetry_cell_setting 'orthorhombic'
loop_
_space_group_symop_operation_xyz
x,y,z
-x,-y,z
x,-y,-z
-x,y,-z
-x,-y,-z
x,y,-z
-x,y,z
x,-y,z
1/2+x,1/2+y,z
1/2-x,1/2-y,z
1/2+x,1/2-y,-z
1/2-x,1/2+y,-z
1/2-x,1/2-y,-z
1/2+x,1/2+y,-z
1/2-x,1/2+y,z
1/2+x,1/2-y,z
loop_
_atom_site_type_symbol
_atom_site_label
_atom_site_fract_x
_atom_site_fract_y
_atom_site_fract_z
Si Si1 0.693380 0.448698 0.000000
Si Si2 0.686900 0.702759 0.189194
Si Si3 0.817799 0.674148 0.342945
Si Si4 0.690184 0.395163 0.855577
Si Si5 0.191128 0.000000 0.585841
Si Si6 0.690119 0.580674 0.307514
Si Si7 0.686739 0.298891 0.500000
O O1 0.746328 0.421533 0.072568
O O2 0.741898 0.500000 0.000000
O O3 0.500000 0.448952 0.000000
O O4 0.500000 0.703204 0.179926
O O5 0.750000 0.750000 0.161369
O O6 0.727555 0.698843 0.276693
O O7 0.746846 0.655805 0.154857
O O8 0.789837 0.623094 0.327842
O O9 0.750512 0.681227 0.424267
O O10 0.000000 0.686936 0.339702
O O11 0.500000 0.391596 0.861640
O O12 0.718967 0.423602 0.780779
O O13 0.233503 0.958110 0.636359
O O14 0.248539 0.000000 0.500000
O O15 0.000000 0.000000 0.581607
O O16 0.500000 0.588964 0.315575
O O17 0.500000 0.300894 0.500000
O O18 0.750000 0.250000 0.500000
#
# Coordination Sequence:
#
# PCOD9487205 Si02
#       7
#     8  16  16  16   8  16   8
#     4   9  16  26  47  78 111 143 177 223 280 327
#     4  10  19  34  54  77 106 141 180 220 269 325
#     4  11  22  36  53  76 105 139 180 223 271 324
#     4   8  16  29  46  74 109 142 175 221 273 326
#     4   9  18  30  49  76 102 136 184 230 274 324
#     4   9  18  33  52  75 105 141 181 226 275 326
#     4  12  24  38  54  75 104 137 174 220 271 322
#
# _framework density 18.95234
#
# number of rings (size 3 to 8) (size 9 to 14) (size 15 to 20)
#    0.000    2.364    0.000    4.636    2.545    0.000 
#    0.000    0.909    0.000    0.545    0.000   15.273 
#    0.000   18.182    0.000    0.000    0.000    0.000 
#
# Total GULP energy -245170.686048 kJ/mol
# GULP energy per Si atom -5572.061047 kJ/mol
# Density = 1.890920 g / cm^3
# Si number density = 18.952340 Si / 1000 Ang^3
#
#
#
# Elastic Constant Matrix: (Units=GPa)
#
#
# Indices 1 2 3 4 5 6 
#
# 1 25.8495 11.3004 12.9075 0.0000 0.0000 0.0000
# 2 11.3004 120.4686 74.6471 0.0000 0.0000 0.0000
# 3 12.9075 74.6471 148.9158 0.0000 0.0000 0.0000
# 4 0.0000 0.0000 0.0000 21.4073 0.0000 0.0000
# 5 0.0000 0.0000 0.0000 0.0000 7.6983 0.0000
# 6 0.0000 0.0000 0.0000 0.0000 0.0000 23.4433
#
#
#
# Elastic Compliance Matrix: (Units=1/GPa)
#
#
# Indices 1 2 3 4 5 6 
#
# 1 0.040900 -0.002379 -0.002353 0.000000 0.000000 0.000000
# 2 -0.002379 0.012179 -0.005899 0.000000 0.000000 0.000000
# 3 -0.002353 -0.005899 0.009876 0.000000 0.000000 0.000000
# 4 0.000000 0.000000 0.000000 0.046713 0.000000 0.000000
# 5 0.000000 0.000000 0.000000 0.000000 0.129898 0.000000
# 6 0.000000 0.000000 0.000000 0.000000 0.000000 0.042656
#
#
# Mechanical properties :
#
#
# Convention : Reuss Voigt Hill
#
# Bulk Modulus (GPa) = 23.98383 54.77154 39.37768
# Shear Modulus (GPa) = 15.75389 23.60171 19.67780
#
# Velocity S-wave (km/s) = 2.88625 3.53274 3.22573
# Velocity P-wave (km/s) = 4.87745 6.75297 5.89034
#
# Compressibility (1/GPa) = 0.04169476
#
# Stress axis : x y z
#
# Youngs Moduli (GPa) = 24.44979 82.10687 101.25474
#
# Poissons Ratio (x) = 0.19531 0.23822
# Poissons Ratio (y) = 0.05816 0.59729
# Poissons Ratio (z) = 0.05752 0.48434
#
# Static dielectric constant tensor:
#      x y z
#    x 1.640410 0.000000 0.000000 
#    y 0.000000 1.686940 0.000000 
#    z 0.000000 0.000000 1.585640 
# 
# From -- ./inp_files/50545.got.cif
#   From: 2010.05.17/outbox.cif.g08.bks.cpg/sg65_26_cif.got.tgz:50545.got - 2010.06.03 17:01:31.
