data_PCOD9487060
_publ_section_title
;
Structure prediction by ZEFSAII (Michael W. Deem and Ramdas Pophale) SiO2 
 PCOD9487060
Probable space group: C M M M
;
_chemical_formula_sum "Si O2"
_cell_formula_units_Z 72
_cell_length_a 16.358655
_cell_length_b 25.697842
_cell_length_c 7.529077
_cell_angle_alpha 90.000000
_cell_angle_beta 90.000000
_cell_angle_gamma 90.000000
_cell_volume 3165.089438
_symmetry_space_group_name_H-M "C M M M"
_symmetry_group_IT_number 65
_symmetry_cell_setting 'orthorhombic'
loop_
_space_group_symop_operation_xyz
x,y,z
-x,-y,z
x,-y,-z
-x,y,-z
-x,-y,-z
x,y,-z
-x,y,z
x,-y,z
1/2+x,1/2+y,z
1/2-x,1/2-y,z
1/2+x,1/2-y,-z
1/2-x,1/2+y,-z
1/2-x,1/2-y,-z
1/2+x,1/2+y,-z
1/2-x,1/2+y,z
1/2+x,1/2-y,z
loop_
_atom_site_type_symbol
_atom_site_label
_atom_site_fract_x
_atom_site_fract_y
_atom_site_fract_z
Si Si1 0.177826 0.057430 0.207751
Si Si2 0.667986 0.108631 0.701874
Si Si3 0.500000 0.404922 0.712562
Si Si4 0.336764 0.224985 0.717748
Si Si5 0.500000 0.285861 0.716541
Si Si6 0.096191 0.500000 0.285336
O O1 0.234371 0.099890 0.299605
O O2 0.082446 0.067575 0.227660
O O3 0.197428 0.000000 0.279606
O O4 0.197532 0.058773 0.000000
O O5 0.635824 0.110601 0.500000
O O6 0.652806 0.165341 0.780521
O O7 0.633043 0.054854 0.781809
O O8 0.500000 0.405039 0.500000
O O9 0.500000 0.345480 0.775710
O O10 0.334838 0.223872 0.500000
O O11 0.250000 0.250000 0.773385
O O12 0.416321 0.257684 0.771834
O O13 0.500000 0.285568 0.500000
O O14 0.109728 0.500000 0.500000
O O15 0.000000 0.500000 0.251613
#
# Coordination Sequence:
#
# PCOD9487060 Si02
#       6
#    16  16   8  16   8   8
#     4  11  23  38  55  78 112 149 184 224 276 329
#     4  10  19  33  56  81 110 144 183 227 270 325
#     4  11  22  36  59  84 109 142 184 230 273 324
#     4   9  17  29  48  77 109 139 175 222 275 324
#     4   9  18  32  52  82 114 140 175 226 283 332
#     4   9  18  30  49  82 113 136 171 225 280 319
#
# _framework density 22.748173999999999
#
# number of rings (size 3 to 8) (size 9 to 14) (size 15 to 20)
#    0.000    2.111    1.111    2.667    1.556    6.222 
#    0.000    0.000    0.000    8.667    0.000    0.000 
#    0.000    0.000    0.000    0.000    0.000    0.000 
#
# Total GULP energy -201154.265919 kJ/mol
# GULP energy per Si atom -5587.618498 kJ/mol
# Density = 2.269640 g / cm^3
# Si number density = 22.748174 Si / 1000 Ang^3
#
#
#
# Elastic Constant Matrix: (Units=GPa)
#
#
# Indices 1 2 3 4 5 6 
#
# 1 106.4796 29.8054 2.2127 0.0000 0.0000 0.0000
# 2 29.8054 136.0836 9.4829 0.0000 0.0000 0.0000
# 3 2.2127 9.4829 67.3575 0.0000 0.0000 0.0000
# 4 0.0000 0.0000 0.0000 8.0899 0.0000 0.0000
# 5 0.0000 0.0000 0.0000 0.0000 -35.2512 0.0000
# 6 0.0000 0.0000 0.0000 0.0000 0.0000 51.9022
#
#
#
# Elastic Compliance Matrix: (Units=1/GPa)
#
#
# Indices 1 2 3 4 5 6 
#
# 1 0.010005 -0.002190 -0.000020 0.000000 0.000000 0.000000
# 2 -0.002190 0.007901 -0.001040 0.000000 0.000000 0.000000
# 3 -0.000020 -0.001040 0.014993 0.000000 0.000000 0.000000
# 4 0.000000 0.000000 0.000000 0.123611 0.000000 0.000000
# 5 0.000000 0.000000 0.000000 0.000000 -0.028368 0.000000
# 6 0.000000 0.000000 0.000000 0.000000 0.000000 0.019267
#
#
# Mechanical properties :
#
#
# Convention : Reuss Voigt Hill
#
# Bulk Modulus (GPa) = 37.88228 43.65808 40.77018
# Shear Modulus (GPa) = 30.72965 22.84282 26.78624
#
# Velocity S-wave (km/s) = 3.67940 3.17229 3.43521
# Velocity P-wave (km/s) = 5.89403 5.71414 5.80479
#
# Compressibility (1/GPa) = 0.02639757
#
# Stress axis : x y z
#
# Youngs Moduli (GPa) = 99.95132 126.57346 66.69653
#
# Poissons Ratio (x) = 0.27718 0.00136
# Poissons Ratio (y) = 0.21888 0.06939
# Poissons Ratio (z) = 0.00203 0.13168
#
# Static dielectric constant tensor:
#      x y z
#    x 1.812800 0.000000 0.000000 
#    y 0.000000 1.825380 0.000000 
#    z 0.000000 0.000000 1.871920 
# 
# From -- ./inp_files/7369.got.cif
#   From: 2010.05.17/outbox.cif.g08.bks.cpg/sg65_4_cif.got.tgz:7369.got - 2010.06.03 17:01:31.
