data_PCOD9487209
_publ_section_title
;
Structure prediction by ZEFSAII (Michael W. Deem and Ramdas Pophale) SiO2 
 PCOD9487209
Probable space group: C M M M
;
_chemical_formula_sum "Si O2"
_cell_formula_units_Z 104
_cell_length_a 9.112845
_cell_length_b 29.303261
_cell_length_c 23.634742
_cell_angle_alpha 90.000000
_cell_angle_beta 90.000000
_cell_angle_gamma 90.000000
_cell_volume 6311.328749
_symmetry_space_group_name_H-M "C M M M"
_symmetry_group_IT_number 65
_symmetry_cell_setting 'orthorhombic'
loop_
_space_group_symop_operation_xyz
x,y,z
-x,-y,z
x,-y,-z
-x,y,-z
-x,-y,-z
x,y,-z
-x,y,z
x,-y,z
1/2+x,1/2+y,z
1/2-x,1/2-y,z
1/2+x,1/2-y,-z
1/2-x,1/2+y,-z
1/2-x,1/2-y,-z
1/2+x,1/2+y,-z
1/2-x,1/2+y,z
1/2+x,1/2-y,z
loop_
_atom_site_type_symbol
_atom_site_label
_atom_site_fract_x
_atom_site_fract_y
_atom_site_fract_z
Si Si1 0.325952 0.389423 0.936322
Si Si2 0.175031 0.945727 0.383374
Si Si3 0.325532 0.796916 0.235332
Si Si4 0.177063 0.395028 0.278886
Si Si5 0.674855 0.797502 0.899570
Si Si6 0.168856 0.444631 0.500000
Si Si7 0.174219 0.445976 0.161745
O O1 0.500000 0.383479 0.928428
O O2 0.246635 0.340765 0.929394
O O3 0.261862 0.422746 0.888948
O O4 0.300124 0.406874 0.000000
O O5 0.244656 0.917906 0.331915
O O6 0.247621 0.931179 0.442794
O O7 0.000000 0.939979 0.385682
O O8 0.205113 0.000000 0.375433
O O9 0.500000 0.792268 0.241763
O O10 0.250000 0.750000 0.253291
O O11 0.279086 0.842498 0.268031
O O12 0.297916 0.803417 0.168068
O O13 0.212232 0.422714 0.221521
O O14 0.000000 0.396894 0.286197
O O15 0.500000 0.795894 0.908616
O O16 0.750000 0.750000 0.916823
O O17 0.168065 0.500000 0.500000
O O18 0.000000 0.429166 0.500000
O O19 0.199600 0.500000 0.164386
O O20 0.000000 0.437920 0.152608
#
# Coordination Sequence:
#
# PCOD9487209 Si02
#       7
#    16  16  16  16  16   8  16
#     4  11  24  39  54  74 101 134 172 214 263 319
#     4  10  20  32  48  76 112 146 180 219 260 301
#     4   9  18  32  52  77 104 132 165 206 255 308
#     4  10  19  34  54  78 106 137 173 212 256 309
#     4  10  19  35  57  80 104 131 165 208 260 317
#     4   9  17  31  51  73 102 145 188 221 257 301
#     4  10  21  38  58  77 100 133 173 218 266 314
#
# _framework density 16.478306
#
# number of rings (size 3 to 8) (size 9 to 14) (size 15 to 20)
#    0.000    2.077    1.538    2.077    0.000    6.462 
#    0.000    1.538    0.000    0.000    0.000    0.538 
#    0.000    0.000    0.000    0.000    0.000    0.000 
#
# Total GULP energy -290287.315495 kJ/mol
# GULP energy per Si atom -5582.448375 kJ/mol
# Density = 1.644080 g / cm^3
# Si number density = 16.478306 Si / 1000 Ang^3
#
#
#
# Elastic Constant Matrix: (Units=GPa)
#
#
# Indices 1 2 3 4 5 6 
#
# 1 65.3180 56.5259 70.6386 0.0000 0.0000 0.0000
# 2 56.5259 90.9748 71.7543 0.0000 0.0000 0.0000
# 3 70.6386 71.7543 132.6135 0.0000 0.0000 0.0000
# 4 0.0000 0.0000 0.0000 25.8425 0.0000 0.0000
# 5 0.0000 0.0000 0.0000 0.0000 24.7229 0.0000
# 6 0.0000 0.0000 0.0000 0.0000 0.0000 30.1587
#
#
#
# Elastic Compliance Matrix: (Units=1/GPa)
#
#
# Indices 1 2 3 4 5 6 
#
# 1 0.047023 -0.016505 -0.016117 0.000000 0.000000 0.000000
# 2 -0.016505 0.024969 -0.004718 0.000000 0.000000 0.000000
# 3 -0.016117 -0.004718 0.018679 0.000000 0.000000 0.000000
# 4 0.000000 0.000000 0.000000 0.038696 0.000000 0.000000
# 5 0.000000 0.000000 0.000000 0.000000 0.040448 0.000000
# 6 0.000000 0.000000 0.000000 0.000000 0.000000 0.033158
#
#
# Mechanical properties :
#
#
# Convention : Reuss Voigt Hill
#
# Bulk Modulus (GPa) = 62.54101 76.30489 69.42295
# Shear Modulus (GPa) = 17.66887 22.14400 19.90643
#
# Velocity S-wave (km/s) = 3.27808 3.66980 3.47946
# Velocity P-wave (km/s) = 7.23627 8.02268 7.63960
#
# Compressibility (1/GPa) = 0.01598951
#
# Stress axis : x y z
#
# Youngs Moduli (GPa) = 21.26614 40.04988 53.53722
#
# Poissons Ratio (x) = 0.66104 0.86285
# Poissons Ratio (y) = 0.35100 0.25260
# Poissons Ratio (z) = 0.34274 0.18897
#
# Static dielectric constant tensor:
#      x y z
#    x 1.548400 0.000000 0.000000 
#    y 0.000000 1.538500 0.000000 
#    z 0.000000 0.000000 1.537680 
# 
# From -- ./inp_files/60900.got.cif
#   From: 2010.05.17/outbox.cif.g08.bks.cpg/sg65_31_cif.got.tgz:60900.got - 2010.06.03 17:01:31.
