data_PCOD9487439
_publ_section_title
;
Structure prediction by ZEFSAII (Michael W. Deem and Ramdas Pophale) SiO2 
 PCOD9487439
Probable space group: C M M M
;
_chemical_formula_sum "Si O2"
_cell_formula_units_Z 64
_cell_length_a 11.223700
_cell_length_b 15.625078
_cell_length_c 18.138054
_cell_angle_alpha 90.000000
_cell_angle_beta 90.000000
_cell_angle_gamma 90.000000
_cell_volume 3180.892077
_symmetry_space_group_name_H-M "C M M M"
_symmetry_group_IT_number 65
_symmetry_cell_setting 'orthorhombic'
loop_
_space_group_symop_operation_xyz
x,y,z
-x,-y,z
x,-y,-z
-x,y,-z
-x,-y,-z
x,y,-z
-x,y,z
x,-y,z
1/2+x,1/2+y,z
1/2-x,1/2-y,z
1/2+x,1/2-y,-z
1/2-x,1/2+y,-z
1/2-x,1/2-y,-z
1/2+x,1/2+y,-z
1/2-x,1/2+y,z
1/2+x,1/2-y,z
loop_
_atom_site_type_symbol
_atom_site_label
_atom_site_fract_x
_atom_site_fract_y
_atom_site_fract_z
Si Si1 0.500000 0.895622 0.414621
Si Si2 0.500000 0.101493 0.083126
Si Si3 0.860094 0.000000 0.917764
Si Si4 0.749479 0.103932 0.661610
Si Si5 0.500000 0.604418 0.414237
Si Si6 0.763320 0.349721 0.832919
O O1 0.500000 0.869970 0.500000
O O2 0.625279 0.868190 0.377342
O O3 0.500000 0.000000 0.411760
O O4 0.388107 0.126106 0.131566
O O5 0.500000 0.000000 0.075971
O O6 0.500000 0.138552 0.000000
O O7 0.824989 0.915045 0.873538
O O8 0.000000 0.000000 0.925429
O O9 0.803471 0.000000 0.000000
O O10 0.745144 0.133693 0.745895
O O11 0.875005 0.131674 0.624024
O O12 0.749744 0.000000 0.660103
O O13 0.500000 0.500000 0.411949
O O14 0.500000 0.630001 0.500000
O O15 0.750000 0.250000 0.847834
#
# Coordination Sequence:
#
# PCOD9487439 Si02
#       6
#     8   8   8  16   8  16
#     4   9  17  31  56  90 122 163 217 270 322 382
#     4  11  23  44  69  92 127 169 216 275 331 392
#     4  11  26  47  69  95 132 172 215 271 335 397
#     4  10  19  34  59  85 127 170 213 267 325 385
#     4   9  18  31  55  91 123 166 221 267 315 385
#     4  12  26  42  68  99 134 172 223 271 331 394
#
# _framework density 20.120142999999999
#
# number of rings (size 3 to 8) (size 9 to 14) (size 15 to 20)
#    0.000    1.500    2.500    2.250    3.500    6.000 
#    0.000    0.000    0.000    4.500    0.000    0.000 
#    0.000    0.000    0.000    0.000    0.000    0.000 
#
# Total GULP energy -178676.480701 kJ/mol
# GULP energy per Si atom -5583.640022 kJ/mol
# Density = 2.007435 g / cm^3
# Si number density = 20.120143 Si / 1000 Ang^3
#
#
#
# Elastic Constant Matrix: (Units=GPa)
#
#
# Indices 1 2 3 4 5 6 
#
# 1 190.4123 48.0472 102.6255 0.0000 0.0000 0.0000
# 2 48.0472 89.2756 50.7751 0.0000 0.0000 0.0000
# 3 102.6255 50.7751 196.8520 0.0000 0.0000 0.0000
# 4 0.0000 0.0000 0.0000 -28.6756 0.0000 0.0000
# 5 0.0000 0.0000 0.0000 0.0000 43.8992 0.0000
# 6 0.0000 0.0000 0.0000 0.0000 0.0000 226.1961
#
#
#
# Elastic Compliance Matrix: (Units=1/GPa)
#
#
# Indices 1 2 3 4 5 6 
#
# 1 0.007645 -0.002165 -0.003427 0.000000 0.000000 0.000000
# 2 -0.002165 0.013740 -0.002415 0.000000 0.000000 0.000000
# 3 -0.003427 -0.002415 0.007490 0.000000 0.000000 0.000000
# 4 0.000000 0.000000 0.000000 -0.034873 0.000000 0.000000
# 5 0.000000 0.000000 0.000000 0.000000 0.022779 0.000000
# 6 0.000000 0.000000 0.000000 0.000000 0.000000 0.004421
#
#
# Mechanical properties :
#
#
# Convention : Reuss Voigt Hill
#
# Bulk Modulus (GPa) = 77.76297 97.71504 87.73901
# Shear Modulus (GPa) = 120.46747 66.62343 93.54545
#
# Velocity S-wave (km/s) = 7.74623 5.76062 6.82601
# Velocity P-wave (km/s) = 10.89672 9.63937 10.28728
#
# Compressibility (1/GPa) = 0.01285959
#
# Stress axis : x y z
#
# Youngs Moduli (GPa) = 130.79905 72.77853 133.51760
#
# Poissons Ratio (x) = 0.15760 0.45759
# Poissons Ratio (y) = 0.28323 0.32247
# Poissons Ratio (z) = 0.44828 0.17578
#
# Static dielectric constant tensor:
#      x y z
#    x 1.672000 0.000000 0.000000 
#    y 0.000000 1.673420 0.000000 
#    z 0.000000 0.000000 1.681170 
# 
# From -- ./inp_files/50990.got.cif
#   From: 2010.05.17/outbox.cif.g08.bks.cpg/sg65_26_cif.got.tgz:50990.got - 2010.06.03 17:01:31.
