data_PCOD9487911
_publ_section_title
;
Structure prediction by ZEFSAII (Michael W. Deem and Ramdas Pophale) SiO2 
 PCOD9487911
Probable space group: C M M M
;
_chemical_formula_sum "Si O2"
_cell_formula_units_Z 112
_cell_length_a 15.202018
_cell_length_b 15.679890
_cell_length_c 23.918997
_cell_angle_alpha 90.000000
_cell_angle_beta 90.000000
_cell_angle_gamma 90.000000
_cell_volume 5701.474922
_symmetry_space_group_name_H-M "C M M M"
_symmetry_group_IT_number 65
_symmetry_cell_setting 'orthorhombic'
loop_
_space_group_symop_operation_xyz
x,y,z
-x,-y,z
x,-y,-z
-x,y,-z
-x,-y,-z
x,y,-z
-x,y,z
x,-y,z
1/2+x,1/2+y,z
1/2-x,1/2-y,z
1/2+x,1/2-y,-z
1/2-x,1/2+y,-z
1/2-x,1/2-y,-z
1/2+x,1/2+y,-z
1/2-x,1/2+y,z
1/2+x,1/2-y,z
loop_
_atom_site_type_symbol
_atom_site_label
_atom_site_fract_x
_atom_site_fract_y
_atom_site_fract_z
Si Si1 0.895628 0.095060 0.870020
Si Si2 0.597944 0.602450 0.564775
Si Si3 0.898525 0.841874 0.749065
Si Si4 0.763424 0.851824 0.656412
Si Si5 0.898117 0.637546 0.272481
Si Si6 0.646298 0.242122 0.938421
Si Si7 0.894269 0.592543 0.148405
O O1 0.865347 0.134566 0.810915
O O2 0.882920 0.165121 0.917465
O O3 0.000000 0.087003 0.863779
O O4 0.859272 0.000000 0.880015
O O5 0.605168 0.629681 0.500000
O O6 0.500000 0.632347 0.585761
O O7 0.595036 0.500000 0.565658
O O8 0.683826 0.627967 0.599849
O O9 0.832943 0.879710 0.703811
O O10 0.898104 0.739975 0.738587
O O11 0.000000 0.870583 0.742566
O O12 0.750000 0.750000 0.657280
O O13 0.668226 0.885199 0.677162
O O14 0.865187 0.602190 0.212776
O O15 0.000000 0.612318 0.282475
O O16 0.750000 0.250000 0.942595
O O17 0.628282 0.170334 0.892051
O O18 0.609833 0.220937 0.000000
O O19 0.865177 0.500000 0.126558
O O20 0.000000 0.593125 0.151742
#
# Coordination Sequence:
#
# PCOD9487911 Si02
#       7
#    16  16  16  16  16  16  16
#     4  10  21  37  59  85 111 144 185 230 289 359
#     4   9  19  37  59  83 117 160 202 246 293 340
#     4   9  17  31  51  79 116 150 183 230 288 351
#     4  10  20  31  54  87 117 154 194 235 290 343
#     4   9  18  33  52  79 117 154 188 234 295 354
#     4  11  25  41  58  80 111 148 186 235 294 351
#     4  10  21  38  61  84 106 142 193 243 291 345
#
# _framework density 19.64404
#
# number of rings (size 3 to 8) (size 9 to 14) (size 15 to 20)
#    0.000    2.286    1.429    1.286    2.000    4.286 
#    0.000    4.286    0.000    0.429    0.000    1.000 
#    0.000    0.000    0.000    0.000    0.000    0.000 
#
# Total GULP energy -312090.215467 kJ/mol
# GULP energy per Si atom -5573.039562 kJ/mol
# Density = 1.959933 g / cm^3
# Si number density = 19.644040 Si / 1000 Ang^3
#
#
#
# Elastic Constant Matrix: (Units=GPa)
#
#
# Indices 1 2 3 4 5 6 
#
# 1 94.5633 29.5459 54.9456 0.0000 0.0000 0.0000
# 2 29.5459 65.3989 25.7967 0.0000 0.0000 0.0000
# 3 54.9456 25.7967 103.0490 0.0000 0.0000 0.0000
# 4 0.0000 0.0000 0.0000 -13.3576 0.0000 0.0000
# 5 0.0000 0.0000 0.0000 0.0000 35.1739 0.0000
# 6 0.0000 0.0000 0.0000 0.0000 0.0000 -3.5200
#
#
#
# Elastic Compliance Matrix: (Units=1/GPa)
#
#
# Indices 1 2 3 4 5 6 
#
# 1 0.016384 -0.004389 -0.007637 0.000000 0.000000 0.000000
# 2 -0.004389 0.018142 -0.002201 0.000000 0.000000 0.000000
# 3 -0.007637 -0.002201 0.014327 0.000000 0.000000 0.000000
# 4 0.000000 0.000000 0.000000 -0.074864 0.000000 0.000000
# 5 0.000000 0.000000 0.000000 0.000000 0.028430 0.000000
# 6 0.000000 0.000000 0.000000 0.000000 0.000000 -0.284093
#
#
# Mechanical properties :
#
#
# Convention : Reuss Voigt Hill
#
# Bulk Modulus (GPa) = 49.02464 53.73195 51.37830
# Shear Modulus (GPa) = -20.29062 13.84082 -3.22490
#
# Velocity S-wave (km/s) = -3.21739 2.65727 -1.28267
# Velocity P-wave (km/s) = 3.34792 6.06852 4.90079
#
# Compressibility (1/GPa) = 0.02039790
#
# Stress axis : x y z
#
# Youngs Moduli (GPa) = 61.03575 55.12050 69.79744
#
# Poissons Ratio (x) = 0.24195 0.53304
# Poissons Ratio (y) = 0.26791 0.15363
# Poissons Ratio (z) = 0.46613 0.12133
#
# Static dielectric constant tensor:
#      x y z
#    x 1.714180 0.000000 0.000000 
#    y 0.000000 1.693000 0.000000 
#    z 0.000000 0.000000 1.711660 
# 
# From -- ./inp_files/69985.got.cif
#   From: 2010.05.17/outbox.cif.g08.bks.cpg/sg65_35_cif.got.tgz:69985.got - 2010.06.03 17:01:31.
