data_PCOD9487543
_publ_section_title
;
Structure prediction by ZEFSAII (Michael W. Deem and Ramdas Pophale) SiO2 
 PCOD9487543
Probable space group: C M M M
;
_chemical_formula_sum "Si O2"
_cell_formula_units_Z 50
_cell_length_a 25.716636
_cell_length_b 9.735395
_cell_length_c 11.714144
_cell_angle_alpha 90.000000
_cell_angle_beta 90.000000
_cell_angle_gamma 90.000000
_cell_volume 2932.771946
_symmetry_space_group_name_H-M "C M M M"
_symmetry_group_IT_number 65
_symmetry_cell_setting 'orthorhombic'
loop_
_space_group_symop_operation_xyz
x,y,z
-x,-y,z
x,-y,-z
-x,y,-z
-x,-y,-z
x,y,-z
-x,y,z
x,-y,z
1/2+x,1/2+y,z
1/2-x,1/2-y,z
1/2+x,1/2-y,-z
1/2-x,1/2+y,-z
1/2-x,1/2-y,-z
1/2+x,1/2+y,-z
1/2-x,1/2+y,z
1/2+x,1/2-y,z
loop_
_atom_site_type_symbol
_atom_site_label
_atom_site_fract_x
_atom_site_fract_y
_atom_site_fract_z
Si Si1 0.000000 0.500000 0.000000
Si Si2 0.804977 0.332199 0.000000
Si Si3 0.783604 0.500000 0.632793
Si Si4 0.557028 0.000000 0.763913
Si Si5 0.145469 0.283674 0.244717
Si Si6 0.659269 0.500000 0.635198
O O1 0.044260 0.500000 0.898608
O O2 0.750000 0.250000 0.000000
O O3 0.836908 0.289083 0.887171
O O4 0.797760 0.500000 0.000000
O O5 0.796932 0.500000 0.500000
O O6 0.809163 0.367425 0.690523
O O7 0.721953 0.500000 0.644962
O O8 0.592600 0.869007 0.738448
O O9 0.500000 0.000000 0.707092
O O10 0.140329 0.134951 0.299412
O O11 0.646404 0.500000 0.500000
#
# Coordination Sequence:
#
# PCOD9487543 Si02
#       6
#     2   8   8   8  16   8
#     4   8  16  36  68  82 102 140 188 250 280 354
#     4  12  23  35  54  87 128 163 187 234 295 361
#     4  10  19  35  58  83 117 166 209 233 268 342
#     4   9  19  37  64  82 107 142 201 249 293 342
#     4  11  22  36  58  88 119 156 198 243 292 351
#     4  11  23  38  58  87 124 162 195 240 289 346
#
# _framework density 17.048717
#
# number of rings (size 3 to 8) (size 9 to 14) (size 15 to 20)
#    0.480    0.960    3.200    4.800    2.240    2.560 
#    0.000    0.800    0.000   19.200    0.000    0.000 
#    0.000    0.000    0.000    0.000    0.000    0.000 
#
# Total GULP energy -139228.623075 kJ/mol
# GULP energy per Si atom -5569.144923 kJ/mol
# Density = 1.700991 g / cm^3
# Si number density = 17.048717 Si / 1000 Ang^3
#
#
#
# Elastic Constant Matrix: (Units=GPa)
#
#
# Indices 1 2 3 4 5 6 
#
# 1 97.5246 56.7789 48.6515 0.0000 0.0000 0.0000
# 2 56.7789 179.1852 74.8456 0.0000 0.0000 0.0000
# 3 48.6515 74.8456 118.4094 0.0000 0.0000 0.0000
# 4 0.0000 0.0000 0.0000 28.5987 0.0000 0.0000
# 5 0.0000 0.0000 0.0000 0.0000 -21.9518 0.0000
# 6 0.0000 0.0000 0.0000 0.0000 0.0000 -16.1498
#
#
#
# Elastic Compliance Matrix: (Units=1/GPa)
#
#
# Indices 1 2 3 4 5 6 
#
# 1 0.013812 -0.002726 -0.003952 0.000000 0.000000 0.000000
# 2 -0.002726 0.008121 -0.004013 0.000000 0.000000 0.000000
# 3 -0.003952 -0.004013 0.012606 0.000000 0.000000 0.000000
# 4 0.000000 0.000000 0.000000 0.034967 0.000000 0.000000
# 5 0.000000 0.000000 0.000000 0.000000 -0.045554 0.000000
# 6 0.000000 0.000000 0.000000 0.000000 0.000000 -0.061920
#
#
# Mechanical properties :
#
#
# Convention : Reuss Voigt Hill
#
# Bulk Modulus (GPa) = 76.00708 83.96347 79.98527
# Shear Modulus (GPa) = -409.80983 12.42230 -198.69376
#
# Velocity S-wave (km/s) = -15.52088 2.70225 -10.80730
# Velocity P-wave (km/s) = 16.62882 7.68715 10.42654
#
# Compressibility (1/GPa) = 0.01315667
#
# Stress axis : x y z
#
# Youngs Moduli (GPa) = 72.39840 123.13936 79.32892
#
# Poissons Ratio (x) = 0.33568 0.31352
# Poissons Ratio (y) = 0.19736 0.31835
# Poissons Ratio (z) = 0.28613 0.49417
#
# Static dielectric constant tensor:
#      x y z
#    x 1.578000 0.000000 0.000000 
#    y 0.000000 1.621060 0.000000 
#    z 0.000000 0.000000 1.576750 
# 
# From -- ./inp_files/31720.got.cif
#   From: 2010.05.17/outbox.cif.g08.bks.cpg/sg65_16_cif.got.tgz:31720.got - 2010.06.03 17:01:31.
