data_PCOD9487846
_publ_section_title
;
Structure prediction by ZEFSAII (Michael W. Deem and Ramdas Pophale) SiO2 
 PCOD9487846
Probable space group: C M M M
;
_chemical_formula_sum "Si O2"
_cell_formula_units_Z 120
_cell_length_a 24.225994
_cell_length_b 33.586669
_cell_length_c 7.495770
_cell_angle_alpha 90.000000
_cell_angle_beta 90.000000
_cell_angle_gamma 90.000000
_cell_volume 6099.086487
_symmetry_space_group_name_H-M "C M M M"
_symmetry_group_IT_number 65
_symmetry_cell_setting 'orthorhombic'
loop_
_space_group_symop_operation_xyz
x,y,z
-x,-y,z
x,-y,-z
-x,y,-z
-x,-y,-z
x,y,-z
-x,y,z
x,-y,z
1/2+x,1/2+y,z
1/2-x,1/2-y,z
1/2+x,1/2-y,-z
1/2-x,1/2+y,-z
1/2-x,1/2-y,-z
1/2+x,1/2+y,-z
1/2-x,1/2+y,z
1/2+x,1/2-y,z
loop_
_atom_site_type_symbol
_atom_site_label
_atom_site_fract_x
_atom_site_fract_y
_atom_site_fract_z
Si Si1 0.061927 0.310592 0.713762
Si Si2 0.666485 0.045006 0.788246
Si Si3 0.120520 0.046125 0.781708
Si Si4 0.232088 0.814006 0.781915
Si Si5 0.727919 0.404995 0.781352
Si Si6 0.000000 0.048385 0.791859
Si Si7 0.937081 0.400073 0.285177
Si Si8 0.833538 0.260164 0.788105
O O1 0.059510 0.313018 0.500000
O O2 0.077920 0.355175 0.777087
O O3 0.106180 0.277114 0.755956
O O4 0.000000 0.302172 0.779035
O O5 0.717813 0.071144 0.719782
O O6 0.609084 0.068217 0.764688
O O7 0.664972 0.000000 0.715912
O O8 0.675463 0.041812 0.000000
O O9 0.172118 0.072576 0.726165
O O10 0.059871 0.060259 0.718322
O O11 0.128432 0.000000 0.729325
O O12 0.118937 0.046399 0.000000
O O13 0.228453 0.859264 0.721376
O O14 0.183494 0.783776 0.724176
O O15 0.288445 0.792250 0.722667
O O16 0.232280 0.815555 0.000000
O O17 0.728515 0.404892 0.000000
O O18 0.000000 0.000000 0.786651
O O19 0.000000 0.060255 0.000000
O O20 0.938556 0.399341 0.500000
O O21 0.000000 0.408726 0.224724
O O22 0.825796 0.258721 0.000000
#
# Coordination Sequence:
#
# PCOD9487846 Si02
#       8
#    16  16  16  16  16   8  16  16
#     4   9  18  32  49  69  92 116 146 189 233 270
#     4  10  20  31  45  69  96 120 153 195 232 268
#     4   8  12  18  30  48  72 105 142 175 207 249
#     4   8  15  26  41  61  84 115 148 180 216 263
#     4   9  15  24  39  58  85 118 146 176 223 269
#     4   7  10  16  26  42  64  94 135 171 195 231
#     4   9  19  35  51  66  87 119 157 191 227 275
#     4   9  16  28  46  66  89 116 149 180 216 268
#
# _framework density 19.675079
#
# number of rings (size 3 to 8) (size 9 to 14) (size 15 to 20)
#    0.000    3.267    0.000    3.600    0.000    4.267 
#    0.000    4.000    1.467    0.800    0.000    0.000 
#    0.000    0.000    0.000    0.000    0.000    6.933 
#
# Total GULP energy -334458.545356 kJ/mol
# GULP energy per Si atom -5574.309089 kJ/mol
# Density = 1.963030 g / cm^3
# Si number density = 19.675079 Si / 1000 Ang^3
#
#
#
# Elastic Constant Matrix: (Units=GPa)
#
#
# Indices 1 2 3 4 5 6 
#
# 1 157.9377 113.4447 1.0710 0.0000 0.0000 0.0000
# 2 113.4447 153.6134 6.0867 0.0000 0.0000 0.0000
# 3 1.0710 6.0867 49.4782 0.0000 0.0000 0.0000
# 4 0.0000 0.0000 0.0000 7.1727 0.0000 0.0000
# 5 0.0000 0.0000 0.0000 0.0000 23.3014 0.0000
# 6 0.0000 0.0000 0.0000 0.0000 0.0000 30.7644
#
#
#
# Elastic Compliance Matrix: (Units=1/GPa)
#
#
# Indices 1 2 3 4 5 6 
#
# 1 0.013528 -0.010028 0.000941 0.000000 0.000000 0.000000
# 2 -0.010028 0.013975 -0.001502 0.000000 0.000000 0.000000
# 3 0.000941 -0.001502 0.020375 0.000000 0.000000 0.000000
# 4 0.000000 0.000000 0.000000 0.139418 0.000000 0.000000
# 5 0.000000 0.000000 0.000000 0.000000 0.042916 0.000000
# 6 0.000000 0.000000 0.000000 0.000000 0.000000 0.032505
#
#
# Mechanical properties :
#
#
# Convention : Reuss Voigt Hill
#
# Bulk Modulus (GPa) = 37.45310 66.91489 52.18400
# Shear Modulus (GPa) = 17.07674 28.27615 22.67645
#
# Velocity S-wave (km/s) = 2.94927 3.79510 3.39860
# Velocity P-wave (km/s) = 5.53848 7.29983 6.47928
#
# Compressibility (1/GPa) = 0.02670006
#
# Stress axis : x y z
#
# Youngs Moduli (GPa) = 73.91975 71.55587 49.07890
#
# Poissons Ratio (x) = 0.71756 -0.04617
# Poissons Ratio (y) = 0.74126 0.07372
# Poissons Ratio (z) = -0.06954 0.10749
#
# Static dielectric constant tensor:
#      x y z
#    x 1.694070 0.000000 0.000000 
#    y 0.000000 1.670920 0.000000 
#    z 0.000000 0.000000 1.738080 
# 
# From -- ./inp_files/29795.got.cif
#   From: 2010.05.17/outbox.cif.g08.bks.cpg/sg65_15_cif.got.tgz:29795.got - 2010.06.03 17:01:31.
