data_PCOD9487320
_publ_section_title
;
Structure prediction by ZEFSAII (Michael W. Deem and Ramdas Pophale) SiO2 
 PCOD9487320
Probable space group: C M M M
;
_chemical_formula_sum "Si O2"
_cell_formula_units_Z 64
_cell_length_a 8.080509
_cell_length_b 15.955121
_cell_length_c 24.654286
_cell_angle_alpha 90.000000
_cell_angle_beta 90.000000
_cell_angle_gamma 90.000000
_cell_volume 3178.566121
_symmetry_space_group_name_H-M "C M M M"
_symmetry_group_IT_number 65
_symmetry_cell_setting 'orthorhombic'
loop_
_space_group_symop_operation_xyz
x,y,z
-x,-y,z
x,-y,-z
-x,y,-z
-x,-y,-z
x,y,-z
-x,y,z
x,-y,z
1/2+x,1/2+y,z
1/2-x,1/2-y,z
1/2+x,1/2-y,-z
1/2-x,1/2+y,-z
1/2-x,1/2-y,-z
1/2+x,1/2+y,-z
1/2-x,1/2+y,z
1/2+x,1/2-y,z
loop_
_atom_site_type_symbol
_atom_site_label
_atom_site_fract_x
_atom_site_fract_y
_atom_site_fract_z
Si Si1 0.302892 0.000000 0.312264
Si Si2 0.303002 0.341855 0.383457
Si Si3 0.701867 0.098040 0.000000
Si Si4 0.300659 0.157794 0.882968
Si Si5 0.702007 0.401863 0.500000
Si Si6 0.797054 0.500000 0.188570
O O1 0.250205 0.082677 0.344775
O O2 0.500000 0.000000 0.309588
O O3 0.239228 0.000000 0.250563
O O4 0.500000 0.343729 0.386370
O O5 0.250000 0.250000 0.364691
O O6 0.237997 0.359278 0.444581
O O7 0.759694 0.140819 0.944465
O O8 0.500000 0.100676 0.000000
O O9 0.747679 0.000000 0.000000
O O10 0.500000 0.153888 0.884291
O O11 0.250000 0.250000 0.864742
O O12 0.243804 0.082862 0.843977
O O13 0.747623 0.500000 0.500000
O O14 0.500000 0.398839 0.500000
O O15 0.000000 0.500000 0.188573
#
# Coordination Sequence:
#
# PCOD9487320 Si02
#       6
#     8  16   8  16   8   8
#     4  11  23  40  59  83 113 151 198 241 282 332
#     4  11  22  39  62  88 118 151 187 232 285 340
#     4   9  15  28  55  82 105 140 181 217 266 334
#     4  10  19  34  56  82 109 141 180 224 274 328
#     4   9  17  34  60  87 116 148 182 227 284 341
#     4   9  20  38  58  77 106 147 190 229 268 326
#
# _framework density 20.134865999999999
#
# number of rings (size 3 to 8) (size 9 to 14) (size 15 to 20)
#    0.000    2.000    2.500    1.875    0.000    1.000 
#    0.000    8.125    0.000    0.750    0.000    0.000 
#    0.000    0.000    0.000    0.000    0.000    0.000 
#
# Total GULP energy -178757.942975 kJ/mol
# GULP energy per Si atom -5586.185718 kJ/mol
# Density = 2.008904 g / cm^3
# Si number density = 20.134866 Si / 1000 Ang^3
#
#
#
# Elastic Constant Matrix: (Units=GPa)
#
#
# Indices 1 2 3 4 5 6 
#
# 1 21.9311 13.2529 19.1376 0.0000 0.0000 0.0000
# 2 13.2529 208.6843 102.4906 0.0000 0.0000 0.0000
# 3 19.1376 102.4906 172.6885 0.0000 0.0000 0.0000
# 4 0.0000 0.0000 0.0000 0.4698 0.0000 0.0000
# 5 0.0000 0.0000 0.0000 0.0000 -37.9452 0.0000
# 6 0.0000 0.0000 0.0000 0.0000 0.0000 26.8348
#
#
#
# Elastic Compliance Matrix: (Units=1/GPa)
#
#
# Indices 1 2 3 4 5 6 
#
# 1 0.050541 -0.000648 -0.005217 0.000000 0.000000 0.000000
# 2 -0.000648 0.006772 -0.003947 0.000000 0.000000 0.000000
# 3 -0.005217 -0.003947 0.008712 0.000000 0.000000 0.000000
# 4 0.000000 0.000000 0.000000 2.128587 0.000000 0.000000
# 5 0.000000 0.000000 0.000000 0.000000 -0.026354 0.000000
# 6 0.000000 0.000000 0.000000 0.000000 0.000000 0.037265
#
#
# Mechanical properties :
#
#
# Convention : Reuss Voigt Hill
#
# Bulk Modulus (GPa) = 21.55120 74.78514 48.16817
# Shear Modulus (GPa) = 2.23153 15.76672 8.99913
#
# Velocity S-wave (km/s) = 1.05390 2.80135 2.11639
# Velocity P-wave (km/s) = 3.49394 6.90552 5.47237
#
# Compressibility (1/GPa) = 0.04640113
#
# Stress axis : x y z
#
# Youngs Moduli (GPa) = 19.78594 147.67484 114.79021
#
# Poissons Ratio (x) = 0.09565 0.59882
# Poissons Ratio (y) = 0.01281 0.45310
# Poissons Ratio (z) = 0.10322 0.58290
#
# Static dielectric constant tensor:
#      x y z
#    x 1.718080 0.000000 0.000000 
#    y 0.000000 1.672270 0.000000 
#    z 0.000000 0.000000 1.716900 
# 
# From -- ./inp_files/66913.got.cif
#   From: 2010.05.17/outbox.cif.g08.bks.cpg/sg65_34_cif.got.tgz:66913.got - 2010.06.03 17:01:31.
