data_PCOD9487362
_publ_section_title
;
Structure prediction by ZEFSAII (Michael W. Deem and Ramdas Pophale) SiO2 
 PCOD9487362
Probable space group: C M M M
;
_chemical_formula_sum "Si O2"
_cell_formula_units_Z 88
_cell_length_a 15.383360
_cell_length_b 18.660198
_cell_length_c 15.188834
_cell_angle_alpha 90.000000
_cell_angle_beta 90.000000
_cell_angle_gamma 90.000000
_cell_volume 4360.054188
_symmetry_space_group_name_H-M "C M M M"
_symmetry_group_IT_number 65
_symmetry_cell_setting 'orthorhombic'
loop_
_space_group_symop_operation_xyz
x,y,z
-x,-y,z
x,-y,-z
-x,y,-z
-x,-y,-z
x,y,-z
-x,y,z
x,-y,z
1/2+x,1/2+y,z
1/2-x,1/2-y,z
1/2+x,1/2-y,-z
1/2-x,1/2+y,-z
1/2-x,1/2-y,-z
1/2+x,1/2+y,-z
1/2-x,1/2+y,z
1/2+x,1/2-y,z
loop_
_atom_site_type_symbol
_atom_site_label
_atom_site_fract_x
_atom_site_fract_y
_atom_site_fract_z
Si Si1 0.770864 0.585625 0.339293
Si Si2 0.597768 0.085371 0.500000
Si Si3 0.905701 0.321462 0.742110
Si Si4 0.842563 0.209112 0.600489
Si Si5 0.396155 0.575853 0.894574
Si Si6 0.649237 0.270060 0.898936
O O1 0.759096 0.500000 0.332464
O O2 0.841512 0.601383 0.417117
O O3 0.824552 0.623910 0.261677
O O4 0.684241 0.630211 0.363780
O O5 0.500000 0.116967 0.500000
O O6 0.587535 0.000000 0.500000
O O7 0.894854 0.257618 0.669771
O O8 0.901156 0.283121 0.836041
O O9 0.000000 0.356674 0.728215
O O10 0.877106 0.206364 0.500000
O O11 0.750000 0.250000 0.596429
O O12 0.500000 0.578199 0.883073
O O13 0.363544 0.500000 0.857422
O O14 0.358554 0.649661 0.861253
O O15 0.379977 0.574600 0.000000
O O16 0.750000 0.250000 0.899023
O O17 0.617311 0.269170 0.000000
#
# Coordination Sequence:
#
# PCOD9487362 Si02
#       6
#    16   8  16  16  16  16
#     4  10  19  34  57  82 109 145 188 235 277 320
#     4   9  16  26  45  78 111 135 169 221 276 319
#     4  11  23  36  54  81 113 148 187 231 282 341
#     4   9  18  34  54  78 110 143 175 215 274 339
#     4   8  14  27  51  80 104 128 165 220 282 331
#     4  10  20  36  56  78 109 148 190 235 282 338
#
# _framework density 20.183235
#
# number of rings (size 3 to 8) (size 9 to 14) (size 15 to 20)
#    0.000    2.455    0.909    3.273    1.273    2.545 
#    0.000    3.636    0.000    3.273    0.000    2.545 
#    0.000    0.000    0.000    0.000    0.000    0.000 
#
# Total GULP energy -245290.869075 kJ/mol
# GULP energy per Si atom -5574.792479 kJ/mol
# Density = 2.013730 g / cm^3
# Si number density = 20.183235 Si / 1000 Ang^3
#
#
#
# Elastic Constant Matrix: (Units=GPa)
#
#
# Indices 1 2 3 4 5 6 
#
# 1 23.7410 -5.8355 3.8500 0.0000 0.0000 0.0000
# 2 -5.8355 125.5945 14.7367 0.0000 0.0000 0.0000
# 3 3.8500 14.7367 68.9205 0.0000 0.0000 0.0000
# 4 0.0000 0.0000 0.0000 18.8867 0.0000 0.0000
# 5 0.0000 0.0000 0.0000 0.0000 -1.0418 0.0000
# 6 0.0000 0.0000 0.0000 0.0000 0.0000 27.9708
#
#
#
# Elastic Compliance Matrix: (Units=1/GPa)
#
#
# Indices 1 2 3 4 5 6 
#
# 1 0.043171 0.002348 -0.002914 0.000000 0.000000 0.000000
# 2 0.002348 0.008295 -0.001905 0.000000 0.000000 0.000000
# 3 -0.002914 -0.001905 0.015080 0.000000 0.000000 0.000000
# 4 0.000000 0.000000 0.000000 0.052947 0.000000 0.000000
# 5 0.000000 0.000000 0.000000 0.000000 -0.959833 0.000000
# 6 0.000000 0.000000 0.000000 0.000000 0.000000 0.035752
#
#
# Mechanical properties :
#
#
# Convention : Reuss Voigt Hill
#
# Bulk Modulus (GPa) = 16.23276 27.08426 21.65851
# Shear Modulus (GPa) = -6.41755 22.86345 8.22295
#
# Velocity S-wave (km/s) = -1.78509 3.36935 2.02064
# Velocity P-wave (km/s) = 1.95229 5.34650 4.02470
#
# Compressibility (1/GPa) = 0.06160381
#
# Stress axis : x y z
#
# Youngs Moduli (GPa) = 23.16381 120.55881 66.31516
#
# Poissons Ratio (x) = -0.28304 0.19321
# Poissons Ratio (y) = -0.05438 0.12631
# Poissons Ratio (z) = 0.06749 0.22963
#
# Static dielectric constant tensor:
#      x y z
#    x -0.235270 0.000000 0.000000 
#    y 0.000000 1.733570 0.000000 
#    z 0.000000 0.000000 1.809170 
# 
# From -- ./inp_files/42527.got.cif
#   From: 2010.05.17/outbox.cif.g08.bks.cpg/sg65_22_cif.got.tgz:42527.got - 2010.06.03 17:01:31.
