data_PCOD9487736
_publ_section_title
;
Structure prediction by ZEFSAII (Michael W. Deem and Ramdas Pophale) SiO2 
 PCOD9487736
Probable space group: C M M M
;
_chemical_formula_sum "Si O2"
_cell_formula_units_Z 68
_cell_length_a 20.065648
_cell_length_b 9.315094
_cell_length_c 18.922176
_cell_angle_alpha 90.000000
_cell_angle_beta 90.000000
_cell_angle_gamma 90.000000
_cell_volume 3536.808200
_symmetry_space_group_name_H-M "C M M M"
_symmetry_group_IT_number 65
_symmetry_cell_setting 'orthorhombic'
loop_
_space_group_symop_operation_xyz
x,y,z
-x,-y,z
x,-y,-z
-x,y,-z
-x,-y,-z
x,y,-z
-x,y,z
x,-y,z
1/2+x,1/2+y,z
1/2-x,1/2-y,z
1/2+x,1/2-y,-z
1/2-x,1/2+y,-z
1/2-x,1/2-y,-z
1/2+x,1/2+y,-z
1/2-x,1/2+y,z
1/2+x,1/2-y,z
loop_
_atom_site_type_symbol
_atom_site_label
_atom_site_fract_x
_atom_site_fract_y
_atom_site_fract_z
Si Si1 0.000000 0.500000 0.179873
Si Si2 0.577933 0.333472 0.584665
Si Si3 0.623504 0.780802 0.832677
Si Si4 0.680570 0.173889 0.319194
Si Si5 0.288646 0.000000 0.917640
Si Si6 0.871531 0.000000 0.083119
O O1 0.941248 0.377177 0.178248
O O2 0.584797 0.320016 0.500000
O O3 0.500000 0.309808 0.602164
O O4 0.594205 0.500000 0.603095
O O5 0.624982 0.223229 0.624882
O O6 0.657405 0.763333 0.756398
O O7 0.677627 0.864367 0.880388
O O8 0.604818 0.638748 0.874782
O O9 0.750000 0.250000 0.338289
O O10 0.685886 0.000000 0.314582
O O11 0.209294 0.000000 0.911449
O O12 0.306261 0.000000 0.000000
O O13 0.888995 0.000000 0.000000
#
# Coordination Sequence:
#
# PCOD9487736 Si02
#       6
#     4  16  16  16   8   8
#     4  10  24  48  59  88 121 176 206 266 324 388
#     4   9  21  43  69  99 134 175 220 263 313 379
#     4  11  24  40  64  92 129 164 220 266 323 382
#     4  12  25  40  66  97 134 171 215 270 328 381
#     4  10  19  39  65  91 125 168 209 262 327 380
#     4  11  23  40  65  95 127 164 216 271 327 387
#
# _framework density 19.226374
#
# number of rings (size 3 to 8) (size 9 to 14) (size 15 to 20)
#    0.000    1.412    2.353    4.235    4.941    3.765 
#    0.000   12.353    0.000    0.000    0.000    0.000 
#    0.000    0.000    0.000    0.000    0.000    0.000 
#
# Total GULP energy -189452.791703 kJ/mol
# GULP energy per Si atom -5572.140932 kJ/mol
# Density = 1.918261 g / cm^3
# Si number density = 19.226374 Si / 1000 Ang^3
#
#
#
# Elastic Constant Matrix: (Units=GPa)
#
#
# Indices 1 2 3 4 5 6 
#
# 1 64.4314 8.1718 20.6270 0.0000 0.0000 0.0000
# 2 8.1718 93.2083 19.1335 0.0000 0.0000 0.0000
# 3 20.6270 19.1335 56.7121 0.0000 0.0000 0.0000
# 4 0.0000 0.0000 0.0000 32.2834 0.0000 0.0000
# 5 0.0000 0.0000 0.0000 0.0000 4.6436 0.0000
# 6 0.0000 0.0000 0.0000 0.0000 0.0000 -24.1790
#
#
#
# Elastic Compliance Matrix: (Units=1/GPa)
#
#
# Indices 1 2 3 4 5 6 
#
# 1 0.017571 -0.000246 -0.006308 0.000000 0.000000 0.000000
# 2 -0.000246 0.011530 -0.003801 0.000000 0.000000 0.000000
# 3 -0.006308 -0.003801 0.021210 0.000000 0.000000 0.000000
# 4 0.000000 0.000000 0.000000 0.030976 0.000000 0.000000
# 5 0.000000 0.000000 0.000000 0.000000 0.215350 0.000000
# 6 0.000000 0.000000 0.000000 0.000000 0.000000 -0.041358
#
#
# Mechanical properties :
#
#
# Convention : Reuss Voigt Hill
#
# Bulk Modulus (GPa) = 33.78130 34.46850 34.12490
# Shear Modulus (GPa) = 17.49142 13.64422 15.56782
#
# Velocity S-wave (km/s) = 3.01950 2.66684 2.84863
# Velocity P-wave (km/s) = 5.45572 5.23921 5.34856
#
# Compressibility (1/GPa) = 0.02960218
#
# Stress axis : x y z
#
# Youngs Moduli (GPa) = 56.91210 86.72728 47.14865
#
# Poissons Ratio (x) = 0.02130 0.29741
# Poissons Ratio (y) = 0.01398 0.17920
# Poissons Ratio (z) = 0.35900 0.32963
#
# Static dielectric constant tensor:
#      x y z
#    x 1.648770 0.000000 0.000000 
#    y 0.000000 1.699890 0.000000 
#    z 0.000000 0.000000 1.657170 
# 
# From -- ./inp_files/59000.got.cif
#   From: 2010.05.17/outbox.cif.g08.bks.cpg/sg65_30_cif.got.tgz:59000.got - 2010.06.03 17:01:31.
