data_PCOD9487917
_publ_section_title
;
Structure prediction by ZEFSAII (Michael W. Deem and Ramdas Pophale) SiO2 
 PCOD9487917
Probable space group: C M M M
;
_chemical_formula_sum "Si O2"
_cell_formula_units_Z 104
_cell_length_a 30.689967
_cell_length_b 9.204814
_cell_length_c 28.801716
_cell_angle_alpha 90.000000
_cell_angle_beta 90.000000
_cell_angle_gamma 90.000000
_cell_volume 8136.353374
_symmetry_space_group_name_H-M "C M M M"
_symmetry_group_IT_number 65
_symmetry_cell_setting 'orthorhombic'
loop_
_space_group_symop_operation_xyz
x,y,z
-x,-y,z
x,-y,-z
-x,y,-z
-x,-y,-z
x,y,-z
-x,y,z
x,-y,z
1/2+x,1/2+y,z
1/2-x,1/2-y,z
1/2+x,1/2-y,-z
1/2-x,1/2+y,-z
1/2-x,1/2-y,-z
1/2+x,1/2+y,-z
1/2-x,1/2+y,z
1/2+x,1/2-y,z
loop_
_atom_site_type_symbol
_atom_site_label
_atom_site_fract_x
_atom_site_fract_y
_atom_site_fract_z
Si Si1 0.446899 0.667877 0.000000
Si Si2 0.446877 0.331999 0.812792
Si Si3 0.116792 0.672419 0.555419
Si Si4 0.947966 0.172345 0.624317
Si Si5 0.052970 0.667335 0.280448
Si Si6 0.553094 0.167872 0.906438
Si Si7 0.206356 0.832414 0.556465
O O1 0.433011 0.750457 0.046699
O O2 0.433249 0.500000 0.000000
O O3 0.500000 0.668709 0.000000
O O4 0.500000 0.331175 0.812644
O O5 0.433292 0.500000 0.812050
O O6 0.432653 0.246709 0.766684
O O7 0.433094 0.251550 0.859918
O O8 0.111097 0.693567 0.500000
O O9 0.117709 0.500000 0.564263
O O10 0.078583 0.749159 0.583853
O O11 0.162694 0.745864 0.569138
O O12 0.935019 0.243881 0.673508
O O13 0.000000 0.193495 0.618467
O O14 0.939571 0.000000 0.624618
O O15 0.067485 0.500000 0.282540
O O16 0.000000 0.665752 0.279258
O O17 0.500000 0.168581 0.906471
O O18 0.566777 0.000000 0.906081
O O19 0.207621 0.834025 0.500000
O O20 0.250000 0.750000 0.572138
O O21 0.205145 0.000000 0.571859
#
# Coordination Sequence:
#
# PCOD9487917 Si02
#       7
#     8  16  16  16  16  16  16
#     4   9  15  21  27  35  49  69  91 115 147 189
#     4   9  15  22  32  45  59  74  95 125 160 197
#     4  10  20  32  45  61  80 101 125 151 179 214
#     4  10  20  32  44  57  74  97 124 153 185 220
#     4   9  16  26  39  52  65  82 106 137 172 208
#     4   9  15  21  28  38  52  70  92 118 150 190
#     4   9  16  27  44  64  84 103 122 145 174 208
#
# _framework density 12.782139000000001
#
# number of rings (size 3 to 8) (size 9 to 14) (size 15 to 20)
#    0.000    2.692    0.000    3.000    0.000   10.462 
#    0.000    1.538    0.000    0.000    0.000    0.000 
#    0.000    0.000    0.000    0.000    0.000    0.000 
#
# Total GULP energy -289643.870549 kJ/mol
# GULP energy per Si atom -5570.074434 kJ/mol
# Density = 1.275305 g / cm^3
# Si number density = 12.782139 Si / 1000 Ang^3
#
#
#
# Elastic Constant Matrix: (Units=GPa)
#
#
# Indices 1 2 3 4 5 6 
#
# 1 29.2239 39.7850 33.1434 0.0000 0.0000 0.0000
# 2 39.7850 146.1478 74.9603 0.0000 0.0000 0.0000
# 3 33.1434 74.9603 86.3144 0.0000 0.0000 0.0000
# 4 0.0000 0.0000 0.0000 25.3090 0.0000 0.0000
# 5 0.0000 0.0000 0.0000 0.0000 -0.4290 0.0000
# 6 0.0000 0.0000 0.0000 0.0000 0.0000 13.8508
#
#
#
# Elastic Compliance Matrix: (Units=1/GPa)
#
#
# Indices 1 2 3 4 5 6 
#
# 1 0.066649 -0.009047 -0.017735 0.000000 0.000000 0.000000
# 2 -0.009047 0.013566 -0.008308 0.000000 0.000000 0.000000
# 3 -0.017735 -0.008308 0.025611 0.000000 0.000000 0.000000
# 4 0.000000 0.000000 0.000000 0.039512 0.000000 0.000000
# 5 0.000000 0.000000 0.000000 0.000000 -2.330971 0.000000
# 6 0.000000 0.000000 0.000000 0.000000 0.000000 0.072198
#
#
# Mechanical properties :
#
#
# Convention : Reuss Voigt Hill
#
# Bulk Modulus (GPa) = 28.05389 61.94039 44.99714
# Shear Modulus (GPa) = -2.46139 15.33265 6.43563
#
# Velocity S-wave (km/s) = -1.38918 3.46719 2.24628
# Velocity P-wave (km/s) = 4.40707 8.03693 6.48130
#
# Compressibility (1/GPa) = 0.03564568
#
# Stress axis : x y z
#
# Youngs Moduli (GPa) = 15.00402 73.71167 39.04608
#
# Poissons Ratio (x) = 0.66686 0.69250
# Poissons Ratio (y) = 0.13574 0.32439
# Poissons Ratio (z) = 0.26610 0.61239
#
# Static dielectric constant tensor:
#      x y z
#    x 1.378940 0.000000 0.000000 
#    y 0.000000 1.428310 0.000000 
#    z 0.000000 0.000000 1.412510 
# 
# From -- ./inp_files/76053.got.cif
#   From: 2010.05.17/outbox.cif.g08.bks.cpg/sg65_39_cif.got.tgz:76053.got - 2010.06.03 17:01:31.
