data_PCOD9487655
_publ_section_title
;
Structure prediction by ZEFSAII (Michael W. Deem and Ramdas Pophale) SiO2 
 PCOD9487655
Probable space group: C M M M
;
_chemical_formula_sum "Si O2"
_cell_formula_units_Z 116
_cell_length_a 22.186315
_cell_length_b 31.463011
_cell_length_c 8.573408
_cell_angle_alpha 90.000000
_cell_angle_beta 90.000000
_cell_angle_gamma 90.000000
_cell_volume 5984.652647
_symmetry_space_group_name_H-M "C M M M"
_symmetry_group_IT_number 65
_symmetry_cell_setting 'orthorhombic'
loop_
_space_group_symop_operation_xyz
x,y,z
-x,-y,z
x,-y,-z
-x,y,-z
-x,-y,-z
x,y,-z
-x,y,z
x,-y,z
1/2+x,1/2+y,z
1/2-x,1/2-y,z
1/2+x,1/2-y,-z
1/2-x,1/2+y,-z
1/2-x,1/2-y,-z
1/2+x,1/2+y,-z
1/2-x,1/2+y,z
1/2+x,1/2-y,z
loop_
_atom_site_type_symbol
_atom_site_label
_atom_site_fract_x
_atom_site_fract_y
_atom_site_fract_z
Si Si1 0.430613 0.680499 0.188684
Si Si2 0.390067 0.939038 0.683156
Si Si3 0.219211 0.704298 0.178905
Si Si4 0.903348 0.273993 0.679117
Si Si5 0.931804 0.359112 0.172997
Si Si6 0.248013 0.453069 0.311898
Si Si7 0.313308 0.369913 0.812606
Si Si8 0.000000 0.500000 0.226687
O O1 0.500000 0.670086 0.230631
O O2 0.414043 0.726761 0.257023
O O3 0.379499 0.646617 0.238923
O O4 0.427399 0.683699 0.000000
O O5 0.396042 0.949746 0.500000
O O6 0.396450 0.888613 0.707773
O O7 0.322507 0.950081 0.737294
O O8 0.445415 0.963472 0.765454
O O9 0.250000 0.750000 0.171160
O O10 0.165470 0.711249 0.298542
O O11 0.265667 0.667606 0.225117
O O12 0.198042 0.695355 0.000000
O O13 0.922251 0.276215 0.500000
O O14 0.934214 0.309980 0.782669
O O15 0.000000 0.374426 0.174478
O O16 0.906780 0.365630 0.000000
O O17 0.247246 0.450884 0.500000
O O18 0.270515 0.500000 0.265287
O O19 0.288037 0.414153 0.251736
O O20 0.315087 0.373017 0.000000
#
# Coordination Sequence:
#
# PCOD9487655 Si02
#       8
#    16  16  16  16  16  16  16   4
#     4  10  21  40  64  87 115 152 193 239 296 361
#     4  11  21  37  61  85 111 150 198 246 298 350
#     4  10  19  36  59  82 116 155 191 232 281 341
#     4  12  24  36  55  84 118 153 196 242 286 344
#     4  11  24  39  53  74 108 152 198 243 291 342
#     4  10  22  39  59  86 118 152 191 238 294 353
#     4  10  21  38  62  90 116 151 196 243 296 351
#     4  12  21  36  65  90 117 156 199 254 309 358
#
# _framework density 19.382912999999999
#
# number of rings (size 3 to 8) (size 9 to 14) (size 15 to 20)
#    0.000    1.379    2.759    3.517    0.000    7.172 
#    0.000    0.690    0.000    0.414    0.000    2.897 
#    0.000    0.000    0.000    0.000    0.000    0.000 
#
# Total GULP energy -323137.781673 kJ/mol
# GULP energy per Si atom -5571.341063 kJ/mol
# Density = 1.933880 g / cm^3
# Si number density = 19.382913 Si / 1000 Ang^3
#
#
#
# Elastic Constant Matrix: (Units=GPa)
#
#
# Indices 1 2 3 4 5 6 
#
# 1 125.5276 76.1408 23.2936 0.0000 0.0000 0.0000
# 2 76.1408 159.9882 17.9080 0.0000 0.0000 0.0000
# 3 23.2936 17.9080 24.8293 0.0000 0.0000 0.0000
# 4 0.0000 0.0000 0.0000 74.8471 0.0000 0.0000
# 5 0.0000 0.0000 0.0000 0.0000 12.8627 0.0000
# 6 0.0000 0.0000 0.0000 0.0000 0.0000 25.4662
#
#
#
# Elastic Compliance Matrix: (Units=1/GPa)
#
#
# Indices 1 2 3 4 5 6 
#
# 1 0.012542 -0.005060 -0.008116 0.000000 0.000000 0.000000
# 2 -0.005060 0.008841 -0.001629 0.000000 0.000000 0.000000
# 3 -0.008116 -0.001629 0.049065 0.000000 0.000000 0.000000
# 4 0.000000 0.000000 0.000000 0.013361 0.000000 0.000000
# 5 0.000000 0.000000 0.000000 0.000000 0.077744 0.000000
# 6 0.000000 0.000000 0.000000 0.000000 0.000000 0.039268
#
#
# Mechanical properties :
#
#
# Convention : Reuss Voigt Hill
#
# Bulk Modulus (GPa) = 24.48846 60.55885 42.52366
# Shear Modulus (GPa) = 20.48809 35.50203 27.99506
#
# Velocity S-wave (km/s) = 3.25471 4.28438 3.80454
# Velocity P-wave (km/s) = 5.17549 7.46899 6.42540
#
# Compressibility (1/GPa) = 0.04083556
#
# Stress axis : x y z
#
# Youngs Moduli (GPa) = 79.73211 113.10735 20.38130
#
# Poissons Ratio (x) = 0.57237 0.16542
# Poissons Ratio (y) = 0.40348 0.03321
# Poissons Ratio (z) = 0.64714 0.18427
#
# Static dielectric constant tensor:
#      x y z
#    x 1.938300 0.000000 0.000000 
#    y 0.000000 1.686480 0.000000 
#    z 0.000000 0.000000 1.698720 
# 
# From -- ./inp_files/15132.got.cif
#   From: 2010.05.17/outbox.cif.g08.bks.cpg/sg65_8_cif.got.tgz:15132.got - 2010.06.03 17:01:31.
