data_PCOD9487593
_publ_section_title
;
Structure prediction by ZEFSAII (Michael W. Deem and Ramdas Pophale) SiO2 
 PCOD9487593
Probable space group: C M M M
;
_chemical_formula_sum "Si O2"
_cell_formula_units_Z 72
_cell_length_a 21.211728
_cell_length_b 22.176450
_cell_length_c 7.912257
_cell_angle_alpha 90.000000
_cell_angle_beta 90.000000
_cell_angle_gamma 90.000000
_cell_volume 3721.932224
_symmetry_space_group_name_H-M "C M M M"
_symmetry_group_IT_number 65
_symmetry_cell_setting 'orthorhombic'
loop_
_space_group_symop_operation_xyz
x,y,z
-x,-y,z
x,-y,-z
-x,y,-z
-x,-y,-z
x,y,-z
-x,y,z
x,-y,z
1/2+x,1/2+y,z
1/2-x,1/2-y,z
1/2+x,1/2-y,-z
1/2-x,1/2+y,-z
1/2-x,1/2-y,-z
1/2+x,1/2+y,-z
1/2-x,1/2+y,z
1/2+x,1/2-y,z
loop_
_atom_site_type_symbol
_atom_site_label
_atom_site_fract_x
_atom_site_fract_y
_atom_site_fract_z
Si Si1 0.000000 0.069997 0.189575
Si Si2 0.746850 0.067334 0.194859
Si Si3 0.300628 0.801402 0.701032
Si Si4 0.127244 0.881868 0.306841
Si Si5 0.926735 0.753946 0.293430
O O1 0.939156 0.086329 0.294960
O O2 0.000000 0.000000 0.165441
O O3 0.000000 0.098622 0.000000
O O4 0.719684 0.129614 0.269350
O O5 0.821525 0.080213 0.207012
O O6 0.733631 0.000000 0.268020
O O7 0.727448 0.065714 0.000000
O O8 0.302330 0.791248 0.500000
O O9 0.250000 0.750000 0.765972
O O10 0.373248 0.793661 0.760787
O O11 0.150054 0.876309 0.500000
O O12 0.108743 0.815669 0.242383
O O13 0.930606 0.754710 0.500000
O O14 0.000000 0.749606 0.235288
#
# Coordination Sequence:
#
# PCOD9487593 Si02
#       5
#     8  16  16  16  16
#     4  11  23  35  45  67 109 153 190 229 274 327
#     4  11  24  39  54  78 115 152 186 232 287 337
#     4  10  19  35  60  86 110 142 188 237 281 333
#     4  11  20  34  56  79 106 145 191 231 273 331
#     4   9  17  32  55  83 113 140 173 227 285 330
#
# _framework density 19.34479
#
# number of rings (size 3 to 8) (size 9 to 14) (size 15 to 20)
#    0.000    1.667    3.333    2.333    0.000    5.778 
#    0.000    0.000    0.000    0.667    0.000    4.667 
#    0.000    0.000    0.000    0.000    0.000    0.000 
#
# Total GULP energy -200435.384850 kJ/mol
# GULP energy per Si atom -5567.649579 kJ/mol
# Density = 1.930076 g / cm^3
# Si number density = 19.344790 Si / 1000 Ang^3
#
#
#
# Elastic Constant Matrix: (Units=GPa)
#
#
# Indices 1 2 3 4 5 6 
#
# 1 76.5410 56.1982 5.8328 0.0000 0.0000 0.0000
# 2 56.1982 125.2928 1.6431 0.0000 0.0000 0.0000
# 3 5.8328 1.6431 25.3997 0.0000 0.0000 0.0000
# 4 0.0000 0.0000 0.0000 19.0713 0.0000 0.0000
# 5 0.0000 0.0000 0.0000 0.0000 10.4581 0.0000
# 6 0.0000 0.0000 0.0000 0.0000 0.0000 34.6033
#
#
#
# Elastic Compliance Matrix: (Units=1/GPa)
#
#
# Indices 1 2 3 4 5 6 
#
# 1 0.019876 -0.008863 -0.003991 0.000000 0.000000 0.000000
# 2 -0.008863 0.011940 0.001263 0.000000 0.000000 0.000000
# 3 -0.003991 0.001263 0.040205 0.000000 0.000000 0.000000
# 4 0.000000 0.000000 0.000000 0.052435 0.000000 0.000000
# 5 0.000000 0.000000 0.000000 0.000000 0.095620 0.000000
# 6 0.000000 0.000000 0.000000 0.000000 0.000000 0.028899
#
#
# Mechanical properties :
#
#
# Convention : Reuss Voigt Hill
#
# Bulk Modulus (GPa) = 20.47520 39.39798 29.93659
# Shear Modulus (GPa) = 17.33477 23.73049 20.53263
#
# Velocity S-wave (km/s) = 2.99673 3.50624 3.26145
# Velocity P-wave (km/s) = 4.75197 6.06647 5.44900
#
# Compressibility (1/GPa) = 0.04883957
#
# Stress axis : x y z
#
# Youngs Moduli (GPa) = 50.31090 83.75154 24.87233
#
# Poissons Ratio (x) = 0.74228 0.09927
# Poissons Ratio (y) = 0.44590 -0.03141
# Poissons Ratio (z) = 0.20079 -0.10577
#
# Static dielectric constant tensor:
#      x y z
#    x 1.683170 0.000000 0.000000 
#    y 0.000000 1.750370 0.000000 
#    z 0.000000 0.000000 1.804420 
# 
# From -- ./inp_files/11212.got.cif
#   From: 2010.05.17/outbox.cif.g08.bks.cpg/sg65_6_cif.got.tgz:11212.got - 2010.06.03 17:01:31.
