data_PCOD9487971
_publ_section_title
;
Structure prediction by ZEFSAII (Michael W. Deem and Ramdas Pophale) SiO2 
 PCOD9487971
Probable space group: C M M M
;
_chemical_formula_sum "Si O2"
_cell_formula_units_Z 88
_cell_length_a 32.759281
_cell_length_b 9.669879
_cell_length_c 19.321859
_cell_angle_alpha 90.000000
_cell_angle_beta 90.000000
_cell_angle_gamma 90.000000
_cell_volume 6120.745326
_symmetry_space_group_name_H-M "C M M M"
_symmetry_group_IT_number 65
_symmetry_cell_setting 'orthorhombic'
loop_
_space_group_symop_operation_xyz
x,y,z
-x,-y,z
x,-y,-z
-x,y,-z
-x,-y,-z
x,y,-z
-x,y,z
x,-y,z
1/2+x,1/2+y,z
1/2-x,1/2-y,z
1/2+x,1/2-y,-z
1/2-x,1/2+y,-z
1/2-x,1/2-y,-z
1/2+x,1/2+y,-z
1/2-x,1/2+y,z
1/2+x,1/2-y,z
loop_
_atom_site_type_symbol
_atom_site_label
_atom_site_fract_x
_atom_site_fract_y
_atom_site_fract_z
Si Si1 0.500000 0.838387 0.417201
Si Si2 0.049526 0.841882 0.921209
Si Si3 0.931847 0.159486 0.341620
Si Si4 0.049611 0.662128 0.790700
Si Si5 0.184956 0.500000 0.583809
Si Si6 0.848104 0.792165 0.416665
Si Si7 0.222392 0.000000 0.583472
O O1 0.500000 0.840114 0.500000
O O2 0.461353 0.752732 0.389420
O O3 0.500000 0.000000 0.393139
O O4 0.061612 0.729750 0.864191
O O5 0.000000 0.841869 0.921885
O O6 0.061891 0.000000 0.903388
O O7 0.062847 0.812013 0.000000
O O8 0.932229 0.240741 0.269080
O O9 0.887507 0.156016 0.376719
O O10 0.946223 0.000000 0.334128
O O11 0.060607 0.500000 0.784920
O O12 0.000000 0.670148 0.784304
O O13 0.187930 0.500000 0.500000
O O14 0.159862 0.634551 0.602335
O O15 0.231553 0.500000 0.610470
O O16 0.854106 0.807121 0.500000
O O17 0.806149 0.870657 0.398706
O O18 0.225820 0.000000 0.500000
#
# Coordination Sequence:
#
# PCOD9487971 Si02
#       7
#     8  16  16  16   8  16   8
#     4  11  25  39  51  63  80 111 154 205 247 279
#     4   8  14  26  45  67  89 112 143 183 223 267
#     4  12  23  35  49  64  87 120 157 195 235 273
#     4  10  20  32  46  63  87 118 154 194 231 267
#     4   9  18  30  50  71  89 113 136 174 235 289
#     4  10  20  32  48  69  90 113 147 191 232 281
#     4   9  16  32  50  69  91 109 138 180 229 287
#
# _framework density 14.377333
#
# number of rings (size 3 to 8) (size 9 to 14) (size 15 to 20)
#    0.000    2.091    1.818    3.000    2.545    4.727 
#    0.000    1.818    0.000    0.000    0.000    0.000 
#    0.000    0.000    0.000    0.000    0.000    5.455 
#
# Total GULP energy -245157.679714 kJ/mol
# GULP energy per Si atom -5571.765448 kJ/mol
# Density = 1.434461 g / cm^3
# Si number density = 14.377333 Si / 1000 Ang^3
#
#
#
# Elastic Constant Matrix: (Units=GPa)
#
#
# Indices 1 2 3 4 5 6 
#
# 1 46.0379 24.1901 16.8205 0.0000 0.0000 0.0000
# 2 24.1901 136.6604 47.4498 0.0000 0.0000 0.0000
# 3 16.8205 47.4498 69.5267 0.0000 0.0000 0.0000
# 4 0.0000 0.0000 0.0000 21.9925 0.0000 0.0000
# 5 0.0000 0.0000 0.0000 0.0000 -10.1821 0.0000
# 6 0.0000 0.0000 0.0000 0.0000 0.0000 38.9389
#
#
#
# Elastic Compliance Matrix: (Units=1/GPa)
#
#
# Indices 1 2 3 4 5 6 
#
# 1 0.024741 -0.003016 -0.003927 0.000000 0.000000 0.000000
# 2 -0.003016 0.009957 -0.006066 0.000000 0.000000 0.000000
# 3 -0.003927 -0.006066 0.019473 0.000000 0.000000 0.000000
# 4 0.000000 0.000000 0.000000 0.045470 0.000000 0.000000
# 5 0.000000 0.000000 0.000000 0.000000 -0.098212 0.000000
# 6 0.000000 0.000000 0.000000 0.000000 0.000000 0.025681
#
#
# Mechanical properties :
#
#
# Convention : Reuss Voigt Hill
#
# Bulk Modulus (GPa) = 35.52031 47.68286 41.60159
# Shear Modulus (GPa) = 79.98343 21.06750 50.52547
#
# Velocity S-wave (km/s) = 7.46675 3.83211 5.93454
# Velocity P-wave (km/s) = 9.95469 7.26756 8.71531
#
# Compressibility (1/GPa) = 0.02815291
#
# Stress axis : x y z
#
# Youngs Moduli (GPa) = 40.41922 100.42786 51.35323
#
# Poissons Ratio (x) = 0.30286 0.20168
# Poissons Ratio (y) = 0.12189 0.31151
# Poissons Ratio (z) = 0.15874 0.60920
#
# Static dielectric constant tensor:
#      x y z
#    x 1.453640 0.000000 0.000000 
#    y 0.000000 1.523310 0.000000 
#    z 0.000000 0.000000 1.470210 
# 
# From -- ./inp_files/66288.got.cif
#   From: 2010.05.17/outbox.cif.g08.bks.cpg/sg65_34_cif.got.tgz:66288.got - 2010.06.03 17:01:31.
