data_PCOD9487540
_publ_section_title
;
Structure prediction by ZEFSAII (Michael W. Deem and Ramdas Pophale) SiO2 
 PCOD9487540
Probable space group: C M M M
;
_chemical_formula_sum "Si O2"
_cell_formula_units_Z 58
_cell_length_a 26.070491
_cell_length_b 15.215438
_cell_length_c 7.816616
_cell_angle_alpha 90.000000
_cell_angle_beta 90.000000
_cell_angle_gamma 90.000000
_cell_volume 3100.647862
_symmetry_space_group_name_H-M "C M M M"
_symmetry_group_IT_number 65
_symmetry_cell_setting 'orthorhombic'
loop_
_space_group_symop_operation_xyz
x,y,z
-x,-y,z
x,-y,-z
-x,y,-z
-x,-y,-z
x,y,-z
-x,y,z
x,-y,z
1/2+x,1/2+y,z
1/2-x,1/2-y,z
1/2+x,1/2-y,-z
1/2-x,1/2+y,-z
1/2-x,1/2-y,-z
1/2+x,1/2+y,-z
1/2-x,1/2+y,z
1/2+x,1/2-y,z
loop_
_atom_site_type_symbol
_atom_site_label
_atom_site_fract_x
_atom_site_fract_y
_atom_site_fract_z
Si Si1 0.000000 0.651825 0.205706
Si Si2 0.651872 0.000000 0.704501
Si Si3 0.773015 0.000000 0.292166
Si Si4 0.795477 0.809653 0.300382
Si Si5 0.612857 0.807843 0.198199
Si Si6 0.000000 0.500000 0.500000
O O1 0.947129 0.703823 0.234445
O O2 0.000000 0.575359 0.346714
O O3 0.000000 0.624828 0.000000
O O4 0.626165 0.910358 0.768367
O O5 0.646282 0.000000 0.500000
O O6 0.712168 0.000000 0.747105
O O7 0.796399 0.908219 0.227538
O O8 0.778047 0.000000 0.500000
O O9 0.781593 0.821322 0.500000
O O10 0.750000 0.750000 0.222658
O O11 0.847793 0.755347 0.293252
O O12 0.621949 0.790282 0.000000
#
# Coordination Sequence:
#
# PCOD9487540 Si02
#       6
#     8   8   8  16  16   2
#     4  10  25  41  53  85 124 152 199 253 288 343
#     4  11  20  33  55  81 112 149 190 224 275 345
#     4   9  18  34  53  82 116 145 180 240 287 321
#     4  10  19  35  58  83 112 148 192 236 282 345
#     4  11  23  38  54  79 118 155 188 240 291 336
#     4  12  22  36  68  86 112 170 198 228 304 368
#
# _framework density 18.705767000000002
#
# number of rings (size 3 to 8) (size 9 to 14) (size 15 to 20)
#    0.000    1.655    2.759    2.276    5.793    2.759 
#    0.000    0.690    0.000    0.828    0.000    5.793 
#    0.000    0.000    0.000    0.000    0.000    0.000 
#
# Total GULP energy -161508.019091 kJ/mol
# GULP energy per Si atom -5569.242038 kJ/mol
# Density = 1.866319 g / cm^3
# Si number density = 18.705767 Si / 1000 Ang^3
#
#
#
# Elastic Constant Matrix: (Units=GPa)
#
#
# Indices 1 2 3 4 5 6 
#
# 1 81.2589 61.2218 8.1100 0.0000 0.0000 0.0000
# 2 61.2218 146.2628 6.9247 0.0000 0.0000 0.0000
# 3 8.1100 6.9247 39.4461 0.0000 0.0000 0.0000
# 4 0.0000 0.0000 0.0000 -44.3909 0.0000 0.0000
# 5 0.0000 0.0000 0.0000 0.0000 19.5636 0.0000
# 6 0.0000 0.0000 0.0000 0.0000 0.0000 25.2357
#
#
#
# Elastic Compliance Matrix: (Units=1/GPa)
#
#
# Indices 1 2 3 4 5 6 
#
# 1 0.018202 -0.007504 -0.002425 0.000000 0.000000 0.000000
# 2 -0.007504 0.009988 -0.000211 0.000000 0.000000 0.000000
# 3 -0.002425 -0.000211 0.025887 0.000000 0.000000 0.000000
# 4 0.000000 0.000000 0.000000 -0.022527 0.000000 0.000000
# 5 0.000000 0.000000 0.000000 0.000000 0.051115 0.000000
# 6 0.000000 0.000000 0.000000 0.000000 0.000000 0.039626
#
#
# Mechanical properties :
#
#
# Convention : Reuss Voigt Hill
#
# Bulk Modulus (GPa) = 29.58806 46.60896 38.09851
# Shear Modulus (GPa) = 32.50206 12.79577 22.64892
#
# Velocity S-wave (km/s) = 4.17291 2.61828 3.48343
# Velocity P-wave (km/s) = 6.25056 5.84051 6.04901
#
# Compressibility (1/GPa) = 0.03379742
#
# Stress axis : x y z
#
# Youngs Moduli (GPa) = 54.93879 100.12016 38.63003
#
# Poissons Ratio (x) = 0.75131 0.09368
# Poissons Ratio (y) = 0.41227 0.00813
# Poissons Ratio (z) = 0.13323 0.02108
#
# Static dielectric constant tensor:
#      x y z
#    x 1.653880 0.000000 0.000000 
#    y 0.000000 1.414050 0.000000 
#    z 0.000000 0.000000 1.681420 
# 
# From -- ./inp_files/13313.got.cif
#   From: 2010.05.17/outbox.cif.g08.bks.cpg/sg65_7_cif.got.tgz:13313.got - 2010.06.03 17:01:31.
