data_PCOD9487915
_publ_section_title
;
Structure prediction by ZEFSAII (Michael W. Deem and Ramdas Pophale) SiO2 
 PCOD9487915
Probable space group: C M M M
;
_chemical_formula_sum "Si O2"
_cell_formula_units_Z 80
_cell_length_a 9.243002
_cell_length_b 30.683201
_cell_length_c 20.791411
_cell_angle_alpha 90.000000
_cell_angle_beta 90.000000
_cell_angle_gamma 90.000000
_cell_volume 5896.545792
_symmetry_space_group_name_H-M "C M M M"
_symmetry_group_IT_number 65
_symmetry_cell_setting 'orthorhombic'
loop_
_space_group_symop_operation_xyz
x,y,z
-x,-y,z
x,-y,-z
-x,y,-z
-x,-y,-z
x,y,-z
-x,y,z
x,-y,z
1/2+x,1/2+y,z
1/2-x,1/2-y,z
1/2+x,1/2-y,-z
1/2-x,1/2+y,-z
1/2-x,1/2-y,-z
1/2+x,1/2+y,-z
1/2-x,1/2+y,z
1/2+x,1/2-y,z
loop_
_atom_site_type_symbol
_atom_site_label
_atom_site_fract_x
_atom_site_fract_y
_atom_site_fract_z
Si Si1 0.671319 0.052056 0.329232
Si Si2 0.833064 0.706494 0.421774
Si Si3 0.165713 0.946987 0.198542
Si Si4 0.171562 0.882756 0.423190
Si Si5 0.831434 0.552981 0.928204
O O1 0.500000 0.060668 0.330853
O O2 0.738407 0.064869 0.260196
O O3 0.753422 0.078613 0.384146
O O4 0.692482 0.000000 0.337143
O O5 0.834715 0.707721 0.500000
O O6 0.750000 0.750000 0.400133
O O7 0.747159 0.662779 0.404138
O O8 0.000000 0.705509 0.400445
O O9 0.235412 0.931851 0.131426
O O10 0.000000 0.932631 0.205823
O O11 0.165092 0.000000 0.196569
O O12 0.191872 0.888444 0.500000
O O13 0.000000 0.881176 0.410749
O O14 0.826549 0.500000 0.928011
O O15 0.000000 0.564800 0.919132
O O16 0.785301 0.566932 0.000000
#
# Coordination Sequence:
#
# PCOD9487915 Si02
#       5
#    16  16  16  16  16
#     4  10  20  32  44  56  73 101 136 171 205 241
#     4   9  16  27  44  64  84 103 123 150 188 235
#     4   9  16  25  37  52  70  93 123 159 196 233
#     4  10  20  32  45  61  80 101 128 164 204 243
#     4   8  13  21  33  49  69  92 118 150 188 228
#
# _framework density 13.567265000000001
#
# number of rings (size 3 to 8) (size 9 to 14) (size 15 to 20)
#    0.000    2.800    0.000    3.000    0.000    8.000 
#    0.000    4.000    0.000    0.000    0.000    0.000 
#    0.000    0.000    0.000    0.000    0.000    1.000 
#
# Total GULP energy -222755.592060 kJ/mol
# GULP energy per Si atom -5568.889802 kJ/mol
# Density = 1.353639 g / cm^3
# Si number density = 13.567265 Si / 1000 Ang^3
#
#
#
# Elastic Constant Matrix: (Units=GPa)
#
#
# Indices 1 2 3 4 5 6 
#
# 1 125.6285 50.7185 65.2901 0.0000 0.0000 0.0000
# 2 50.7185 43.0347 37.1883 0.0000 0.0000 0.0000
# 3 65.2901 37.1883 68.1429 0.0000 0.0000 0.0000
# 4 0.0000 0.0000 0.0000 -0.7917 0.0000 0.0000
# 5 0.0000 0.0000 0.0000 0.0000 23.2120 0.0000
# 6 0.0000 0.0000 0.0000 0.0000 0.0000 19.1985
#
#
#
# Elastic Compliance Matrix: (Units=1/GPa)
#
#
# Indices 1 2 3 4 5 6 
#
# 1 0.018846 -0.012504 -0.011233 0.000000 0.000000 0.000000
# 2 -0.012504 0.052272 -0.016547 0.000000 0.000000 0.000000
# 3 -0.011233 -0.016547 0.034468 0.000000 0.000000 0.000000
# 4 0.000000 0.000000 0.000000 -1.263182 0.000000 0.000000
# 5 0.000000 0.000000 0.000000 0.000000 0.043081 0.000000
# 6 0.000000 0.000000 0.000000 0.000000 0.000000 0.052087
#
#
# Mechanical properties :
#
#
# Convention : Reuss Voigt Hill
#
# Bulk Modulus (GPa) = 39.96971 60.35556 50.16263
# Shear Modulus (GPa) = -5.13600 13.89773 4.38086
#
# Velocity S-wave (km/s) = -1.94777 3.20403 1.79889
# Velocity P-wave (km/s) = 4.94631 7.63351 6.43181
#
# Compressibility (1/GPa) = 0.02501895
#
# Stress axis : x y z
#
# Youngs Moduli (GPa) = 53.06187 19.13066 29.01229
#
# Poissons Ratio (x) = 0.23920 0.32590
# Poissons Ratio (y) = 0.66347 0.48006
# Poissons Ratio (z) = 0.59605 0.31655
#
# Static dielectric constant tensor:
#      x y z
#    x 1.454290 0.000000 0.000000 
#    y 0.000000 1.419080 0.000000 
#    z 0.000000 0.000000 1.442400 
# 
# From -- ./inp_files/49874.got.cif
#   From: 2010.05.17/outbox.cif.g08.bks.cpg/sg65_25_cif.got.tgz:49874.got - 2010.06.03 17:01:31.
