data_PCOD9487129
_publ_section_title
;
Structure prediction by ZEFSAII (Michael W. Deem and Ramdas Pophale) SiO2 
 PCOD9487129
Probable space group: C M M M
;
_chemical_formula_sum "Si O2"
_cell_formula_units_Z 112
_cell_length_a 14.574564
_cell_length_b 29.859850
_cell_length_c 13.433785
_cell_angle_alpha 90.000000
_cell_angle_beta 90.000000
_cell_angle_gamma 90.000000
_cell_volume 5846.306590
_symmetry_space_group_name_H-M "C M M M"
_symmetry_group_IT_number 65
_symmetry_cell_setting 'orthorhombic'
loop_
_space_group_symop_operation_xyz
x,y,z
-x,-y,z
x,-y,-z
-x,y,-z
-x,-y,-z
x,y,-z
-x,y,z
x,-y,z
1/2+x,1/2+y,z
1/2-x,1/2-y,z
1/2+x,1/2-y,-z
1/2-x,1/2+y,-z
1/2-x,1/2-y,-z
1/2+x,1/2+y,-z
1/2-x,1/2+y,z
1/2+x,1/2-y,z
loop_
_atom_site_type_symbol
_atom_site_label
_atom_site_fract_x
_atom_site_fract_y
_atom_site_fract_z
Si Si1 0.359297 0.256538 0.610510
Si Si2 0.598512 0.687086 0.193369
Si Si3 0.253160 0.386139 0.209762
Si Si4 0.609100 0.553136 0.886631
Si Si5 0.897879 0.664514 0.706186
Si Si6 0.155140 0.726462 0.112239
Si Si7 0.895058 0.550106 0.881182
O O1 0.384803 0.271757 0.500000
O O2 0.250000 0.250000 0.615614
O O3 0.389820 0.290251 0.697370
O O4 0.395986 0.206709 0.632284
O O5 0.500000 0.663090 0.189090
O O6 0.686274 0.656036 0.172502
O O7 0.594676 0.729077 0.119628
O O8 0.332751 0.423599 0.200642
O O9 0.191816 0.367352 0.302189
O O10 0.172454 0.410360 0.148765
O O11 0.500000 0.559922 0.877069
O O12 0.625810 0.500000 0.885068
O O13 0.635869 0.568933 0.000000
O O14 0.881578 0.689020 0.813332
O O15 0.000000 0.644171 0.702227
O O16 0.250000 0.750000 0.146719
O O17 0.164269 0.709944 0.000000
O O18 0.866323 0.500000 0.846122
O O19 0.000000 0.557529 0.847756
O O20 0.896216 0.548397 0.000000
#
# Coordination Sequence:
#
# PCOD9487129 Si02
#       7
#    16  16  16  16  16  16  16
#     4  10  19  38  63  81 101 138 179 219 272 322
#     4  11  22  35  51  74 104 136 175 219 260 310
#     4  12  20  32  47  72 104 135 162 213 265 311
#     4   9  19  35  53  73  98 135 184 228 267 313
#     4  11  22  35  51  74 104 136 175 219 260 310
#     4  10  19  34  49  61  91 140 181 210 247 292
#     4   9  19  35  53  73  98 135 184 228 267 313
#
# _framework density 19.157394
#
# number of rings (size 3 to 8) (size 9 to 14) (size 15 to 20)
#    0.000    1.714    2.857    5.143    0.000    5.714 
#    0.000    0.000    0.000    0.000    0.000    0.000 
#    0.000    9.143    0.000   24.000    0.000    0.000 
#
# Total GULP energy -311735.828902 kJ/mol
# GULP energy per Si atom -5566.711230 kJ/mol
# Density = 1.911379 g / cm^3
# Si number density = 19.157394 Si / 1000 Ang^3
#
#
#
# Elastic Constant Matrix: (Units=GPa)
#
#
# Indices 1 2 3 4 5 6 
#
# 1 134.2809 28.0221 -7.6851 0.0000 0.0000 0.0000
# 2 28.0221 79.3284 7.8060 0.0000 0.0000 0.0000
# 3 -7.6851 7.8060 48.7683 0.0000 0.0000 0.0000
# 4 0.0000 0.0000 0.0000 9.8586 0.0000 0.0000
# 5 0.0000 0.0000 0.0000 0.0000 -0.2531 0.0000
# 6 0.0000 0.0000 0.0000 0.0000 0.0000 27.1809
#
#
#
# Elastic Compliance Matrix: (Units=1/GPa)
#
#
# Indices 1 2 3 4 5 6 
#
# 1 0.008189 -0.003068 0.001782 0.000000 0.000000 0.000000
# 2 -0.003068 0.013957 -0.002717 0.000000 0.000000 0.000000
# 3 0.001782 -0.002717 0.021221 0.000000 0.000000 0.000000
# 4 0.000000 0.000000 0.000000 0.101434 0.000000 0.000000
# 5 0.000000 0.000000 0.000000 0.000000 -3.951637 0.000000
# 6 0.000000 0.000000 0.000000 0.000000 0.000000 0.036791
#
#
# Mechanical properties :
#
#
# Convention : Reuss Voigt Hill
#
# Bulk Modulus (GPa) = 28.28125 35.40708 31.84417
# Shear Modulus (GPa) = -1.33324 22.97293 10.81984
#
# Velocity S-wave (km/s) = -0.83514 3.46666 2.37910
# Velocity P-wave (km/s) = 3.72353 5.87758 4.91989
#
# Compressibility (1/GPa) = 0.03535911
#
# Stress axis : x y z
#
# Youngs Moduli (GPa) = 122.11052 71.64858 47.12352
#
# Poissons Ratio (x) = 0.21983 -0.08395
# Poissons Ratio (y) = 0.37465 0.12806
# Poissons Ratio (z) = -0.21755 0.19470
#
# Static dielectric constant tensor:
#      x y z
#    x 1.778360 0.000000 0.000000 
#    y 0.000000 1.719540 0.000000 
#    z 0.000000 0.000000 1.658990 
# 
# From -- ./inp_files/41334.got.cif
#   From: 2010.05.17/outbox.cif.g08.bks.cpg/sg65_21_cif.got.tgz:41334.got - 2010.06.03 17:01:31.
