data_PCOD9487759
_publ_section_title
;
Structure prediction by ZEFSAII (Michael W. Deem and Ramdas Pophale) SiO2 
 PCOD9487759
Probable space group: C M M M
;
_chemical_formula_sum "Si O2"
_cell_formula_units_Z 112
_cell_length_a 29.323972
_cell_length_b 14.246798
_cell_length_c 15.209888
_cell_angle_alpha 90.000000
_cell_angle_beta 90.000000
_cell_angle_gamma 90.000000
_cell_volume 6354.276062
_symmetry_space_group_name_H-M "C M M M"
_symmetry_group_IT_number 65
_symmetry_cell_setting 'orthorhombic'
loop_
_space_group_symop_operation_xyz
x,y,z
-x,-y,z
x,-y,-z
-x,y,-z
-x,-y,-z
x,y,-z
-x,y,z
x,-y,z
1/2+x,1/2+y,z
1/2-x,1/2-y,z
1/2+x,1/2-y,-z
1/2-x,1/2+y,-z
1/2-x,1/2-y,-z
1/2+x,1/2+y,-z
1/2-x,1/2+y,z
1/2+x,1/2-y,z
loop_
_atom_site_type_symbol
_atom_site_label
_atom_site_fract_x
_atom_site_fract_y
_atom_site_fract_z
Si Si1 0.323887 0.895050 0.603053
Si Si2 0.243794 0.391987 0.839351
Si Si3 0.948455 0.889001 0.284100
Si Si4 0.871290 0.785621 0.395948
Si Si5 0.097119 0.108526 0.897737
Si Si6 0.181852 0.241280 0.098435
Si Si7 0.722508 0.608320 0.641590
O O1 0.334005 0.903520 0.500000
O O2 0.359447 0.819250 0.637412
O O3 0.271858 0.858201 0.608039
O O4 0.324671 0.000000 0.643281
O O5 0.234714 0.500000 0.861740
O O6 0.199240 0.325416 0.839519
O O7 0.278604 0.337671 0.902153
O O8 0.269789 0.388918 0.746273
O O9 0.910334 0.834108 0.338873
O O10 0.939558 0.879668 0.179314
O O11 0.000000 0.859574 0.305436
O O12 0.943818 0.000000 0.304096
O O13 0.882905 0.784895 0.500000
O O14 0.822985 0.839308 0.385746
O O15 0.136591 0.183953 0.878681
O O16 0.114347 0.000000 0.890294
O O17 0.082413 0.119895 0.000000
O O18 0.176718 0.280179 0.000000
O O19 0.718183 0.500000 0.613279
#
# Coordination Sequence:
#
# PCOD9487759 Si02
#       7
#    16  16  16  16  16  16  16
#     4   9  19  34  50  73 104 135 172 217 257 296
#     4  10  20  30  42  64  97 137 173 210 250 291
#     4  10  22  38  56  80 107 135 170 215 266 320
#     4  11  22  34  54  78 104 144 181 214 263 315
#     4   9  18  34  56  79 102 130 167 212 261 311
#     4  10  20  30  45  68  93 131 173 211 256 304
#     4  10  20  31  47  73 103 138 177 213 252 300
#
# _framework density 17.625926
#
# number of rings (size 3 to 8) (size 9 to 14) (size 15 to 20)
#    0.000    2.143    0.000    3.429    6.000    7.429 
#    0.000    2.143    0.000    0.429    0.000    2.000 
#    0.000    0.000    0.000    4.429    0.000    0.286 
#
# Total GULP energy -312178.392766 kJ/mol
# GULP energy per Si atom -5574.614157 kJ/mol
# Density = 1.758581 g / cm^3
# Si number density = 17.625926 Si / 1000 Ang^3
#
#
#
# Elastic Constant Matrix: (Units=GPa)
#
#
# Indices 1 2 3 4 5 6 
#
# 1 97.2567 54.1230 32.2542 0.0000 0.0000 0.0000
# 2 54.1230 94.8530 26.7922 0.0000 0.0000 0.0000
# 3 32.2542 26.7922 57.6182 0.0000 0.0000 0.0000
# 4 0.0000 0.0000 0.0000 12.5462 0.0000 0.0000
# 5 0.0000 0.0000 0.0000 0.0000 18.0802 0.0000
# 6 0.0000 0.0000 0.0000 0.0000 0.0000 22.4305
#
#
#
# Elastic Compliance Matrix: (Units=1/GPa)
#
#
# Indices 1 2 3 4 5 6 
#
# 1 0.016495 -0.007833 -0.005592 0.000000 0.000000 0.000000
# 2 -0.007833 0.015856 -0.002988 0.000000 0.000000 0.000000
# 3 -0.005592 -0.002988 0.021875 0.000000 0.000000 0.000000
# 4 0.000000 0.000000 0.000000 0.079705 0.000000 0.000000
# 5 0.000000 0.000000 0.000000 0.000000 0.055309 0.000000
# 6 0.000000 0.000000 0.000000 0.000000 0.000000 0.044582
#
#
# Mechanical properties :
#
#
# Convention : Reuss Voigt Hill
#
# Bulk Modulus (GPa) = 46.72640 52.89632 49.81136
# Shear Modulus (GPa) = 18.26262 19.71527 18.98894
#
# Velocity S-wave (km/s) = 3.22238 3.34808 3.28583
# Velocity P-wave (km/s) = 6.35709 6.70983 6.53584
#
# Compressibility (1/GPa) = 0.02140118
#
# Stress axis : x y z
#
# Youngs Moduli (GPa) = 60.62265 63.06717 45.71346
#
# Poissons Ratio (x) = 0.49400 0.25562
# Poissons Ratio (y) = 0.47485 0.13660
# Poissons Ratio (z) = 0.33899 0.18846
#
# Static dielectric constant tensor:
#      x y z
#    x 1.576610 0.000000 0.000000 
#    y 0.000000 1.643150 0.000000 
#    z 0.000000 0.000000 1.667920 
# 
# From -- ./inp_files/41325.got.cif
#   From: 2010.05.17/outbox.cif.g08.bks.cpg/sg65_21_cif.got.tgz:41325.got - 2010.06.03 17:01:31.
