data_PCOD9487408
_publ_section_title
;
Structure prediction by ZEFSAII (Michael W. Deem and Ramdas Pophale) SiO2 
 PCOD9487408
Probable space group: C M M M
;
_chemical_formula_sum "Si O2"
_cell_formula_units_Z 82
_cell_length_a 20.173317
_cell_length_b 25.612884
_cell_length_c 7.542815
_cell_angle_alpha 90.000000
_cell_angle_beta 90.000000
_cell_angle_gamma 90.000000
_cell_volume 3897.348586
_symmetry_space_group_name_H-M "C M M M"
_symmetry_group_IT_number 65
_symmetry_cell_setting 'orthorhombic'
loop_
_space_group_symop_operation_xyz
x,y,z
-x,-y,z
x,-y,-z
-x,y,-z
-x,-y,-z
x,y,-z
-x,y,z
x,-y,z
1/2+x,1/2+y,z
1/2-x,1/2-y,z
1/2+x,1/2-y,-z
1/2-x,1/2+y,-z
1/2-x,1/2-y,-z
1/2+x,1/2+y,-z
1/2-x,1/2+y,z
1/2+x,1/2-y,z
loop_
_atom_site_type_symbol
_atom_site_label
_atom_site_fract_x
_atom_site_fract_y
_atom_site_fract_z
Si Si1 0.663911 0.097885 0.794589
Si Si2 0.076911 0.500000 0.217466
Si Si3 0.114272 0.000000 0.796853
Si Si4 0.500000 0.500000 0.500000
Si Si5 0.574875 0.315520 0.211249
Si Si6 0.424955 0.805363 0.287863
Si Si7 0.689064 0.608641 0.789485
O O1 0.617591 0.051339 0.722885
O O2 0.624411 0.151939 0.786707
O O3 0.736681 0.107044 0.714415
O O4 0.675259 0.082984 0.000000
O O5 0.000000 0.500000 0.275424
O O6 0.074690 0.500000 0.000000
O O7 0.158636 0.051313 0.774794
O O8 0.057126 0.000000 0.654599
O O9 0.088847 0.000000 0.000000
O O10 0.500000 0.326191 0.281856
O O11 0.589767 0.254538 0.240002
O O12 0.634058 0.351239 0.283730
O O13 0.571334 0.324929 0.000000
O O14 0.423655 0.809536 0.500000
O O15 0.500000 0.816256 0.225810
O O16 0.695217 0.621786 0.000000
#
# Coordination Sequence:
#
# PCOD9487408 Si02
#       7
#    16   8   8   2  16  16  16
#     4  10  19  34  58  84 111 145 187 232 285 351
#     4   9  17  29  51  84 110 135 177 227 275 327
#     4  10  22  43  63  88 129 158 195 258 302 352
#     4  12  26  40  60 102 112 164 220 236 304 372
#     4   9  18  34  56  80 104 139 191 236 281 344
#     4  10  21  37  53  77 110 149 187 232 291 342
#     4   9  19  36  60  85 113 152 187 234 301 350
#
# _framework density 21.039946
#
# number of rings (size 3 to 8) (size 9 to 14) (size 15 to 20)
#    0.000    2.439    0.000    1.902    1.366    5.073 
#    3.512    4.390    0.000    1.756    0.000    0.000 
#    0.000    0.000    0.000    0.000    0.000    0.000 
#
# Total GULP energy -228618.652517 kJ/mol
# GULP energy per Si atom -5576.064696 kJ/mol
# Density = 2.099206 g / cm^3
# Si number density = 21.039946 Si / 1000 Ang^3
#
#
#
# Elastic Constant Matrix: (Units=GPa)
#
#
# Indices 1 2 3 4 5 6 
#
# 1 213.3038 118.6597 28.8725 0.0000 0.0000 0.0000
# 2 118.6597 111.1593 7.9040 0.0000 0.0000 0.0000
# 3 28.8725 7.9040 63.8080 0.0000 0.0000 0.0000
# 4 0.0000 0.0000 0.0000 -66.4942 0.0000 0.0000
# 5 0.0000 0.0000 0.0000 0.0000 3.6366 0.0000
# 6 0.0000 0.0000 0.0000 0.0000 0.0000 23.0941
#
#
#
# Elastic Compliance Matrix: (Units=1/GPa)
#
#
# Indices 1 2 3 4 5 6 
#
# 1 0.012495 -0.013051 -0.004037 0.000000 0.000000 0.000000
# 2 -0.013051 0.022707 0.003092 0.000000 0.000000 0.000000
# 3 -0.004037 0.003092 0.017116 0.000000 0.000000 0.000000
# 4 0.000000 0.000000 0.000000 -0.015039 0.000000 0.000000
# 5 0.000000 0.000000 0.000000 0.000000 0.274984 0.000000
# 6 0.000000 0.000000 0.000000 0.000000 0.000000 0.043301
#
#
# Mechanical properties :
#
#
# Convention : Reuss Voigt Hill
#
# Bulk Modulus (GPa) = 41.10617 77.68262 59.39440
# Shear Modulus (GPa) = 12.76607 7.56962 10.16784
#
# Velocity S-wave (km/s) = 2.46591 1.89883 2.20071
# Velocity P-wave (km/s) = 5.26187 6.46599 5.89476
#
# Compressibility (1/GPa) = 0.02432725
#
# Stress axis : x y z
#
# Youngs Moduli (GPa) = 80.03484 44.03858 58.42590
#
# Poissons Ratio (x) = 0.57473 0.23587
# Poissons Ratio (y) = 1.04450 -0.18068
# Poissons Ratio (z) = 0.32311 -0.13619
#
# Static dielectric constant tensor:
#      x y z
#    x 1.753500 0.000000 0.000000 
#    y 0.000000 1.705850 0.000000 
#    z 0.000000 0.000000 1.779960 
# 
# From -- ./inp_files/11649.got.cif
#   From: 2010.05.17/outbox.cif.g08.bks.cpg/sg65_6_cif.got.tgz:11649.got - 2010.06.03 17:01:31.
