data_PCOD9487999
_publ_section_title
;
Structure prediction by ZEFSAII (Michael W. Deem and Ramdas Pophale) SiO2 
 PCOD9487999
Probable space group: C M M M
;
_chemical_formula_sum "Si O2"
_cell_formula_units_Z 88
_cell_length_a 28.139172
_cell_length_b 8.301809
_cell_length_c 22.297098
_cell_angle_alpha 90.000000
_cell_angle_beta 90.000000
_cell_angle_gamma 90.000000
_cell_volume 5208.736575
_symmetry_space_group_name_H-M "C M M M"
_symmetry_group_IT_number 65
_symmetry_cell_setting 'orthorhombic'
loop_
_space_group_symop_operation_xyz
x,y,z
-x,-y,z
x,-y,-z
-x,y,-z
-x,-y,-z
x,y,-z
-x,y,z
x,-y,z
1/2+x,1/2+y,z
1/2-x,1/2-y,z
1/2+x,1/2-y,-z
1/2-x,1/2+y,-z
1/2-x,1/2-y,-z
1/2+x,1/2+y,-z
1/2-x,1/2+y,z
1/2+x,1/2-y,z
loop_
_atom_site_type_symbol
_atom_site_label
_atom_site_fract_x
_atom_site_fract_y
_atom_site_fract_z
Si Si1 0.398605 0.807106 0.752148
Si Si2 0.302240 0.193840 0.813633
Si Si3 0.053459 0.807798 0.871786
Si Si4 0.442232 0.687595 0.500000
Si Si5 0.055274 0.195351 0.630760
Si Si6 0.351797 0.193504 0.933396
O O1 0.345050 0.755703 0.769715
O O2 0.432741 0.734105 0.803266
O O3 0.414400 0.755235 0.686430
O O4 0.401249 0.000000 0.757486
O O5 0.250000 0.250000 0.797063
O O6 0.317501 0.253200 0.880170
O O7 0.302298 0.000000 0.814892
O O8 0.094601 0.733423 0.912906
O O9 0.000000 0.750754 0.885051
O O10 0.054766 0.000000 0.878991
O O11 0.427483 0.500000 0.500000
O O12 0.500000 0.688638 0.500000
O O13 0.428265 0.755796 0.435108
O O14 0.000000 0.243111 0.639248
O O15 0.056194 0.000000 0.629464
O O16 0.347431 0.000000 0.934836
O O17 0.341852 0.256874 0.000000
#
# Coordination Sequence:
#
# PCOD9487999 Si02
#       6
#    16  16  16   8  16  16
#     4  10  20  32  46  67  94 121 151 188 230 274
#     4   9  19  34  50  68  89 113 144 185 231 277
#     4  10  20  32  46  66  92 121 155 192 223 256
#     4   7  12  24  41  63  94 129 160 189 218 251
#     4   9  16  27  45  69  97 129 162 190 217 255
#     4   9  19  35  51  68  92 119 146 178 222 278
#
# _framework density 16.894691999999999
#
# number of rings (size 3 to 8) (size 9 to 14) (size 15 to 20)
#    0.000    2.818    0.000    3.818    0.000    8.727 
#    0.000    2.273    0.000    1.636    0.000    0.636 
#    0.000    0.000    0.000    0.000    0.000    0.000 
#
# Total GULP energy -245189.699234 kJ/mol
# GULP energy per Si atom -5572.493164 kJ/mol
# Density = 1.685624 g / cm^3
# Si number density = 16.894692 Si / 1000 Ang^3
#
#
#
# Elastic Constant Matrix: (Units=GPa)
#
#
# Indices 1 2 3 4 5 6 
#
# 1 68.2416 1.9618 22.4057 0.0000 0.0000 0.0000
# 2 1.9618 5.4319 4.5472 0.0000 0.0000 0.0000
# 3 22.4057 4.5472 111.7707 0.0000 0.0000 0.0000
# 4 0.0000 0.0000 0.0000 33.8569 0.0000 0.0000
# 5 0.0000 0.0000 0.0000 0.0000 8.8108 0.0000
# 6 0.0000 0.0000 0.0000 0.0000 0.0000 21.6392
#
#
#
# Elastic Compliance Matrix: (Units=1/GPa)
#
#
# Indices 1 2 3 4 5 6 
#
# 1 0.015738 -0.003150 -0.003027 0.000000 0.000000 0.000000
# 2 -0.003150 0.191219 -0.007148 0.000000 0.000000 0.000000
# 3 -0.003027 -0.007148 0.009844 0.000000 0.000000 0.000000
# 4 0.000000 0.000000 0.000000 0.029536 0.000000 0.000000
# 5 0.000000 0.000000 0.000000 0.000000 0.113497 0.000000
# 6 0.000000 0.000000 0.000000 0.000000 0.000000 0.046212
#
#
# Mechanical properties :
#
#
# Convention : Reuss Voigt Hill
#
# Bulk Modulus (GPa) = 5.25896 27.03041 16.14469
# Shear Modulus (GPa) = 10.07902 23.29670 16.68786
#
# Velocity S-wave (km/s) = 2.44515 3.71743 3.14627
# Velocity P-wave (km/s) = 3.33035 5.87025 4.77237
#
# Compressibility (1/GPa) = 0.19015155
#
# Stress axis : x y z
#
# Youngs Moduli (GPa) = 63.53992 5.22961 101.58029
#
# Poissons Ratio (x) = 0.01647 0.30746
# Poissons Ratio (y) = 0.20017 0.72609
# Poissons Ratio (z) = 0.19232 0.03738
#
# Static dielectric constant tensor:
#      x y z
#    x 1.552870 0.000000 0.000000 
#    y 0.000000 1.592900 0.000000 
#    z 0.000000 0.000000 1.592600 
# 
# From -- ./inp_files/60265.got.cif
#   From: 2010.05.17/outbox.cif.g08.bks.cpg/sg65_31_cif.got.tgz:60265.got - 2010.06.03 17:01:31.
