data_PCOD9487292
_publ_section_title
;
Structure prediction by ZEFSAII (Michael W. Deem and Ramdas Pophale) SiO2 
 PCOD9487292
Probable space group: C M M M
;
_chemical_formula_sum "Si O2"
_cell_formula_units_Z 104
_cell_length_a 21.269544
_cell_length_b 30.402515
_cell_length_c 7.732239
_cell_angle_alpha 90.000000
_cell_angle_beta 90.000000
_cell_angle_gamma 90.000000
_cell_volume 5000.034028
_symmetry_space_group_name_H-M "C M M M"
_symmetry_group_IT_number 65
_symmetry_cell_setting 'orthorhombic'
loop_
_space_group_symop_operation_xyz
x,y,z
-x,-y,z
x,-y,-z
-x,y,-z
-x,-y,-z
x,y,-z
-x,y,z
x,-y,z
1/2+x,1/2+y,z
1/2-x,1/2-y,z
1/2+x,1/2-y,-z
1/2-x,1/2+y,-z
1/2-x,1/2-y,-z
1/2+x,1/2+y,-z
1/2-x,1/2+y,z
1/2+x,1/2-y,z
loop_
_atom_site_type_symbol
_atom_site_label
_atom_site_fract_x
_atom_site_fract_y
_atom_site_fract_z
Si Si1 0.680745 0.203915 0.206468
Si Si2 0.500000 0.550473 0.704669
Si Si3 0.876566 0.107140 0.208311
Si Si4 0.115076 0.548702 0.703271
Si Si5 0.677173 0.696858 0.788467
Si Si6 0.758581 0.050531 0.208429
Si Si7 0.067888 0.639782 0.291415
O O1 0.664468 0.253173 0.270049
O O2 0.750101 0.188720 0.265513
O O3 0.626025 0.170146 0.244828
O O4 0.686521 0.207482 0.000000
O O5 0.500000 0.500000 0.777681
O O6 0.500000 0.545936 0.500000
O O7 0.561597 0.579111 0.750099
O O8 0.868809 0.157667 0.269278
O O9 0.814142 0.081728 0.270296
O O10 0.873641 0.108105 0.000000
O O11 0.099487 0.546006 0.500000
O O12 0.104339 0.500000 0.779069
O O13 0.189356 0.558874 0.718984
O O14 0.078687 0.590337 0.776468
O O15 0.675125 0.696688 0.000000
O O16 0.775120 0.000000 0.248745
O O17 0.753764 0.054650 0.000000
O O18 0.067113 0.637522 0.500000
O O19 0.000000 0.656776 0.232606
#
# Coordination Sequence:
#
# PCOD9487292 Si02
#       7
#    16   8  16  16  16  16  16
#     4   9  17  34  58  81 105 133 167 208 257 311
#     4  11  25  41  53  71 105 145 183 223 266 313
#     4  10  19  34  56  79 102 134 174 214 258 313
#     4   9  18  32  50  72  98 132 173 213 253 298
#     4   8  16  32  57  85 106 126 162 215 263 303
#     4   9  17  29  49  78 105 127 158 206 261 309
#     4  10  21  35  49  70 103 139 173 209 249 294
#
# _framework density 20.799859000000001
#
# number of rings (size 3 to 8) (size 9 to 14) (size 15 to 20)
#    0.000    2.692    0.000    2.538    0.000    4.308 
#    1.385    6.154    0.000    0.000    0.000    3.231 
#    0.000    0.000    0.000    0.000    0.000    0.000 
#
# Total GULP energy -290035.292798 kJ/mol
# GULP energy per Si atom -5577.601785 kJ/mol
# Density = 2.075252 g / cm^3
# Si number density = 20.799859 Si / 1000 Ang^3
#
#
#
# Elastic Constant Matrix: (Units=GPa)
#
#
# Indices 1 2 3 4 5 6 
#
# 1 71.0170 79.7874 -1.5894 0.0000 0.0000 0.0000
# 2 79.7874 139.6437 8.7901 0.0000 0.0000 0.0000
# 3 -1.5894 8.7901 26.8866 0.0000 0.0000 0.0000
# 4 0.0000 0.0000 0.0000 -19.8524 0.0000 0.0000
# 5 0.0000 0.0000 0.0000 0.0000 17.0424 0.0000
# 6 0.0000 0.0000 0.0000 0.0000 0.0000 4.9576
#
#
#
# Elastic Compliance Matrix: (Units=1/GPa)
#
#
# Indices 1 2 3 4 5 6 
#
# 1 0.042071 -0.024703 0.010563 0.000000 0.000000 0.000000
# 2 -0.024703 0.021816 -0.008593 0.000000 0.000000 0.000000
# 3 0.010563 -0.008593 0.040627 0.000000 0.000000 0.000000
# 4 0.000000 0.000000 0.000000 -0.050372 0.000000 0.000000
# 5 0.000000 0.000000 0.000000 0.000000 0.058677 0.000000
# 6 0.000000 0.000000 0.000000 0.000000 0.000000 0.201710
#
#
# Mechanical properties :
#
#
# Convention : Reuss Voigt Hill
#
# Bulk Modulus (GPa) = 16.93497 45.72483 31.32990
# Shear Modulus (GPa) = 13.16905 10.46678 11.81792
#
# Velocity S-wave (km/s) = 2.51894 2.24568 2.38622
# Velocity P-wave (km/s) = 4.07672 5.36237 4.76312
#
# Compressibility (1/GPa) = 0.05904940
#
# Stress axis : x y z
#
# Youngs Moduli (GPa) = 23.76936 45.83747 24.61422
#
# Poissons Ratio (x) = 1.13231 -0.26000
# Poissons Ratio (y) = 0.58717 0.21150
# Poissons Ratio (z) = -0.25108 0.39387
#
# Static dielectric constant tensor:
#      x y z
#    x 1.719050 0.000000 0.000000 
#    y 0.000000 1.772460 0.000000 
#    z 0.000000 0.000000 1.777680 
# 
# From -- ./inp_files/12795.got.cif
#   From: 2010.05.17/outbox.cif.g08.bks.cpg/sg65_7_cif.got.tgz:12795.got - 2010.06.03 17:01:31.
