data_PCOD9487746
_publ_section_title
;
Structure prediction by ZEFSAII (Michael W. Deem and Ramdas Pophale) SiO2 
 PCOD9487746
Probable space group: C M M M
;
_chemical_formula_sum "Si O2"
_cell_formula_units_Z 88
_cell_length_a 7.589687
_cell_length_b 33.180650
_cell_length_c 17.359205
_cell_angle_alpha 90.000000
_cell_angle_beta 90.000000
_cell_angle_gamma 90.000000
_cell_volume 4371.581579
_symmetry_space_group_name_H-M "C M M M"
_symmetry_group_IT_number 65
_symmetry_cell_setting 'orthorhombic'
loop_
_space_group_symop_operation_xyz
x,y,z
-x,-y,z
x,-y,-z
-x,y,-z
-x,-y,-z
x,y,-z
-x,y,z
x,-y,z
1/2+x,1/2+y,z
1/2-x,1/2-y,z
1/2+x,1/2-y,-z
1/2-x,1/2+y,-z
1/2-x,1/2-y,-z
1/2+x,1/2+y,-z
1/2-x,1/2+y,z
1/2+x,1/2-y,z
loop_
_atom_site_type_symbol
_atom_site_label
_atom_site_fract_x
_atom_site_fract_y
_atom_site_fract_z
Si Si1 0.288109 0.795354 0.911904
Si Si2 0.789255 0.633253 0.801115
Si Si3 0.210194 0.703925 0.500000
Si Si4 0.285870 0.146124 0.629024
Si Si5 0.706264 0.557550 0.583842
Si Si6 0.712154 0.456189 0.757716
O O1 0.500000 0.798360 0.914674
O O2 0.250000 0.750000 0.881148
O O3 0.222830 0.834044 0.863187
O O4 0.221059 0.796917 0.000000
O O5 0.722720 0.645971 0.716603
O O6 0.757683 0.584811 0.803462
O O7 0.000000 0.637378 0.801785
O O8 0.250000 0.750000 0.500000
O O9 0.276336 0.682715 0.422870
O O10 0.000000 0.697953 0.500000
O O11 0.500000 0.145009 0.631090
O O12 0.223234 0.105555 0.588348
O O13 0.779976 0.544855 0.500000
O O14 0.500000 0.546259 0.583640
O O15 0.778591 0.545464 0.668319
O O16 0.500000 0.455932 0.753284
O O17 0.767223 0.500000 0.789877
#
# Coordination Sequence:
#
# PCOD9487746 Si02
#       6
#    16  16   8  16  16  16
#     4   9  18  33  53  78 105 128 153 191 239 290
#     4   9  18  32  51  72  95 126 161 196 237 285
#     4  10  20  30  40  56  81 114 149 189 232 271
#     4   9  17  30  44  59  83 117 154 190 230 273
#     4   9  16  26  43  64  85 114 153 195 238 280
#     4   9  18  31  46  68  98 129 162 201 243 285
#
# _framework density 20.130015
#
# number of rings (size 3 to 8) (size 9 to 14) (size 15 to 20)
#    0.000    2.909    0.909    0.000    0.000    2.909 
#    0.000    1.818    0.000    0.545    0.000    8.909 
#    0.000    0.000    0.000    0.000    0.000    0.000 
#
# Total GULP energy -245018.646360 kJ/mol
# GULP energy per Si atom -5568.605599 kJ/mol
# Density = 2.008420 g / cm^3
# Si number density = 20.130015 Si / 1000 Ang^3
#
#
#
# Elastic Constant Matrix: (Units=GPa)
#
#
# Indices 1 2 3 4 5 6 
#
# 1 44.2451 -1.3475 7.1266 0.0000 0.0000 0.0000
# 2 -1.3475 206.7837 79.3663 0.0000 0.0000 0.0000
# 3 7.1266 79.3663 82.7027 0.0000 0.0000 0.0000
# 4 0.0000 0.0000 0.0000 19.0076 0.0000 0.0000
# 5 0.0000 0.0000 0.0000 0.0000 5.8085 0.0000
# 6 0.0000 0.0000 0.0000 0.0000 0.0000 1.2186
#
#
#
# Elastic Compliance Matrix: (Units=1/GPa)
#
#
# Indices 1 2 3 4 5 6 
#
# 1 0.023192 0.001454 -0.003393 0.000000 0.000000 0.000000
# 2 0.001454 0.007747 -0.007560 0.000000 0.000000 0.000000
# 3 -0.003393 -0.007560 0.019639 0.000000 0.000000 0.000000
# 4 0.000000 0.000000 0.000000 0.052611 0.000000 0.000000
# 5 0.000000 0.000000 0.000000 0.000000 0.172161 0.000000
# 6 0.000000 0.000000 0.000000 0.000000 0.000000 0.820640
#
#
# Mechanical properties :
#
#
# Convention : Reuss Voigt Hill
#
# Bulk Modulus (GPa) = 31.66688 56.00246 43.83467
# Shear Modulus (GPa) = 4.44241 21.77934 13.11087
#
# Velocity S-wave (km/s) = 1.48716 3.29284 2.55485
# Velocity P-wave (km/s) = 4.32599 6.50676 5.52504
#
# Compressibility (1/GPa) = 0.03157874
#
# Stress axis : x y z
#
# Youngs Moduli (GPa) = 43.11790 129.08315 50.92007
#
# Poissons Ratio (x) = -0.18763 0.17279
# Poissons Ratio (y) = -0.06267 0.38494
# Poissons Ratio (z) = 0.14632 0.97583
#
# Static dielectric constant tensor:
#      x y z
#    x 1.767940 0.000000 0.000000 
#    y 0.000000 1.721310 0.000000 
#    z 0.000000 0.000000 1.720170 
# 
# From -- ./inp_files/50429.got.cif
#   From: 2010.05.17/outbox.cif.g08.bks.cpg/sg65_26_cif.got.tgz:50429.got - 2010.06.03 17:01:31.
