data_PCOD9487158
_publ_section_title
;
Structure prediction by ZEFSAII (Michael W. Deem and Ramdas Pophale) SiO2 
 PCOD9487158
Probable space group: C M M M
;
_chemical_formula_sum "Si O2"
_cell_formula_units_Z 64
_cell_length_a 28.639857
_cell_length_b 13.802621
_cell_length_c 8.040990
_cell_angle_alpha 90.000000
_cell_angle_beta 90.000000
_cell_angle_gamma 90.000000
_cell_volume 3178.644289
_symmetry_space_group_name_H-M "C M M M"
_symmetry_group_IT_number 65
_symmetry_cell_setting 'orthorhombic'
loop_
_space_group_symop_operation_xyz
x,y,z
-x,-y,z
x,-y,-z
-x,y,-z
-x,-y,-z
x,y,-z
-x,y,z
x,-y,z
1/2+x,1/2+y,z
1/2-x,1/2-y,z
1/2+x,1/2-y,-z
1/2-x,1/2+y,-z
1/2-x,1/2-y,-z
1/2+x,1/2+y,-z
1/2-x,1/2+y,z
1/2+x,1/2-y,z
loop_
_atom_site_type_symbol
_atom_site_label
_atom_site_fract_x
_atom_site_fract_y
_atom_site_fract_z
Si Si1 0.357419 0.500000 0.695918
Si Si2 0.749283 0.000000 0.705442
Si Si3 0.444930 0.892625 0.797741
Si Si4 0.298095 0.807346 0.690090
Si Si5 0.888101 0.207836 0.809558
O O1 0.351368 0.500000 0.500000
O O2 0.303471 0.500000 0.763272
O O3 0.384364 0.599094 0.739605
O O4 0.718880 0.091069 0.759153
O O5 0.750445 0.000000 0.500000
O O6 0.500000 0.887379 0.760760
O O7 0.419528 0.795253 0.734963
O O8 0.427784 0.000000 0.740845
O O9 0.440001 0.892866 0.000000
O O10 0.316264 0.817085 0.500000
O O11 0.250000 0.750000 0.679380
O O12 0.336084 0.750814 0.794173
O O13 0.902711 0.196996 0.000000
#
# Coordination Sequence:
#
# PCOD9487158 Si02
#       5
#     8   8  16  16  16
#     4  11  21  39  58  72 105 155 193 216 261 333
#     4   9  18  33  51  70  97 144 196 223 243 309
#     4   8  16  34  58  81 109 144 176 213 272 340
#     4  10  19  34  53  73 104 149 192 218 254 322
#     4  11  22  34  54  86 113 135 179 237 282 315
#
# _framework density 20.134369
#
# number of rings (size 3 to 8) (size 9 to 14) (size 15 to 20)
#    0.000    2.250    2.500    1.875    1.750    0.500 
#    0.000    0.625    0.000    6.750    0.000    7.000 
#    0.000    0.000    0.000    0.000    0.000    0.000 
#
# Total GULP energy -178261.022745 kJ/mol
# GULP energy per Si atom -5570.656961 kJ/mol
# Density = 2.008854 g / cm^3
# Si number density = 20.134369 Si / 1000 Ang^3
#
#
#
# Elastic Constant Matrix: (Units=GPa)
#
#
# Indices 1 2 3 4 5 6 
#
# 1 51.0872 54.3744 -0.6972 0.0000 0.0000 0.0000
# 2 54.3744 224.9754 16.2673 0.0000 0.0000 0.0000
# 3 -0.6972 16.2673 16.3737 0.0000 0.0000 0.0000
# 4 0.0000 0.0000 0.0000 19.4678 0.0000 0.0000
# 5 0.0000 0.0000 0.0000 0.0000 -26.5980 0.0000
# 6 0.0000 0.0000 0.0000 0.0000 0.0000 28.7871
#
#
#
# Elastic Compliance Matrix: (Units=1/GPa)
#
#
# Indices 1 2 3 4 5 6 
#
# 1 0.027371 -0.007218 0.008337 0.000000 0.000000 0.000000
# 2 -0.007218 0.006692 -0.006956 0.000000 0.000000 0.000000
# 3 0.008337 -0.006956 0.068340 0.000000 0.000000 0.000000
# 4 0.000000 0.000000 0.000000 0.051367 0.000000 0.000000
# 5 0.000000 0.000000 0.000000 0.000000 -0.037597 0.000000
# 6 0.000000 0.000000 0.000000 0.000000 0.000000 0.034738
#
#
# Mechanical properties :
#
#
# Convention : Reuss Voigt Hill
#
# Bulk Modulus (GPa) = 11.02202 48.03615 29.52909
# Shear Modulus (GPa) = 25.92975 19.16417 22.54696
#
# Velocity S-wave (km/s) = 3.59254 3.08850 3.35001
# Velocity P-wave (km/s) = 4.76388 6.05211 5.44621
#
# Compressibility (1/GPa) = 0.09072745
#
# Stress axis : x y z
#
# Youngs Moduli (GPa) = 36.53553 149.42206 14.63274
#
# Poissons Ratio (x) = 1.07853 -0.12199
# Poissons Ratio (y) = 0.26371 0.10179
# Poissons Ratio (z) = -0.30458 1.03943
#
# Static dielectric constant tensor:
#      x y z
#    x 1.696820 0.000000 0.000000 
#    y 0.000000 1.719750 0.000000 
#    z 0.000000 0.000000 1.753050 
# 
# From -- ./inp_files/15663.got.cif
#   From: 2010.05.17/outbox.cif.g08.bks.cpg/sg65_8_cif.got.tgz:15663.got - 2010.06.03 17:01:31.
