data_PCOD9487827
_publ_section_title
;
Structure prediction by ZEFSAII (Michael W. Deem and Ramdas Pophale) SiO2 
 PCOD9487827
Probable space group: C M M M
;
_chemical_formula_sum "Si O2"
_cell_formula_units_Z 88
_cell_length_a 9.181620
_cell_length_b 27.805889
_cell_length_c 22.033464
_cell_angle_alpha 90.000000
_cell_angle_beta 90.000000
_cell_angle_gamma 90.000000
_cell_volume 5625.211807
_symmetry_space_group_name_H-M "C M M M"
_symmetry_group_IT_number 65
_symmetry_cell_setting 'orthorhombic'
loop_
_space_group_symop_operation_xyz
x,y,z
-x,-y,z
x,-y,-z
-x,y,-z
-x,-y,-z
x,y,-z
-x,y,z
x,-y,z
1/2+x,1/2+y,z
1/2-x,1/2-y,z
1/2+x,1/2-y,-z
1/2-x,1/2+y,-z
1/2-x,1/2-y,-z
1/2+x,1/2+y,-z
1/2-x,1/2+y,z
1/2+x,1/2-y,z
loop_
_atom_site_type_symbol
_atom_site_label
_atom_site_fract_x
_atom_site_fract_y
_atom_site_fract_z
Si Si1 0.826065 0.943224 0.622829
Si Si2 0.168041 0.558483 0.500000
Si Si3 0.174866 0.142600 0.068826
Si Si4 0.826373 0.799705 0.812585
Si Si5 0.324848 0.399741 0.751748
Si Si6 0.174063 0.555432 0.132866
O O1 0.746918 0.926178 0.561853
O O2 0.785345 0.915003 0.683797
O O3 0.000000 0.939160 0.614351
O O4 0.793345 0.000000 0.631929
O O5 0.174983 0.500000 0.500000
O O6 0.000000 0.572803 0.500000
O O7 0.216047 0.181460 0.120060
O O8 0.253853 0.093128 0.086704
O O9 0.000000 0.135550 0.073908
O O10 0.208820 0.156909 0.000000
O O11 0.750000 0.750000 0.797504
O O12 0.792055 0.844337 0.768156
O O13 0.000000 0.792919 0.811915
O O14 0.500000 0.406490 0.759076
O O15 0.242763 0.431728 0.801662
O O16 0.205092 0.500000 0.117525
O O17 0.000000 0.562017 0.134516
#
# Coordination Sequence:
#
# PCOD9487827 Si02
#       6
#    16   8  16  16  16  16
#     4   9  16  27  45  67  91 122 158 189 215 249
#     4   9  17  27  39  61  96 131 156 181 216 257
#     4   9  19  35  51  66  86 115 152 188 221 267
#     4   9  18  32  49  69  91 113 142 184 232 278
#     4   9  18  32  49  68  90 119 156 192 223 263
#     4  10  20  31  44  66  95 122 148 183 226 269
#
# _framework density 15.643856
#
# number of rings (size 3 to 8) (size 9 to 14) (size 15 to 20)
#    0.000    2.818    0.000    2.455    0.000    8.000 
#    0.000    3.636    0.000    0.000    0.000    0.636 
#    0.000    0.000    0.000    0.000    0.000    0.000 
#
# Total GULP energy -245222.867674 kJ/mol
# GULP energy per Si atom -5573.246993 kJ/mol
# Density = 1.560825 g / cm^3
# Si number density = 15.643856 Si / 1000 Ang^3
#
#
#
# Elastic Constant Matrix: (Units=GPa)
#
#
# Indices 1 2 3 4 5 6 
#
# 1 19.1777 20.8885 25.4483 0.0000 0.0000 0.0000
# 2 20.8885 60.2771 23.9744 0.0000 0.0000 0.0000
# 3 25.4483 23.9744 112.0832 0.0000 0.0000 0.0000
# 4 0.0000 0.0000 0.0000 9.7706 0.0000 0.0000
# 5 0.0000 0.0000 0.0000 0.0000 6.4278 0.0000
# 6 0.0000 0.0000 0.0000 0.0000 0.0000 25.6801
#
#
#
# Elastic Compliance Matrix: (Units=1/GPa)
#
#
# Indices 1 2 3 4 5 6 
#
# 1 0.110203 -0.030864 -0.018420 0.000000 0.000000 0.000000
# 2 -0.030864 0.026776 0.001280 0.000000 0.000000 0.000000
# 3 -0.018420 0.001280 0.012830 0.000000 0.000000 0.000000
# 4 0.000000 0.000000 0.000000 0.102348 0.000000 0.000000
# 5 0.000000 0.000000 0.000000 0.000000 0.155573 0.000000
# 6 0.000000 0.000000 0.000000 0.000000 0.000000 0.038941
#
#
# Mechanical properties :
#
#
# Convention : Reuss Voigt Hill
#
# Bulk Modulus (GPa) = 18.58620 36.90670 27.74645
# Shear Modulus (GPa) = 8.91881 16.45750 12.68815
#
# Velocity S-wave (km/s) = 2.39030 3.24699 2.85101
# Velocity P-wave (km/s) = 4.41867 6.14006 5.34906
#
# Compressibility (1/GPa) = 0.05380335
#
# Stress axis : x y z
#
# Youngs Moduli (GPa) = 9.07413 37.34625 77.94044
#
# Poissons Ratio (x) = 1.15265 1.43565
# Poissons Ratio (y) = 0.28006 -0.09977
# Poissons Ratio (z) = 0.16714 -0.04781
#
# Static dielectric constant tensor:
#      x y z
#    x 1.521920 0.000000 0.000000 
#    y 0.000000 1.498470 0.000000 
#    z 0.000000 0.000000 1.519590 
# 
# From -- ./inp_files/60221.got.cif
#   From: 2010.05.17/outbox.cif.g08.bks.cpg/sg65_31_cif.got.tgz:60221.got - 2010.06.03 17:01:31.
