data_PCOD9487577
_publ_section_title
;
Structure prediction by ZEFSAII (Michael W. Deem and Ramdas Pophale) SiO2 
 PCOD9487577
Probable space group: C M M M
;
_chemical_formula_sum "Si O2"
_cell_formula_units_Z 66
_cell_length_a 8.273336
_cell_length_b 19.429183
_cell_length_c 21.095676
_cell_angle_alpha 90.000000
_cell_angle_beta 90.000000
_cell_angle_gamma 90.000000
_cell_volume 3391.006701
_symmetry_space_group_name_H-M "C M M M"
_symmetry_group_IT_number 65
_symmetry_cell_setting 'orthorhombic'
loop_
_space_group_symop_operation_xyz
x,y,z
-x,-y,z
x,-y,-z
-x,y,-z
-x,-y,-z
x,y,-z
-x,y,z
x,-y,z
1/2+x,1/2+y,z
1/2-x,1/2-y,z
1/2+x,1/2-y,-z
1/2-x,1/2+y,-z
1/2-x,1/2-y,-z
1/2+x,1/2+y,-z
1/2-x,1/2+y,z
1/2+x,1/2-y,z
loop_
_atom_site_type_symbol
_atom_site_label
_atom_site_fract_x
_atom_site_fract_y
_atom_site_fract_z
Si Si1 0.308593 0.577655 0.246554
Si Si2 0.500000 0.500000 0.000000
Si Si3 0.307067 0.171152 0.361798
Si Si4 0.188017 0.673344 0.862672
Si Si5 0.304922 0.170624 0.500000
Si Si6 0.307355 0.108872 0.000000
O O1 0.500000 0.573258 0.253527
O O2 0.240848 0.500000 0.245783
O O3 0.245130 0.622819 0.304718
O O4 0.272787 0.617201 0.181430
O O5 0.650003 0.558714 0.000000
O O6 0.500000 0.173027 0.363319
O O7 0.250000 0.250000 0.352894
O O8 0.248607 0.144248 0.431197
O O9 0.250000 0.750000 0.850474
O O10 0.000000 0.671116 0.846002
O O11 0.206595 0.653339 0.936065
O O12 0.500000 0.166661 0.500000
O O13 0.250000 0.250000 0.500000
O O14 0.500000 0.082445 0.000000
#
# Coordination Sequence:
#
# PCOD9487577 Si02
#       6
#    16   2  16  16   8   8
#     4  11  25  41  59  84 118 158 204 247 302 368
#     4  12  26  40  76  94 140 176 200 262 324 362
#     4  10  19  35  59  86 117 152 194 244 298 356
#     4  11  24  43  67  93 125 159 204 258 306 367
#     4   8  16  30  53  84 113 147 191 239 293 354
#     4  10  26  44  67 102 131 168 218 257 311 378
#
# _framework density 19.463248
#
# number of rings (size 3 to 8) (size 9 to 14) (size 15 to 20)
#    0.000    1.697    0.000    3.455    5.091    2.909 
#    0.000    0.606    0.000    3.636    0.000    0.000 
#    0.000    0.000    0.000    0.000    0.000    0.000 
#
# Total GULP energy -183817.510563 kJ/mol
# GULP energy per Si atom -5570.227593 kJ/mol
# Density = 1.941895 g / cm^3
# Si number density = 19.463248 Si / 1000 Ang^3
#
#
#
# Elastic Constant Matrix: (Units=GPa)
#
#
# Indices 1 2 3 4 5 6 
#
# 1 76.5023 32.3014 14.8348 0.0000 0.0000 0.0000
# 2 32.3014 126.9594 66.9083 0.0000 0.0000 0.0000
# 3 14.8348 66.9083 155.6826 0.0000 0.0000 0.0000
# 4 0.0000 0.0000 0.0000 -33.4614 0.0000 0.0000
# 5 0.0000 0.0000 0.0000 0.0000 -18.1132 0.0000
# 6 0.0000 0.0000 0.0000 0.0000 0.0000 27.8441
#
#
#
# Elastic Compliance Matrix: (Units=1/GPa)
#
#
# Indices 1 2 3 4 5 6 
#
# 1 0.014653 -0.003868 0.000266 0.000000 0.000000 0.000000
# 2 -0.003868 0.011204 -0.004447 0.000000 0.000000 0.000000
# 3 0.000266 -0.004447 0.008309 0.000000 0.000000 0.000000
# 4 0.000000 0.000000 0.000000 -0.029885 0.000000 0.000000
# 5 0.000000 0.000000 0.000000 0.000000 -0.055208 0.000000
# 6 0.000000 0.000000 0.000000 0.000000 0.000000 0.035914
#
#
# Mechanical properties :
#
#
# Convention : Reuss Voigt Hill
#
# Bulk Modulus (GPa) = 55.34412 65.24816 60.29614
# Shear Modulus (GPa) = 703.47480 11.59388 357.53434
#
# Velocity S-wave (km/s) = 19.03214 2.44331 13.56820
# Velocity P-wave (km/s) = 22.61548 6.44641 16.62853
#
# Compressibility (1/GPa) = 0.01806877
#
# Stress axis : x y z
#
# Youngs Moduli (GPa) = 68.24427 89.25258 120.35144
#
# Poissons Ratio (x) = 0.34527 -0.03205
# Poissons Ratio (y) = 0.26400 0.53516
# Poissons Ratio (z) = -0.01817 0.39687
#
# Static dielectric constant tensor:
#      x y z
#    x 1.709380 0.000000 0.000000 
#    y 0.000000 1.664750 0.000000 
#    z 0.000000 0.000000 1.700200 
# 
# From -- ./inp_files/58989.got.cif
#   From: 2010.05.17/outbox.cif.g08.bks.cpg/sg65_30_cif.got.tgz:58989.got - 2010.06.03 17:01:31.
