data_PCOD9487541
_publ_section_title
;
Structure prediction by ZEFSAII (Michael W. Deem and Ramdas Pophale) SiO2 
 PCOD9487541
Probable space group: C M M M
;
_chemical_formula_sum "Si O2"
_cell_formula_units_Z 72
_cell_length_a 28.454993
_cell_length_b 11.910964
_cell_length_c 12.910399
_cell_angle_alpha 90.000000
_cell_angle_beta 90.000000
_cell_angle_gamma 90.000000
_cell_volume 4375.675020
_symmetry_space_group_name_H-M "C M M M"
_symmetry_group_IT_number 65
_symmetry_cell_setting 'orthorhombic'
loop_
_space_group_symop_operation_xyz
x,y,z
-x,-y,z
x,-y,-z
-x,y,-z
-x,-y,-z
x,y,-z
-x,y,z
x,-y,z
1/2+x,1/2+y,z
1/2-x,1/2-y,z
1/2+x,1/2-y,-z
1/2-x,1/2+y,-z
1/2-x,1/2-y,-z
1/2+x,1/2+y,-z
1/2-x,1/2+y,z
1/2+x,1/2-y,z
loop_
_atom_site_type_symbol
_atom_site_label
_atom_site_fract_x
_atom_site_fract_y
_atom_site_fract_z
Si Si1 0.804605 0.264797 0.376088
Si Si2 0.053552 0.500000 0.230934
Si Si3 0.945361 0.738930 0.878862
Si Si4 0.643903 0.000000 0.377513
Si Si5 0.946134 0.863272 0.500000
Si Si6 0.110503 0.133929 0.704889
O O1 0.809185 0.244160 0.500000
O O2 0.750000 0.250000 0.349886
O O3 0.825398 0.388754 0.355198
O O4 0.837326 0.178187 0.315360
O O5 0.058176 0.611083 0.161020
O O6 0.095394 0.500000 0.314137
O O7 0.000000 0.500000 0.274720
O O8 0.912653 0.813614 0.806264
O O9 0.000000 0.773544 0.865546
O O10 0.933755 0.746423 0.000000
O O11 0.633463 0.000000 0.500000
O O12 0.919506 0.827004 0.603966
O O13 0.000000 0.825417 0.500000
O O14 0.946005 0.000000 0.500000
O O15 0.108974 0.000000 0.708781
#
# Coordination Sequence:
#
# PCOD9487541 Si02
#       6
#    16   8  16   8   8  16
#     4  10  21  36  56  81 113 148 184 229 277 328
#     4  10  19  35  58  83 113 149 188 227 274 333
#     4  10  21  37  57  81 110 147 190 232 273 323
#     4  10  20  36  55  86 118 145 184 226 279 336
#     4   9  18  32  49  73 109 147 177 210 261 336
#     4  11  21  34  54  81 111 146 184 224 277 331
#
# _framework density 16.454604
#
# number of rings (size 3 to 8) (size 9 to 14) (size 15 to 20)
#    0.000    1.889    3.333    1.000    1.556    3.333 
#    0.000    1.111    0.000    0.667    0.000    0.000 
#    0.000    0.000    0.000    0.000    0.000    0.000 
#
# Total GULP energy -200934.859588 kJ/mol
# GULP energy per Si atom -5581.523877 kJ/mol
# Density = 1.641715 g / cm^3
# Si number density = 16.454604 Si / 1000 Ang^3
#
#
#
# Elastic Constant Matrix: (Units=GPa)
#
#
# Indices 1 2 3 4 5 6 
#
# 1 158.6164 58.7559 88.9550 0.0000 0.0000 0.0000
# 2 58.7559 84.0304 49.8095 0.0000 0.0000 0.0000
# 3 88.9550 49.8095 97.3359 0.0000 0.0000 0.0000
# 4 0.0000 0.0000 0.0000 13.4836 0.0000 0.0000
# 5 0.0000 0.0000 0.0000 0.0000 17.0631 0.0000
# 6 0.0000 0.0000 0.0000 0.0000 0.0000 16.5679
#
#
#
# Elastic Compliance Matrix: (Units=1/GPa)
#
#
# Indices 1 2 3 4 5 6 
#
# 1 0.013454 -0.003042 -0.010739 0.000000 0.000000 0.000000
# 2 -0.003042 0.017770 -0.006313 0.000000 0.000000 0.000000
# 3 -0.010739 -0.006313 0.023319 0.000000 0.000000 0.000000
# 4 0.000000 0.000000 0.000000 0.074164 0.000000 0.000000
# 5 0.000000 0.000000 0.000000 0.000000 0.058606 0.000000
# 6 0.000000 0.000000 0.000000 0.000000 0.000000 0.060358
#
#
# Mechanical properties :
#
#
# Convention : Reuss Voigt Hill
#
# Bulk Modulus (GPa) = 69.66635 81.66926 75.66781
# Shear Modulus (GPa) = 17.08569 18.92040 18.00305
#
# Velocity S-wave (km/s) = 3.22584 3.39463 3.31131
# Velocity P-wave (km/s) = 7.50368 8.06880 7.79136
#
# Compressibility (1/GPa) = 0.01435413
#
# Stress axis : x y z
#
# Youngs Moduli (GPa) = 74.32848 56.27596 42.88402
#
# Poissons Ratio (x) = 0.17117 0.46053
# Poissons Ratio (y) = 0.22608 0.27075
# Poissons Ratio (z) = 0.79821 0.35529
#
# Static dielectric constant tensor:
#      x y z
#    x 1.539870 0.000000 0.000000 
#    y 0.000000 1.558210 0.000000 
#    z 0.000000 0.000000 1.524930 
# 
# From -- ./inp_files/32009.got.cif
#   From: 2010.05.17/outbox.cif.g08.bks.cpg/sg65_17_cif.got.tgz:32009.got - 2010.06.03 17:01:31.
