data_PCOD9487228
_publ_section_title
;
Structure prediction by ZEFSAII (Michael W. Deem and Ramdas Pophale) SiO2 
 PCOD9487228
Probable space group: C M M M
;
_chemical_formula_sum "Si O2"
_cell_formula_units_Z 64
_cell_length_a 28.764685
_cell_length_b 7.552964
_cell_length_c 13.994555
_cell_angle_alpha 90.000000
_cell_angle_beta 90.000000
_cell_angle_gamma 90.000000
_cell_volume 3040.437851
_symmetry_space_group_name_H-M "C M M M"
_symmetry_group_IT_number 65
_symmetry_cell_setting 'orthorhombic'
loop_
_space_group_symop_operation_xyz
x,y,z
-x,-y,z
x,-y,-z
-x,y,-z
-x,-y,-z
x,y,-z
-x,y,z
x,-y,z
1/2+x,1/2+y,z
1/2-x,1/2-y,z
1/2+x,1/2-y,-z
1/2-x,1/2+y,-z
1/2-x,1/2-y,-z
1/2+x,1/2+y,-z
1/2-x,1/2+y,z
1/2+x,1/2-y,z
loop_
_atom_site_type_symbol
_atom_site_label
_atom_site_fract_x
_atom_site_fract_y
_atom_site_fract_z
Si Si1 0.051937 0.214075 0.888324
Si Si2 0.195703 0.712689 0.000000
Si Si3 0.552507 0.711739 0.500000
Si Si4 0.858777 0.289860 0.602368
Si Si5 0.350707 0.794491 0.808031
O O1 0.094296 0.287029 0.827911
O O2 0.000000 0.269016 0.859050
O O3 0.053705 0.000000 0.883951
O O4 0.058309 0.264089 0.000000
O O5 0.250000 0.750000 0.000000
O O6 0.173178 0.784477 0.097770
O O7 0.187452 0.500000 0.000000
O O8 0.550392 0.500000 0.500000
O O9 0.500000 0.780477 0.500000
O O10 0.585353 0.766815 0.411180
O O11 0.840417 0.218639 0.500000
O O12 0.849906 0.500000 0.603333
O O13 0.841988 0.215176 0.703080
O O14 0.336055 0.000000 0.803593
#
# Coordination Sequence:
#
# PCOD9487228 Si02
#       5
#    16   8   8  16  16
#     4   9  18  31  46  69 103 140 174 207 250 305
#     4  10  22  38  57  82 107 129 164 211 265 324
#     4   9  17  29  45  69 102 137 174 215 252 289
#     4   8  17  32  49  68  93 130 170 205 247 293
#     4  10  19  34  55  76 100 134 174 216 256 301
#
# _framework density 21.049600000000002
#
# number of rings (size 3 to 8) (size 9 to 14) (size 15 to 20)
#    0.750    2.125    1.250    0.750    0.000    4.500 
#    0.000    6.250    0.000    0.750    0.000    0.000 
#    0.000    0.000    0.000    0.000    0.000    0.000 
#
# Total GULP energy -178138.861879 kJ/mol
# GULP energy per Si atom -5566.839434 kJ/mol
# Density = 2.100169 g / cm^3
# Si number density = 21.049600 Si / 1000 Ang^3
#
#
#
# Elastic Constant Matrix: (Units=GPa)
#
#
# Indices 1 2 3 4 5 6 
#
# 1 46.4328 -8.0737 58.7075 0.0000 0.0000 0.0000
# 2 -8.0737 54.2260 11.3945 0.0000 0.0000 0.0000
# 3 58.7075 11.3945 214.9284 0.0000 0.0000 0.0000
# 4 0.0000 0.0000 0.0000 -7.2966 0.0000 0.0000
# 5 0.0000 0.0000 0.0000 0.0000 3.5038 0.0000
# 6 0.0000 0.0000 0.0000 0.0000 0.0000 16.6821
#
#
#
# Elastic Compliance Matrix: (Units=1/GPa)
#
#
# Indices 1 2 3 4 5 6 
#
# 1 0.035634 0.007434 -0.010127 0.000000 0.000000 0.000000
# 2 0.007434 0.020200 -0.003101 0.000000 0.000000 0.000000
# 3 -0.010127 -0.003101 0.007583 0.000000 0.000000 0.000000
# 4 0.000000 0.000000 0.000000 -0.137050 0.000000 0.000000
# 5 0.000000 0.000000 0.000000 0.000000 0.285402 0.000000
# 6 0.000000 0.000000 0.000000 0.000000 0.000000 0.059944
#
#
# Mechanical properties :
#
#
# Convention : Reuss Voigt Hill
#
# Bulk Modulus (GPa) = 19.29513 48.84931 34.07222
# Shear Modulus (GPa) = 16.63450 19.48179 18.05815
#
# Velocity S-wave (km/s) = 2.81419 3.04553 2.93215
# Velocity P-wave (km/s) = 4.44365 5.96860 5.26166
#
# Compressibility (1/GPa) = 0.05182655
#
# Stress axis : x y z
#
# Youngs Moduli (GPa) = 28.06333 49.50539 131.86648
#
# Poissons Ratio (x) = -0.36800 1.33547
# Poissons Ratio (y) = -0.20861 0.40897
# Poissons Ratio (z) = 0.28421 0.15354
#
# Static dielectric constant tensor:
#      x y z
#    x 1.717610 0.000000 0.000000 
#    y 0.000000 1.766530 0.000000 
#    z 0.000000 0.000000 1.823220 
# 
# From -- ./inp_files/47394.got.cif
#   From: 2010.05.17/outbox.cif.g08.bks.cpg/sg65_24_cif.got.tgz:47394.got - 2010.06.03 17:01:31.
