data_PCOD9487565
_publ_section_title
;
Structure prediction by ZEFSAII (Michael W. Deem and Ramdas Pophale) SiO2 
 PCOD9487565
Probable space group: C M M M
;
_chemical_formula_sum "Si O2"
_cell_formula_units_Z 88
_cell_length_a 17.315423
_cell_length_b 30.986282
_cell_length_c 7.926389
_cell_angle_alpha 90.000000
_cell_angle_beta 90.000000
_cell_angle_gamma 90.000000
_cell_volume 4252.829352
_symmetry_space_group_name_H-M "C M M M"
_symmetry_group_IT_number 65
_symmetry_cell_setting 'orthorhombic'
loop_
_space_group_symop_operation_xyz
x,y,z
-x,-y,z
x,-y,-z
-x,y,-z
-x,-y,-z
x,y,-z
-x,y,z
x,-y,z
1/2+x,1/2+y,z
1/2-x,1/2-y,z
1/2+x,1/2-y,-z
1/2-x,1/2+y,-z
1/2-x,1/2-y,-z
1/2+x,1/2+y,-z
1/2-x,1/2+y,z
1/2+x,1/2-y,z
loop_
_atom_site_type_symbol
_atom_site_label
_atom_site_fract_x
_atom_site_fract_y
_atom_site_fract_z
Si Si1 0.088977 0.694351 0.204219
Si Si2 0.913688 0.551098 0.201297
Si Si3 0.873381 0.118088 0.804183
Si Si4 0.295026 0.881094 0.309277
Si Si5 0.092783 0.788536 0.807254
Si Si6 0.500000 0.450073 0.206643
O O1 0.150775 0.658402 0.252318
O O2 0.113810 0.741981 0.268000
O O3 0.000000 0.685087 0.259431
O O4 0.086391 0.696481 0.000000
O O5 0.907488 0.500000 0.226625
O O6 0.849055 0.577329 0.295107
O O7 0.000000 0.564805 0.252410
O O8 0.906782 0.559388 0.000000
O O9 0.782325 0.110846 0.795225
O O10 0.886803 0.165652 0.725928
O O11 0.925705 0.078660 0.738824
O O12 0.897968 0.122364 0.000000
O O13 0.270129 0.873561 0.500000
O O14 0.000000 0.787299 0.817400
O O15 0.124593 0.788928 0.000000
O O16 0.500000 0.500000 0.265075
O O17 0.500000 0.452459 0.000000
#
# Coordination Sequence:
#
# PCOD9487565 Si02
#       6
#    16  16  16  16  16   8
#     4   9  18  34  57  82 108 142 188 237 283 328
#     4   9  19  38  63  85 104 134 180 230 276 321
#     4  10  19  35  59  82 108 142 183 233 284 332
#     4  12  25  36  49  78 120 155 184 218 267 332
#     4   8  14  29  56  84 104 133 184 241 287 328
#     4   9  18  34  61  93 113 131 173 235 294 341
#
# _framework density 20.692107
#
# number of rings (size 3 to 8) (size 9 to 14) (size 15 to 20)
#    0.000    2.455    0.909    3.818    0.000    4.727 
#    0.000    7.727    0.000    1.636    0.000    0.000 
#    0.000    0.000    0.000    0.000    0.000    0.000 
#
# Total GULP energy -245335.216997 kJ/mol
# GULP energy per Si atom -5575.800386 kJ/mol
# Density = 2.064501 g / cm^3
# Si number density = 20.692107 Si / 1000 Ang^3
#
#
#
# Elastic Constant Matrix: (Units=GPa)
#
#
# Indices 1 2 3 4 5 6 
#
# 1 98.3289 63.5822 4.1505 0.0000 0.0000 0.0000
# 2 63.5822 96.6019 18.7855 0.0000 0.0000 0.0000
# 3 4.1505 18.7855 22.3614 0.0000 0.0000 0.0000
# 4 0.0000 0.0000 0.0000 -108.9927 0.0000 0.0000
# 5 0.0000 0.0000 0.0000 0.0000 -49.3862 0.0000
# 6 0.0000 0.0000 0.0000 0.0000 0.0000 68.0177
#
#
#
# Elastic Compliance Matrix: (Units=1/GPa)
#
#
# Indices 1 2 3 4 5 6 
#
# 1 0.018913 -0.014063 0.008304 0.000000 0.000000 0.000000
# 2 -0.014063 0.022830 -0.016569 0.000000 0.000000 0.000000
# 3 0.008304 -0.016569 0.057098 0.000000 0.000000 0.000000
# 4 0.000000 0.000000 0.000000 -0.009175 0.000000 0.000000
# 5 0.000000 0.000000 0.000000 0.000000 -0.020249 0.000000
# 6 0.000000 0.000000 0.000000 0.000000 0.000000 0.014702
#
#
# Mechanical properties :
#
#
# Convention : Reuss Voigt Hill
#
# Bulk Modulus (GPa) = 18.45544 43.36984 30.91264
# Shear Modulus (GPa) = 34.05122 -9.35398 12.34862
#
# Velocity S-wave (km/s) = 4.06102 -2.12847 2.44556
# Velocity P-wave (km/s) = 5.56126 3.86841 4.79021
#
# Compressibility (1/GPa) = 0.05418455
#
# Stress axis : x y z
#
# Youngs Moduli (GPa) = 52.87359 43.80207 17.51373
#
# Poissons Ratio (x) = 0.61599 -0.14543
# Poissons Ratio (y) = 0.74357 0.29018
# Poissons Ratio (z) = -0.43905 0.72575
#
# Static dielectric constant tensor:
#      x y z
#    x 1.720430 0.000000 0.000000 
#    y 0.000000 1.766410 0.000000 
#    z 0.000000 0.000000 1.780730 
# 
# From -- ./inp_files/10137.got.cif
#   From: 2010.05.17/outbox.cif.g08.bks.cpg/sg65_6_cif.got.tgz:10137.got - 2010.06.03 17:01:31.
