data_PCOD9487625
_publ_section_title
;
Structure prediction by ZEFSAII (Michael W. Deem and Ramdas Pophale) SiO2 
 PCOD9487625
Probable space group: C M M M
;
_chemical_formula_sum "Si O2"
_cell_formula_units_Z 88
_cell_length_a 17.837452
_cell_length_b 17.626917
_cell_length_c 14.379715
_cell_angle_alpha 90.000000
_cell_angle_beta 90.000000
_cell_angle_gamma 90.000000
_cell_volume 4521.259722
_symmetry_space_group_name_H-M "C M M M"
_symmetry_group_IT_number 65
_symmetry_cell_setting 'orthorhombic'
loop_
_space_group_symop_operation_xyz
x,y,z
-x,-y,z
x,-y,-z
-x,y,-z
-x,-y,-z
x,y,-z
-x,y,z
x,-y,z
1/2+x,1/2+y,z
1/2-x,1/2-y,z
1/2+x,1/2-y,-z
1/2-x,1/2+y,-z
1/2-x,1/2-y,-z
1/2+x,1/2+y,-z
1/2-x,1/2+y,z
1/2+x,1/2-y,z
loop_
_atom_site_type_symbol
_atom_site_label
_atom_site_fract_x
_atom_site_fract_y
_atom_site_fract_z
Si Si1 0.870058 0.910483 0.894241
Si Si2 0.787361 0.666687 0.894408
Si Si3 0.500000 0.090486 0.392464
Si Si4 0.414202 0.341317 0.295779
Si Si5 0.638917 0.830965 0.705568
Si Si6 0.775068 0.913022 0.389147
O O1 0.781446 0.892047 0.884812
O O2 0.909729 0.864531 0.812744
O O3 0.883629 0.000000 0.883236
O O4 0.891287 0.888488 0.000000
O O5 0.750000 0.750000 0.880482
O O6 0.848161 0.654918 0.814996
O O7 0.815924 0.663498 0.000000
O O8 0.500000 0.116889 0.500000
O O9 0.573073 0.120791 0.340221
O O10 0.500000 0.000000 0.392814
O O11 0.500000 0.345573 0.327436
O O12 0.382443 0.256663 0.307536
O O13 0.357495 0.395992 0.350043
O O14 0.716490 0.855581 0.657392
O O15 0.773468 0.904269 0.500000
O O16 0.753770 0.000000 0.366411
#
# Coordination Sequence:
#
# PCOD9487625 Si02
#       6
#    16  16   8  16  16  16
#     4  10  21  38  62  94 131 171 216 264 316 380
#     4  10  19  35  64  97 129 166 211 264 321 384
#     4  11  26  46  69  97 130 169 215 275 337 388
#     4  12  25  41  61  95 135 170 211 263 324 388
#     4  12  22  42  68  97 128 168 219 268 323 387
#     4  11  25  44  67  93 123 167 219 270 326 389
#
# _framework density 19.463601000000001
#
# number of rings (size 3 to 8) (size 9 to 14) (size 15 to 20)
#    0.000    1.000    4.545    2.182    0.000    6.545 
#    0.000    2.273    0.000    0.545    0.000    0.000 
#    0.000    0.000    0.000    0.000    0.000    0.000 
#
# Total GULP energy -245994.178315 kJ/mol
# GULP energy per Si atom -5590.776780 kJ/mol
# Density = 1.941930 g / cm^3
# Si number density = 19.463601 Si / 1000 Ang^3
#
#
#
# Elastic Constant Matrix: (Units=GPa)
#
#
# Indices 1 2 3 4 5 6 
#
# 1 106.7824 26.4786 50.3695 0.0000 0.0000 0.0000
# 2 26.4786 81.2778 35.9586 0.0000 0.0000 0.0000
# 3 50.3695 35.9586 112.8118 0.0000 0.0000 0.0000
# 4 0.0000 0.0000 0.0000 38.5478 0.0000 0.0000
# 5 0.0000 0.0000 0.0000 0.0000 -3.3239 0.0000
# 6 0.0000 0.0000 0.0000 0.0000 0.0000 39.3806
#
#
#
# Elastic Compliance Matrix: (Units=1/GPa)
#
#
# Indices 1 2 3 4 5 6 
#
# 1 0.012087 -0.001805 -0.004821 0.000000 0.000000 0.000000
# 2 -0.001805 0.014593 -0.003846 0.000000 0.000000 0.000000
# 3 -0.004821 -0.003846 0.012243 0.000000 0.000000 0.000000
# 4 0.000000 0.000000 0.000000 0.025942 0.000000 0.000000
# 5 0.000000 0.000000 0.000000 0.000000 -0.300849 0.000000
# 6 0.000000 0.000000 0.000000 0.000000 0.000000 0.025393
#
#
# Mechanical properties :
#
#
# Convention : Reuss Voigt Hill
#
# Bulk Modulus (GPa) = 55.62052 58.49838 57.05945
# Shear Modulus (GPa) = -27.22494 27.45857 0.11682
#
# Velocity S-wave (km/s) = -3.74406 3.76009 0.24525
# Velocity P-wave (km/s) = 3.15406 6.99797 5.42769
#
# Compressibility (1/GPa) = 0.01797898
#
# Stress axis : x y z
#
# Youngs Moduli (GPa) = 82.73656 68.52709 81.68036
#
# Poissons Ratio (x) = 0.12366 0.39381
# Poissons Ratio (y) = 0.14930 0.31412
# Poissons Ratio (z) = 0.39890 0.26354
#
# Static dielectric constant tensor:
#      x y z
#    x 1.665000 0.000000 0.000000 
#    y 0.000000 1.672740 0.000000 
#    z 0.000000 0.000000 1.685610 
# 
# From -- ./inp_files/42504.got.cif
#   From: 2010.05.17/outbox.cif.g08.bks.cpg/sg65_22_cif.got.tgz:42504.got - 2010.06.03 17:01:31.
