data_PCOD9487370
_publ_section_title
;
Structure prediction by ZEFSAII (Michael W. Deem and Ramdas Pophale) SiO2 
 PCOD9487370
Probable space group: C M M M
;
_chemical_formula_sum "Si O2"
_cell_formula_units_Z 104
_cell_length_a 8.799526
_cell_length_b 30.704427
_cell_length_c 21.215819
_cell_angle_alpha 90.000000
_cell_angle_beta 90.000000
_cell_angle_gamma 90.000000
_cell_volume 5732.183406
_symmetry_space_group_name_H-M "C M M M"
_symmetry_group_IT_number 65
_symmetry_cell_setting 'orthorhombic'
loop_
_space_group_symop_operation_xyz
x,y,z
-x,-y,z
x,-y,-z
-x,y,-z
-x,-y,-z
x,y,-z
-x,y,z
x,-y,z
1/2+x,1/2+y,z
1/2-x,1/2-y,z
1/2+x,1/2-y,-z
1/2-x,1/2+y,-z
1/2-x,1/2-y,-z
1/2+x,1/2+y,-z
1/2-x,1/2+y,z
1/2+x,1/2-y,z
loop_
_atom_site_type_symbol
_atom_site_label
_atom_site_fract_x
_atom_site_fract_y
_atom_site_fract_z
Si Si1 0.182393 0.908696 0.928893
Si Si2 0.314032 0.615851 0.205794
Si Si3 0.324416 0.704407 0.590830
Si Si4 0.815775 0.949020 0.315622
Si Si5 0.181804 0.390499 0.429023
Si Si6 0.174277 0.793909 0.742298
Si Si7 0.829674 0.500000 0.924458
O O1 0.233739 0.882871 0.867249
O O2 0.234719 0.957183 0.910916
O O3 0.000000 0.906920 0.931813
O O4 0.239111 0.898182 0.000000
O O5 0.500000 0.614976 0.206692
O O6 0.268430 0.575363 0.250479
O O7 0.257355 0.660422 0.236605
O O8 0.500000 0.702194 0.571121
O O9 0.250000 0.750000 0.569449
O O10 0.240614 0.659493 0.573953
O O11 0.322418 0.706249 0.666758
O O12 0.754367 0.920388 0.374326
O O13 0.000000 0.947891 0.318291
O O14 0.769219 0.000000 0.317642
O O15 0.217624 0.406872 0.500000
O O16 0.000000 0.390369 0.421202
O O17 0.250000 0.750000 0.765970
O O18 0.000000 0.793398 0.762974
O O19 0.000000 0.500000 0.897248
O O20 0.845348 0.500000 0.000000
#
# Coordination Sequence:
#
# PCOD9487370 Si02
#       7
#    16  16  16  16  16  16   8
#     4   9  17  29  49  75 101 136 180 218 256 309
#     4   9  17  32  54  79 107 136 171 219 267 309
#     4  10  19  34  57  83 111 141 175 217 267 323
#     4  10  21  38  59  80 103 138 182 226 271 318
#     4  11  24  40  57  78 108 144 179 220 270 320
#     4   9  17  31  52  77 104 134 168 211 262 311
#     4   9  17  29  43  63  99 139 170 207 256 307
#
# _framework density 18.143173999999998
#
# number of rings (size 3 to 8) (size 9 to 14) (size 15 to 20)
#    0.000    2.385    1.538    1.154    1.077    3.692 
#    0.000    3.077    0.000    0.462    0.000    0.000 
#    0.000    0.000    0.000    0.000    0.000    0.000 
#
# Total GULP energy -289600.673674 kJ/mol
# GULP energy per Si atom -5569.243724 kJ/mol
# Density = 1.810188 g / cm^3
# Si number density = 18.143174 Si / 1000 Ang^3
#
#
#
# Elastic Constant Matrix: (Units=GPa)
#
#
# Indices 1 2 3 4 5 6 
#
# 1 21.9437 21.7910 24.3410 0.0000 0.0000 0.0000
# 2 21.7910 128.2183 62.2612 0.0000 0.0000 0.0000
# 3 24.3410 62.2612 116.4064 0.0000 0.0000 0.0000
# 4 0.0000 0.0000 0.0000 -99.8151 0.0000 0.0000
# 5 0.0000 0.0000 0.0000 0.0000 7.9485 0.0000
# 6 0.0000 0.0000 0.0000 0.0000 0.0000 22.6454
#
#
#
# Elastic Compliance Matrix: (Units=1/GPa)
#
#
# Indices 1 2 3 4 5 6 
#
# 1 0.062331 -0.005760 -0.009953 0.000000 0.000000 0.000000
# 2 -0.005760 0.011068 -0.004715 0.000000 0.000000 0.000000
# 3 -0.009953 -0.004715 0.013194 0.000000 0.000000 0.000000
# 4 0.000000 0.000000 0.000000 -0.010019 0.000000 0.000000
# 5 0.000000 0.000000 0.000000 0.000000 0.125809 0.000000
# 6 0.000000 0.000000 0.000000 0.000000 0.000000 0.044159
#
#
# Mechanical properties :
#
#
# Convention : Reuss Voigt Hill
#
# Bulk Modulus (GPa) = 21.86450 53.70611 37.78530
# Shear Modulus (GPa) = 16.52100 -3.29924 6.61088
#
# Velocity S-wave (km/s) = 3.02087 -1.34996 1.91093
# Velocity P-wave (km/s) = 4.92390 5.21878 5.07348
#
# Compressibility (1/GPa) = 0.04573624
#
# Stress axis : x y z
#
# Youngs Moduli (GPa) = 16.04327 90.35165 75.79356
#
# Poissons Ratio (x) = 0.52047 0.75435
# Poissons Ratio (y) = 0.09242 0.35738
# Poissons Ratio (z) = 0.15967 0.42603
#
# Static dielectric constant tensor:
#      x y z
#    x 1.634680 0.000000 0.000000 
#    y 0.000000 1.681480 0.000000 
#    z 0.000000 0.000000 1.652580 
# 
# From -- ./inp_files/60856.got.cif
#   From: 2010.05.17/outbox.cif.g08.bks.cpg/sg65_31_cif.got.tgz:60856.got - 2010.06.03 17:01:31.
