data_PCOD9487416
_publ_section_title
;
Structure prediction by ZEFSAII (Michael W. Deem and Ramdas Pophale) SiO2 
 PCOD9487416
Probable space group: C M M M
;
_chemical_formula_sum "Si O2"
_cell_formula_units_Z 50
_cell_length_a 11.094963
_cell_length_b 25.477128
_cell_length_c 7.415329
_cell_angle_alpha 90.000000
_cell_angle_beta 90.000000
_cell_angle_gamma 90.000000
_cell_volume 2096.074679
_symmetry_space_group_name_H-M "C M M M"
_symmetry_group_IT_number 65
_symmetry_cell_setting 'orthorhombic'
loop_
_space_group_symop_operation_xyz
x,y,z
-x,-y,z
x,-y,-z
-x,y,-z
-x,-y,-z
x,y,-z
-x,y,z
x,-y,z
1/2+x,1/2+y,z
1/2-x,1/2-y,z
1/2+x,1/2-y,-z
1/2-x,1/2+y,-z
1/2-x,1/2-y,-z
1/2+x,1/2+y,-z
1/2-x,1/2+y,z
1/2+x,1/2-y,z
loop_
_atom_site_type_symbol
_atom_site_label
_atom_site_fract_x
_atom_site_fract_y
_atom_site_fract_z
Si Si1 0.000000 0.000000 0.500000
Si Si2 0.359196 0.000000 0.279892
Si Si3 0.500000 0.592013 0.799417
Si Si4 0.368262 0.218943 0.279797
Si Si5 0.759774 0.611792 0.282657
O O1 0.000000 0.045758 0.345060
O O2 0.296767 0.053737 0.218427
O O3 0.500000 0.000000 0.233411
O O4 0.350593 0.000000 0.500000
O O5 0.376885 0.623790 0.771902
O O6 0.500000 0.570325 0.000000
O O7 0.367910 0.221127 0.500000
O O8 0.500000 0.237627 0.220423
O O9 0.250000 0.250000 0.219016
O O10 0.348029 0.158224 0.227188
O O11 0.763053 0.609829 0.500000
#
# Coordination Sequence:
#
# PCOD9487416 Si02
#       5
#     2   8   8  16  16
#     4  12  22  44  60  94 134 180 226 260 330 388
#     4   9  17  29  51  81 113 154 204 252 318 388
#     4  12  25  39  63  94 133 173 218 270 324 395
#     4   9  18  31  53  89 130 170 223 280 336 400
#     4  10  19  34  58  84 125 167 213 269 330 392
#
# _framework density 23.854111
#
# number of rings (size 3 to 8) (size 9 to 14) (size 15 to 20)
#    0.000    2.080    1.600    2.160    4.480    3.840 
#    0.000    0.000    0.000    5.760    0.000    0.000 
#    0.000    0.000    0.000    0.000    0.000    0.000 
#
# Total GULP energy -139553.758731 kJ/mol
# GULP energy per Si atom -5582.150349 kJ/mol
# Density = 2.379982 g / cm^3
# Si number density = 23.854111 Si / 1000 Ang^3
#
#
#
# Elastic Constant Matrix: (Units=GPa)
#
#
# Indices 1 2 3 4 5 6 
#
# 1 206.7976 73.8427 -11.5758 0.0000 0.0000 0.0000
# 2 73.8427 99.4583 4.6726 0.0000 0.0000 0.0000
# 3 -11.5758 4.6726 110.3004 0.0000 0.0000 0.0000
# 4 0.0000 0.0000 0.0000 -4.4982 0.0000 0.0000
# 5 0.0000 0.0000 0.0000 0.0000 315.0319 0.0000
# 6 0.0000 0.0000 0.0000 0.0000 0.0000 7.3822
#
#
#
# Elastic Compliance Matrix: (Units=1/GPa)
#
#
# Indices 1 2 3 4 5 6 
#
# 1 0.006670 -0.004995 0.000912 0.000000 0.000000 0.000000
# 2 -0.004995 0.013815 -0.001109 0.000000 0.000000 0.000000
# 3 0.000912 -0.001109 0.009209 0.000000 0.000000 0.000000
# 4 0.000000 0.000000 0.000000 -0.222314 0.000000 0.000000
# 5 0.000000 0.000000 0.000000 0.000000 0.003174 0.000000
# 6 0.000000 0.000000 0.000000 0.000000 0.000000 0.135461
#
#
# Mechanical properties :
#
#
# Convention : Reuss Voigt Hill
#
# Bulk Modulus (GPa) = 51.79109 61.15947 56.47528
# Shear Modulus (GPa) = -134.54930 86.89099 -23.82915
#
# Velocity S-wave (km/s) = -7.51848 6.04194 -3.16405
# Velocity P-wave (km/s) = 7.32197 8.62369 3.22155
#
# Compressibility (1/GPa) = 0.01930834
#
# Stress axis : x y z
#
# Youngs Moduli (GPa) = 149.91704 72.38360 108.59147
#
# Poissons Ratio (x) = 0.36157 -0.09900
# Poissons Ratio (y) = 0.74887 0.12048
# Poissons Ratio (z) = -0.13667 0.08031
#
# Static dielectric constant tensor:
#      x y z
#    x 1.911140 0.000000 0.000000 
#    y 0.000000 1.874470 0.000000 
#    z 0.000000 0.000000 1.887930 
# 
# From -- ./inp_files/4314.got.cif
#   From: 2010.05.17/outbox.cif.g08.bks.cpg/sg65_3_cif.got.tgz:4314.got - 2010.06.03 17:01:31.
