data_PCOD9487854
_publ_section_title
;
Structure prediction by ZEFSAII (Michael W. Deem and Ramdas Pophale) SiO2 
 PCOD9487854
Probable space group: C M M M
;
_chemical_formula_sum "Si O2"
_cell_formula_units_Z 104
_cell_length_a 24.737762
_cell_length_b 17.492158
_cell_length_c 14.191903
_cell_angle_alpha 90.000000
_cell_angle_beta 90.000000
_cell_angle_gamma 90.000000
_cell_volume 6141.075441
_symmetry_space_group_name_H-M "C M M M"
_symmetry_group_IT_number 65
_symmetry_cell_setting 'orthorhombic'
loop_
_space_group_symop_operation_xyz
x,y,z
-x,-y,z
x,-y,-z
-x,y,-z
-x,-y,-z
x,y,-z
-x,y,z
x,-y,z
1/2+x,1/2+y,z
1/2-x,1/2-y,z
1/2+x,1/2-y,-z
1/2-x,1/2+y,-z
1/2-x,1/2-y,-z
1/2+x,1/2+y,-z
1/2-x,1/2+y,z
1/2+x,1/2-y,z
loop_
_atom_site_type_symbol
_atom_site_label
_atom_site_fract_x
_atom_site_fract_y
_atom_site_fract_z
Si Si1 0.061715 0.000000 0.613790
Si Si2 0.438091 0.915974 0.385774
Si Si3 0.735787 0.087720 0.705579
Si Si4 0.677583 0.092314 0.893238
Si Si5 0.441423 0.089393 0.114220
Si Si6 0.848273 0.300658 0.613128
Si Si7 0.848478 0.877409 0.385757
O O1 0.097907 0.074193 0.638209
O O2 0.058245 0.000000 0.500000
O O3 0.000000 0.000000 0.649880
O O4 0.438190 0.915261 0.500000
O O5 0.500000 0.908398 0.356015
O O6 0.400321 0.848186 0.353702
O O7 0.417875 0.000000 0.357099
O O8 0.722841 0.106787 0.814712
O O9 0.702967 0.151638 0.648409
O O10 0.797151 0.090980 0.670747
O O11 0.716329 0.000000 0.688776
O O12 0.617958 0.120626 0.860086
O O13 0.672819 0.000000 0.898911
O O14 0.688767 0.119553 0.000000
O O15 0.500000 0.123156 0.142825
O O16 0.442622 0.000000 0.142593
O O17 0.440666 0.090266 0.000000
O O18 0.847154 0.302766 0.500000
O O19 0.851800 0.212091 0.638800
O O20 0.839908 0.884776 0.500000
#
# Coordination Sequence:
#
# PCOD9487854 Si02
#       7
#     8  16  16  16  16  16  16
#     4   9  18  34  56  78  97 121 156 205 267 319
#     4   8  14  26  43  63  91 127 165 200 228 263
#     4  11  20  30  47  69  98 134 167 202 245 287
#     4   8  15  27  42  63  91 125 166 206 245 290
#     4   7   9  16  33  55  79 109 146 190 235 271
#     4  10  20  31  46  68  95 132 170 200 239 292
#     4  10  20  34  50  71  99 125 157 207 255 301
#
# _framework density 16.935144999999999
#
# number of rings (size 3 to 8) (size 9 to 14) (size 15 to 20)
#    0.000    3.000    0.769    3.231    0.000    3.385 
#    0.000    3.846    0.000    4.615    0.000    0.000 
#    0.000    1.231    0.000    2.769    0.000    2.308 
#
# Total GULP energy -289469.618811 kJ/mol
# GULP energy per Si atom -5566.723439 kJ/mol
# Density = 1.689660 g / cm^3
# Si number density = 16.935145 Si / 1000 Ang^3
#
#
#
# Elastic Constant Matrix: (Units=GPa)
#
#
# Indices 1 2 3 4 5 6 
#
# 1 130.5186 51.0773 31.1053 0.0000 0.0000 0.0000
# 2 51.0773 98.6766 28.0239 0.0000 0.0000 0.0000
# 3 31.1053 28.0239 60.9345 0.0000 0.0000 0.0000
# 4 0.0000 0.0000 0.0000 6.0628 0.0000 0.0000
# 5 0.0000 0.0000 0.0000 0.0000 -55.4287 0.0000
# 6 0.0000 0.0000 0.0000 0.0000 0.0000 54.0308
#
#
#
# Elastic Compliance Matrix: (Units=1/GPa)
#
#
# Indices 1 2 3 4 5 6 
#
# 1 0.010113 -0.004335 -0.003169 0.000000 0.000000 0.000000
# 2 -0.004335 0.013515 -0.004003 0.000000 0.000000 0.000000
# 3 -0.003169 -0.004003 0.019870 0.000000 0.000000 0.000000
# 4 0.000000 0.000000 0.000000 0.164939 0.000000 0.000000
# 5 0.000000 0.000000 0.000000 0.000000 -0.018041 0.000000
# 6 0.000000 0.000000 0.000000 0.000000 0.000000 0.018508
#
#
# Mechanical properties :
#
#
# Convention : Reuss Voigt Hill
#
# Bulk Modulus (GPa) = 48.81700 56.72698 52.77199
# Shear Modulus (GPa) = 20.94287 12.92787 16.93537
#
# Velocity S-wave (km/s) = 3.52042 2.76592 3.16573
# Velocity P-wave (km/s) = 6.73891 6.61587 6.67767
#
# Compressibility (1/GPa) = 0.02048467
#
# Stress axis : x y z
#
# Youngs Moduli (GPa) = 98.87850 73.99341 50.32833
#
# Poissons Ratio (x) = 0.32076 0.15949
# Poissons Ratio (y) = 0.42863 0.20144
# Poissons Ratio (z) = 0.31334 0.29616
#
# Static dielectric constant tensor:
#      x y z
#    x 1.610040 0.000000 0.000000 
#    y 0.000000 1.576570 0.000000 
#    z 0.000000 0.000000 1.607130 
# 
# From -- ./inp_files/45922.got.cif
#   From: 2010.05.17/outbox.cif.g08.bks.cpg/sg65_23_cif.got.tgz:45922.got - 2010.06.03 17:01:31.
