data_PCOD9487077
_publ_section_title
;
Structure prediction by ZEFSAII (Michael W. Deem and Ramdas Pophale) SiO2 
 PCOD9487077
Probable space group: C M M M
;
_chemical_formula_sum "Si O2"
_cell_formula_units_Z 100
_cell_length_a 32.689812
_cell_length_b 7.883421
_cell_length_c 19.859408
_cell_angle_alpha 90.000000
_cell_angle_beta 90.000000
_cell_angle_gamma 90.000000
_cell_volume 5117.919388
_symmetry_space_group_name_H-M "C M M M"
_symmetry_group_IT_number 65
_symmetry_cell_setting 'orthorhombic'
loop_
_space_group_symop_operation_xyz
x,y,z
-x,-y,z
x,-y,-z
-x,y,-z
-x,-y,-z
x,y,-z
-x,y,z
x,-y,z
1/2+x,1/2+y,z
1/2-x,1/2-y,z
1/2+x,1/2-y,-z
1/2-x,1/2+y,-z
1/2-x,1/2-y,-z
1/2+x,1/2+y,-z
1/2-x,1/2+y,z
1/2+x,1/2-y,z
loop_
_atom_site_type_symbol
_atom_site_label
_atom_site_fract_x
_atom_site_fract_y
_atom_site_fract_z
Si Si1 0.377572 0.293616 0.422111
Si Si2 0.500000 0.500000 0.288854
Si Si3 0.705074 0.704264 0.650566
Si Si4 0.620264 0.801421 0.171915
Si Si5 0.431550 0.199851 0.699683
Si Si6 0.545083 0.704465 0.077780
Si Si7 0.793158 0.197047 0.802980
O O1 0.382021 0.246994 0.500000
O O2 0.379940 0.500000 0.417536
O O3 0.333517 0.237704 0.392976
O O4 0.412493 0.218316 0.374380
O O5 0.464859 0.653063 0.289815
O O6 0.702362 0.500000 0.652097
O O7 0.750000 0.750000 0.623780
O O8 0.702947 0.774746 0.727455
O O9 0.604168 0.757623 0.246408
O O10 0.583329 0.757506 0.121942
O O11 0.664633 0.724772 0.158244
O O12 0.626435 0.000000 0.169374
O O13 0.443809 0.000000 0.711015
O O14 0.500000 0.761917 0.102998
O O15 0.544144 0.500000 0.078335
O O16 0.549073 0.759410 0.000000
O O17 0.750000 0.250000 0.834556
O O18 0.789095 0.000000 0.791770
#
# Coordination Sequence:
#
# PCOD9487077 Si02
#       7
#    16   4  16  16  16  16  16
#     4  10  20  38  61  83 115 160 204 250 310 371
#     4  12  26  44  69  84 125 156 190 268 318 358
#     4   9  18  31  51  80 115 152 195 243 300 365
#     4  11  23  36  58  90 125 159 203 251 294 359
#     4  11  25  42  63  94 119 153 207 250 308 374
#     4   9  20  38  61  90 123 162 204 242 295 365
#     4  10  19  33  56  83 118 157 198 245 301 354
#
# _framework density 19.539190000000001
#
# number of rings (size 3 to 8) (size 9 to 14) (size 15 to 20)
#    0.000    1.920    2.400    1.680    3.360    2.560 
#    0.000    1.600    0.000    1.440    0.000    0.000 
#    0.000    0.000    0.000    0.000    0.000    0.000 
#
# Total GULP energy -278344.848471 kJ/mol
# GULP energy per Si atom -5566.896969 kJ/mol
# Density = 1.949472 g / cm^3
# Si number density = 19.539190 Si / 1000 Ang^3
#
#
#
# Elastic Constant Matrix: (Units=GPa)
#
#
# Indices 1 2 3 4 5 6 
#
# 1 144.0324 37.1446 23.3432 0.0000 0.0000 0.0000
# 2 37.1446 51.7643 -4.5836 0.0000 0.0000 0.0000
# 3 23.3432 -4.5836 33.6005 0.0000 0.0000 0.0000
# 4 0.0000 0.0000 0.0000 11.0071 0.0000 0.0000
# 5 0.0000 0.0000 0.0000 0.0000 9801.0034 0.0000
# 6 0.0000 0.0000 0.0000 0.0000 0.0000 33.6438
#
#
#
# Elastic Compliance Matrix: (Units=1/GPa)
#
#
# Indices 1 2 3 4 5 6 
#
# 1 0.010415 -0.008214 -0.008356 0.000000 0.000000 0.000000
# 2 -0.008214 0.026032 0.009257 0.000000 0.000000 0.000000
# 3 -0.008356 0.009257 0.036830 0.000000 0.000000 0.000000
# 4 0.000000 0.000000 0.000000 0.090850 0.000000 0.000000
# 5 0.000000 0.000000 0.000000 0.000000 0.000102 0.000000
# 6 0.000000 0.000000 0.000000 0.000000 0.000000 0.029723
#
#
# Mechanical properties :
#
#
# Convention : Reuss Voigt Hill
#
# Bulk Modulus (GPa) = 17.04981 37.91175 27.48078
# Shear Modulus (GPa) = 21.91748 1980.69707 1001.30727
#
# Velocity S-wave (km/s) = 3.35284 31.87327 22.66216
# Velocity P-wave (km/s) = 4.87172 37.06731 26.43595
#
# Compressibility (1/GPa) = 0.05865169
#
# Stress axis : x y z
#
# Youngs Moduli (GPa) = 96.01135 38.41427 27.15207
#
# Poissons Ratio (x) = 0.31553 0.22689
# Poissons Ratio (y) = 0.78861 -0.25136
# Poissons Ratio (z) = 0.80230 -0.35562
#
# Static dielectric constant tensor:
#      x y z
#    x 1.655490 0.000000 0.000000 
#    y 0.000000 1.697300 0.000000 
#    z 0.000000 0.000000 1.694830 
# 
# From -- ./inp_files/66353.got.cif
#   From: 2010.05.17/outbox.cif.g08.bks.cpg/sg65_34_cif.got.tgz:66353.got - 2010.06.03 17:01:31.
