data_PCOD9487091
_publ_section_title
;
Structure prediction by ZEFSAII (Michael W. Deem and Ramdas Pophale) SiO2 
 PCOD9487091
Probable space group: C M M M
;
_chemical_formula_sum "Si O2"
_cell_formula_units_Z 64
_cell_length_a 23.865620
_cell_length_b 9.616755
_cell_length_c 14.889350
_cell_angle_alpha 90.000000
_cell_angle_beta 90.000000
_cell_angle_gamma 90.000000
_cell_volume 3417.252045
_symmetry_space_group_name_H-M "C M M M"
_symmetry_group_IT_number 65
_symmetry_cell_setting 'orthorhombic'
loop_
_space_group_symop_operation_xyz
x,y,z
-x,-y,z
x,-y,-z
-x,y,-z
-x,-y,-z
x,y,-z
-x,y,z
x,-y,z
1/2+x,1/2+y,z
1/2-x,1/2-y,z
1/2+x,1/2-y,-z
1/2-x,1/2+y,-z
1/2-x,1/2-y,-z
1/2+x,1/2+y,-z
1/2-x,1/2+y,z
1/2+x,1/2-y,z
loop_
_atom_site_type_symbol
_atom_site_label
_atom_site_fract_x
_atom_site_fract_y
_atom_site_fract_z
Si Si1 0.376166 0.154084 0.867075
Si Si2 0.307363 0.834040 0.500000
Si Si3 0.607566 0.160584 0.341111
Si Si4 0.807934 0.834046 0.000000
Si Si5 0.000000 0.752131 0.898870
Si Si6 0.000000 0.158484 0.694858
O O1 0.369642 0.165324 0.760415
O O2 0.343609 0.277102 0.915826
O O3 0.442149 0.166805 0.890725
O O4 0.356397 0.000000 0.894939
O O5 0.250000 0.750000 0.500000
O O6 0.345438 0.802011 0.413152
O O7 0.296222 0.000000 0.500000
O O8 0.554247 0.260445 0.340549
O O9 0.590146 0.000000 0.358472
O O10 0.750000 0.750000 0.000000
O O11 0.801417 0.000000 0.000000
O O12 0.000000 0.837508 0.804986
O O13 0.000000 0.816818 0.000000
O O14 0.000000 0.000000 0.665831
#
# Coordination Sequence:
#
# PCOD9487091 Si02
#       6
#    16   8  16   8   8   8
#     4  10  20  37  60  87 117 152 193 234 283 343
#     4  10  22  41  64  89 115 148 196 244 295 350
#     4   9  20  39  61  86 118 155 190 232 289 355
#     4  12  26  41  56  77 109 152 198 242 289 340
#     4  10  19  33  56  89 120 156 190 230 285 344
#     4  10  21  35  55  87 123 157 194 240 287 339
#
# _framework density 18.728497999999998
#
# number of rings (size 3 to 8) (size 9 to 14) (size 15 to 20)
#    0.000    2.000    1.250    1.875    0.000   10.250 
#    0.000    5.000    0.000    0.000    0.000    0.000 
#    0.000    0.000    0.000    0.000    0.000    0.000 
#
# Total GULP energy -178516.997023 kJ/mol
# GULP energy per Si atom -5578.656157 kJ/mol
# Density = 1.868587 g / cm^3
# Si number density = 18.728498 Si / 1000 Ang^3
#
#
#
# Elastic Constant Matrix: (Units=GPa)
#
#
# Indices 1 2 3 4 5 6 
#
# 1 128.3649 87.4702 80.4357 0.0000 0.0000 0.0000
# 2 87.4702 154.5040 50.3238 0.0000 0.0000 0.0000
# 3 80.4357 50.3238 127.5089 0.0000 0.0000 0.0000
# 4 0.0000 0.0000 0.0000 15.7780 0.0000 0.0000
# 5 0.0000 0.0000 0.0000 0.0000 40.2887 0.0000
# 6 0.0000 0.0000 0.0000 0.0000 0.0000 27.2616
#
#
#
# Elastic Compliance Matrix: (Units=1/GPa)
#
#
# Indices 1 2 3 4 5 6 
#
# 1 0.018328 -0.007585 -0.008568 0.000000 0.000000 0.000000
# 2 -0.007585 0.010566 0.000615 0.000000 0.000000 0.000000
# 3 -0.008568 0.000615 0.013005 0.000000 0.000000 0.000000
# 4 0.000000 0.000000 0.000000 0.063379 0.000000 0.000000
# 5 0.000000 0.000000 0.000000 0.000000 0.024821 0.000000
# 6 0.000000 0.000000 0.000000 0.000000 0.000000 0.036682
#
#
# Mechanical properties :
#
#
# Convention : Reuss Voigt Hill
#
# Bulk Modulus (GPa) = 92.40382 94.09301 93.24842
# Shear Modulus (GPa) = 24.81812 29.47555 27.14684
#
# Velocity S-wave (km/s) = 3.64421 3.97146 3.81135
# Velocity P-wave (km/s) = 8.19468 8.44865 8.32263
#
# Compressibility (1/GPa) = 0.01082206
#
# Stress axis : x y z
#
# Youngs Moduli (GPa) = 54.56124 94.63917 76.89435
#
# Poissons Ratio (x) = 0.71788 0.65883
# Poissons Ratio (y) = 0.41387 -0.04728
# Poissons Ratio (z) = 0.46748 -0.05819
#
# Static dielectric constant tensor:
#      x y z
#    x 1.618260 0.000000 0.000000 
#    y 0.000000 1.638190 0.000000 
#    z 0.000000 0.000000 1.664390 
# 
# From -- ./inp_files/45130.got.cif
#   From: 2010.05.17/outbox.cif.g08.bks.cpg/sg65_23_cif.got.tgz:45130.got - 2010.06.03 17:01:31.
