data_PCOD9487191
_publ_section_title
;
Structure prediction by ZEFSAII (Michael W. Deem and Ramdas Pophale) SiO2 
 PCOD9487191
Probable space group: C M M M
;
_chemical_formula_sum "Si O2"
_cell_formula_units_Z 120
_cell_length_a 29.210565
_cell_length_b 8.947622
_cell_length_c 29.198488
_cell_angle_alpha 90.000000
_cell_angle_beta 90.000000
_cell_angle_gamma 90.000000
_cell_volume 7631.465562
_symmetry_space_group_name_H-M "C M M M"
_symmetry_group_IT_number 65
_symmetry_cell_setting 'orthorhombic'
loop_
_space_group_symop_operation_xyz
x,y,z
-x,-y,z
x,-y,-z
-x,y,-z
-x,-y,-z
x,y,-z
-x,y,z
x,-y,z
1/2+x,1/2+y,z
1/2-x,1/2-y,z
1/2+x,1/2-y,-z
1/2-x,1/2+y,-z
1/2-x,1/2-y,-z
1/2+x,1/2+y,-z
1/2-x,1/2+y,z
1/2+x,1/2-y,z
loop_
_atom_site_type_symbol
_atom_site_label
_atom_site_fract_x
_atom_site_fract_y
_atom_site_fract_z
Si Si1 0.054384 0.678063 0.310375
Si Si2 0.944393 0.828338 0.406028
Si Si3 0.395635 0.182076 0.050405
Si Si4 0.108826 0.821706 0.773209
Si Si5 0.055827 0.672927 0.500000
Si Si6 0.298555 0.178617 0.195070
Si Si7 0.945655 0.678324 0.142999
Si Si8 0.297816 0.821769 0.913789
O O1 0.060363 0.500000 0.307075
O O2 0.067928 0.735987 0.360767
O O3 0.083237 0.759944 0.271522
O O4 0.000000 0.709788 0.304078
O O5 0.928937 0.754336 0.453556
O O6 0.000000 0.828671 0.407487
O O7 0.929336 0.000000 0.402477
O O8 0.426793 0.225950 0.093311
O O9 0.343317 0.229356 0.060114
O O10 0.395800 0.000000 0.050263
O O11 0.410706 0.232018 0.000000
O O12 0.159191 0.751644 0.778645
O O13 0.080091 0.765521 0.817108
O O14 0.111153 0.000000 0.772378
O O15 0.069468 0.500000 0.500000
O O16 0.000000 0.676447 0.500000
O O17 0.250000 0.250000 0.208312
O O18 0.304669 0.208912 0.140459
O O19 0.298095 0.000000 0.201026
O O20 0.935891 0.500000 0.148485
O O21 0.000000 0.698563 0.145908
O O22 0.250000 0.750000 0.928512
O O23 0.294207 0.000000 0.919140
#
# Coordination Sequence:
#
# PCOD9487191 Si02
#       8
#    16  16  16  16   8  16  16  16
#     4  10  20  33  48  67  94 129 167 208 252 294
#     4   9  16  26  40  60  88 122 163 210 254 294
#     4   9  17  31  50  72  96 120 149 189 235 281
#     4  12  23  34  51  73  97 126 159 195 239 287
#     4   9  15  23  37  57  83 121 168 211 250 293
#     4  10  19  34  54  76 100 123 152 188 230 280
#     4  10  20  35  53  71  92 121 158 199 241 284
#     4   9  17  30  49  71  96 120 144 178 222 274
#
# _framework density 15.724371
#
# number of rings (size 3 to 8) (size 9 to 14) (size 15 to 20)
#    0.000    2.200    1.333    3.000    0.000    6.133 
#    0.000    1.333    0.000    1.200    0.000    0.933 
#    0.000    0.000    0.000    0.600    0.000    8.467 
#
# Total GULP energy -334740.685185 kJ/mol
# GULP energy per Si atom -5579.011420 kJ/mol
# Density = 1.568858 g / cm^3
# Si number density = 15.724371 Si / 1000 Ang^3
#
#
#
# Elastic Constant Matrix: (Units=GPa)
#
#
# Indices 1 2 3 4 5 6 
#
# 1 65.0993 44.1082 53.0265 0.0000 0.0000 0.0000
# 2 44.1082 73.6689 53.7360 0.0000 0.0000 0.0000
# 3 53.0265 53.7360 124.3789 0.0000 0.0000 0.0000
# 4 0.0000 0.0000 0.0000 11.2116 0.0000 0.0000
# 5 0.0000 0.0000 0.0000 0.0000 2.8394 0.0000
# 6 0.0000 0.0000 0.0000 0.0000 0.0000 21.2934
#
#
#
# Elastic Compliance Matrix: (Units=1/GPa)
#
#
# Indices 1 2 3 4 5 6 
#
# 1 0.029775 -0.012511 -0.007289 0.000000 0.000000 0.000000
# 2 -0.012511 0.025077 -0.005501 0.000000 0.000000 0.000000
# 3 -0.007289 -0.005501 0.013524 0.000000 0.000000 0.000000
# 4 0.000000 0.000000 0.000000 0.089193 0.000000 0.000000
# 5 0.000000 0.000000 0.000000 0.000000 0.352186 0.000000
# 6 0.000000 0.000000 0.000000 0.000000 0.000000 0.046963
#
#
# Mechanical properties :
#
#
# Convention : Reuss Voigt Hill
#
# Bulk Modulus (GPa) = 56.25648 62.76540 59.51094
# Shear Modulus (GPa) = 8.15337 14.55397 11.35367
#
# Velocity S-wave (km/s) = 2.27957 3.04561 2.69000
# Velocity P-wave (km/s) = 6.54086 7.23674 6.89758
#
# Compressibility (1/GPa) = 0.01777573
#
# Stress axis : x y z
#
# Youngs Moduli (GPa) = 33.58535 39.87722 73.94336
#
# Poissons Ratio (x) = 0.49889 0.53897
# Poissons Ratio (y) = 0.42017 0.40673
# Poissons Ratio (z) = 0.24480 0.21935
#
# Static dielectric constant tensor:
#      x y z
#    x 1.506070 0.000000 0.000000 
#    y 0.000000 1.527920 0.000000 
#    z 0.000000 0.000000 1.521810 
# 
# From -- ./inp_files/76116.got.cif
#   From: 2010.05.17/outbox.cif.g08.bks.cpg/sg65_39_cif.got.tgz:76116.got - 2010.06.03 17:01:31.
