data_PCOD9487380
_publ_section_title
;
Structure prediction by ZEFSAII (Michael W. Deem and Ramdas Pophale) SiO2 
 PCOD9487380
Probable space group: C M M M
;
_chemical_formula_sum "Si O2"
_cell_formula_units_Z 72
_cell_length_a 18.545673
_cell_length_b 15.972005
_cell_length_c 13.458205
_cell_angle_alpha 90.000000
_cell_angle_beta 90.000000
_cell_angle_gamma 90.000000
_cell_volume 3986.476192
_symmetry_space_group_name_H-M "C M M M"
_symmetry_group_IT_number 65
_symmetry_cell_setting 'orthorhombic'
loop_
_space_group_symop_operation_xyz
x,y,z
-x,-y,z
x,-y,-z
-x,y,-z
-x,-y,-z
x,y,-z
-x,y,z
x,-y,z
1/2+x,1/2+y,z
1/2-x,1/2-y,z
1/2+x,1/2-y,-z
1/2-x,1/2+y,-z
1/2-x,1/2-y,-z
1/2+x,1/2+y,-z
1/2-x,1/2+y,z
1/2+x,1/2-y,z
loop_
_atom_site_type_symbol
_atom_site_label
_atom_site_fract_x
_atom_site_fract_y
_atom_site_fract_z
Si Si1 0.668008 0.661021 0.316158
Si Si2 0.914165 0.595264 0.198751
Si Si3 0.836672 0.756119 0.109816
Si Si4 0.832348 0.653401 0.384693
Si Si5 0.080864 0.000000 0.381628
O O1 0.649921 0.682442 0.201965
O O2 0.752591 0.642942 0.336812
O O3 0.652270 0.747000 0.375552
O O4 0.622656 0.582678 0.349834
O O5 0.897844 0.500000 0.166736
O O6 0.871954 0.666684 0.137738
O O7 0.887953 0.606861 0.312705
O O8 0.000000 0.608343 0.191061
O O9 0.750000 0.750000 0.107714
O O10 0.861391 0.782280 0.000000
O O11 0.832483 0.628241 0.500000
O O12 0.077699 0.000000 0.500000
O O13 0.000000 0.000000 0.340912
#
# Coordination Sequence:
#
# PCOD9487380 Si02
#       5
#    16  16  16  16   8
#     4  10  19  37  57  84 114 150 193 241 287 342
#     4  10  22  38  56  84 121 155 189 236 289 344
#     4  10  20  39  63  86 111 147 194 242 294 346
#     4  10  19  34  57  84 114 153 194 235 285 344
#     4  11  24  38  57  87 122 158 194 235 285 345
#
# _framework density 18.061063999999998
#
# number of rings (size 3 to 8) (size 9 to 14) (size 15 to 20)
#    0.000    1.889    4.444    2.667    1.556    5.333 
#    0.000    2.778    0.000    0.667    0.000    0.000 
#    0.000    0.000    0.000    0.000    0.000    0.000 
#
# Total GULP energy -200792.475286 kJ/mol
# GULP energy per Si atom -5577.568758 kJ/mol
# Density = 1.801996 g / cm^3
# Si number density = 18.061064 Si / 1000 Ang^3
#
#
#
# Elastic Constant Matrix: (Units=GPa)
#
#
# Indices 1 2 3 4 5 6 
#
# 1 85.2390 74.8011 22.3998 0.0000 0.0000 0.0000
# 2 74.8011 96.3653 25.8843 0.0000 0.0000 0.0000
# 3 22.3998 25.8843 128.4589 0.0000 0.0000 0.0000
# 4 0.0000 0.0000 0.0000 8.3013 0.0000 0.0000
# 5 0.0000 0.0000 0.0000 0.0000 55.2256 0.0000
# 6 0.0000 0.0000 0.0000 0.0000 0.0000 20.9890
#
#
#
# Elastic Compliance Matrix: (Units=1/GPa)
#
#
# Indices 1 2 3 4 5 6 
#
# 1 0.036856 -0.028420 -0.000700 0.000000 0.000000 0.000000
# 2 -0.028420 0.032887 -0.001671 0.000000 0.000000 0.000000
# 3 -0.000700 -0.001671 0.008243 0.000000 0.000000 0.000000
# 4 0.000000 0.000000 0.000000 0.120464 0.000000 0.000000
# 5 0.000000 0.000000 0.000000 0.000000 0.018108 0.000000
# 6 0.000000 0.000000 0.000000 0.000000 0.000000 0.047644
#
#
# Mechanical properties :
#
#
# Convention : Reuss Voigt Hill
#
# Bulk Modulus (GPa) = 60.96343 61.80374 61.38358
# Shear Modulus (GPa) = 15.09428 29.36838 22.23133
#
# Velocity S-wave (km/s) = 2.89405 4.03682 3.51222
# Velocity P-wave (km/s) = 6.70781 7.48475 7.10690
#
# Compressibility (1/GPa) = 0.01640328
#
# Stress axis : x y z
#
# Youngs Moduli (GPa) = 27.13268 30.40750 121.31025
#
# Poissons Ratio (x) = 0.86419 0.08492
# Poissons Ratio (y) = 0.77112 0.20269
# Poissons Ratio (z) = 0.01899 0.05081
#
# Static dielectric constant tensor:
#      x y z
#    x 1.606990 0.000000 0.000000 
#    y 0.000000 1.604060 0.000000 
#    z 0.000000 0.000000 1.642290 
# 
# From -- ./inp_files/39818.got.cif
#   From: 2010.05.17/outbox.cif.g08.bks.cpg/sg65_20_cif.got.tgz:39818.got - 2010.06.03 17:01:31.
