data_PCOD9487223
_publ_section_title
;
Structure prediction by ZEFSAII (Michael W. Deem and Ramdas Pophale) SiO2 
 PCOD9487223
Probable space group: C M M M
;
_chemical_formula_sum "Si O2"
_cell_formula_units_Z 88
_cell_length_a 17.004590
_cell_length_b 23.006230
_cell_length_c 12.338120
_cell_angle_alpha 90.000000
_cell_angle_beta 90.000000
_cell_angle_gamma 90.000000
_cell_volume 4826.814538
_symmetry_space_group_name_H-M "C M M M"
_symmetry_group_IT_number 65
_symmetry_cell_setting 'orthorhombic'
loop_
_space_group_symop_operation_xyz
x,y,z
-x,-y,z
x,-y,-z
-x,y,-z
-x,-y,-z
x,y,-z
-x,y,z
x,-y,z
1/2+x,1/2+y,z
1/2-x,1/2-y,z
1/2+x,1/2-y,-z
1/2-x,1/2+y,-z
1/2-x,1/2-y,-z
1/2+x,1/2+y,-z
1/2-x,1/2+y,z
1/2+x,1/2-y,z
loop_
_atom_site_type_symbol
_atom_site_label
_atom_site_fract_x
_atom_site_fract_y
_atom_site_fract_z
Si Si1 0.092057 0.174050 0.679281
Si Si2 0.594577 0.804266 0.620668
Si Si3 0.796605 0.935352 0.374970
Si Si4 0.690716 0.699040 0.875656
Si Si5 0.088917 0.569465 0.000000
Si Si6 0.682707 0.885448 0.793058
O O1 0.113214 0.235278 0.622689
O O2 0.143927 0.118629 0.644799
O O3 0.114591 0.189456 0.803009
O O4 0.000000 0.162648 0.663065
O O5 0.615301 0.826554 0.500000
O O6 0.500000 0.809182 0.634468
O O7 0.637731 0.838739 0.716617
O O8 0.770852 0.931719 0.500000
O O9 0.724138 0.928354 0.292392
O O10 0.832290 0.000000 0.359067
O O11 0.750000 0.750000 0.837838
O O12 0.744969 0.643213 0.858085
O O13 0.671296 0.710257 0.000000
O O14 0.128661 0.589689 0.887858
O O15 0.089694 0.500000 0.000000
O O16 0.000000 0.591608 0.000000
#
# Coordination Sequence:
#
# PCOD9487223 Si02
#       6
#    16  16  16  16   8  16
#     4  10  21  36  56  84 119 153 190 236 288 345
#     4  10  20  34  54  84 119 151 182 224 285 350
#     4  10  22  38  58  83 111 151 200 243 284 334
#     4  10  19  34  54  82 114 148 184 228 281 343
#     4  11  24  40  59  84 115 153 195 236 284 340
#     4  11  20  37  58  84 111 147 186 236 286 338
#
# _framework density 18.231484999999999
#
# number of rings (size 3 to 8) (size 9 to 14) (size 15 to 20)
#    0.000    1.727    2.727    2.182    0.000    1.818 
#    0.000    3.636    0.000    0.000    0.000   10.182 
#    0.000    0.000    0.000    0.000    0.000    0.000 
#
# Total GULP energy -245175.940328 kJ/mol
# GULP energy per Si atom -5572.180462 kJ/mol
# Density = 1.818999 g / cm^3
# Si number density = 18.231485 Si / 1000 Ang^3
#
#
#
# Elastic Constant Matrix: (Units=GPa)
#
#
# Indices 1 2 3 4 5 6 
#
# 1 51.1797 28.0775 46.3965 0.0000 0.0000 0.0000
# 2 28.0775 87.7743 39.7888 0.0000 0.0000 0.0000
# 3 46.3965 39.7888 118.4763 0.0000 0.0000 0.0000
# 4 0.0000 0.0000 0.0000 24.0152 0.0000 0.0000
# 5 0.0000 0.0000 0.0000 0.0000 16.5027 0.0000
# 6 0.0000 0.0000 0.0000 0.0000 0.0000 22.4518
#
#
#
# Elastic Compliance Matrix: (Units=1/GPa)
#
#
# Indices 1 2 3 4 5 6 
#
# 1 0.032350 -0.005432 -0.010844 0.000000 0.000000 0.000000
# 2 -0.005432 0.014351 -0.002692 0.000000 0.000000 0.000000
# 3 -0.010844 -0.002692 0.013591 0.000000 0.000000 0.000000
# 4 0.000000 0.000000 0.000000 0.041640 0.000000 0.000000
# 5 0.000000 0.000000 0.000000 0.000000 0.060596 0.000000
# 6 0.000000 0.000000 0.000000 0.000000 0.000000 0.044540
#
#
# Mechanical properties :
#
#
# Convention : Reuss Voigt Hill
#
# Bulk Modulus (GPa) = 44.73341 53.99510 49.36426
# Shear Modulus (GPa) = 19.80531 22.13844 20.97187
#
# Velocity S-wave (km/s) = 3.29952 3.48846 3.39530
# Velocity P-wave (km/s) = 6.25343 6.77543 6.51966
#
# Compressibility (1/GPa) = 0.02235466
#
# Stress axis : x y z
#
# Youngs Moduli (GPa) = 30.91199 69.68151 73.57650
#
# Poissons Ratio (x) = 0.37854 0.79787
# Poissons Ratio (y) = 0.16793 0.19808
# Poissons Ratio (z) = 0.33521 0.18760
#
# Static dielectric constant tensor:
#      x y z
#    x 1.613650 0.000000 0.000000 
#    y 0.000000 1.651710 0.000000 
#    z 0.000000 0.000000 1.653200 
# 
# From -- ./inp_files/26827.got.cif
#   From: 2010.05.17/outbox.cif.g08.bks.cpg/sg65_14_cif.got.tgz:26827.got - 2010.06.03 17:01:31.
