data_PCOD9487919
_publ_section_title
;
Structure prediction by ZEFSAII (Michael W. Deem and Ramdas Pophale) SiO2 
 PCOD9487919
Probable space group: C M M M
;
_chemical_formula_sum "Si O2"
_cell_formula_units_Z 88
_cell_length_a 8.662150
_cell_length_b 35.332712
_cell_length_c 19.471235
_cell_angle_alpha 90.000000
_cell_angle_beta 90.000000
_cell_angle_gamma 90.000000
_cell_volume 5959.312663
_symmetry_space_group_name_H-M "C M M M"
_symmetry_group_IT_number 65
_symmetry_cell_setting 'orthorhombic'
loop_
_space_group_symop_operation_xyz
x,y,z
-x,-y,z
x,-y,-z
-x,y,-z
-x,-y,-z
x,y,-z
-x,y,z
x,-y,z
1/2+x,1/2+y,z
1/2-x,1/2-y,z
1/2+x,1/2-y,-z
1/2-x,1/2+y,-z
1/2-x,1/2-y,-z
1/2+x,1/2+y,-z
1/2-x,1/2+y,z
1/2+x,1/2-y,z
loop_
_atom_site_type_symbol
_atom_site_label
_atom_site_fract_x
_atom_site_fract_y
_atom_site_fract_z
Si Si1 0.183760 0.706907 0.280990
Si Si2 0.680473 0.651906 0.835241
Si Si3 0.824315 0.500000 0.082956
Si Si4 0.313813 0.580952 0.920132
Si Si5 0.174699 0.711876 0.918604
Si Si6 0.685231 0.292715 0.574883
O O1 0.250000 0.750000 0.271253
O O2 0.238129 0.676411 0.224355
O O3 0.242202 0.691952 0.355191
O O4 0.000000 0.710191 0.281121
O O5 0.500000 0.648864 0.818442
O O6 0.739556 0.611475 0.863259
O O7 0.710673 0.678352 0.900966
O O8 0.739545 0.538997 0.100668
O O9 0.000000 0.500000 0.108467
O O10 0.828701 0.500000 0.000000
O O11 0.500000 0.582620 0.921576
O O12 0.261578 0.588356 0.000000
O O13 0.250000 0.750000 0.889982
O O14 0.000000 0.705960 0.892174
O O15 0.163212 0.715652 0.000000
O O16 0.722853 0.310237 0.500000
O O17 0.500000 0.291709 0.581475
O O18 0.750000 0.250000 0.572234
#
# Coordination Sequence:
#
# PCOD9487919 Si02
#       6
#    16  16   8  16  16  16
#     4  11  21  32  45  61  85 116 149 183 219 258
#     4  11  21  32  45  61  83 110 142 178 215 255
#     4   9  17  29  47  69  89 107 130 167 212 257
#     4   9  18  32  49  66  84 109 140 174 214 261
#     4  10  20  32  44  57  75 102 138 179 218 254
#     4   9  16  27  44  64  84 107 139 178 216 254
#
# _framework density 14.766804
#
# number of rings (size 3 to 8) (size 9 to 14) (size 15 to 20)
#    0.000    2.091    0.000    5.727    0.000    5.455 
#    0.000    1.818    0.000    0.000    0.000    0.000 
#    0.000    0.000    0.000    0.818    0.000   15.818 
#
# Total GULP energy -244958.576422 kJ/mol
# GULP energy per Si atom -5567.240373 kJ/mol
# Density = 1.473319 g / cm^3
# Si number density = 14.766804 Si / 1000 Ang^3
#
#
#
# Elastic Constant Matrix: (Units=GPa)
#
#
# Indices 1 2 3 4 5 6 
#
# 1 57.3042 20.7197 37.0797 0.0000 0.0000 0.0000
# 2 20.7197 92.9944 38.2026 0.0000 0.0000 0.0000
# 3 37.0797 38.2026 91.8455 0.0000 0.0000 0.0000
# 4 0.0000 0.0000 0.0000 0.2733 0.0000 0.0000
# 5 0.0000 0.0000 0.0000 0.0000 20.4462 0.0000
# 6 0.0000 0.0000 0.0000 0.0000 0.0000 14.6096
#
#
#
# Elastic Compliance Matrix: (Units=1/GPa)
#
#
# Indices 1 2 3 4 5 6 
#
# 1 0.023826 -0.001637 -0.008938 0.000000 0.000000 0.000000
# 2 -0.001637 0.013082 -0.004781 0.000000 0.000000 0.000000
# 3 -0.008938 -0.004781 0.016485 0.000000 0.000000 0.000000
# 4 0.000000 0.000000 0.000000 3.658843 0.000000 0.000000
# 5 0.000000 0.000000 0.000000 0.000000 0.048909 0.000000
# 6 0.000000 0.000000 0.000000 0.000000 0.000000 0.068448
#
#
# Mechanical properties :
#
#
# Convention : Reuss Voigt Hill
#
# Bulk Modulus (GPa) = 44.08824 48.23870 46.16347
# Shear Modulus (GPa) = 1.29270 16.80864 9.05067
#
# Velocity S-wave (km/s) = 0.93665 3.37749 2.47838
# Velocity P-wave (km/s) = 5.57592 6.92444 6.28644
#
# Compressibility (1/GPa) = 0.02268179
#
# Stress axis : x y z
#
# Youngs Moduli (GPa) = 41.97054 76.44159 60.66169
#
# Poissons Ratio (x) = 0.12511 0.54221
# Poissons Ratio (y) = 0.06869 0.29000
# Poissons Ratio (z) = 0.37515 0.36543
#
# Static dielectric constant tensor:
#      x y z
#    x 1.517500 0.000000 0.000000 
#    y 0.000000 1.182210 0.000000 
#    z 0.000000 0.000000 1.540650 
# 
# From -- ./inp_files/60633.got.cif
#   From: 2010.05.17/outbox.cif.g08.bks.cpg/sg65_31_cif.got.tgz:60633.got - 2010.06.03 17:01:31.
