data_PCOD9487069
_publ_section_title
;
Structure prediction by ZEFSAII (Michael W. Deem and Ramdas Pophale) SiO2 
 PCOD9487069
Probable space group: C M M M
;
_chemical_formula_sum "Si O2"
_cell_formula_units_Z 128
_cell_length_a 13.786207
_cell_length_b 19.075110
_cell_length_c 23.173891
_cell_angle_alpha 90.000000
_cell_angle_beta 90.000000
_cell_angle_gamma 90.000000
_cell_volume 6094.117255
_symmetry_space_group_name_H-M "C M M M"
_symmetry_group_IT_number 65
_symmetry_cell_setting 'orthorhombic'
loop_
_space_group_symop_operation_xyz
x,y,z
-x,-y,z
x,-y,-z
-x,y,-z
-x,-y,-z
x,y,-z
-x,y,z
x,-y,z
1/2+x,1/2+y,z
1/2-x,1/2-y,z
1/2+x,1/2-y,-z
1/2-x,1/2+y,-z
1/2-x,1/2-y,-z
1/2+x,1/2+y,-z
1/2-x,1/2+y,z
1/2+x,1/2-y,z
loop_
_atom_site_type_symbol
_atom_site_label
_atom_site_fract_x
_atom_site_fract_y
_atom_site_fract_z
Si Si1 0.382636 0.078546 0.736574
Si Si2 0.118814 0.197069 0.565657
Si Si3 0.618411 0.420953 0.657497
Si Si4 0.616667 0.800943 0.340468
Si Si5 0.346704 0.717934 0.881471
Si Si6 0.699008 0.421020 0.068761
Si Si7 0.616303 0.681881 0.245157
Si Si8 0.106821 0.625978 0.133871
O O1 0.500000 0.075050 0.730536
O O2 0.345998 0.125911 0.683842
O O3 0.368692 0.114111 0.798748
O O4 0.344411 0.000000 0.736861
O O5 0.152266 0.192171 0.500000
O O6 0.148329 0.132470 0.606803
O O7 0.147564 0.268416 0.598923
O O8 0.000000 0.196195 0.564720
O O9 0.500000 0.421207 0.655411
O O10 0.652420 0.500000 0.649385
O O11 0.640733 0.388681 0.720394
O O12 0.500000 0.805721 0.343449
O O13 0.636705 0.743700 0.290673
O O14 0.250000 0.750000 0.909594
O O15 0.369071 0.644743 0.912764
O O16 0.332231 0.693955 0.815216
O O17 0.403320 0.790754 0.877351
O O18 0.667207 0.500000 0.086006
O O19 0.804443 0.405674 0.097455
O O20 0.708322 0.419802 0.000000
O O21 0.500000 0.683189 0.233471
O O22 0.000000 0.593861 0.122848
#
# Coordination Sequence:
#
# PCOD9487069 Si02
#       8
#    16  16  16  16  16  16  16  16
#     4   9  15  23  40  67  94 117 144 188 250 302
#     4   8  13  20  31  49  78 121 163 192 228 282
#     4   8  14  22  34  57  86 115 152 199 243 282
#     4   8  13  22  37  57  85 118 152 191 235 286
#     4  10  20  32  52  76 100 131 164 198 247 302
#     4  10  23  41  55  71 103 143 172 197 241 301
#     4   9  15  27  46  66  91 122 159 201 244 287
#     4  10  19  33  56  83 103 123 163 217 258 294
#
# _framework density 21.003862000000002
#
# number of rings (size 3 to 8) (size 9 to 14) (size 15 to 20)
#    0.000    3.000    1.250    2.250    0.000    4.000 
#    0.000    1.875    0.000    2.625    0.000    6.125 
#    0.000    8.000    0.000    0.000    4.000    0.250 
#
# Total GULP energy -356804.172656 kJ/mol
# GULP energy per Si atom -5575.065198 kJ/mol
# Density = 2.095606 g / cm^3
# Si number density = 21.003862 Si / 1000 Ang^3
#
#
#
# Elastic Constant Matrix: (Units=GPa)
#
#
# Indices 1 2 3 4 5 6 
#
# 1 48.5462 9.0846 -7.4573 0.0000 0.0000 0.0000
# 2 9.0846 159.9801 44.4878 0.0000 0.0000 0.0000
# 3 -7.4573 44.4878 85.2906 0.0000 0.0000 0.0000
# 4 0.0000 0.0000 0.0000 22.3108 0.0000 0.0000
# 5 0.0000 0.0000 0.0000 0.0000 16.8964 0.0000
# 6 0.0000 0.0000 0.0000 0.0000 0.0000 13.6673
#
#
#
# Elastic Compliance Matrix: (Units=1/GPa)
#
#
# Indices 1 2 3 4 5 6 
#
# 1 0.021430 -0.002033 0.002934 0.000000 0.000000 0.000000
# 2 -0.002033 0.007504 -0.004092 0.000000 0.000000 0.000000
# 3 0.002934 -0.004092 0.014115 0.000000 0.000000 0.000000
# 4 0.000000 0.000000 0.000000 0.044821 0.000000 0.000000
# 5 0.000000 0.000000 0.000000 0.000000 0.059184 0.000000
# 6 0.000000 0.000000 0.000000 0.000000 0.000000 0.073167
#
#
# Mechanical properties :
#
#
# Convention : Reuss Voigt Hill
#
# Bulk Modulus (GPa) = 27.27154 42.89415 35.08284
# Shear Modulus (GPa) = 20.93567 27.08833 24.01200
#
# Velocity S-wave (km/s) = 3.16057 3.59511 3.38482
# Velocity P-wave (km/s) = 5.13139 6.13999 5.65821
#
# Compressibility (1/GPa) = 0.03666826
#
# Stress axis : x y z
#
# Youngs Moduli (GPa) = 46.66343 133.26040 70.84411
#
# Poissons Ratio (x) = 0.27090 -0.20786
# Poissons Ratio (y) = 0.09486 0.28989
# Poissons Ratio (z) = -0.13691 0.54529
#
# Static dielectric constant tensor:
#      x y z
#    x 1.881250 0.000000 0.000000 
#    y 0.000000 1.784000 0.000000 
#    z 0.000000 0.000000 1.699670 
# 
# From -- ./inp_files/70653.got.cif
#   From: 2010.05.17/outbox.cif.g08.bks.cpg/sg65_36_cif.got.tgz:70653.got - 2010.06.03 17:01:31.
