data_PCOD9487289
_publ_section_title
;
Structure prediction by ZEFSAII (Michael W. Deem and Ramdas Pophale) SiO2 
 PCOD9487289
Probable space group: C M M M
;
_chemical_formula_sum "Si O2"
_cell_formula_units_Z 96
_cell_length_a 8.683096
_cell_length_b 19.077097
_cell_length_c 31.564379
_cell_angle_alpha 90.000000
_cell_angle_beta 90.000000
_cell_angle_gamma 90.000000
_cell_volume 5228.584606
_symmetry_space_group_name_H-M "C M M M"
_symmetry_group_IT_number 65
_symmetry_cell_setting 'orthorhombic'
loop_
_space_group_symop_operation_xyz
x,y,z
-x,-y,z
x,-y,-z
-x,y,-z
-x,-y,-z
x,y,-z
-x,y,z
x,-y,z
1/2+x,1/2+y,z
1/2-x,1/2-y,z
1/2+x,1/2-y,-z
1/2-x,1/2+y,-z
1/2-x,1/2-y,-z
1/2+x,1/2+y,-z
1/2-x,1/2+y,z
1/2+x,1/2-y,z
loop_
_atom_site_type_symbol
_atom_site_label
_atom_site_fract_x
_atom_site_fract_y
_atom_site_fract_z
Si Si1 0.683846 0.416624 0.547846
Si Si2 0.312323 0.419548 0.205358
Si Si3 0.685610 0.919034 0.048962
Si Si4 0.685131 0.671643 0.713816
Si Si5 0.182657 0.327613 0.623649
Si Si6 0.684547 0.671909 0.124489
O O1 0.729095 0.395174 0.500000
O O2 0.500000 0.404733 0.552022
O O3 0.709492 0.500000 0.551416
O O4 0.770467 0.375817 0.584486
O O5 0.500000 0.420789 0.204957
O O6 0.259233 0.500000 0.203884
O O7 0.266405 0.379366 0.248164
O O8 0.262976 0.375088 0.164469
O O9 0.500000 0.914349 0.051953
O O10 0.760843 0.866429 0.081880
O O11 0.728772 0.000000 0.058424
O O12 0.727675 0.904665 0.000000
O O13 0.500000 0.675172 0.712785
O O14 0.750000 0.750000 0.720820
O O15 0.745676 0.646957 0.668130
O O16 0.250000 0.250000 0.616478
O O17 0.000000 0.323251 0.628072
O O18 0.500000 0.675206 0.125197
O O19 0.750000 0.750000 0.127407
#
# Coordination Sequence:
#
# PCOD9487289 Si02
#       6
#    16  16  16  16  16  16
#     4   9  19  37  59  81 107 141 180 221 268 323
#     4   9  19  35  55  80 107 137 176 221 269 322
#     4   9  19  37  59  82 110 143 179 222 272 324
#     4  10  19  34  56  78 105 140 176 217 266 320
#     4  11  22  36  55  80 111 144 181 224 268 317
#     4  11  22  36  56  81 111 145 183 226 270 320
#
# _framework density 18.360610000000001
#
# number of rings (size 3 to 8) (size 9 to 14) (size 15 to 20)
#    0.000    2.167    0.000    5.500    0.000    3.333 
#    0.000    5.833    0.000    5.500    0.000    0.000 
#    0.000    0.000    0.000    0.000    0.000    0.000 
#
# Total GULP energy -268037.149064 kJ/mol
# GULP energy per Si atom -5584.107272 kJ/mol
# Density = 1.831882 g / cm^3
# Si number density = 18.360610 Si / 1000 Ang^3
#
#
#
# Elastic Constant Matrix: (Units=GPa)
#
#
# Indices 1 2 3 4 5 6 
#
# 1 61.3628 44.7548 53.4719 0.0000 0.0000 0.0000
# 2 44.7548 119.8690 106.4867 0.0000 0.0000 0.0000
# 3 53.4719 106.4867 159.5611 0.0000 0.0000 0.0000
# 4 0.0000 0.0000 0.0000 40.5165 0.0000 0.0000
# 5 0.0000 0.0000 0.0000 0.0000 24.7768 0.0000
# 6 0.0000 0.0000 0.0000 0.0000 0.0000 18.1629
#
#
#
# Elastic Compliance Matrix: (Units=1/GPa)
#
#
# Indices 1 2 3 4 5 6 
#
# 1 0.023947 -0.004450 -0.005055 0.000000 0.000000 0.000000
# 2 -0.004450 0.021318 -0.012735 0.000000 0.000000 0.000000
# 3 -0.005055 -0.012735 0.016461 0.000000 0.000000 0.000000
# 4 0.000000 0.000000 0.000000 0.024681 0.000000 0.000000
# 5 0.000000 0.000000 0.000000 0.000000 0.040360 0.000000
# 6 0.000000 0.000000 0.000000 0.000000 0.000000 0.055057
#
#
# Mechanical properties :
#
#
# Convention : Reuss Voigt Hill
#
# Bulk Modulus (GPa) = 57.99186 83.35773 70.67480
# Shear Modulus (GPa) = 21.54667 25.76322 23.65494
#
# Velocity S-wave (km/s) = 3.42939 3.74997 3.59326
# Velocity P-wave (km/s) = 6.88001 8.01552 7.46937
#
# Compressibility (1/GPa) = 0.01724380
#
# Stress axis : x y z
#
# Youngs Moduli (GPa) = 41.75807 46.90949 60.75108
#
# Poissons Ratio (x) = 0.20876 0.30711
# Poissons Ratio (y) = 0.18583 0.77369
# Poissons Ratio (z) = 0.21110 0.59741
#
# Static dielectric constant tensor:
#      x y z
#    x 1.621420 0.000000 0.000000 
#    y 0.000000 1.604460 0.000000 
#    z 0.000000 0.000000 1.620880 
# 
# From -- ./inp_files/73168.got.cif
#   From: 2010.05.17/outbox.cif.g08.bks.cpg/sg65_37_cif.got.tgz:73168.got - 2010.06.03 17:01:31.
