data_PCOD9487890
_publ_section_title
;
Structure prediction by ZEFSAII (Michael W. Deem and Ramdas Pophale) SiO2 
 PCOD9487890
Probable space group: C M M M
;
_chemical_formula_sum "Si O2"
_cell_formula_units_Z 88
_cell_length_a 13.514398
_cell_length_b 25.556056
_cell_length_c 14.482335
_cell_angle_alpha 90.000000
_cell_angle_beta 90.000000
_cell_angle_gamma 90.000000
_cell_volume 5001.832281
_symmetry_space_group_name_H-M "C M M M"
_symmetry_group_IT_number 65
_symmetry_cell_setting 'orthorhombic'
loop_
_space_group_symop_operation_xyz
x,y,z
-x,-y,z
x,-y,-z
-x,y,-z
-x,-y,-z
x,y,-z
-x,y,z
x,-y,z
1/2+x,1/2+y,z
1/2-x,1/2-y,z
1/2+x,1/2-y,-z
1/2-x,1/2+y,-z
1/2-x,1/2-y,-z
1/2+x,1/2+y,-z
1/2-x,1/2+y,z
1/2+x,1/2-y,z
loop_
_atom_site_type_symbol
_atom_site_label
_atom_site_fract_x
_atom_site_fract_y
_atom_site_fract_z
Si Si1 0.610988 0.341942 0.713008
Si Si2 0.171652 0.371884 0.700494
Si Si3 0.635481 0.763350 0.395377
Si Si4 0.880585 0.339493 0.104788
Si Si5 0.000000 0.437609 0.391611
Si Si6 0.119571 0.219044 0.102823
O O1 0.500000 0.366854 0.714820
O O2 0.709930 0.372227 0.678571
O O3 0.598505 0.288893 0.653769
O O4 0.640096 0.320623 0.814818
O O5 0.128253 0.315733 0.665050
O O6 0.158725 0.373329 0.810829
O O7 0.099478 0.413816 0.653838
O O8 0.600822 0.771627 0.500000
O O9 0.750000 0.750000 0.401649
O O10 0.847022 0.278930 0.118822
O O11 0.000000 0.339806 0.110429
O O12 0.854888 0.355209 0.000000
O O13 0.000000 0.500000 0.382093
O O14 0.000000 0.423807 0.500000
O O15 0.000000 0.222339 0.101202
O O16 0.151018 0.202710 0.000000
#
# Coordination Sequence:
#
# PCOD9487890 Si02
#       6
#    16  16  16  16   8  16
#     4  10  20  31  47  77 116 150 181 215 254 323
#     4  11  20  35  56  77 105 142 182 225 277 324
#     4   9  18  30  44  68 103 144 181 213 257 319
#     4   9  16  27  46  74 107 146 190 226 264 315
#     4  11  26  46  67  85  99 127 180 244 296 336
#     4   8  14  25  40  65 110 159 194 221 246 294
#
# _framework density 17.593553
#
# number of rings (size 3 to 8) (size 9 to 14) (size 15 to 20)
#    0.000    2.455    2.727    1.636    1.273    1.818 
#    0.000    1.818    0.000    1.636    0.000    1.273 
#    0.000    0.000    0.000    6.182    0.000    0.000 
#
# Total GULP energy -245127.022396 kJ/mol
# GULP energy per Si atom -5571.068691 kJ/mol
# Density = 1.755351 g / cm^3
# Si number density = 17.593553 Si / 1000 Ang^3
#
#
#
# Elastic Constant Matrix: (Units=GPa)
#
#
# Indices 1 2 3 4 5 6 
#
# 1 145.2685 29.2038 33.4786 0.0000 0.0000 0.0000
# 2 29.2038 34.8525 25.6237 0.0000 0.0000 0.0000
# 3 33.4786 25.6237 106.3813 0.0000 0.0000 0.0000
# 4 0.0000 0.0000 0.0000 11.1862 0.0000 0.0000
# 5 0.0000 0.0000 0.0000 0.0000 -3.9466 0.0000
# 6 0.0000 0.0000 0.0000 0.0000 0.0000 13.9888
#
#
#
# Elastic Compliance Matrix: (Units=1/GPa)
#
#
# Indices 1 2 3 4 5 6 
#
# 1 0.008393 -0.006186 -0.001151 0.000000 0.000000 0.000000
# 2 -0.006186 0.039426 -0.007550 0.000000 0.000000 0.000000
# 3 -0.001151 -0.007550 0.011581 0.000000 0.000000 0.000000
# 4 0.000000 0.000000 0.000000 0.089396 0.000000 0.000000
# 5 0.000000 0.000000 0.000000 0.000000 -0.253382 0.000000
# 6 0.000000 0.000000 0.000000 0.000000 0.000000 0.071486
#
#
# Mechanical properties :
#
#
# Convention : Reuss Voigt Hill
#
# Bulk Modulus (GPa) = 33.75411 51.45718 42.60564
# Shear Modulus (GPa) = 763.44615 17.45876 390.45246
#
# Velocity S-wave (km/s) = 20.85371 3.15356 14.91345
# Velocity P-wave (km/s) = 24.47577 6.52466 17.91137
#
# Compressibility (1/GPa) = 0.02962603
#
# Stress axis : x y z
#
# Youngs Moduli (GPa) = 119.15077 25.36368 86.34904
#
# Poissons Ratio (x) = 0.15690 0.09940
# Poissons Ratio (y) = 0.73708 0.65191
# Poissons Ratio (z) = 0.13717 0.19149
#
# Static dielectric constant tensor:
#      x y z
#    x 1.705960 0.000000 0.000000 
#    y 0.000000 1.543000 0.000000 
#    z 0.000000 0.000000 1.647230 
# 
# From -- ./inp_files/40551.got.cif
#   From: 2010.05.17/outbox.cif.g08.bks.cpg/sg65_21_cif.got.tgz:40551.got - 2010.06.03 17:01:31.
