data_PCOD9487538
_publ_section_title
;
Structure prediction by ZEFSAII (Michael W. Deem and Ramdas Pophale) SiO2 
 PCOD9487538
Probable space group: C M M M
;
_chemical_formula_sum "Si O2"
_cell_formula_units_Z 80
_cell_length_a 14.895564
_cell_length_b 21.572873
_cell_length_c 13.513757
_cell_angle_alpha 90.000000
_cell_angle_beta 90.000000
_cell_angle_gamma 90.000000
_cell_volume 4342.512167
_symmetry_space_group_name_H-M "C M M M"
_symmetry_group_IT_number 65
_symmetry_cell_setting 'orthorhombic'
loop_
_space_group_symop_operation_xyz
x,y,z
-x,-y,z
x,-y,-z
-x,y,-z
-x,-y,-z
x,y,-z
-x,y,z
x,-y,z
1/2+x,1/2+y,z
1/2-x,1/2-y,z
1/2+x,1/2-y,-z
1/2-x,1/2+y,-z
1/2-x,1/2-y,-z
1/2+x,1/2+y,-z
1/2-x,1/2+y,z
1/2+x,1/2-y,z
loop_
_atom_site_type_symbol
_atom_site_label
_atom_site_fract_x
_atom_site_fract_y
_atom_site_fract_z
Si Si1 0.641750 0.750494 0.889978
Si Si2 0.599176 0.667507 0.704611
Si Si3 0.167108 0.201930 0.500000
Si Si4 0.102921 0.395864 0.112389
Si Si5 0.738394 0.069923 0.715640
Si Si6 0.737410 0.929515 0.500000
O O1 0.750000 0.750000 0.881628
O O2 0.603838 0.711089 0.800304
O O3 0.609129 0.821135 0.884362
O O4 0.618755 0.726306 0.000000
O O5 0.500000 0.638770 0.697228
O O6 0.615885 0.707063 0.604189
O O7 0.679755 0.618331 0.716921
O O8 0.250000 0.250000 0.500000
O O9 0.196703 0.129319 0.500000
O O10 0.169953 0.419585 0.195538
O O11 0.000000 0.414855 0.129654
O O12 0.128092 0.414560 0.000000
O O13 0.691013 0.076015 0.607220
O O14 0.773774 0.000000 0.722464
O O15 0.776745 0.000000 0.500000
#
# Coordination Sequence:
#
# PCOD9487538 Si02
#       6
#    16  16   8  16  16   8
#     4  10  19  35  58  82 112 150 187 228 285 348
#     4  11  22  36  57  85 118 152 188 230 284 346
#     4  10  21  35  58  86 119 150 189 244 292 331
#     4  10  21  37  58  84 112 145 189 239 292 351
#     4  10  21  38  59  81 110 150 193 236 282 335
#     4   8  18  37  57  77 108 153 191 221 273 343
#
# _framework density 18.422515000000001
#
# number of rings (size 3 to 8) (size 9 to 14) (size 15 to 20)
#    0.000    2.000    2.000    1.500    2.800    2.400 
#    0.000    1.500    0.000    7.800    0.000    2.800 
#    0.000    0.000    0.000    0.000    0.000    0.000 
#
# Total GULP energy -222847.920182 kJ/mol
# GULP energy per Si atom -5571.198005 kJ/mol
# Density = 1.838058 g / cm^3
# Si number density = 18.422515 Si / 1000 Ang^3
#
#
#
# Elastic Constant Matrix: (Units=GPa)
#
#
# Indices 1 2 3 4 5 6 
#
# 1 93.0192 10.8352 62.4510 0.0000 0.0000 0.0000
# 2 10.8352 49.8464 41.5562 0.0000 0.0000 0.0000
# 3 62.4510 41.5562 181.2747 0.0000 0.0000 0.0000
# 4 0.0000 0.0000 0.0000 26.1743 0.0000 0.0000
# 5 0.0000 0.0000 0.0000 0.0000 -13.3573 0.0000
# 6 0.0000 0.0000 0.0000 0.0000 0.0000 -9.6680
#
#
#
# Elastic Compliance Matrix: (Units=1/GPa)
#
#
# Indices 1 2 3 4 5 6 
#
# 1 0.014044 0.001213 -0.005116 0.000000 0.000000 0.000000
# 2 0.001213 0.024906 -0.006127 0.000000 0.000000 0.000000
# 3 -0.005116 -0.006127 0.008684 0.000000 0.000000 0.000000
# 4 0.000000 0.000000 0.000000 0.038205 0.000000 0.000000
# 5 0.000000 0.000000 0.000000 0.000000 -0.074865 0.000000
# 6 0.000000 0.000000 0.000000 0.000000 0.000000 -0.103434
#
#
# Mechanical properties :
#
#
# Convention : Reuss Voigt Hill
#
# Bulk Modulus (GPa) = 36.26858 61.53614 48.90236
# Shear Modulus (GPa) = -79.10559 14.58300 -32.26130
#
# Velocity S-wave (km/s) = -6.55994 2.81657 -4.18926
# Velocity P-wave (km/s) = 6.13574 6.63721 1.78959
#
# Compressibility (1/GPa) = 0.02757208
#
# Stress axis : x y z
#
# Youngs Moduli (GPa) = 71.20363 40.15039 115.15691
#
# Poissons Ratio (x) = -0.04869 0.58918
# Poissons Ratio (y) = -0.08634 0.70561
# Poissons Ratio (z) = 0.36430 0.24602
#
# Static dielectric constant tensor:
#      x y z
#    x 1.627520 0.000000 0.000000 
#    y 0.000000 1.662950 0.000000 
#    z 0.000000 0.000000 1.670970 
# 
# From -- ./inp_files/24656.got.cif
#   From: 2010.05.17/outbox.cif.g08.bks.cpg/sg65_13_cif.got.tgz:24656.got - 2010.06.03 17:01:31.
