data_PCOD9487783
_publ_section_title
;
Structure prediction by ZEFSAII (Michael W. Deem and Ramdas Pophale) SiO2 
 PCOD9487783
Probable space group: C M M M
;
_chemical_formula_sum "Si O2"
_cell_formula_units_Z 104
_cell_length_a 18.043060
_cell_length_b 26.601795
_cell_length_c 11.850239
_cell_angle_alpha 90.000000
_cell_angle_beta 90.000000
_cell_angle_gamma 90.000000
_cell_volume 5687.851447
_symmetry_space_group_name_H-M "C M M M"
_symmetry_group_IT_number 65
_symmetry_cell_setting 'orthorhombic'
loop_
_space_group_symop_operation_xyz
x,y,z
-x,-y,z
x,-y,-z
-x,y,-z
-x,-y,-z
x,y,-z
-x,y,z
x,-y,z
1/2+x,1/2+y,z
1/2-x,1/2-y,z
1/2+x,1/2-y,-z
1/2-x,1/2+y,-z
1/2-x,1/2-y,-z
1/2+x,1/2+y,-z
1/2-x,1/2+y,z
1/2+x,1/2-y,z
loop_
_atom_site_type_symbol
_atom_site_label
_atom_site_fract_x
_atom_site_fract_y
_atom_site_fract_z
Si Si1 0.293989 0.186869 0.500000
Si Si2 0.819437 0.608092 0.307958
Si Si3 0.586569 0.941601 0.500000
Si Si4 0.668775 0.730852 0.135021
Si Si5 0.914433 0.333390 0.134952
Si Si6 0.376860 0.280840 0.500000
Si Si7 0.671297 0.441543 0.635800
Si Si8 0.584592 0.344717 0.284760
O O1 0.295489 0.154934 0.385619
O O2 0.368580 0.220817 0.500000
O O3 0.210932 0.207907 0.500000
O O4 0.878474 0.581011 0.387783
O O5 0.858605 0.628806 0.196905
O O6 0.747616 0.572693 0.300703
O O7 0.500000 0.933075 0.500000
O O8 0.603870 0.000000 0.500000
O O9 0.750000 0.750000 0.172924
O O10 0.612186 0.776461 0.159938
O O11 0.640165 0.680720 0.195172
O O12 0.671950 0.723507 0.000000
O O13 0.000000 0.340492 0.169942
O O14 0.909877 0.339603 0.000000
O O15 0.411389 0.306853 0.608759
O O16 0.683808 0.435472 0.500000
O O17 0.650966 0.500000 0.654726
O O18 0.612532 0.399472 0.674773
O O19 0.500000 0.347051 0.243331
#
# Coordination Sequence:
#
# PCOD9487783 Si02
#       8
#     8  16   8  16  16   8  16  16
#     4  10  20  30  54  77 110 146 182 226 282 334
#     4  11  18  35  56  82 105 147 190 235 281 348
#     4  10  20  32  51  80 109 137 179 237 292 341
#     4  10  22  39  61  87 117 156 201 239 277 335
#     4  10  21  36  55  83 120 157 189 226 278 343
#     4  11  21  34  49  82 117 153 177 222 284 347
#     4  11  22  39  61  83 111 148 195 248 300 350
#     4  12  23  37  58  84 119 155 195 239 287 346
#
# _framework density 18.284583999999999
#
# number of rings (size 3 to 8) (size 9 to 14) (size 15 to 20)
#    0.000    1.308    3.846    3.462    2.154    1.231 
#    0.000    4.615    0.000    3.231    0.000    6.462 
#    0.000    0.000    0.000    0.000    0.000    0.000 
#
# Total GULP energy -290238.934252 kJ/mol
# GULP energy per Si atom -5581.517966 kJ/mol
# Density = 1.824297 g / cm^3
# Si number density = 18.284584 Si / 1000 Ang^3
#
#
#
# Elastic Constant Matrix: (Units=GPa)
#
#
# Indices 1 2 3 4 5 6 
#
# 1 99.8200 24.9508 15.3823 0.0000 0.0000 0.0000
# 2 24.9508 93.0868 27.7575 0.0000 0.0000 0.0000
# 3 15.3823 27.7575 44.9026 0.0000 0.0000 0.0000
# 4 0.0000 0.0000 0.0000 19.7294 0.0000 0.0000
# 5 0.0000 0.0000 0.0000 0.0000 5.0050 0.0000
# 6 0.0000 0.0000 0.0000 0.0000 0.0000 12.4331
#
#
#
# Elastic Compliance Matrix: (Units=1/GPa)
#
#
# Indices 1 2 3 4 5 6 
#
# 1 0.010940 -0.002225 -0.002372 0.000000 0.000000 0.000000
# 2 -0.002225 0.013623 -0.007659 0.000000 0.000000 0.000000
# 3 -0.002372 -0.007659 0.027818 0.000000 0.000000 0.000000
# 4 0.000000 0.000000 0.000000 0.050686 0.000000 0.000000
# 5 0.000000 0.000000 0.000000 0.000000 0.199802 0.000000
# 6 0.000000 0.000000 0.000000 0.000000 0.000000 0.080431
#
#
# Mechanical properties :
#
#
# Convention : Reuss Voigt Hill
#
# Bulk Modulus (GPa) = 35.88365 41.55450 38.71907
# Shear Modulus (GPa) = 11.98753 18.74807 15.36780
#
# Velocity S-wave (km/s) = 2.56326 3.20558 2.90225
# Velocity P-wave (km/s) = 5.33180 6.03961 5.69671
#
# Compressibility (1/GPa) = 0.02786785
#
# Stress axis : x y z
#
# Youngs Moduli (GPa) = 91.41002 73.40597 35.94835
#
# Poissons Ratio (x) = 0.16332 0.08528
# Poissons Ratio (y) = 0.20338 0.27533
# Poissons Ratio (z) = 0.21685 0.56222
#
# Static dielectric constant tensor:
#      x y z
#    x 1.648650 0.000000 0.000000 
#    y 0.000000 1.731260 0.000000 
#    z 0.000000 0.000000 1.610790 
# 
# From -- ./inp_files/27532.got.cif
#   From: 2010.05.17/outbox.cif.g08.bks.cpg/sg65_14_cif.got.tgz:27532.got - 2010.06.03 17:01:31.
