data_PCOD9487772
_publ_section_title
;
Structure prediction by ZEFSAII (Michael W. Deem and Ramdas Pophale) SiO2 
 PCOD9487772
Probable space group: C M M M
;
_chemical_formula_sum "Si O2"
_cell_formula_units_Z 104
_cell_length_a 8.984435
_cell_length_b 31.040646
_cell_length_c 23.299872
_cell_angle_alpha 90.000000
_cell_angle_beta 90.000000
_cell_angle_gamma 90.000000
_cell_volume 6497.930429
_symmetry_space_group_name_H-M "C M M M"
_symmetry_group_IT_number 65
_symmetry_cell_setting 'orthorhombic'
loop_
_space_group_symop_operation_xyz
x,y,z
-x,-y,z
x,-y,-z
-x,y,-z
-x,-y,-z
x,y,-z
-x,y,z
x,-y,z
1/2+x,1/2+y,z
1/2-x,1/2-y,z
1/2+x,1/2-y,-z
1/2-x,1/2+y,-z
1/2-x,1/2-y,-z
1/2+x,1/2+y,-z
1/2-x,1/2+y,z
1/2+x,1/2-y,z
loop_
_atom_site_type_symbol
_atom_site_label
_atom_site_fract_x
_atom_site_fract_y
_atom_site_fract_z
Si Si1 0.178124 0.324402 0.564173
Si Si2 0.179406 0.205652 0.317562
Si Si3 0.827857 0.088391 0.402749
Si Si4 0.168514 0.500000 0.431558
Si Si5 0.671753 0.614877 0.730113
Si Si6 0.322454 0.050033 0.817931
Si Si7 0.826911 0.052169 0.063219
O O1 0.215120 0.308098 0.500000
O O2 0.260070 0.302074 0.617644
O O3 0.231645 0.373986 0.568213
O O4 0.000000 0.321519 0.571785
O O5 0.250000 0.250000 0.296413
O O6 0.222936 0.164357 0.278760
O O7 0.000000 0.207253 0.319565
O O8 0.825311 0.096871 0.334671
O O9 0.000000 0.090808 0.421879
O O10 0.756948 0.042395 0.413987
O O11 0.158952 0.500000 0.500000
O O12 0.000000 0.500000 0.407828
O O13 0.500000 0.615395 0.749697
O O14 0.761972 0.583380 0.771161
O O15 0.500000 0.049743 0.817039
O O16 0.265470 0.064214 0.880821
O O17 0.271815 0.000000 0.807743
O O18 0.000000 0.064684 0.069935
O O19 0.823136 0.000000 0.061762
O O20 0.774749 0.067041 0.000000
#
# Coordination Sequence:
#
# PCOD9487772 Si02
#       7
#    16  16  16   8  16  16  16
#     4  10  20  34  52  73  96 121 149 186 237 295
#     4  10  21  37  56  76  96 122 156 196 246 298
#     4  10  21  35  50  68  89 119 158 200 244 287
#     4  11  23  35  47  65  89 119 156 197 242 293
#     4   9  20  36  51  69  94 125 160 197 239 288
#     4  10  20  30  44  71 102 134 170 205 242 279
#     4   8  14  26  44  65  92 131 173 206 239 278
#
# _framework density 16.005096000000002
#
# number of rings (size 3 to 8) (size 9 to 14) (size 15 to 20)
#    0.000    2.385    0.000    3.923    1.077    8.923 
#    0.000    1.538    0.000    0.000    0.000    0.000 
#    0.000    0.615    0.000    2.000    0.000    2.462 
#
# Total GULP energy -289925.429938 kJ/mol
# GULP energy per Si atom -5575.489037 kJ/mol
# Density = 1.596867 g / cm^3
# Si number density = 16.005096 Si / 1000 Ang^3
#
#
#
# Elastic Constant Matrix: (Units=GPa)
#
#
# Indices 1 2 3 4 5 6 
#
# 1 59.6365 31.6860 36.8291 0.0000 0.0000 0.0000
# 2 31.6860 97.3392 36.1710 0.0000 0.0000 0.0000
# 3 36.8291 36.1710 80.5049 0.0000 0.0000 0.0000
# 4 0.0000 0.0000 0.0000 2.3981 0.0000 0.0000
# 5 0.0000 0.0000 0.0000 0.0000 28.6534 0.0000
# 6 0.0000 0.0000 0.0000 0.0000 0.0000 27.0148
#
#
#
# Elastic Compliance Matrix: (Units=1/GPa)
#
#
# Indices 1 2 3 4 5 6 
#
# 1 0.025024 -0.004672 -0.009349 0.000000 0.000000 0.000000
# 2 -0.004672 0.013205 -0.003796 0.000000 0.000000 0.000000
# 3 -0.009349 -0.003796 0.018404 0.000000 0.000000 0.000000
# 4 0.000000 0.000000 0.000000 0.416989 0.000000 0.000000
# 5 0.000000 0.000000 0.000000 0.000000 0.034900 0.000000
# 6 0.000000 0.000000 0.000000 0.000000 0.000000 0.037017
#
#
# Mechanical properties :
#
#
# Convention : Reuss Voigt Hill
#
# Bulk Modulus (GPa) = 47.61931 49.65032 48.63482
# Shear Modulus (GPa) = 8.50094 20.46622 14.48358
#
# Velocity S-wave (km/s) = 2.30715 3.57982 3.01148
# Velocity P-wave (km/s) = 6.07572 6.94087 6.52266
#
# Compressibility (1/GPa) = 0.02099988
#
# Stress axis : x y z
#
# Youngs Moduli (GPa) = 39.96175 75.73137 54.33648
#
# Poissons Ratio (x) = 0.35380 0.50798
# Poissons Ratio (y) = 0.18669 0.20624
# Poissons Ratio (z) = 0.37360 0.28744
#
# Static dielectric constant tensor:
#      x y z
#    x 1.542750 0.000000 0.000000 
#    y 0.000000 1.523400 0.000000 
#    z 0.000000 0.000000 1.533200 
# 
# From -- ./inp_files/60874.got.cif
#   From: 2010.05.17/outbox.cif.g08.bks.cpg/sg65_31_cif.got.tgz:60874.got - 2010.06.03 17:01:31.
