data_PCOD9487475
_publ_section_title
;
Structure prediction by ZEFSAII (Michael W. Deem and Ramdas Pophale) SiO2 
 PCOD9487475
Probable space group: C M M M
;
_chemical_formula_sum "Si O2"
_cell_formula_units_Z 80
_cell_length_a 17.328920
_cell_length_b 17.877193
_cell_length_c 14.348123
_cell_angle_alpha 90.000000
_cell_angle_beta 90.000000
_cell_angle_gamma 90.000000
_cell_volume 4444.940139
_symmetry_space_group_name_H-M "C M M M"
_symmetry_group_IT_number 65
_symmetry_cell_setting 'orthorhombic'
loop_
_space_group_symop_operation_xyz
x,y,z
-x,-y,z
x,-y,-z
-x,y,-z
-x,-y,-z
x,y,-z
-x,y,z
x,-y,z
1/2+x,1/2+y,z
1/2-x,1/2-y,z
1/2+x,1/2-y,-z
1/2-x,1/2+y,-z
1/2-x,1/2-y,-z
1/2+x,1/2+y,-z
1/2-x,1/2+y,z
1/2+x,1/2-y,z
loop_
_atom_site_type_symbol
_atom_site_label
_atom_site_fract_x
_atom_site_fract_y
_atom_site_fract_z
Si Si1 0.912894 0.000000 0.386620
Si Si2 0.860048 0.413113 0.612242
Si Si3 0.912265 0.500000 0.886510
Si Si4 0.411958 0.767792 0.293504
Si Si5 0.186439 0.142395 0.611686
Si Si6 0.906150 0.662445 0.105509
O O1 0.868332 0.925759 0.358614
O O2 0.913081 0.000000 0.500000
O O3 0.000000 0.000000 0.353311
O O4 0.871003 0.410499 0.500000
O O5 0.870967 0.500000 0.640809
O O6 0.911479 0.350702 0.661571
O O7 0.772924 0.384752 0.632189
O O8 0.875950 0.419868 0.864188
O O9 0.000000 0.500000 0.849129
O O10 0.917392 0.500000 0.000000
O O11 0.500000 0.738124 0.302210
O O12 0.348674 0.716483 0.343123
O O13 0.389842 0.778299 0.185371
O O14 0.182169 0.152126 0.500000
O O15 0.000000 0.655735 0.102709
O O16 0.880870 0.679379 0.000000
#
# Coordination Sequence:
#
# PCOD9487475 Si02
#       6
#     8  16   8  16  16  16
#     4   9  16  28  51  76  96 122 165 225 265 276
#     4  10  21  37  53  69  98 144 182 201 238 307
#     4   7  10  20  39  58  81 119 160 191 220 268
#     4  11  22  31  49  81 108 130 163 211 262 302
#     4  10  19  35  53  71  99 136 176 211 251 303
#     4   8  15  28  45  68  99 132 165 202 249 302
#
# _framework density 17.997993000000001
#
# number of rings (size 3 to 8) (size 9 to 14) (size 15 to 20)
#    0.000    2.600    1.000    3.000    1.400    4.400 
#    0.000    1.000    0.000    2.400    0.000    0.700 
#    0.000    4.000    0.000    0.000    0.000    0.000 
#
# Total GULP energy -222925.031173 kJ/mol
# GULP energy per Si atom -5573.125779 kJ/mol
# Density = 1.795703 g / cm^3
# Si number density = 17.997993 Si / 1000 Ang^3
#
#
#
# Elastic Constant Matrix: (Units=GPa)
#
#
# Indices 1 2 3 4 5 6 
#
# 1 36.7142 7.6968 14.2016 0.0000 0.0000 0.0000
# 2 7.6968 82.2619 23.0906 0.0000 0.0000 0.0000
# 3 14.2016 23.0906 36.5309 0.0000 0.0000 0.0000
# 4 0.0000 0.0000 0.0000 9.7809 0.0000 0.0000
# 5 0.0000 0.0000 0.0000 0.0000 5.7935 0.0000
# 6 0.0000 0.0000 0.0000 0.0000 0.0000 26.2144
#
#
#
# Elastic Compliance Matrix: (Units=1/GPa)
#
#
# Indices 1 2 3 4 5 6 
#
# 1 0.032083 0.000607 -0.012856 0.000000 0.000000 0.000000
# 2 0.000607 0.014790 -0.009584 0.000000 0.000000 0.000000
# 3 -0.012856 -0.009584 0.038430 0.000000 0.000000 0.000000
# 4 0.000000 0.000000 0.000000 0.102240 0.000000 0.000000
# 5 0.000000 0.000000 0.000000 0.000000 0.172606 0.000000
# 6 0.000000 0.000000 0.000000 0.000000 0.000000 0.038147
#
#
# Mechanical properties :
#
#
# Convention : Reuss Voigt Hill
#
# Bulk Modulus (GPa) = 24.01775 27.27610 25.64692
# Shear Modulus (GPa) = 10.96871 15.72562 13.34717
#
# Velocity S-wave (km/s) = 2.47136 2.95912 2.72617
# Velocity P-wave (km/s) = 4.63866 5.18297 4.91835
#
# Compressibility (1/GPa) = 0.04163588
#
# Stress axis : x y z
#
# Youngs Moduli (GPa) = 31.16900 67.61423 26.02136
#
# Poissons Ratio (x) = -0.04103 0.33453
# Poissons Ratio (y) = -0.01891 0.24940
# Poissons Ratio (z) = 0.40071 0.64803
#
# Static dielectric constant tensor:
#      x y z
#    x 1.608030 0.000000 0.000000 
#    y 0.000000 1.645280 0.000000 
#    z 0.000000 0.000000 1.633020 
# 
# From -- ./inp_files/42377.got.cif
#   From: 2010.05.17/outbox.cif.g08.bks.cpg/sg65_22_cif.got.tgz:42377.got - 2010.06.03 17:01:31.
