data_PCOD9487393
_publ_section_title
;
Structure prediction by ZEFSAII (Michael W. Deem and Ramdas Pophale) SiO2 
 PCOD9487393
Probable space group: C M M M
;
_chemical_formula_sum "Si O2"
_cell_formula_units_Z 90
_cell_length_a 9.136234
_cell_length_b 24.146219
_cell_length_c 23.235930
_cell_angle_alpha 90.000000
_cell_angle_beta 90.000000
_cell_angle_gamma 90.000000
_cell_volume 5125.974118
_symmetry_space_group_name_H-M "C M M M"
_symmetry_group_IT_number 65
_symmetry_cell_setting 'orthorhombic'
loop_
_space_group_symop_operation_xyz
x,y,z
-x,-y,z
x,-y,-z
-x,y,-z
-x,-y,-z
x,y,-z
-x,y,z
x,-y,z
1/2+x,1/2+y,z
1/2-x,1/2-y,z
1/2+x,1/2-y,-z
1/2-x,1/2+y,-z
1/2-x,1/2-y,-z
1/2+x,1/2+y,-z
1/2-x,1/2+y,z
1/2+x,1/2-y,z
loop_
_atom_site_type_symbol
_atom_site_label
_atom_site_fract_x
_atom_site_fract_y
_atom_site_fract_z
Si Si1 0.673768 0.309272 0.500000
Si Si2 0.828998 0.618063 0.935720
Si Si3 0.738448 0.500000 0.896541
Si Si4 0.325514 0.113269 0.275704
Si Si5 0.500000 0.500000 0.000000
Si Si6 0.823084 0.811363 0.372354
Si Si7 0.174119 0.307947 0.165904
Si Si8 0.671452 0.500000 0.760966
O O1 0.500000 0.300932 0.500000
O O2 0.750000 0.250000 0.500000
O O3 0.708836 0.333742 0.562688
O O4 0.821680 0.557537 0.907236
O O5 0.764970 0.662881 0.891854
O O6 0.000000 0.631356 0.941155
O O7 0.763305 0.617780 0.000000
O O8 0.623395 0.500000 0.948509
O O9 0.683766 0.500000 0.830822
O O10 0.500000 0.107633 0.285980
O O11 0.247572 0.147296 0.326533
O O12 0.305209 0.149847 0.218219
O O13 0.251136 0.054278 0.263842
O O14 0.750000 0.750000 0.366758
O O15 0.000000 0.806856 0.365069
O O16 0.250000 0.250000 0.177414
O O17 0.000000 0.299077 0.159953
O O18 0.500000 0.500000 0.745936
#
# Coordination Sequence:
#
# PCOD9487393 Si02
#       8
#     8  16   8  16   2  16  16   8
#     4   8  16  30  52  83 120 157 196 240 284 332
#     4  10  20  36  59  79 101 136 182 227 276 334
#     4  12  21  37  57  82 112 136 175 228 291 346
#     4  11  23  39  59  82 114 151 193 239 287 343
#     4  12  24  36  54  88 124 132 172 232 300 358
#     4  10  19  34  57  88 123 160 199 240 287 337
#     4  10  22  38  54  78 107 143 184 226 273 332
#     4  12  25  39  59  86 111 145 184 234 292 349
#
# _framework density 17.557637
#
# number of rings (size 3 to 8) (size 9 to 14) (size 15 to 20)
#    0.000    1.600    3.111    2.133    0.000    5.333 
#    1.600    0.000    0.000    0.533    0.000    3.733 
#    0.000    0.000    0.000    0.000    0.000    0.000 
#
# Total GULP energy -250603.601698 kJ/mol
# GULP energy per Si atom -5568.968927 kJ/mol
# Density = 1.751768 g / cm^3
# Si number density = 17.557637 Si / 1000 Ang^3
#
#
#
# Elastic Constant Matrix: (Units=GPa)
#
#
# Indices 1 2 3 4 5 6 
#
# 1 75.5494 61.9491 66.2694 0.0000 0.0000 0.0000
# 2 61.9491 128.7070 62.8734 0.0000 0.0000 0.0000
# 3 66.2694 62.8734 128.1986 0.0000 0.0000 0.0000
# 4 0.0000 0.0000 0.0000 13.1074 0.0000 0.0000
# 5 0.0000 0.0000 0.0000 0.0000 28.1982 0.0000
# 6 0.0000 0.0000 0.0000 0.0000 0.0000 17.2095
#
#
#
# Elastic Compliance Matrix: (Units=1/GPa)
#
#
# Indices 1 2 3 4 5 6 
#
# 1 0.030833 -0.009277 -0.011389 0.000000 0.000000 0.000000
# 2 -0.009277 0.013009 -0.001584 0.000000 0.000000 0.000000
# 3 -0.011389 -0.001584 0.014465 0.000000 0.000000 0.000000
# 4 0.000000 0.000000 0.000000 0.076293 0.000000 0.000000
# 5 0.000000 0.000000 0.000000 0.000000 0.035463 0.000000
# 6 0.000000 0.000000 0.000000 0.000000 0.000000 0.058108
#
#
# Mechanical properties :
#
#
# Convention : Reuss Voigt Hill
#
# Bulk Modulus (GPa) = 72.43165 79.40432 75.91799
# Shear Modulus (GPa) = 18.03278 21.12723 19.58000
#
# Velocity S-wave (km/s) = 3.20826 3.47263 3.34306
# Velocity P-wave (km/s) = 7.42072 7.83595 7.63116
#
# Compressibility (1/GPa) = 0.01380612
#
# Stress axis : x y z
#
# Youngs Moduli (GPa) = 32.43245 76.87057 69.13464
#
# Poissons Ratio (x) = 0.71315 0.78735
# Poissons Ratio (y) = 0.30089 0.10953
# Poissons Ratio (z) = 0.36936 0.12179
#
# Static dielectric constant tensor:
#      x y z
#    x 1.601760 0.000000 0.000000 
#    y 0.000000 1.566760 0.000000 
#    z 0.000000 0.000000 1.635820 
# 
# From -- ./inp_files/59962.got.cif
#   From: 2010.05.17/outbox.cif.g08.bks.cpg/sg65_30_cif.got.tgz:59962.got - 2010.06.03 17:01:31.
