data_PCOD9487876
_publ_section_title
;
Structure prediction by ZEFSAII (Michael W. Deem and Ramdas Pophale) SiO2 
 PCOD9487876
Probable space group: C M M M
;
_chemical_formula_sum "Si O2"
_cell_formula_units_Z 104
_cell_length_a 9.977075
_cell_length_b 26.433345
_cell_length_c 25.917825
_cell_angle_alpha 90.000000
_cell_angle_beta 90.000000
_cell_angle_gamma 90.000000
_cell_volume 6835.242300
_symmetry_space_group_name_H-M "C M M M"
_symmetry_group_IT_number 65
_symmetry_cell_setting 'orthorhombic'
loop_
_space_group_symop_operation_xyz
x,y,z
-x,-y,z
x,-y,-z
-x,y,-z
-x,-y,-z
x,y,-z
-x,y,z
x,-y,z
1/2+x,1/2+y,z
1/2-x,1/2-y,z
1/2+x,1/2-y,-z
1/2-x,1/2+y,-z
1/2-x,1/2-y,-z
1/2+x,1/2+y,-z
1/2-x,1/2+y,z
1/2+x,1/2-y,z
loop_
_atom_site_type_symbol
_atom_site_label
_atom_site_fract_x
_atom_site_fract_y
_atom_site_fract_z
Si Si1 0.000000 0.291183 0.938086
Si Si2 0.843552 0.938331 0.500000
Si Si3 0.343472 0.597684 0.277793
Si Si4 0.500000 0.669920 0.060851
Si Si5 0.155672 0.205152 0.225680
Si Si6 0.836953 0.058851 0.611849
Si Si7 0.343723 0.057808 0.812403
Si Si8 0.738811 0.153402 0.878266
O O1 0.000000 0.230727 0.929576
O O2 0.127908 0.316689 0.910931
O O3 0.000000 0.299576 0.000000
O O4 0.786352 0.922656 0.444272
O O5 0.000000 0.923157 0.500000
O O6 0.841617 0.000000 0.500000
O O7 0.500000 0.581367 0.272890
O O8 0.338670 0.656565 0.262713
O O9 0.298532 0.587851 0.336338
O O10 0.251639 0.568985 0.236398
O O11 0.631130 0.646783 0.086660
O O12 0.500000 0.662466 0.000000
O O13 0.250000 0.250000 0.244514
O O14 0.214310 0.186441 0.170918
O O15 0.000000 0.220400 0.219602
O O16 0.000000 0.060255 0.609167
O O17 0.799142 0.000000 0.618018
O O18 0.500000 0.063178 0.797588
O O19 0.312586 0.100279 0.855301
O O20 0.322657 0.000000 0.830096
#
# Coordination Sequence:
#
# PCOD9487876 Si02
#       8
#     8   8  16   8  16  16  16  16
#     4  11  22  36  55  77  99 127 154 183 231 282
#     4   7  10  16  30  56  88 121 149 177 225 281
#     4   9  18  30  45  71  96 120 156 197 237 276
#     4  11  22  36  55  79 103 121 148 191 237 282
#     4  10  20  31  47  68  94 123 152 187 232 283
#     4   8  12  20  36  60  92 122 148 184 230 276
#     4  10  21  36  52  70  95 128 163 193 227 274
#     4  11  21  36  53  76  99 124 153 190 231 280
#
# _framework density 15.215261999999999
#
# number of rings (size 3 to 8) (size 9 to 14) (size 15 to 20)
#    0.000    2.385    1.538    3.231    2.154    2.769 
#    0.000    0.000    0.000    2.769    0.000    1.077 
#    0.000    3.077    0.000    0.000    0.000    0.000 
#
# Total GULP energy -289712.692389 kJ/mol
# GULP energy per Si atom -5571.397931 kJ/mol
# Density = 1.518063 g / cm^3
# Si number density = 15.215262 Si / 1000 Ang^3
#
#
#
# Elastic Constant Matrix: (Units=GPa)
#
#
# Indices 1 2 3 4 5 6 
#
# 1 80.3274 34.2832 35.7068 0.0000 0.0000 0.0000
# 2 34.2832 58.0595 36.1495 0.0000 0.0000 0.0000
# 3 35.7068 36.1495 118.8829 0.0000 0.0000 0.0000
# 4 0.0000 0.0000 0.0000 8.4533 0.0000 0.0000
# 5 0.0000 0.0000 0.0000 0.0000 10.4049 0.0000
# 6 0.0000 0.0000 0.0000 0.0000 0.0000 17.8988
#
#
#
# Elastic Compliance Matrix: (Units=1/GPa)
#
#
# Indices 1 2 3 4 5 6 
#
# 1 0.017258 -0.008589 -0.002572 0.000000 0.000000 0.000000
# 2 -0.008589 0.025521 -0.005181 0.000000 0.000000 0.000000
# 3 -0.002572 -0.005181 0.010759 0.000000 0.000000 0.000000
# 4 0.000000 0.000000 0.000000 0.118297 0.000000 0.000000
# 5 0.000000 0.000000 0.000000 0.000000 0.096109 0.000000
# 6 0.000000 0.000000 0.000000 0.000000 0.000000 0.055870
#
#
# Mechanical properties :
#
#
# Convention : Reuss Voigt Hill
#
# Bulk Modulus (GPa) = 47.94937 52.17207 50.06072
# Shear Modulus (GPa) = 13.75707 17.42675 15.59191
#
# Velocity S-wave (km/s) = 3.01019 3.38797 3.20465
# Velocity P-wave (km/s) = 6.60788 7.04757 6.83126
#
# Compressibility (1/GPa) = 0.02085533
#
# Stress axis : x y z
#
# Youngs Moduli (GPa) = 57.94374 39.18318 92.94263
#
# Poissons Ratio (x) = 0.33656 0.23902
# Poissons Ratio (y) = 0.49770 0.48149
# Poissons Ratio (z) = 0.14901 0.20299
#
# Static dielectric constant tensor:
#      x y z
#    x 1.519080 0.000000 0.000000 
#    y 0.000000 1.495070 0.000000 
#    z 0.000000 0.000000 1.514590 
# 
# From -- ./inp_files/73819.got.cif
#   From: 2010.05.17/outbox.cif.g08.bks.cpg/sg65_37_cif.got.tgz:73819.got - 2010.06.03 17:01:31.
