data_PCOD9487687
_publ_section_title
;
Structure prediction by ZEFSAII (Michael W. Deem and Ramdas Pophale) SiO2 
 PCOD9487687
Probable space group: C M M M
;
_chemical_formula_sum "Si O2"
_cell_formula_units_Z 72
_cell_length_a 29.863582
_cell_length_b 12.059012
_cell_length_c 11.629250
_cell_angle_alpha 90.000000
_cell_angle_beta 90.000000
_cell_angle_gamma 90.000000
_cell_volume 4187.987072
_symmetry_space_group_name_H-M "C M M M"
_symmetry_group_IT_number 65
_symmetry_cell_setting 'orthorhombic'
loop_
_space_group_symop_operation_xyz
x,y,z
-x,-y,z
x,-y,-z
-x,y,-z
-x,-y,-z
x,y,-z
-x,y,z
x,-y,z
1/2+x,1/2+y,z
1/2-x,1/2-y,z
1/2+x,1/2-y,-z
1/2-x,1/2+y,-z
1/2-x,1/2-y,-z
1/2+x,1/2+y,-z
1/2-x,1/2+y,z
1/2+x,1/2-y,z
loop_
_atom_site_type_symbol
_atom_site_label
_atom_site_fract_x
_atom_site_fract_y
_atom_site_fract_z
Si Si1 0.800630 0.262105 0.365647
Si Si2 0.910221 0.500000 0.138500
Si Si3 0.951146 0.740682 0.864849
Si Si4 0.653324 0.000000 0.366797
Si Si5 0.948522 0.134562 0.500000
Si Si6 0.114423 0.132358 0.713398
O O1 0.800709 0.227182 0.500000
O O2 0.750000 0.250000 0.322148
O O3 0.817138 0.388805 0.360786
O O4 0.837354 0.187352 0.302703
O O5 0.938668 0.387906 0.153075
O O6 0.876736 0.500000 0.249712
O O7 0.894588 0.500000 0.000000
O O8 0.911695 0.817931 0.820501
O O9 0.000000 0.766876 0.812488
O O10 0.954320 0.756880 0.000000
O O11 0.633069 0.000000 0.500000
O O12 0.918535 0.167353 0.391197
O O13 0.000000 0.174689 0.500000
O O14 0.950654 0.000000 0.500000
O O15 0.117745 0.000000 0.714975
#
# Coordination Sequence:
#
# PCOD9487687 Si02
#       6
#    16   8  16   8   8  16
#     4  10  21  36  57  84 114 147 187 235 285 341
#     4  10  19  36  62  84 112 152 196 234 282 344
#     4  10  21  37  58  82 109 147 193 235 276 332
#     4  10  20  37  59  87 116 146 188 243 294 336
#     4   9  18  32  49  73 107 147 181 212 266 339
#     4  11  21  34  54  80 112 148 183 228 281 335
#
# _framework density 17.192029999999999
#
# number of rings (size 3 to 8) (size 9 to 14) (size 15 to 20)
#    0.000    1.889    3.333    1.000    1.556    3.111 
#    0.000    1.111    0.000    3.333    0.000    0.000 
#    0.000    0.000    0.000    0.000    0.000    0.000 
#
# Total GULP energy -200502.035014 kJ/mol
# GULP energy per Si atom -5569.500973 kJ/mol
# Density = 1.715290 g / cm^3
# Si number density = 17.192030 Si / 1000 Ang^3
#
#
#
# Elastic Constant Matrix: (Units=GPa)
#
#
# Indices 1 2 3 4 5 6 
#
# 1 164.5609 54.1760 52.2889 0.0000 0.0000 0.0000
# 2 54.1760 86.8705 21.8141 0.0000 0.0000 0.0000
# 3 52.2889 21.8141 61.8482 0.0000 0.0000 0.0000
# 4 0.0000 0.0000 0.0000 22.4804 0.0000 0.0000
# 5 0.0000 0.0000 0.0000 0.0000 24.9699 0.0000
# 6 0.0000 0.0000 0.0000 0.0000 0.0000 4.9011
#
#
#
# Elastic Compliance Matrix: (Units=1/GPa)
#
#
# Indices 1 2 3 4 5 6 
#
# 1 0.009594 -0.004330 -0.006584 0.000000 0.000000 0.000000
# 2 -0.004330 0.014584 -0.001483 0.000000 0.000000 0.000000
# 3 -0.006584 -0.001483 0.022258 0.000000 0.000000 0.000000
# 4 0.000000 0.000000 0.000000 0.044483 0.000000 0.000000
# 5 0.000000 0.000000 0.000000 0.000000 0.040048 0.000000
# 6 0.000000 0.000000 0.000000 0.000000 0.000000 0.204037
#
#
# Mechanical properties :
#
#
# Convention : Reuss Voigt Hill
#
# Bulk Modulus (GPa) = 46.20627 63.31528 54.76077
# Shear Modulus (GPa) = 13.62343 22.80365 18.21354
#
# Velocity S-wave (km/s) = 2.81806 3.64594 3.25840
# Velocity P-wave (km/s) = 6.12565 7.39135 6.78806
#
# Compressibility (1/GPa) = 0.02164209
#
# Stress axis : x y z
#
# Youngs Moduli (GPa) = 104.22675 68.56717 44.92704
#
# Poissons Ratio (x) = 0.29690 0.29581
# Poissons Ratio (y) = 0.45131 0.06663
# Poissons Ratio (z) = 0.68626 0.10169
#
# Static dielectric constant tensor:
#      x y z
#    x 1.576490 0.000000 0.000000 
#    y 0.000000 1.556780 0.000000 
#    z 0.000000 0.000000 1.622230 
# 
# From -- ./inp_files/32008.got.cif
#   From: 2010.05.17/outbox.cif.g08.bks.cpg/sg65_17_cif.got.tgz:32008.got - 2010.06.03 17:01:31.
