data_PCOD9487224
_publ_section_title
;
Structure prediction by ZEFSAII (Michael W. Deem and Ramdas Pophale) SiO2 
 PCOD9487224
Probable space group: C M M M
;
_chemical_formula_sum "Si O2"
_cell_formula_units_Z 52
_cell_length_a 13.782015
_cell_length_b 13.828331
_cell_length_c 12.112786
_cell_angle_alpha 90.000000
_cell_angle_beta 90.000000
_cell_angle_gamma 90.000000
_cell_volume 2308.482195
_symmetry_space_group_name_H-M "C M M M"
_symmetry_group_IT_number 65
_symmetry_cell_setting 'orthorhombic'
loop_
_space_group_symop_operation_xyz
x,y,z
-x,-y,z
x,-y,-z
-x,y,-z
-x,-y,-z
x,y,-z
-x,y,z
x,-y,z
1/2+x,1/2+y,z
1/2-x,1/2-y,z
1/2+x,1/2-y,-z
1/2-x,1/2+y,-z
1/2-x,1/2-y,-z
1/2+x,1/2+y,-z
1/2-x,1/2+y,z
1/2+x,1/2-y,z
loop_
_atom_site_type_symbol
_atom_site_label
_atom_site_fract_x
_atom_site_fract_y
_atom_site_fract_z
Si Si1 0.221885 0.000000 0.000000
Si Si2 0.381693 0.394330 0.370890
Si Si3 0.642197 0.288374 0.000000
Si Si4 0.379875 0.000000 0.803885
Si Si5 0.108385 0.712876 0.757461
O O1 0.300079 0.000000 0.900918
O O2 0.153168 0.904694 0.000000
O O3 0.357520 0.385004 0.500000
O O4 0.500000 0.396387 0.363365
O O5 0.348989 0.500000 0.330261
O O6 0.343278 0.303751 0.302480
O O7 0.750000 0.250000 0.000000
O O8 0.602455 0.243739 0.886510
O O9 0.359747 0.102403 0.745903
O O10 0.500000 0.000000 0.831767
O O11 0.000000 0.710312 0.710840
#
# Coordination Sequence:
#
# PCOD9487224 Si02
#       5
#     4  16   8   8  16
#     4  12  23  36  49  76 106 144 178 212 259 312
#     4   8  15  30  52  76 103 136 173 213 257 307
#     4  12  23  35  51  77 108 143 174 214 261 311
#     4  10  19  34  55  75 102 141 181 215 252 305
#     4  10  20  35  54  79 107 138 175 215 259 310
#
# _framework density 22.525623
#
# number of rings (size 3 to 8) (size 9 to 14) (size 15 to 20)
#    0.000    2.154    3.077    1.615    2.154    2.462 
#    0.000    1.538    0.000    5.538    0.000    0.000 
#    0.000    0.000    0.000    0.000    0.000    0.000 
#
# Total GULP energy -144880.298632 kJ/mol
# GULP energy per Si atom -5572.319178 kJ/mol
# Density = 2.247435 g / cm^3
# Si number density = 22.525623 Si / 1000 Ang^3
#
#
#
# Elastic Constant Matrix: (Units=GPa)
#
#
# Indices 1 2 3 4 5 6 
#
# 1 67.6972 27.5560 -0.6964 0.0000 0.0000 0.0000
# 2 27.5560 300.3748 79.2594 0.0000 0.0000 0.0000
# 3 -0.6964 79.2594 56.9354 0.0000 0.0000 0.0000
# 4 0.0000 0.0000 0.0000 92.9769 0.0000 0.0000
# 5 0.0000 0.0000 0.0000 0.0000 95.4575 0.0000
# 6 0.0000 0.0000 0.0000 0.0000 0.0000 251.5246
#
#
#
# Elastic Compliance Matrix: (Units=1/GPa)
#
#
# Indices 1 2 3 4 5 6 
#
# 1 0.015771 -0.002367 0.003488 0.000000 0.000000 0.000000
# 2 -0.002367 0.005617 -0.007849 0.000000 0.000000 0.000000
# 3 0.003488 -0.007849 0.028533 0.000000 0.000000 0.000000
# 4 0.000000 0.000000 0.000000 0.010755 0.000000 0.000000
# 5 0.000000 0.000000 0.000000 0.000000 0.010476 0.000000
# 6 0.000000 0.000000 0.000000 0.000000 0.000000 0.003976
#
#
# Mechanical properties :
#
#
# Convention : Reuss Voigt Hill
#
# Bulk Modulus (GPa) = 27.42296 70.80505 49.11401
# Shear Modulus (GPa) = 49.63299 109.25105 79.44202
#
# Velocity S-wave (km/s) = 4.69913 6.97181 5.94508
# Velocity P-wave (km/s) = 6.45314 9.81374 8.30519
#
# Compressibility (1/GPa) = 0.03646579
#
# Stress axis : x y z
#
# Youngs Moduli (GPa) = 63.40694 178.01706 35.04724
#
# Poissons Ratio (x) = 0.42142 -0.12226
# Poissons Ratio (y) = 0.15010 0.27508
# Poissons Ratio (z) = -0.22119 1.39725
#
# Static dielectric constant tensor:
#      x y z
#    x 1.274760 0.000000 0.000000 
#    y 0.000000 1.911100 0.000000 
#    z 0.000000 0.000000 1.822970 
# 
# From -- ./inp_files/23563.got.cif
#   From: 2010.05.17/outbox.cif.g08.bks.cpg/sg65_12_cif.got.tgz:23563.got - 2010.06.03 17:01:31.
