data_PCOD9487698
_publ_section_title
;
Structure prediction by ZEFSAII (Michael W. Deem and Ramdas Pophale) SiO2 
 PCOD9487698
Probable space group: C M M M
;
_chemical_formula_sum "Si O2"
_cell_formula_units_Z 42
_cell_length_a 33.568226
_cell_length_b 8.086560
_cell_length_c 7.486289
_cell_angle_alpha 90.000000
_cell_angle_beta 90.000000
_cell_angle_gamma 90.000000
_cell_volume 2032.164181
_symmetry_space_group_name_H-M "C M M M"
_symmetry_group_IT_number 65
_symmetry_cell_setting 'orthorhombic'
loop_
_space_group_symop_operation_xyz
x,y,z
-x,-y,z
x,-y,-z
-x,y,-z
-x,-y,-z
x,y,-z
-x,y,z
x,-y,z
1/2+x,1/2+y,z
1/2-x,1/2-y,z
1/2+x,1/2-y,-z
1/2-x,1/2+y,-z
1/2-x,1/2-y,-z
1/2+x,1/2+y,-z
1/2-x,1/2+y,z
1/2+x,1/2-y,z
loop_
_atom_site_type_symbol
_atom_site_label
_atom_site_fract_x
_atom_site_fract_y
_atom_site_fract_z
Si Si1 0.706817 0.190092 0.282415
Si Si2 0.000000 0.500000 0.500000
Si Si3 0.568802 0.000000 0.198114
Si Si4 0.122219 0.817281 0.716710
O O1 0.707722 0.197437 0.500000
O O2 0.750000 0.250000 0.220111
O O3 0.668163 0.292329 0.226552
O O4 0.700745 0.000000 0.231652
O O5 0.965067 0.500000 0.345654
O O6 0.596167 0.836603 0.219779
O O7 0.551744 0.000000 0.000000
O O8 0.121494 0.811814 0.500000
O O9 0.108072 0.000000 0.771659
#
# Coordination Sequence:
#
# PCOD9487698 Si02
#       4
#    16   2   8  16
#     4   9  15  24  45  84 130 173 228 278 316 371
#     4  12  26  52  78 102 136 162 210 276 338 414
#     4  12  25  45  73 102 133 171 216 269 337 408
#     4  10  19  36  63  94 134 180 223 272 329 388
#
# _framework density 20.667622000000001
#
# number of rings (size 3 to 8) (size 9 to 14) (size 15 to 20)
#    0.000    1.905    3.810    1.429    0.000    5.333 
#    0.000    1.905    0.000    3.429    0.000    0.000 
#    0.000    0.000    0.000    0.000    0.000    0.000 
#
# Total GULP energy -117066.491427 kJ/mol
# GULP energy per Si atom -5574.594830 kJ/mol
# Density = 2.062058 g / cm^3
# Si number density = 20.667622 Si / 1000 Ang^3
#
#
#
# Elastic Constant Matrix: (Units=GPa)
#
#
# Indices 1 2 3 4 5 6 
#
# 1 141.6543 64.2941 44.1931 0.0000 0.0000 0.0000
# 2 64.2941 164.2982 27.9269 0.0000 0.0000 0.0000
# 3 44.1931 27.9269 114.9756 0.0000 0.0000 0.0000
# 4 0.0000 0.0000 0.0000 -21.9031 0.0000 0.0000
# 5 0.0000 0.0000 0.0000 0.0000 -70.3435 0.0000
# 6 0.0000 0.0000 0.0000 0.0000 0.0000 -3.6391
#
#
#
# Elastic Compliance Matrix: (Units=1/GPa)
#
#
# Indices 1 2 3 4 5 6 
#
# 1 0.009394 -0.003194 -0.002835 0.000000 0.000000 0.000000
# 2 -0.003194 0.007435 -0.000578 0.000000 0.000000 0.000000
# 3 -0.002835 -0.000578 0.009928 0.000000 0.000000 0.000000
# 4 0.000000 0.000000 0.000000 -0.045656 0.000000 0.000000
# 5 0.000000 0.000000 0.000000 0.000000 -0.014216 0.000000
# 6 0.000000 0.000000 0.000000 0.000000 0.000000 -0.274789
#
#
# Mechanical properties :
#
#
# Convention : Reuss Voigt Hill
#
# Bulk Modulus (GPa) = 73.84553 77.08405 75.46479
# Shear Modulus (GPa) = -17.23085 -0.20956 -8.72021
#
# Velocity S-wave (km/s) = -2.89054 -0.31878 -2.05631
# Velocity P-wave (km/s) = 4.96662 6.10266 5.56371
#
# Compressibility (1/GPa) = 0.01354178
#
# Stress axis : x y z
#
# Youngs Moduli (GPa) = 106.45578 134.50446 100.73004
#
# Poissons Ratio (x) = 0.42962 0.28555
# Poissons Ratio (y) = 0.34003 0.05823
# Poissons Ratio (z) = 0.30178 0.07776
#
# Static dielectric constant tensor:
#      x y z
#    x 1.688760 0.000000 0.000000 
#    y 0.000000 1.724290 0.000000 
#    z 0.000000 0.000000 1.778360 
# 
# From -- ./inp_files/17429.got.cif
#   From: 2010.05.17/outbox.cif.g08.bks.cpg/sg65_9_cif.got.tgz:17429.got - 2010.06.03 17:01:31.
