data_PCOD9487646
_publ_section_title
;
Structure prediction by ZEFSAII (Michael W. Deem and Ramdas Pophale) SiO2 
 PCOD9487646
Probable space group: C M M M
;
_chemical_formula_sum "Si O2"
_cell_formula_units_Z 60
_cell_length_a 16.544495
_cell_length_b 14.263518
_cell_length_c 13.732601
_cell_angle_alpha 90.000000
_cell_angle_beta 90.000000
_cell_angle_gamma 90.000000
_cell_volume 3240.656293
_symmetry_space_group_name_H-M "C M M M"
_symmetry_group_IT_number 65
_symmetry_cell_setting 'orthorhombic'
loop_
_space_group_symop_operation_xyz
x,y,z
-x,-y,z
x,-y,-z
-x,y,-z
-x,-y,-z
x,y,-z
-x,y,z
x,-y,z
1/2+x,1/2+y,z
1/2-x,1/2-y,z
1/2+x,1/2-y,-z
1/2-x,1/2+y,-z
1/2-x,1/2-y,-z
1/2+x,1/2+y,-z
1/2-x,1/2+y,z
1/2+x,1/2-y,z
loop_
_atom_site_type_symbol
_atom_site_label
_atom_site_fract_x
_atom_site_fract_y
_atom_site_fract_z
Si Si1 0.744034 0.500000 0.209482
Si Si2 0.091332 0.500000 0.668604
Si Si3 0.408335 0.333177 0.000000
Si Si4 0.594118 0.789196 0.394167
Si Si5 0.166482 0.798801 0.198789
Si Si6 0.279429 0.500000 0.000000
O O1 0.826671 0.500000 0.268709
O O2 0.688868 0.407324 0.221513
O O3 0.770901 0.500000 0.097083
O O4 0.095708 0.597779 0.611251
O O5 0.000000 0.500000 0.715118
O O6 0.392329 0.285717 0.105516
O O7 0.339656 0.412346 0.000000
O O8 0.500000 0.368705 0.000000
O O9 0.627683 0.759420 0.500000
O O10 0.500000 0.760884 0.390296
O O11 0.636035 0.748246 0.298364
O O12 0.250000 0.750000 0.169467
#
# Coordination Sequence:
#
# PCOD9487646 Si02
#       6
#     8   8   8  16  16   4
#     4  10  20  38  55  86 111 150 189 232 282 338
#     4  10  19  36  58  81 113 152 192 231 275 336
#     4  10  20  35  57  84 110 150 194 230 276 337
#     4  10  21  38  59  84 115 151 190 233 283 339
#     4  11  21  37  59  83 117 149 189 236 286 333
#     4   8  19  34  59  76 116 148 186 232 277 334
#
# _framework density 18.514768
#
# number of rings (size 3 to 8) (size 9 to 14) (size 15 to 20)
#    0.000    1.867    2.667    1.800    0.000    2.133 
#    0.000    3.000    0.000    1.600    0.000    0.000 
#    0.000    0.000    0.000    0.000    0.000    0.000 
#
# Total GULP energy -167010.801969 kJ/mol
# GULP energy per Si atom -5567.026732 kJ/mol
# Density = 1.847263 g / cm^3
# Si number density = 18.514768 Si / 1000 Ang^3
#
#
#
# Elastic Constant Matrix: (Units=GPa)
#
#
# Indices 1 2 3 4 5 6 
#
# 1 62.4187 1.3963 37.3074 0.0000 0.0000 0.0000
# 2 1.3963 83.1143 21.0081 0.0000 0.0000 0.0000
# 3 37.3074 21.0081 141.2408 0.0000 0.0000 0.0000
# 4 0.0000 0.0000 0.0000 10.0154 0.0000 0.0000
# 5 0.0000 0.0000 0.0000 0.0000 -321.0507 0.0000
# 6 0.0000 0.0000 0.0000 0.0000 0.0000 39.1996
#
#
#
# Elastic Compliance Matrix: (Units=1/GPa)
#
#
# Indices 1 2 3 4 5 6 
#
# 1 0.019103 0.000992 -0.005193 0.000000 0.000000 0.000000
# 2 0.000992 0.012553 -0.002129 0.000000 0.000000 0.000000
# 3 -0.005193 -0.002129 0.008769 0.000000 0.000000 0.000000
# 4 0.000000 0.000000 0.000000 0.099846 0.000000 0.000000
# 5 0.000000 0.000000 0.000000 0.000000 -0.003115 0.000000
# 6 0.000000 0.000000 0.000000 0.000000 0.000000 0.025510
#
#
# Mechanical properties :
#
#
# Convention : Reuss Voigt Hill
#
# Bulk Modulus (GPa) = 36.01912 45.13304 40.57608
# Shear Modulus (GPa) = 27.08829 -39.22967 -6.07069
#
# Velocity S-wave (km/s) = 3.82915 -4.60807 -1.81272
# Velocity P-wave (km/s) = 6.24871 1.97046 4.19307
#
# Compressibility (1/GPa) = 0.02776303
#
# Stress axis : x y z
#
# Youngs Moduli (GPa) = 52.34873 79.66145 114.04395
#
# Poissons Ratio (x) = -0.07900 0.59226
# Poissons Ratio (y) = -0.05192 0.24281
# Poissons Ratio (z) = 0.27186 0.16961
#
# Static dielectric constant tensor:
#      x y z
#    x 1.608300 0.000000 0.000000 
#    y 0.000000 1.669080 0.000000 
#    z 0.000000 0.000000 1.680630 
# 
# From -- ./inp_files/39561.got.cif
#   From: 2010.05.17/outbox.cif.g08.bks.cpg/sg65_20_cif.got.tgz:39561.got - 2010.06.03 17:01:31.
