data_PCOD9487590
_publ_section_title
;
Structure prediction by ZEFSAII (Michael W. Deem and Ramdas Pophale) SiO2 
 PCOD9487590
Probable space group: C M M M
;
_chemical_formula_sum "Si O2"
_cell_formula_units_Z 96
_cell_length_a 15.412296
_cell_length_b 21.326260
_cell_length_c 14.664670
_cell_angle_alpha 90.000000
_cell_angle_beta 90.000000
_cell_angle_gamma 90.000000
_cell_volume 4820.080987
_symmetry_space_group_name_H-M "C M M M"
_symmetry_group_IT_number 65
_symmetry_cell_setting 'orthorhombic'
loop_
_space_group_symop_operation_xyz
x,y,z
-x,-y,z
x,-y,-z
-x,y,-z
-x,-y,-z
x,y,-z
-x,y,z
x,-y,z
1/2+x,1/2+y,z
1/2-x,1/2-y,z
1/2+x,1/2-y,-z
1/2-x,1/2+y,-z
1/2-x,1/2-y,-z
1/2+x,1/2+y,-z
1/2-x,1/2+y,z
1/2+x,1/2-y,z
loop_
_atom_site_type_symbol
_atom_site_label
_atom_site_fract_x
_atom_site_fract_y
_atom_site_fract_z
Si Si1 0.395712 0.875166 0.104407
Si Si2 0.397911 0.190129 0.601406
Si Si3 0.897424 0.809399 0.291211
Si Si4 0.338329 0.569165 0.608408
Si Si5 0.654160 0.069475 0.289877
Si Si6 0.894818 0.773673 0.900263
O O1 0.500000 0.883464 0.116924
O O2 0.347944 0.913302 0.183206
O O3 0.378639 0.800527 0.114126
O O4 0.374980 0.892919 0.000000
O O5 0.359942 0.183246 0.500000
O O6 0.500000 0.203138 0.591503
O O7 0.359918 0.249462 0.655292
O O8 0.391217 0.126672 0.658443
O O9 0.887192 0.871987 0.349199
O O10 0.861430 0.810643 0.188028
O O11 0.000000 0.797983 0.280043
O O12 0.324413 0.577606 0.500000
O O13 0.379557 0.500000 0.620344
O O14 0.248436 0.568187 0.663806
O O15 0.615486 0.000000 0.302882
O O16 0.000000 0.780232 0.905219
O O17 0.859892 0.792122 0.000000
#
# Coordination Sequence:
#
# PCOD9487590 Si02
#       6
#    16  16  16  16  16  16
#     4   9  17  32  55  82 112 146 185 226 266 312
#     4  10  20  33  51  78 107 136 178 226 269 320
#     4  10  19  35  60  85 108 134 173 232 289 328
#     4  10  23  41  57  76 105 144 188 228 273 332
#     4  11  22  36  52  72 109 153 184 218 266 319
#     4   8  14  28  53  82 110 138 168 209 265 325
#
# _framework density 19.916678999999998
#
# number of rings (size 3 to 8) (size 9 to 14) (size 15 to 20)
#    0.000    2.333    1.667    2.500    0.000    4.667 
#    0.000    5.000    0.000    3.500    0.000    2.333 
#    0.000    0.000    0.000    0.000    0.000    0.000 
#
# Total GULP energy -267650.879605 kJ/mol
# GULP energy per Si atom -5576.059992 kJ/mol
# Density = 1.987135 g / cm^3
# Si number density = 19.916679 Si / 1000 Ang^3
#
#
#
# Elastic Constant Matrix: (Units=GPa)
#
#
# Indices 1 2 3 4 5 6 
#
# 1 11.1660 -1.4363 14.6411 0.0000 0.0000 0.0000
# 2 -1.4363 108.0967 84.4302 0.0000 0.0000 0.0000
# 3 14.6411 84.4302 194.2520 0.0000 0.0000 0.0000
# 4 0.0000 0.0000 0.0000 26.3279 0.0000 0.0000
# 5 0.0000 0.0000 0.0000 0.0000 21.5612 0.0000
# 6 0.0000 0.0000 0.0000 0.0000 0.0000 10.2804
#
#
#
# Elastic Compliance Matrix: (Units=1/GPa)
#
#
# Indices 1 2 3 4 5 6 
#
# 1 0.108574 0.011861 -0.013339 0.000000 0.000000 0.000000
# 2 0.011861 0.015301 -0.007545 0.000000 0.000000 0.000000
# 3 -0.013339 -0.007545 0.009433 0.000000 0.000000 0.000000
# 4 0.000000 0.000000 0.000000 0.037983 0.000000 0.000000
# 5 0.000000 0.000000 0.000000 0.000000 0.046380 0.000000
# 6 0.000000 0.000000 0.000000 0.000000 0.000000 0.097273
#
#
# Mechanical properties :
#
#
# Convention : Reuss Voigt Hill
#
# Bulk Modulus (GPa) = 8.67582 56.53162 32.60372
# Shear Modulus (GPa) = 13.46228 26.02586 19.74407
#
# Velocity S-wave (km/s) = 2.60269 3.61880 3.15196
# Velocity P-wave (km/s) = 3.66026 6.77545 5.44537
#
# Compressibility (1/GPa) = 0.11526283
#
# Stress axis : x y z
#
# Youngs Moduli (GPa) = 9.21034 65.35366 106.01640
#
# Poissons Ratio (x) = -0.77515 1.41411
# Poissons Ratio (y) = -0.10924 0.79985
# Poissons Ratio (z) = 0.12285 0.49307
#
# Static dielectric constant tensor:
#      x y z
#    x 1.740560 0.000000 0.000000 
#    y 0.000000 1.696950 0.000000 
#    z 0.000000 0.000000 1.740120 
# 
# From -- ./inp_files/40346.got.cif
#   From: 2010.05.17/outbox.cif.g08.bks.cpg/sg65_21_cif.got.tgz:40346.got - 2010.06.03 17:01:31.
