data_PCOD9487964
_publ_section_title
;
Structure prediction by ZEFSAII (Michael W. Deem and Ramdas Pophale) SiO2 
 PCOD9487964
Probable space group: C M M M
;
_chemical_formula_sum "Si O2"
_cell_formula_units_Z 80
_cell_length_a 19.238862
_cell_length_b 23.218775
_cell_length_c 8.999233
_cell_angle_alpha 90.000000
_cell_angle_beta 90.000000
_cell_angle_gamma 90.000000
_cell_volume 4019.982651
_symmetry_space_group_name_H-M "C M M M"
_symmetry_group_IT_number 65
_symmetry_cell_setting 'orthorhombic'
loop_
_space_group_symop_operation_xyz
x,y,z
-x,-y,z
x,-y,-z
-x,y,-z
-x,-y,-z
x,y,-z
-x,y,z
x,-y,z
1/2+x,1/2+y,z
1/2-x,1/2-y,z
1/2+x,1/2-y,-z
1/2-x,1/2+y,-z
1/2-x,1/2-y,-z
1/2+x,1/2+y,-z
1/2-x,1/2+y,z
1/2+x,1/2-y,z
loop_
_atom_site_type_symbol
_atom_site_label
_atom_site_fract_x
_atom_site_fract_y
_atom_site_fract_z
Si Si1 0.923801 0.067634 0.819924
Si Si2 0.500000 0.873759 0.829544
Si Si3 0.856632 0.767288 0.673694
Si Si4 0.215113 0.132831 0.821963
Si Si5 0.000000 0.233439 0.829078
Si Si6 0.643571 0.128191 0.326551
O O1 0.853564 0.098469 0.769916
O O2 0.000000 0.089065 0.768473
O O3 0.919962 0.000000 0.783881
O O4 0.923987 0.072335 0.000000
O O5 0.500000 0.803507 0.831118
O O6 0.571196 0.891003 0.747637
O O7 0.500000 0.893158 0.000000
O O8 0.851629 0.782060 0.500000
O O9 0.799280 0.802777 0.762923
O O10 0.853935 0.698174 0.685097
O O11 0.930594 0.784323 0.744601
O O12 0.286481 0.108528 0.755319
O O13 0.218958 0.132516 0.000000
O O14 0.000000 0.213271 0.000000
O O15 0.644463 0.113263 0.500000
#
# Coordination Sequence:
#
# PCOD9487964 Si02
#       6
#    16   8  16  16   8  16
#     4   8  16  33  54  75 101 132 168 214 266 314
#     4   9  17  31  51  71  94 125 168 213 245 282
#     4  10  20  32  45  65  98 139 173 206 250 303
#     4  11  21  30  49  77 100 127 170 218 259 300
#     4   9  17  29  45  65  90 125 168 211 247 286
#     4  10  20  34  49  68 101 142 175 203 248 308
#
# _framework density 19.900583999999998
#
# number of rings (size 3 to 8) (size 9 to 14) (size 15 to 20)
#    0.000    2.400    0.000    3.600    1.400    7.200 
#    0.000    0.000    0.000    2.400    0.000    6.300 
#    0.000    5.600    0.000    0.000    0.000    0.000 
#
# Total GULP energy -223247.701509 kJ/mol
# GULP energy per Si atom -5581.192538 kJ/mol
# Density = 1.985529 g / cm^3
# Si number density = 19.900584 Si / 1000 Ang^3
#
#
#
# Elastic Constant Matrix: (Units=GPa)
#
#
# Indices 1 2 3 4 5 6 
#
# 1 197.2202 20.0342 74.1946 0.0000 0.0000 0.0000
# 2 20.0342 20.5865 6.6381 0.0000 0.0000 0.0000
# 3 74.1946 6.6381 97.8521 0.0000 0.0000 0.0000
# 4 0.0000 0.0000 0.0000 3.2665 0.0000 0.0000
# 5 0.0000 0.0000 0.0000 0.0000 29.0323 0.0000
# 6 0.0000 0.0000 0.0000 0.0000 0.0000 17.4729
#
#
#
# Elastic Compliance Matrix: (Units=1/GPa)
#
#
# Indices 1 2 3 4 5 6 
#
# 1 0.007705 -0.005740 -0.005453 0.000000 0.000000 0.000000
# 2 -0.005740 0.053938 0.000693 0.000000 0.000000 0.000000
# 3 -0.005453 0.000693 0.014307 0.000000 0.000000 0.000000
# 4 0.000000 0.000000 0.000000 0.306135 0.000000 0.000000
# 5 0.000000 0.000000 0.000000 0.000000 0.034444 0.000000
# 6 0.000000 0.000000 0.000000 0.000000 0.000000 0.057232
#
#
# Mechanical properties :
#
#
# Convention : Reuss Voigt Hill
#
# Bulk Modulus (GPa) = 18.19812 57.48808 37.84310
# Shear Modulus (GPa) = 9.74514 24.27380 17.00947
#
# Velocity S-wave (km/s) = 2.21530 3.49629 2.92673
# Velocity P-wave (km/s) = 3.96330 6.72674 5.52072
#
# Compressibility (1/GPa) = 0.05495072
#
# Stress axis : x y z
#
# Youngs Moduli (GPa) = 129.78803 18.53982 69.89635
#
# Poissons Ratio (x) = 0.10642 0.38112
# Poissons Ratio (y) = 0.74498 -0.04845
# Poissons Ratio (z) = 0.70769 -0.01285
#
# Static dielectric constant tensor:
#      x y z
#    x 1.782000 0.000000 0.000000 
#    y 0.000000 1.719990 0.000000 
#    z 0.000000 0.000000 1.663830 
# 
# From -- ./inp_files/9702.got.cif
#   From: 2010.05.17/outbox.cif.g08.bks.cpg/sg65_5_cif.got.tgz:9702.got - 2010.06.03 17:01:31.
