data_PCOD9487681
_publ_section_title
;
Structure prediction by ZEFSAII (Michael W. Deem and Ramdas Pophale) SiO2 
 PCOD9487681
Probable space group: C M M M
;
_chemical_formula_sum "Si O2"
_cell_formula_units_Z 116
_cell_length_a 24.135032
_cell_length_b 14.461879
_cell_length_c 13.165583
_cell_angle_alpha 90.000000
_cell_angle_beta 90.000000
_cell_angle_gamma 90.000000
_cell_volume 4595.287606
_symmetry_space_group_name_H-M "C M M M"
_symmetry_group_IT_number 65
_symmetry_cell_setting 'orthorhombic'
loop_
_space_group_symop_operation_xyz
x,y,z
-x,-y,z
x,-y,-z
-x,y,-z
-x,-y,-z
x,y,-z
-x,y,z
x,-y,z
1/2+x,1/2+y,z
1/2-x,1/2-y,z
1/2+x,1/2-y,-z
1/2-x,1/2+y,-z
1/2-x,1/2-y,-z
1/2+x,1/2+y,-z
1/2-x,1/2+y,z
1/2+x,1/2-y,z
loop_
_atom_site_type_symbol
_atom_site_label
_atom_site_fract_x
_atom_site_fract_y
_atom_site_fract_z
Si Si1 0.919720 0.500000 0.500000
Si Si2 0.559616 0.395272 0.185757
Si Si3 0.826779 0.893343 0.881023
Si Si4 0.063231 0.667787 0.659672
Si Si5 0.616631 0.642062 0.384039
Si Si6 0.253958 0.639433 0.386103
Si Si7 0.907706 0.612902 0.886162
Si Si8 0.788434 0.605923 0.179489
O O1 0.923887 0.419616 0.589436
O O2 0.500000 0.351808 0.166776
O O3 0.557458 0.500000 0.143748
O O4 0.614429 0.347904 0.143034
O O5 0.573835 0.400333 0.304563
O O6 0.770720 0.848103 0.842221
O O7 0.829814 0.000000 0.840473
O O8 0.821448 0.899067 0.000000
O O9 0.106185 0.748762 0.631676
O O10 0.065561 0.646132 0.780428
O O11 0.000000 0.698108 0.636045
O O12 0.605878 0.617411 0.500000
O O13 0.681156 0.617128 0.362895
O O14 0.241381 0.606553 0.500000
O O15 0.250000 0.750000 0.386755
O O16 0.211550 0.604305 0.301607
O O17 0.910169 0.500000 0.883503
O O18 0.843209 0.642150 0.872366
O O19 0.927168 0.640532 0.000000
O O20 0.783749 0.500000 0.142070
#
# Coordination Sequence:
#
# PCOD9487681 Si02
#       8
#     4  16  16  16  16  16  16  16
#     4  12  25  44  70 102 128 162 222 274 315 380
#     4  10  21  37  57  86 122 160 208 255 297 363
#     4   9  17  32  57  84 111 152 202 253 306 351
#     4  12  24  42  67  95 129 165 210 268 321 380
#     4  11  23  39  62  89 125 167 203 252 316 376
#     4  10  21  37  57  83 120 159 198 244 305 373
#     4  10  22  40  63  95 129 165 209 260 323 389
#     4  10  19  36  61  89 119 156 201 256 304 365
#
# _framework density 25.243251000000001
#
# number of rings (size 3 to 8) (size 9 to 14) (size 15 to 20)
#    0.000    1.655    2.759    2.276    0.000    3.586 
#    1.241    4.828    0.000    3.310    0.000    0.000 
#    0.000    0.000    0.000    0.000    0.000    0.000 
#
# Total GULP energy -323776.093033 kJ/mol
# GULP energy per Si atom -5582.346432 kJ/mol
# Density = 2.518580 g / cm^3
# Si number density = 25.243251 Si / 1000 Ang^3
#
#
#
# Elastic Constant Matrix: (Units=GPa)
#
#
# Indices 1 2 3 4 5 6 
#
# 1 99.4342 7.4799 23.3005 0.0000 0.0000 0.0000
# 2 7.4799 91.7262 18.7222 0.0000 0.0000 0.0000
# 3 23.3005 18.7222 139.7670 0.0000 0.0000 0.0000
# 4 0.0000 0.0000 0.0000 10.0964 0.0000 0.0000
# 5 0.0000 0.0000 0.0000 0.0000 -5.0473 0.0000
# 6 0.0000 0.0000 0.0000 0.0000 0.0000 -69.7557
#
#
#
# Elastic Compliance Matrix: (Units=1/GPa)
#
#
# Indices 1 2 3 4 5 6 
#
# 1 0.010489 -0.000512 -0.001680 0.000000 0.000000 0.000000
# 2 -0.000512 0.011234 -0.001419 0.000000 0.000000 0.000000
# 3 -0.001680 -0.001419 0.007625 0.000000 0.000000 0.000000
# 4 0.000000 0.000000 0.000000 0.099045 0.000000 0.000000
# 5 0.000000 0.000000 0.000000 0.000000 -0.198127 0.000000
# 6 0.000000 0.000000 0.000000 0.000000 0.000000 -0.014336
#
#
# Mechanical properties :
#
#
# Convention : Reuss Voigt Hill
#
# Bulk Modulus (GPa) = 45.19966 47.77026 46.48496
# Shear Modulus (GPa) = -71.97169 5.82035 -33.07567
#
# Velocity S-wave (km/s) = -5.34539 1.52010 -3.62370
# Velocity P-wave (km/s) = 4.48921 4.69532 0.97287
#
# Compressibility (1/GPa) = 0.02212406
#
# Stress axis : x y z
#
# Youngs Moduli (GPa) = 95.33684 89.01943 131.14821
#
# Poissons Ratio (x) = 0.04562 0.22033
# Poissons Ratio (y) = 0.04885 0.18614
# Poissons Ratio (z) = 0.16017 0.12635
#
# Static dielectric constant tensor:
#      x y z
#    x 2.019590 0.000000 0.000000 
#    y 0.000000 2.048590 0.000000 
#    z 0.000000 0.000000 1.972730 
# 
# From -- ./inp_files/32617.got.cif
#   From: 2010.05.17/outbox.cif.g08.bks.cpg/sg65_17_cif.got.tgz:32617.got - 2010.06.03 17:01:31.
