data_PCOD9487196
_publ_section_title
;
Structure prediction by ZEFSAII (Michael W. Deem and Ramdas Pophale) SiO2 
 PCOD9487196
Probable space group: C M M M
;
_chemical_formula_sum "Si O2"
_cell_formula_units_Z 88
_cell_length_a 17.250729
_cell_length_b 17.125147
_cell_length_c 16.787424
_cell_angle_alpha 90.000000
_cell_angle_beta 90.000000
_cell_angle_gamma 90.000000
_cell_volume 4959.362118
_symmetry_space_group_name_H-M "C M M M"
_symmetry_group_IT_number 65
_symmetry_cell_setting 'orthorhombic'
loop_
_space_group_symop_operation_xyz
x,y,z
-x,-y,z
x,-y,-z
-x,y,-z
-x,-y,-z
x,y,-z
-x,y,z
x,-y,z
1/2+x,1/2+y,z
1/2-x,1/2-y,z
1/2+x,1/2-y,-z
1/2-x,1/2+y,-z
1/2-x,1/2-y,-z
1/2+x,1/2+y,-z
1/2-x,1/2+y,z
1/2+x,1/2-y,z
loop_
_atom_site_type_symbol
_atom_site_label
_atom_site_fract_x
_atom_site_fract_y
_atom_site_fract_z
Si Si1 0.154601 0.821706 0.593251
Si Si2 0.091850 0.354389 0.408765
Si Si3 0.221477 0.588841 0.304338
Si Si4 0.187980 0.179398 0.000000
Si Si5 0.591853 0.176422 0.000000
Si Si6 0.500000 0.587494 0.596579
Si Si7 0.709559 0.093212 0.882375
O O1 0.173737 0.838673 0.500000
O O2 0.129986 0.731607 0.596966
O O3 0.222854 0.851557 0.649203
O O4 0.077881 0.868368 0.618375
O O5 0.102721 0.381717 0.500000
O O6 0.138223 0.406310 0.346797
O O7 0.000000 0.349281 0.394117
O O8 0.251814 0.500000 0.311824
O O9 0.213097 0.608196 0.211491
O O10 0.250000 0.250000 0.000000
O O11 0.212852 0.127156 0.924513
O O12 0.109788 0.229951 0.000000
O O13 0.637081 0.136501 0.925149
O O14 0.500000 0.161934 0.000000
O O15 0.500000 0.500000 0.627191
O O16 0.500000 0.585965 0.500000
O O17 0.703768 0.000000 0.895605
#
# Coordination Sequence:
#
# PCOD9487196 Si02
#       7
#    16  16  16   8   8   8  16
#     4  10  19  34  54  76 103 138 184 232 278 326
#     4  10  21  37  53  71 102 144 187 227 274 328
#     4  11  23  35  52  80 109 140 183 226 266 315
#     4   8  16  33  58  80 104 133 165 202 250 314
#     4  10  20  34  58  90 112 130 166 216 262 310
#     4   9  16  28  50  76 101 130 168 224 284 324
#     4   9  19  36  56  78 107 144 175 208 256 314
#
# _framework density 17.744218
#
# number of rings (size 3 to 8) (size 9 to 14) (size 15 to 20)
#    0.000    2.455    0.909    2.727    0.000    9.818 
#    0.000    2.727    2.000    1.091    0.000    0.000 
#    0.000    0.000    0.000    0.000    0.000    0.000 
#
# Total GULP energy -245258.518260 kJ/mol
# GULP energy per Si atom -5574.057233 kJ/mol
# Density = 1.770383 g / cm^3
# Si number density = 17.744218 Si / 1000 Ang^3
#
#
#
# Elastic Constant Matrix: (Units=GPa)
#
#
# Indices 1 2 3 4 5 6 
#
# 1 96.6022 35.3887 55.1176 0.0000 0.0000 0.0000
# 2 35.3887 61.3000 41.6579 0.0000 0.0000 0.0000
# 3 55.1176 41.6579 114.4462 0.0000 0.0000 0.0000
# 4 0.0000 0.0000 0.0000 23.0324 0.0000 0.0000
# 5 0.0000 0.0000 0.0000 0.0000 -133.6271 0.0000
# 6 0.0000 0.0000 0.0000 0.0000 0.0000 17.3542
#
#
#
# Elastic Compliance Matrix: (Units=1/GPa)
#
#
# Indices 1 2 3 4 5 6 
#
# 1 0.015393 -0.005113 -0.005552 0.000000 0.000000 0.000000
# 2 -0.005113 0.023373 -0.006045 0.000000 0.000000 0.000000
# 3 -0.005552 -0.006045 0.013612 0.000000 0.000000 0.000000
# 4 0.000000 0.000000 0.000000 0.043417 0.000000 0.000000
# 5 0.000000 0.000000 0.000000 0.000000 -0.007484 0.000000
# 6 0.000000 0.000000 0.000000 0.000000 0.000000 0.057623
#
#
# Mechanical properties :
#
#
# Convention : Reuss Voigt Hill
#
# Bulk Modulus (GPa) = 52.75069 59.63075 56.19072
# Shear Modulus (GPa) = 26.92889 -9.30248 8.81321
#
# Velocity S-wave (km/s) = 3.89988 -2.29214 2.23105
# Velocity P-wave (km/s) = 7.07614 5.16464 6.19456
#
# Compressibility (1/GPa) = 0.01895710
#
# Stress axis : x y z
#
# Youngs Moduli (GPa) = 64.96628 42.78385 73.46470
#
# Poissons Ratio (x) = 0.21876 0.40787
# Poissons Ratio (y) = 0.33219 0.44411
# Poissons Ratio (z) = 0.36069 0.25864
#
# Static dielectric constant tensor:
#      x y z
#    x 1.616610 0.000000 0.000000 
#    y 0.000000 1.631650 0.000000 
#    z 0.000000 0.000000 1.592470 
# 
# From -- ./inp_files/54388.got.cif
#   From: 2010.05.17/outbox.cif.g08.bks.cpg/sg65_28_cif.got.tgz:54388.got - 2010.06.03 17:01:31.
