data_PCOD9487702
_publ_section_title
;
Structure prediction by ZEFSAII (Michael W. Deem and Ramdas Pophale) SiO2 
 PCOD9487702
Probable space group: C M M M
;
_chemical_formula_sum "Si O2"
_cell_formula_units_Z 48
_cell_length_a 19.615366
_cell_length_b 11.057712
_cell_length_c 12.118964
_cell_angle_alpha 90.000000
_cell_angle_beta 90.000000
_cell_angle_gamma 90.000000
_cell_volume 2628.616235
_symmetry_space_group_name_H-M "C M M M"
_symmetry_group_IT_number 65
_symmetry_cell_setting 'orthorhombic'
loop_
_space_group_symop_operation_xyz
x,y,z
-x,-y,z
x,-y,-z
-x,y,-z
-x,-y,-z
x,y,-z
-x,y,z
x,-y,z
1/2+x,1/2+y,z
1/2-x,1/2-y,z
1/2+x,1/2-y,-z
1/2-x,1/2+y,-z
1/2-x,1/2-y,-z
1/2+x,1/2+y,-z
1/2-x,1/2+y,z
1/2+x,1/2-y,z
loop_
_atom_site_type_symbol
_atom_site_label
_atom_site_fract_x
_atom_site_fract_y
_atom_site_fract_z
Si Si1 0.714774 0.631773 0.182492
Si Si2 0.577666 0.254028 0.131920
Si Si3 0.280993 0.000000 0.371273
Si Si4 0.421953 0.000000 0.256247
O O1 0.727926 0.500000 0.129181
O O2 0.750000 0.750000 0.132167
O O3 0.634925 0.659521 0.181970
O O4 0.746795 0.611009 0.304050
O O5 0.500000 0.292555 0.155141
O O6 0.586527 0.119847 0.181852
O O7 0.586497 0.250533 0.000000
O O8 0.267550 0.000000 0.500000
O O9 0.361569 0.000000 0.345016
O O10 0.500000 0.000000 0.299036
#
# Coordination Sequence:
#
# PCOD9487702 Si02
#       4
#    16  16   8   8
#     4  10  21  39  57  87 115 150 193 242 282 335
#     4  10  20  36  59  85 120 159 189 228 286 344
#     4  10  22  40  62  83 113 152 193 239 299 336
#     4  10  19  37  58  88 121 146 192 240 281 342
#
# _framework density 18.260558
#
# number of rings (size 3 to 8) (size 9 to 14) (size 15 to 20)
#    1.000    1.000    3.333    0.500    0.000    5.000 
#    0.000    1.667    0.000    2.000    0.000    0.000 
#    0.000    0.000    0.000    0.000    0.000    0.000 
#
# Total GULP energy -133624.186903 kJ/mol
# GULP energy per Si atom -5567.674454 kJ/mol
# Density = 1.821900 g / cm^3
# Si number density = 18.260558 Si / 1000 Ang^3
#
#
#
# Elastic Constant Matrix: (Units=GPa)
#
#
# Indices 1 2 3 4 5 6 
#
# 1 120.8142 52.1817 49.1390 0.0000 0.0000 0.0000
# 2 52.1817 129.7566 17.5787 0.0000 0.0000 0.0000
# 3 49.1390 17.5787 83.2695 0.0000 0.0000 0.0000
# 4 0.0000 0.0000 0.0000 50.7964 0.0000 0.0000
# 5 0.0000 0.0000 0.0000 0.0000 20.6059 0.0000
# 6 0.0000 0.0000 0.0000 0.0000 0.0000 39.4528
#
#
#
# Elastic Compliance Matrix: (Units=1/GPa)
#
#
# Indices 1 2 3 4 5 6 
#
# 1 0.012829 -0.004255 -0.006672 0.000000 0.000000 0.000000
# 2 -0.004255 0.009345 0.000538 0.000000 0.000000 0.000000
# 3 -0.006672 0.000538 0.015833 0.000000 0.000000 0.000000
# 4 0.000000 0.000000 0.000000 0.019686 0.000000 0.000000
# 5 0.000000 0.000000 0.000000 0.000000 0.048530 0.000000
# 6 0.000000 0.000000 0.000000 0.000000 0.000000 0.025347
#
#
# Mechanical properties :
#
#
# Convention : Reuss Voigt Hill
#
# Bulk Modulus (GPa) = 58.04325 63.51546 60.77935
# Shear Modulus (GPa) = 31.62730 36.50042 34.06386
#
# Velocity S-wave (km/s) = 4.16625 4.47572 4.32375
# Velocity P-wave (km/s) = 7.41611 7.84651 7.63434
#
# Compressibility (1/GPa) = 0.01722853
#
# Stress axis : x y z
#
# Youngs Moduli (GPa) = 77.94883 107.00845 63.15907
#
# Poissons Ratio (x) = 0.45535 0.42142
# Poissons Ratio (y) = 0.33169 -0.03400
# Poissons Ratio (z) = 0.52010 -0.05760
#
# Static dielectric constant tensor:
#      x y z
#    x 1.663590 0.000000 0.000000 
#    y 0.000000 1.660490 0.000000 
#    z 0.000000 0.000000 1.577720 
# 
# From -- ./inp_files/30014.got.cif
#   From: 2010.05.17/outbox.cif.g08.bks.cpg/sg65_16_cif.got.tgz:30014.got - 2010.06.03 17:01:31.
