data_PCOD9487742
_publ_section_title
;
Structure prediction by ZEFSAII (Michael W. Deem and Ramdas Pophale) SiO2 
 PCOD9487742
Probable space group: C M M M
;
_chemical_formula_sum "Si O2"
_cell_formula_units_Z 62
_cell_length_a 21.241963
_cell_length_b 15.837297
_cell_length_c 9.788050
_cell_angle_alpha 90.000000
_cell_angle_beta 90.000000
_cell_angle_gamma 90.000000
_cell_volume 3292.849551
_symmetry_space_group_name_H-M "C M M M"
_symmetry_group_IT_number 65
_symmetry_cell_setting 'orthorhombic'
loop_
_space_group_symop_operation_xyz
x,y,z
-x,-y,z
x,-y,-z
-x,y,-z
-x,-y,-z
x,y,-z
-x,y,z
x,-y,z
1/2+x,1/2+y,z
1/2-x,1/2-y,z
1/2+x,1/2-y,-z
1/2-x,1/2+y,-z
1/2-x,1/2-y,-z
1/2+x,1/2+y,-z
1/2-x,1/2+y,z
1/2+x,1/2-y,z
loop_
_atom_site_type_symbol
_atom_site_label
_atom_site_fract_x
_atom_site_fract_y
_atom_site_fract_z
Si Si1 0.895497 0.346055 0.000000
Si Si2 0.736128 0.397117 0.500000
Si Si3 0.000000 0.500000 0.000000
Si Si4 0.667569 0.903385 0.266058
Si Si5 0.926904 0.632368 0.500000
Si Si6 0.095103 0.166868 0.500000
Si Si7 0.000000 0.899960 0.278342
Si Si8 0.000000 0.203588 0.000000
O O1 0.851829 0.351423 0.866133
O O2 0.944136 0.425561 0.000000
O O3 0.938880 0.263611 0.000000
O O4 0.732120 0.500000 0.500000
O O5 0.776227 0.373069 0.634912
O O6 0.668035 0.356181 0.500000
O O7 0.607301 0.902873 0.366535
O O8 0.681108 0.000000 0.224933
O O9 0.916874 0.733169 0.500000
O O10 0.000000 0.612622 0.500000
O O11 0.059996 0.128057 0.368678
O O12 0.000000 0.852636 0.135285
O O13 0.000000 0.000000 0.261552
#
# Coordination Sequence:
#
# PCOD9487742 Si02
#       8
#     8   8   2  16   8   8   8   4
#     4  11  21  35  57  84 120 162 203 232 285 351
#     4   9  20  39  60  84 118 154 198 256 297 345
#     4  10  20  28  54  82 114 160 198 228 264 338
#     4  10  21  36  54  84 120 163 202 236 280 352
#     4  11  22  33  54  83 123 151 189 253 300 339
#     4  11  21  39  65  93 110 152 201 248 314 358
#     4  11  22  40  65  90 114 148 197 258 311 371
#     4  11  25  39  57  88 126 154 183 255 311 343
#
# _framework density 18.828676000000002
#
# number of rings (size 3 to 8) (size 9 to 14) (size 15 to 20)
#    0.000    1.548    2.581    4.452    3.613    3.097 
#    0.000    1.290    0.000    6.194    0.000    0.000 
#    0.000    0.000    0.000    0.000    0.000    0.000 
#
# Total GULP energy -172959.866539 kJ/mol
# GULP energy per Si atom -5579.350534 kJ/mol
# Density = 1.878582 g / cm^3
# Si number density = 18.828676 Si / 1000 Ang^3
#
#
#
# Elastic Constant Matrix: (Units=GPa)
#
#
# Indices 1 2 3 4 5 6 
#
# 1 152.0854 19.9445 60.0337 0.0000 0.0000 0.0000
# 2 19.9445 109.7324 43.7092 0.0000 0.0000 0.0000
# 3 60.0337 43.7092 163.2102 0.0000 0.0000 0.0000
# 4 0.0000 0.0000 0.0000 -113.8229 0.0000 0.0000
# 5 0.0000 0.0000 0.0000 0.0000 0.9677 0.0000
# 6 0.0000 0.0000 0.0000 0.0000 0.0000 25.3005
#
#
#
# Elastic Compliance Matrix: (Units=1/GPa)
#
#
# Indices 1 2 3 4 5 6 
#
# 1 0.007701 -0.000304 -0.002751 0.000000 0.000000 0.000000
# 2 -0.000304 0.010213 -0.002623 0.000000 0.000000 0.000000
# 3 -0.002751 -0.002623 0.007842 0.000000 0.000000 0.000000
# 4 0.000000 0.000000 0.000000 -0.008786 0.000000 0.000000
# 5 0.000000 0.000000 0.000000 0.000000 1.033336 0.000000
# 6 0.000000 0.000000 0.000000 0.000000 0.000000 0.039525
#
#
# Mechanical properties :
#
#
# Convention : Reuss Voigt Hill
#
# Bulk Modulus (GPa) = 69.44979 74.71142 72.08061
# Shear Modulus (GPa) = 4.52085 2.57844 3.54964
#
# Velocity S-wave (km/s) = 1.55121 1.17149 1.37453
# Velocity P-wave (km/s) = 6.33826 6.44946 6.39410
#
# Compressibility (1/GPa) = 0.01439889
#
# Stress axis : x y z
#
# Youngs Moduli (GPa) = 129.85059 97.91162 127.52350
#
# Poissons Ratio (x) = 0.02974 0.35086
# Poissons Ratio (y) = 0.03945 0.33455
# Poissons Ratio (z) = 0.35727 0.25687
#
# Static dielectric constant tensor:
#      x y z
#    x 1.630980 0.000000 0.000000 
#    y 0.000000 1.650940 0.000000 
#    z 0.000000 0.000000 1.644850 
# 
# From -- ./inp_files/10909.got.cif
#   From: 2010.05.17/outbox.cif.g08.bks.cpg/sg65_6_cif.got.tgz:10909.got - 2010.06.03 17:01:31.
