data_PCOD9487894
_publ_section_title
;
Structure prediction by ZEFSAII (Michael W. Deem and Ramdas Pophale) SiO2 
 PCOD9487894
Probable space group: C M M M
;
_chemical_formula_sum "Si O2"
_cell_formula_units_Z 80
_cell_length_a 22.556007
_cell_length_b 7.446993
_cell_length_c 23.247392
_cell_angle_alpha 90.000000
_cell_angle_beta 90.000000
_cell_angle_gamma 90.000000
_cell_volume 3904.967333
_symmetry_space_group_name_H-M "C M M M"
_symmetry_group_IT_number 65
_symmetry_cell_setting 'orthorhombic'
loop_
_space_group_symop_operation_xyz
x,y,z
-x,-y,z
x,-y,-z
-x,y,-z
-x,-y,-z
x,y,-z
-x,y,z
x,-y,z
1/2+x,1/2+y,z
1/2-x,1/2-y,z
1/2+x,1/2-y,-z
1/2-x,1/2+y,-z
1/2-x,1/2-y,-z
1/2+x,1/2+y,-z
1/2-x,1/2+y,z
1/2+x,1/2-y,z
loop_
_atom_site_type_symbol
_atom_site_label
_atom_site_fract_x
_atom_site_fract_y
_atom_site_fract_z
Si Si1 0.933404 0.781277 0.432926
Si Si2 0.181292 0.214541 0.000000
Si Si3 0.500000 0.784285 0.066913
Si Si4 0.182091 0.785801 0.769490
Si Si5 0.625345 0.708627 0.116200
Si Si6 0.681385 0.284463 0.361004
O O1 0.928424 0.730452 0.500000
O O2 0.874605 0.719868 0.398796
O O3 0.000000 0.725795 0.412627
O O4 0.933290 0.000000 0.430768
O O5 0.250000 0.250000 0.000000
O O6 0.155558 0.289788 0.940585
O O7 0.168295 0.000000 0.000000
O O8 0.556914 0.718788 0.100988
O O9 0.500000 0.000000 0.065759
O O10 0.500000 0.722844 0.000000
O O11 0.250000 0.750000 0.786247
O O12 0.142263 0.714783 0.821704
O O13 0.174603 0.714999 0.704613
O O14 0.172589 0.000000 0.764803
O O15 0.644584 0.500000 0.118699
O O16 0.676762 0.500000 0.360117
O O17 0.750000 0.250000 0.379756
#
# Coordination Sequence:
#
# PCOD9487894 Si02
#       6
#    16   8   8  16  16  16
#     4   8  14  26  45  69  98 131 167 208 248 285
#     4  10  20  31  48  71  93 118 152 192 235 282
#     4  11  23  37  53  73  95 123 158 197 242 286
#     4   9  18  32  50  73  98 127 159 195 241 288
#     4  10  20  35  52  70  95 127 159 192 237 289
#     4   9  17  30  48  73 101 129 164 203 246 293
#
# _framework density 20.486726999999998
#
# number of rings (size 3 to 8) (size 9 to 14) (size 15 to 20)
#    0.000    2.700    1.000    1.500    0.000    2.400 
#    1.800    0.000    0.000    0.600    0.000    1.400 
#    0.000    0.000    0.000    0.000    0.000    0.000 
#
# Total GULP energy -222945.465437 kJ/mol
# GULP energy per Si atom -5573.636636 kJ/mol
# Density = 2.044010 g / cm^3
# Si number density = 20.486727 Si / 1000 Ang^3
#
#
#
# Elastic Constant Matrix: (Units=GPa)
#
#
# Indices 1 2 3 4 5 6 
#
# 1 187.4600 -14.2625 110.9384 0.0000 0.0000 0.0000
# 2 -14.2625 65.7768 3.5915 0.0000 0.0000 0.0000
# 3 110.9384 3.5915 120.7646 0.0000 0.0000 0.0000
# 4 0.0000 0.0000 0.0000 10.9215 0.0000 0.0000
# 5 0.0000 0.0000 0.0000 0.0000 -114.7805 0.0000
# 6 0.0000 0.0000 0.0000 0.0000 0.0000 20.2443
#
#
#
# Elastic Compliance Matrix: (Units=1/GPa)
#
#
# Indices 1 2 3 4 5 6 
#
# 1 0.012368 0.003308 -0.011460 0.000000 0.000000 0.000000
# 2 0.003308 0.016112 -0.003518 0.000000 0.000000 0.000000
# 3 -0.011460 -0.003518 0.018913 0.000000 0.000000 0.000000
# 4 0.000000 0.000000 0.000000 0.091562 0.000000 0.000000
# 5 0.000000 0.000000 0.000000 0.000000 -0.008712 0.000000
# 6 0.000000 0.000000 0.000000 0.000000 0.000000 0.049397
#
#
# Mechanical properties :
#
#
# Convention : Reuss Voigt Hill
#
# Bulk Modulus (GPa) = 41.57519 63.83734 52.70627
# Shear Modulus (GPa) = 23.69683 1.52599 12.61141
#
# Velocity S-wave (km/s) = 3.40471 0.86399 2.48380
# Velocity P-wave (km/s) = 5.98279 5.67656 5.83169
#
# Compressibility (1/GPa) = 0.02405281
#
# Stress axis : x y z
#
# Youngs Moduli (GPa) = 80.85168 62.06479 52.87359
#
# Poissons Ratio (x) = -0.20529 0.60595
# Poissons Ratio (y) = -0.26743 0.18599
# Poissons Ratio (z) = 0.92659 0.21832
#
# Static dielectric constant tensor:
#      x y z
#    x 2.624530 0.000000 0.000000 
#    y 0.000000 1.796770 0.000000 
#    z 0.000000 0.000000 1.741100 
# 
# From -- ./inp_files/67342.got.cif
#   From: 2010.05.17/outbox.cif.g08.bks.cpg/sg65_34_cif.got.tgz:67342.got - 2010.06.03 17:01:31.
