data_PCOD9487953
_publ_section_title
;
Structure prediction by ZEFSAII (Michael W. Deem and Ramdas Pophale) SiO2 
 PCOD9487953
Probable space group: C M M M
;
_chemical_formula_sum "Si O2"
_cell_formula_units_Z 72
_cell_length_a 37.121233
_cell_length_b 8.970831
_cell_length_c 14.564029
_cell_angle_alpha 90.000000
_cell_angle_beta 90.000000
_cell_angle_gamma 90.000000
_cell_volume 4849.942651
_symmetry_space_group_name_H-M "C M M M"
_symmetry_group_IT_number 65
_symmetry_cell_setting 'orthorhombic'
loop_
_space_group_symop_operation_xyz
x,y,z
-x,-y,z
x,-y,-z
-x,y,-z
-x,-y,-z
x,y,-z
-x,y,z
x,-y,z
1/2+x,1/2+y,z
1/2-x,1/2-y,z
1/2+x,1/2-y,-z
1/2-x,1/2+y,-z
1/2-x,1/2-y,-z
1/2+x,1/2+y,-z
1/2-x,1/2+y,z
1/2+x,1/2-y,z
loop_
_atom_site_type_symbol
_atom_site_label
_atom_site_fract_x
_atom_site_fract_y
_atom_site_fract_z
Si Si1 0.786756 0.828428 0.611610
Si Si2 0.071647 0.820998 0.715681
Si Si3 0.000000 0.818853 0.605188
Si Si4 0.042442 0.678747 0.894457
Si Si5 0.637905 0.178121 0.391509
O O1 0.785614 0.828159 0.500000
O O2 0.750000 0.750000 0.643330
O O3 0.823019 0.741061 0.636588
O O4 0.788366 0.000000 0.641485
O O5 0.065566 0.762471 0.818533
O O6 0.106495 0.752255 0.667467
O O7 0.036060 0.773096 0.658354
O O8 0.073672 0.000000 0.714155
O O9 0.000000 0.766745 0.500000
O O10 0.000000 0.000000 0.603900
O O11 0.046017 0.500000 0.883675
O O12 0.000000 0.715216 0.881083
O O13 0.051604 0.715838 0.000000
O O14 0.632608 0.214001 0.500000
O O15 0.637279 0.000000 0.382124
#
# Coordination Sequence:
#
# PCOD9487953 Si02
#       5
#    16  16   8  16  16
#     4   9  16  27  44  65  89 119 154 191 230 272
#     4  11  20  31  47  67  91 120 154 195 237 277
#     4   9  18  30  42  59  86 120 155 189 226 269
#     4   9  18  33  51  68  88 115 147 188 238 287
#     4  10  20  32  45  64  92 126 161 195 230 272
#
# _framework density 14.845535999999999
#
# number of rings (size 3 to 8) (size 9 to 14) (size 15 to 20)
#    0.000    2.333    1.111    3.333    0.000    5.333 
#    0.000    1.111    0.000    2.667    0.000    0.000 
#    0.000    0.889    0.000    3.333    0.000    5.111 
#
# Total GULP energy -200768.546810 kJ/mol
# GULP energy per Si atom -5576.904078 kJ/mol
# Density = 1.481175 g / cm^3
# Si number density = 14.845536 Si / 1000 Ang^3
#
#
#
# Elastic Constant Matrix: (Units=GPa)
#
#
# Indices 1 2 3 4 5 6 
#
# 1 142.1847 61.3616 65.4376 0.0000 0.0000 0.0000
# 2 61.3616 69.9084 47.5163 0.0000 0.0000 0.0000
# 3 65.4376 47.5163 85.4117 0.0000 0.0000 0.0000
# 4 0.0000 0.0000 0.0000 20.7104 0.0000 0.0000
# 5 0.0000 0.0000 0.0000 0.0000 4.3076 0.0000
# 6 0.0000 0.0000 0.0000 0.0000 0.0000 27.0390
#
#
#
# Elastic Compliance Matrix: (Units=1/GPa)
#
#
# Indices 1 2 3 4 5 6 
#
# 1 0.012866 -0.007386 -0.005748 0.000000 0.000000 0.000000
# 2 -0.007386 0.027242 -0.009497 0.000000 0.000000 0.000000
# 3 -0.005748 -0.009497 0.021395 0.000000 0.000000 0.000000
# 4 0.000000 0.000000 0.000000 0.048285 0.000000 0.000000
# 5 0.000000 0.000000 0.000000 0.000000 0.232149 0.000000
# 6 0.000000 0.000000 0.000000 0.000000 0.000000 0.036984
#
#
# Mechanical properties :
#
#
# Convention : Reuss Voigt Hill
#
# Bulk Modulus (GPa) = 61.57028 71.79287 66.68158
# Shear Modulus (GPa) = 11.63881 18.62403 15.13142
#
# Velocity S-wave (km/s) = 2.80303 3.54576 3.19604
# Velocity P-wave (km/s) = 7.21387 8.07639 7.65729
#
# Compressibility (1/GPa) = 0.01624160
#
# Stress axis : x y z
#
# Youngs Moduli (GPa) = 77.72281 36.70753 46.73954
#
# Poissons Ratio (x) = 0.27113 0.26867
# Poissons Ratio (y) = 0.57407 0.44387
# Poissons Ratio (z) = 0.44677 0.34860
#
# Static dielectric constant tensor:
#      x y z
#    x 1.474980 0.000000 0.000000 
#    y 0.000000 1.494530 0.000000 
#    z 0.000000 0.000000 1.473030 
# 
# From -- ./inp_files/36993.got.cif
#   From: 2010.05.17/outbox.cif.g08.bks.cpg/sg65_19_cif.got.tgz:36993.got - 2010.06.03 17:01:31.
