data_PCOD9487729
_publ_section_title
;
Structure prediction by ZEFSAII (Michael W. Deem and Ramdas Pophale) SiO2 
 PCOD9487729
Probable space group: C M M M
;
_chemical_formula_sum "Si O2"
_cell_formula_units_Z 76
_cell_length_a 24.671496
_cell_length_b 17.346207
_cell_length_c 9.772914
_cell_angle_alpha 90.000000
_cell_angle_beta 90.000000
_cell_angle_gamma 90.000000
_cell_volume 4182.385751
_symmetry_space_group_name_H-M "C M M M"
_symmetry_group_IT_number 65
_symmetry_cell_setting 'orthorhombic'
loop_
_space_group_symop_operation_xyz
x,y,z
-x,-y,z
x,-y,-z
-x,y,-z
-x,-y,-z
x,y,-z
-x,y,z
x,-y,z
1/2+x,1/2+y,z
1/2-x,1/2-y,z
1/2+x,1/2-y,-z
1/2-x,1/2+y,-z
1/2-x,1/2-y,-z
1/2+x,1/2+y,-z
1/2-x,1/2+y,z
1/2+x,1/2-y,z
loop_
_atom_site_type_symbol
_atom_site_label
_atom_site_fract_x
_atom_site_fract_y
_atom_site_fract_z
Si Si1 0.625496 0.593946 0.500000
Si Si2 0.908107 0.000000 0.000000
Si Si3 0.751876 0.158371 0.500000
Si Si4 0.791822 0.180157 0.000000
Si Si5 0.936973 0.129643 0.222696
Si Si6 0.271320 0.910097 0.217118
Si Si7 0.367170 0.911300 0.000000
Si Si8 0.911505 0.248411 0.000000
O O1 0.624342 0.500000 0.500000
O O2 0.687213 0.624206 0.500000
O O3 0.595467 0.625477 0.635754
O O4 0.912285 0.932951 0.118838
O O5 0.750000 0.250000 0.500000
O O6 0.723660 0.128237 0.363270
O O7 0.750000 0.250000 0.000000
O O8 0.777284 0.128991 0.131684
O O9 0.849740 0.218111 0.000000
O O10 0.000000 0.109364 0.246344
O O11 0.935500 0.209807 0.137325
O O12 0.325978 0.902167 0.128345
O O13 0.259015 0.000000 0.230776
O O14 0.409233 0.841051 0.000000
O O15 0.387490 0.000000 0.000000
#
# Coordination Sequence:
#
# PCOD9487729 Si02
#       8
#     8   4   8   8  16  16   8   8
#     4  12  25  40  62  87 118 164 208 242 289 355
#     4  10  19  38  60  86 118 154 192 240 302 342
#     4  12  26  37  55  80 123 152 192 243 287 337
#     4  11  18  32  55  79 112 147 192 237 282 339
#     4  11  23  39  60  87 120 158 199 250 299 349
#     4  10  20  36  53  75 112 155 189 233 278 336
#     4   9  20  37  61  84 109 148 198 239 296 361
#     4  11  21  35  59  84 120 149 200 240 298 366
#
# _framework density 18.171447000000001
#
# number of rings (size 3 to 8) (size 9 to 14) (size 15 to 20)
#    0.000    1.263    3.158    6.000    2.947    0.421 
#    7.579    0.000    0.000    1.263    0.000    0.000 
#    0.000    1.684    0.000    0.000    0.000    0.000 
#
# Total GULP energy -211768.929899 kJ/mol
# GULP energy per Si atom -5572.866576 kJ/mol
# Density = 1.813009 g / cm^3
# Si number density = 18.171447 Si / 1000 Ang^3
#
#
#
# Elastic Constant Matrix: (Units=GPa)
#
#
# Indices 1 2 3 4 5 6 
#
# 1 36.2692 15.8595 17.1307 0.0000 0.0000 0.0000
# 2 15.8595 146.0100 58.9079 0.0000 0.0000 0.0000
# 3 17.1307 58.9079 157.4740 0.0000 0.0000 0.0000
# 4 0.0000 0.0000 0.0000 30.2111 0.0000 0.0000
# 5 0.0000 0.0000 0.0000 0.0000 18.1153 0.0000
# 6 0.0000 0.0000 0.0000 0.0000 0.0000 4.5297
#
#
#
# Elastic Compliance Matrix: (Units=1/GPa)
#
#
# Indices 1 2 3 4 5 6 
#
# 1 0.029687 -0.002263 -0.002383 0.000000 0.000000 0.000000
# 2 -0.002263 0.008239 -0.002836 0.000000 0.000000 0.000000
# 3 -0.002383 -0.002836 0.007670 0.000000 0.000000 0.000000
# 4 0.000000 0.000000 0.000000 0.033100 0.000000 0.000000
# 5 0.000000 0.000000 0.000000 0.000000 0.055202 0.000000
# 6 0.000000 0.000000 0.000000 0.000000 0.000000 0.220764
#
#
# Mechanical properties :
#
#
# Convention : Reuss Voigt Hill
#
# Bulk Modulus (GPa) = 32.64544 58.17218 45.40881
# Shear Modulus (GPa) = 13.16357 27.09489 20.12923
#
# Velocity S-wave (km/s) = 2.69441 3.86563 3.33188
# Velocity P-wave (km/s) = 5.26156 7.21156 6.31231
#
# Compressibility (1/GPa) = 0.03063215
#
# Stress axis : x y z
#
# Youngs Moduli (GPa) = 33.68513 121.37751 130.37353
#
# Poissons Ratio (x) = 0.27470 0.31066
# Poissons Ratio (y) = 0.07624 0.36971
# Poissons Ratio (z) = 0.08027 0.34420
#
# Static dielectric constant tensor:
#      x y z
#    x 1.629410 0.000000 0.000000 
#    y 0.000000 1.645560 0.000000 
#    z 0.000000 0.000000 1.619520 
# 
# From -- ./inp_files/16152.got.cif
#   From: 2010.05.17/outbox.cif.g08.bks.cpg/sg65_9_cif.got.tgz:16152.got - 2010.06.03 17:01:31.
