data_PCOD9487082
_publ_section_title
;
Structure prediction by ZEFSAII (Michael W. Deem and Ramdas Pophale) SiO2 
 PCOD9487082
Probable space group: C M M M
;
_chemical_formula_sum "Si O2"
_cell_formula_units_Z 64
_cell_length_a 11.038691
_cell_length_b 33.295699
_cell_length_c 7.764701
_cell_angle_alpha 90.000000
_cell_angle_beta 90.000000
_cell_angle_gamma 90.000000
_cell_volume 2853.845449
_symmetry_space_group_name_H-M "C M M M"
_symmetry_group_IT_number 65
_symmetry_cell_setting 'orthorhombic'
loop_
_space_group_symop_operation_xyz
x,y,z
-x,-y,z
x,-y,-z
-x,y,-z
-x,-y,-z
x,y,-z
-x,y,z
x,-y,z
1/2+x,1/2+y,z
1/2-x,1/2-y,z
1/2+x,1/2-y,-z
1/2-x,1/2+y,-z
1/2-x,1/2-y,-z
1/2+x,1/2+y,-z
1/2-x,1/2+y,z
1/2+x,1/2-y,z
loop_
_atom_site_type_symbol
_atom_site_label
_atom_site_fract_x
_atom_site_fract_y
_atom_site_fract_z
Si Si1 0.500000 0.453372 0.208340
Si Si2 0.858287 0.500000 0.193721
Si Si3 0.767674 0.671622 0.700081
Si Si4 0.000000 0.189863 0.695151
Si Si5 0.245531 0.582394 0.209168
Si Si6 0.000000 0.722524 0.193519
O O1 0.500000 0.500000 0.269823
O O2 0.616985 0.428064 0.257194
O O3 0.500000 0.455914 0.000000
O O4 0.822174 0.457622 0.271789
O O5 0.000000 0.500000 0.176109
O O6 0.799865 0.500000 0.000000
O O7 0.762381 0.683754 0.500000
O O8 0.630842 0.677655 0.773762
O O9 0.795935 0.624497 0.716557
O O10 0.877950 0.696682 0.780062
O O11 0.000000 0.238091 0.690287
O O12 0.000000 0.173009 0.500000
O O13 0.233728 0.585381 0.000000
O O14 0.000000 0.738340 0.000000
#
# Coordination Sequence:
#
# PCOD9487082 Si02
#       6
#     8   8  16   8  16   8
#     4   9  15  28  51  80 111 149 201 254 303 352
#     4   9  18  31  50  78 113 155 201 251 302 350
#     4  11  24  42  64  92 129 168 205 249 307 374
#     4  10  23  45  69  92 125 168 204 241 306 380
#     4  10  19  33  56  84 116 156 206 257 302 353
#     4  12  26  43  67  97 125 156 203 260 312 365
#
# _framework density 22.425882000000001
#
# number of rings (size 3 to 8) (size 9 to 14) (size 15 to 20)
#    0.000    1.750    1.250    3.375    1.750    5.000 
#    0.000    0.625    0.000    1.500    0.000    0.000 
#    0.000    0.000    0.000    0.000    0.000    0.000 
#
# Total GULP energy -178675.358104 kJ/mol
# GULP energy per Si atom -5583.604941 kJ/mol
# Density = 2.237484 g / cm^3
# Si number density = 22.425882 Si / 1000 Ang^3
#
#
#
# Elastic Constant Matrix: (Units=GPa)
#
#
# Indices 1 2 3 4 5 6 
#
# 1 113.0636 26.6862 7.0227 0.0000 0.0000 0.0000
# 2 26.6862 120.1882 -12.2113 0.0000 0.0000 0.0000
# 3 7.0227 -12.2113 50.7489 0.0000 0.0000 0.0000
# 4 0.0000 0.0000 0.0000 25.4267 0.0000 0.0000
# 5 0.0000 0.0000 0.0000 0.0000 -2.9670 0.0000
# 6 0.0000 0.0000 0.0000 0.0000 0.0000 180.1261
#
#
#
# Elastic Compliance Matrix: (Units=1/GPa)
#
#
# Indices 1 2 3 4 5 6 
#
# 1 0.009503 -0.002300 -0.001869 0.000000 0.000000 0.000000
# 2 -0.002300 0.009085 0.002504 0.000000 0.000000 0.000000
# 3 -0.001869 0.002504 0.020566 0.000000 0.000000 0.000000
# 4 0.000000 0.000000 0.000000 0.039329 0.000000 0.000000
# 5 0.000000 0.000000 0.000000 0.000000 -0.337040 0.000000
# 6 0.000000 0.000000 0.000000 0.000000 0.000000 0.005552
#
#
# Mechanical properties :
#
#
# Convention : Reuss Voigt Hill
#
# Bulk Modulus (GPa) = 27.91206 36.33288 32.12247
# Shear Modulus (GPa) = -21.03192 58.01737 18.49273
#
# Velocity S-wave (km/s) = -3.06574 5.09184 2.87473
# Velocity P-wave (km/s) = 0.24149 7.12781 5.03723
#
# Compressibility (1/GPa) = 0.03582681
#
# Stress axis : x y z
#
# Youngs Moduli (GPa) = 105.22447 110.06661 48.62380
#
# Poissons Ratio (x) = 0.25315 0.09085
# Poissons Ratio (y) = 0.24201 -0.12177
# Poissons Ratio (z) = 0.19661 -0.27565
#
# Static dielectric constant tensor:
#      x y z
#    x 1.989010 0.000000 0.000000 
#    y 0.000000 1.805090 0.000000 
#    z 0.000000 0.000000 1.862860 
# 
# From -- ./inp_files/5048.got.cif
#   From: 2010.05.17/outbox.cif.g08.bks.cpg/sg65_3_cif.got.tgz:5048.got - 2010.06.03 17:01:31.
