data_PCOD9487934
_publ_section_title
;
Structure prediction by ZEFSAII (Michael W. Deem and Ramdas Pophale) SiO2 
 PCOD9487934
Probable space group: C M M M
;
_chemical_formula_sum "Si O2"
_cell_formula_units_Z 80
_cell_length_a 9.056817
_cell_length_b 29.011951
_cell_length_c 21.184571
_cell_angle_alpha 90.000000
_cell_angle_beta 90.000000
_cell_angle_gamma 90.000000
_cell_volume 5566.371676
_symmetry_space_group_name_H-M "C M M M"
_symmetry_group_IT_number 65
_symmetry_cell_setting 'orthorhombic'
loop_
_space_group_symop_operation_xyz
x,y,z
-x,-y,z
x,-y,-z
-x,y,-z
-x,-y,-z
x,y,-z
-x,y,z
x,-y,z
1/2+x,1/2+y,z
1/2-x,1/2-y,z
1/2+x,1/2-y,-z
1/2-x,1/2+y,-z
1/2-x,1/2-y,-z
1/2+x,1/2+y,-z
1/2-x,1/2+y,z
1/2+x,1/2-y,z
loop_
_atom_site_type_symbol
_atom_site_label
_atom_site_fract_x
_atom_site_fract_y
_atom_site_fract_z
Si Si1 0.176769 0.202508 0.926245
Si Si2 0.822274 0.897274 0.121002
Si Si3 0.825364 0.555210 0.000000
Si Si4 0.324617 0.055166 0.240683
Si Si5 0.829197 0.443792 0.500000
Si Si6 0.830005 0.056027 0.371470
O O1 0.250000 0.250000 0.904572
O O2 0.216001 0.156676 0.887938
O O3 0.000000 0.207509 0.924513
O O4 0.219308 0.195162 0.000000
O O5 0.757310 0.918378 0.184782
O O6 0.000000 0.901692 0.119276
O O7 0.752029 0.924008 0.061755
O O8 0.810796 0.500000 0.000000
O O9 0.000000 0.566373 0.000000
O O10 0.500000 0.063150 0.238316
O O11 0.259354 0.068934 0.308746
O O12 0.300483 0.000000 0.232971
O O13 0.826873 0.500000 0.500000
O O14 0.747138 0.428656 0.436256
O O15 0.000000 0.429775 0.500000
O O16 0.000000 0.071104 0.368129
O O17 0.830269 0.000000 0.373009
#
# Coordination Sequence:
#
# PCOD9487934 Si02
#       6
#    16  16   8  16   8  16
#     4   9  18  33  50  69  88 106 134 174 220 270
#     4  11  21  34  49  66  87 112 144 181 221 265
#     4  11  23  35  46  63  86 113 148 185 218 255
#     4  10  20  32  44  61  87 118 152 186 220 261
#     4   9  15  23  37  57  81 109 142 183 224 257
#     4   9  16  26  40  58  80 110 148 185 220 258
#
# _framework density 14.372019
#
# number of rings (size 3 to 8) (size 9 to 14) (size 15 to 20)
#    0.000    2.200    1.000    3.000    0.000    9.600 
#    0.000    0.000    0.000    0.000    0.000    0.000 
#    0.000    0.000    0.000    0.900    0.000   12.300 
#
# Total GULP energy -223085.235732 kJ/mol
# GULP energy per Si atom -5577.130893 kJ/mol
# Density = 1.433931 g / cm^3
# Si number density = 14.372019 Si / 1000 Ang^3
#
#
#
# Elastic Constant Matrix: (Units=GPa)
#
#
# Indices 1 2 3 4 5 6 
#
# 1 97.6204 52.6283 69.9318 0.0000 0.0000 0.0000
# 2 52.6283 65.4348 53.0461 0.0000 0.0000 0.0000
# 3 69.9318 53.0461 139.2360 0.0000 0.0000 0.0000
# 4 0.0000 0.0000 0.0000 0.4721 0.0000 0.0000
# 5 0.0000 0.0000 0.0000 0.0000 29.0052 0.0000
# 6 0.0000 0.0000 0.0000 0.0000 0.0000 20.0984
#
#
#
# Elastic Compliance Matrix: (Units=1/GPa)
#
#
# Indices 1 2 3 4 5 6 
#
# 1 0.021023 -0.012080 -0.005957 0.000000 0.000000 0.000000
# 2 -0.012080 0.029052 -0.005001 0.000000 0.000000 0.000000
# 3 -0.005957 -0.005001 0.012079 0.000000 0.000000 0.000000
# 4 0.000000 0.000000 0.000000 2.118183 0.000000 0.000000
# 5 0.000000 0.000000 0.000000 0.000000 0.034477 0.000000
# 6 0.000000 0.000000 0.000000 0.000000 0.000000 0.049755
#
#
# Mechanical properties :
#
#
# Convention : Reuss Voigt Hill
#
# Bulk Modulus (GPa) = 62.19219 72.61151 67.40185
# Shear Modulus (GPa) = 2.15889 18.36080 10.25984
#
# Velocity S-wave (km/s) = 1.22695 3.57814 2.67475
# Velocity P-wave (km/s) = 6.73604 8.22820 7.51923
#
# Compressibility (1/GPa) = 0.01607919
#
# Stress axis : x y z
#
# Youngs Moduli (GPa) = 47.56600 34.42070 82.78593
#
# Poissons Ratio (x) = 0.41579 0.49315
# Poissons Ratio (y) = 0.57458 0.41403
# Poissons Ratio (z) = 0.28335 0.17215
#
# Static dielectric constant tensor:
#      x y z
#    x 1.480500 0.000000 0.000000 
#    y 0.000000 1.448670 0.000000 
#    z 0.000000 0.000000 1.460440 
# 
# From -- ./inp_files/57880.got.cif
#   From: 2010.05.17/outbox.cif.g08.bks.cpg/sg65_29_cif.got.tgz:57880.got - 2010.06.03 17:01:31.
