data_PCOD9487456
_publ_section_title
;
Structure prediction by ZEFSAII (Michael W. Deem and Ramdas Pophale) SiO2 
 PCOD9487456
Probable space group: C M M M
;
_chemical_formula_sum "Si O2"
_cell_formula_units_Z 104
_cell_length_a 8.640996
_cell_length_b 22.224098
_cell_length_c 28.478284
_cell_angle_alpha 90.000000
_cell_angle_beta 90.000000
_cell_angle_gamma 90.000000
_cell_volume 5468.922440
_symmetry_space_group_name_H-M "C M M M"
_symmetry_group_IT_number 65
_symmetry_cell_setting 'orthorhombic'
loop_
_space_group_symop_operation_xyz
x,y,z
-x,-y,z
x,-y,-z
-x,y,-z
-x,-y,-z
x,y,-z
-x,y,z
x,-y,z
1/2+x,1/2+y,z
1/2-x,1/2-y,z
1/2+x,1/2-y,-z
1/2-x,1/2+y,-z
1/2-x,1/2-y,-z
1/2+x,1/2+y,-z
1/2-x,1/2+y,z
1/2+x,1/2-y,z
loop_
_atom_site_type_symbol
_atom_site_label
_atom_site_fract_x
_atom_site_fract_y
_atom_site_fract_z
Si Si1 0.186694 0.929162 0.173789
Si Si2 0.820236 0.633444 0.449098
Si Si3 0.683311 0.685204 0.645339
Si Si4 0.678549 0.500000 0.671230
Si Si5 0.328387 0.000000 0.422683
Si Si6 0.685897 0.682866 0.000000
Si Si7 0.682903 0.889796 0.274361
Si Si8 0.687740 0.319275 0.104592
O O1 0.240547 0.906325 0.224812
O O2 0.236005 0.874679 0.138546
O O3 0.000000 0.930939 0.172095
O O4 0.237861 0.000000 0.166092
O O5 0.761721 0.656402 0.500000
O O6 0.733010 0.648477 0.401021
O O7 0.820196 0.561272 0.450697
O O8 0.000000 0.653069 0.444114
O O9 0.500000 0.682895 0.649829
O O10 0.750000 0.750000 0.634773
O O11 0.754787 0.665864 0.695460
O O12 0.500000 0.500000 0.686374
O O13 0.695275 0.500000 0.615853
O O14 0.767547 0.443415 0.691448
O O15 0.500000 0.000000 0.398783
O O16 0.750000 0.750000 0.000000
O O17 0.733324 0.660034 0.051500
O O18 0.500000 0.682372 0.000000
O O19 0.500000 0.885620 0.268268
O O20 0.500000 0.314603 0.107059
O O21 0.750000 0.250000 0.113069
#
# Coordination Sequence:
#
# PCOD9487456 Si02
#       8
#    16  16  16   8   8   8  16  16
#     4  10  21  37  57  83 119 159 200 246 299 357
#     4  10  21  38  61  89 120 153 188 230 282 340
#     4  12  26  44  64  86 114 149 191 239 288 344
#     4  12  22  35  59  89 115 146 185 232 281 335
#     4  10  19  34  60  90 121 151 185 229 277 334
#     4   8  14  28  51  79 111 149 199 248 295 353
#     4  12  24  40  62  87 114 149 191 236 287 347
#     4   9  18  33  55  83 115 155 200 250 302 353
#
# _framework density 19.016544
#
# number of rings (size 3 to 8) (size 9 to 14) (size 15 to 20)
#    0.000    1.538    2.308    3.692    0.000    2.769 
#    0.000    1.923    0.000    3.692    0.000    0.000 
#    0.000    7.385    0.000    0.000    0.000    0.000 
#
# Total GULP energy -289586.795075 kJ/mol
# GULP energy per Si atom -5568.976828 kJ/mol
# Density = 1.897326 g / cm^3
# Si number density = 19.016544 Si / 1000 Ang^3
#
#
#
# Elastic Constant Matrix: (Units=GPa)
#
#
# Indices 1 2 3 4 5 6 
#
# 1 38.1854 19.7313 22.1352 0.0000 0.0000 0.0000
# 2 19.7313 97.7433 54.0991 0.0000 0.0000 0.0000
# 3 22.1352 54.0991 133.4230 0.0000 0.0000 0.0000
# 4 0.0000 0.0000 0.0000 -29.6332 0.0000 0.0000
# 5 0.0000 0.0000 0.0000 0.0000 63.0769 0.0000
# 6 0.0000 0.0000 0.0000 0.0000 0.0000 20.9552
#
#
#
# Elastic Compliance Matrix: (Units=1/GPa)
#
#
# Indices 1 2 3 4 5 6 
#
# 1 0.030315 -0.004301 -0.003285 0.000000 0.000000 0.000000
# 2 -0.004301 0.013802 -0.004883 0.000000 0.000000 0.000000
# 3 -0.003285 -0.004883 0.010020 0.000000 0.000000 0.000000
# 4 0.000000 0.000000 0.000000 -0.033746 0.000000 0.000000
# 5 0.000000 0.000000 0.000000 0.000000 0.015854 0.000000
# 6 0.000000 0.000000 0.000000 0.000000 0.000000 0.047721
#
#
# Mechanical properties :
#
#
# Convention : Reuss Voigt Hill
#
# Bulk Modulus (GPa) = 34.24888 51.25367 42.75127
# Shear Modulus (GPa) = 42.14585 22.43887 32.29236
#
# Velocity S-wave (km/s) = 4.71284 3.43879 4.12529
# Velocity P-wave (km/s) = 6.90388 6.54047 6.72463
#
# Compressibility (1/GPa) = 0.02919804
#
# Stress axis : x y z
#
# Youngs Moduli (GPa) = 32.98697 72.45559 99.80322
#
# Poissons Ratio (x) = 0.31165 0.32788
# Poissons Ratio (y) = 0.14189 0.48729
# Poissons Ratio (z) = 0.10837 0.35377
#
# Static dielectric constant tensor:
#      x y z
#    x 1.665800 0.000000 0.000000 
#    y 0.000000 1.767620 0.000000 
#    z 0.000000 0.000000 1.682540 
# 
# From -- ./inp_files/73381.got.cif
#   From: 2010.05.17/outbox.cif.g08.bks.cpg/sg65_37_cif.got.tgz:73381.got - 2010.06.03 17:01:31.
