data_PCOD9487849
_publ_section_title
;
Structure prediction by ZEFSAII (Michael W. Deem and Ramdas Pophale) SiO2 
 PCOD9487849
Probable space group: C M M M
;
_chemical_formula_sum "Si O2"
_cell_formula_units_Z 88
_cell_length_a 8.681175
_cell_length_b 27.703345
_cell_length_c 14.617675
_cell_angle_alpha 90.000000
_cell_angle_beta 90.000000
_cell_angle_gamma 90.000000
_cell_volume 3515.515551
_symmetry_space_group_name_H-M "C M M M"
_symmetry_group_IT_number 65
_symmetry_cell_setting 'orthorhombic'
loop_
_space_group_symop_operation_xyz
x,y,z
-x,-y,z
x,-y,-z
-x,y,-z
-x,-y,-z
x,y,-z
-x,y,z
x,-y,z
1/2+x,1/2+y,z
1/2-x,1/2-y,z
1/2+x,1/2-y,-z
1/2-x,1/2+y,-z
1/2-x,1/2-y,-z
1/2+x,1/2+y,-z
1/2-x,1/2+y,z
1/2+x,1/2-y,z
loop_
_atom_site_type_symbol
_atom_site_label
_atom_site_fract_x
_atom_site_fract_y
_atom_site_fract_z
Si Si1 0.000000 0.053414 0.640105
Si Si2 0.330259 0.074047 0.373376
Si Si3 0.500000 0.332539 0.386864
Si Si4 0.318593 0.447557 0.000000
Si Si5 0.183344 0.802647 0.108022
Si Si6 0.676545 0.895744 0.830547
Si Si7 0.666764 0.811043 0.395148
O O1 0.830788 0.052248 0.595037
O O2 0.000000 0.113367 0.661118
O O3 0.000000 0.000000 0.692441
O O4 0.500000 0.054393 0.396809
O O5 0.314830 0.075044 0.263173
O O6 0.333788 0.130366 0.398877
O O7 0.500000 0.339681 0.500000
O O8 0.343385 0.303033 0.363041
O O9 0.272013 0.420623 0.909022
O O10 0.243489 0.500000 0.000000
O O11 0.500000 0.451314 0.000000
O O12 0.250000 0.750000 0.125523
O O13 0.260492 0.841610 0.173947
O O14 0.000000 0.803644 0.117842
O O15 0.218394 0.814215 0.000000
O O16 0.500000 0.893357 0.858959
O O17 0.659494 0.793925 0.500000
O O18 0.500000 0.798784 0.350573
#
# Coordination Sequence:
#
# PCOD9487849 Si02
#       7
#     8  16   8   8  16  16  16
#     4  10  20  31  46  65  90 128 171 217 266 312
#     4   9  20  34  49  72  98 130 171 214 265 316
#     4   8  14  25  40  60  85 115 156 206 261 315
#     4  11  25  41  56  75 100 137 187 233 269 313
#     4  10  20  34  56  83 110 136 167 206 256 319
#     4  11  22  37  57  78 107 140 175 221 270 316
#     4   8  13  25  45  66  91 123 160 205 254 307
#
# _framework density 25.031890000000001
#
# number of rings (size 3 to 8) (size 9 to 14) (size 15 to 20)
#    0.000    2.455    0.909    1.364    2.545    2.727 
#    0.000    1.818    0.000    0.000    0.000   12.727 
#    0.000    0.727    0.000    1.273    0.000    1.818 
#
# Total GULP energy -245467.601492 kJ/mol
# GULP energy per Si atom -5578.809125 kJ/mol
# Density = 2.497492 g / cm^3
# Si number density = 25.031890 Si / 1000 Ang^3
#
#
#
# Elastic Constant Matrix: (Units=GPa)
#
#
# Indices 1 2 3 4 5 6 
#
# 1 258.4341 38.2078 24.2768 0.0000 0.0000 0.0000
# 2 38.2078 88.5926 15.6656 0.0000 0.0000 0.0000
# 3 24.2768 15.6656 88.6819 0.0000 0.0000 0.0000
# 4 0.0000 0.0000 0.0000 -46.4066 0.0000 0.0000
# 5 0.0000 0.0000 0.0000 0.0000 -18.6748 0.0000
# 6 0.0000 0.0000 0.0000 0.0000 0.0000 -14.2602
#
#
#
# Elastic Compliance Matrix: (Units=1/GPa)
#
#
# Indices 1 2 3 4 5 6 
#
# 1 0.004195 -0.001658 -0.000856 0.000000 0.000000 0.000000
# 2 -0.001658 0.012307 -0.001720 0.000000 0.000000 0.000000
# 3 -0.000856 -0.001720 0.011814 0.000000 0.000000 0.000000
# 4 0.000000 0.000000 0.000000 -0.021549 0.000000 0.000000
# 5 0.000000 0.000000 0.000000 0.000000 -0.053548 0.000000
# 6 0.000000 0.000000 0.000000 0.000000 0.000000 -0.070125
#
#
# Mechanical properties :
#
#
# Convention : Reuss Voigt Hill
#
# Bulk Modulus (GPa) = 50.38041 65.77876 58.07959
# Shear Modulus (GPa) = -49.10517 7.96888 -20.56814
#
# Velocity S-wave (km/s) = -4.43392 1.78617 -2.86960
# Velocity P-wave (km/s) = 2.45818 5.53072 3.50330
#
# Compressibility (1/GPa) = 0.01984898
#
# Stress axis : x y z
#
# Youngs Moduli (GPa) = 238.38289 81.25584 84.64308
#
# Poissons Ratio (x) = 0.13471 0.07241
# Poissons Ratio (y) = 0.39521 0.14560
# Poissons Ratio (z) = 0.20394 0.13977
#
# Static dielectric constant tensor:
#      x y z
#    x 1.991940 0.000000 0.000000 
#    y 0.000000 1.992580 0.000000 
#    z 0.000000 0.000000 1.977980 
# 
# From -- ./inp_files/50498.got.cif
#   From: 2010.05.17/outbox.cif.g08.bks.cpg/sg65_26_cif.got.tgz:50498.got - 2010.06.03 17:01:31.
