data_PCOD9487902
_publ_section_title
;
Structure prediction by ZEFSAII (Michael W. Deem and Ramdas Pophale) SiO2 
 PCOD9487902
Probable space group: C M M M
;
_chemical_formula_sum "Si O2"
_cell_formula_units_Z 104
_cell_length_a 18.113619
_cell_length_b 18.725551
_cell_length_c 16.067857
_cell_angle_alpha 90.000000
_cell_angle_beta 90.000000
_cell_angle_gamma 90.000000
_cell_volume 5450.016188
_symmetry_space_group_name_H-M "C M M M"
_symmetry_group_IT_number 65
_symmetry_cell_setting 'orthorhombic'
loop_
_space_group_symop_operation_xyz
x,y,z
-x,-y,z
x,-y,-z
-x,y,-z
-x,-y,-z
x,y,-z
-x,y,z
x,-y,z
1/2+x,1/2+y,z
1/2-x,1/2-y,z
1/2+x,1/2-y,-z
1/2-x,1/2+y,-z
1/2-x,1/2-y,-z
1/2+x,1/2+y,-z
1/2-x,1/2+y,z
1/2+x,1/2-y,z
loop_
_atom_site_type_symbol
_atom_site_label
_atom_site_fract_x
_atom_site_fract_y
_atom_site_fract_z
Si Si1 0.787798 0.318074 0.094139
Si Si2 0.660576 0.581973 0.138303
Si Si3 0.186716 0.311343 0.596294
Si Si4 0.500000 0.416705 0.099863
Si Si5 0.914435 0.580980 0.101558
Si Si6 0.583466 0.690539 0.399401
Si Si7 0.295900 0.417946 0.331118
O O1 0.750000 0.250000 0.137950
O O2 0.722124 0.374951 0.089790
O O3 0.857933 0.358709 0.132057
O O4 0.809666 0.295397 0.000000
O O5 0.657448 0.500000 0.108597
O O6 0.578130 0.613728 0.130224
O O7 0.686865 0.582612 0.233386
O O8 0.175487 0.333496 0.500000
O O9 0.250000 0.250000 0.595608
O O10 0.116162 0.267323 0.628300
O O11 0.220354 0.376504 0.647673
O O12 0.500000 0.500000 0.127771
O O13 0.500000 0.414531 0.000000
O O14 0.893494 0.500000 0.127594
O O15 0.000000 0.593294 0.123620
O O16 0.910349 0.581337 0.000000
O O17 0.584287 0.692656 0.500000
O O18 0.500000 0.678822 0.370576
O O19 0.638135 0.627472 0.372492
O O20 0.294344 0.500000 0.359767
#
# Coordination Sequence:
#
# PCOD9487902 Si02
#       7
#    16  16  16   8  16  16  16
#     4  10  20  33  49  74 101 124 161 214 267 313
#     4  10  21  35  52  72  98 136 175 213 256 314
#     4   8  15  30  50  72 101 138 176 204 237 300
#     4   9  18  34  54  72  91 125 176 218 253 308
#     4   8  14  27  49  73  94 119 152 192 243 304
#     4   9  18  32  52  78 106 140 178 211 249 301
#     4  10  20  31  49  76 105 135 168 214 264 306
#
# _framework density 19.082511
#
# number of rings (size 3 to 8) (size 9 to 14) (size 15 to 20)
#    0.000    2.846    0.000    2.769    1.077    4.923 
#    1.385    0.769    0.000    1.385    0.000    4.308 
#    0.000    0.000    0.000    0.000    0.000    0.000 
#
# Total GULP energy -289699.255762 kJ/mol
# GULP energy per Si atom -5571.139534 kJ/mol
# Density = 1.903908 g / cm^3
# Si number density = 19.082511 Si / 1000 Ang^3
#
#
#
# Elastic Constant Matrix: (Units=GPa)
#
#
# Indices 1 2 3 4 5 6 
#
# 1 74.0891 71.2073 7.5666 0.0000 0.0000 0.0000
# 2 71.2073 114.0749 16.1025 0.0000 0.0000 0.0000
# 3 7.5666 16.1025 23.2257 0.0000 0.0000 0.0000
# 4 0.0000 0.0000 0.0000 4.3185 0.0000 0.0000
# 5 0.0000 0.0000 0.0000 0.0000 12.5966 0.0000
# 6 0.0000 0.0000 0.0000 0.0000 0.0000 22.5120
#
#
#
# Elastic Compliance Matrix: (Units=1/GPa)
#
#
# Indices 1 2 3 4 5 6 
#
# 1 0.034076 -0.021841 0.004041 0.000000 0.000000 0.000000
# 2 -0.021841 0.023717 -0.009327 0.000000 0.000000 0.000000
# 3 0.004041 -0.009327 0.048206 0.000000 0.000000 0.000000
# 4 0.000000 0.000000 0.000000 0.231560 0.000000 0.000000
# 5 0.000000 0.000000 0.000000 0.000000 0.079386 0.000000
# 6 0.000000 0.000000 0.000000 0.000000 0.000000 0.044421
#
#
# Mechanical properties :
#
#
# Convention : Reuss Voigt Hill
#
# Bulk Modulus (GPa) = 19.32600 44.57139 31.94869
# Shear Modulus (GPa) = 9.38318 15.65299 12.51809
#
# Velocity S-wave (km/s) = 2.21987 2.86716 2.56402
# Velocity P-wave (km/s) = 4.08901 5.86248 5.05414
#
# Compressibility (1/GPa) = 0.05174377
#
# Stress axis : x y z
#
# Youngs Moduli (GPa) = 29.34579 42.16466 20.74445
#
# Poissons Ratio (x) = 0.92094 -0.08383
# Poissons Ratio (y) = 0.64096 0.19349
# Poissons Ratio (z) = -0.11859 0.39327
#
# Static dielectric constant tensor:
#      x y z
#    x 1.687110 0.000000 0.000000 
#    y 0.000000 1.688440 0.000000 
#    z 0.000000 0.000000 1.672000 
# 
# From -- ./inp_files/54627.got.cif
#   From: 2010.05.17/outbox.cif.g08.bks.cpg/sg65_28_cif.got.tgz:54627.got - 2010.06.03 17:01:31.
