data_PCOD9487471
_publ_section_title
;
Structure prediction by ZEFSAII (Michael W. Deem and Ramdas Pophale) SiO2 
 PCOD9487471
Probable space group: C M M M
;
_chemical_formula_sum "Si O2"
_cell_formula_units_Z 96
_cell_length_a 30.445478
_cell_length_b 14.256175
_cell_length_c 12.806637
_cell_angle_alpha 90.000000
_cell_angle_beta 90.000000
_cell_angle_gamma 90.000000
_cell_volume 5558.542295
_symmetry_space_group_name_H-M "C M M M"
_symmetry_group_IT_number 65
_symmetry_cell_setting 'orthorhombic'
loop_
_space_group_symop_operation_xyz
x,y,z
-x,-y,z
x,-y,-z
-x,y,-z
-x,-y,-z
x,y,-z
-x,y,z
x,-y,z
1/2+x,1/2+y,z
1/2-x,1/2-y,z
1/2+x,1/2-y,-z
1/2-x,1/2+y,-z
1/2-x,1/2-y,-z
1/2+x,1/2+y,-z
1/2-x,1/2+y,z
1/2+x,1/2-y,z
loop_
_atom_site_type_symbol
_atom_site_label
_atom_site_fract_x
_atom_site_fract_y
_atom_site_fract_z
Si Si1 0.645271 0.606849 0.123990
Si Si2 0.361417 0.390637 0.500000
Si Si3 0.242932 0.860666 0.500000
Si Si4 0.752466 0.137653 0.118515
Si Si5 0.052403 0.607879 0.623653
Si Si6 0.120076 0.241719 0.693931
Si Si7 0.193485 0.600070 0.688277
O O1 0.630098 0.500000 0.144839
O O2 0.697726 0.609834 0.145416
O O3 0.623696 0.684312 0.198262
O O4 0.639831 0.626058 0.000000
O O5 0.374098 0.500000 0.500000
O O6 0.308167 0.385435 0.500000
O O7 0.378280 0.334495 0.601269
O O8 0.250000 0.750000 0.500000
O O9 0.268463 0.895298 0.601944
O O10 0.750000 0.250000 0.121813
O O11 0.717402 0.102353 0.200678
O O12 0.743547 0.107702 0.000000
O O13 0.063490 0.615994 0.500000
O O14 0.062154 0.500000 0.655291
O O15 0.079077 0.687973 0.683434
O O16 0.000000 0.620671 0.633661
O O17 0.161907 0.310854 0.679485
O O18 0.169812 0.500000 0.674331
#
# Coordination Sequence:
#
# PCOD9487471 Si02
#       7
#    16   8   8  16  16  16  16
#     4  10  21  36  55  77 106 151 198 233 268 314
#     4  12  24  35  51  75 108 150 186 221 271 320
#     4  12  22  39  47  64 105 153 186 221 261 319
#     4  10  19  35  53  70 101 145 192 238 273 303
#     4   9  19  38  64  90 114 141 172 211 270 342
#     4  12  21  36  56  82 111 137 177 231 275 323
#     4  12  23  33  50  75 105 142 181 225 277 322
#
# _framework density 17.270714000000002
#
# number of rings (size 3 to 8) (size 9 to 14) (size 15 to 20)
#    0.000    1.167    4.167    4.250    0.000    1.000 
#    0.000    0.000    0.000    4.500    0.000    2.333 
#    0.000    0.000    0.000    0.000    0.000    0.000 
#
# Total GULP energy -268059.158623 kJ/mol
# GULP energy per Si atom -5584.565805 kJ/mol
# Density = 1.723141 g / cm^3
# Si number density = 17.270714 Si / 1000 Ang^3
#
#
#
# Elastic Constant Matrix: (Units=GPa)
#
#
# Indices 1 2 3 4 5 6 
#
# 1 50.9973 33.1971 23.1383 0.0000 0.0000 0.0000
# 2 33.1971 161.4592 44.2064 0.0000 0.0000 0.0000
# 3 23.1383 44.2064 55.6547 0.0000 0.0000 0.0000
# 4 0.0000 0.0000 0.0000 46.0494 0.0000 0.0000
# 5 0.0000 0.0000 0.0000 0.0000 16.3073 0.0000
# 6 0.0000 0.0000 0.0000 0.0000 0.0000 16.5815
#
#
#
# Elastic Compliance Matrix: (Units=1/GPa)
#
#
# Indices 1 2 3 4 5 6 
#
# 1 0.025227 -0.002959 -0.008138 0.000000 0.000000 0.000000
# 2 -0.002959 0.008262 -0.005332 0.000000 0.000000 0.000000
# 3 -0.008138 -0.005332 0.025587 0.000000 0.000000 0.000000
# 4 0.000000 0.000000 0.000000 0.021716 0.000000 0.000000
# 5 0.000000 0.000000 0.000000 0.000000 0.061322 0.000000
# 6 0.000000 0.000000 0.000000 0.000000 0.000000 0.060308
#
#
# Mechanical properties :
#
#
# Convention : Reuss Voigt Hill
#
# Bulk Modulus (GPa) = 38.14219 52.13277 45.13748
# Shear Modulus (GPa) = 20.49020 26.95894 23.72457
#
# Velocity S-wave (km/s) = 3.44817 3.95519 3.71035
# Velocity P-wave (km/s) = 6.16328 7.14907 6.67440
#
# Compressibility (1/GPa) = 0.02621769
#
# Stress axis : x y z
#
# Youngs Moduli (GPa) = 39.63966 121.03928 39.08288
#
# Poissons Ratio (x) = 0.35813 0.31806
# Poissons Ratio (y) = 0.11728 0.20840
# Poissons Ratio (z) = 0.32259 0.64541
#
# Static dielectric constant tensor:
#      x y z
#    x 1.559190 0.000000 0.000000 
#    y 0.000000 1.619080 0.000000 
#    z 0.000000 0.000000 1.590320 
# 
# From -- ./inp_files/33915.got.cif
#   From: 2010.05.17/outbox.cif.g08.bks.cpg/sg65_17_cif.got.tgz:33915.got - 2010.06.03 17:01:31.
