data_PCOD9487511
_publ_section_title
;
Structure prediction by ZEFSAII (Michael W. Deem and Ramdas Pophale) SiO2 
 PCOD9487511
Probable space group: C M M M
;
_chemical_formula_sum "Si O2"
_cell_formula_units_Z 104
_cell_length_a 31.867554
_cell_length_b 8.953015
_cell_length_c 19.752690
_cell_angle_alpha 90.000000
_cell_angle_beta 90.000000
_cell_angle_gamma 90.000000
_cell_volume 5635.653593
_symmetry_space_group_name_H-M "C M M M"
_symmetry_group_IT_number 65
_symmetry_cell_setting 'orthorhombic'
loop_
_space_group_symop_operation_xyz
x,y,z
-x,-y,z
x,-y,-z
-x,y,-z
-x,-y,-z
x,y,-z
-x,y,z
x,-y,z
1/2+x,1/2+y,z
1/2-x,1/2-y,z
1/2+x,1/2-y,-z
1/2-x,1/2+y,-z
1/2-x,1/2-y,-z
1/2+x,1/2+y,-z
1/2-x,1/2+y,z
1/2+x,1/2-y,z
loop_
_atom_site_type_symbol
_atom_site_label
_atom_site_fract_x
_atom_site_fract_y
_atom_site_fract_z
Si Si1 0.358045 0.160907 0.427429
Si Si2 0.500000 0.321216 0.420106
Si Si3 0.710374 0.671456 0.630933
Si Si4 0.610133 0.819386 0.185448
Si Si5 0.431969 0.169689 0.675766
Si Si6 0.547612 0.679233 0.080210
Si Si7 0.794590 0.319841 0.778060
O O1 0.380136 0.168065 0.500000
O O2 0.328318 0.299787 0.417345
O O3 0.389416 0.158176 0.366144
O O4 0.334666 0.000000 0.425524
O O5 0.500000 0.500000 0.422047
O O6 0.500000 0.269921 0.500000
O O7 0.538429 0.263091 0.373898
O O8 0.717716 0.500000 0.646409
O O9 0.750000 0.750000 0.598004
O O10 0.702595 0.760413 0.700956
O O11 0.582825 0.769508 0.251374
O O12 0.584493 0.757323 0.121827
O O13 0.659868 0.777358 0.189530
O O14 0.609521 0.000000 0.186276
O O15 0.448829 0.000000 0.684483
O O16 0.500000 0.725036 0.101394
O O17 0.550346 0.500000 0.089289
O O18 0.551269 0.709555 0.000000
O O19 0.791318 0.500000 0.779571
O O20 0.750000 0.250000 0.804419
#
# Coordination Sequence:
#
# PCOD9487511 Si02
#       7
#    16   8  16  16  16  16  16
#     4  10  20  36  56  74  98 135 179 229 281 333
#     4  11  25  41  55  77 110 145 188 243 293 342
#     4  11  21  33  51  73 102 138 178 225 278 335
#     4  10  21  36  59  89 120 149 188 241 284 332
#     4  10  21  39  59  80 107 142 185 231 283 344
#     4   9  20  39  61  88 124 161 193 227 274 334
#     4  10  19  35  56  82 115 148 188 235 285 339
#
# _framework density 18.453937
#
# number of rings (size 3 to 8) (size 9 to 14) (size 15 to 20)
#    0.000    1.923    1.538    3.923    1.077    4.923 
#    0.000    0.769    0.000    0.462    0.000    0.000 
#    0.000    0.000    0.000    0.000    0.000    0.000 
#
# Total GULP energy -289552.091074 kJ/mol
# GULP energy per Si atom -5568.309444 kJ/mol
# Density = 1.841193 g / cm^3
# Si number density = 18.453937 Si / 1000 Ang^3
#
#
#
# Elastic Constant Matrix: (Units=GPa)
#
#
# Indices 1 2 3 4 5 6 
#
# 1 113.7091 39.7749 46.1376 0.0000 0.0000 0.0000
# 2 39.7749 59.7986 19.0159 0.0000 0.0000 0.0000
# 3 46.1376 19.0159 69.1717 0.0000 0.0000 0.0000
# 4 0.0000 0.0000 0.0000 24.5590 0.0000 0.0000
# 5 0.0000 0.0000 0.0000 0.0000 73.8358 0.0000
# 6 0.0000 0.0000 0.0000 0.0000 0.0000 27.3677
#
#
#
# Elastic Compliance Matrix: (Units=1/GPa)
#
#
# Indices 1 2 3 4 5 6 
#
# 1 0.014391 -0.007144 -0.007635 0.000000 0.000000 0.000000
# 2 -0.007144 0.021872 -0.001247 0.000000 0.000000 0.000000
# 3 -0.007635 -0.001247 0.019892 0.000000 0.000000 0.000000
# 4 0.000000 0.000000 0.000000 0.040718 0.000000 0.000000
# 5 0.000000 0.000000 0.000000 0.000000 0.013544 0.000000
# 6 0.000000 0.000000 0.000000 0.000000 0.000000 0.036539
#
#
# Mechanical properties :
#
#
# Convention : Reuss Voigt Hill
#
# Bulk Modulus (GPa) = 41.49101 50.28182 45.88641
# Shear Modulus (GPa) = 26.73170 34.33589 30.53380
#
# Velocity S-wave (km/s) = 3.81013 4.31818 4.07208
# Velocity P-wave (km/s) = 6.47213 7.22278 6.85773
#
# Compressibility (1/GPa) = 0.02410161
#
# Stress axis : x y z
#
# Youngs Moduli (GPa) = 69.48597 45.72147 50.27090
#
# Poissons Ratio (x) = 0.32666 0.38382
# Poissons Ratio (y) = 0.49644 0.06270
# Poissons Ratio (z) = 0.53053 0.05703
#
# Static dielectric constant tensor:
#      x y z
#    x 1.718170 0.000000 0.000000 
#    y 0.000000 1.660000 0.000000 
#    z 0.000000 0.000000 1.614530 
# 
# From -- ./inp_files/66352.got.cif
#   From: 2010.05.17/outbox.cif.g08.bks.cpg/sg65_34_cif.got.tgz:66352.got - 2010.06.03 17:01:31.
