data_PCOD9487843
_publ_section_title
;
Structure prediction by ZEFSAII (Michael W. Deem and Ramdas Pophale) SiO2 
 PCOD9487843
Probable space group: C M M M
;
_chemical_formula_sum "Si O2"
_cell_formula_units_Z 88
_cell_length_a 9.071492
_cell_length_b 15.047702
_cell_length_c 31.790950
_cell_angle_alpha 90.000000
_cell_angle_beta 90.000000
_cell_angle_gamma 90.000000
_cell_volume 4339.627073
_symmetry_space_group_name_H-M "C M M M"
_symmetry_group_IT_number 65
_symmetry_cell_setting 'orthorhombic'
loop_
_space_group_symop_operation_xyz
x,y,z
-x,-y,z
x,-y,-z
-x,y,-z
-x,-y,-z
x,y,-z
-x,y,z
x,-y,z
1/2+x,1/2+y,z
1/2-x,1/2-y,z
1/2+x,1/2-y,-z
1/2-x,1/2+y,-z
1/2-x,1/2-y,-z
1/2+x,1/2+y,-z
1/2-x,1/2+y,z
1/2+x,1/2-y,z
loop_
_atom_site_type_symbol
_atom_site_label
_atom_site_fract_x
_atom_site_fract_y
_atom_site_fract_z
Si Si1 0.677934 0.606495 0.454884
Si Si2 0.174998 0.500000 0.949869
Si Si3 0.671456 0.609068 0.636262
Si Si4 0.175078 0.845856 0.802052
Si Si5 0.823011 0.152375 0.896125
Si Si6 0.837236 0.395516 0.718481
O O1 0.733968 0.641619 0.500000
O O2 0.500000 0.617930 0.454285
O O3 0.703261 0.500000 0.455493
O O4 0.732468 0.638688 0.409396
O O5 0.251064 0.585850 0.929191
O O6 0.000000 0.500000 0.940789
O O7 0.194614 0.500000 0.000000
O O8 0.500000 0.634388 0.639982
O O9 0.673478 0.500000 0.635853
O O10 0.759175 0.641406 0.676915
O O11 0.250000 0.750000 0.803256
O O12 0.204653 0.884269 0.848592
O O13 0.243415 0.889251 0.760868
O O14 0.000000 0.840116 0.797406
O O15 0.750000 0.250000 0.899348
O O16 0.000000 0.158992 0.901446
O O17 0.852700 0.500000 0.710173
O O18 0.000000 0.356126 0.724963
#
# Coordination Sequence:
#
# PCOD9487843 Si02
#       6
#    16   8  16  16  16  16
#     4   7   9  14  27  48  73 104 146 195 246 300
#     4  11  25  43  65  95 129 167 209 251 296 349
#     4   8  13  22  36  55  82 117 157 203 253 305
#     4  10  21  37  57  80 107 138 177 221 269 324
#     4  10  22  41  65  93 124 161 202 250 304 356
#     4  10  20  31  45  69 100 136 173 211 259 312
#
# _framework density 20.278241000000001
#
# number of rings (size 3 to 8) (size 9 to 14) (size 15 to 20)
#    0.000    2.818    0.000    3.545    1.273    4.364 
#    0.000    0.000    0.000    0.545    0.000    3.818 
#    0.000    0.727    0.000    2.000    0.000    5.091 
#
# Total GULP energy -245232.019733 kJ/mol
# GULP energy per Si atom -5573.454994 kJ/mol
# Density = 2.023209 g / cm^3
# Si number density = 20.278241 Si / 1000 Ang^3
#
#
#
# Elastic Constant Matrix: (Units=GPa)
#
#
# Indices 1 2 3 4 5 6 
#
# 1 101.5594 23.9863 95.6234 0.0000 0.0000 0.0000
# 2 23.9863 56.0529 44.2562 0.0000 0.0000 0.0000
# 3 95.6234 44.2562 190.6223 0.0000 0.0000 0.0000
# 4 0.0000 0.0000 0.0000 -408.8603 0.0000 0.0000
# 5 0.0000 0.0000 0.0000 0.0000 20.9946 0.0000
# 6 0.0000 0.0000 0.0000 0.0000 0.0000 17.5764
#
#
#
# Elastic Compliance Matrix: (Units=1/GPa)
#
#
# Indices 1 2 3 4 5 6 
#
# 1 0.018684 -0.000729 -0.009203 0.000000 0.000000 0.000000
# 2 -0.000729 0.021873 -0.004713 0.000000 0.000000 0.000000
# 3 -0.009203 -0.004713 0.010957 0.000000 0.000000 0.000000
# 4 0.000000 0.000000 0.000000 -0.002446 0.000000 0.000000
# 5 0.000000 0.000000 0.000000 0.000000 0.047631 0.000000
# 6 0.000000 0.000000 0.000000 0.000000 0.000000 0.056894
#
#
# Mechanical properties :
#
#
# Convention : Reuss Voigt Hill
#
# Bulk Modulus (GPa) = 44.99591 75.10738 60.05165
# Shear Modulus (GPa) = 26.27546 -61.76661 -17.74558
#
# Velocity S-wave (km/s) = 3.60355 -5.52500 -2.96143
# Velocity P-wave (km/s) = 6.28900 1.89264 4.24084
#
# Compressibility (1/GPa) = 0.02222424
#
# Stress axis : x y z
#
# Youngs Moduli (GPa) = 53.52140 45.71861 91.26683
#
# Poissons Ratio (x) = 0.03332 0.83997
# Poissons Ratio (y) = 0.03901 0.43010
# Poissons Ratio (z) = 0.49258 0.21545
#
# Static dielectric constant tensor:
#      x y z
#    x 1.697890 0.000000 0.000000 
#    y 0.000000 1.800290 0.000000 
#    z 0.000000 0.000000 1.762070 
# 
# From -- ./inp_files/76658.got.cif
#   From: 2010.05.17/outbox.cif.g08.bks.cpg/sg65_39_cif.got.tgz:76658.got - 2010.06.03 17:01:31.
