data_PCOD9487344
_publ_section_title
;
Structure prediction by ZEFSAII (Michael W. Deem and Ramdas Pophale) SiO2 
 PCOD9487344
Probable space group: C M M M
;
_chemical_formula_sum "Si O2"
_cell_formula_units_Z 104
_cell_length_a 30.804659
_cell_length_b 7.650293
_cell_length_c 21.031488
_cell_angle_alpha 90.000000
_cell_angle_beta 90.000000
_cell_angle_gamma 90.000000
_cell_volume 4956.378618
_symmetry_space_group_name_H-M "C M M M"
_symmetry_group_IT_number 65
_symmetry_cell_setting 'orthorhombic'
loop_
_space_group_symop_operation_xyz
x,y,z
-x,-y,z
x,-y,-z
-x,y,-z
-x,-y,-z
x,y,-z
-x,y,z
x,-y,z
1/2+x,1/2+y,z
1/2-x,1/2-y,z
1/2+x,1/2-y,-z
1/2-x,1/2+y,-z
1/2-x,1/2-y,-z
1/2+x,1/2+y,-z
1/2-x,1/2+y,z
1/2+x,1/2-y,z
loop_
_atom_site_type_symbol
_atom_site_label
_atom_site_fract_x
_atom_site_fract_y
_atom_site_fract_z
Si Si1 0.797616 0.790376 0.705378
Si Si2 0.637997 0.284971 0.816195
Si Si3 0.586712 0.801448 0.634509
Si Si4 0.000000 0.803497 0.574426
Si Si5 0.700665 0.709889 0.072114
Si Si6 0.450683 0.295425 0.229728
Si Si7 0.174742 0.203112 0.571362
O O1 0.750000 0.750000 0.731300
O O2 0.835187 0.729215 0.753158
O O3 0.801320 0.718706 0.633228
O O4 0.802533 0.000000 0.701383
O O5 0.637580 0.500000 0.815485
O O6 0.665574 0.227103 0.877082
O O7 0.588043 0.223795 0.814520
O O8 0.542990 0.794290 0.594440
O O9 0.571470 0.719091 0.700875
O O10 0.624746 0.710321 0.594887
O O11 0.600444 0.000000 0.645828
O O12 0.000000 0.821774 0.500000
O O13 0.000000 0.000000 0.603762
O O14 0.696810 0.500000 0.069973
O O15 0.750000 0.750000 0.092182
O O16 0.694855 0.776981 0.000000
O O17 0.500000 0.221249 0.229552
O O18 0.455027 0.500000 0.214876
O O19 0.179786 0.278782 0.500000
O O20 0.187673 0.000000 0.566711
#
# Coordination Sequence:
#
# PCOD9487344 Si02
#       7
#    16  16  16   8  16  16  16
#     4  10  20  34  52  74 100 131 171 217 261 312
#     4   9  17  32  53  77 105 137 176 217 257 305
#     4  12  23  34  51  76 103 127 162 221 279 317
#     4  11  23  37  53  71  95 133 174 209 260 335
#     4   9  17  30  51  80 114 147 176 211 257 308
#     4  10  19  34  57  76  97 136 181 215 254 317
#     4  10  21  38  56  70  92 133 177 213 258 322
#
# _framework density 20.983063000000001
#
# number of rings (size 3 to 8) (size 9 to 14) (size 15 to 20)
#    0.000    1.923    2.308    2.538    0.000    3.692 
#    0.000    0.769    0.000    0.462    0.000    3.231 
#    0.000    0.000    0.000    5.231    0.000    5.538 
#
# Total GULP energy -290125.118220 kJ/mol
# GULP energy per Si atom -5579.329197 kJ/mol
# Density = 2.093530 g / cm^3
# Si number density = 20.983063 Si / 1000 Ang^3
#
#
#
# Elastic Constant Matrix: (Units=GPa)
#
#
# Indices 1 2 3 4 5 6 
#
# 1 124.9153 -1.5759 60.6612 0.0000 0.0000 0.0000
# 2 -1.5759 50.2758 5.0554 0.0000 0.0000 0.0000
# 3 60.6612 5.0554 108.3940 0.0000 0.0000 0.0000
# 4 0.0000 0.0000 0.0000 -1.1147 0.0000 0.0000
# 5 0.0000 0.0000 0.0000 0.0000 31.8185 0.0000
# 6 0.0000 0.0000 0.0000 0.0000 0.0000 16.8229
#
#
#
# Elastic Compliance Matrix: (Units=1/GPa)
#
#
# Indices 1 2 3 4 5 6 
#
# 1 0.011040 0.000972 -0.006224 0.000000 0.000000 0.000000
# 2 0.000972 0.020070 -0.001480 0.000000 0.000000 0.000000
# 3 -0.006224 -0.001480 0.012778 0.000000 0.000000 0.000000
# 4 0.000000 0.000000 0.000000 -0.897090 0.000000 0.000000
# 5 0.000000 0.000000 0.000000 0.000000 0.031428 0.000000
# 6 0.000000 0.000000 0.000000 0.000000 0.000000 0.059443
#
#
# Mechanical properties :
#
#
# Convention : Reuss Voigt Hill
#
# Bulk Modulus (GPa) = 32.86914 45.76295 39.31604
# Shear Modulus (GPa) = -6.76840 24.13497 8.68328
#
# Velocity S-wave (km/s) = -1.79796 3.39516 2.03647
# Velocity P-wave (km/s) = 3.37467 6.10133 4.93025
#
# Compressibility (1/GPa) = 0.03042368
#
# Stress axis : x y z
#
# Youngs Moduli (GPa) = 90.57938 49.82674 78.26170
#
# Poissons Ratio (x) = -0.04842 0.48708
# Poissons Ratio (y) = -0.08803 0.11582
# Poissons Ratio (z) = 0.56374 0.07374
#
# Static dielectric constant tensor:
#      x y z
#    x 1.764180 0.000000 0.000000 
#    y 0.000000 1.807070 0.000000 
#    z 0.000000 0.000000 1.770920 
# 
# From -- ./inp_files/60893.got.cif
#   From: 2010.05.17/outbox.cif.g08.bks.cpg/sg65_31_cif.got.tgz:60893.got - 2010.06.03 17:01:31.
