data_PCOD9487214
_publ_section_title
;
Structure prediction by ZEFSAII (Michael W. Deem and Ramdas Pophale) SiO2 
 PCOD9487214
Probable space group: C M M M
;
_chemical_formula_sum "Si O2"
_cell_formula_units_Z 120
_cell_length_a 25.216418
_cell_length_b 29.110117
_cell_length_c 7.413196
_cell_angle_alpha 90.000000
_cell_angle_beta 90.000000
_cell_angle_gamma 90.000000
_cell_volume 5441.677861
_symmetry_space_group_name_H-M "C M M M"
_symmetry_group_IT_number 65
_symmetry_cell_setting 'orthorhombic'
loop_
_space_group_symop_operation_xyz
x,y,z
-x,-y,z
x,-y,-z
-x,y,-z
-x,-y,-z
x,y,-z
-x,y,z
x,-y,z
1/2+x,1/2+y,z
1/2-x,1/2-y,z
1/2+x,1/2-y,-z
1/2-x,1/2+y,-z
1/2-x,1/2-y,-z
1/2+x,1/2+y,-z
1/2-x,1/2+y,z
1/2+x,1/2-y,z
loop_
_atom_site_type_symbol
_atom_site_label
_atom_site_fract_x
_atom_site_fract_y
_atom_site_fract_z
Si Si1 0.064303 0.944272 0.500000
Si Si2 0.103509 0.213037 0.296069
Si Si3 0.696858 0.221777 0.797681
Si Si4 0.367864 0.388353 0.206953
Si Si5 0.938346 0.696710 0.293956
Si Si6 0.939064 0.401456 0.279288
Si Si7 0.666675 0.051067 0.718444
Si Si8 0.251800 0.130562 0.791476
O O1 0.094762 0.920381 0.669681
O O2 0.000000 0.935367 0.500000
O O3 0.071067 0.000000 0.500000
O O4 0.085427 0.203022 0.500000
O O5 0.157783 0.242500 0.296742
O O6 0.110229 0.163970 0.206678
O O7 0.067422 0.253012 0.211945
O O8 0.750000 0.250000 0.814750
O O9 0.715032 0.173563 0.712435
O O10 0.674511 0.213295 0.000000
O O11 0.306955 0.382298 0.278676
O O12 0.365848 0.405277 0.000000
O O13 0.917518 0.700115 0.500000
O O14 0.918006 0.648873 0.215976
O O15 0.000000 0.686945 0.305771
O O16 0.940428 0.399960 0.500000
O O17 0.893466 0.436686 0.226369
O O18 0.000000 0.410564 0.221270
O O19 0.667648 0.052925 0.500000
O O20 0.709484 0.087472 0.784003
O O21 0.680607 0.000000 0.776384
O O22 0.241697 0.144580 0.000000
#
# Coordination Sequence:
#
# PCOD9487214 Si02
#       8
#     8  16  16  16  16  16  16  16
#     4  11  28  54  80 105 130 160 209 272 336 408
#     4  11  20  32  55  93 131 170 212 256 306 371
#     4  10  19  34  54  78 117 166 208 252 299 353
#     4  11  24  45  71 102 136 171 212 262 323 393
#     4   8  15  27  45  73 111 154 195 239 293 352
#     4   8  14  28  49  74 111 159 211 264 312 363
#     4  10  21  34  52  82 116 151 200 267 330 379
#     4  10  22  39  60  86 125 172 214 261 317 385
#
# _framework density 22.052022999999998
#
# number of rings (size 3 to 8) (size 9 to 14) (size 15 to 20)
#    0.000    2.200    2.000    2.000    0.933    4.000 
#    0.000    3.333    0.000    1.600    0.000    6.533 
#    0.000    0.000    0.000    0.000    0.000    0.000 
#
# Total GULP energy -334372.813290 kJ/mol
# GULP energy per Si atom -5572.880221 kJ/mol
# Density = 2.200183 g / cm^3
# Si number density = 22.052023 Si / 1000 Ang^3
#
#
#
# Elastic Constant Matrix: (Units=GPa)
#
#
# Indices 1 2 3 4 5 6 
#
# 1 60.7365 38.8175 8.5389 0.0000 0.0000 0.0000
# 2 38.8175 152.1986 13.7686 0.0000 0.0000 0.0000
# 3 8.5389 13.7686 88.5732 0.0000 0.0000 0.0000
# 4 0.0000 0.0000 0.0000 21.7242 0.0000 0.0000
# 5 0.0000 0.0000 0.0000 0.0000 4.3848 0.0000
# 6 0.0000 0.0000 0.0000 0.0000 0.0000 38.6330
#
#
#
# Elastic Compliance Matrix: (Units=1/GPa)
#
#
# Indices 1 2 3 4 5 6 
#
# 1 0.019784 -0.004943 -0.001139 0.000000 0.000000 0.000000
# 2 -0.004943 0.007899 -0.000751 0.000000 0.000000 0.000000
# 3 -0.001139 -0.000751 0.011517 0.000000 0.000000 0.000000
# 4 0.000000 0.000000 0.000000 0.046032 0.000000 0.000000
# 5 0.000000 0.000000 0.000000 0.000000 0.228062 0.000000
# 6 0.000000 0.000000 0.000000 0.000000 0.000000 0.025885
#
#
# Mechanical properties :
#
#
# Convention : Reuss Voigt Hill
#
# Bulk Modulus (GPa) = 39.16452 47.08425 43.12438
# Shear Modulus (GPa) = 13.83684 28.97396 21.40540
#
# Velocity S-wave (km/s) = 2.50764 3.62870 3.11895
# Velocity P-wave (km/s) = 5.11693 6.24134 5.70690
#
# Compressibility (1/GPa) = 0.02553331
#
# Stress axis : x y z
#
# Youngs Moduli (GPa) = 50.54687 126.59921 86.83047
#
# Poissons Ratio (x) = 0.62574 0.09889
# Poissons Ratio (y) = 0.24984 0.06524
# Poissons Ratio (z) = 0.05757 0.09512
#
# Static dielectric constant tensor:
#      x y z
#    x -3.479540 0.000000 0.000000 
#    y 0.000000 1.815160 0.000000 
#    z 0.000000 0.000000 1.922440 
# 
# From -- ./inp_files/17055.got.cif
#   From: 2010.05.17/outbox.cif.g08.bks.cpg/sg65_9_cif.got.tgz:17055.got - 2010.06.03 17:01:31.
