data_PCOD9487140
_publ_section_title
;
Structure prediction by ZEFSAII (Michael W. Deem and Ramdas Pophale) SiO2 
 PCOD9487140
Probable space group: C M M M
;
_chemical_formula_sum "Si O2"
_cell_formula_units_Z 88
_cell_length_a 14.095411
_cell_length_b 29.364651
_cell_length_c 13.103265
_cell_angle_alpha 90.000000
_cell_angle_beta 90.000000
_cell_angle_gamma 90.000000
_cell_volume 5423.530810
_symmetry_space_group_name_H-M "C M M M"
_symmetry_group_IT_number 65
_symmetry_cell_setting 'orthorhombic'
loop_
_space_group_symop_operation_xyz
x,y,z
-x,-y,z
x,-y,-z
-x,y,-z
-x,-y,-z
x,y,-z
-x,y,z
x,-y,z
1/2+x,1/2+y,z
1/2-x,1/2-y,z
1/2+x,1/2-y,-z
1/2-x,1/2+y,-z
1/2-x,1/2-y,-z
1/2+x,1/2+y,-z
1/2-x,1/2+y,z
1/2+x,1/2-y,z
loop_
_atom_site_type_symbol
_atom_site_label
_atom_site_fract_x
_atom_site_fract_y
_atom_site_fract_z
Si Si1 0.281431 0.500000 0.119217
Si Si2 0.392134 0.000000 0.724198
Si Si3 0.388366 0.404218 0.878930
Si Si4 0.105331 0.757635 0.000000
Si Si5 0.750000 0.750000 0.172755
Si Si6 0.107448 0.647673 0.000000
Si Si7 0.889206 0.403298 0.381830
Si Si8 0.779021 0.649632 0.791182
O O1 0.188814 0.500000 0.190018
O O2 0.343812 0.545420 0.136745
O O3 0.253389 0.500000 0.000000
O O4 0.382197 0.044525 0.654463
O O5 0.500000 0.000000 0.767141
O O6 0.500000 0.403715 0.855217
O O7 0.325873 0.369422 0.813136
O O8 0.377977 0.393311 0.000000
O O9 0.167019 0.768686 0.901449
O O10 0.100582 0.702676 0.000000
O O11 0.000000 0.776982 0.000000
O O12 0.783436 0.704080 0.226488
O O13 0.163052 0.636848 0.104455
O O14 0.000000 0.629146 0.000000
O O15 0.862092 0.398535 0.500000
O O16 0.826223 0.374670 0.304385
O O17 0.000000 0.389912 0.371503
#
# Coordination Sequence:
#
# PCOD9487140 Si02
#       8
#     8   8  16   8   8   8  16  16
#     4  10  19  34  51  78 114 142 169 206 261 317
#     4  10  19  34  57  84 108 131 166 213 264 320
#     4  10  20  33  51  75 106 145 183 215 248 300
#     4   8  15  29  46  67 101 140 174 211 259 311
#     4   9  20  30  45  74 106 138 177 221 258 306
#     4   9  17  29  48  75 107 139 167 210 268 325
#     4  10  21  37  58  81 104 134 172 213 263 325
#     4  11  19  34  51  77 108 141 178 218 263 312
#
# _framework density 16.225593
#
# number of rings (size 3 to 8) (size 9 to 14) (size 15 to 20)
#    0.000    2.182    2.727    1.636    0.000    3.818 
#    0.000    0.455    0.000    0.545    0.000    1.273 
#    0.000    0.000    0.000    0.000    0.000    0.000 
#
# Total GULP energy -245352.364741 kJ/mol
# GULP energy per Si atom -5576.190108 kJ/mol
# Density = 1.618866 g / cm^3
# Si number density = 16.225593 Si / 1000 Ang^3
#
#
#
# Elastic Constant Matrix: (Units=GPa)
#
#
# Indices 1 2 3 4 5 6 
#
# 1 115.6898 37.3212 68.8638 0.0000 0.0000 0.0000
# 2 37.3212 91.7173 48.4617 0.0000 0.0000 0.0000
# 3 68.8638 48.4617 97.2513 0.0000 0.0000 0.0000
# 4 0.0000 0.0000 0.0000 0.9392 0.0000 0.0000
# 5 0.0000 0.0000 0.0000 0.0000 21.1216 0.0000
# 6 0.0000 0.0000 0.0000 0.0000 0.0000 18.8854
#
#
#
# Elastic Compliance Matrix: (Units=1/GPa)
#
#
# Indices 1 2 3 4 5 6 
#
# 1 0.014972 -0.000666 -0.010269 0.000000 0.000000 0.000000
# 2 -0.000666 0.014829 -0.006918 0.000000 0.000000 0.000000
# 3 -0.010269 -0.006918 0.021002 0.000000 0.000000 0.000000
# 4 0.000000 0.000000 0.000000 1.064742 0.000000 0.000000
# 5 0.000000 0.000000 0.000000 0.000000 0.047345 0.000000
# 6 0.000000 0.000000 0.000000 0.000000 0.000000 0.052951
#
#
# Mechanical properties :
#
#
# Convention : Reuss Voigt Hill
#
# Bulk Modulus (GPa) = 66.24422 68.21687 67.23054
# Shear Modulus (GPa) = 3.97905 18.19002 11.08454
#
# Velocity S-wave (km/s) = 1.56769 3.35187 2.61655
# Velocity P-wave (km/s) = 6.64774 7.55739 7.11711
#
# Compressibility (1/GPa) = 0.01509566
#
# Stress axis : x y z
#
# Youngs Moduli (GPa) = 66.79356 67.43319 47.61468
#
# Poissons Ratio (x) = 0.04491 0.48898
# Poissons Ratio (y) = 0.04448 0.32941
# Poissons Ratio (z) = 0.68594 0.46652
#
# Static dielectric constant tensor:
#      x y z
#    x 1.564960 0.000000 0.000000 
#    y 0.000000 1.566370 0.000000 
#    z 0.000000 0.000000 1.506380 
# 
# From -- ./inp_files/25254.got.cif
#   From: 2010.05.17/outbox.cif.g08.bks.cpg/sg65_13_cif.got.tgz:25254.got - 2010.06.03 17:01:31.
