data_PCOD9487204
_publ_section_title
;
Structure prediction by ZEFSAII (Michael W. Deem and Ramdas Pophale) SiO2 
 PCOD9487204
Probable space group: C M M M
;
_chemical_formula_sum "Si O2"
_cell_formula_units_Z 88
_cell_length_a 27.695466
_cell_length_b 9.192920
_cell_length_c 18.674751
_cell_angle_alpha 90.000000
_cell_angle_beta 90.000000
_cell_angle_gamma 90.000000
_cell_volume 4754.632751
_symmetry_space_group_name_H-M "C M M M"
_symmetry_group_IT_number 65
_symmetry_cell_setting 'orthorhombic'
loop_
_space_group_symop_operation_xyz
x,y,z
-x,-y,z
x,-y,-z
-x,y,-z
-x,-y,-z
x,y,-z
-x,y,z
x,-y,z
1/2+x,1/2+y,z
1/2-x,1/2-y,z
1/2+x,1/2-y,-z
1/2-x,1/2+y,-z
1/2-x,1/2-y,-z
1/2+x,1/2+y,-z
1/2-x,1/2+y,z
1/2+x,1/2-y,z
loop_
_atom_site_type_symbol
_atom_site_label
_atom_site_fract_x
_atom_site_fract_y
_atom_site_fract_z
Si Si1 0.200534 0.173014 0.836815
Si Si2 0.700815 0.672641 0.334937
Si Si3 0.906574 0.174900 0.849431
Si Si4 0.386440 0.827336 0.583726
Si Si5 0.500000 0.167929 0.914349
Si Si6 0.556052 0.332995 0.693363
O O1 0.250000 0.250000 0.861277
O O2 0.196520 0.196691 0.750799
O O3 0.148412 0.219481 0.868755
O O4 0.205142 0.000000 0.848149
O O5 0.702474 0.500000 0.346591
O O6 0.750000 0.750000 0.358275
O O7 0.657363 0.743941 0.378146
O O8 0.914101 0.202205 0.764646
O O9 0.951096 0.253292 0.887911
O O10 0.910614 0.000000 0.859759
O O11 0.389645 0.791499 0.500000
O O12 0.432316 0.772678 0.628435
O O13 0.380156 0.000000 0.590883
O O14 0.500000 0.000000 0.889290
O O15 0.500000 0.169756 0.000000
O O16 0.500000 0.327136 0.713385
O O17 0.567732 0.500000 0.672862
#
# Coordination Sequence:
#
# PCOD9487204 Si02
#       6
#    16  16  16  16   8  16
#     4   9  18  32  54  85 117 147 186 237 285 336
#     4  10  19  34  54  77 106 140 182 235 289 342
#     4  10  19  37  62  88 118 154 195 235 280 339
#     4  11  24  38  51  72 105 145 189 237 290 348
#     4  11  25  41  59  93 132 159 188 229 279 332
#     4  10  20  37  59  81 106 139 185 238 287 342
#
# _framework density 18.508265000000002
#
# number of rings (size 3 to 8) (size 9 to 14) (size 15 to 20)
#    0.000    1.909    2.727    1.364    0.000    5.455 
#    0.000    1.818    0.000    0.545    0.000    0.000 
#    0.000    0.000    0.000    0.000    0.000    0.000 
#
# Total GULP energy -245478.889940 kJ/mol
# GULP energy per Si atom -5579.065680 kJ/mol
# Density = 1.846614 g / cm^3
# Si number density = 18.508265 Si / 1000 Ang^3
#
#
#
# Elastic Constant Matrix: (Units=GPa)
#
#
# Indices 1 2 3 4 5 6 
#
# 1 155.3588 48.0982 26.5833 0.0000 0.0000 0.0000
# 2 48.0982 50.7165 27.0788 0.0000 0.0000 0.0000
# 3 26.5833 27.0788 24.3084 0.0000 0.0000 0.0000
# 4 0.0000 0.0000 0.0000 21.0403 0.0000 0.0000
# 5 0.0000 0.0000 0.0000 0.0000 13.0274 0.0000
# 6 0.0000 0.0000 0.0000 0.0000 0.0000 35.7317
#
#
#
# Elastic Compliance Matrix: (Units=1/GPa)
#
#
# Indices 1 2 3 4 5 6 
#
# 1 0.009119 -0.008202 -0.000835 0.000000 0.000000 0.000000
# 2 -0.008202 0.056036 -0.053452 0.000000 0.000000 0.000000
# 3 -0.000835 -0.053452 0.101596 0.000000 0.000000 0.000000
# 4 0.000000 0.000000 0.000000 0.047528 0.000000 0.000000
# 5 0.000000 0.000000 0.000000 0.000000 0.076761 0.000000
# 6 0.000000 0.000000 0.000000 0.000000 0.000000 0.027986
#
#
# Mechanical properties :
#
#
# Convention : Reuss Voigt Hill
#
# Bulk Modulus (GPa) = 23.94013 48.21158 36.07585
# Shear Modulus (GPa) = 10.91870 22.53479 16.72675
#
# Velocity S-wave (km/s) = 2.43150 3.49313 3.00950
# Velocity P-wave (km/s) = 4.56572 6.50957 5.62229
#
# Compressibility (1/GPa) = 0.04177087
#
# Stress axis : x y z
#
# Youngs Moduli (GPa) = 109.66108 17.84577 9.84289
#
# Poissons Ratio (x) = 0.14637 0.00822
# Poissons Ratio (y) = 0.89946 0.52613
# Poissons Ratio (z) = 0.09162 0.95390
#
# Static dielectric constant tensor:
#      x y z
#    x 1.683350 0.000000 0.000000 
#    y 0.000000 1.621940 0.000000 
#    z 0.000000 0.000000 1.609270 
# 
# From -- ./inp_files/57997.got.cif
#   From: 2010.05.17/outbox.cif.g08.bks.cpg/sg65_29_cif.got.tgz:57997.got - 2010.06.03 17:01:31.
