data_PCOD9487352
_publ_section_title
;
Structure prediction by ZEFSAII (Michael W. Deem and Ramdas Pophale) SiO2 
 PCOD9487352
Probable space group: C M M M
;
_chemical_formula_sum "Si O2"
_cell_formula_units_Z 72
_cell_length_a 19.622851
_cell_length_b 8.495702
_cell_length_c 23.312184
_cell_angle_alpha 90.000000
_cell_angle_beta 90.000000
_cell_angle_gamma 90.000000
_cell_volume 3886.371735
_symmetry_space_group_name_H-M "C M M M"
_symmetry_group_IT_number 65
_symmetry_cell_setting 'orthorhombic'
loop_
_space_group_symop_operation_xyz
x,y,z
-x,-y,z
x,-y,-z
-x,y,-z
-x,-y,-z
x,y,-z
-x,y,z
x,-y,z
1/2+x,1/2+y,z
1/2-x,1/2-y,z
1/2+x,1/2-y,-z
1/2-x,1/2+y,-z
1/2-x,1/2-y,-z
1/2+x,1/2+y,-z
1/2-x,1/2+y,z
1/2+x,1/2-y,z
loop_
_atom_site_type_symbol
_atom_site_label
_atom_site_fract_x
_atom_site_fract_y
_atom_site_fract_z
Si Si1 0.825196 0.309955 0.065507
Si Si2 0.674692 0.189228 0.396354
Si Si3 0.825512 0.812488 0.731343
Si Si4 0.922012 0.307945 0.500000
Si Si5 0.078477 0.309342 0.831388
O O1 0.823884 0.500000 0.065759
O O2 0.750000 0.250000 0.081489
O O3 0.881067 0.257904 0.111495
O O4 0.839321 0.258303 0.000000
O O5 0.750000 0.250000 0.412205
O O6 0.659172 0.251782 0.332783
O O7 0.619790 0.240369 0.443548
O O8 0.676414 0.000000 0.394516
O O9 0.750000 0.750000 0.746707
O O10 0.880293 0.751539 0.776645
O O11 0.823636 0.000000 0.731126
O O12 0.922894 0.500000 0.500000
O O13 0.000000 0.253693 0.500000
O O14 0.079252 0.500000 0.830259
O O15 0.000000 0.257736 0.831471
#
# Coordination Sequence:
#
# PCOD9487352 Si02
#       5
#    16  16  16   8  16
#     4   9  18  33  54  79 105 136 176 220 264 312
#     4  10  19  34  57  81 106 137 175 218 263 312
#     4  11  22  37  57  80 107 139 180 225 268 315
#     4   9  19  34  53  79 108 139 174 212 258 313
#     4  10  21  36  54  78 109 144 179 217 266 320
#
# _framework density 18.526278000000001
#
# number of rings (size 3 to 8) (size 9 to 14) (size 15 to 20)
#    0.000    2.111    0.000    5.000    0.000    4.444 
#    0.000    6.111    0.000    4.667    0.000    4.667 
#    0.000    0.000    0.000    0.000    0.000    0.000 
#
# Total GULP energy -201048.348898 kJ/mol
# GULP energy per Si atom -5584.676358 kJ/mol
# Density = 1.848411 g / cm^3
# Si number density = 18.526278 Si / 1000 Ang^3
#
#
#
# Elastic Constant Matrix: (Units=GPa)
#
#
# Indices 1 2 3 4 5 6 
#
# 1 199.0671 37.8595 145.3118 0.0000 0.0000 0.0000
# 2 37.8595 41.4334 31.0461 0.0000 0.0000 0.0000
# 3 145.3118 31.0461 140.3717 0.0000 0.0000 0.0000
# 4 0.0000 0.0000 0.0000 10.7886 0.0000 0.0000
# 5 0.0000 0.0000 0.0000 0.0000 24.2964 0.0000
# 6 0.0000 0.0000 0.0000 0.0000 0.0000 26.5608
#
#
#
# Elastic Compliance Matrix: (Units=1/GPa)
#
#
# Indices 1 2 3 4 5 6 
#
# 1 0.020967 -0.003470 -0.020937 0.000000 0.000000 0.000000
# 2 -0.003470 0.029504 -0.002933 0.000000 0.000000 0.000000
# 3 -0.020937 -0.002933 0.029447 0.000000 0.000000 0.000000
# 4 0.000000 0.000000 0.000000 0.092691 0.000000 0.000000
# 5 0.000000 0.000000 0.000000 0.000000 0.041158 0.000000
# 6 0.000000 0.000000 0.000000 0.000000 0.000000 0.037649
#
#
# Mechanical properties :
#
#
# Convention : Reuss Voigt Hill
#
# Bulk Modulus (GPa) = 39.62546 89.92301 64.77423
# Shear Modulus (GPa) = 15.89782 23.43948 19.66865
#
# Velocity S-wave (km/s) = 2.93255 3.56083 3.26185
# Velocity P-wave (km/s) = 5.73600 8.09626 7.01609
#
# Compressibility (1/GPa) = 0.02523630
#
# Stress axis : x y z
#
# Youngs Moduli (GPa) = 47.69450 33.89413 33.95958
#
# Poissons Ratio (x) = 0.11761 0.71102
# Poissons Ratio (y) = 0.16550 0.09961
# Poissons Ratio (z) = 0.99859 0.09942
#
# Static dielectric constant tensor:
#      x y z
#    x 1.598670 0.000000 0.000000 
#    y 0.000000 1.634190 0.000000 
#    z 0.000000 0.000000 1.631310 
# 
# From -- ./inp_files/66984.got.cif
#   From: 2010.05.17/outbox.cif.g08.bks.cpg/sg65_34_cif.got.tgz:66984.got - 2010.06.03 17:01:31.
