data_PCOD9487816
_publ_section_title
;
Structure prediction by ZEFSAII (Michael W. Deem and Ramdas Pophale) SiO2 
 PCOD9487816
Probable space group: C M M M
;
_chemical_formula_sum "Si O2"
_cell_formula_units_Z 120
_cell_length_a 8.907375
_cell_length_b 30.933234
_cell_length_c 29.066902
_cell_angle_alpha 90.000000
_cell_angle_beta 90.000000
_cell_angle_gamma 90.000000
_cell_volume 8008.917311
_symmetry_space_group_name_H-M "C M M M"
_symmetry_group_IT_number 65
_symmetry_cell_setting 'orthorhombic'
loop_
_space_group_symop_operation_xyz
x,y,z
-x,-y,z
x,-y,-z
-x,y,-z
-x,-y,-z
x,y,-z
-x,y,z
x,-y,z
1/2+x,1/2+y,z
1/2-x,1/2-y,z
1/2+x,1/2-y,-z
1/2-x,1/2+y,-z
1/2-x,1/2-y,-z
1/2+x,1/2+y,-z
1/2-x,1/2+y,z
1/2+x,1/2-y,z
loop_
_atom_site_type_symbol
_atom_site_label
_atom_site_fract_x
_atom_site_fract_y
_atom_site_fract_z
Si Si1 0.180549 0.323695 0.049915
Si Si2 0.326921 0.411005 0.920879
Si Si3 0.674032 0.618459 0.184726
Si Si4 0.319546 0.205043 0.848769
Si Si5 0.179241 0.449522 0.254237
Si Si6 0.182603 0.050851 0.450387
Si Si7 0.326317 0.552453 0.350643
Si Si8 0.170265 0.500000 0.944980
O O1 0.235130 0.373047 0.054424
O O2 0.231164 0.301549 0.097548
O O3 0.000000 0.322439 0.050210
O O4 0.267269 0.193581 0.000000
O O5 0.500000 0.409681 0.935938
O O6 0.321212 0.401246 0.866604
O O7 0.255646 0.457203 0.929816
O O8 0.500000 0.625909 0.196914
O O9 0.760406 0.663973 0.179854
O O10 0.746702 0.583939 0.219075
O O11 0.500000 0.206193 0.847768
O O12 0.250000 0.250000 0.832373
O O13 0.225873 0.500000 0.246231
O O14 0.229839 0.437240 0.305926
O O15 0.000000 0.447805 0.250207
O O16 0.231028 0.069580 0.500000
O O17 0.230816 0.068554 0.400593
O O18 0.000000 0.052348 0.449357
O O19 0.223608 0.000000 0.451319
O O20 0.500000 0.565976 0.343944
O O21 0.327836 0.500000 0.353866
O O22 0.000000 0.500000 0.926818
O O23 0.164542 0.500000 0.000000
#
# Coordination Sequence:
#
# PCOD9487816 Si02
#       8
#    16  16  16  16  16  16  16   8
#     4   9  18  33  51  70  93 119 142 165 200 248
#     4  10  21  34  48  67  87 109 140 180 217 250
#     4  10  21  36  52  69  89 113 145 182 222 264
#     4  10  20  35  54  74  96 118 142 173 210 255
#     4  10  20  31  44  64  89 118 151 188 229 271
#     4   7   9  14  27  48  72  99 137 184 226 261
#     4   8  13  22  36  54  77 108 145 185 227 265
#     4  11  23  35  47  63  85 115 145 171 206 255
#
# _framework density 14.983299000000001
#
# number of rings (size 3 to 8) (size 9 to 14) (size 15 to 20)
#    0.000    2.733    0.000    3.400    0.933    5.600 
#    0.000    0.000    0.000    0.400    0.000    2.800 
#    0.000    0.000    0.000    0.000    0.000    0.667 
#
# Total GULP energy -334144.162617 kJ/mol
# GULP energy per Si atom -5569.069377 kJ/mol
# Density = 1.494920 g / cm^3
# Si number density = 14.983299 Si / 1000 Ang^3
#
#
#
# Elastic Constant Matrix: (Units=GPa)
#
#
# Indices 1 2 3 4 5 6 
#
# 1 35.8932 24.6182 28.1159 0.0000 0.0000 0.0000
# 2 24.6182 77.5162 30.6668 0.0000 0.0000 0.0000
# 3 28.1159 30.6668 88.6166 0.0000 0.0000 0.0000
# 4 0.0000 0.0000 0.0000 5.0262 0.0000 0.0000
# 5 0.0000 0.0000 0.0000 0.0000 12.3030 0.0000
# 6 0.0000 0.0000 0.0000 0.0000 0.0000 5.9260
#
#
#
# Elastic Compliance Matrix: (Units=1/GPa)
#
#
# Indices 1 2 3 4 5 6 
#
# 1 0.042266 -0.009406 -0.010155 0.000000 0.000000 0.000000
# 2 -0.009406 0.017040 -0.002913 0.000000 0.000000 0.000000
# 3 -0.010155 -0.002913 0.015515 0.000000 0.000000 0.000000
# 4 0.000000 0.000000 0.000000 0.198958 0.000000 0.000000
# 5 0.000000 0.000000 0.000000 0.000000 0.081281 0.000000
# 6 0.000000 0.000000 0.000000 0.000000 0.000000 0.168748
#
#
# Mechanical properties :
#
#
# Convention : Reuss Voigt Hill
#
# Bulk Modulus (GPa) = 33.47421 40.98088 37.22755
# Shear Modulus (GPa) = 8.63986 12.55938 10.59962
#
# Velocity S-wave (km/s) = 2.40392 2.89835 2.66264
# Velocity P-wave (km/s) = 5.48586 6.21378 5.86113
#
# Compressibility (1/GPa) = 0.02987374
#
# Stress axis : x y z
#
# Youngs Moduli (GPa) = 23.65953 58.68559 64.45579
#
# Poissons Ratio (x) = 0.55198 0.65456
# Poissons Ratio (y) = 0.22253 0.18774
# Poissons Ratio (z) = 0.24027 0.17093
#
# Static dielectric constant tensor:
#      x y z
#    x 1.505690 0.000000 0.000000 
#    y 0.000000 1.454340 0.000000 
#    z 0.000000 0.000000 1.532280 
# 
# From -- ./inp_files/74012.got.cif
#   From: 2010.05.17/outbox.cif.g08.bks.cpg/sg65_38_cif.got.tgz:74012.got - 2010.06.03 17:01:31.
