data_PCOD9487552
_publ_section_title
;
Structure prediction by ZEFSAII (Michael W. Deem and Ramdas Pophale) SiO2 
 PCOD9487552
Probable space group: C M M M
;
_chemical_formula_sum "Si O2"
_cell_formula_units_Z 88
_cell_length_a 9.155666
_cell_length_b 26.762116
_cell_length_c 19.421860
_cell_angle_alpha 90.000000
_cell_angle_beta 90.000000
_cell_angle_gamma 90.000000
_cell_volume 4758.841160
_symmetry_space_group_name_H-M "C M M M"
_symmetry_group_IT_number 65
_symmetry_cell_setting 'orthorhombic'
loop_
_space_group_symop_operation_xyz
x,y,z
-x,-y,z
x,-y,-z
-x,y,-z
-x,-y,-z
x,y,-z
-x,y,z
x,-y,z
1/2+x,1/2+y,z
1/2-x,1/2-y,z
1/2+x,1/2-y,-z
1/2-x,1/2+y,-z
1/2-x,1/2-y,-z
1/2+x,1/2+y,-z
1/2-x,1/2+y,z
1/2+x,1/2-y,z
loop_
_atom_site_type_symbol
_atom_site_label
_atom_site_fract_x
_atom_site_fract_y
_atom_site_fract_z
Si Si1 0.823211 0.896938 0.345930
Si Si2 0.673556 0.197336 0.417717
Si Si3 0.174115 0.402502 0.921316
Si Si4 0.669349 0.556538 0.795520
Si Si5 0.677365 0.500000 0.420481
Si Si6 0.165758 0.201236 0.916637
O O1 0.746259 0.848821 0.377852
O O2 0.788772 0.905999 0.265499
O O3 0.777373 0.948152 0.384695
O O4 0.000000 0.892403 0.352193
O O5 0.694903 0.189787 0.500000
O O6 0.500000 0.199901 0.404667
O O7 0.750000 0.250000 0.399645
O O8 0.234638 0.438751 0.863314
O O9 0.244463 0.348881 0.903869
O O10 0.000000 0.399419 0.919241
O O11 0.217022 0.415659 0.000000
O O12 0.500000 0.565808 0.814045
O O13 0.677275 0.500000 0.767599
O O14 0.500000 0.500000 0.417848
O O15 0.722755 0.500000 0.500000
O O16 0.250000 0.250000 0.890602
O O17 0.000000 0.198118 0.890731
O O18 0.157957 0.205718 0.000000
#
# Coordination Sequence:
#
# PCOD9487552 Si02
#       6
#    16  16  16  16   8  16
#     4  10  19  35  58  85 116 151 191 234 281 339
#     4  10  21  37  58  86 120 158 198 239 284 334
#     4  10  21  36  54  78 107 141 186 236 285 343
#     4  10  21  38  58  80 109 145 186 233 288 346
#     4   9  16  28  53  87 116 145 182 222 267 323
#     4   9  16  28  49  76 105 135 167 210 268 328
#
# _framework density 18.491897000000002
#
# number of rings (size 3 to 8) (size 9 to 14) (size 15 to 20)
#    0.000    2.273    0.909    2.182    0.000    6.545 
#    0.000    3.182    0.000    6.000    0.000    0.000 
#    0.000    0.000    0.000    0.000    0.000    0.000 
#
# Total GULP energy -245467.593414 kJ/mol
# GULP energy per Si atom -5578.808941 kJ/mol
# Density = 1.844981 g / cm^3
# Si number density = 18.491897 Si / 1000 Ang^3
#
#
#
# Elastic Constant Matrix: (Units=GPa)
#
#
# Indices 1 2 3 4 5 6 
#
# 1 73.0916 52.1582 52.7857 0.0000 0.0000 0.0000
# 2 52.1582 121.8728 58.2867 0.0000 0.0000 0.0000
# 3 52.7857 58.2867 84.1229 0.0000 0.0000 0.0000
# 4 0.0000 0.0000 0.0000 27.7389 0.0000 0.0000
# 5 0.0000 0.0000 0.0000 0.0000 21.0927 0.0000
# 6 0.0000 0.0000 0.0000 0.0000 0.0000 32.0071
#
#
#
# Elastic Compliance Matrix: (Units=1/GPa)
#
#
# Indices 1 2 3 4 5 6 
#
# 1 0.027035 -0.005170 -0.013382 0.000000 0.000000 0.000000
# 2 -0.005170 0.013261 -0.005944 0.000000 0.000000 0.000000
# 3 -0.013382 -0.005944 0.024402 0.000000 0.000000 0.000000
# 4 0.000000 0.000000 0.000000 0.036050 0.000000 0.000000
# 5 0.000000 0.000000 0.000000 0.000000 0.047410 0.000000
# 6 0.000000 0.000000 0.000000 0.000000 0.000000 0.031243
#
#
# Mechanical properties :
#
#
# Convention : Reuss Voigt Hill
#
# Bulk Modulus (GPa) = 63.66698 67.28318 65.47508
# Shear Modulus (GPa) = 21.40153 23.89151 22.64652
#
# Velocity S-wave (km/s) = 3.40567 3.59834 3.50333
# Velocity P-wave (km/s) = 7.06889 7.32996 7.20061
#
# Compressibility (1/GPa) = 0.01570673
#
# Stress axis : x y z
#
# Youngs Moduli (GPa) = 36.98906 75.41097 40.97972
#
# Poissons Ratio (x) = 0.38990 0.54837
# Poissons Ratio (y) = 0.19125 0.24357
# Poissons Ratio (z) = 0.49497 0.44822
#
# Static dielectric constant tensor:
#      x y z
#    x 1.619200 0.000000 0.000000 
#    y 0.000000 1.637320 0.000000 
#    z 0.000000 0.000000 1.635660 
# 
# From -- ./inp_files/59828.got.cif
#   From: 2010.05.17/outbox.cif.g08.bks.cpg/sg65_30_cif.got.tgz:59828.got - 2010.06.03 17:01:31.
