data_PCOD9487583
_publ_section_title
;
Structure prediction by ZEFSAII (Michael W. Deem and Ramdas Pophale) SiO2 
 PCOD9487583
Probable space group: C M M M
;
_chemical_formula_sum "Si O2"
_cell_formula_units_Z 42
_cell_length_a 23.650105
_cell_length_b 10.450093
_cell_length_c 7.462581
_cell_angle_alpha 90.000000
_cell_angle_beta 90.000000
_cell_angle_gamma 90.000000
_cell_volume 1844.345527
_symmetry_space_group_name_H-M "C M M M"
_symmetry_group_IT_number 65
_symmetry_cell_setting 'orthorhombic'
loop_
_space_group_symop_operation_xyz
x,y,z
-x,-y,z
x,-y,-z
-x,y,-z
-x,-y,-z
x,y,-z
-x,y,z
x,-y,z
1/2+x,1/2+y,z
1/2-x,1/2-y,z
1/2+x,1/2-y,-z
1/2-x,1/2+y,-z
1/2-x,1/2-y,-z
1/2+x,1/2+y,-z
1/2-x,1/2+y,z
1/2+x,1/2-y,z
loop_
_atom_site_type_symbol
_atom_site_label
_atom_site_fract_x
_atom_site_fract_y
_atom_site_fract_z
Si Si1 0.702665 0.500000 0.781159
Si Si2 0.500000 0.000000 0.000000
Si Si3 0.833178 0.500000 0.219228
Si Si4 0.000000 0.275853 0.699174
Si Si5 0.120975 0.773877 0.783318
O O1 0.767761 0.500000 0.725284
O O2 0.667878 0.375149 0.723948
O O3 0.703724 0.500000 0.000000
O O4 0.500000 0.887765 0.154621
O O5 0.863399 0.630248 0.276492
O O6 0.835299 0.500000 0.000000
O O7 0.057559 0.196481 0.724609
O O8 0.000000 0.329833 0.500000
O O9 0.121930 0.773849 0.000000
#
# Coordination Sequence:
#
# PCOD9487583 Si02
#       5
#     8   2   8   8  16
#     4   9  18  32  56  91 122 169 213 256 318 378
#     4  12  22  44  64  92 128 164 206 254 312 372
#     4   9  17  30  56  88 121 162 212 265 314 373
#     4  12  25  40  64  95 128 166 210 260 315 373
#     4  10  19  35  59  87 129 164 210 264 313 377
#
# _framework density 22.772307999999999
#
# number of rings (size 3 to 8) (size 9 to 14) (size 15 to 20)
#    0.000    1.905    1.905    2.571    2.667    5.333 
#    0.000    4.762    0.000    6.857    0.000    0.000 
#    0.000    0.000    0.000    0.000    0.000    0.000 
#
# Total GULP energy -117204.891880 kJ/mol
# GULP energy per Si atom -5581.185328 kJ/mol
# Density = 2.272048 g / cm^3
# Si number density = 22.772308 Si / 1000 Ang^3
#
#
#
# Elastic Constant Matrix: (Units=GPa)
#
#
# Indices 1 2 3 4 5 6 
#
# 1 179.9551 44.7648 -13.4233 0.0000 0.0000 0.0000
# 2 44.7648 86.9025 -3.4313 0.0000 0.0000 0.0000
# 3 -13.4233 -3.4313 110.4990 0.0000 0.0000 0.0000
# 4 0.0000 0.0000 0.0000 -258.8139 0.0000 0.0000
# 5 0.0000 0.0000 0.0000 0.0000 164.7870 0.0000
# 6 0.0000 0.0000 0.0000 0.0000 0.0000 -69.5216
#
#
#
# Elastic Compliance Matrix: (Units=1/GPa)
#
#
# Indices 1 2 3 4 5 6 
#
# 1 0.006424 -0.003282 0.000678 0.000000 0.000000 0.000000
# 2 -0.003282 0.013198 0.000011 0.000000 0.000000 0.000000
# 3 0.000678 0.000011 0.009133 0.000000 0.000000 0.000000
# 4 0.000000 0.000000 0.000000 -0.003864 0.000000 0.000000
# 5 0.000000 0.000000 0.000000 0.000000 0.006068 0.000000
# 6 0.000000 0.000000 0.000000 0.000000 0.000000 -0.014384
#
#
# Mechanical properties :
#
#
# Convention : Reuss Voigt Hill
#
# Bulk Modulus (GPa) = 42.42767 48.13074 45.27921
# Shear Modulus (GPa) = 168.81793 -9.41327 79.70233
#
# Velocity S-wave (km/s) = 8.61939 -2.03534 5.92247
# Velocity P-wave (km/s) = 10.85036 3.95702 8.16665
#
# Compressibility (1/GPa) = 0.02356953
#
# Stress axis : x y z
#
# Youngs Moduli (GPa) = 155.66509 75.76693 109.49759
#
# Poissons Ratio (x) = 0.24869 -0.07429
# Poissons Ratio (y) = 0.51094 -0.00122
# Poissons Ratio (z) = -0.10561 -0.00084
#
# Static dielectric constant tensor:
#      x y z
#    x 1.838980 0.000000 0.000000 
#    y 0.000000 1.782750 0.000000 
#    z 0.000000 0.000000 1.849390 
# 
# From -- ./inp_files/3893.got.cif
#   From: 2010.05.17/outbox.cif.g08.bks.cpg/sg65_2_cif.got.tgz:3893.got - 2010.06.03 17:01:31.
