data_PCOD9487551
_publ_section_title
;
Structure prediction by ZEFSAII (Michael W. Deem and Ramdas Pophale) SiO2 
 PCOD9487551
Probable space group: C M M M
;
_chemical_formula_sum "Si O2"
_cell_formula_units_Z 88
_cell_length_a 29.195636
_cell_length_b 9.118325
_cell_length_c 18.213285
_cell_angle_alpha 90.000000
_cell_angle_beta 90.000000
_cell_angle_gamma 90.000000
_cell_volume 4848.655087
_symmetry_space_group_name_H-M "C M M M"
_symmetry_group_IT_number 65
_symmetry_cell_setting 'orthorhombic'
loop_
_space_group_symop_operation_xyz
x,y,z
-x,-y,z
x,-y,-z
-x,y,-z
-x,-y,-z
x,y,-z
-x,y,z
x,-y,z
1/2+x,1/2+y,z
1/2-x,1/2-y,z
1/2+x,1/2-y,-z
1/2-x,1/2+y,-z
1/2-x,1/2-y,-z
1/2+x,1/2+y,-z
1/2-x,1/2+y,z
1/2+x,1/2-y,z
loop_
_atom_site_type_symbol
_atom_site_label
_atom_site_fract_x
_atom_site_fract_y
_atom_site_fract_z
Si Si1 0.202862 0.825481 0.188373
Si Si2 0.445983 0.175712 0.000000
Si Si3 0.888879 0.673902 0.583298
Si Si4 0.797673 0.174811 0.363289
Si Si5 0.103717 0.823223 0.137199
Si Si6 0.445773 0.326582 0.708951
O O1 0.250000 0.750000 0.165083
O O2 0.196128 0.797145 0.275625
O O3 0.156950 0.779567 0.146145
O O4 0.207601 0.000000 0.180252
O O5 0.421631 0.243359 0.071242
O O6 0.500000 0.213151 0.000000
O O7 0.441812 0.000000 0.000000
O O8 0.904741 0.700795 0.500000
O O9 0.882633 0.500000 0.593109
O O10 0.840623 0.754581 0.596196
O O11 0.923869 0.735857 0.643084
O O12 0.750000 0.250000 0.385421
O O13 0.795881 0.000000 0.374288
O O14 0.078654 0.790291 0.214199
O O15 0.101757 0.000000 0.126694
O O16 0.500000 0.303253 0.714896
O O17 0.437380 0.500000 0.695416
#
# Coordination Sequence:
#
# PCOD9487551 Si02
#       6
#    16   8  16  16  16  16
#     4   9  18  33  57  88 118 148 188 233 280 338
#     4  11  25  41  58  89 126 155 190 239 292 341
#     4  11  24  39  55  80 116 156 197 242 294 350
#     4  10  19  35  58  85 116 150 192 241 291 346
#     4  10  20  39  64  89 117 153 194 235 284 345
#     4  10  21  39  63  87 111 146 195 246 297 353
#
# _framework density 18.149363000000001
#
# number of rings (size 3 to 8) (size 9 to 14) (size 15 to 20)
#    0.000    1.909    1.818    1.909    0.000    6.182 
#    0.000    2.273    0.000    0.000    0.000    0.000 
#    0.000    0.000    0.000    0.000    0.000    0.000 
#
# Total GULP energy -245782.600477 kJ/mol
# GULP energy per Si atom -5585.968193 kJ/mol
# Density = 1.810805 g / cm^3
# Si number density = 18.149363 Si / 1000 Ang^3
#
#
#
# Elastic Constant Matrix: (Units=GPa)
#
#
# Indices 1 2 3 4 5 6 
#
# 1 126.4678 65.7611 83.9213 0.0000 0.0000 0.0000
# 2 65.7611 59.0317 66.7869 0.0000 0.0000 0.0000
# 3 83.9213 66.7869 115.4438 0.0000 0.0000 0.0000
# 4 0.0000 0.0000 0.0000 26.5523 0.0000 0.0000
# 5 0.0000 0.0000 0.0000 0.0000 -7.1391 0.0000
# 6 0.0000 0.0000 0.0000 0.0000 0.0000 35.0834
#
#
#
# Elastic Compliance Matrix: (Units=1/GPa)
#
#
# Indices 1 2 3 4 5 6 
#
# 1 0.019632 -0.016568 -0.004687 0.000000 0.000000 0.000000
# 2 -0.016568 0.063016 -0.024412 0.000000 0.000000 0.000000
# 3 -0.004687 -0.024412 0.026192 0.000000 0.000000 0.000000
# 4 0.000000 0.000000 0.000000 0.037661 0.000000 0.000000
# 5 0.000000 0.000000 0.000000 0.000000 -0.140074 0.000000
# 6 0.000000 0.000000 0.000000 0.000000 0.000000 0.028504
#
#
# Mechanical properties :
#
#
# Convention : Reuss Voigt Hill
#
# Bulk Modulus (GPa) = 57.12051 81.54245 69.33148
# Shear Modulus (GPa) = 37.85027 16.53094 27.19060
#
# Velocity S-wave (km/s) = 4.57167 3.02127 3.87480
# Velocity P-wave (km/s) = 7.70764 7.56286 7.63559
#
# Compressibility (1/GPa) = 0.01750685
#
# Stress axis : x y z
#
# Youngs Moduli (GPa) = 50.93728 15.86900 38.17931
#
# Poissons Ratio (x) = 0.26291 0.17893
# Poissons Ratio (y) = 0.84391 0.93205
# Poissons Ratio (z) = 0.23872 0.38740
#
# Static dielectric constant tensor:
#      x y z
#    x 1.606890 0.000000 0.000000 
#    y 0.000000 1.603450 0.000000 
#    z 0.000000 0.000000 1.607100 
# 
# From -- ./inp_files/50433.got.cif
#   From: 2010.05.17/outbox.cif.g08.bks.cpg/sg65_26_cif.got.tgz:50433.got - 2010.06.03 17:01:31.
