data_PCOD9487444
_publ_section_title
;
Structure prediction by ZEFSAII (Michael W. Deem and Ramdas Pophale) SiO2 
 PCOD9487444
Probable space group: C M M M
;
_chemical_formula_sum "Si O2"
_cell_formula_units_Z 66
_cell_length_a 15.605306
_cell_length_b 26.056658
_cell_length_c 8.924092
_cell_angle_alpha 90.000000
_cell_angle_beta 90.000000
_cell_angle_gamma 90.000000
_cell_volume 3628.733221
_symmetry_space_group_name_H-M "C M M M"
_symmetry_group_IT_number 65
_symmetry_cell_setting 'orthorhombic'
loop_
_space_group_symop_operation_xyz
x,y,z
-x,-y,z
x,-y,-z
-x,y,-z
-x,-y,-z
x,y,-z
-x,y,z
x,-y,z
1/2+x,1/2+y,z
1/2-x,1/2-y,z
1/2+x,1/2-y,-z
1/2-x,1/2+y,-z
1/2-x,1/2-y,-z
1/2+x,1/2+y,-z
1/2-x,1/2+y,z
1/2+x,1/2-y,z
loop_
_atom_site_type_symbol
_atom_site_label
_atom_site_fract_x
_atom_site_fract_y
_atom_site_fract_z
Si Si1 0.000000 0.940946 0.317318
Si Si2 0.154950 0.132644 0.680508
Si Si3 0.600576 0.748920 0.321916
Si Si4 0.500000 0.105764 0.665851
Si Si5 0.166456 0.651174 0.821985
Si Si6 0.500000 0.000000 0.500000
O O1 0.915572 0.909152 0.272134
O O2 0.000000 0.940997 0.500000
O O3 0.000000 0.000000 0.267363
O O4 0.164592 0.129287 0.500000
O O5 0.120998 0.189940 0.714962
O O6 0.246636 0.127263 0.757099
O O7 0.615517 0.755268 0.500000
O O8 0.500000 0.758572 0.291078
O O9 0.656969 0.790096 0.234360
O O10 0.500000 0.131911 0.500000
O O11 0.584445 0.122571 0.753022
O O12 0.500000 0.045768 0.627747
O O13 0.165505 0.649314 0.000000
#
# Coordination Sequence:
#
# PCOD9487444 Si02
#       6
#     8  16  16   8  16   2
#     4   9  18  37  63  91 114 147 202 262 300 336
#     4  10  20  37  60  89 122 160 208 253 295 348
#     4  10  19  34  59  87 120 164 205 249 298 352
#     4  10  21  44  66  87 110 145 202 252 292 352
#     4  12  24  37  58  93 127 160 192 239 307 374
#     4   8  24  44  74  88 100 146 210 248 314 344
#
# _framework density 18.188165999999999
#
# number of rings (size 3 to 8) (size 9 to 14) (size 15 to 20)
#    0.364    1.333    2.424    3.273    0.000    3.879 
#    2.182    1.818    0.000    0.727    0.000    0.000 
#    0.000    0.000    0.000    0.000    0.000    0.000 
#
# Total GULP energy -184015.752995 kJ/mol
# GULP energy per Si atom -5576.234939 kJ/mol
# Density = 1.814677 g / cm^3
# Si number density = 18.188166 Si / 1000 Ang^3
#
#
#
# Elastic Constant Matrix: (Units=GPa)
#
#
# Indices 1 2 3 4 5 6 
#
# 1 173.8251 81.2946 64.3972 0.0000 0.0000 0.0000
# 2 81.2946 153.9122 48.3787 0.0000 0.0000 0.0000
# 3 64.3972 48.3787 54.2016 0.0000 0.0000 0.0000
# 4 0.0000 0.0000 0.0000 -8.4166 0.0000 0.0000
# 5 0.0000 0.0000 0.0000 0.0000 -1.4859 0.0000
# 6 0.0000 0.0000 0.0000 0.0000 0.0000 11.8558
#
#
#
# Elastic Compliance Matrix: (Units=1/GPa)
#
#
# Indices 1 2 3 4 5 6 
#
# 1 0.010847 -0.002333 -0.010805 0.000000 0.000000 0.000000
# 2 -0.002333 0.009533 -0.005737 0.000000 0.000000 0.000000
# 3 -0.010805 -0.005737 0.036408 0.000000 0.000000 0.000000
# 4 0.000000 0.000000 0.000000 -0.118813 0.000000 0.000000
# 5 0.000000 0.000000 0.000000 0.000000 -0.672975 0.000000
# 6 0.000000 0.000000 0.000000 0.000000 0.000000 0.084347
#
#
# Mechanical properties :
#
#
# Convention : Reuss Voigt Hill
#
# Bulk Modulus (GPa) = 52.52719 85.56443 69.04581
# Shear Modulus (GPa) = -8.24322 12.91522 2.33600
#
# Velocity S-wave (km/s) = -2.13120 2.66764 1.13452
# Velocity P-wave (km/s) = 4.78399 7.52559 6.30560
#
# Compressibility (1/GPa) = 0.01903776
#
# Stress axis : x y z
#
# Youngs Moduli (GPa) = 92.19235 104.90242 27.46677
#
# Poissons Ratio (x) = 0.24473 0.29678
# Poissons Ratio (y) = 0.21508 0.15757
# Poissons Ratio (z) = 0.99613 0.60181
#
# Static dielectric constant tensor:
#      x y z
#    x 1.622230 0.000000 0.000000 
#    y 0.000000 1.619210 0.000000 
#    z 0.000000 0.000000 1.601300 
# 
# From -- ./inp_files/7131.got.cif
#   From: 2010.05.17/outbox.cif.g08.bks.cpg/sg65_4_cif.got.tgz:7131.got - 2010.06.03 17:01:31.
