data_PCOD9487586
_publ_section_title
;
Structure prediction by ZEFSAII (Michael W. Deem and Ramdas Pophale) SiO2 
 PCOD9487586
Probable space group: C M M M
;
_chemical_formula_sum "Si O2"
_cell_formula_units_Z 96
_cell_length_a 11.433083
_cell_length_b 14.885160
_cell_length_c 30.843848
_cell_angle_alpha 90.000000
_cell_angle_beta 90.000000
_cell_angle_gamma 90.000000
_cell_volume 5249.106904
_symmetry_space_group_name_H-M "C M M M"
_symmetry_group_IT_number 65
_symmetry_cell_setting 'orthorhombic'
loop_
_space_group_symop_operation_xyz
x,y,z
-x,-y,z
x,-y,-z
-x,y,-z
-x,-y,-z
x,y,-z
-x,y,z
x,-y,z
1/2+x,1/2+y,z
1/2-x,1/2-y,z
1/2+x,1/2-y,-z
1/2-x,1/2+y,-z
1/2-x,1/2-y,-z
1/2+x,1/2+y,-z
1/2-x,1/2+y,z
1/2+x,1/2-y,z
loop_
_atom_site_type_symbol
_atom_site_label
_atom_site_fract_x
_atom_site_fract_y
_atom_site_fract_z
Si Si1 0.500000 0.893907 0.548636
Si Si2 0.859351 0.500000 0.950913
Si Si3 0.254845 0.150253 0.589177
Si Si4 0.750000 0.750000 0.267365
Si Si5 0.638716 0.397692 0.500000
Si Si6 0.362855 0.597565 0.674555
Si Si7 0.356447 0.823270 0.894054
Si Si8 0.361610 0.102895 0.203720
O O1 0.500000 0.852366 0.500000
O O2 0.614494 0.870604 0.575133
O O3 0.500000 0.000000 0.543272
O O4 0.830954 0.408170 0.925441
O O5 0.000000 0.500000 0.953128
O O6 0.812470 0.500000 0.000000
O O7 0.250000 0.250000 0.606075
O O8 0.182324 0.144829 0.544513
O O9 0.203663 0.095130 0.628693
O O10 0.672993 0.684003 0.297485
O O11 0.686063 0.822544 0.236714
O O12 0.685774 0.500000 0.500000
O O13 0.500000 0.399291 0.500000
O O14 0.500000 0.603711 0.665126
O O15 0.340791 0.500000 0.696506
O O16 0.500000 0.798645 0.899281
O O17 0.250000 0.750000 0.900418
O O18 0.344381 0.860494 0.845059
O O19 0.500000 0.097311 0.210954
O O20 0.315041 0.000000 0.207811
#
# Coordination Sequence:
#
# PCOD9487586 Si02
#       8
#     8   8  16   8   8  16  16  16
#     4  11  24  42  64  90 120 150 186 236 290 338
#     4   9  18  34  59  89 125 175 225 265 319 392
#     4  12  25  40  64  88 119 152 189 234 284 342
#     4  12  22  40  64  91 117 150 198 256 308 360
#     4  11  23  39  63  89 113 147 189 228 278 341
#     4  11  25  45  64  86 121 160 196 237 296 361
#     4  10  19  35  59  88 124 165 215 268 318 376
#     4  10  20  36  60  89 120 157 201 254 309 365
#
# _framework density 18.288824999999999
#
# number of rings (size 3 to 8) (size 9 to 14) (size 15 to 20)
#    0.000    1.250    3.333    3.250    2.333    1.667 
#    1.500    0.417    0.000    1.500    0.000    0.000 
#    0.000    0.000    0.000    0.000    0.000    0.000 
#
# Total GULP energy -267453.052894 kJ/mol
# GULP energy per Si atom -5571.938602 kJ/mol
# Density = 1.824720 g / cm^3
# Si number density = 18.288825 Si / 1000 Ang^3
#
#
#
# Elastic Constant Matrix: (Units=GPa)
#
#
# Indices 1 2 3 4 5 6 
#
# 1 109.7077 64.8241 56.9415 0.0000 0.0000 0.0000
# 2 64.8241 156.3965 58.1965 0.0000 0.0000 0.0000
# 3 56.9415 58.1965 122.5810 0.0000 0.0000 0.0000
# 4 0.0000 0.0000 0.0000 25.5929 0.0000 0.0000
# 5 0.0000 0.0000 0.0000 0.0000 24.1430 0.0000
# 6 0.0000 0.0000 0.0000 0.0000 0.0000 35.0704
#
#
#
# Elastic Compliance Matrix: (Units=1/GPa)
#
#
# Indices 1 2 3 4 5 6 
#
# 1 0.013857 -0.004067 -0.004506 0.000000 0.000000 0.000000
# 2 -0.004067 0.008959 -0.002365 0.000000 0.000000 0.000000
# 3 -0.004506 -0.002365 0.011374 0.000000 0.000000 0.000000
# 4 0.000000 0.000000 0.000000 0.039073 0.000000 0.000000
# 5 0.000000 0.000000 0.000000 0.000000 0.041420 0.000000
# 6 0.000000 0.000000 0.000000 0.000000 0.000000 0.028514
#
#
# Mechanical properties :
#
#
# Convention : Reuss Voigt Hill
#
# Bulk Modulus (GPa) = 81.19981 83.17881 82.18931
# Shear Modulus (GPa) = 29.55484 30.87613 30.21549
#
# Velocity S-wave (km/s) = 4.02432 4.11329 4.06905
# Velocity P-wave (km/s) = 8.12948 8.25459 8.19228
#
# Compressibility (1/GPa) = 0.01231530
#
# Stress axis : x y z
#
# Youngs Moduli (GPa) = 72.16636 111.61388 87.92268
#
# Poissons Ratio (x) = 0.45390 0.39619
# Poissons Ratio (y) = 0.29348 0.20789
# Poissons Ratio (z) = 0.32519 0.26391
#
# Static dielectric constant tensor:
#      x y z
#    x 1.581020 0.000000 0.000000 
#    y 0.000000 1.674220 0.000000 
#    z 0.000000 0.000000 1.678650 
# 
# From -- ./inp_files/77405.got.cif
#   From: 2010.05.17/outbox.cif.g08.bks.cpg/sg65_39_cif.got.tgz:77405.got - 2010.06.03 17:01:31.
