data_PCOD9487956
_publ_section_title
;
Structure prediction by ZEFSAII (Michael W. Deem and Ramdas Pophale) SiO2 
 PCOD9487956
Probable space group: C M M M
;
_chemical_formula_sum "Si O2"
_cell_formula_units_Z 64
_cell_length_a 29.281974
_cell_length_b 8.289510
_cell_length_c 14.223996
_cell_angle_alpha 90.000000
_cell_angle_beta 90.000000
_cell_angle_gamma 90.000000
_cell_volume 3452.636298
_symmetry_space_group_name_H-M "C M M M"
_symmetry_group_IT_number 65
_symmetry_cell_setting 'orthorhombic'
loop_
_space_group_symop_operation_xyz
x,y,z
-x,-y,z
x,-y,-z
-x,y,-z
-x,-y,-z
x,y,-z
-x,y,z
x,-y,z
1/2+x,1/2+y,z
1/2-x,1/2-y,z
1/2+x,1/2-y,-z
1/2-x,1/2+y,-z
1/2-x,1/2-y,-z
1/2+x,1/2+y,-z
1/2-x,1/2+y,z
1/2+x,1/2-y,z
loop_
_atom_site_type_symbol
_atom_site_label
_atom_site_fract_x
_atom_site_fract_y
_atom_site_fract_z
Si Si1 0.946614 0.803234 0.105706
Si Si2 0.299760 0.808120 0.392806
Si Si3 0.699642 0.815133 0.888602
Si Si4 0.628187 0.684213 0.245073
O O1 0.916719 0.743495 0.194045
O O2 0.000000 0.762286 0.115300
O O3 0.943251 0.000000 0.106047
O O4 0.931580 0.750490 0.000000
O O5 0.304139 0.745108 0.500000
O O6 0.250000 0.750000 0.356154
O O7 0.343477 0.760595 0.330695
O O8 0.297614 0.000000 0.395680
O O9 0.750000 0.750000 0.870215
O O10 0.664288 0.698150 0.839588
O O11 0.694360 0.000000 0.853869
O O12 0.692824 0.816085 0.000000
O O13 0.618367 0.500000 0.270851
#
# Coordination Sequence:
#
# PCOD9487956 Si02
#       4
#    16  16  16  16
#     4   8  15  29  49  74 103 133 166 204 245 290
#     4  10  21  37  55  74  99 131 167 207 250 298
#     4  10  20  32  45  64  95 132 166 199 236 285
#     4  11  20  30  50  76 100 127 162 205 251 298
#
# _framework density 18.536559
#
# number of rings (size 3 to 8) (size 9 to 14) (size 15 to 20)
#    0.000    2.250    0.000    4.500    0.000    4.000 
#    0.000    0.000    0.000    3.750    0.000   14.000 
#    0.000    0.000    0.000    0.000    0.000    0.000 
#
# Total GULP energy -178337.062229 kJ/mol
# GULP energy per Si atom -5573.033195 kJ/mol
# Density = 1.849437 g / cm^3
# Si number density = 18.536559 Si / 1000 Ang^3
#
#
#
# Elastic Constant Matrix: (Units=GPa)
#
#
# Indices 1 2 3 4 5 6 
#
# 1 81.1813 -1.2493 49.7294 0.0000 0.0000 0.0000
# 2 -1.2493 30.4374 11.9765 0.0000 0.0000 0.0000
# 3 49.7294 11.9765 101.0617 0.0000 0.0000 0.0000
# 4 0.0000 0.0000 0.0000 71.8891 0.0000 0.0000
# 5 0.0000 0.0000 0.0000 0.0000 31.7632 0.0000
# 6 0.0000 0.0000 0.0000 0.0000 0.0000 14.1289
#
#
#
# Elastic Compliance Matrix: (Units=1/GPa)
#
#
# Indices 1 2 3 4 5 6 
#
# 1 0.018197 0.004479 -0.009485 0.000000 0.000000 0.000000
# 2 0.004479 0.035564 -0.006419 0.000000 0.000000 0.000000
# 3 -0.009485 -0.006419 0.015323 0.000000 0.000000 0.000000
# 4 0.000000 0.000000 0.000000 0.013910 0.000000 0.000000
# 5 0.000000 0.000000 0.000000 0.000000 0.031483 0.000000
# 6 0.000000 0.000000 0.000000 0.000000 0.000000 0.070777
#
#
# Mechanical properties :
#
#
# Convention : Reuss Voigt Hill
#
# Bulk Modulus (GPa) = 21.62874 37.06598 29.34736
# Shear Modulus (GPa) = 22.36983 33.70449 28.03716
#
# Velocity S-wave (km/s) = 3.47766 4.26874 3.89335
# Velocity P-wave (km/s) = 5.27437 6.65851 6.00645
#
# Compressibility (1/GPa) = 0.04623477
#
# Stress axis : x y z
#
# Youngs Moduli (GPa) = 54.95288 28.11855 65.26145
#
# Poissons Ratio (x) = -0.12595 0.61902
# Poissons Ratio (y) = -0.24614 0.41889
# Poissons Ratio (z) = 0.52124 0.18048
#
# Static dielectric constant tensor:
#      x y z
#    x 1.645940 0.000000 0.000000 
#    y 0.000000 1.680760 0.000000 
#    z 0.000000 0.000000 1.677870 
# 
# From -- ./inp_files/36815.got.cif
#   From: 2010.05.17/outbox.cif.g08.bks.cpg/sg65_19_cif.got.tgz:36815.got - 2010.06.03 17:01:31.
