data_PCOD9487319
_publ_section_title
;
Structure prediction by ZEFSAII (Michael W. Deem and Ramdas Pophale) SiO2 
 PCOD9487319
Probable space group: C M M M
;
_chemical_formula_sum "Si O2"
_cell_formula_units_Z 64
_cell_length_a 18.426249
_cell_length_b 7.739468
_cell_length_c 23.604534
_cell_angle_alpha 90.000000
_cell_angle_beta 90.000000
_cell_angle_gamma 90.000000
_cell_volume 3366.227593
_symmetry_space_group_name_H-M "C M M M"
_symmetry_group_IT_number 65
_symmetry_cell_setting 'orthorhombic'
loop_
_space_group_symop_operation_xyz
x,y,z
-x,-y,z
x,-y,-z
-x,y,-z
-x,-y,-z
x,y,-z
-x,y,z
x,-y,z
1/2+x,1/2+y,z
1/2-x,1/2-y,z
1/2+x,1/2-y,-z
1/2-x,1/2+y,-z
1/2-x,1/2-y,-z
1/2+x,1/2+y,-z
1/2-x,1/2+y,z
1/2+x,1/2-y,z
loop_
_atom_site_type_symbol
_atom_site_label
_atom_site_fract_x
_atom_site_fract_y
_atom_site_fract_z
Si Si1 0.835580 0.706962 0.764741
Si Si2 0.580136 0.703861 0.000000
Si Si3 0.334771 0.795311 0.886632
Si Si4 0.913639 0.000000 0.567252
Si Si5 0.663721 0.791716 0.360915
O O1 0.843867 0.500000 0.764379
O O2 0.750000 0.750000 0.765513
O O3 0.862930 0.775290 0.825647
O O4 0.862003 0.762555 0.702801
O O5 0.622633 0.746361 0.057283
O O6 0.572988 0.500000 0.000000
O O7 0.500000 0.784537 0.000000
O O8 0.250000 0.750000 0.892919
O O9 0.339105 0.000000 0.882290
O O10 0.877849 0.170477 0.595083
O O11 0.900599 0.000000 0.500000
O O12 0.000000 0.000000 0.577187
O O13 0.750000 0.750000 0.364327
O O14 0.654134 0.000000 0.368102
#
# Coordination Sequence:
#
# PCOD9487319 Si02
#       5
#    16   8  16   8  16
#     4   8  16  29  53  86 114 138 178 231 287 337
#     4  11  24  39  50  67 103 145 188 233 280 333
#     4  10  19  34  56  82 107 139 179 227 279 340
#     4  11  26  44  60  88 129 168 208 250 300 364
#     4  10  19  38  65  95 124 158 202 256 304 357
#
# _framework density 19.012381000000001
#
# number of rings (size 3 to 8) (size 9 to 14) (size 15 to 20)
#    0.000    2.250    1.250    1.500    1.750    3.500 
#    0.000    2.500    0.000    4.500    0.000    0.000 
#    0.000    0.000    0.000    0.000    0.000    0.000 
#
# Total GULP energy -178255.656388 kJ/mol
# GULP energy per Si atom -5570.489262 kJ/mol
# Density = 1.896911 g / cm^3
# Si number density = 19.012381 Si / 1000 Ang^3
#
#
#
# Elastic Constant Matrix: (Units=GPa)
#
#
# Indices 1 2 3 4 5 6 
#
# 1 69.3395 31.1084 85.1693 0.0000 0.0000 0.0000
# 2 31.1084 90.3214 62.8027 0.0000 0.0000 0.0000
# 3 85.1693 62.8027 211.4309 0.0000 0.0000 0.0000
# 4 0.0000 0.0000 0.0000 5.0365 0.0000 0.0000
# 5 0.0000 0.0000 0.0000 0.0000 -34.0478 0.0000
# 6 0.0000 0.0000 0.0000 0.0000 0.0000 15.0335
#
#
#
# Elastic Compliance Matrix: (Units=1/GPa)
#
#
# Indices 1 2 3 4 5 6 
#
# 1 0.028935 -0.002346 -0.010959 0.000000 0.000000 0.000000
# 2 -0.002346 0.014144 -0.003256 0.000000 0.000000 0.000000
# 3 -0.010959 -0.003256 0.010111 0.000000 0.000000 0.000000
# 4 0.000000 0.000000 0.000000 0.198550 0.000000 0.000000
# 5 0.000000 0.000000 0.000000 0.000000 -0.029370 0.000000
# 6 0.000000 0.000000 0.000000 0.000000 0.000000 0.066518
#
#
# Mechanical properties :
#
#
# Convention : Reuss Voigt Hill
#
# Bulk Modulus (GPa) = 49.83010 81.02807 65.42908
# Shear Modulus (GPa) = 15.21149 10.00519 12.60834
#
# Velocity S-wave (km/s) = 2.83164 2.29649 2.57799
# Velocity P-wave (km/s) = 6.07924 7.05287 6.58407
#
# Compressibility (1/GPa) = 0.02006819
#
# Stress axis : x y z
#
# Youngs Moduli (GPa) = 34.56031 70.70313 98.89823
#
# Poissons Ratio (x) = 0.16585 1.08382
# Poissons Ratio (y) = 0.08107 0.32204
# Poissons Ratio (z) = 0.37874 0.23023
#
# Static dielectric constant tensor:
#      x y z
#    x 1.601320 0.000000 0.000000 
#    y 0.000000 1.669260 0.000000 
#    z 0.000000 0.000000 1.769010 
# 
# From -- ./inp_files/69551.got.cif
#   From: 2010.05.17/outbox.cif.g08.bks.cpg/sg65_35_cif.got.tgz:69551.got - 2010.06.03 17:01:31.
