data_PCOD9487225
_publ_section_title
;
Structure prediction by ZEFSAII (Michael W. Deem and Ramdas Pophale) SiO2 
 PCOD9487225
Probable space group: C M M M
;
_chemical_formula_sum "Si O2"
_cell_formula_units_Z 72
_cell_length_a 8.291793
_cell_length_b 14.116455
_cell_length_c 26.651016
_cell_angle_alpha 90.000000
_cell_angle_beta 90.000000
_cell_angle_gamma 90.000000
_cell_volume 3119.520685
_symmetry_space_group_name_H-M "C M M M"
_symmetry_group_IT_number 65
_symmetry_cell_setting 'orthorhombic'
loop_
_space_group_symop_operation_xyz
x,y,z
-x,-y,z
x,-y,-z
-x,y,-z
-x,-y,-z
x,y,-z
-x,y,z
x,-y,z
1/2+x,1/2+y,z
1/2-x,1/2-y,z
1/2+x,1/2-y,-z
1/2-x,1/2+y,-z
1/2-x,1/2-y,-z
1/2+x,1/2+y,-z
1/2-x,1/2+y,z
1/2+x,1/2-y,z
loop_
_atom_site_type_symbol
_atom_site_label
_atom_site_fract_x
_atom_site_fract_y
_atom_site_fract_z
Si Si1 0.690645 0.356594 0.000000
Si Si2 0.500000 0.884106 0.732206
Si Si3 0.824275 0.884458 0.210330
Si Si4 0.500000 0.883735 0.616599
Si Si5 0.822121 0.609417 0.890751
Si Si6 0.821223 0.115333 0.441342
O O1 0.750000 0.250000 0.000000
O O2 0.758070 0.392475 0.947228
O O3 0.500000 0.367786 0.000000
O O4 0.335479 0.854468 0.759941
O O5 0.500000 0.854316 0.674436
O O6 0.500000 0.000000 0.733350
O O7 0.796893 0.854894 0.152253
O O8 0.000000 0.851334 0.228250
O O9 0.829092 0.000000 0.213594
O O10 0.663980 0.852870 0.588836
O O11 0.500000 0.000000 0.615554
O O12 0.842176 0.500000 0.876495
O O13 0.000000 0.654825 0.889753
O O14 0.806547 0.140955 0.500000
O O15 0.000000 0.144884 0.423187
O O16 0.820313 0.000000 0.439425
#
# Coordination Sequence:
#
# PCOD9487225 Si02
#       6
#     8   8  16   8  16  16
#     4  12  25  38  51  73 103 129 155 189 237 285
#     4   9  16  25  34  52  78  99 126 175 221 265
#     4   9  16  27  43  61  81 107 139 175 216 263
#     4   9  15  20  29  42  61  88 117 155 217 269
#     4  10  19  34  55  75  96 123 156 191 229 280
#     4   8  13  20  28  38  54  80 119 163 204 255
#
# _framework density 23.080469999999998
#
# number of rings (size 3 to 8) (size 9 to 14) (size 15 to 20)
#    0.000    2.667    1.111    3.000    0.000    4.889 
#    0.000    4.444    0.000    0.000    0.000    0.000 
#    0.000    0.000    0.000    0.000    0.000    0.000 
#
# Total GULP energy -201054.908529 kJ/mol
# GULP energy per Si atom -5584.858570 kJ/mol
# Density = 2.302794 g / cm^3
# Si number density = 23.080470 Si / 1000 Ang^3
#
#
#
# Elastic Constant Matrix: (Units=GPa)
#
#
# Indices 1 2 3 4 5 6 
#
# 1 269.1673 16.4901 121.4659 0.0000 0.0000 0.0000
# 2 16.4901 61.9972 -8.4894 0.0000 0.0000 0.0000
# 3 121.4659 -8.4894 142.0247 0.0000 0.0000 0.0000
# 4 0.0000 0.0000 0.0000 -75.9976 0.0000 0.0000
# 5 0.0000 0.0000 0.0000 0.0000 -5.4421 0.0000
# 6 0.0000 0.0000 0.0000 0.0000 0.0000 22.1998
#
#
#
# Elastic Compliance Matrix: (Units=1/GPa)
#
#
# Indices 1 2 3 4 5 6 
#
# 1 0.006406 -0.002474 -0.005626 0.000000 0.000000 0.000000
# 2 -0.002474 0.017219 0.003145 0.000000 0.000000 0.000000
# 3 -0.005626 0.003145 0.012041 0.000000 0.000000 0.000000
# 4 0.000000 0.000000 0.000000 -0.013158 0.000000 0.000000
# 5 0.000000 0.000000 0.000000 0.000000 -0.183754 0.000000
# 6 0.000000 0.000000 0.000000 0.000000 0.000000 0.045045
#
#
# Mechanical properties :
#
#
# Convention : Reuss Voigt Hill
#
# Bulk Modulus (GPa) = 38.82793 81.34692 60.08743
# Shear Modulus (GPa) = -51.17371 11.06688 -20.05342
#
# Velocity S-wave (km/s) = -4.71381 2.19210 -2.95082
# Velocity P-wave (km/s) = 3.57313 6.45976 3.80534
#
# Compressibility (1/GPa) = 0.02575465
#
# Stress axis : x y z
#
# Youngs Moduli (GPa) = 156.11047 58.07686 83.04997
#
# Poissons Ratio (x) = 0.14370 0.46727
# Poissons Ratio (y) = 0.38625 -0.26122
# Poissons Ratio (z) = 0.87833 -0.18267
#
# Static dielectric constant tensor:
#      x y z
#    x 1.846570 0.000000 0.000000 
#    y 0.000000 1.919910 0.000000 
#    z 0.000000 0.000000 1.836030 
# 
# From -- ./inp_files/67144.got.cif
#   From: 2010.05.17/outbox.cif.g08.bks.cpg/sg65_34_cif.got.tgz:67144.got - 2010.06.03 17:01:31.
