data_PCOD9487067
_publ_section_title
;
Structure prediction by ZEFSAII (Michael W. Deem and Ramdas Pophale) SiO2 
 PCOD9487067
Probable space group: C M M M
;
_chemical_formula_sum "Si O2"
_cell_formula_units_Z 96
_cell_length_a 24.069391
_cell_length_b 25.775719
_cell_length_c 8.773377
_cell_angle_alpha 90.000000
_cell_angle_beta 90.000000
_cell_angle_gamma 90.000000
_cell_volume 5443.054493
_symmetry_space_group_name_H-M "C M M M"
_symmetry_group_IT_number 65
_symmetry_cell_setting 'orthorhombic'
loop_
_space_group_symop_operation_xyz
x,y,z
-x,-y,z
x,-y,-z
-x,y,-z
-x,-y,-z
x,y,-z
-x,y,z
x,-y,z
1/2+x,1/2+y,z
1/2-x,1/2-y,z
1/2+x,1/2-y,-z
1/2-x,1/2+y,-z
1/2-x,1/2-y,-z
1/2+x,1/2+y,-z
1/2-x,1/2+y,z
1/2+x,1/2-y,z
loop_
_atom_site_type_symbol
_atom_site_label
_atom_site_fract_x
_atom_site_fract_y
_atom_site_fract_z
Si Si1 0.000000 0.696566 0.681372
Si Si2 0.885080 0.152392 0.683330
Si Si3 0.000000 0.187450 0.181339
Si Si4 0.814712 0.743580 0.682278
Si Si5 0.887789 0.346990 0.180034
Si Si6 0.693399 0.440946 0.685629
Si Si7 0.179279 0.561143 0.317820
O O1 0.945070 0.667155 0.736829
O O2 0.000000 0.701279 0.500000
O O3 0.000000 0.754351 0.751053
O O4 0.892487 0.149437 0.500000
O O5 0.944537 0.159290 0.760302
O O6 0.848175 0.203553 0.713869
O O7 0.850722 0.101920 0.735058
O O8 0.000000 0.190586 0.000000
O O9 0.818481 0.733382 0.500000
O O10 0.750000 0.750000 0.720392
O O11 0.843455 0.696633 0.769695
O O12 0.863066 0.401848 0.232371
O O13 0.896380 0.345379 0.000000
O O14 0.693215 0.440995 0.500000
O O15 0.681271 0.500000 0.734763
O O16 0.756808 0.427545 0.729224
O O17 0.175270 0.570458 0.500000
O O18 0.169711 0.500000 0.291897
#
# Coordination Sequence:
#
# PCOD9487067 Si02
#       7
#     8  16   8  16  16  16  16
#     4  12  24  42  63  80 105 148 198 239 280 339
#     4  10  19  33  56  82 110 147 189 233 281 334
#     4  12  24  38  55  78 111 149 188 235 288 340
#     4  10  20  34  55  82 112 148 190 234 278 335
#     4  12  24  37  56  85 119 150 184 232 290 344
#     4   8  15  31  58  89 115 143 188 240 281 322
#     4   9  18  36  62  88 115 151 192 232 277 334
#
# _framework density 17.637156000000001
#
# number of rings (size 3 to 8) (size 9 to 14) (size 15 to 20)
#    0.000    1.833    1.667    5.000    0.000    3.333 
#    0.000    3.333    0.000    6.500    0.000    0.000 
#    0.000    0.000    0.000    0.000    0.000    0.000 
#
# Total GULP energy -268115.614649 kJ/mol
# GULP energy per Si atom -5585.741972 kJ/mol
# Density = 1.759701 g / cm^3
# Si number density = 17.637156 Si / 1000 Ang^3
#
#
#
# Elastic Constant Matrix: (Units=GPa)
#
#
# Indices 1 2 3 4 5 6 
#
# 1 103.2995 43.2380 30.9955 0.0000 0.0000 0.0000
# 2 43.2380 69.5772 30.2365 0.0000 0.0000 0.0000
# 3 30.9955 30.2365 48.8281 0.0000 0.0000 0.0000
# 4 0.0000 0.0000 0.0000 3.6542 0.0000 0.0000
# 5 0.0000 0.0000 0.0000 0.0000 175.0446 0.0000
# 6 0.0000 0.0000 0.0000 0.0000 0.0000 17.8341
#
#
#
# Elastic Compliance Matrix: (Units=1/GPa)
#
#
# Indices 1 2 3 4 5 6 
#
# 1 0.013840 -0.006544 -0.004733 0.000000 0.000000 0.000000
# 2 -0.006544 0.022758 -0.009939 0.000000 0.000000 0.000000
# 3 -0.004733 -0.009939 0.029639 0.000000 0.000000 0.000000
# 4 0.000000 0.000000 0.000000 0.273655 0.000000 0.000000
# 5 0.000000 0.000000 0.000000 0.000000 0.005713 0.000000
# 6 0.000000 0.000000 0.000000 0.000000 0.000000 0.056072
#
#
# Mechanical properties :
#
#
# Convention : Reuss Voigt Hill
#
# Bulk Modulus (GPa) = 42.00717 47.84944 44.92831
# Shear Modulus (GPa) = 11.06086 47.12224 29.09155
#
# Velocity S-wave (km/s) = 2.50698 5.17451 4.06574
# Velocity P-wave (km/s) = 5.67883 7.93030 6.89705
#
# Compressibility (1/GPa) = 0.02380546
#
# Stress axis : x y z
#
# Youngs Moduli (GPa) = 72.25547 43.94001 33.73892
#
# Poissons Ratio (x) = 0.28753 0.15969
# Poissons Ratio (y) = 0.47281 0.33534
# Poissons Ratio (z) = 0.34200 0.43673
#
# Static dielectric constant tensor:
#      x y z
#    x 1.578900 0.000000 0.000000 
#    y 0.000000 1.588550 0.000000 
#    z 0.000000 0.000000 1.591180 
# 
# From -- ./inp_files/14366.got.cif
#   From: 2010.05.17/outbox.cif.g08.bks.cpg/sg65_8_cif.got.tgz:14366.got - 2010.06.03 17:01:31.
