data_PCOD9487064
_publ_section_title
;
Structure prediction by ZEFSAII (Michael W. Deem and Ramdas Pophale) SiO2 
 PCOD9487064
Probable space group: C M M M
;
_chemical_formula_sum "Si O2"
_cell_formula_units_Z 104
_cell_length_a 25.950720
_cell_length_b 8.516789
_cell_length_c 25.233385
_cell_angle_alpha 90.000000
_cell_angle_beta 90.000000
_cell_angle_gamma 90.000000
_cell_volume 5577.002173
_symmetry_space_group_name_H-M "C M M M"
_symmetry_group_IT_number 65
_symmetry_cell_setting 'orthorhombic'
loop_
_space_group_symop_operation_xyz
x,y,z
-x,-y,z
x,-y,-z
-x,y,-z
-x,-y,-z
x,y,-z
-x,y,z
x,-y,z
1/2+x,1/2+y,z
1/2-x,1/2-y,z
1/2+x,1/2-y,-z
1/2-x,1/2+y,-z
1/2-x,1/2-y,-z
1/2+x,1/2+y,-z
1/2-x,1/2+y,z
1/2+x,1/2-y,z
loop_
_atom_site_type_symbol
_atom_site_label
_atom_site_fract_x
_atom_site_fract_y
_atom_site_fract_z
Si Si1 0.112442 0.809690 0.061855
Si Si2 0.806855 0.312647 0.559966
Si Si3 0.612120 0.190451 0.764396
Si Si4 0.500000 0.183253 0.226770
Si Si5 0.500000 0.681906 0.935444
Si Si6 0.386728 0.314011 0.355337
Si Si7 0.308031 0.812050 0.146872
Si Si8 0.500000 0.313591 0.656997
O O1 0.055538 0.749297 0.079859
O O2 0.158412 0.745833 0.097168
O O3 0.111382 0.000000 0.064815
O O4 0.119061 0.768097 0.000000
O O5 0.819692 0.257486 0.500000
O O6 0.805159 0.500000 0.559492
O O7 0.750000 0.250000 0.572811
O O8 0.847482 0.258263 0.603301
O O9 0.556574 0.248728 0.787491
O O10 0.618769 0.248928 0.704394
O O11 0.659185 0.239726 0.801586
O O12 0.609977 0.000000 0.763491
O O13 0.500000 0.207363 0.290449
O O14 0.500000 0.000000 0.212132
O O15 0.500000 0.500000 0.917947
O O16 0.500000 0.679995 0.000000
O O17 0.378784 0.500000 0.353416
O O18 0.446236 0.284029 0.371805
O O19 0.250000 0.750000 0.146588
O O20 0.306564 0.000000 0.146567
O O21 0.500000 0.500000 0.672896
#
# Coordination Sequence:
#
# PCOD9487064 Si02
#       8
#    16  16  16   8   8  16  16   8
#     4   9  18  35  59  83 107 137 172 211 258 313
#     4  10  21  37  56  78 105 138 178 223 267 312
#     4   9  19  35  54  77 105 137 173 214 263 317
#     4   8  14  29  53  76  99 130 168 212 262 313
#     4   7  12  27  53  83 110 134 163 202 252 311
#     4  10  19  33  56  82 109 142 177 215 260 310
#     4  11  24  39  54  74 104 141 180 223 265 308
#     4   8  16  30  48  76 110 140 173 211 252 304
#
# _framework density 18.648012000000001
#
# number of rings (size 3 to 8) (size 9 to 14) (size 15 to 20)
#    0.000    2.692    0.000    2.308    0.000    4.615 
#    0.000    3.077    0.000    6.462    0.000    0.000 
#    0.000    0.000    0.000    0.000    0.000    0.000 
#
# Total GULP energy -289852.304804 kJ/mol
# GULP energy per Si atom -5574.082785 kJ/mol
# Density = 1.860557 g / cm^3
# Si number density = 18.648012 Si / 1000 Ang^3
#
#
#
# Elastic Constant Matrix: (Units=GPa)
#
#
# Indices 1 2 3 4 5 6 
#
# 1 210.7223 42.3311 100.0057 0.0000 0.0000 0.0000
# 2 42.3311 27.5142 26.4143 0.0000 0.0000 0.0000
# 3 100.0057 26.4143 100.9773 0.0000 0.0000 0.0000
# 4 0.0000 0.0000 0.0000 16.1915 0.0000 0.0000
# 5 0.0000 0.0000 0.0000 0.0000 96.1780 0.0000
# 6 0.0000 0.0000 0.0000 0.0000 0.0000 13.7155
#
#
#
# Elastic Compliance Matrix: (Units=1/GPa)
#
#
# Indices 1 2 3 4 5 6 
#
# 1 0.010102 -0.007929 -0.007931 0.000000 0.000000 0.000000
# 2 -0.007929 0.054755 -0.006471 0.000000 0.000000 0.000000
# 3 -0.007931 -0.006471 0.019451 0.000000 0.000000 0.000000
# 4 0.000000 0.000000 0.000000 0.061761 0.000000 0.000000
# 5 0.000000 0.000000 0.000000 0.000000 0.010397 0.000000
# 6 0.000000 0.000000 0.000000 0.000000 0.000000 0.072910
#
#
# Mechanical properties :
#
#
# Convention : Reuss Voigt Hill
#
# Bulk Modulus (GPa) = 25.22250 75.19066 50.20658
# Shear Modulus (GPa) = 17.40619 36.58118 26.99368
#
# Velocity S-wave (km/s) = 3.05849 4.43388 3.80878
# Velocity P-wave (km/s) = 5.10170 8.16216 6.80618
#
# Compressibility (1/GPa) = 0.03964715
#
# Stress axis : x y z
#
# Youngs Moduli (GPa) = 98.98756 18.26301 51.41193
#
# Poissons Ratio (x) = 0.14480 0.40775
# Poissons Ratio (y) = 0.78482 0.33269
# Poissons Ratio (z) = 0.78508 0.11818
#
# Static dielectric constant tensor:
#      x y z
#    x 1.666870 0.000000 0.000000 
#    y 0.000000 1.636930 0.000000 
#    z 0.000000 0.000000 1.628300 
# 
# From -- ./inp_files/75562.got.cif
#   From: 2010.05.17/outbox.cif.g08.bks.cpg/sg65_38_cif.got.tgz:75562.got - 2010.06.03 17:01:31.
