data_PCOD9487500
_publ_section_title
;
Structure prediction by ZEFSAII (Michael W. Deem and Ramdas Pophale) SiO2 
 PCOD9487500
Probable space group: C M M M
;
_chemical_formula_sum "Si O2"
_cell_formula_units_Z 72
_cell_length_a 16.187834
_cell_length_b 16.295795
_cell_length_c 13.517852
_cell_angle_alpha 90.000000
_cell_angle_beta 90.000000
_cell_angle_gamma 90.000000
_cell_volume 3565.923173
_symmetry_space_group_name_H-M "C M M M"
_symmetry_group_IT_number 65
_symmetry_cell_setting 'orthorhombic'
loop_
_space_group_symop_operation_xyz
x,y,z
-x,-y,z
x,-y,-z
-x,y,-z
-x,-y,-z
x,y,-z
-x,y,z
x,-y,z
1/2+x,1/2+y,z
1/2-x,1/2-y,z
1/2+x,1/2-y,-z
1/2-x,1/2+y,-z
1/2-x,1/2-y,-z
1/2+x,1/2+y,-z
1/2-x,1/2+y,z
1/2+x,1/2-y,z
loop_
_atom_site_type_symbol
_atom_site_label
_atom_site_fract_x
_atom_site_fract_y
_atom_site_fract_z
Si Si1 0.593234 0.240809 0.750817
Si Si2 0.848401 0.593489 0.382608
Si Si3 0.589908 0.000000 0.118410
Si Si4 0.171094 0.093139 0.281309
Si Si5 0.288212 0.852191 0.882888
O O1 0.500000 0.237504 0.791629
O O2 0.605470 0.167716 0.671754
O O3 0.610422 0.330254 0.703599
O O4 0.666072 0.225092 0.831729
O O5 0.857470 0.600567 0.500000
O O6 0.873919 0.500000 0.354187
O O7 0.751653 0.600911 0.351846
O O8 0.641913 0.920177 0.139654
O O9 0.500000 0.000000 0.164143
O O10 0.581624 0.000000 0.000000
O O11 0.209867 0.108921 0.172313
O O12 0.138953 0.000000 0.289688
O O13 0.277090 0.842586 0.000000
#
# Coordination Sequence:
#
# PCOD9487500 Si02
#       5
#    16  16   8  16  16
#     4  11  24  36  52  83 117 149 185 227 276 332
#     4   9  19  38  63  87 111 141 178 224 279 338
#     4   9  16  26  46  76 106 134 162 205 272 332
#     4  10  21  38  58  80 107 146 196 236 269 321
#     4  10  19  35  56  79 108 142 184 232 279 330
#
# _framework density 20.191123999999999
#
# number of rings (size 3 to 8) (size 9 to 14) (size 15 to 20)
#    0.000    2.111    1.111    3.333    1.556    6.222 
#    0.000    1.111    0.000    0.000    0.000    7.778 
#    0.000    0.000    0.000    0.000    0.000    0.000 
#
# Total GULP energy -200756.969947 kJ/mol
# GULP energy per Si atom -5576.582499 kJ/mol
# Density = 2.014517 g / cm^3
# Si number density = 20.191124 Si / 1000 Ang^3
#
#
#
# Elastic Constant Matrix: (Units=GPa)
#
#
# Indices 1 2 3 4 5 6 
#
# 1 50.2390 19.8719 3.1245 0.0000 0.0000 0.0000
# 2 19.8719 143.8075 21.2809 0.0000 0.0000 0.0000
# 3 3.1245 21.2809 83.3408 0.0000 0.0000 0.0000
# 4 0.0000 0.0000 0.0000 17.2809 0.0000 0.0000
# 5 0.0000 0.0000 0.0000 0.0000 9.3140 0.0000
# 6 0.0000 0.0000 0.0000 0.0000 0.0000 1.0031
#
#
#
# Elastic Compliance Matrix: (Units=1/GPa)
#
#
# Indices 1 2 3 4 5 6 
#
# 1 0.021056 -0.002902 -0.000048 0.000000 0.000000 0.000000
# 2 -0.002902 0.007627 -0.001839 0.000000 0.000000 0.000000
# 3 -0.000048 -0.001839 0.012470 0.000000 0.000000 0.000000
# 4 0.000000 0.000000 0.000000 0.057867 0.000000 0.000000
# 5 0.000000 0.000000 0.000000 0.000000 0.107365 0.000000
# 6 0.000000 0.000000 0.000000 0.000000 0.000000 0.996913
#
#
# Mechanical properties :
#
#
# Convention : Reuss Voigt Hill
#
# Bulk Modulus (GPa) = 31.67137 40.66020 36.16579
# Shear Modulus (GPa) = 4.08696 21.06026 12.57361
#
# Velocity S-wave (km/s) = 1.42427 3.23313 2.49816
# Velocity P-wave (km/s) = 4.29238 5.84113 5.12559
#
# Compressibility (1/GPa) = 0.03157425
#
# Stress axis : x y z
#
# Youngs Moduli (GPa) = 47.49259 131.11476 80.19089
#
# Poissons Ratio (x) = 0.38055 0.00387
# Poissons Ratio (y) = 0.13784 0.14745
# Poissons Ratio (z) = 0.00229 0.24108
#
# Static dielectric constant tensor:
#      x y z
#    x 1.722210 0.000000 0.000000 
#    y 0.000000 1.797880 0.000000 
#    z 0.000000 0.000000 1.728370 
# 
# From -- ./inp_files/39807.got.cif
#   From: 2010.05.17/outbox.cif.g08.bks.cpg/sg65_20_cif.got.tgz:39807.got - 2010.06.03 17:01:31.
