data_PCOD9487098
_publ_section_title
;
Structure prediction by ZEFSAII (Michael W. Deem and Ramdas Pophale) SiO2 
 PCOD9487098
Probable space group: C M M M
;
_chemical_formula_sum "Si O2"
_cell_formula_units_Z 84
_cell_length_a 29.864768
_cell_length_b 14.349843
_cell_length_c 11.964769
_cell_angle_alpha 90.000000
_cell_angle_beta 90.000000
_cell_angle_gamma 90.000000
_cell_volume 5127.558373
_symmetry_space_group_name_H-M "C M M M"
_symmetry_group_IT_number 65
_symmetry_cell_setting 'orthorhombic'
loop_
_space_group_symop_operation_xyz
x,y,z
-x,-y,z
x,-y,-z
-x,y,-z
-x,-y,-z
x,y,-z
-x,y,z
x,-y,z
1/2+x,1/2+y,z
1/2-x,1/2-y,z
1/2+x,1/2-y,-z
1/2-x,1/2+y,-z
1/2-x,1/2-y,-z
1/2+x,1/2+y,-z
1/2-x,1/2+y,z
1/2+x,1/2-y,z
loop_
_atom_site_type_symbol
_atom_site_label
_atom_site_fract_x
_atom_site_fract_y
_atom_site_fract_z
Si Si1 0.188025 0.000000 0.500000
Si Si2 0.552104 0.891844 0.274309
Si Si3 0.681425 0.000000 0.125484
Si Si4 0.796180 0.797270 0.247998
Si Si5 0.229899 0.000000 0.260522
Si Si6 0.110174 0.606823 0.500000
Si Si7 0.125353 0.689758 0.128960
Si Si8 0.825230 0.789098 0.500000
O O1 0.220447 0.000000 0.607252
O O2 0.160828 0.900984 0.500000
O O3 0.500000 0.868527 0.289215
O O4 0.579095 0.887764 0.390525
O O5 0.578094 0.825529 0.188873
O O6 0.554321 0.000000 0.235448
O O7 0.650500 0.090133 0.134729
O O8 0.718890 0.000000 0.220829
O O9 0.702077 0.000000 0.000000
O O10 0.750000 0.750000 0.208106
O O11 0.792176 0.905437 0.219064
O O12 0.840780 0.756474 0.194127
O O13 0.799477 0.782400 0.382051
O O14 0.130678 0.500000 0.500000
O O15 0.141899 0.698550 0.500000
O O16 0.120661 0.716530 0.000000
#
# Coordination Sequence:
#
# PCOD9487098 Si02
#       8
#     4  16   8  16   8   8  16   8
#     4   8  20  34  54  76 107 138 185 228 254 320
#     4  10  20  35  55  81 112 142 173 215 272 331
#     4  10  20  34  51  70 103 142 185 222 252 301
#     4  11  21  35  54  76 108 140 181 221 265 316
#     4  10  20  36  52  77 104 143 178 222 268 308
#     4  10  19  33  57  85 110 138 176 219 273 334
#     4  11  22  35  52  77 106 144 187 222 257 309
#     4  10  19  35  53  78 107 143 177 219 273 321
#
# _framework density 16.382065000000001
#
# number of rings (size 3 to 8) (size 9 to 14) (size 15 to 20)
#    0.000    1.714    4.762    0.571    0.000    2.667 
#    1.714    1.905    0.000    0.000    0.000    3.333 
#    0.000    1.524    0.000    0.000    0.000    0.000 
#
# Total GULP energy -234002.708955 kJ/mol
# GULP energy per Si atom -5571.493070 kJ/mol
# Density = 1.634478 g / cm^3
# Si number density = 16.382065 Si / 1000 Ang^3
#
#
#
# Elastic Constant Matrix: (Units=GPa)
#
#
# Indices 1 2 3 4 5 6 
#
# 1 72.5230 48.0284 13.3622 0.0000 0.0000 0.0000
# 2 48.0284 107.0398 24.2128 0.0000 0.0000 0.0000
# 3 13.3622 24.2128 49.8234 0.0000 0.0000 0.0000
# 4 0.0000 0.0000 0.0000 -8.4668 0.0000 0.0000
# 5 0.0000 0.0000 0.0000 0.0000 1.9786 0.0000
# 6 0.0000 0.0000 0.0000 0.0000 0.0000 10.8129
#
#
#
# Elastic Compliance Matrix: (Units=1/GPa)
#
#
# Indices 1 2 3 4 5 6 
#
# 1 0.019673 -0.008576 -0.001108 0.000000 0.000000 0.000000
# 2 -0.008576 0.014235 -0.004618 0.000000 0.000000 0.000000
# 3 -0.001108 -0.004618 0.022612 0.000000 0.000000 0.000000
# 4 0.000000 0.000000 0.000000 -0.118108 0.000000 0.000000
# 5 0.000000 0.000000 0.000000 0.000000 0.505405 0.000000
# 6 0.000000 0.000000 0.000000 0.000000 0.000000 0.092482
#
#
# Mechanical properties :
#
#
# Convention : Reuss Voigt Hill
#
# Bulk Modulus (GPa) = 35.82260 44.51034 40.16647
# Shear Modulus (GPa) = 8.70764 10.45046 9.57905
#
# Velocity S-wave (km/s) = 2.30801 2.52845 2.42074
# Velocity P-wave (km/s) = 5.38674 5.97940 5.69079
#
# Compressibility (1/GPa) = 0.02791534
#
# Stress axis : x y z
#
# Youngs Moduli (GPa) = 50.83213 70.24916 44.22397
#
# Poissons Ratio (x) = 0.60248 0.04901
# Poissons Ratio (y) = 0.43595 0.20421
# Poissons Ratio (z) = 0.05633 0.32439
#
# Static dielectric constant tensor:
#      x y z
#    x 1.520810 0.000000 0.000000 
#    y 0.000000 1.569750 0.000000 
#    z 0.000000 0.000000 1.571350 
# 
# From -- ./inp_files/33869.got.cif
#   From: 2010.05.17/outbox.cif.g08.bks.cpg/sg65_17_cif.got.tgz:33869.got - 2010.06.03 17:01:31.
