data_PCOD9487517
_publ_section_title
;
Structure prediction by ZEFSAII (Michael W. Deem and Ramdas Pophale) SiO2 
 PCOD9487517
Probable space group: C M M M
;
_chemical_formula_sum "Si O2"
_cell_formula_units_Z 88
_cell_length_a 8.701530
_cell_length_b 15.420776
_cell_length_c 33.661073
_cell_angle_alpha 90.000000
_cell_angle_beta 90.000000
_cell_angle_gamma 90.000000
_cell_volume 4516.789032
_symmetry_space_group_name_H-M "C M M M"
_symmetry_group_IT_number 65
_symmetry_cell_setting 'orthorhombic'
loop_
_space_group_symop_operation_xyz
x,y,z
-x,-y,z
x,-y,-z
-x,y,-z
-x,-y,-z
x,y,-z
-x,y,z
x,-y,z
1/2+x,1/2+y,z
1/2-x,1/2-y,z
1/2+x,1/2-y,-z
1/2-x,1/2+y,-z
1/2-x,1/2-y,-z
1/2+x,1/2+y,-z
1/2-x,1/2+y,z
1/2+x,1/2-y,z
loop_
_atom_site_type_symbol
_atom_site_label
_atom_site_fract_x
_atom_site_fract_y
_atom_site_fract_z
Si Si1 0.184642 0.347543 0.625942
Si Si2 0.682878 0.654354 0.082267
Si Si3 0.813234 0.500000 0.315613
Si Si4 0.167338 0.601384 0.000000
Si Si5 0.814837 0.848203 0.169949
Si Si6 0.815357 0.848182 0.543335
Si Si7 0.814867 0.500000 0.776057
O O1 0.250000 0.250000 0.631129
O O2 0.234013 0.413789 0.660405
O O3 0.243045 0.384480 0.583550
O O4 0.000000 0.342171 0.624997
O O5 0.500000 0.654124 0.079860
O O6 0.750000 0.750000 0.084817
O O7 0.724909 0.616022 0.125467
O O8 0.747111 0.619922 0.040973
O O9 0.764412 0.500000 0.269939
O O10 0.000000 0.500000 0.315898
O O11 0.146563 0.500000 0.000000
O O12 0.000000 0.646794 0.000000
O O13 0.750000 0.750000 0.174225
O O14 0.747667 0.914663 0.201768
O O15 0.000000 0.844500 0.172727
O O16 0.778198 0.887692 0.500000
O O17 0.750000 0.750000 0.542156
O O18 0.000000 0.846046 0.547058
O O19 0.000000 0.500000 0.777615
#
# Coordination Sequence:
#
# PCOD9487517 Si02
#       7
#    16  16   8   8  16  16   8
#     4  10  19  35  57  80 110 147 188 232 278 333
#     4  10  21  38  60  82 112 150 188 232 280 333
#     4   9  22  41  58  82 114 149 188 230 284 348
#     4  11  24  37  52  81 117 153 194 233 272 329
#     4  10  22  41  64  93 122 154 197 243 294 354
#     4   9  16  27  46  75 109 144 184 228 275 328
#     4  11  23  41  65  89 119 155 190 242 303 356
#
# _framework density 19.482866999999999
#
# number of rings (size 3 to 8) (size 9 to 14) (size 15 to 20)
#    0.000    2.091    0.000    4.091    1.273    4.727 
#    0.000    7.727    0.000    2.727    0.000    0.000 
#    0.000    0.000    0.000    0.000    0.000    0.000 
#
# Total GULP energy -245367.262816 kJ/mol
# GULP energy per Si atom -5576.528700 kJ/mol
# Density = 1.943852 g / cm^3
# Si number density = 19.482867 Si / 1000 Ang^3
#
#
#
# Elastic Constant Matrix: (Units=GPa)
#
#
# Indices 1 2 3 4 5 6 
#
# 1 79.0177 31.7949 67.2909 0.0000 0.0000 0.0000
# 2 31.7949 90.9795 85.8436 0.0000 0.0000 0.0000
# 3 67.2909 85.8436 230.3087 0.0000 0.0000 0.0000
# 4 0.0000 0.0000 0.0000 86.5868 0.0000 0.0000
# 5 0.0000 0.0000 0.0000 0.0000 31.4472 0.0000
# 6 0.0000 0.0000 0.0000 0.0000 0.0000 20.4454
#
#
#
# Elastic Compliance Matrix: (Units=1/GPa)
#
#
# Indices 1 2 3 4 5 6 
#
# 1 0.017067 -0.001943 -0.004263 0.000000 0.000000 0.000000
# 2 -0.001943 0.017175 -0.005834 0.000000 0.000000 0.000000
# 3 -0.004263 -0.005834 0.007762 0.000000 0.000000 0.000000
# 4 0.000000 0.000000 0.000000 0.011549 0.000000 0.000000
# 5 0.000000 0.000000 0.000000 0.000000 0.031799 0.000000
# 6 0.000000 0.000000 0.000000 0.000000 0.000000 0.048911
#
#
# Mechanical properties :
#
#
# Convention : Reuss Voigt Hill
#
# Bulk Modulus (GPa) = 55.78602 85.57384 70.67993
# Shear Modulus (GPa) = 30.42897 42.05432 36.24165
#
# Velocity S-wave (km/s) = 3.95629 4.65104 4.31766
# Velocity P-wave (km/s) = 7.04025 8.53586 7.82387
#
# Compressibility (1/GPa) = 0.01792564
#
# Stress axis : x y z
#
# Youngs Moduli (GPa) = 58.59271 58.22348 128.83275
#
# Poissons Ratio (x) = 0.11310 0.54915
# Poissons Ratio (y) = 0.11382 0.75163
# Poissons Ratio (z) = 0.24975 0.33969
#
# Static dielectric constant tensor:
#      x y z
#    x 1.521280 0.000000 0.000000 
#    y 0.000000 1.678790 0.000000 
#    z 0.000000 0.000000 1.774650 
# 
# From -- ./inp_files/76715.got.cif
#   From: 2010.05.17/outbox.cif.g08.bks.cpg/sg65_39_cif.got.tgz:76715.got - 2010.06.03 17:01:31.
