data_PCOD9487059
_publ_section_title
;
Structure prediction by ZEFSAII (Michael W. Deem and Ramdas Pophale) SiO2 
 PCOD9487059
Probable space group: C M M M
;
_chemical_formula_sum "Si O2"
_cell_formula_units_Z 52
_cell_length_a 18.684844
_cell_length_b 5.340646
_cell_length_c 24.749009
_cell_angle_alpha 90.000000
_cell_angle_beta 90.000000
_cell_angle_gamma 90.000000
_cell_volume 2469.682259
_symmetry_space_group_name_H-M "C M M M"
_symmetry_group_IT_number 65
_symmetry_cell_setting 'orthorhombic'
loop_
_space_group_symop_operation_xyz
x,y,z
-x,-y,z
x,-y,-z
-x,y,-z
-x,-y,-z
x,y,-z
-x,y,z
x,-y,z
1/2+x,1/2+y,z
1/2-x,1/2-y,z
1/2+x,1/2-y,-z
1/2-x,1/2+y,-z
1/2-x,1/2-y,-z
1/2+x,1/2+y,-z
1/2-x,1/2+y,z
1/2+x,1/2-y,z
loop_
_atom_site_type_symbol
_atom_site_label
_atom_site_fract_x
_atom_site_fract_y
_atom_site_fract_z
Si Si1 0.700867 0.500000 0.500000
Si Si2 0.922238 0.500000 0.664545
Si Si3 0.079998 0.000000 0.408648
Si Si4 0.290729 0.500000 0.795333
Si Si5 0.267724 0.000000 0.678038
Si Si6 0.586834 0.000000 0.938310
Si Si7 0.585653 0.500000 0.127232
O O1 0.750000 0.750000 0.500000
O O2 0.645474 0.500000 0.449694
O O3 0.917739 0.250483 0.628002
O O4 0.849306 0.500000 0.698237
O O5 0.000000 0.500000 0.692332
O O6 0.000000 0.000000 0.434229
O O7 0.250000 0.750000 0.814043
O O8 0.283339 0.500000 0.730314
O O9 0.370572 0.500000 0.817355
O O10 0.250000 0.750000 0.646336
O O11 0.606208 0.252089 0.906473
O O12 0.500000 0.000000 0.940792
O O13 0.613328 0.000000 0.000000
O O14 0.500000 0.500000 0.135201
#
# Coordination Sequence:
#
# PCOD9487059 Si02
#       7
#     4   8   8   8   8   8   8
#     4  12  25  38  57  90 122 154 198 238 273 328
#     4  10  21  38  61  86 111 148 196 237 280 337
#     4  10  22  40  60  83 117 156 190 234 287 333
#     4  10  21  38  55  77 109 148 183 223 283 339
#     4  10  21  37  57  82 111 145 183 229 290 339
#     4   9  17  30  52  83 112 139 180 234 281 318
#     4  10  19  33  56  81 107 144 188 229 269 329
#
# _framework density 21.055339
#
# number of rings (size 3 to 8) (size 9 to 14) (size 15 to 20)
#    0.000    2.000    0.000    3.462    0.000    5.538 
#    0.000    9.231    0.000    9.231    0.000    0.000 
#    0.000    0.000    0.000    0.000    0.000    0.000 
#
# Total GULP energy -145115.525310 kJ/mol
# GULP energy per Si atom -5581.366358 kJ/mol
# Density = 2.100742 g / cm^3
# Si number density = 21.055339 Si / 1000 Ang^3
#
#
#
# Elastic Constant Matrix: (Units=GPa)
#
#
# Indices 1 2 3 4 5 6 
#
# 1 119.2749 40.4802 35.2928 0.0000 0.0000 0.0000
# 2 40.4802 201.2050 23.2246 0.0000 0.0000 0.0000
# 3 35.2928 23.2246 57.8929 0.0000 0.0000 0.0000
# 4 0.0000 0.0000 0.0000 -756.7763 0.0000 0.0000
# 5 0.0000 0.0000 0.0000 0.0000 27.3421 0.0000
# 6 0.0000 0.0000 0.0000 0.0000 0.0000 25.9227
#
#
#
# Elastic Compliance Matrix: (Units=1/GPa)
#
#
# Indices 1 2 3 4 5 6 
#
# 1 0.010621 -0.001457 -0.005891 0.000000 0.000000 0.000000
# 2 -0.001457 0.005411 -0.001283 0.000000 0.000000 0.000000
# 3 -0.005891 -0.001283 0.021379 0.000000 0.000000 0.000000
# 4 0.000000 0.000000 0.000000 -0.001321 0.000000 0.000000
# 5 0.000000 0.000000 0.000000 0.000000 0.036574 0.000000
# 6 0.000000 0.000000 0.000000 0.000000 0.000000 0.038576
#
#
# Mechanical properties :
#
#
# Convention : Reuss Voigt Hill
#
# Bulk Modulus (GPa) = 49.62479 64.04089 56.83284
# Shear Modulus (GPa) = 36.97745 -122.07731 -42.54993
#
# Velocity S-wave (km/s) = 4.19525 -7.62267 -4.50028
# Velocity P-wave (km/s) = 6.86198 6.85507 0.21773
#
# Compressibility (1/GPa) = 0.02015122
#
# Stress axis : x y z
#
# Youngs Moduli (GPa) = 94.14885 184.80082 46.77516
#
# Poissons Ratio (x) = 0.26925 0.27553
# Poissons Ratio (y) = 0.13717 0.05999
# Poissons Ratio (z) = 0.55459 0.23702
#
# Static dielectric constant tensor:
#      x y z
#    x 1.781750 0.000000 0.000000 
#    y 0.000000 1.834740 0.000000 
#    z 0.000000 0.000000 1.737100 
# 
# From -- ./inp_files/77554.got.cif
#   From: 2010.05.17/outbox.cif.g08.bks.cpg/sg65_39_cif.got.tgz:77554.got - 2010.06.03 17:01:31.
