data_PCOD9487651
_publ_section_title
;
Structure prediction by ZEFSAII (Michael W. Deem and Ramdas Pophale) SiO2 
 PCOD9487651
Probable space group: C M M M
;
_chemical_formula_sum "Si O2"
_cell_formula_units_Z 82
_cell_length_a 21.471326
_cell_length_b 7.887987
_cell_length_c 27.891661
_cell_angle_alpha 90.000000
_cell_angle_beta 90.000000
_cell_angle_gamma 90.000000
_cell_volume 4723.886237
_symmetry_space_group_name_H-M "C M M M"
_symmetry_group_IT_number 65
_symmetry_cell_setting 'orthorhombic'
loop_
_space_group_symop_operation_xyz
x,y,z
-x,-y,z
x,-y,-z
-x,y,-z
-x,-y,-z
x,y,-z
-x,y,z
x,-y,z
1/2+x,1/2+y,z
1/2-x,1/2-y,z
1/2+x,1/2-y,-z
1/2-x,1/2+y,-z
1/2-x,1/2-y,-z
1/2+x,1/2+y,-z
1/2-x,1/2+y,z
1/2+x,1/2-y,z
loop_
_atom_site_type_symbol
_atom_site_label
_atom_site_fract_x
_atom_site_fract_y
_atom_site_fract_z
Si Si1 0.423843 0.500000 0.944672
Si Si2 0.924575 0.688521 0.120567
Si Si3 0.000000 0.000000 0.500000
Si Si4 0.903321 0.688141 0.500000
Si Si5 0.821518 0.796009 0.697381
Si Si6 0.571861 0.705730 0.229274
Si Si7 0.321329 0.296274 0.587786
O O1 0.500000 0.500000 0.944101
O O2 0.402886 0.665900 0.915501
O O3 0.404593 0.500000 0.000000
O O4 0.901861 0.500000 0.108952
O O5 0.911456 0.733442 0.175837
O O6 0.000000 0.687039 0.117271
O O7 0.947421 0.849714 0.500000
O O8 0.931137 0.500000 0.500000
O O9 0.862432 0.707806 0.547912
O O10 0.750000 0.750000 0.710019
O O11 0.875605 0.735421 0.733267
O O12 0.834217 0.740508 0.642631
O O13 0.824213 0.000000 0.697438
O O14 0.500000 0.758803 0.239973
O O15 0.571686 0.500000 0.228900
O O16 0.329618 0.500000 0.585010
O O17 0.250000 0.250000 0.578272
#
# Coordination Sequence:
#
# PCOD9487651 Si02
#       7
#     8  16   2   8  16  16  16
#     4   9  16  26  40  61  95 134 170 215 265 308
#     4   9  16  26  42  64  92 130 173 214 258 313
#     4  12  26  48  60  82 124 148 178 230 272 330
#     4  12  24  42  64  87 112 151 190 225 276 332
#     4   9  19  33  52  79 110 144 174 225 282 319
#     4   9  16  30  49  71  98 139 183 218 263 324
#     4  10  19  36  58  87 113 142 186 235 281 329
#
# _framework density 17.35859
#
# number of rings (size 3 to 8) (size 9 to 14) (size 15 to 20)
#    0.000    2.439    1.951    1.024    0.000    1.951 
#    1.756    1.951    0.000    0.000    0.000    0.000 
#    0.000    0.780    0.390    0.000    0.000    0.000 
#
# Total GULP energy -228240.369562 kJ/mol
# GULP energy per Si atom -5566.838282 kJ/mol
# Density = 1.731908 g / cm^3
# Si number density = 17.358590 Si / 1000 Ang^3
#
#
#
# Elastic Constant Matrix: (Units=GPa)
#
#
# Indices 1 2 3 4 5 6 
#
# 1 75.4913 40.6306 81.4181 0.0000 0.0000 0.0000
# 2 40.6306 106.3929 59.1897 0.0000 0.0000 0.0000
# 3 81.4181 59.1897 128.6814 0.0000 0.0000 0.0000
# 4 0.0000 0.0000 0.0000 -79.8268 0.0000 0.0000
# 5 0.0000 0.0000 0.0000 0.0000 -22.1875 0.0000
# 6 0.0000 0.0000 0.0000 0.0000 0.0000 56.2927
#
#
#
# Elastic Compliance Matrix: (Units=1/GPa)
#
#
# Indices 1 2 3 4 5 6 
#
# 1 0.041930 -0.001685 -0.025755 0.000000 0.000000 0.000000
# 2 -0.001685 0.012699 -0.004775 0.000000 0.000000 0.000000
# 3 -0.025755 -0.004775 0.026263 0.000000 0.000000 0.000000
# 4 0.000000 0.000000 0.000000 -0.012527 0.000000 0.000000
# 5 0.000000 0.000000 0.000000 0.000000 -0.045070 0.000000
# 6 0.000000 0.000000 0.000000 0.000000 0.000000 0.017764
#
#
# Mechanical properties :
#
#
# Convention : Reuss Voigt Hill
#
# Bulk Modulus (GPa) = 60.74328 74.78250 67.76289
# Shear Modulus (GPa) = 45.05497 -0.52250 22.26623
#
# Velocity S-wave (km/s) = 5.10017 -0.54923 3.58540
# Velocity P-wave (km/s) = 8.35174 6.54005 7.50079
#
# Compressibility (1/GPa) = 0.01646273
#
# Stress axis : x y z
#
# Youngs Moduli (GPa) = 23.84933 78.74541 38.07647
#
# Poissons Ratio (x) = 0.13265 0.98065
# Poissons Ratio (y) = 0.04018 0.18183
# Poissons Ratio (z) = 0.61423 0.37604
#
# Static dielectric constant tensor:
#      x y z
#    x 1.561290 0.000000 0.000000 
#    y 0.000000 1.619450 0.000000 
#    z 0.000000 0.000000 1.584660 
# 
# From -- ./inp_files/70911.got.cif
#   From: 2010.05.17/outbox.cif.g08.bks.cpg/sg65_36_cif.got.tgz:70911.got - 2010.06.03 17:01:31.
