data_PCOD9487302
_publ_section_title
;
Structure prediction by ZEFSAII (Michael W. Deem and Ramdas Pophale) SiO2 
 PCOD9487302
Probable space group: C M M M
;
_chemical_formula_sum "Si O2"
_cell_formula_units_Z 72
_cell_length_a 27.687849
_cell_length_b 15.903223
_cell_length_c 7.931500
_cell_angle_alpha 90.000000
_cell_angle_beta 90.000000
_cell_angle_gamma 90.000000
_cell_volume 3492.445963
_symmetry_space_group_name_H-M "C M M M"
_symmetry_group_IT_number 65
_symmetry_cell_setting 'orthorhombic'
loop_
_space_group_symop_operation_xyz
x,y,z
-x,-y,z
x,-y,-z
-x,y,-z
-x,-y,-z
x,y,-z
-x,y,z
x,-y,z
1/2+x,1/2+y,z
1/2-x,1/2-y,z
1/2+x,1/2-y,-z
1/2-x,1/2+y,-z
1/2-x,1/2-y,-z
1/2+x,1/2+y,-z
1/2-x,1/2+y,z
1/2+x,1/2-y,z
loop_
_atom_site_type_symbol
_atom_site_label
_atom_site_fract_x
_atom_site_fract_y
_atom_site_fract_z
Si Si1 0.784500 0.500000 0.795725
Si Si2 0.055220 0.000000 0.701749
Si Si3 0.775090 0.163204 0.793629
Si Si4 0.614421 0.334294 0.202818
Si Si5 0.103556 0.500000 0.301480
Si Si6 0.945286 0.325759 0.798166
O O1 0.756033 0.416934 0.738757
O O2 0.839779 0.500000 0.740152
O O3 0.784393 0.500000 0.000000
O O4 0.083663 0.083023 0.757922
O O5 0.053595 0.000000 0.500000
O O6 0.000000 0.000000 0.766219
O O7 0.750000 0.250000 0.741645
O O8 0.830510 0.158772 0.735596
O O9 0.775365 0.162105 0.000000
O O10 0.587329 0.250966 0.267994
O O11 0.617473 0.327023 0.000000
O O12 0.096881 0.500000 0.500000
O O13 0.078873 0.415650 0.232767
O O14 0.000000 0.322949 0.730924
O O15 0.948130 0.314818 0.000000
#
# Coordination Sequence:
#
# PCOD9487302 Si02
#       6
#     8   8  16  16   8  16
#     4  10  19  34  56  79 108 146 184 226 274 325
#     4  11  24  39  55  80 118 159 190 223 276 336
#     4   9  17  31  55  85 111 137 176 228 282 330
#     4  10  20  37  63  90 112 141 187 237 280 328
#     4  12  25  38  55  81 114 153 192 231 278 333
#     4  10  21  38  61  87 113 144 185 234 285 334
#
# _framework density 20.615922000000001
#
# number of rings (size 3 to 8) (size 9 to 14) (size 15 to 20)
#    0.000    1.889    0.000    4.333    0.000    9.778 
#    0.000    2.222    0.000    2.667    0.000    0.000 
#    0.000    0.000    0.000    0.000    0.000    0.000 
#
# Total GULP energy -201231.234146 kJ/mol
# GULP energy per Si atom -5589.756504 kJ/mol
# Density = 2.056900 g / cm^3
# Si number density = 20.615922 Si / 1000 Ang^3
#
#
#
# Elastic Constant Matrix: (Units=GPa)
#
#
# Indices 1 2 3 4 5 6 
#
# 1 133.4551 26.0134 -11.2870 0.0000 0.0000 0.0000
# 2 26.0134 111.4668 -20.3217 0.0000 0.0000 0.0000
# 3 -11.2870 -20.3217 12.9720 0.0000 0.0000 0.0000
# 4 0.0000 0.0000 0.0000 108.3731 0.0000 0.0000
# 5 0.0000 0.0000 0.0000 0.0000 1.3445 0.0000
# 6 0.0000 0.0000 0.0000 0.0000 0.0000 57.9937
#
#
#
# Elastic Compliance Matrix: (Units=1/GPa)
#
#
# Indices 1 2 3 4 5 6 
#
# 1 0.008146 -0.000852 0.005753 0.000000 0.000000 0.000000
# 2 -0.000852 0.012647 0.019071 0.000000 0.000000 0.000000
# 3 0.005753 0.019071 0.111970 0.000000 0.000000 0.000000
# 4 0.000000 0.000000 0.000000 0.009227 0.000000 0.000000
# 5 0.000000 0.000000 0.000000 0.000000 0.743766 0.000000
# 6 0.000000 0.000000 0.000000 0.000000 0.000000 0.017243
#
#
# Mechanical properties :
#
#
# Convention : Reuss Voigt Hill
#
# Bulk Modulus (GPa) = 5.53386 27.41151 16.47268
# Shear Modulus (GPa) = 5.46274 51.10820 28.28547
#
# Velocity S-wave (km/s) = 1.62958 4.98442 3.70810
# Velocity P-wave (km/s) = 2.49615 6.81550 5.13234
#
# Compressibility (1/GPa) = 0.18070577
#
# Stress axis : x y z
#
# Youngs Moduli (GPa) = 122.76260 79.06991 8.93093
#
# Poissons Ratio (x) = 0.06739 -0.05138
# Poissons Ratio (y) = 0.10463 -0.17032
# Poissons Ratio (z) = -0.70620 -1.50794
#
# Static dielectric constant tensor:
#      x y z
#    x 1.714190 0.000000 0.000000 
#    y 0.000000 1.700750 0.000000 
#    z 0.000000 0.000000 1.739550 
# 
# From -- ./inp_files/7422.got.cif
#   From: 2010.05.17/outbox.cif.g08.bks.cpg/sg65_4_cif.got.tgz:7422.got - 2010.06.03 17:01:31.
