data_PCOD9487277
_publ_section_title
;
Structure prediction by ZEFSAII (Michael W. Deem and Ramdas Pophale) SiO2 
 PCOD9487277
Probable space group: C M M M
;
_chemical_formula_sum "Si O2"
_cell_formula_units_Z 104
_cell_length_a 15.994039
_cell_length_b 20.889184
_cell_length_c 18.004210
_cell_angle_alpha 90.000000
_cell_angle_beta 90.000000
_cell_angle_gamma 90.000000
_cell_volume 6015.250196
_symmetry_space_group_name_H-M "C M M M"
_symmetry_group_IT_number 65
_symmetry_cell_setting 'orthorhombic'
loop_
_space_group_symop_operation_xyz
x,y,z
-x,-y,z
x,-y,-z
-x,y,-z
-x,-y,-z
x,y,-z
-x,y,z
x,-y,z
1/2+x,1/2+y,z
1/2-x,1/2-y,z
1/2+x,1/2-y,-z
1/2-x,1/2+y,-z
1/2-x,1/2-y,-z
1/2+x,1/2+y,-z
1/2-x,1/2+y,z
1/2+x,1/2-y,z
loop_
_atom_site_type_symbol
_atom_site_label
_atom_site_fract_x
_atom_site_fract_y
_atom_site_fract_z
Si Si1 0.500000 0.194078 0.912782
Si Si2 0.909502 0.074535 0.631847
Si Si3 0.399281 0.500000 0.087109
Si Si4 0.728030 0.077240 0.415544
Si Si5 0.837301 0.625045 0.734030
Si Si6 0.344589 0.749140 0.825628
Si Si7 0.500000 0.926570 0.185876
Si Si8 0.154975 0.898273 0.207035
O O1 0.583070 0.226818 0.879789
O O2 0.500000 0.121528 0.883304
O O3 0.500000 0.197994 0.000000
O O4 0.824387 0.099802 0.595522
O O5 0.894879 0.077763 0.720626
O O6 0.000000 0.103586 0.613182
O O7 0.912734 0.000000 0.610083
O O8 0.500000 0.500000 0.089119
O O9 0.367217 0.561031 0.134337
O O10 0.373853 0.500000 0.000000
O O11 0.701753 0.088310 0.500000
O O12 0.674305 0.112144 0.352870
O O13 0.725767 0.000000 0.401710
O O14 0.842588 0.699602 0.757981
O O15 0.918324 0.590283 0.765991
O O16 0.753344 0.597220 0.772763
O O17 0.250000 0.750000 0.857685
O O18 0.363397 0.676762 0.802611
O O19 0.500000 0.000000 0.164023
#
# Coordination Sequence:
#
# PCOD9487277 Si02
#       8
#     8  16   8  16  16  16   8  16
#     4  10  22  37  54  80 107 134 173 222 275 323
#     4   9  16  26  45  73 104 144 180 215 248 303
#     4  11  24  36  50  83 120 146 175 217 274 328
#     4   9  17  29  49  80 114 143 169 212 273 324
#     4   9  19  36  57  79 105 139 185 228 263 317
#     4   9  20  37  57  78 102 141 188 222 262 319
#     4  10  20  35  59  78  99 134 181 227 274 312
#     4  10  19  34  56  75 109 142 183 221 261 320
#
# _framework density 17.289390000000001
#
# number of rings (size 3 to 8) (size 9 to 14) (size 15 to 20)
#    0.000    2.538    0.769    0.923    4.308    1.385 
#    0.000    8.077    0.000   12.923    0.000    0.000 
#    0.000    0.000    0.000    0.000    0.000    0.000 
#
# Total GULP energy -289815.475358 kJ/mol
# GULP energy per Si atom -5573.374526 kJ/mol
# Density = 1.725004 g / cm^3
# Si number density = 17.289390 Si / 1000 Ang^3
#
#
#
# Elastic Constant Matrix: (Units=GPa)
#
#
# Indices 1 2 3 4 5 6 
#
# 1 80.4145 35.5220 36.0819 0.0000 0.0000 0.0000
# 2 35.5220 77.2563 37.0002 0.0000 0.0000 0.0000
# 3 36.0819 37.0002 123.8848 0.0000 0.0000 0.0000
# 4 0.0000 0.0000 0.0000 9.2929 0.0000 0.0000
# 5 0.0000 0.0000 0.0000 0.0000 12.3043 0.0000
# 6 0.0000 0.0000 0.0000 0.0000 0.0000 16.9242
#
#
#
# Elastic Compliance Matrix: (Units=1/GPa)
#
#
# Indices 1 2 3 4 5 6 
#
# 1 0.016486 -0.006162 -0.002961 0.000000 0.000000 0.000000
# 2 -0.006162 0.017408 -0.003404 0.000000 0.000000 0.000000
# 3 -0.002961 -0.003404 0.009951 0.000000 0.000000 0.000000
# 4 0.000000 0.000000 0.000000 0.107609 0.000000 0.000000
# 5 0.000000 0.000000 0.000000 0.000000 0.081272 0.000000
# 6 0.000000 0.000000 0.000000 0.000000 0.000000 0.059087
#
#
# Mechanical properties :
#
#
# Convention : Reuss Voigt Hill
#
# Bulk Modulus (GPa) = 53.22035 55.41818 54.31926
# Shear Modulus (GPa) = 15.47353 19.23438 17.35396
#
# Velocity S-wave (km/s) = 2.99486 3.33903 3.17161
# Velocity P-wave (km/s) = 6.54277 6.85481 6.70060
#
# Compressibility (1/GPa) = 0.01878981
#
# Stress axis : x y z
#
# Youngs Moduli (GPa) = 60.65642 57.44608 100.48974
#
# Poissons Ratio (x) = 0.35399 0.29758
# Poissons Ratio (y) = 0.37377 0.34210
# Poissons Ratio (z) = 0.17962 0.19557
#
# Static dielectric constant tensor:
#      x y z
#    x 1.882870 0.000000 0.000000 
#    y 0.000000 1.585160 0.000000 
#    z 0.000000 0.000000 1.566390 
# 
# From -- ./inp_files/53378.got.cif
#   From: 2010.05.17/outbox.cif.g08.bks.cpg/sg65_27_cif.got.tgz:53378.got - 2010.06.03 17:01:31.
