data_PCOD9487533
_publ_section_title
;
Structure prediction by ZEFSAII (Michael W. Deem and Ramdas Pophale) SiO2 
 PCOD9487533
Probable space group: C M M M
;
_chemical_formula_sum "Si O2"
_cell_formula_units_Z 92
_cell_length_a 24.725526
_cell_length_b 7.700984
_cell_length_c 25.148783
_cell_angle_alpha 90.000000
_cell_angle_beta 90.000000
_cell_angle_gamma 90.000000
_cell_volume 4788.601905
_symmetry_space_group_name_H-M "C M M M"
_symmetry_group_IT_number 65
_symmetry_cell_setting 'orthorhombic'
loop_
_space_group_symop_operation_xyz
x,y,z
-x,-y,z
x,-y,-z
-x,y,-z
-x,-y,-z
x,y,-z
-x,y,z
x,-y,z
1/2+x,1/2+y,z
1/2-x,1/2-y,z
1/2+x,1/2-y,-z
1/2-x,1/2+y,-z
1/2-x,1/2-y,-z
1/2+x,1/2+y,-z
1/2-x,1/2+y,z
1/2+x,1/2-y,z
loop_
_atom_site_type_symbol
_atom_site_label
_atom_site_fract_x
_atom_site_fract_y
_atom_site_fract_z
Si Si1 0.813882 0.791469 0.556995
Si Si2 0.000000 0.000000 0.723687
Si Si3 0.000000 0.212430 0.060421
Si Si4 0.186847 0.292830 0.940889
Si Si5 0.404287 0.298784 0.136567
Si Si6 0.586764 0.192352 0.256342
Si Si7 0.686375 0.708083 0.674171
O O1 0.836204 0.726174 0.500000
O O2 0.750000 0.750000 0.556252
O O3 0.831921 0.728485 0.615014
O O4 0.820325 0.000000 0.556993
O O5 0.952768 0.846365 0.725718
O O6 0.052066 0.267429 0.093976
O O7 0.000000 0.000000 0.058465
O O8 0.000000 0.274668 0.000000
O O9 0.180137 0.500000 0.939158
O O10 0.250000 0.250000 0.936161
O O11 0.152545 0.213214 0.893428
O O12 0.168866 0.231332 0.000000
O O13 0.417685 0.500000 0.147933
O O14 0.407519 0.204916 0.192538
O O15 0.645810 0.217657 0.282451
O O16 0.566837 0.000000 0.270434
O O17 0.681907 0.500000 0.675100
O O18 0.750000 0.750000 0.681593
#
# Coordination Sequence:
#
# PCOD9487533 Si02
#       7
#    16   4   8  16  16  16  16
#     4   8  14  25  46  78 119 165 204 246 304 369
#     4  12  24  48  64  88 120 158 216 260 304 372
#     4   9  19  34  57  86 112 141 175 220 287 354
#     4  10  21  37  56  81 112 150 195 238 287 354
#     4  11  21  37  61  85 117 148 188 239 296 359
#     4  12  25  42  65  91 121 163 211 262 316 370
#     4  10  19  35  57  89 132 168 210 260 315 379
#
# _framework density 19.212288000000001
#
# number of rings (size 3 to 8) (size 9 to 14) (size 15 to 20)
#    0.000    1.826    1.739    2.870    1.217    3.130 
#    0.000    4.783    0.000    3.130    0.000    1.217 
#    0.000    1.391    0.000    0.000    0.000    0.000 
#
# Total GULP energy -256126.994098 kJ/mol
# GULP energy per Si atom -5567.978133 kJ/mol
# Density = 1.916856 g / cm^3
# Si number density = 19.212288 Si / 1000 Ang^3
#
#
#
# Elastic Constant Matrix: (Units=GPa)
#
#
# Indices 1 2 3 4 5 6 
#
# 1 78.5479 20.7732 44.3831 0.0000 0.0000 0.0000
# 2 20.7732 104.3250 20.6828 0.0000 0.0000 0.0000
# 3 44.3831 20.6828 111.3335 0.0000 0.0000 0.0000
# 4 0.0000 0.0000 0.0000 6.1794 0.0000 0.0000
# 5 0.0000 0.0000 0.0000 0.0000 11.5283 0.0000
# 6 0.0000 0.0000 0.0000 0.0000 0.0000 19.8366
#
#
#
# Elastic Compliance Matrix: (Units=1/GPa)
#
#
# Indices 1 2 3 4 5 6 
#
# 1 0.016866 -0.002103 -0.006333 0.000000 0.000000 0.000000
# 2 -0.002103 0.010214 -0.001059 0.000000 0.000000 0.000000
# 3 -0.006333 -0.001059 0.011703 0.000000 0.000000 0.000000
# 4 0.000000 0.000000 0.000000 0.161828 0.000000 0.000000
# 5 0.000000 0.000000 0.000000 0.000000 0.086743 0.000000
# 6 0.000000 0.000000 0.000000 0.000000 0.000000 0.050412
#
#
# Mechanical properties :
#
#
# Convention : Reuss Voigt Hill
#
# Bulk Modulus (GPa) = 50.52189 51.76495 51.14342
# Shear Modulus (GPa) = 13.76073 21.40002 17.58038
#
# Velocity S-wave (km/s) = 2.67918 3.34109 3.02828
# Velocity P-wave (km/s) = 5.99370 6.47194 6.23741
#
# Compressibility (1/GPa) = 0.01979340
#
# Stress axis : x y z
#
# Youngs Moduli (GPa) = 59.29262 97.90360 85.44547
#
# Poissons Ratio (x) = 0.20587 0.54111
# Poissons Ratio (y) = 0.12468 0.09051
# Poissons Ratio (z) = 0.37549 0.10370
#
# Static dielectric constant tensor:
#      x y z
#    x 1.637560 0.000000 0.000000 
#    y 0.000000 1.700260 0.000000 
#    z 0.000000 0.000000 1.708620 
# 
# From -- ./inp_files/71420.got.cif
#   From: 2010.05.17/outbox.cif.g08.bks.cpg/sg65_36_cif.got.tgz:71420.got - 2010.06.03 17:01:31.
