data_PCOD9487221
_publ_section_title
;
Structure prediction by ZEFSAII (Michael W. Deem and Ramdas Pophale) SiO2 
 PCOD9487221
Probable space group: C M M M
;
_chemical_formula_sum "Si O2"
_cell_formula_units_Z 104
_cell_length_a 9.049842
_cell_length_b 28.572131
_cell_length_c 21.296642
_cell_angle_alpha 90.000000
_cell_angle_beta 90.000000
_cell_angle_gamma 90.000000
_cell_volume 5506.742387
_symmetry_space_group_name_H-M "C M M M"
_symmetry_group_IT_number 65
_symmetry_cell_setting 'orthorhombic'
loop_
_space_group_symop_operation_xyz
x,y,z
-x,-y,z
x,-y,-z
-x,y,-z
-x,-y,-z
x,y,-z
-x,y,z
x,-y,z
1/2+x,1/2+y,z
1/2-x,1/2-y,z
1/2+x,1/2-y,-z
1/2-x,1/2+y,-z
1/2-x,1/2-y,-z
1/2+x,1/2+y,-z
1/2-x,1/2+y,z
1/2+x,1/2-y,z
loop_
_atom_site_type_symbol
_atom_site_label
_atom_site_fract_x
_atom_site_fract_y
_atom_site_fract_z
Si Si1 0.677451 0.555186 0.253196
Si Si2 0.322092 0.875712 0.834636
Si Si3 0.831535 0.296947 0.399452
Si Si4 0.336919 0.206117 0.750744
Si Si5 0.173597 0.800666 0.924821
Si Si6 0.177364 0.895949 0.614264
Si Si7 0.332672 0.944696 0.500000
O O1 0.500000 0.560114 0.247226
O O2 0.711299 0.500000 0.261158
O O3 0.752941 0.575892 0.190144
O O4 0.721308 0.583332 0.317188
O O5 0.500000 0.880221 0.841088
O O6 0.278651 0.842254 0.775816
O O7 0.254255 0.844769 0.891242
O O8 0.750000 0.250000 0.423045
O O9 0.841501 0.291804 0.323882
O O10 0.739975 0.344719 0.404565
O O11 0.000000 0.300717 0.423130
O O12 0.500000 0.210095 0.776615
O O13 0.250000 0.250000 0.774387
O O14 0.250000 0.750000 0.912248
O O15 0.000000 0.799288 0.906363
O O16 0.181112 0.807239 0.000000
O O17 0.244759 0.928998 0.561348
O O18 0.000000 0.894544 0.612470
O O19 0.500000 0.924750 0.500000
O O20 0.343304 0.000000 0.500000
#
# Coordination Sequence:
#
# PCOD9487221 Si02
#       7
#    16  16  16  16  16  16   8
#     4  10  22  39  59  84 115 151 192 241 297 352
#     4  11  21  34  54  83 115 151 193 237 288 343
#     4  10  19  34  54  81 117 152 189 228 276 338
#     4   9  18  29  45  73 109 144 180 220 266 321
#     4  10  21  37  57  84 120 160 199 239 285 340
#     4  11  22  39  63  89 118 153 193 240 293 348
#     4  11  25  43  64  89 116 151 195 243 295 351
#
# _framework density 18.885940000000002
#
# number of rings (size 3 to 8) (size 9 to 14) (size 15 to 20)
#    0.000    1.769    1.538    3.000    0.000    6.154 
#    0.000    0.385    0.000    0.462    0.000    3.231 
#    0.000    0.000    0.000    0.000    0.000    0.000 
#
# Total GULP energy -289816.434198 kJ/mol
# GULP energy per Si atom -5573.392965 kJ/mol
# Density = 1.884295 g / cm^3
# Si number density = 18.885940 Si / 1000 Ang^3
#
#
#
# Elastic Constant Matrix: (Units=GPa)
#
#
# Indices 1 2 3 4 5 6 
#
# 1 75.8268 52.0281 38.3935 0.0000 0.0000 0.0000
# 2 52.0281 120.0981 36.2731 0.0000 0.0000 0.0000
# 3 38.3935 36.2731 87.4703 0.0000 0.0000 0.0000
# 4 0.0000 0.0000 0.0000 24.7227 0.0000 0.0000
# 5 0.0000 0.0000 0.0000 0.0000 55.3712 0.0000
# 6 0.0000 0.0000 0.0000 0.0000 0.0000 31.2215
#
#
#
# Elastic Compliance Matrix: (Units=1/GPa)
#
#
# Indices 1 2 3 4 5 6 
#
# 1 0.021475 -0.007381 -0.006365 0.000000 0.000000 0.000000
# 2 -0.007381 0.012055 -0.001760 0.000000 0.000000 0.000000
# 3 -0.006365 -0.001760 0.014956 0.000000 0.000000 0.000000
# 4 0.000000 0.000000 0.000000 0.040449 0.000000 0.000000
# 5 0.000000 0.000000 0.000000 0.000000 0.018060 0.000000
# 6 0.000000 0.000000 0.000000 0.000000 0.000000 0.032029
#
#
# Mechanical properties :
#
#
# Convention : Reuss Voigt Hill
#
# Bulk Modulus (GPa) = 57.22412 59.64274 58.43343
# Shear Modulus (GPa) = 28.43149 32.70980 30.57065
#
# Velocity S-wave (km/s) = 3.88420 4.16620 4.02767
# Velocity P-wave (km/s) = 7.10504 7.40217 7.25513
#
# Compressibility (1/GPa) = 0.01747515
#
# Stress axis : x y z
#
# Youngs Moduli (GPa) = 46.56515 82.95002 66.86226
#
# Poissons Ratio (x) = 0.61224 0.42561
# Poissons Ratio (y) = 0.34369 0.11765
# Poissons Ratio (z) = 0.29641 0.14596
#
# Static dielectric constant tensor:
#      x y z
#    x 1.606860 0.000000 0.000000 
#    y 0.000000 1.631370 0.000000 
#    z 0.000000 0.000000 1.678010 
# 
# From -- ./inp_files/60432.got.cif
#   From: 2010.05.17/outbox.cif.g08.bks.cpg/sg65_31_cif.got.tgz:60432.got - 2010.06.03 17:01:31.
