data_PCOD9487311
_publ_section_title
;
Structure prediction by ZEFSAII (Michael W. Deem and Ramdas Pophale) SiO2 
 PCOD9487311
Probable space group: C M M M
;
_chemical_formula_sum "Si O2"
_cell_formula_units_Z 104
_cell_length_a 26.139200
_cell_length_b 25.920996
_cell_length_c 9.172078
_cell_angle_alpha 90.000000
_cell_angle_beta 90.000000
_cell_angle_gamma 90.000000
_cell_volume 6214.579042
_symmetry_space_group_name_H-M "C M M M"
_symmetry_group_IT_number 65
_symmetry_cell_setting 'orthorhombic'
loop_
_space_group_symop_operation_xyz
x,y,z
-x,-y,z
x,-y,-z
-x,y,-z
-x,-y,-z
x,y,-z
-x,y,z
x,-y,z
1/2+x,1/2+y,z
1/2-x,1/2-y,z
1/2+x,1/2-y,-z
1/2-x,1/2+y,-z
1/2-x,1/2-y,-z
1/2+x,1/2+y,-z
1/2-x,1/2+y,z
1/2+x,1/2-y,z
loop_
_atom_site_type_symbol
_atom_site_label
_atom_site_fract_x
_atom_site_fract_y
_atom_site_fract_z
Si Si1 0.058343 0.937962 0.838046
Si Si2 0.719510 0.500000 0.324522
Si Si3 0.396016 0.898449 0.175467
Si Si4 0.300364 0.691569 0.175461
Si Si5 0.151510 0.097180 0.671456
Si Si6 0.000000 0.437804 0.323871
Si Si7 0.817086 0.308974 0.823250
Si Si8 0.827625 0.500000 0.828843
O O1 0.094401 0.918540 0.711930
O O2 0.000000 0.920600 0.823005
O O3 0.058420 0.000000 0.835553
O O4 0.077158 0.922211 0.000000
O O5 0.720656 0.500000 0.500000
O O6 0.688339 0.449350 0.277515
O O7 0.776134 0.500000 0.262709
O O8 0.449402 0.910352 0.256923
O O9 0.361676 0.848700 0.223776
O O10 0.360891 0.948967 0.199505
O O11 0.405327 0.894141 0.000000
O O12 0.335153 0.648496 0.243767
O O13 0.241609 0.678685 0.221079
O O14 0.319911 0.748624 0.218938
O O15 0.300683 0.690566 0.000000
O O16 0.158491 0.103884 0.500000
O O17 0.000000 0.500000 0.287593
O O18 0.000000 0.433881 0.500000
O O19 0.818090 0.311272 0.000000
O O20 0.814092 0.500000 0.000000
#
# Coordination Sequence:
#
# PCOD9487311 Si02
#       8
#    16   8  16  16  16   8  16   8
#     4   9  18  33  53  75  96 124 167 214 255 298
#     4  10  22  34  44  68 110 147 171 199 250 313
#     4  10  19  34  56  81 106 134 174 222 268 312
#     4   9  17  33  56  79 105 137 174 217 261 310
#     4  11  21  33  48  73 107 142 172 206 254 311
#     4  11  23  37  53  77 109 147 185 216 263 322
#     4   8  16  32  56  82 105 133 172 218 267 312
#     4  10  20  31  51  81 106 130 168 212 256 307
#
# _framework density 16.734842
#
# number of rings (size 3 to 8) (size 9 to 14) (size 15 to 20)
#    0.000    2.385    1.538    3.000    0.000    3.692 
#    0.000    3.846    1.692    0.000    0.000    0.000 
#    0.000    0.000    0.000    0.000    0.000    0.000 
#
# Total GULP energy -289693.922993 kJ/mol
# GULP energy per Si atom -5571.036981 kJ/mol
# Density = 1.669675 g / cm^3
# Si number density = 16.734842 Si / 1000 Ang^3
#
#
#
# Elastic Constant Matrix: (Units=GPa)
#
#
# Indices 1 2 3 4 5 6 
#
# 1 96.4182 55.2783 30.9242 0.0000 0.0000 0.0000
# 2 55.2783 91.7630 27.9284 0.0000 0.0000 0.0000
# 3 30.9242 27.9284 19.4935 0.0000 0.0000 0.0000
# 4 0.0000 0.0000 0.0000 5.6302 0.0000 0.0000
# 5 0.0000 0.0000 0.0000 0.0000 6.0307 0.0000
# 6 0.0000 0.0000 0.0000 0.0000 0.0000 16.1347
#
#
#
# Elastic Compliance Matrix: (Units=1/GPa)
#
#
# Indices 1 2 3 4 5 6 
#
# 1 0.022206 -0.004708 -0.028481 0.000000 0.000000 0.000000
# 2 -0.004708 0.020322 -0.021646 0.000000 0.000000 0.000000
# 3 -0.028481 -0.021646 0.127493 0.000000 0.000000 0.000000
# 4 0.000000 0.000000 0.000000 0.177613 0.000000 0.000000
# 5 0.000000 0.000000 0.000000 0.000000 0.165818 0.000000
# 6 0.000000 0.000000 0.000000 0.000000 0.000000 0.061978
#
#
# Mechanical properties :
#
#
# Convention : Reuss Voigt Hill
#
# Bulk Modulus (GPa) = 16.57001 48.43739 32.50370
# Shear Modulus (GPa) = 7.09001 11.79538 9.44270
#
# Velocity S-wave (km/s) = 2.06055 2.65776 2.37798
# Velocity P-wave (km/s) = 3.94768 6.19880 5.19660
#
# Compressibility (1/GPa) = 0.06035001
#
# Stress axis : x y z
#
# Youngs Moduli (GPa) = 45.03384 49.20748 7.84357
#
# Poissons Ratio (x) = 0.23169 0.22339
# Poissons Ratio (y) = 0.21204 0.16978
# Poissons Ratio (z) = 1.28259 1.06515
#
# Static dielectric constant tensor:
#      x y z
#    x 1.561010 0.000000 0.000000 
#    y 0.000000 1.565070 0.000000 
#    z 0.000000 0.000000 1.563540 
# 
# From -- ./inp_files/14849.got.cif
#   From: 2010.05.17/outbox.cif.g08.bks.cpg/sg65_8_cif.got.tgz:14849.got - 2010.06.03 17:01:31.
