data_PCOD9487457
_publ_section_title
;
Structure prediction by ZEFSAII (Michael W. Deem and Ramdas Pophale) SiO2 
 PCOD9487457
Probable space group: C M M M
;
_chemical_formula_sum "Si O2"
_cell_formula_units_Z 66
_cell_length_a 15.708691
_cell_length_b 25.964573
_cell_length_c 7.870759
_cell_angle_alpha 90.000000
_cell_angle_beta 90.000000
_cell_angle_gamma 90.000000
_cell_volume 3210.242178
_symmetry_space_group_name_H-M "C M M M"
_symmetry_group_IT_number 65
_symmetry_cell_setting 'orthorhombic'
loop_
_space_group_symop_operation_xyz
x,y,z
-x,-y,z
x,-y,-z
-x,y,-z
-x,-y,-z
x,y,-z
-x,y,z
x,-y,z
1/2+x,1/2+y,z
1/2-x,1/2-y,z
1/2+x,1/2-y,-z
1/2-x,1/2+y,-z
1/2-x,1/2-y,-z
1/2+x,1/2+y,-z
1/2-x,1/2+y,z
1/2+x,1/2-y,z
loop_
_atom_site_type_symbol
_atom_site_label
_atom_site_fract_x
_atom_site_fract_y
_atom_site_fract_z
Si Si1 0.658561 0.145320 0.196644
Si Si2 0.500000 0.000000 0.000000
Si Si3 0.847437 0.132972 0.294602
Si Si4 0.500000 0.559187 0.707987
Si Si5 0.500000 0.082338 0.687476
Si Si6 0.597666 0.746844 0.705361
O O1 0.751261 0.123345 0.238845
O O2 0.583575 0.118071 0.299018
O O3 0.655628 0.206287 0.234316
O O4 0.640180 0.137295 0.000000
O O5 0.500000 0.044347 0.152271
O O6 0.849416 0.133536 0.500000
O O7 0.916448 0.090957 0.237821
O O8 0.874562 0.190196 0.236343
O O9 0.500000 0.500000 0.764036
O O10 0.500000 0.559029 0.500000
O O11 0.500000 0.058126 0.500000
O O12 0.599752 0.746623 0.500000
O O13 0.500000 0.756514 0.758908
#
# Coordination Sequence:
#
# PCOD9487457 Si02
#       6
#    16   2  16   8   8  16
#     4  12  24  40  61  96 133 170 218 275 326 400
#     4  12  26  52  72 106 128 166 226 284 326 414
#     4  10  20  37  61  92 127 169 221 272 334 404
#     4   9  18  37  63  91 121 156 213 280 328 392
#     4  12  25  48  74  96 135 178 216 276 342 392
#     4  10  19  34  60  90 126 172 216 266 336 410
#
# _framework density 20.559197999999999
#
# number of rings (size 3 to 8) (size 9 to 14) (size 15 to 20)
#    0.000    1.333    3.636    3.091    0.000    3.879 
#    2.182    0.606    0.000    0.727    0.000    0.000 
#    0.000    0.000    0.000    0.000    0.000    0.000 
#
# Total GULP energy -184211.451229 kJ/mol
# GULP energy per Si atom -5582.165189 kJ/mol
# Density = 2.051240 g / cm^3
# Si number density = 20.559198 Si / 1000 Ang^3
#
#
#
# Elastic Constant Matrix: (Units=GPa)
#
#
# Indices 1 2 3 4 5 6 
#
# 1 157.0014 69.3574 20.1594 0.0000 0.0000 0.0000
# 2 69.3574 147.7565 32.9150 0.0000 0.0000 0.0000
# 3 20.1594 32.9150 86.2347 0.0000 0.0000 0.0000
# 4 0.0000 0.0000 0.0000 52.9583 0.0000 0.0000
# 5 0.0000 0.0000 0.0000 0.0000 -282.4113 0.0000
# 6 0.0000 0.0000 0.0000 0.0000 0.0000 9.3264
#
#
#
# Elastic Compliance Matrix: (Units=1/GPa)
#
#
# Indices 1 2 3 4 5 6 
#
# 1 0.008054 -0.003673 -0.000481 0.000000 0.000000 0.000000
# 2 -0.003673 0.009072 -0.002604 0.000000 0.000000 0.000000
# 3 -0.000481 -0.002604 0.012703 0.000000 0.000000 0.000000
# 4 0.000000 0.000000 0.000000 0.018883 0.000000 0.000000
# 5 0.000000 0.000000 0.000000 0.000000 -0.003541 0.000000
# 6 0.000000 0.000000 0.000000 0.000000 0.000000 0.107223
#
#
# Mechanical properties :
#
#
# Convention : Reuss Voigt Hill
#
# Bulk Modulus (GPa) = 61.30299 70.65069 65.97684
# Shear Modulus (GPa) = 29.18049 -26.12127 1.52961
#
# Velocity S-wave (km/s) = 3.77150 -3.56833 0.86349
# Velocity P-wave (km/s) = 6.98914 4.17873 5.75804
#
# Compressibility (1/GPa) = 0.01631242
#
# Stress axis : x y z
#
# Youngs Moduli (GPa) = 124.16380 110.22544 78.72421
#
# Poissons Ratio (x) = 0.40491 0.03784
# Poissons Ratio (y) = 0.45611 0.20500
# Poissons Ratio (z) = 0.05968 0.28703
#
# Static dielectric constant tensor:
#      x y z
#    x 1.721450 0.000000 0.000000 
#    y 0.000000 1.709750 0.000000 
#    z 0.000000 0.000000 1.737880 
# 
# From -- ./inp_files/7125.got.cif
#   From: 2010.05.17/outbox.cif.g08.bks.cpg/sg65_4_cif.got.tgz:7125.got - 2010.06.03 17:01:31.
