data_PCOD9487739
_publ_section_title
;
Structure prediction by ZEFSAII (Michael W. Deem and Ramdas Pophale) SiO2 
 PCOD9487739
Probable space group: C M M M
;
_chemical_formula_sum "Si O2"
_cell_formula_units_Z 44
_cell_length_a 15.756356
_cell_length_b 10.120865
_cell_length_c 14.561970
_cell_angle_alpha 90.000000
_cell_angle_beta 90.000000
_cell_angle_gamma 90.000000
_cell_volume 2322.167533
_symmetry_space_group_name_H-M "C M M M"
_symmetry_group_IT_number 65
_symmetry_cell_setting 'orthorhombic'
loop_
_space_group_symop_operation_xyz
x,y,z
-x,-y,z
x,-y,-z
-x,y,-z
-x,-y,-z
x,y,-z
-x,y,z
x,-y,z
1/2+x,1/2+y,z
1/2-x,1/2-y,z
1/2+x,1/2-y,-z
1/2-x,1/2+y,-z
1/2-x,1/2-y,-z
1/2+x,1/2+y,-z
1/2-x,1/2+y,z
1/2+x,1/2-y,z
loop_
_atom_site_type_symbol
_atom_site_label
_atom_site_fract_x
_atom_site_fract_y
_atom_site_fract_z
Si Si1 0.000000 0.500000 0.250801
Si Si2 0.500000 0.769169 0.898511
Si Si3 0.678176 0.651591 0.853007
Si Si4 0.250000 0.750000 0.672095
Si Si5 0.848805 0.500000 0.397363
O O1 0.000000 0.375149 0.183033
O O2 0.081605 0.500000 0.316795
O O3 0.585274 0.683904 0.888808
O O4 0.500000 0.831226 0.000000
O O5 0.701359 0.500000 0.868912
O O6 0.750000 0.750000 0.891913
O O7 0.683291 0.683811 0.743736
O O8 0.207172 0.632034 0.616430
O O9 0.885475 0.500000 0.500000
#
# Coordination Sequence:
#
# PCOD9487739 Si02
#       5
#     4   8  16   8   8
#     4  12  22  46  60  92 136 162 214 276 322 364
#     4  12  26  41  66  94 128 177 223 263 318 383
#     4  10  21  41  67  91 128 175 209 264 326 373
#     4  10  19  40  63  90 128 160 203 258 317 374
#     4  12  23  39  69  97 122 165 214 259 323 393
#
# _framework density 18.947814999999999
#
# number of rings (size 3 to 8) (size 9 to 14) (size 15 to 20)
#    1.091    0.000    5.455    1.636    2.545    2.182 
#    0.000    0.000    0.000    0.000    0.000    7.636 
#    0.000    0.000    0.000    0.000    0.000    0.000 
#
# Total GULP energy -122728.315634 kJ/mol
# GULP energy per Si atom -5578.559802 kJ/mol
# Density = 1.890469 g / cm^3
# Si number density = 18.947815 Si / 1000 Ang^3
#
#
#
# Elastic Constant Matrix: (Units=GPa)
#
#
# Indices 1 2 3 4 5 6 
#
# 1 113.2335 67.1749 27.2089 0.0000 0.0000 0.0000
# 2 67.1749 178.3401 39.9853 0.0000 0.0000 0.0000
# 3 27.2089 39.9853 126.8621 0.0000 0.0000 0.0000
# 4 0.0000 0.0000 0.0000 10.6680 0.0000 0.0000
# 5 0.0000 0.0000 0.0000 0.0000 8.8261 0.0000
# 6 0.0000 0.0000 0.0000 0.0000 0.0000 24.1268
#
#
#
# Elastic Compliance Matrix: (Units=1/GPa)
#
#
# Indices 1 2 3 4 5 6 
#
# 1 0.011537 -0.004079 -0.001189 0.000000 0.000000 0.000000
# 2 -0.004079 0.007476 -0.001481 0.000000 0.000000 0.000000
# 3 -0.001189 -0.001481 0.008604 0.000000 0.000000 0.000000
# 4 0.000000 0.000000 0.000000 0.093738 0.000000 0.000000
# 5 0.000000 0.000000 0.000000 0.000000 0.113301 0.000000
# 6 0.000000 0.000000 0.000000 0.000000 0.000000 0.041448
#
#
# Mechanical properties :
#
#
# Convention : Reuss Voigt Hill
#
# Bulk Modulus (GPa) = 70.82775 76.35266 73.59021
# Shear Modulus (GPa) = 16.98897 27.66193 22.32545
#
# Velocity S-wave (km/s) = 2.99761 3.82501 3.43630
# Velocity P-wave (km/s) = 7.03153 7.73895 7.39371
#
# Compressibility (1/GPa) = 0.01411876
#
# Stress axis : x y z
#
# Youngs Moduli (GPa) = 86.67917 133.76404 116.21881
#
# Poissons Ratio (x) = 0.54563 0.13815
# Poissons Ratio (y) = 0.35357 0.17217
# Poissons Ratio (z) = 0.10304 0.19816
#
# Static dielectric constant tensor:
#      x y z
#    x 1.639990 0.000000 0.000000 
#    y 0.000000 1.636480 0.000000 
#    z 0.000000 0.000000 1.661870 
# 
# From -- ./inp_files/53755.got.cif
#   From: 2010.05.17/outbox.cif.g08.bks.cpg/sg65_27_cif.got.tgz:53755.got - 2010.06.03 17:01:31.
