data_PCOD9487607
_publ_section_title
;
Structure prediction by ZEFSAII (Michael W. Deem and Ramdas Pophale) SiO2 
 PCOD9487607
Probable space group: C M M M
;
_chemical_formula_sum "Si O2"
_cell_formula_units_Z 52
_cell_length_a 24.783057
_cell_length_b 15.009253
_cell_length_c 7.414511
_cell_angle_alpha 90.000000
_cell_angle_beta 90.000000
_cell_angle_gamma 90.000000
_cell_volume 2758.014009
_symmetry_space_group_name_H-M "C M M M"
_symmetry_group_IT_number 65
_symmetry_cell_setting 'orthorhombic'
loop_
_space_group_symop_operation_xyz
x,y,z
-x,-y,z
x,-y,-z
-x,y,-z
-x,-y,-z
x,y,-z
-x,y,z
x,-y,z
1/2+x,1/2+y,z
1/2-x,1/2-y,z
1/2+x,1/2-y,-z
1/2-x,1/2+y,-z
1/2-x,1/2-y,-z
1/2+x,1/2+y,-z
1/2-x,1/2+y,z
1/2+x,1/2-y,z
loop_
_atom_site_type_symbol
_atom_site_label
_atom_site_fract_x
_atom_site_fract_y
_atom_site_fract_z
Si Si1 0.651909 0.000000 0.216737
Si Si2 0.803240 0.195358 0.280720
Si Si3 0.000000 0.286920 0.500000
Si Si4 0.222101 0.000000 0.708456
Si Si5 0.405407 0.184015 0.791154
O O1 0.712867 0.000000 0.286814
O O2 0.619927 0.088922 0.268428
O O3 0.656294 0.000000 0.000000
O O4 0.803370 0.195138 0.500000
O O5 0.750000 0.250000 0.224397
O O6 0.798276 0.093673 0.215188
O O7 0.856684 0.245319 0.218540
O O8 0.047156 0.289907 0.657719
O O9 0.204886 0.000000 0.500000
O O10 0.422943 0.175406 0.000000
#
# Coordination Sequence:
#
# PCOD9487607 Si02
#       5
#     8  16   4   8  16
#     4  10  22  36  55  92 129 158 197 248 302 364
#     4  10  19  35  60  94 126 161 199 243 307 370
#     4  12  26  45  64  83 122 166 218 255 304 349
#     4  10  20  32  60  93 132 162 191 238 305 376
#     4  11  24  41  63  90 123 162 208 255 302 361
#
# _framework density 18.854146
#
# number of rings (size 3 to 8) (size 9 to 14) (size 15 to 20)
#    0.000    1.538    4.615    0.462    2.154    3.077 
#    0.000    2.308    0.000    1.846    0.000    2.154 
#    0.000    0.000    0.000    0.000    0.000    0.000 
#
# Total GULP energy -144736.213017 kJ/mol
# GULP energy per Si atom -5566.777424 kJ/mol
# Density = 1.881123 g / cm^3
# Si number density = 18.854146 Si / 1000 Ang^3
#
#
#
# Elastic Constant Matrix: (Units=GPa)
#
#
# Indices 1 2 3 4 5 6 
#
# 1 153.8161 65.3220 42.8316 0.0000 0.0000 0.0000
# 2 65.3220 133.9466 29.0617 0.0000 0.0000 0.0000
# 3 42.8316 29.0617 101.3328 0.0000 0.0000 0.0000
# 4 0.0000 0.0000 0.0000 -5.9799 0.0000 0.0000
# 5 0.0000 0.0000 0.0000 0.0000 131.7377 0.0000
# 6 0.0000 0.0000 0.0000 0.0000 0.0000 -3.8746
#
#
#
# Elastic Compliance Matrix: (Units=1/GPa)
#
#
# Indices 1 2 3 4 5 6 
#
# 1 0.008825 -0.003726 -0.002661 0.000000 0.000000 0.000000
# 2 -0.003726 0.009534 -0.001159 0.000000 0.000000 0.000000
# 3 -0.002661 -0.001159 0.011326 0.000000 0.000000 0.000000
# 4 0.000000 0.000000 0.000000 -0.167228 0.000000 0.000000
# 5 0.000000 0.000000 0.000000 0.000000 0.007591 0.000000
# 6 0.000000 0.000000 0.000000 0.000000 0.000000 -0.258093
#
#
# Mechanical properties :
#
#
# Convention : Reuss Voigt Hill
#
# Bulk Modulus (GPa) = 68.53522 73.72512 71.13017
# Shear Modulus (GPa) = -13.58373 41.16867 13.79247
#
# Velocity S-wave (km/s) = -2.68706 4.67790 2.70762
# Velocity P-wave (km/s) = 5.17707 8.26830 6.89807
#
# Compressibility (1/GPa) = 0.01459104
#
# Stress axis : x y z
#
# Youngs Moduli (GPa) = 113.31714 104.88384 88.29291
#
# Poissons Ratio (x) = 0.39081 0.23499
# Poissons Ratio (y) = 0.42224 0.10237
# Poissons Ratio (z) = 0.30159 0.12160
#
# Static dielectric constant tensor:
#      x y z
#    x 1.587070 0.000000 0.000000 
#    y 0.000000 1.665000 0.000000 
#    z 0.000000 0.000000 1.690750 
# 
# From -- ./inp_files/6127.got.cif
#   From: 2010.05.17/outbox.cif.g08.bks.cpg/sg65_4_cif.got.tgz:6127.got - 2010.06.03 17:01:31.
