data_PCOD9487685
_publ_section_title
;
Structure prediction by ZEFSAII (Michael W. Deem and Ramdas Pophale) SiO2 
 PCOD9487685
Probable space group: C M M M
;
_chemical_formula_sum "Si O2"
_cell_formula_units_Z 64
_cell_length_a 16.000791
_cell_length_b 14.372917
_cell_length_c 15.087013
_cell_angle_alpha 90.000000
_cell_angle_beta 90.000000
_cell_angle_gamma 90.000000
_cell_volume 3469.681694
_symmetry_space_group_name_H-M "C M M M"
_symmetry_group_IT_number 65
_symmetry_cell_setting 'orthorhombic'
loop_
_space_group_symop_operation_xyz
x,y,z
-x,-y,z
x,-y,-z
-x,y,-z
-x,-y,-z
x,y,-z
-x,y,z
x,-y,z
1/2+x,1/2+y,z
1/2-x,1/2-y,z
1/2+x,1/2-y,-z
1/2-x,1/2+y,-z
1/2-x,1/2-y,-z
1/2+x,1/2+y,-z
1/2-x,1/2+y,z
1/2+x,1/2-y,z
loop_
_atom_site_type_symbol
_atom_site_label
_atom_site_fract_x
_atom_site_fract_y
_atom_site_fract_z
Si Si1 0.000000 0.609643 0.104206
Si Si2 0.905893 0.000000 0.808589
Si Si3 0.173841 0.311109 0.832095
Si Si4 0.742752 0.000000 0.896644
Si Si5 0.599001 0.314598 0.689107
Si Si6 0.101839 0.892202 0.500000
O O1 0.918294 0.671172 0.127297
O O2 0.000000 0.500000 0.140302
O O3 0.000000 0.597828 0.000000
O O4 0.841948 0.000000 0.888793
O O5 0.894299 0.091299 0.747659
O O6 0.000000 0.000000 0.841266
O O7 0.250000 0.250000 0.873880
O O8 0.210838 0.412899 0.841432
O O9 0.152863 0.263653 0.738256
O O10 0.714902 0.000000 0.000000
O O11 0.500000 0.289191 0.687426
O O12 0.626433 0.340063 0.589908
O O13 0.000000 0.895241 0.500000
O O14 0.129798 0.000000 0.500000
#
# Coordination Sequence:
#
# PCOD9487685 Si02
#       6
#     8   8  16   8  16   8
#     4  11  24  44  66  88 119 170 226 270 317 385
#     4  10  20  38  61  89 127 160 197 254 330 388
#     4  12  24  41  64  91 124 165 214 268 320 376
#     4  12  26  42  61  87 124 168 217 269 317 377
#     4  10  19  36  61  93 125 162 203 252 318 379
#     4   9  16  30  61  97 127 160 201 251 306 391
#
# _framework density 18.445495000000001
#
# number of rings (size 3 to 8) (size 9 to 14) (size 15 to 20)
#    0.000    1.250    6.250    0.750    0.000    2.250 
#    0.000    0.625    0.000    0.750    0.000    3.500 
#    0.000    0.000    0.000    0.000    0.000    0.000 
#
# Total GULP energy -178160.964447 kJ/mol
# GULP energy per Si atom -5567.530139 kJ/mol
# Density = 1.840351 g / cm^3
# Si number density = 18.445495 Si / 1000 Ang^3
#
#
#
# Elastic Constant Matrix: (Units=GPa)
#
#
# Indices 1 2 3 4 5 6 
#
# 1 125.0726 44.8548 38.2513 0.0000 0.0000 0.0000
# 2 44.8548 135.2977 56.4176 0.0000 0.0000 0.0000
# 3 38.2513 56.4176 94.9936 0.0000 0.0000 0.0000
# 4 0.0000 0.0000 0.0000 16.0150 0.0000 0.0000
# 5 0.0000 0.0000 0.0000 0.0000 -6.9766 0.0000
# 6 0.0000 0.0000 0.0000 0.0000 0.0000 49.4409
#
#
#
# Elastic Compliance Matrix: (Units=1/GPa)
#
#
# Indices 1 2 3 4 5 6 
#
# 1 0.009537 -0.002074 -0.002608 0.000000 0.000000 0.000000
# 2 -0.002074 0.010275 -0.005267 0.000000 0.000000 0.000000
# 3 -0.002608 -0.005267 0.014706 0.000000 0.000000 0.000000
# 4 0.000000 0.000000 0.000000 0.062442 0.000000 0.000000
# 5 0.000000 0.000000 0.000000 0.000000 -0.143336 0.000000
# 6 0.000000 0.000000 0.000000 0.000000 0.000000 0.020226
#
#
# Mechanical properties :
#
#
# Convention : Reuss Voigt Hill
#
# Bulk Modulus (GPa) = 68.40849 70.49015 69.44932
# Shear Modulus (GPa) = -3628.50807 26.08520 -1801.21144
#
# Velocity S-wave (km/s) = -44.40070 3.76463 -31.28298
# Velocity P-wave (km/s) = 50.90575 7.56274 35.59635
#
# Compressibility (1/GPa) = 0.01461807
#
# Stress axis : x y z
#
# Youngs Moduli (GPa) = 104.85561 97.32229 68.00088
#
# Poissons Ratio (x) = 0.20185 0.17738
# Poissons Ratio (y) = 0.21748 0.35818
# Poissons Ratio (z) = 0.27351 0.51263
#
# Static dielectric constant tensor:
#      x y z
#    x 1.714360 0.000000 0.000000 
#    y 0.000000 1.609230 0.000000 
#    z 0.000000 0.000000 1.610930 
# 
# From -- ./inp_files/52565.got.cif
#   From: 2010.05.17/outbox.cif.g08.bks.cpg/sg65_27_cif.got.tgz:52565.got - 2010.06.03 17:01:31.
