data_PCOD9487602
_publ_section_title
;
Structure prediction by ZEFSAII (Michael W. Deem and Ramdas Pophale) SiO2 
 PCOD9487602
Probable space group: C M M M
;
_chemical_formula_sum "Si O2"
_cell_formula_units_Z 88
_cell_length_a 29.487761
_cell_length_b 19.393113
_cell_length_c 7.817124
_cell_angle_alpha 90.000000
_cell_angle_beta 90.000000
_cell_angle_gamma 90.000000
_cell_volume 4470.296475
_symmetry_space_group_name_H-M "C M M M"
_symmetry_group_IT_number 65
_symmetry_cell_setting 'orthorhombic'
loop_
_space_group_symop_operation_xyz
x,y,z
-x,-y,z
x,-y,-z
-x,y,-z
-x,-y,-z
x,y,-z
-x,y,z
x,-y,z
1/2+x,1/2+y,z
1/2-x,1/2-y,z
1/2+x,1/2-y,-z
1/2-x,1/2+y,-z
1/2-x,1/2-y,-z
1/2+x,1/2+y,-z
1/2-x,1/2+y,z
1/2+x,1/2-y,z
loop_
_atom_site_type_symbol
_atom_site_label
_atom_site_fract_x
_atom_site_fract_y
_atom_site_fract_z
Si Si1 0.396194 0.848349 0.189235
Si Si2 0.877702 0.196519 0.298165
Si Si3 0.445895 0.079414 0.500000
Si Si4 0.196406 0.579815 0.707797
Si Si5 0.225092 0.820505 0.708330
Si Si6 0.948097 0.078895 0.793029
O O1 0.394757 0.766014 0.209333
O O2 0.426746 0.882285 0.334382
O O3 0.345437 0.877034 0.218996
O O4 0.411744 0.867453 0.000000
O O5 0.874348 0.212768 0.500000
O O6 0.827014 0.178198 0.235476
O O7 0.912149 0.133780 0.273004
O O8 0.500000 0.080115 0.500000
O O9 0.429674 0.000000 0.500000
O O10 0.193193 0.583396 0.500000
O O11 0.193841 0.500000 0.757895
O O12 0.243435 0.615708 0.760324
O O13 0.224550 0.820402 0.500000
O O14 0.250000 0.750000 0.762163
O O15 0.000000 0.094855 0.740265
O O16 0.938027 0.000000 0.739974
O O17 0.947074 0.080542 0.000000
#
# Coordination Sequence:
#
# PCOD9487602 Si02
#       6
#    16  16   8  16  16  16
#     4  12  24  41  66  96 129 166 211 261 317 383
#     4  11  21  37  63  93 127 166 214 266 317 375
#     4  11  26  48  70  93 125 163 207 264 327 386
#     4  10  19  35  60  88 122 165 212 261 314 374
#     4   9  17  32  56  84 119 163 206 253 310 369
#     4   9  20  40  62  85 120 166 211 257 316 383
#
# _framework density 19.685493999999998
#
# number of rings (size 3 to 8) (size 9 to 14) (size 15 to 20)
#    0.000    1.727    3.636    1.636    0.000    4.000 
#    0.000    6.364    0.000    0.000    0.000    0.000 
#    0.000    0.000    0.000    0.000    0.000    0.000 
#
# Total GULP energy -245910.738323 kJ/mol
# GULP energy per Si atom -5588.880416 kJ/mol
# Density = 1.964069 g / cm^3
# Si number density = 19.685494 Si / 1000 Ang^3
#
#
#
# Elastic Constant Matrix: (Units=GPa)
#
#
# Indices 1 2 3 4 5 6 
#
# 1 112.5778 67.3890 27.2564 0.0000 0.0000 0.0000
# 2 67.3890 127.5309 21.7193 0.0000 0.0000 0.0000
# 3 27.2564 21.7193 82.0554 0.0000 0.0000 0.0000
# 4 0.0000 0.0000 0.0000 11.4170 0.0000 0.0000
# 5 0.0000 0.0000 0.0000 0.0000 -7.3727 0.0000
# 6 0.0000 0.0000 0.0000 0.0000 0.0000 40.6881
#
#
#
# Elastic Compliance Matrix: (Units=1/GPa)
#
#
# Indices 1 2 3 4 5 6 
#
# 1 0.013552 -0.006696 -0.002729 0.000000 0.000000 0.000000
# 2 -0.006696 0.011520 -0.000825 0.000000 0.000000 0.000000
# 3 -0.002729 -0.000825 0.013312 0.000000 0.000000 0.000000
# 4 0.000000 0.000000 0.000000 0.087589 0.000000 0.000000
# 5 0.000000 0.000000 0.000000 0.000000 -0.135636 0.000000
# 6 0.000000 0.000000 0.000000 0.000000 0.000000 0.024577
#
#
# Mechanical properties :
#
#
# Convention : Reuss Voigt Hill
#
# Bulk Modulus (GPa) = 55.91853 61.65484 58.78668
# Shear Modulus (GPa) = 120.84430 22.66642 71.75536
#
# Velocity S-wave (km/s) = 7.84352 3.39695 6.04401
# Velocity P-wave (km/s) = 10.51167 6.83912 8.86761
#
# Compressibility (1/GPa) = 0.01788316
#
# Stress axis : x y z
#
# Youngs Moduli (GPa) = 73.79075 86.80480 75.12139
#
# Poissons Ratio (x) = 0.58126 0.20501
# Poissons Ratio (y) = 0.49412 0.06197
# Poissons Ratio (z) = 0.20138 0.07161
#
# Static dielectric constant tensor:
#      x y z
#    x 1.664470 0.000000 0.000000 
#    y 0.000000 1.657630 0.000000 
#    z 0.000000 0.000000 1.727870 
# 
# From -- ./inp_files/18293.got.cif
#   From: 2010.05.17/outbox.cif.g08.bks.cpg/sg65_10_cif.got.tgz:18293.got - 2010.06.03 17:01:31.
