data_PCOD9487470
_publ_section_title
;
Structure prediction by ZEFSAII (Michael W. Deem and Ramdas Pophale) SiO2 
 PCOD9487470
Probable space group: C M M M
;
_chemical_formula_sum "Si O2"
_cell_formula_units_Z 84
_cell_length_a 14.610516
_cell_length_b 15.841469
_cell_length_c 21.625416
_cell_angle_alpha 90.000000
_cell_angle_beta 90.000000
_cell_angle_gamma 90.000000
_cell_volume 5005.246569
_symmetry_space_group_name_H-M "C M M M"
_symmetry_group_IT_number 65
_symmetry_cell_setting 'orthorhombic'
loop_
_space_group_symop_operation_xyz
x,y,z
-x,-y,z
x,-y,-z
-x,y,-z
-x,-y,-z
x,y,-z
-x,y,z
x,-y,z
1/2+x,1/2+y,z
1/2-x,1/2-y,z
1/2+x,1/2-y,-z
1/2-x,1/2+y,-z
1/2-x,1/2-y,-z
1/2+x,1/2+y,-z
1/2-x,1/2+y,z
1/2+x,1/2-y,z
loop_
_atom_site_type_symbol
_atom_site_label
_atom_site_fract_x
_atom_site_fract_y
_atom_site_fract_z
Si Si1 0.000000 0.316244 0.804922
Si Si2 0.109910 0.904423 0.633268
Si Si3 0.000000 0.218812 0.930248
Si Si4 0.606128 0.396738 0.500000
Si Si5 0.000000 0.500000 0.155814
Si Si6 0.659565 0.701853 0.752394
Si Si7 0.317525 0.000000 0.072027
Si Si8 0.303826 0.660341 0.889078
O O1 0.000000 0.290277 0.877483
O O2 0.000000 0.416018 0.802974
O O3 0.086252 0.271364 0.773839
O O4 0.145957 0.871026 0.566739
O O5 0.128317 0.852385 0.694628
O O6 0.000000 0.908543 0.626489
O O7 0.144169 0.000000 0.641534
O O8 0.094881 0.167877 0.919090
O O9 0.000000 0.251886 0.000000
O O10 0.606467 0.500000 0.500000
O O11 0.500000 0.369166 0.500000
O O12 0.091662 0.500000 0.114044
O O13 0.750000 0.750000 0.733545
O O14 0.680596 0.650302 0.815310
O O15 0.256599 0.083385 0.086053
O O16 0.342777 0.000000 0.000000
O O17 0.250000 0.750000 0.898030
#
# Coordination Sequence:
#
# PCOD9487470 Si02
#       8
#     8  16   8   8   4  16   8  16
#     4  10  22  38  53  75 103 132 172 223 260 310
#     4   9  16  28  51  79 107 136 169 208 256 309
#     4  10  20  37  59  76 101 140 169 208 279 332
#     4   7  12  24  43  74 110 137 160 202 258 303
#     4  12  23  38  58  76  98 135 180 226 276 305
#     4  10  19  35  52  74 106 139 173 210 257 309
#     4  12  25  39  58  81 103 133 181 226 268 332
#     4  10  23  39  54  77 109 139 173 223 273 319
#
# _framework density 16.782388999999998
#
# number of rings (size 3 to 8) (size 9 to 14) (size 15 to 20)
#    0.000    2.190    0.952    5.286    1.333    4.190 
#    1.714    1.429    0.000    0.000    0.000    0.000 
#    0.000    0.762    0.000    0.000    0.000    0.000 
#
# Total GULP energy -234049.701064 kJ/mol
# GULP energy per Si atom -5572.611930 kJ/mol
# Density = 1.674419 g / cm^3
# Si number density = 16.782389 Si / 1000 Ang^3
#
#
#
# Elastic Constant Matrix: (Units=GPa)
#
#
# Indices 1 2 3 4 5 6 
#
# 1 80.8139 24.7575 20.6406 0.0000 0.0000 0.0000
# 2 24.7575 78.7913 55.4352 0.0000 0.0000 0.0000
# 3 20.6406 55.4352 126.8082 0.0000 0.0000 0.0000
# 4 0.0000 0.0000 0.0000 -0.2363 0.0000 0.0000
# 5 0.0000 0.0000 0.0000 0.0000 7.2481 0.0000
# 6 0.0000 0.0000 0.0000 0.0000 0.0000 33.5769
#
#
#
# Elastic Compliance Matrix: (Units=1/GPa)
#
#
# Indices 1 2 3 4 5 6 
#
# 1 0.013714 -0.003955 -0.000503 0.000000 0.000000 0.000000
# 2 -0.003955 0.019470 -0.007868 0.000000 0.000000 0.000000
# 3 -0.000503 -0.007868 0.011407 0.000000 0.000000 0.000000
# 4 0.000000 0.000000 0.000000 -4.232189 0.000000 0.000000
# 5 0.000000 0.000000 0.000000 0.000000 0.137967 0.000000
# 6 0.000000 0.000000 0.000000 0.000000 0.000000 0.029782
#
#
# Mechanical properties :
#
#
# Convention : Reuss Voigt Hill
#
# Bulk Modulus (GPa) = 50.15207 54.23111 52.19159
# Shear Modulus (GPa) = -1.25359 20.48977 9.61809
#
# Velocity S-wave (km/s) = -0.86521 3.49794 2.39656
# Velocity P-wave (km/s) = 5.38057 6.97844 6.23093
#
# Compressibility (1/GPa) = 0.01993936
#
# Stress axis : x y z
#
# Youngs Moduli (GPa) = 72.91649 51.36101 87.66353
#
# Poissons Ratio (x) = 0.20314 0.04412
# Poissons Ratio (y) = 0.28840 0.68971
# Poissons Ratio (z) = 0.03669 0.40409
#
# Static dielectric constant tensor:
#      x y z
#    x 1.570320 0.000000 0.000000 
#    y 0.000000 1.559940 0.000000 
#    z 0.000000 0.000000 1.587240 
# 
# From -- ./inp_files/62537.got.cif
#   From: 2010.05.17/outbox.cif.g08.bks.cpg/sg65_32_cif.got.tgz:62537.got - 2010.06.03 17:01:31.
