data_PCOD9487627
_publ_section_title
;
Structure prediction by ZEFSAII (Michael W. Deem and Ramdas Pophale) SiO2 
 PCOD9487627
Probable space group: C M M M
;
_chemical_formula_sum "Si O2"
_cell_formula_units_Z 72
_cell_length_a 10.436454
_cell_length_b 15.623389
_cell_length_c 23.615608
_cell_angle_alpha 90.000000
_cell_angle_beta 90.000000
_cell_angle_gamma 90.000000
_cell_volume 3850.590550
_symmetry_space_group_name_H-M "C M M M"
_symmetry_group_IT_number 65
_symmetry_cell_setting 'orthorhombic'
loop_
_space_group_symop_operation_xyz
x,y,z
-x,-y,z
x,-y,-z
-x,y,-z
-x,-y,-z
x,y,-z
-x,y,z
x,-y,z
1/2+x,1/2+y,z
1/2-x,1/2-y,z
1/2+x,1/2-y,-z
1/2-x,1/2+y,-z
1/2-x,1/2-y,-z
1/2+x,1/2+y,-z
1/2-x,1/2+y,z
1/2+x,1/2-y,z
loop_
_atom_site_type_symbol
_atom_site_label
_atom_site_fract_x
_atom_site_fract_y
_atom_site_fract_z
Si Si1 0.500000 0.257847 0.223692
Si Si2 0.250000 0.250000 0.300727
Si Si3 0.000000 0.597416 0.858205
Si Si4 0.500000 0.403796 0.871787
Si Si5 0.757561 0.353246 0.065929
Si Si6 0.850721 0.672688 0.500000
Si Si7 0.347823 0.902689 0.376470
O O1 0.373676 0.263759 0.261724
O O2 0.500000 0.166973 0.191445
O O3 0.500000 0.332317 0.176816
O O4 0.274471 0.167698 0.340050
O O5 0.875501 0.613822 0.896904
O O6 0.000000 0.500000 0.837247
O O7 0.500000 0.500000 0.848420
O O8 0.374353 0.390068 0.909906
O O9 0.750000 0.250000 0.070576
O O10 0.774905 0.375132 0.000000
O O11 0.750000 0.750000 0.500000
O O12 0.832254 0.618210 0.557031
O O13 0.000000 0.702741 0.500000
O O14 0.500000 0.894956 0.364013
O O15 0.308315 0.000000 0.364440
#
# Coordination Sequence:
#
# PCOD9487627 Si02
#       7
#     8   8   8   8  16   8  16
#     4  12  26  44  63  89 126 164 220 262 310 358
#     4  12  24  41  68  88 123 170 212 270 310 358
#     4  12  25  43  67  92 123 164 209 257 309 372
#     4  12  25  43  65  90 125 164 203 253 315 376
#     4  11  22  41  68  96 127 160 196 250 319 384
#     4  10  19  35  67  96 132 170 205 251 317 384
#     4  10  21  40  66  99 129 165 213 258 314 379
#
# _framework density 18.698430999999999
#
# number of rings (size 3 to 8) (size 9 to 14) (size 15 to 20)
#    0.000    0.889    4.444    3.000    0.000    7.556 
#    0.000    0.000    0.000    0.667    0.000    0.000 
#    0.000    0.000    0.000    0.000    0.000    0.000 
#
# Total GULP energy -201360.534722 kJ/mol
# GULP energy per Si atom -5593.348187 kJ/mol
# Density = 1.865587 g / cm^3
# Si number density = 18.698431 Si / 1000 Ang^3
#
#
#
# Elastic Constant Matrix: (Units=GPa)
#
#
# Indices 1 2 3 4 5 6 
#
# 1 128.7002 48.7900 53.5269 0.0000 0.0000 0.0000
# 2 48.7900 176.7588 70.9395 0.0000 0.0000 0.0000
# 3 53.5269 70.9395 109.7508 0.0000 0.0000 0.0000
# 4 0.0000 0.0000 0.0000 -19.2663 0.0000 0.0000
# 5 0.0000 0.0000 0.0000 0.0000 29.2088 0.0000
# 6 0.0000 0.0000 0.0000 0.0000 0.0000 56.9959
#
#
#
# Elastic Compliance Matrix: (Units=1/GPa)
#
#
# Indices 1 2 3 4 5 6 
#
# 1 0.009896 -0.001073 -0.004133 0.000000 0.000000 0.000000
# 2 -0.001073 0.007755 -0.004490 0.000000 0.000000 0.000000
# 3 -0.004133 -0.004490 0.014029 0.000000 0.000000 0.000000
# 4 0.000000 0.000000 0.000000 -0.051904 0.000000 0.000000
# 5 0.000000 0.000000 0.000000 0.000000 0.034236 0.000000
# 6 0.000000 0.000000 0.000000 0.000000 0.000000 0.017545
#
#
# Mechanical properties :
#
#
# Convention : Reuss Voigt Hill
#
# Bulk Modulus (GPa) = 81.36920 84.63584 83.00252
# Shear Modulus (GPa) = 90.83625 29.51791 60.17708
#
# Velocity S-wave (km/s) = 6.97747 3.97751 5.67916
# Velocity P-wave (km/s) = 10.41751 8.15205 9.35362
#
# Compressibility (1/GPa) = 0.01228966
#
# Stress axis : x y z
#
# Youngs Moduli (GPa) = 101.05583 128.94247 71.28035
#
# Poissons Ratio (x) = 0.13833 0.29458
# Poissons Ratio (y) = 0.10841 0.32002
# Poissons Ratio (z) = 0.41764 0.57890
#
# Static dielectric constant tensor:
#      x y z
#    x 1.613580 0.000000 0.000000 
#    y 0.000000 1.639170 0.000000 
#    z 0.000000 0.000000 1.623770 
# 
# From -- ./inp_files/72673.got.cif
#   From: 2010.05.17/outbox.cif.g08.bks.cpg/sg65_37_cif.got.tgz:72673.got - 2010.06.03 17:01:31.
