data_PCOD9487713
_publ_section_title
;
Structure prediction by ZEFSAII (Michael W. Deem and Ramdas Pophale) SiO2 
 PCOD9487713
Probable space group: C M M M
;
_chemical_formula_sum "Si O2"
_cell_formula_units_Z 42
_cell_length_a 24.465512
_cell_length_b 7.516928
_cell_length_c 10.805925
_cell_angle_alpha 90.000000
_cell_angle_beta 90.000000
_cell_angle_gamma 90.000000
_cell_volume 1987.268956
_symmetry_space_group_name_H-M "C M M M"
_symmetry_group_IT_number 65
_symmetry_cell_setting 'orthorhombic'
loop_
_space_group_symop_operation_xyz
x,y,z
-x,-y,z
x,-y,-z
-x,y,-z
-x,-y,-z
x,y,-z
-x,y,z
x,-y,z
1/2+x,1/2+y,z
1/2-x,1/2-y,z
1/2+x,1/2-y,-z
1/2-x,1/2+y,-z
1/2-x,1/2-y,-z
1/2+x,1/2+y,-z
1/2-x,1/2+y,z
1/2+x,1/2-y,z
loop_
_atom_site_type_symbol
_atom_site_label
_atom_site_fract_x
_atom_site_fract_y
_atom_site_fract_z
Si Si1 0.500000 0.283211 0.143781
Si Si2 0.000000 0.000000 0.500000
Si Si3 0.881762 0.215647 0.762991
Si Si4 0.904393 0.301853 0.500000
Si Si5 0.813977 0.212907 0.000000
O O1 0.500000 0.500000 0.149192
O O2 0.444053 0.226308 0.207332
O O3 0.500000 0.232726 0.000000
O O4 0.048104 0.154431 0.500000
O O5 0.869499 0.277377 0.625041
O O6 0.843502 0.278408 0.875046
O O7 0.881289 0.000000 0.763449
O O8 0.927580 0.500000 0.500000
O O9 0.750000 0.250000 0.000000
O O10 0.821797 0.000000 0.000000
#
# Coordination Sequence:
#
# PCOD9487713 Si02
#       5
#     8   2  16   8   8
#     4   9  15  27  55  89 116 152 205 253 306 385
#     4  12  22  44  60  92 144 184 214 258 320 376
#     4  10  19  37  62  92 126 170 215 264 325 392
#     4  12  25  39  62  95 132 180 221 258 317 392
#     4  10  22  39  65  95 125 168 218 274 339 387
#
# _framework density 21.134532
#
# number of rings (size 3 to 8) (size 9 to 14) (size 15 to 20)
#    0.000    1.714    3.810    1.429    2.667    1.524 
#    0.000    0.952    0.000    1.143    0.000    0.000 
#    0.000    0.000    0.000    0.000    0.000    0.000 
#
# Total GULP energy -117093.291299 kJ/mol
# GULP energy per Si atom -5575.871014 kJ/mol
# Density = 2.108643 g / cm^3
# Si number density = 21.134532 Si / 1000 Ang^3
#
#
#
# Elastic Constant Matrix: (Units=GPa)
#
#
# Indices 1 2 3 4 5 6 
#
# 1 114.0125 12.1912 89.2248 0.0000 0.0000 0.0000
# 2 12.1912 111.4786 17.0440 0.0000 0.0000 0.0000
# 3 89.2248 17.0440 232.0098 0.0000 0.0000 0.0000
# 4 0.0000 0.0000 0.0000 -31.5698 0.0000 0.0000
# 5 0.0000 0.0000 0.0000 0.0000 -1.5022 0.0000
# 6 0.0000 0.0000 0.0000 0.0000 0.0000 12.4594
#
#
#
# Elastic Compliance Matrix: (Units=1/GPa)
#
#
# Indices 1 2 3 4 5 6 
#
# 1 0.012593 -0.000644 -0.004796 0.000000 0.000000 0.000000
# 2 -0.000644 0.009105 -0.000421 0.000000 0.000000 0.000000
# 3 -0.004796 -0.000421 0.006185 0.000000 0.000000 0.000000
# 4 0.000000 0.000000 0.000000 -0.031676 0.000000 0.000000
# 5 0.000000 0.000000 0.000000 0.000000 -0.665686 0.000000
# 6 0.000000 0.000000 0.000000 0.000000 0.000000 0.080260
#
#
# Mechanical properties :
#
#
# Convention : Reuss Voigt Hill
#
# Bulk Modulus (GPa) = 61.87422 77.15787 69.51605
# Shear Modulus (GPa) = -8.73959 18.48020 4.87031
#
# Velocity S-wave (km/s) = -2.03573 2.96025 1.51968
# Velocity P-wave (km/s) = 4.87999 6.94776 6.00357
#
# Compressibility (1/GPa) = 0.01616182
#
# Stress axis : x y z
#
# Youngs Moduli (GPa) = 79.41076 109.82782 161.67256
#
# Poissons Ratio (x) = 0.07072 0.77531
# Poissons Ratio (y) = 0.05114 0.06810
# Poissons Ratio (z) = 0.38082 0.04626
#
# Static dielectric constant tensor:
#      x y z
#    x 1.710590 0.000000 0.000000 
#    y 0.000000 1.800910 0.000000 
#    z 0.000000 0.000000 1.824080 
# 
# From -- ./inp_files/20022.got.cif
#   From: 2010.05.17/outbox.cif.g08.bks.cpg/sg65_11_cif.got.tgz:20022.got - 2010.06.03 17:01:31.
