data_PCOD9487688
_publ_section_title
;
Structure prediction by ZEFSAII (Michael W. Deem and Ramdas Pophale) SiO2 
 PCOD9487688
Probable space group: C M M M
;
_chemical_formula_sum "Si O2"
_cell_formula_units_Z 80
_cell_length_a 8.698526
_cell_length_b 24.240413
_cell_length_c 20.889849
_cell_angle_alpha 90.000000
_cell_angle_beta 90.000000
_cell_angle_gamma 90.000000
_cell_volume 4404.747133
_symmetry_space_group_name_H-M "C M M M"
_symmetry_group_IT_number 65
_symmetry_cell_setting 'orthorhombic'
loop_
_space_group_symop_operation_xyz
x,y,z
-x,-y,z
x,-y,-z
-x,y,-z
-x,-y,-z
x,y,-z
-x,y,z
x,-y,z
1/2+x,1/2+y,z
1/2-x,1/2-y,z
1/2+x,1/2-y,-z
1/2-x,1/2+y,-z
1/2-x,1/2-y,-z
1/2+x,1/2+y,-z
1/2-x,1/2+y,z
1/2+x,1/2-y,z
loop_
_atom_site_type_symbol
_atom_site_label
_atom_site_fract_x
_atom_site_fract_y
_atom_site_fract_z
Si Si1 0.315065 0.383367 0.307239
Si Si2 0.816616 0.311567 0.190138
Si Si3 0.185012 0.880197 0.926671
Si Si4 0.315895 0.500000 0.128577
Si Si5 0.314707 0.310515 0.572695
Si Si6 0.317307 0.000000 0.270860
O O1 0.500000 0.384301 0.303317
O O2 0.251189 0.347821 0.248074
O O3 0.267908 0.353851 0.373305
O O4 0.251733 0.444909 0.301564
O O5 0.750000 0.250000 0.193258
O O6 0.765941 0.340904 0.124329
O O7 0.000000 0.310031 0.194936
O O8 0.220075 0.943965 0.909375
O O9 0.000000 0.873618 0.920581
O O10 0.227864 0.868627 0.000000
O O11 0.500000 0.500000 0.140846
O O12 0.230729 0.500000 0.196217
O O13 0.266269 0.324659 0.500000
O O14 0.500000 0.307506 0.573448
O O15 0.250000 0.250000 0.587974
O O16 0.500000 0.000000 0.276160
#
# Coordination Sequence:
#
# PCOD9487688 Si02
#       6
#    16  16  16   8  16   8
#     4  11  22  39  62  87 118 155 194 240 292 345
#     4  12  25  40  59  84 116 153 196 243 292 348
#     4  10  21  38  61  88 117 151 192 239 293 352
#     4  10  19  36  62  87 116 150 188 234 289 348
#     4   9  19  36  60  90 121 154 193 236 286 342
#     4  12  24  37  58  88 119 153 194 241 290 343
#
# _framework density 18.162223000000001
#
# number of rings (size 3 to 8) (size 9 to 14) (size 15 to 20)
#    0.000    1.400    2.000    4.200    0.000    5.200 
#    0.000    0.500    0.000    4.800    0.000    0.000 
#    0.000    0.000    0.000    0.000    0.000    0.000 
#
# Total GULP energy -223593.482931 kJ/mol
# GULP energy per Si atom -5589.837073 kJ/mol
# Density = 1.812088 g / cm^3
# Si number density = 18.162223 Si / 1000 Ang^3
#
#
#
# Elastic Constant Matrix: (Units=GPa)
#
#
# Indices 1 2 3 4 5 6 
#
# 1 71.6502 63.1303 59.7305 0.0000 0.0000 0.0000
# 2 63.1303 175.7067 103.2514 0.0000 0.0000 0.0000
# 3 59.7305 103.2514 152.9102 0.0000 0.0000 0.0000
# 4 0.0000 0.0000 0.0000 56.0211 0.0000 0.0000
# 5 0.0000 0.0000 0.0000 0.0000 13.7155 0.0000
# 6 0.0000 0.0000 0.0000 0.0000 0.0000 25.7534
#
#
#
# Elastic Compliance Matrix: (Units=1/GPa)
#
#
# Indices 1 2 3 4 5 6 
#
# 1 0.023034 -0.004955 -0.005652 0.000000 0.000000 0.000000
# 2 -0.004955 0.010501 -0.005155 0.000000 0.000000 0.000000
# 3 -0.005652 -0.005155 0.012229 0.000000 0.000000 0.000000
# 4 0.000000 0.000000 0.000000 0.017850 0.000000 0.000000
# 5 0.000000 0.000000 0.000000 0.000000 0.072910 0.000000
# 6 0.000000 0.000000 0.000000 0.000000 0.000000 0.038830
#
#
# Mechanical properties :
#
#
# Convention : Reuss Voigt Hill
#
# Bulk Modulus (GPa) = 70.22643 94.72129 82.47386
# Shear Modulus (GPa) = 23.62675 30.70831 27.16753
#
# Velocity S-wave (km/s) = 3.61068 4.11637 3.87179
# Velocity P-wave (km/s) = 7.49218 8.65210 8.09295
#
# Compressibility (1/GPa) = 0.01423965
#
# Stress axis : x y z
#
# Youngs Moduli (GPa) = 43.41415 95.23042 81.77513
#
# Poissons Ratio (x) = 0.47183 0.46220
# Poissons Ratio (y) = 0.21510 0.42157
# Poissons Ratio (z) = 0.24538 0.49093
#
# Static dielectric constant tensor:
#      x y z
#    x 1.609070 0.000000 0.000000 
#    y 0.000000 1.593040 0.000000 
#    z 0.000000 0.000000 1.611710 
# 
# From -- ./inp_files/59683.got.cif
#   From: 2010.05.17/outbox.cif.g08.bks.cpg/sg65_30_cif.got.tgz:59683.got - 2010.06.03 17:01:31.
