data_PCOD9487130
_publ_section_title
;
Structure prediction by ZEFSAII (Michael W. Deem and Ramdas Pophale) SiO2 
 PCOD9487130
Probable space group: C M M M
;
_chemical_formula_sum "Si O2"
_cell_formula_units_Z 88
_cell_length_a 20.746657
_cell_length_b 31.400800
_cell_length_c 7.767364
_cell_angle_alpha 90.000000
_cell_angle_beta 90.000000
_cell_angle_gamma 90.000000
_cell_volume 5060.139590
_symmetry_space_group_name_H-M "C M M M"
_symmetry_group_IT_number 65
_symmetry_cell_setting 'orthorhombic'
loop_
_space_group_symop_operation_xyz
x,y,z
-x,-y,z
x,-y,-z
-x,y,-z
-x,-y,-z
x,y,-z
-x,y,z
x,-y,z
1/2+x,1/2+y,z
1/2-x,1/2-y,z
1/2+x,1/2-y,-z
1/2-x,1/2+y,-z
1/2-x,1/2-y,-z
1/2+x,1/2+y,-z
1/2-x,1/2+y,z
1/2+x,1/2-y,z
loop_
_atom_site_type_symbol
_atom_site_label
_atom_site_fract_x
_atom_site_fract_y
_atom_site_fract_z
Si Si1 0.288697 0.792247 0.706752
Si Si2 0.929600 0.265721 0.205542
Si Si3 0.930780 0.832726 0.702679
Si Si4 0.298095 0.631022 0.707336
Si Si5 0.858751 0.951577 0.792808
Si Si6 0.500000 0.448098 0.200381
O O1 0.282140 0.791320 0.500000
O O2 0.250000 0.750000 0.770984
O O3 0.364290 0.789533 0.746009
O O4 0.256155 0.836127 0.769816
O O5 0.925702 0.218230 0.281657
O O6 0.000000 0.283703 0.258380
O O7 0.930059 0.261491 0.000000
O O8 0.931812 0.842893 0.500000
O O9 0.866247 0.851797 0.779300
O O10 0.000000 0.845846 0.778259
O O11 0.298288 0.634523 0.500000
O O12 0.302205 0.581197 0.748469
O O13 0.929725 0.936527 0.724274
O O14 0.847705 0.000000 0.733132
O O15 0.864496 0.952883 0.000000
O O16 0.500000 0.500000 0.203007
O O17 0.500000 0.435236 0.000000
#
# Coordination Sequence:
#
# PCOD9487130 Si02
#       6
#    16  16  16  16  16   8
#     4  10  19  34  50  66  93 127 159 190 229 279
#     4  10  20  32  47  69  94 120 155 197 234 270
#     4   9  17  30  45  61  88 126 161 192 231 276
#     4  10  20  31  46  68  90 118 157 199 235 271
#     4   9  18  32  47  63  87 120 156 193 236 282
#     4   7  12  26  45  61  81 115 155 191 229 273
#
# _framework density 17.390825
#
# number of rings (size 3 to 8) (size 9 to 14) (size 15 to 20)
#    0.000    2.636    1.818    1.636    1.273    3.273 
#    0.000    0.000    0.000    1.636    0.000    0.000 
#    0.000    0.727    0.000    8.000    0.000    5.818 
#
# Total GULP energy -245205.937105 kJ/mol
# GULP energy per Si atom -5572.862207 kJ/mol
# Density = 1.735124 g / cm^3
# Si number density = 17.390825 Si / 1000 Ang^3
#
#
#
# Elastic Constant Matrix: (Units=GPa)
#
#
# Indices 1 2 3 4 5 6 
#
# 1 115.3169 68.3340 4.3920 0.0000 0.0000 0.0000
# 2 68.3340 96.0236 8.4405 0.0000 0.0000 0.0000
# 3 4.3920 8.4405 31.1071 0.0000 0.0000 0.0000
# 4 0.0000 0.0000 0.0000 20.6906 0.0000 0.0000
# 5 0.0000 0.0000 0.0000 0.0000 6.6458 0.0000
# 6 0.0000 0.0000 0.0000 0.0000 0.0000 47.8479
#
#
#
# Elastic Compliance Matrix: (Units=1/GPa)
#
#
# Indices 1 2 3 4 5 6 
#
# 1 0.015015 -0.010755 0.000798 0.000000 0.000000 0.000000
# 2 -0.010755 0.018373 -0.003467 0.000000 0.000000 0.000000
# 3 0.000798 -0.003467 0.032975 0.000000 0.000000 0.000000
# 4 0.000000 0.000000 0.000000 0.048331 0.000000 0.000000
# 5 0.000000 0.000000 0.000000 0.000000 0.150471 0.000000
# 6 0.000000 0.000000 0.000000 0.000000 0.000000 0.020900
#
#
# Mechanical properties :
#
#
# Convention : Reuss Voigt Hill
#
# Bulk Modulus (GPa) = 25.30666 44.97562 35.14114
# Shear Modulus (GPa) = 15.33353 25.78893 20.56123
#
# Velocity S-wave (km/s) = 2.97257 3.85503 3.44219
# Velocity P-wave (km/s) = 5.13467 6.76260 6.00407
#
# Compressibility (1/GPa) = 0.03951529
#
# Stress axis : x y z
#
# Youngs Moduli (GPa) = 66.60195 54.42897 30.32604
#
# Poissons Ratio (x) = 0.58539 -0.02421
# Poissons Ratio (y) = 0.71631 0.10513
# Poissons Ratio (z) = -0.05317 0.18869
#
# Static dielectric constant tensor:
#      x y z
#    x 1.632200 0.000000 0.000000 
#    y 0.000000 1.631890 0.000000 
#    z 0.000000 0.000000 1.639870 
# 
# From -- ./inp_files/12636.got.cif
#   From: 2010.05.17/outbox.cif.g08.bks.cpg/sg65_7_cif.got.tgz:12636.got - 2010.06.03 17:01:31.
