data_PCOD9487035
_publ_section_title
;
Structure prediction by ZEFSAII (Michael W. Deem and Ramdas Pophale) SiO2 
 PCOD9487035
Probable space group: C M M M
;
_chemical_formula_sum "Si O2"
_cell_formula_units_Z 80
_cell_length_a 29.829196
_cell_length_b 9.386085
_cell_length_c 15.570291
_cell_angle_alpha 90.000000
_cell_angle_beta 90.000000
_cell_angle_gamma 90.000000
_cell_volume 4359.360251
_symmetry_space_group_name_H-M "C M M M"
_symmetry_group_IT_number 65
_symmetry_cell_setting 'orthorhombic'
loop_
_space_group_symop_operation_xyz
x,y,z
-x,-y,z
x,-y,-z
-x,y,-z
-x,-y,-z
x,y,-z
-x,y,z
x,-y,z
1/2+x,1/2+y,z
1/2-x,1/2-y,z
1/2+x,1/2-y,-z
1/2-x,1/2+y,-z
1/2-x,1/2-y,-z
1/2+x,1/2+y,-z
1/2-x,1/2+y,z
1/2+x,1/2-y,z
loop_
_atom_site_type_symbol
_atom_site_label
_atom_site_fract_x
_atom_site_fract_y
_atom_site_fract_z
Si Si1 0.706078 0.165073 0.854001
Si Si2 0.447809 0.329041 0.245035
Si Si3 0.606549 0.829230 0.098096
Si Si4 0.383700 0.668417 0.597005
Si Si5 0.705455 0.834185 0.645844
O O1 0.750000 0.250000 0.881933
O O2 0.658400 0.216637 0.889473
O O3 0.703345 0.173064 0.750080
O O4 0.711189 0.000000 0.878424
O O5 0.500000 0.290674 0.252327
O O6 0.444943 0.500000 0.233078
O O7 0.424356 0.250334 0.165949
O O8 0.420212 0.293677 0.331256
O O9 0.605306 0.000000 0.113707
O O10 0.592801 0.803031 0.000000
O O11 0.400513 0.688985 0.500000
O O12 0.372935 0.500000 0.607450
O O13 0.338875 0.758989 0.610840
O O14 0.750000 0.750000 0.618494
O O15 0.707715 0.000000 0.621439
#
# Coordination Sequence:
#
# PCOD9487035 Si02
#       5
#    16  16  16  16  16
#     4   9  18  32  52  80 112 147 185 224 267 320
#     4  10  22  40  61  84 111 143 182 233 288 337
#     4  10  21  38  59  84 115 150 188 228 274 331
#     4  10  21  37  58  84 113 146 186 230 279 336
#     4  10  19  33  55  82 114 151 189 229 274 326
#
# _framework density 18.351316000000001
#
# number of rings (size 3 to 8) (size 9 to 14) (size 15 to 20)
#    0.000    2.200    2.000    0.600    0.000    4.400 
#    0.000    4.000    0.000    0.000    0.000    2.800 
#    0.000    0.000    0.000    0.000    0.000    0.000 
#
# Total GULP energy -223344.273532 kJ/mol
# GULP energy per Si atom -5583.606838 kJ/mol
# Density = 1.830955 g / cm^3
# Si number density = 18.351316 Si / 1000 Ang^3
#
#
#
# Elastic Constant Matrix: (Units=GPa)
#
#
# Indices 1 2 3 4 5 6 
#
# 1 168.8633 71.7168 87.4847 0.0000 0.0000 0.0000
# 2 71.7168 58.1981 59.2391 0.0000 0.0000 0.0000
# 3 87.4847 59.2391 109.8436 0.0000 0.0000 0.0000
# 4 0.0000 0.0000 0.0000 -17.6796 0.0000 0.0000
# 5 0.0000 0.0000 0.0000 0.0000 -5.7420 0.0000
# 6 0.0000 0.0000 0.0000 0.0000 0.0000 32.8413
#
#
#
# Elastic Compliance Matrix: (Units=1/GPa)
#
#
# Indices 1 2 3 4 5 6 
#
# 1 0.013114 -0.012258 -0.003834 0.000000 0.000000 0.000000
# 2 -0.012258 0.049552 -0.016961 0.000000 0.000000 0.000000
# 3 -0.003834 -0.016961 0.021305 0.000000 0.000000 0.000000
# 4 0.000000 0.000000 0.000000 -0.056562 0.000000 0.000000
# 5 0.000000 0.000000 0.000000 0.000000 -0.174156 0.000000
# 6 0.000000 0.000000 0.000000 0.000000 0.000000 0.030449
#
#
# Mechanical properties :
#
#
# Convention : Reuss Voigt Hill
#
# Bulk Modulus (GPa) = 55.97451 85.97626 70.97539
# Shear Modulus (GPa) = -113.03060 9.78156 -51.62452
#
# Velocity S-wave (km/s) = -7.85661 2.31122 -5.30964
# Velocity P-wave (km/s) = 7.19263 7.35352 1.08173
#
# Compressibility (1/GPa) = 0.01786527
#
# Stress axis : x y z
#
# Youngs Moduli (GPa) = 76.25252 20.18065 46.93802
#
# Poissons Ratio (x) = 0.24737 0.17997
# Poissons Ratio (y) = 0.93470 0.79612
# Poissons Ratio (z) = 0.29236 0.34228
#
# Static dielectric constant tensor:
#      x y z
#    x 1.596700 0.000000 0.000000 
#    y 0.000000 1.615300 0.000000 
#    z 0.000000 0.000000 1.644250 
# 
# From -- ./inp_files/49868.got.cif
#   From: 2010.05.17/outbox.cif.g08.bks.cpg/sg65_25_cif.got.tgz:49868.got - 2010.06.03 17:01:31.
