data_PCOD9487659
_publ_section_title
;
Structure prediction by ZEFSAII (Michael W. Deem and Ramdas Pophale) SiO2 
 PCOD9487659
Probable space group: C M M M
;
_chemical_formula_sum "Si O2"
_cell_formula_units_Z 88
_cell_length_a 17.284611
_cell_length_b 18.586134
_cell_length_c 13.833954
_cell_angle_alpha 90.000000
_cell_angle_beta 90.000000
_cell_angle_gamma 90.000000
_cell_volume 4444.214389
_symmetry_space_group_name_H-M "C M M M"
_symmetry_group_IT_number 65
_symmetry_cell_setting 'orthorhombic'
loop_
_space_group_symop_operation_xyz
x,y,z
-x,-y,z
x,-y,-z
-x,y,-z
-x,-y,-z
x,y,-z
-x,y,z
x,-y,z
1/2+x,1/2+y,z
1/2-x,1/2-y,z
1/2+x,1/2-y,-z
1/2-x,1/2+y,-z
1/2-x,1/2-y,-z
1/2+x,1/2+y,-z
1/2-x,1/2+y,z
1/2+x,1/2-y,z
loop_
_atom_site_type_symbol
_atom_site_label
_atom_site_fract_x
_atom_site_fract_y
_atom_site_fract_z
Si Si1 0.340407 0.658577 0.116771
Si Si2 0.238896 0.166459 0.615246
Si Si3 0.806864 0.414326 0.781902
Si Si4 0.412567 0.581741 0.382456
Si Si5 0.000000 0.082299 0.117652
Si Si6 0.910533 0.308388 0.884312
O O1 0.266660 0.619628 0.161426
O O2 0.419966 0.619246 0.146337
O O3 0.354240 0.742077 0.142451
O O4 0.333831 0.655125 0.000000
O O5 0.247857 0.158522 0.500000
O O6 0.250000 0.250000 0.639614
O O7 0.297364 0.116357 0.673919
O O8 0.153286 0.138332 0.643118
O O9 0.805412 0.500000 0.785645
O O10 0.881768 0.379365 0.831098
O O11 0.414611 0.580520 0.500000
O O12 0.500000 0.598016 0.350117
O O13 0.391950 0.500000 0.351762
O O14 0.000000 0.000000 0.148370
O O15 0.000000 0.084812 0.000000
O O16 0.000000 0.290203 0.862721
O O17 0.904907 0.317458 0.000000
#
# Coordination Sequence:
#
# PCOD9487659 Si02
#       6
#    16  16  16  16   8  16
#     4  10  19  36  59  86 121 156 192 236 288 349
#     4  10  21  39  60  82 113 153 198 247 300 357
#     4  12  25  38  57  88 121 156 199 247 299 355
#     4   8  14  28  53  82 110 140 174 219 279 342
#     4   9  16  28  50  80 118 158 186 217 274 346
#     4  10  21  40  65  89 116 157 204 247 296 350
#
# _framework density 19.801024999999999
#
# number of rings (size 3 to 8) (size 9 to 14) (size 15 to 20)
#    0.000    2.091    0.909    3.818    0.000    5.091 
#    1.636    1.818    0.000    1.636    0.000    1.273 
#    0.000    0.000    0.000    0.000    0.000    0.000 
#
# Total GULP energy -245956.912035 kJ/mol
# GULP energy per Si atom -5589.929819 kJ/mol
# Density = 1.975596 g / cm^3
# Si number density = 19.801025 Si / 1000 Ang^3
#
#
#
# Elastic Constant Matrix: (Units=GPa)
#
#
# Indices 1 2 3 4 5 6 
#
# 1 56.3889 46.7285 20.1670 0.0000 0.0000 0.0000
# 2 46.7285 161.5854 38.8875 0.0000 0.0000 0.0000
# 3 20.1670 38.8875 65.2493 0.0000 0.0000 0.0000
# 4 0.0000 0.0000 0.0000 14.5534 0.0000 0.0000
# 5 0.0000 0.0000 0.0000 0.0000 27.6168 0.0000
# 6 0.0000 0.0000 0.0000 0.0000 0.0000 37.3152
#
#
#
# Elastic Compliance Matrix: (Units=1/GPa)
#
#
# Indices 1 2 3 4 5 6 
#
# 1 0.024125 -0.006050 -0.003851 0.000000 0.000000 0.000000
# 2 -0.006050 0.008742 -0.003340 0.000000 0.000000 0.000000
# 3 -0.003851 -0.003340 0.018507 0.000000 0.000000 0.000000
# 4 0.000000 0.000000 0.000000 0.068712 0.000000 0.000000
# 5 0.000000 0.000000 0.000000 0.000000 0.036210 0.000000
# 6 0.000000 0.000000 0.000000 0.000000 0.000000 0.026799
#
#
# Mechanical properties :
#
#
# Convention : Reuss Voigt Hill
#
# Bulk Modulus (GPa) = 40.17395 54.97662 47.57528
# Shear Modulus (GPa) = 22.94911 27.72646 25.33778
#
# Velocity S-wave (km/s) = 3.40808 3.74606 3.58106
# Velocity P-wave (km/s) = 5.98494 6.82168 6.41697
#
# Compressibility (1/GPa) = 0.02489175
#
# Stress axis : x y z
#
# Youngs Moduli (GPa) = 41.45155 114.38919 54.03426
#
# Poissons Ratio (x) = 0.69203 0.20807
# Poissons Ratio (y) = 0.25077 0.18049
# Poissons Ratio (z) = 0.15962 0.38209
#
# Static dielectric constant tensor:
#      x y z
#    x 1.686000 0.000000 0.000000 
#    y 0.000000 1.671060 0.000000 
#    z 0.000000 0.000000 1.746690 
# 
# From -- ./inp_files/42462.got.cif
#   From: 2010.05.17/outbox.cif.g08.bks.cpg/sg65_22_cif.got.tgz:42462.got - 2010.06.03 17:01:31.
