data_PCOD9487495
_publ_section_title
;
Structure prediction by ZEFSAII (Michael W. Deem and Ramdas Pophale) SiO2 
 PCOD9487495
Probable space group: C M M M
;
_chemical_formula_sum "Si O2"
_cell_formula_units_Z 96
_cell_length_a 31.021659
_cell_length_b 12.489469
_cell_length_c 14.777350
_cell_angle_alpha 90.000000
_cell_angle_beta 90.000000
_cell_angle_gamma 90.000000
_cell_volume 5725.396309
_symmetry_space_group_name_H-M "C M M M"
_symmetry_group_IT_number 65
_symmetry_cell_setting 'orthorhombic'
loop_
_space_group_symop_operation_xyz
x,y,z
-x,-y,z
x,-y,-z
-x,y,-z
-x,-y,-z
x,y,-z
-x,y,z
x,-y,z
1/2+x,1/2+y,z
1/2-x,1/2-y,z
1/2+x,1/2-y,-z
1/2-x,1/2+y,-z
1/2-x,1/2-y,-z
1/2+x,1/2+y,-z
1/2-x,1/2+y,z
1/2+x,1/2-y,z
loop_
_atom_site_type_symbol
_atom_site_label
_atom_site_fract_x
_atom_site_fract_y
_atom_site_fract_z
Si Si1 0.448705 0.373059 0.604300
Si Si2 0.250000 0.750000 0.319679
Si Si3 0.686259 0.378101 0.804935
Si Si4 0.892246 0.734157 0.741019
Si Si5 0.228422 0.872962 0.000000
Si Si6 0.669927 0.124904 0.602341
Si Si7 0.449485 0.128847 0.103260
O O1 0.437272 0.346166 0.500000
O O2 0.500000 0.355255 0.614602
O O3 0.440891 0.500000 0.616257
O O4 0.422262 0.305412 0.676221
O O5 0.274362 0.665526 0.255503
O O6 0.287350 0.806712 0.376849
O O7 0.676790 0.500000 0.779982
O O8 0.644795 0.306339 0.785947
O O9 0.700886 0.372810 0.908666
O O10 0.866458 0.653185 0.675570
O O11 0.920151 0.679587 0.819507
O O12 0.250000 0.750000 0.000000
O O13 0.249031 0.000000 0.000000
O O14 0.654971 0.147772 0.500000
O O15 0.680722 0.000000 0.608767
O O16 0.500000 0.156546 0.116537
O O17 0.446227 0.000000 0.107818
O O18 0.437522 0.160711 0.000000
#
# Coordination Sequence:
#
# PCOD9487495 Si02
#       7
#    16   8  16  16   8  16  16
#     4   9  18  33  53  77 105 137 173 211 250 297
#     4  10  19  35  56  72  96 134 185 208 257 302
#     4  10  21  34  52  76 105 135 174 218 265 313
#     4  11  20  32  54  78 106 134 173 207 265 313
#     4  10  20  38  56  76 105 142 181 225 274 321
#     4  10  21  35  51  75 106 136 168 213 262 310
#     4   9  19  36  55  75 101 135 175 218 260 308
#
# _framework density 16.767398
#
# number of rings (size 3 to 8) (size 9 to 14) (size 15 to 20)
#    0.000    2.167    0.833    3.750    1.167    0.000 
#    0.000    0.833    0.000    8.000    0.000   10.500 
#    0.000    0.000    0.000    0.000    0.000    0.000 
#
# Total GULP energy -267470.902045 kJ/mol
# GULP energy per Si atom -5572.310459 kJ/mol
# Density = 1.672923 g / cm^3
# Si number density = 16.767398 Si / 1000 Ang^3
#
#
#
# Elastic Constant Matrix: (Units=GPa)
#
#
# Indices 1 2 3 4 5 6 
#
# 1 71.5671 32.9680 60.1168 0.0000 0.0000 0.0000
# 2 32.9680 72.1998 52.5428 0.0000 0.0000 0.0000
# 3 60.1168 52.5428 126.9642 0.0000 0.0000 0.0000
# 4 0.0000 0.0000 0.0000 39.7455 0.0000 0.0000
# 5 0.0000 0.0000 0.0000 0.0000 13.5539 0.0000
# 6 0.0000 0.0000 0.0000 0.0000 0.0000 14.0123
#
#
#
# Elastic Compliance Matrix: (Units=1/GPa)
#
#
# Indices 1 2 3 4 5 6 
#
# 1 0.023920 -0.003835 -0.009739 0.000000 0.000000 0.000000
# 2 -0.003835 0.020434 -0.006641 0.000000 0.000000 0.000000
# 3 -0.009739 -0.006641 0.015236 0.000000 0.000000 0.000000
# 4 0.000000 0.000000 0.000000 0.025160 0.000000 0.000000
# 5 0.000000 0.000000 0.000000 0.000000 0.073780 0.000000
# 6 0.000000 0.000000 0.000000 0.000000 0.000000 0.071366
#
#
# Mechanical properties :
#
#
# Convention : Reuss Voigt Hill
#
# Bulk Modulus (GPa) = 52.18942 62.44292 57.31617
# Shear Modulus (GPa) = 18.06927 21.80256 19.93592
#
# Velocity S-wave (km/s) = 3.28631 3.60987 3.45188
# Velocity P-wave (km/s) = 6.75225 7.39570 7.08129
#
# Compressibility (1/GPa) = 0.01916097
#
# Stress axis : x y z
#
# Youngs Moduli (GPa) = 41.80516 48.93732 65.63481
#
# Poissons Ratio (x) = 0.18768 0.63923
# Poissons Ratio (y) = 0.16033 0.43586
# Poissons Ratio (z) = 0.40715 0.32498
#
# Static dielectric constant tensor:
#      x y z
#    x 1.542830 0.000000 0.000000 
#    y 0.000000 1.572010 0.000000 
#    z 0.000000 0.000000 1.554900 
# 
# From -- ./inp_files/47735.got.cif
#   From: 2010.05.17/outbox.cif.g08.bks.cpg/sg65_24_cif.got.tgz:47735.got - 2010.06.03 17:01:31.
