data_PCOD9487369
_publ_section_title
;
Structure prediction by ZEFSAII (Michael W. Deem and Ramdas Pophale) SiO2 
 PCOD9487369
Probable space group: C M M M
;
_chemical_formula_sum "Si O2"
_cell_formula_units_Z 72
_cell_length_a 15.323593
_cell_length_b 10.311889
_cell_length_c 22.048608
_cell_angle_alpha 90.000000
_cell_angle_beta 90.000000
_cell_angle_gamma 90.000000
_cell_volume 3484.014984
_symmetry_space_group_name_H-M "C M M M"
_symmetry_group_IT_number 65
_symmetry_cell_setting 'orthorhombic'
loop_
_space_group_symop_operation_xyz
x,y,z
-x,-y,z
x,-y,-z
-x,y,-z
-x,-y,-z
x,y,-z
-x,y,z
x,-y,z
1/2+x,1/2+y,z
1/2-x,1/2-y,z
1/2+x,1/2-y,-z
1/2-x,1/2+y,-z
1/2-x,1/2-y,-z
1/2+x,1/2+y,-z
1/2-x,1/2+y,z
1/2+x,1/2-y,z
loop_
_atom_site_type_symbol
_atom_site_label
_atom_site_fract_x
_atom_site_fract_y
_atom_site_fract_z
Si Si1 0.394804 0.246365 0.855538
Si Si2 0.606704 0.000000 0.068442
Si Si3 0.392976 0.500000 0.928859
Si Si4 0.602258 0.857984 0.405030
Si Si5 0.107099 0.148420 0.500000
Si Si6 0.327764 0.846843 0.726117
O O1 0.500000 0.249955 0.855385
O O2 0.365108 0.126641 0.896296
O O3 0.364751 0.375819 0.889587
O O4 0.366040 0.214959 0.787452
O O5 0.500000 0.000000 0.067792
O O6 0.637249 0.000000 0.000000
O O7 0.500000 0.500000 0.930367
O O8 0.366080 0.500000 0.000000
O O9 0.500000 0.864319 0.420154
O O10 0.635911 0.734539 0.442204
O O11 0.611036 0.843704 0.332810
O O12 0.640997 0.000000 0.421123
O O13 0.000000 0.141337 0.500000
O O14 0.137971 0.000000 0.500000
O O15 0.250000 0.750000 0.709560
O O16 0.305496 0.000000 0.736433
#
# Coordination Sequence:
#
# PCOD9487369 Si02
#       6
#    16   8   8  16   8  16
#     4  10  19  34  57  83 110 142 183 227 275 329
#     4   9  16  28  53  85 109 132 173 230 279 321
#     4   9  18  32  53  85 117 140 171 224 285 337
#     4   9  18  35  60  85 111 145 185 224 267 322
#     4   9  17  31  54  89 122 143 171 221 276 321
#     4  11  24  39  56  79 111 149 189 232 277 326
#
# _framework density 20.665811999999999
#
# number of rings (size 3 to 8) (size 9 to 14) (size 15 to 20)
#    0.000    2.333    1.111    1.667    1.556    5.778 
#    0.000    0.556    0.000    4.000    0.000    0.000 
#    0.000    0.000    0.000    0.000    0.000    0.000 
#
# Total GULP energy -200786.431949 kJ/mol
# GULP energy per Si atom -5577.400887 kJ/mol
# Density = 2.061878 g / cm^3
# Si number density = 20.665812 Si / 1000 Ang^3
#
#
#
# Elastic Constant Matrix: (Units=GPa)
#
#
# Indices 1 2 3 4 5 6 
#
# 1 27.1797 16.0319 -1.5220 0.0000 0.0000 0.0000
# 2 16.0319 219.1016 90.8460 0.0000 0.0000 0.0000
# 3 -1.5220 90.8460 150.8586 0.0000 0.0000 0.0000
# 4 0.0000 0.0000 0.0000 38.3540 0.0000 0.0000
# 5 0.0000 0.0000 0.0000 0.0000 -37.2032 0.0000
# 6 0.0000 0.0000 0.0000 0.0000 0.0000 -14.7099
#
#
#
# Elastic Compliance Matrix: (Units=1/GPa)
#
#
# Indices 1 2 3 4 5 6 
#
# 1 0.039344 -0.004056 0.002840 0.000000 0.000000 0.000000
# 2 -0.004056 0.006501 -0.003956 0.000000 0.000000 0.000000
# 3 0.002840 -0.003956 0.009040 0.000000 0.000000 0.000000
# 4 0.000000 0.000000 0.000000 0.026073 0.000000 0.000000
# 5 0.000000 0.000000 0.000000 0.000000 -0.026879 0.000000
# 6 0.000000 0.000000 0.000000 0.000000 0.000000 -0.067982
#
#
# Mechanical properties :
#
#
# Convention : Reuss Voigt Hill
#
# Bulk Modulus (GPa) = 22.45203 67.53906 44.99554
# Shear Modulus (GPa) = 442.95941 16.74045 229.84993
#
# Velocity S-wave (km/s) = 14.65638 2.84924 10.55764
# Velocity P-wave (km/s) = 17.24240 6.60126 13.05521
#
# Compressibility (1/GPa) = 0.04453941
#
# Stress axis : x y z
#
# Youngs Moduli (GPa) = 25.41702 153.82026 110.62498
#
# Poissons Ratio (x) = 0.62392 -0.31412
# Poissons Ratio (y) = 0.10310 0.43761
# Poissons Ratio (z) = -0.07217 0.60849
#
# Static dielectric constant tensor:
#      x y z
#    x 1.759830 0.000000 0.000000 
#    y 0.000000 1.802060 0.000000 
#    z 0.000000 0.000000 1.725290 
# 
# From -- ./inp_files/64419.got.cif
#   From: 2010.05.17/outbox.cif.g08.bks.cpg/sg65_33_cif.got.tgz:64419.got - 2010.06.03 17:01:31.
