data_PCOD9487210
_publ_section_title
;
Structure prediction by ZEFSAII (Michael W. Deem and Ramdas Pophale) SiO2 
 PCOD9487210
Probable space group: C M M M
;
_chemical_formula_sum "Si O2"
_cell_formula_units_Z 64
_cell_length_a 15.408378
_cell_length_b 26.430472
_cell_length_c 7.588745
_cell_angle_alpha 90.000000
_cell_angle_beta 90.000000
_cell_angle_gamma 90.000000
_cell_volume 3090.521738
_symmetry_space_group_name_H-M "C M M M"
_symmetry_group_IT_number 65
_symmetry_cell_setting 'orthorhombic'
loop_
_space_group_symop_operation_xyz
x,y,z
-x,-y,z
x,-y,-z
-x,y,-z
-x,-y,-z
x,y,-z
-x,y,z
x,-y,z
1/2+x,1/2+y,z
1/2-x,1/2-y,z
1/2+x,1/2-y,-z
1/2-x,1/2+y,-z
1/2-x,1/2-y,-z
1/2+x,1/2+y,-z
1/2-x,1/2+y,z
1/2+x,1/2-y,z
loop_
_atom_site_type_symbol
_atom_site_label
_atom_site_fract_x
_atom_site_fract_y
_atom_site_fract_z
Si Si1 0.500000 0.442805 0.784829
Si Si2 0.640293 0.637757 0.787276
Si Si3 0.500000 0.165745 0.201145
Si Si4 0.101270 0.500000 0.785488
Si Si5 0.500000 0.721483 0.701276
Si Si6 0.669384 0.109399 0.216075
O O1 0.500000 0.500000 0.722443
O O2 0.416299 0.410661 0.730006
O O3 0.500000 0.443734 0.000000
O O4 0.584365 0.686782 0.735771
O O5 0.738445 0.631531 0.723999
O O6 0.641407 0.637831 0.000000
O O7 0.500000 0.226050 0.196963
O O8 0.588491 0.143254 0.277840
O O9 0.500000 0.146368 0.000000
O O10 0.149505 0.448487 0.731503
O O11 0.000000 0.500000 0.729368
O O12 0.100018 0.500000 0.000000
O O13 0.500000 0.736933 0.500000
O O14 0.672756 0.110097 0.000000
#
# Coordination Sequence:
#
# PCOD9487210 Si02
#       6
#     8  16   8   8   8  16
#     4   8  14  24  42  71 102 129 162 205 246 286
#     4   9  18  33  52  77 107 137 171 211 257 308
#     4  10  19  34  54  78 107 138 173 212 258 309
#     4   9  14  24  44  79 122 145 159 200 256 305
#     4  11  23  39  55  71  96 135 180 228 273 307
#     4   9  17  28  49  81 113 142 169 203 253 310
#
# _framework density 20.708476999999998
#
# number of rings (size 3 to 8) (size 9 to 14) (size 15 to 20)
#    0.000    2.750    1.250    1.875    1.750    1.000 
#    0.000    6.250    0.000    6.000    0.000    3.500 
#    0.000    0.000    0.000    0.000    0.000    0.000 
#
# Total GULP energy -178552.194748 kJ/mol
# GULP energy per Si atom -5579.756086 kJ/mol
# Density = 2.066134 g / cm^3
# Si number density = 20.708477 Si / 1000 Ang^3
#
#
#
# Elastic Constant Matrix: (Units=GPa)
#
#
# Indices 1 2 3 4 5 6 
#
# 1 203.1642 75.5380 6.2453 0.0000 0.0000 0.0000
# 2 75.5380 133.8404 -9.6725 0.0000 0.0000 0.0000
# 3 6.2453 -9.6725 47.1306 0.0000 0.0000 0.0000
# 4 0.0000 0.0000 0.0000 -39.3764 0.0000 0.0000
# 5 0.0000 0.0000 0.0000 0.0000 -33.7371 0.0000
# 6 0.0000 0.0000 0.0000 0.0000 0.0000 5.0357
#
#
#
# Elastic Compliance Matrix: (Units=1/GPa)
#
#
# Indices 1 2 3 4 5 6 
#
# 1 0.006346 -0.003697 -0.001600 0.000000 0.000000 0.000000
# 2 -0.003697 0.009738 0.002488 0.000000 0.000000 0.000000
# 3 -0.001600 0.002488 0.021940 0.000000 0.000000 0.000000
# 4 0.000000 0.000000 0.000000 -0.025396 0.000000 0.000000
# 5 0.000000 0.000000 0.000000 0.000000 -0.029641 0.000000
# 6 0.000000 0.000000 0.000000 0.000000 0.000000 0.198581
#
#
# Mechanical properties :
#
#
# Convention : Reuss Voigt Hill
#
# Bulk Modulus (GPa) = 30.85706 58.70631 44.78168
# Shear Modulus (GPa) = 25.25411 7.18607 16.22009
#
# Velocity S-wave (km/s) = 3.49593 1.86484 2.80171
# Velocity P-wave (km/s) = 5.58824 5.74868 5.66903
#
# Compressibility (1/GPa) = 0.03240750
#
# Stress axis : x y z
#
# Youngs Moduli (GPa) = 157.58098 102.68973 45.57820
#
# Poissons Ratio (x) = 0.37966 0.07291
# Poissons Ratio (y) = 0.58261 -0.11342
# Poissons Ratio (z) = 0.25208 -0.25554
#
# Static dielectric constant tensor:
#      x y z
#    x 1.732720 0.000000 0.000000 
#    y 0.000000 1.697420 0.000000 
#    z 0.000000 0.000000 1.769130 
# 
# From -- ./inp_files/7124.got.cif
#   From: 2010.05.17/outbox.cif.g08.bks.cpg/sg65_4_cif.got.tgz:7124.got - 2010.06.03 17:01:31.
