data_PCOD9487789
_publ_section_title
;
Structure prediction by ZEFSAII (Michael W. Deem and Ramdas Pophale) SiO2 
 PCOD9487789
Probable space group: C M M M
;
_chemical_formula_sum "Si O2"
_cell_formula_units_Z 80
_cell_length_a 8.988038
_cell_length_b 29.195083
_cell_length_c 21.461031
_cell_angle_alpha 90.000000
_cell_angle_beta 90.000000
_cell_angle_gamma 90.000000
_cell_volume 5631.514362
_symmetry_space_group_name_H-M "C M M M"
_symmetry_group_IT_number 65
_symmetry_cell_setting 'orthorhombic'
loop_
_space_group_symop_operation_xyz
x,y,z
-x,-y,z
x,-y,-z
-x,y,-z
-x,-y,-z
x,y,-z
-x,y,z
x,-y,z
1/2+x,1/2+y,z
1/2-x,1/2-y,z
1/2+x,1/2-y,-z
1/2-x,1/2+y,-z
1/2-x,1/2-y,-z
1/2+x,1/2+y,-z
1/2-x,1/2+y,z
1/2+x,1/2-y,z
loop_
_atom_site_type_symbol
_atom_site_label
_atom_site_fract_x
_atom_site_fract_y
_atom_site_fract_z
Si Si1 0.672776 0.055747 0.864489
Si Si2 0.178819 0.603628 0.380945
Si Si3 0.323349 0.445556 0.735923
Si Si4 0.323198 0.445341 0.500000
Si Si5 0.821642 0.702496 0.572846
Si Si6 0.318491 0.052965 0.000000
O O1 0.500000 0.068852 0.855209
O O2 0.768680 0.068657 0.804703
O O3 0.725128 0.072828 0.932697
O O4 0.675204 0.000000 0.867906
O O5 0.239464 0.582200 0.317452
O O6 0.248989 0.576389 0.438942
O O7 0.220356 0.657040 0.389574
O O8 0.000000 0.600152 0.383835
O O9 0.500000 0.439698 0.729886
O O10 0.290518 0.500000 0.728752
O O11 0.301827 0.500000 0.500000
O O12 0.500000 0.436182 0.500000
O O13 0.778857 0.695499 0.500000
O O14 0.750000 0.750000 0.594298
O O15 0.000000 0.706807 0.574748
O O16 0.500000 0.052350 0.000000
O O17 0.268172 0.000000 0.000000
#
# Coordination Sequence:
#
# PCOD9487789 Si02
#       6
#    16  16  16   8  16   8
#     4   8  13  23  39  57  77 106 143 179 214 250
#     4  11  21  34  49  65  84 109 143 178 211 253
#     4  10  20  31  41  58  86 117 149 182 215 253
#     4  11  23  35  46  63  86 111 142 179 216 251
#     4   9  18  33  50  69  87 102 128 168 213 262
#     4   7  10  18  35  57  77  99 136 181 214 245
#
# _framework density 14.205771
#
# number of rings (size 3 to 8) (size 9 to 14) (size 15 to 20)
#    0.000    2.600    1.000    3.300    0.000    6.000 
#    0.000    0.500    0.000    3.000    0.000    0.000 
#    0.000    0.000    0.000    0.900    0.000   10.700 
#
# Total GULP energy -222821.922630 kJ/mol
# GULP energy per Si atom -5570.548066 kJ/mol
# Density = 1.417344 g / cm^3
# Si number density = 14.205771 Si / 1000 Ang^3
#
#
#
# Elastic Constant Matrix: (Units=GPa)
#
#
# Indices 1 2 3 4 5 6 
#
# 1 46.9315 43.6319 46.2657 0.0000 0.0000 0.0000
# 2 43.6319 72.7748 54.4296 0.0000 0.0000 0.0000
# 3 46.2657 54.4296 127.3821 0.0000 0.0000 0.0000
# 4 0.0000 0.0000 0.0000 0.5253 0.0000 0.0000
# 5 0.0000 0.0000 0.0000 0.0000 7.6306 0.0000
# 6 0.0000 0.0000 0.0000 0.0000 0.0000 19.2245
#
#
#
# Elastic Compliance Matrix: (Units=1/GPa)
#
#
# Indices 1 2 3 4 5 6 
#
# 1 0.053683 -0.025870 -0.008444 0.000000 0.000000 0.000000
# 2 -0.025870 0.032662 -0.004560 0.000000 0.000000 0.000000
# 3 -0.008444 -0.004560 0.012866 0.000000 0.000000 0.000000
# 4 0.000000 0.000000 0.000000 1.903699 0.000000 0.000000
# 5 0.000000 0.000000 0.000000 0.000000 0.131051 0.000000
# 6 0.000000 0.000000 0.000000 0.000000 0.000000 0.052017
#
#
# Mechanical properties :
#
#
# Convention : Reuss Voigt Hill
#
# Bulk Modulus (GPa) = 46.59267 59.52699 53.05983
# Shear Modulus (GPa) = 2.20179 12.32682 7.26430
#
# Velocity S-wave (km/s) = 1.24631 2.94893 2.26379
# Velocity P-wave (km/s) = 5.91106 7.32047 6.65319
#
# Compressibility (1/GPa) = 0.02146260
#
# Stress axis : x y z
#
# Youngs Moduli (GPa) = 18.62783 30.61645 77.72630
#
# Poissons Ratio (x) = 0.79206 0.65629
# Poissons Ratio (y) = 0.48191 0.35444
# Poissons Ratio (z) = 0.15729 0.13961
#
# Static dielectric constant tensor:
#      x y z
#    x 1.472640 0.000000 0.000000 
#    y 0.000000 1.445020 0.000000 
#    z 0.000000 0.000000 1.482020 
# 
# From -- ./inp_files/60548.got.cif
#   From: 2010.05.17/outbox.cif.g08.bks.cpg/sg65_31_cif.got.tgz:60548.got - 2010.06.03 17:01:31.
