data_PCOD9487982
_publ_section_title
;
Structure prediction by ZEFSAII (Michael W. Deem and Ramdas Pophale) SiO2 
 PCOD9487982
Probable space group: C M M M
;
_chemical_formula_sum "Si O2"
_cell_formula_units_Z 104
_cell_length_a 28.211853
_cell_length_b 8.770725
_cell_length_c 27.482441
_cell_angle_alpha 90.000000
_cell_angle_beta 90.000000
_cell_angle_gamma 90.000000
_cell_volume 6800.211350
_symmetry_space_group_name_H-M "C M M M"
_symmetry_group_IT_number 65
_symmetry_cell_setting 'orthorhombic'
loop_
_space_group_symop_operation_xyz
x,y,z
-x,-y,z
x,-y,-z
-x,y,-z
-x,-y,-z
x,y,-z
-x,y,z
x,-y,z
1/2+x,1/2+y,z
1/2-x,1/2-y,z
1/2+x,1/2-y,-z
1/2-x,1/2+y,-z
1/2-x,1/2-y,-z
1/2+x,1/2+y,-z
1/2-x,1/2+y,z
1/2+x,1/2-y,z
loop_
_atom_site_type_symbol
_atom_site_label
_atom_site_fract_x
_atom_site_fract_y
_atom_site_fract_z
Si Si1 0.555497 0.183484 0.944501
Si Si2 0.802959 0.183558 0.500000
Si Si3 0.803169 0.815523 0.393440
Si Si4 0.301320 0.317255 0.799406
Si Si5 0.603553 0.682692 0.851051
Si Si6 0.554340 0.817232 0.756425
Si Si7 0.857653 0.815771 0.297187
O O1 0.500000 0.222469 0.936802
O O2 0.586826 0.259981 0.903242
O O3 0.559240 0.000000 0.940797
O O4 0.567942 0.226630 0.000000
O O5 0.750000 0.250000 0.500000
O O6 0.822795 0.228962 0.552920
O O7 0.800983 0.000000 0.500000
O O8 0.750000 0.750000 0.388106
O O9 0.836257 0.767006 0.348813
O O10 0.799784 0.000000 0.391708
O O11 0.297887 0.500000 0.799921
O O12 0.250000 0.250000 0.808998
O O13 0.342625 0.272232 0.837141
O O14 0.321244 0.272202 0.746111
O O15 0.600416 0.500000 0.848137
O O16 0.570575 0.752687 0.808785
O O17 0.500000 0.773344 0.746444
O O18 0.591861 0.753272 0.717544
O O19 0.557326 0.000000 0.757778
O O20 0.861646 0.000000 0.296544
#
# Coordination Sequence:
#
# PCOD9487982 Si02
#       7
#    16   8  16  16  16  16  16
#     4   9  18  32  49  70  95 120 147 180 217 258
#     4   8  14  24  38  58  85 116 147 179 216 257
#     4   9  16  26  41  62  89 119 149 181 217 259
#     4   9  18  30  43  62  87 114 145 179 213 251
#     4  10  20  32  47  69  94 118 146 179 215 258
#     4  10  20  32  46  65  88 114 145 179 216 261
#     4   9  18  30  43  63  89 115 145 180 219 260
#
# _framework density 15.293642
#
# number of rings (size 3 to 8) (size 9 to 14) (size 15 to 20)
#    0.000    2.769    0.000    3.231    0.000    7.385 
#    0.000    0.769    0.000    0.462    0.000    0.538 
#    0.000    4.308    0.000    0.000    0.000    0.000 
#
# Total GULP energy -289701.171532 kJ/mol
# GULP energy per Si atom -5571.176376 kJ/mol
# Density = 1.525883 g / cm^3
# Si number density = 15.293642 Si / 1000 Ang^3
#
#
#
# Elastic Constant Matrix: (Units=GPa)
#
#
# Indices 1 2 3 4 5 6 
#
# 1 116.4965 31.0797 81.7902 0.0000 0.0000 0.0000
# 2 31.0797 17.7492 33.1119 0.0000 0.0000 0.0000
# 3 81.7902 33.1119 151.3670 0.0000 0.0000 0.0000
# 4 0.0000 0.0000 0.0000 17.5054 0.0000 0.0000
# 5 0.0000 0.0000 0.0000 0.0000 22.9367 0.0000
# 6 0.0000 0.0000 0.0000 0.0000 0.0000 26.1704
#
#
#
# Elastic Compliance Matrix: (Units=1/GPa)
#
#
# Indices 1 2 3 4 5 6 
#
# 1 0.017938 -0.022518 -0.004767 0.000000 0.000000 0.000000
# 2 -0.022518 0.123451 -0.014838 0.000000 0.000000 0.000000
# 3 -0.004767 -0.014838 0.012428 0.000000 0.000000 0.000000
# 4 0.000000 0.000000 0.000000 0.057125 0.000000 0.000000
# 5 0.000000 0.000000 0.000000 0.000000 0.043598 0.000000
# 6 0.000000 0.000000 0.000000 0.000000 0.000000 0.038211
#
#
# Mechanical properties :
#
#
# Convention : Reuss Voigt Hill
#
# Bulk Modulus (GPa) = 14.37354 64.17512 39.27433
# Shear Modulus (GPa) = 12.49413 22.63124 17.56268
#
# Velocity S-wave (km/s) = 2.86133 3.85097 3.39243
# Velocity P-wave (km/s) = 4.50944 7.86297 6.40942
#
# Compressibility (1/GPa) = 0.06957227
#
# Stress axis : x y z
#
# Youngs Moduli (GPa) = 55.74706 8.10037 80.46279
#
# Poissons Ratio (x) = 0.18240 0.38357
# Poissons Ratio (y) = 1.25529 1.19390
# Poissons Ratio (z) = 0.26575 0.12019
#
# Static dielectric constant tensor:
#      x y z
#    x 1.483790 0.000000 0.000000 
#    y 0.000000 1.517230 0.000000 
#    z 0.000000 0.000000 1.522920 
# 
# From -- ./inp_files/76028.got.cif
#   From: 2010.05.17/outbox.cif.g08.bks.cpg/sg65_39_cif.got.tgz:76028.got - 2010.06.03 17:01:31.
