data_PCOD9487571
_publ_section_title
;
Structure prediction by ZEFSAII (Michael W. Deem and Ramdas Pophale) SiO2 
 PCOD9487571
Probable space group: C M M M
;
_chemical_formula_sum "Si O2"
_cell_formula_units_Z 72
_cell_length_a 28.987576
_cell_length_b 7.674041
_cell_length_c 14.019034
_cell_angle_alpha 90.000000
_cell_angle_beta 90.000000
_cell_angle_gamma 90.000000
_cell_volume 3118.560002
_symmetry_space_group_name_H-M "C M M M"
_symmetry_group_IT_number 65
_symmetry_cell_setting 'orthorhombic'
loop_
_space_group_symop_operation_xyz
x,y,z
-x,-y,z
x,-y,-z
-x,y,-z
-x,-y,-z
x,y,-z
-x,y,z
x,-y,z
1/2+x,1/2+y,z
1/2-x,1/2-y,z
1/2+x,1/2-y,-z
1/2-x,1/2+y,-z
1/2-x,1/2-y,-z
1/2+x,1/2+y,-z
1/2-x,1/2+y,z
1/2+x,1/2-y,z
loop_
_atom_site_type_symbol
_atom_site_label
_atom_site_fract_x
_atom_site_fract_y
_atom_site_fract_z
Si Si1 0.196466 0.295188 0.500000
Si Si2 0.549447 0.798935 0.114420
Si Si3 0.854331 0.792416 0.694938
Si Si4 0.152710 0.199168 0.893451
Si Si5 0.448583 0.287660 0.389010
O O1 0.250000 0.250000 0.500000
O O2 0.173505 0.229280 0.597390
O O3 0.309848 0.000000 0.500000
O O4 0.500000 0.726159 0.149713
O O5 0.597366 0.699789 0.126099
O O6 0.553804 0.000000 0.146196
O O7 0.545669 0.805065 0.000000
O O8 0.831203 0.720584 0.792450
O O9 0.905935 0.723031 0.673183
O O10 0.858079 0.000000 0.709755
O O11 0.169292 0.000000 0.899870
O O12 0.160129 0.277741 0.000000
O O13 0.440240 0.243229 0.500000
O O14 0.500000 0.226530 0.364056
O O15 0.448815 0.500000 0.384102
#
# Coordination Sequence:
#
# PCOD9487571 Si02
#       5
#     8  16  16  16  16
#     4  12  26  44  67  92 115 137 174 227 285 346
#     4   8  14  25  40  59  91 141 196 243 283 321
#     4  10  19  35  59  84 116 154 192 233 280 332
#     4   9  18  30  47  76 111 147 187 231 276 325
#     4   8  13  23  44  74 106 145 193 234 269 319
#
# _framework density 23.087579999999999
#
# number of rings (size 3 to 8) (size 9 to 14) (size 15 to 20)
#    0.000    2.889    1.111    2.333    0.000    2.222 
#    0.000    4.444    0.000    2.000    0.000    0.000 
#    0.000    0.000    0.000    0.000    0.000    0.000 
#
# Total GULP energy -200598.325779 kJ/mol
# GULP energy per Si atom -5572.175716 kJ/mol
# Density = 2.303503 g / cm^3
# Si number density = 23.087580 Si / 1000 Ang^3
#
#
#
# Elastic Constant Matrix: (Units=GPa)
#
#
# Indices 1 2 3 4 5 6 
#
# 1 43.2590 -5.4947 44.7988 0.0000 0.0000 0.0000
# 2 -5.4947 52.4632 8.7731 0.0000 0.0000 0.0000
# 3 44.7988 8.7731 244.4242 0.0000 0.0000 0.0000
# 4 0.0000 0.0000 0.0000 5.3460 0.0000 0.0000
# 5 0.0000 0.0000 0.0000 0.0000 -4.1619 0.0000
# 6 0.0000 0.0000 0.0000 0.0000 0.0000 20.5461
#
#
#
# Elastic Compliance Matrix: (Units=1/GPa)
#
#
# Indices 1 2 3 4 5 6 
#
# 1 0.029342 0.003996 -0.005521 0.000000 0.000000 0.000000
# 2 0.003996 0.019720 -0.001440 0.000000 0.000000 0.000000
# 3 -0.005521 -0.001440 0.005155 0.000000 0.000000 0.000000
# 4 0.000000 0.000000 0.000000 0.187057 0.000000 0.000000
# 5 0.000000 0.000000 0.000000 0.000000 -0.240277 0.000000
# 6 0.000000 0.000000 0.000000 0.000000 0.000000 0.048671
#
#
# Mechanical properties :
#
#
# Convention : Reuss Voigt Hill
#
# Bulk Modulus (GPa) = 20.70951 48.47785 34.59368
# Shear Modulus (GPa) = 69.74036 23.81734 46.77885
#
# Velocity S-wave (km/s) = 5.50204 3.21535 4.50616
# Velocity P-wave (km/s) = 7.02515 5.90149 6.48769
#
# Compressibility (1/GPa) = 0.04828699
#
# Stress axis : x y z
#
# Youngs Moduli (GPa) = 34.08073 50.70894 193.98973
#
# Poissons Ratio (x) = -0.20266 1.07108
# Poissons Ratio (y) = -0.13620 0.27940
# Poissons Ratio (z) = 0.18817 0.07304
#
# Static dielectric constant tensor:
#      x y z
#    x 1.862400 0.000000 0.000000 
#    y 0.000000 1.855060 0.000000 
#    z 0.000000 0.000000 2.019880 
# 
# From -- ./inp_files/46510.got.cif
#   From: 2010.05.17/outbox.cif.g08.bks.cpg/sg65_24_cif.got.tgz:46510.got - 2010.06.03 17:01:31.
