data_PCOD9487844
_publ_section_title
;
Structure prediction by ZEFSAII (Michael W. Deem and Ramdas Pophale) SiO2 
 PCOD9487844
Probable space group: C M M M
;
_chemical_formula_sum "Si O2"
_cell_formula_units_Z 104
_cell_length_a 31.248047
_cell_length_b 8.774443
_cell_length_c 23.327872
_cell_angle_alpha 90.000000
_cell_angle_beta 90.000000
_cell_angle_gamma 90.000000
_cell_volume 6396.134091
_symmetry_space_group_name_H-M "C M M M"
_symmetry_group_IT_number 65
_symmetry_cell_setting 'orthorhombic'
loop_
_space_group_symop_operation_xyz
x,y,z
-x,-y,z
x,-y,-z
-x,y,-z
-x,-y,-z
x,y,-z
-x,y,z
x,-y,z
1/2+x,1/2+y,z
1/2-x,1/2-y,z
1/2+x,1/2-y,-z
1/2-x,1/2+y,-z
1/2-x,1/2-y,-z
1/2+x,1/2+y,-z
1/2-x,1/2+y,z
1/2+x,1/2-y,z
loop_
_atom_site_type_symbol
_atom_site_label
_atom_site_fract_x
_atom_site_fract_y
_atom_site_fract_z
Si Si1 0.408319 0.678120 0.598484
Si Si2 0.118936 0.176192 0.730542
Si Si3 0.321061 0.182939 0.562180
Si Si4 0.500000 0.675126 0.431763
Si Si5 0.794677 0.317221 0.688869
Si Si6 0.049840 0.318381 0.183753
Si Si7 0.551785 0.322728 0.936924
O O1 0.407290 0.500000 0.579416
O O2 0.399502 0.681605 0.666027
O O3 0.370481 0.767672 0.567642
O O4 0.455221 0.744441 0.587256
O O5 0.164418 0.261287 0.724979
O O6 0.083710 0.247302 0.772440
O O7 0.126126 0.000000 0.746004
O O8 0.304523 0.238777 0.500000
O O9 0.300594 0.237698 0.622186
O O10 0.317797 0.000000 0.562389
O O11 0.500000 0.500000 0.408956
O O12 0.500000 0.668976 0.500000
O O13 0.793640 0.500000 0.688714
O O14 0.750000 0.250000 0.710157
O O15 0.050143 0.500000 0.189351
O O16 0.063286 0.271566 0.119238
O O17 0.000000 0.266620 0.192884
O O18 0.500000 0.319630 0.938714
O O19 0.564341 0.500000 0.929982
O O20 0.566734 0.269426 0.000000
#
# Coordination Sequence:
#
# PCOD9487844 Si02
#       7
#    16  16  16   8  16  16  16
#     4   9  18  30  45  63  83 113 151 192 235 278
#     4  10  20  33  50  69  92 123 162 201 241 285
#     4   9  18  32  48  66  90 116 141 178 231 288
#     4   9  16  26  41  61  83 107 142 189 234 273
#     4  10  20  35  53  71  94 119 150 191 240 295
#     4  10  20  31  45  69 101 136 171 204 241 282
#     4   8  14  26  44  66  94 130 170 207 241 276
#
# _framework density 16.259822
#
# number of rings (size 3 to 8) (size 9 to 14) (size 15 to 20)
#    0.000    2.692    0.000    2.308    1.077    3.692 
#    0.000    1.923    0.000    1.385    0.000    0.000 
#    0.000    0.615    0.000    2.308    0.000    3.538 
#
# Total GULP energy -289657.173298 kJ/mol
# GULP energy per Si atom -5570.330256 kJ/mol
# Density = 1.622281 g / cm^3
# Si number density = 16.259822 Si / 1000 Ang^3
#
#
#
# Elastic Constant Matrix: (Units=GPa)
#
#
# Indices 1 2 3 4 5 6 
#
# 1 104.6656 26.7311 33.9708 0.0000 0.0000 0.0000
# 2 26.7311 40.5361 30.0730 0.0000 0.0000 0.0000
# 3 33.9708 30.0730 78.1123 0.0000 0.0000 0.0000
# 4 0.0000 0.0000 0.0000 20.0931 0.0000 0.0000
# 5 0.0000 0.0000 0.0000 0.0000 4.1224 0.0000
# 6 0.0000 0.0000 0.0000 0.0000 0.0000 23.0067
#
#
#
# Elastic Compliance Matrix: (Units=1/GPa)
#
#
# Indices 1 2 3 4 5 6 
#
# 1 0.011982 -0.005649 -0.003036 0.000000 0.000000 0.000000
# 2 -0.005649 0.037196 -0.011864 0.000000 0.000000 0.000000
# 3 -0.003036 -0.011864 0.018690 0.000000 0.000000 0.000000
# 4 0.000000 0.000000 0.000000 0.049768 0.000000 0.000000
# 5 0.000000 0.000000 0.000000 0.000000 0.242580 0.000000
# 6 0.000000 0.000000 0.000000 0.000000 0.000000 0.043466
#
#
# Mechanical properties :
#
#
# Convention : Reuss Voigt Hill
#
# Bulk Modulus (GPa) = 37.35447 44.98485 41.16966
# Shear Modulus (GPa) = 11.02041 18.28036 14.65038
#
# Velocity S-wave (km/s) = 2.60623 3.35664 3.00495
# Velocity P-wave (km/s) = 5.66391 6.53828 6.11674
#
# Compressibility (1/GPa) = 0.02677056
#
# Stress axis : x y z
#
# Youngs Moduli (GPa) = 83.45528 26.88457 53.50472
#
# Poissons Ratio (x) = 0.15188 0.16245
# Poissons Ratio (y) = 0.47146 0.63476
# Poissons Ratio (z) = 0.25339 0.31895
#
# Static dielectric constant tensor:
#      x y z
#    x 1.542480 0.000000 0.000000 
#    y 0.000000 1.560990 0.000000 
#    z 0.000000 0.000000 1.555020 
# 
# From -- ./inp_files/72116.got.cif
#   From: 2010.05.17/outbox.cif.g08.bks.cpg/sg65_37_cif.got.tgz:72116.got - 2010.06.03 17:01:31.
