data_PCOD9487267
_publ_section_title
;
Structure prediction by ZEFSAII (Michael W. Deem and Ramdas Pophale) SiO2 
 PCOD9487267
Probable space group: C M M M
;
_chemical_formula_sum "Si O2"
_cell_formula_units_Z 104
_cell_length_a 27.471743
_cell_length_b 16.690903
_cell_length_c 12.264808
_cell_angle_alpha 90.000000
_cell_angle_beta 90.000000
_cell_angle_gamma 90.000000
_cell_volume 5623.760307
_symmetry_space_group_name_H-M "C M M M"
_symmetry_group_IT_number 65
_symmetry_cell_setting 'orthorhombic'
loop_
_space_group_symop_operation_xyz
x,y,z
-x,-y,z
x,-y,-z
-x,y,-z
-x,-y,-z
x,y,-z
-x,y,z
x,-y,z
1/2+x,1/2+y,z
1/2-x,1/2-y,z
1/2+x,1/2-y,-z
1/2-x,1/2+y,-z
1/2-x,1/2-y,-z
1/2+x,1/2+y,-z
1/2-x,1/2+y,z
1/2+x,1/2-y,z
loop_
_atom_site_type_symbol
_atom_site_label
_atom_site_fract_x
_atom_site_fract_y
_atom_site_fract_z
Si Si1 0.690030 0.633569 0.258306
Si Si2 0.440961 0.592480 0.500000
Si Si3 0.787287 0.404426 0.124936
Si Si4 0.094130 0.909998 0.128406
Si Si5 0.200921 0.860010 0.500000
Si Si6 0.055550 0.794154 0.297423
Si Si7 0.684478 0.172684 0.500000
Si Si8 0.647619 0.189478 0.725365
O O1 0.741730 0.618302 0.202059
O O2 0.647024 0.597815 0.184808
O O3 0.687938 0.602594 0.383214
O O4 0.679747 0.728913 0.264649
O O5 0.423192 0.500000 0.500000
O O6 0.500000 0.587782 0.500000
O O7 0.427538 0.645334 0.394299
O O8 0.791713 0.500000 0.126364
O O9 0.835541 0.363939 0.173969
O O10 0.778303 0.378561 0.000000
O O11 0.060301 0.846370 0.188187
O O12 0.075584 0.000000 0.145937
O O13 0.098550 0.895583 0.000000
O O14 0.259015 0.848784 0.500000
O O15 0.179354 0.769708 0.500000
O O16 0.092760 0.721225 0.284354
O O17 0.000000 0.770820 0.319157
O O18 0.661134 0.145583 0.612824
#
# Coordination Sequence:
#
# PCOD9487267 Si02
#       8
#    16   8  16  16   8  16   8  16
#     4  10  19  34  55  81 108 142 178 217 265 330
#     4   9  17  32  56  86 117 145 176 216 270 336
#     4  11  23  37  53  75 107 143 179 226 284 342
#     4  10  21  35  50  72 108 150 187 223 266 317
#     4   9  16  28  52  79 110 137 168 208 256 312
#     4  10  21  36  56  82 109 142 185 234 278 321
#     4   9  15  30  51  77 107 136 165 208 260 308
#     4  10  20  34  56  79 106 142 180 224 273 329
#
# _framework density 18.492964000000001
#
# number of rings (size 3 to 8) (size 9 to 14) (size 15 to 20)
#    0.000    2.077    1.538    2.308    0.000    8.000 
#    0.000    4.231    0.000    0.462    0.000    1.077 
#    0.000    3.077    0.000    0.000    0.000    0.000 
#
# Total GULP energy -290225.046709 kJ/mol
# GULP energy per Si atom -5581.250898 kJ/mol
# Density = 1.845087 g / cm^3
# Si number density = 18.492964 Si / 1000 Ang^3
#
#
#
# Elastic Constant Matrix: (Units=GPa)
#
#
# Indices 1 2 3 4 5 6 
#
# 1 89.5481 19.9516 26.1253 0.0000 0.0000 0.0000
# 2 19.9516 23.1874 12.9051 0.0000 0.0000 0.0000
# 3 26.1253 12.9051 105.9615 0.0000 0.0000 0.0000
# 4 0.0000 0.0000 0.0000 38.6570 0.0000 0.0000
# 5 0.0000 0.0000 0.0000 0.0000 18.2862 0.0000
# 6 0.0000 0.0000 0.0000 0.0000 0.0000 4.2322
#
#
#
# Elastic Compliance Matrix: (Units=1/GPa)
#
#
# Indices 1 2 3 4 5 6 
#
# 1 0.014266 -0.011068 -0.002169 0.000000 0.000000 0.000000
# 2 -0.011068 0.054849 -0.003951 0.000000 0.000000 0.000000
# 3 -0.002169 -0.003951 0.010454 0.000000 0.000000 0.000000
# 4 0.000000 0.000000 0.000000 0.025869 0.000000 0.000000
# 5 0.000000 0.000000 0.000000 0.000000 0.054686 0.000000
# 6 0.000000 0.000000 0.000000 0.000000 0.000000 0.236285
#
#
# Mechanical properties :
#
#
# Convention : Reuss Voigt Hill
#
# Bulk Modulus (GPa) = 22.12789 37.40676 29.76733
# Shear Modulus (GPa) = 11.21455 22.88274 17.04865
#
# Velocity S-wave (km/s) = 2.46524 3.52145 3.03957
# Velocity P-wave (km/s) = 4.48272 6.06676 5.33387
#
# Compressibility (1/GPa) = 0.04519183
#
# Stress axis : x y z
#
# Youngs Moduli (GPa) = 70.09652 18.23177 95.66173
#
# Poissons Ratio (x) = 0.20179 0.20753
# Poissons Ratio (y) = 0.77582 0.37799
# Poissons Ratio (z) = 0.15207 0.07204
#
# Static dielectric constant tensor:
#      x y z
#    x 1.648840 0.000000 0.000000 
#    y 0.000000 1.638740 0.000000 
#    z 0.000000 0.000000 1.672510 
# 
# From -- ./inp_files/32594.got.cif
#   From: 2010.05.17/outbox.cif.g08.bks.cpg/sg65_17_cif.got.tgz:32594.got - 2010.06.03 17:01:31.
