data_PCOD9487256
_publ_section_title
;
Structure prediction by ZEFSAII (Michael W. Deem and Ramdas Pophale) SiO2 
 PCOD9487256
Probable space group: C M M M
;
_chemical_formula_sum "Si O2"
_cell_formula_units_Z 88
_cell_length_a 18.946994
_cell_length_b 8.939136
_cell_length_c 29.950887
_cell_angle_alpha 90.000000
_cell_angle_beta 90.000000
_cell_angle_gamma 90.000000
_cell_volume 5072.774428
_symmetry_space_group_name_H-M "C M M M"
_symmetry_group_IT_number 65
_symmetry_cell_setting 'orthorhombic'
loop_
_space_group_symop_operation_xyz
x,y,z
-x,-y,z
x,-y,-z
-x,y,-z
-x,-y,-z
x,y,-z
-x,y,z
x,-y,z
1/2+x,1/2+y,z
1/2-x,1/2-y,z
1/2+x,1/2-y,-z
1/2-x,1/2+y,-z
1/2-x,1/2-y,-z
1/2+x,1/2+y,-z
1/2-x,1/2+y,z
1/2+x,1/2-y,z
loop_
_atom_site_type_symbol
_atom_site_label
_atom_site_fract_x
_atom_site_fract_y
_atom_site_fract_z
Si Si1 0.818259 0.831995 0.387462
Si Si2 0.172522 0.821715 0.128672
Si Si3 0.582395 0.822895 0.947087
Si Si4 0.416468 0.821180 0.209063
Si Si5 0.673287 0.680928 0.713493
Si Si6 0.583546 0.500000 0.447715
O O1 0.750000 0.750000 0.405877
O O2 0.840134 0.775492 0.338528
O O3 0.792011 0.000000 0.377848
O O4 0.881042 0.858767 0.422283
O O5 0.250000 0.750000 0.130642
O O6 0.134046 0.773856 0.082933
O O7 0.125210 0.754034 0.168338
O O8 0.177175 0.000000 0.132699
O O9 0.500000 0.790486 0.936859
O O10 0.593654 0.000000 0.937937
O O11 0.592671 0.799603 0.000000
O O12 0.500000 0.792666 0.205517
O O13 0.384329 0.751656 0.254076
O O14 0.405357 0.000000 0.208290
O O15 0.673523 0.500000 0.718209
O O16 0.750000 0.750000 0.725015
O O17 0.500000 0.500000 0.442303
O O18 0.600893 0.500000 0.500000
#
# Coordination Sequence:
#
# PCOD9487256 Si02
#       6
#    16  16  16  16  16   8
#     4   8  17  32  52  80 107 144 186 230 278 331
#     4  12  25  40  59  82 111 146 185 230 277 326
#     4   9  19  38  63  88 115 147 180 220 274 331
#     4  11  24  40  57  80 110 145 183 225 276 333
#     4  10  19  34  55  80 109 143 179 227 271 327
#     4   9  18  32  52  80 113 149 189 235 287 339
#
# _framework density 17.347508000000001
#
# number of rings (size 3 to 8) (size 9 to 14) (size 15 to 20)
#    0.545    1.545    0.000    4.364    0.000    6.545 
#    0.000    0.909    0.000    0.545    0.000    1.273 
#    0.000    0.000    0.000    0.000    0.000    0.000 
#
# Total GULP energy -245290.992348 kJ/mol
# GULP energy per Si atom -5574.795281 kJ/mol
# Density = 1.730802 g / cm^3
# Si number density = 17.347508 Si / 1000 Ang^3
#
#
#
# Elastic Constant Matrix: (Units=GPa)
#
#
# Indices 1 2 3 4 5 6 
#
# 1 136.9504 77.2988 81.9761 0.0000 0.0000 0.0000
# 2 77.2988 91.1440 51.6101 0.0000 0.0000 0.0000
# 3 81.9761 51.6101 86.3799 0.0000 0.0000 0.0000
# 4 0.0000 0.0000 0.0000 23.3563 0.0000 0.0000
# 5 0.0000 0.0000 0.0000 0.0000 35.1930 0.0000
# 6 0.0000 0.0000 0.0000 0.0000 0.0000 31.7957
#
#
#
# Elastic Compliance Matrix: (Units=1/GPa)
#
#
# Indices 1 2 3 4 5 6 
#
# 1 0.021808 -0.010241 -0.014578 0.000000 0.000000 0.000000
# 2 -0.010241 0.021390 -0.003062 0.000000 0.000000 0.000000
# 3 -0.014578 -0.003062 0.027240 0.000000 0.000000 0.000000
# 4 0.000000 0.000000 0.000000 0.042815 0.000000 0.000000
# 5 0.000000 0.000000 0.000000 0.000000 0.028415 0.000000
# 6 0.000000 0.000000 0.000000 0.000000 0.000000 0.031451
#
#
# Mechanical properties :
#
#
# Convention : Reuss Voigt Hill
#
# Bulk Modulus (GPa) = 68.12500 81.80492 74.96496
# Shear Modulus (GPa) = 21.38837 24.97497 23.18167
#
# Velocity S-wave (km/s) = 3.51513 3.79844 3.65952
# Velocity P-wave (km/s) = 7.47200 8.15453 7.82072
#
# Compressibility (1/GPa) = 0.01467890
#
# Stress axis : x y z
#
# Youngs Moduli (GPa) = 45.85494 46.74998 36.71014
#
# Poissons Ratio (x) = 0.47875 0.53514
# Poissons Ratio (y) = 0.46958 0.11240
# Poissons Ratio (z) = 0.66845 0.14314
#
# Static dielectric constant tensor:
#      x y z
#    x 1.563050 0.000000 0.000000 
#    y 0.000000 1.572180 0.000000 
#    z 0.000000 0.000000 1.599990 
# 
# From -- ./inp_files/77964.got.cif
#   From: 2010.05.17/outbox.cif.g08.bks.cpg/sg65_39_cif.got.tgz:77964.got - 2010.06.03 17:01:31.
