data_PCOD9487518
_publ_section_title
;
Structure prediction by ZEFSAII (Michael W. Deem and Ramdas Pophale) SiO2 
 PCOD9487518
Probable space group: C M M M
;
_chemical_formula_sum "Si O2"
_cell_formula_units_Z 72
_cell_length_a 14.811351
_cell_length_b 30.310116
_cell_length_c 8.929072
_cell_angle_alpha 90.000000
_cell_angle_beta 90.000000
_cell_angle_gamma 90.000000
_cell_volume 4008.561928
_symmetry_space_group_name_H-M "C M M M"
_symmetry_group_IT_number 65
_symmetry_cell_setting 'orthorhombic'
loop_
_space_group_symop_operation_xyz
x,y,z
-x,-y,z
x,-y,-z
-x,y,-z
-x,-y,-z
x,y,-z
-x,y,z
x,-y,z
1/2+x,1/2+y,z
1/2-x,1/2-y,z
1/2+x,1/2-y,-z
1/2-x,1/2+y,-z
1/2-x,1/2-y,-z
1/2+x,1/2+y,-z
1/2-x,1/2+y,z
1/2+x,1/2-y,z
loop_
_atom_site_type_symbol
_atom_site_label
_atom_site_fract_x
_atom_site_fract_y
_atom_site_fract_z
Si Si1 0.313073 0.050920 0.179956
Si Si2 0.000000 0.160917 0.320058
Si Si3 0.000000 0.446269 0.671781
Si Si4 0.184458 0.871072 0.178906
Si Si5 0.000000 0.263859 0.681948
Si Si6 0.195346 0.295873 0.322518
O O1 0.407517 0.067457 0.248742
O O2 0.231030 0.082676 0.221830
O O3 0.299011 0.000000 0.226292
O O4 0.321838 0.051652 0.000000
O O5 0.910333 0.138114 0.257922
O O6 0.000000 0.160145 0.500000
O O7 0.000000 0.212520 0.271726
O O8 0.000000 0.500000 0.676496
O O9 0.000000 0.431887 0.500000
O O10 0.253418 0.833066 0.230626
O O11 0.172742 0.869979 0.000000
O O12 0.907401 0.287360 0.727816
O O13 0.000000 0.263449 0.500000
O O14 0.195779 0.307356 0.500000
O O15 0.250000 0.250000 0.308371
#
# Coordination Sequence:
#
# PCOD9487518 Si02
#       6
#    16   8   8  16   8  16
#     4   9  19  37  58  79 112 156 190 220 271 338
#     4  11  21  39  61  79 105 148 190 222 276 344
#     4   9  17  30  53  84 112 139 179 231 278 319
#     4  11  23  37  56  85 113 140 186 238 281 322
#     4   9  18  34  56  80 106 145 191 223 257 328
#     4  10  19  35  57  80 110 148 187 222 268 334
#
# _framework density 17.961554
#
# number of rings (size 3 to 8) (size 9 to 14) (size 15 to 20)
#    0.000    2.111    2.222    1.333    0.000    4.444 
#    0.000    3.333    0.000    3.333    0.000    0.000 
#    0.000    0.000    0.000    0.000    0.000    0.000 
#
# Total GULP energy -200955.042608 kJ/mol
# GULP energy per Si atom -5582.084517 kJ/mol
# Density = 1.792067 g / cm^3
# Si number density = 17.961554 Si / 1000 Ang^3
#
#
#
# Elastic Constant Matrix: (Units=GPa)
#
#
# Indices 1 2 3 4 5 6 
#
# 1 190.8476 69.5781 47.9641 0.0000 0.0000 0.0000
# 2 69.5781 77.8999 35.5762 0.0000 0.0000 0.0000
# 3 47.9641 35.5762 37.5793 0.0000 0.0000 0.0000
# 4 0.0000 0.0000 0.0000 16.6900 0.0000 0.0000
# 5 0.0000 0.0000 0.0000 0.0000 30.7466 0.0000
# 6 0.0000 0.0000 0.0000 0.0000 0.0000 25.3045
#
#
#
# Elastic Compliance Matrix: (Units=1/GPa)
#
#
# Indices 1 2 3 4 5 6 
#
# 1 0.008590 -0.004695 -0.006519 0.000000 0.000000 0.000000
# 2 -0.004695 0.025181 -0.017846 0.000000 0.000000 0.000000
# 3 -0.006519 -0.017846 0.051825 0.000000 0.000000 0.000000
# 4 0.000000 0.000000 0.000000 0.059916 0.000000 0.000000
# 5 0.000000 0.000000 0.000000 0.000000 0.032524 0.000000
# 6 0.000000 0.000000 0.000000 0.000000 0.000000 0.039519
#
#
# Mechanical properties :
#
#
# Convention : Reuss Voigt Hill
#
# Bulk Modulus (GPa) = 36.39508 68.06261 52.22885
# Shear Modulus (GPa) = 17.55422 24.76211 21.15816
#
# Velocity S-wave (km/s) = 3.12961 3.71700 3.43588
# Velocity P-wave (km/s) = 5.77633 7.50981 6.69937
#
# Compressibility (1/GPa) = 0.02747624
#
# Stress axis : x y z
#
# Youngs Moduli (GPa) = 116.41729 39.71318 19.29576
#
# Poissons Ratio (x) = 0.18646 0.12578
# Poissons Ratio (y) = 0.54660 0.34435
# Poissons Ratio (z) = 0.75888 0.70871
#
# Static dielectric constant tensor:
#      x y z
#    x 1.597380 0.000000 0.000000 
#    y 0.000000 1.615560 0.000000 
#    z 0.000000 0.000000 1.603050 
# 
# From -- ./inp_files/7400.got.cif
#   From: 2010.05.17/outbox.cif.g08.bks.cpg/sg65_4_cif.got.tgz:7400.got - 2010.06.03 17:01:31.
