data_PCOD9487837
_publ_section_title
;
Structure prediction by ZEFSAII (Michael W. Deem and Ramdas Pophale) SiO2 
 PCOD9487837
Probable space group: C M M M
;
_chemical_formula_sum "Si O2"
_cell_formula_units_Z 96
_cell_length_a 28.294629
_cell_length_b 8.667633
_cell_length_c 24.619170
_cell_angle_alpha 90.000000
_cell_angle_beta 90.000000
_cell_angle_gamma 90.000000
_cell_volume 6037.788911
_symmetry_space_group_name_H-M "C M M M"
_symmetry_group_IT_number 65
_symmetry_cell_setting 'orthorhombic'
loop_
_space_group_symop_operation_xyz
x,y,z
-x,-y,z
x,-y,-z
-x,y,-z
-x,-y,-z
x,y,-z
-x,y,z
x,-y,z
1/2+x,1/2+y,z
1/2-x,1/2-y,z
1/2+x,1/2-y,-z
1/2-x,1/2+y,-z
1/2-x,1/2-y,-z
1/2+x,1/2+y,-z
1/2-x,1/2+y,z
1/2+x,1/2-y,z
loop_
_atom_site_type_symbol
_atom_site_label
_atom_site_fract_x
_atom_site_fract_y
_atom_site_fract_z
Si Si1 0.301215 0.315306 0.773454
Si Si2 0.697420 0.186395 0.438854
Si Si3 0.053173 0.313650 0.270179
Si Si4 0.853450 0.313368 0.669343
Si Si5 0.554732 0.186014 0.937887
Si Si6 0.604366 0.684419 0.834301
O O1 0.299158 0.500000 0.770881
O O2 0.250000 0.250000 0.787347
O O3 0.318257 0.251541 0.715113
O O4 0.342663 0.270429 0.815687
O O5 0.683181 0.234012 0.500000
O O6 0.750000 0.250000 0.428852
O O7 0.663045 0.236297 0.390333
O O8 0.699476 0.000000 0.438016
O O9 0.053320 0.500000 0.268313
O O10 0.093794 0.265371 0.312700
O O11 0.069667 0.252879 0.211590
O O12 0.000000 0.262261 0.283000
O O13 0.851463 0.500000 0.671513
O O14 0.500000 0.230655 0.927025
O O15 0.588593 0.255900 0.892752
O O16 0.556814 0.000000 0.935013
O O17 0.565952 0.231199 0.000000
O O18 0.601374 0.500000 0.832667
#
# Coordination Sequence:
#
# PCOD9487837 Si02
#       6
#    16  16  16  16  16  16
#     4  10  20  32  46  66  91 117 146 181 220 262
#     4   9  17  28  42  61  85 112 142 178 220 264
#     4   9  17  29  45  64  87 117 150 180 213 259
#     4   9  17  29  45  64  87 116 147 180 219 261
#     4   9  18  32  49  69  93 121 151 180 212 255
#     4  10  20  31  45  68  94 117 144 181 222 260
#
# _framework density 15.899861
#
# number of rings (size 3 to 8) (size 9 to 14) (size 15 to 20)
#    0.000    2.667    0.000    2.500    0.000    7.000 
#    0.000    0.833    0.000    1.000    0.000    3.500 
#    0.000    0.000    0.000   12.500    0.000   13.000 
#
# Total GULP energy -267566.918355 kJ/mol
# GULP energy per Si atom -5574.310799 kJ/mol
# Density = 1.586367 g / cm^3
# Si number density = 15.899861 Si / 1000 Ang^3
#
#
#
# Elastic Constant Matrix: (Units=GPa)
#
#
# Indices 1 2 3 4 5 6 
#
# 1 118.7007 22.8509 82.1686 0.0000 0.0000 0.0000
# 2 22.8509 9.6175 23.1853 0.0000 0.0000 0.0000
# 3 82.1686 23.1853 136.6634 0.0000 0.0000 0.0000
# 4 0.0000 0.0000 0.0000 13.6866 0.0000 0.0000
# 5 0.0000 0.0000 0.0000 0.0000 20.5299 0.0000
# 6 0.0000 0.0000 0.0000 0.0000 0.0000 21.2209
#
#
#
# Elastic Compliance Matrix: (Units=1/GPa)
#
#
# Indices 1 2 3 4 5 6 
#
# 1 0.018074 -0.028334 -0.006060 0.000000 0.000000 0.000000
# 2 -0.028334 0.220350 -0.020347 0.000000 0.000000 0.000000
# 3 -0.006060 -0.020347 0.014413 0.000000 0.000000 0.000000
# 4 0.000000 0.000000 0.000000 0.073064 0.000000 0.000000
# 5 0.000000 0.000000 0.000000 0.000000 0.048710 0.000000
# 6 0.000000 0.000000 0.000000 0.000000 0.000000 0.047123
#
#
# Mechanical properties :
#
#
# Convention : Reuss Voigt Hill
#
# Bulk Modulus (GPa) = 6.97573 57.93236 32.45405
# Shear Modulus (GPa) = 8.63556 20.20593 14.42074
#
# Velocity S-wave (km/s) = 2.33303 3.56873 3.01487
# Velocity P-wave (km/s) = 3.41382 7.31409 5.70746
#
# Compressibility (1/GPa) = 0.14335412
#
# Stress axis : x y z
#
# Youngs Moduli (GPa) = 55.32779 4.53823 69.38310
#
# Poissons Ratio (x) = 0.12859 0.42046
# Poissons Ratio (y) = 1.56768 1.41174
# Poissons Ratio (z) = 0.33529 0.09234
#
# Static dielectric constant tensor:
#      x y z
#    x 1.529470 0.000000 0.000000 
#    y 0.000000 1.536940 0.000000 
#    z 0.000000 0.000000 1.522490 
# 
# From -- ./inp_files/68006.got.cif
#   From: 2010.05.17/outbox.cif.g08.bks.cpg/sg65_35_cif.got.tgz:68006.got - 2010.06.03 17:01:31.
