data_PCOD9487033
_publ_section_title
;
Structure prediction by ZEFSAII (Michael W. Deem and Ramdas Pophale) SiO2 
 PCOD9487033
Probable space group: C M M M
;
_chemical_formula_sum "Si O2"
_cell_formula_units_Z 64
_cell_length_a 17.064424
_cell_length_b 15.239099
_cell_length_c 13.906965
_cell_angle_alpha 90.000000
_cell_angle_beta 90.000000
_cell_angle_gamma 90.000000
_cell_volume 3616.456833
_symmetry_space_group_name_H-M "C M M M"
_symmetry_group_IT_number 65
_symmetry_cell_setting 'orthorhombic'
loop_
_space_group_symop_operation_xyz
x,y,z
-x,-y,z
x,-y,-z
-x,y,-z
-x,-y,-z
x,y,-z
-x,y,z
x,-y,z
1/2+x,1/2+y,z
1/2-x,1/2-y,z
1/2+x,1/2-y,-z
1/2-x,1/2+y,-z
1/2-x,1/2-y,-z
1/2+x,1/2+y,-z
1/2-x,1/2+y,z
1/2+x,1/2-y,z
loop_
_atom_site_type_symbol
_atom_site_label
_atom_site_fract_x
_atom_site_fract_y
_atom_site_fract_z
Si Si1 0.186463 0.000000 0.223968
Si Si2 0.317145 0.000000 0.613163
Si Si3 0.593694 0.864314 0.738093
Si Si4 0.340961 0.000000 0.112438
Si Si5 0.594823 0.397525 0.500000
Si Si6 0.094528 0.836113 0.290338
O O1 0.248733 0.000000 0.137909
O O2 0.134284 0.087188 0.228985
O O3 0.240001 0.000000 0.320583
O O4 0.366354 0.084594 0.649263
O O5 0.304003 0.000000 0.500000
O O6 0.500000 0.871048 0.729652
O O7 0.615679 0.762260 0.739890
O O8 0.622214 0.916421 0.832339
O O9 0.356192 0.000000 0.000000
O O10 0.616722 0.500000 0.500000
O O11 0.500000 0.395361 0.500000
O O12 0.619547 0.351847 0.401325
O O13 0.000000 0.845119 0.285676
#
# Coordination Sequence:
#
# PCOD9487033 Si02
#       6
#     8   8  16   8   8  16
#     4  10  21  36  54  78 114 145 182 221 271 323
#     4  10  22  33  46  73 111 154 183 216 268 320
#     4   9  20  37  57  82 106 135 182 232 279 323
#     4  10  22  41  62  80 102 138 184 230 284 341
#     4   9  16  26  46  78 110 152 188 207 243 300
#     4  10  19  33  55  82 114 147 185 227 263 310
#
# _framework density 17.696878999999999
#
# number of rings (size 3 to 8) (size 9 to 14) (size 15 to 20)
#    0.000    2.625    1.250    1.875    3.500    6.000 
#    0.000    3.750    0.000    3.000    0.000    0.000 
#    0.000    0.000    0.000    0.000    0.000    0.000 
#
# Total GULP energy -178504.704848 kJ/mol
# GULP energy per Si atom -5578.272027 kJ/mol
# Density = 1.765660 g / cm^3
# Si number density = 17.696879 Si / 1000 Ang^3
#
#
#
# Elastic Constant Matrix: (Units=GPa)
#
#
# Indices 1 2 3 4 5 6 
#
# 1 47.0451 45.2224 6.0959 0.0000 0.0000 0.0000
# 2 45.2224 170.4303 35.1848 0.0000 0.0000 0.0000
# 3 6.0959 35.1848 87.9414 0.0000 0.0000 0.0000
# 4 0.0000 0.0000 0.0000 7.9428 0.0000 0.0000
# 5 0.0000 0.0000 0.0000 0.0000 15.9595 0.0000
# 6 0.0000 0.0000 0.0000 0.0000 0.0000 28.0391
#
#
#
# Elastic Compliance Matrix: (Units=1/GPa)
#
#
# Indices 1 2 3 4 5 6 
#
# 1 0.028640 -0.007837 0.001150 0.000000 0.000000 0.000000
# 2 -0.007837 0.008540 -0.002874 0.000000 0.000000 0.000000
# 3 0.001150 -0.002874 0.012441 0.000000 0.000000 0.000000
# 4 0.000000 0.000000 0.000000 0.125900 0.000000 0.000000
# 5 0.000000 0.000000 0.000000 0.000000 0.062659 0.000000
# 6 0.000000 0.000000 0.000000 0.000000 0.000000 0.035664
#
#
# Mechanical properties :
#
#
# Convention : Reuss Voigt Hill
#
# Bulk Modulus (GPa) = 32.78570 53.15811 42.97191
# Shear Modulus (GPa) = 16.49439 24.98253 20.73846
#
# Velocity S-wave (km/s) = 3.05626 3.76132 3.42697
# Velocity P-wave (km/s) = 5.56963 6.99762 6.32406
#
# Compressibility (1/GPa) = 0.03050110
#
# Stress axis : x y z
#
# Youngs Moduli (GPa) = 34.91561 117.09271 80.37811
#
# Poissons Ratio (x) = 0.91765 -0.09245
# Poissons Ratio (y) = 0.27363 0.23098
# Poissons Ratio (z) = -0.04016 0.33648
#
# Static dielectric constant tensor:
#      x y z
#    x 1.631280 0.000000 0.000000 
#    y 0.000000 1.596350 0.000000 
#    z 0.000000 0.000000 1.575180 
# 
# From -- ./inp_files/42095.got.cif
#   From: 2010.05.17/outbox.cif.g08.bks.cpg/sg65_22_cif.got.tgz:42095.got - 2010.06.03 17:01:31.
