data_PCOD9487286
_publ_section_title
;
Structure prediction by ZEFSAII (Michael W. Deem and Ramdas Pophale) SiO2 
 PCOD9487286
Probable space group: C M M M
;
_chemical_formula_sum "Si O2"
_cell_formula_units_Z 80
_cell_length_a 18.658539
_cell_length_b 8.859123
_cell_length_c 26.694702
_cell_angle_alpha 90.000000
_cell_angle_beta 90.000000
_cell_angle_gamma 90.000000
_cell_volume 4412.588646
_symmetry_space_group_name_H-M "C M M M"
_symmetry_group_IT_number 65
_symmetry_cell_setting 'orthorhombic'
loop_
_space_group_symop_operation_xyz
x,y,z
-x,-y,z
x,-y,-z
-x,y,-z
-x,-y,-z
x,y,-z
-x,y,z
x,-y,z
1/2+x,1/2+y,z
1/2-x,1/2-y,z
1/2+x,1/2-y,-z
1/2-x,1/2+y,-z
1/2-x,1/2-y,-z
1/2+x,1/2+y,-z
1/2-x,1/2+y,z
1/2+x,1/2-y,z
loop_
_atom_site_type_symbol
_atom_site_label
_atom_site_fract_x
_atom_site_fract_y
_atom_site_fract_z
Si Si1 0.087478 0.325449 0.500000
Si Si2 0.413727 0.824134 0.292418
Si Si3 0.829419 0.317819 0.902071
Si Si4 0.587299 0.673613 0.396471
Si Si5 0.581477 0.816486 0.000000
Si Si6 0.329146 0.320121 0.202281
O O1 0.108603 0.500000 0.500000
O O2 0.111373 0.244684 0.449009
O O3 0.000000 0.320867 0.500000
O O4 0.500000 0.810116 0.289482
O O5 0.391049 0.766414 0.347366
O O6 0.377409 0.727485 0.249008
O O7 0.395124 0.000000 0.286161
O O8 0.825829 0.500000 0.899204
O O9 0.750000 0.250000 0.908621
O O10 0.857569 0.251819 0.849578
O O11 0.876897 0.272528 0.949669
O O12 0.500000 0.675896 0.397360
O O13 0.609810 0.500000 0.392211
O O14 0.500000 0.762061 0.000000
O O15 0.580121 0.000000 0.000000
O O16 0.324108 0.500000 0.197525
O O17 0.250000 0.250000 0.209454
#
# Coordination Sequence:
#
# PCOD9487286 Si02
#       6
#     8  16  16  16   8  16
#     4   9  15  23  37  59  90 129 170 211 256 307
#     4  10  20  34  52  75 104 137 172 212 262 317
#     4  10  19  34  56  78 102 134 172 212 254 302
#     4   9  16  26  41  64  95 130 168 211 259 309
#     4   9  19  34  53  79 108 137 170 208 252 303
#     4  11  22  37  56  78 105 136 175 218 260 308
#
# _framework density 18.129947999999999
#
# number of rings (size 3 to 8) (size 9 to 14) (size 15 to 20)
#    0.000    2.200    0.000    5.400    0.000    5.600 
#    0.000    3.500    0.000    4.200    0.000    0.700 
#    0.000    0.000    0.000    0.000    0.000    0.000 
#
# Total GULP energy -223225.073623 kJ/mol
# GULP energy per Si atom -5580.626841 kJ/mol
# Density = 1.808868 g / cm^3
# Si number density = 18.129948 Si / 1000 Ang^3
#
#
#
# Elastic Constant Matrix: (Units=GPa)
#
#
# Indices 1 2 3 4 5 6 
#
# 1 23.6506 22.4126 42.9717 0.0000 0.0000 0.0000
# 2 22.4126 121.2483 57.7583 0.0000 0.0000 0.0000
# 3 42.9717 57.7583 166.0837 0.0000 0.0000 0.0000
# 4 0.0000 0.0000 0.0000 32.4670 0.0000 0.0000
# 5 0.0000 0.0000 0.0000 0.0000 44.6551 0.0000
# 6 0.0000 0.0000 0.0000 0.0000 0.0000 19.5680
#
#
#
# Elastic Compliance Matrix: (Units=1/GPa)
#
#
# Indices 1 2 3 4 5 6 
#
# 1 0.083466 -0.006162 -0.019453 0.000000 0.000000 0.000000
# 2 -0.006162 0.010340 -0.002002 0.000000 0.000000 0.000000
# 3 -0.019453 -0.002002 0.011750 0.000000 0.000000 0.000000
# 4 0.000000 0.000000 0.000000 0.030800 0.000000 0.000000
# 5 0.000000 0.000000 0.000000 0.000000 0.022394 0.000000
# 6 0.000000 0.000000 0.000000 0.000000 0.000000 0.051104
#
#
# Mechanical properties :
#
#
# Convention : Reuss Voigt Hill
#
# Bulk Modulus (GPa) = 19.87134 61.91863 40.89498
# Shear Modulus (GPa) = 17.73921 31.86069 24.79995
#
# Velocity S-wave (km/s) = 3.13141 4.19663 3.70252
# Velocity P-wave (km/s) = 4.90496 7.59665 6.39405
#
# Compressibility (1/GPa) = 0.05032373
#
# Stress axis : x y z
#
# Youngs Moduli (GPa) = 11.98093 96.71116 85.10472
#
# Poissons Ratio (x) = 0.59594 1.65551
# Poissons Ratio (y) = 0.07383 0.17034
# Poissons Ratio (z) = 0.23306 0.19358
#
# Static dielectric constant tensor:
#      x y z
#    x 1.608210 0.000000 0.000000 
#    y 0.000000 1.611540 0.000000 
#    z 0.000000 0.000000 1.617140 
# 
# From -- ./inp_files/70797.got.cif
#   From: 2010.05.17/outbox.cif.g08.bks.cpg/sg65_36_cif.got.tgz:70797.got - 2010.06.03 17:01:31.
