data_PCOD9487624
_publ_section_title
;
Structure prediction by ZEFSAII (Michael W. Deem and Ramdas Pophale) SiO2 
 PCOD9487624
Probable space group: C M M M
;
_chemical_formula_sum "Si O2"
_cell_formula_units_Z 84
_cell_length_a 15.734079
_cell_length_b 18.887334
_cell_length_c 13.593998
_cell_angle_alpha 90.000000
_cell_angle_beta 90.000000
_cell_angle_gamma 90.000000
_cell_volume 4039.793708
_symmetry_space_group_name_H-M "C M M M"
_symmetry_group_IT_number 65
_symmetry_cell_setting 'orthorhombic'
loop_
_space_group_symop_operation_xyz
x,y,z
-x,-y,z
x,-y,-z
-x,y,-z
-x,-y,-z
x,y,-z
-x,y,z
x,-y,z
1/2+x,1/2+y,z
1/2-x,1/2-y,z
1/2+x,1/2-y,-z
1/2-x,1/2+y,-z
1/2-x,1/2-y,-z
1/2+x,1/2+y,-z
1/2-x,1/2+y,z
1/2+x,1/2-y,z
loop_
_atom_site_type_symbol
_atom_site_label
_atom_site_fract_x
_atom_site_fract_y
_atom_site_fract_z
Si Si1 0.639193 0.500000 0.609051
Si Si2 0.902289 0.415021 0.310986
Si Si3 0.263370 0.647621 0.391143
Si Si4 0.186041 0.584234 0.890296
Si Si5 0.000000 0.153407 0.117295
Si Si6 0.500000 0.500000 0.222244
Si Si7 0.683334 0.690686 0.816013
O O1 0.597553 0.500000 0.500000
O O2 0.696002 0.569621 0.613550
O O3 0.578761 0.500000 0.702524
O O4 0.888005 0.500000 0.327168
O O5 0.835728 0.367305 0.370074
O O6 0.880761 0.399928 0.196214
O O7 0.000000 0.400335 0.333378
O O8 0.278606 0.675965 0.500000
O O9 0.307077 0.689107 0.302056
O O10 0.195565 0.500000 0.892116
O O11 0.274688 0.618916 0.857873
O O12 0.161800 0.608120 0.000000
O O13 0.085965 0.192842 0.152461
O O14 0.000000 0.073175 0.161093
O O15 0.000000 0.149644 0.000000
O O16 0.750000 0.750000 0.852665
#
# Coordination Sequence:
#
# PCOD9487624 Si02
#       7
#     8  16  16  16   8   4  16
#     4  10  19  35  64 100 134 168 207 263 341 405
#     4   9  17  29  49  81 121 160 202 253 305 364
#     4  10  20  37  62  89 124 167 211 264 332 398
#     4   9  19  36  61  89 120 162 209 264 326 383
#     4  12  27  43  69 102 132 177 224 273 338 397
#     4  12  22  40  68 108 144 156 208 286 334 394
#     4  11  25  46  66  90 131 173 216 268 329 397
#
# _framework density 20.793140000000001
#
# number of rings (size 3 to 8) (size 9 to 14) (size 15 to 20)
#    0.000    1.905    2.857    0.857    2.667    2.667 
#    6.857    3.333    0.000    0.000    0.000    0.000 
#    0.000    0.000    0.000    0.000    0.000    0.000 
#
# Total GULP energy -234521.908218 kJ/mol
# GULP energy per Si atom -5583.854958 kJ/mol
# Density = 2.074581 g / cm^3
# Si number density = 20.793140 Si / 1000 Ang^3
#
#
#
# Elastic Constant Matrix: (Units=GPa)
#
#
# Indices 1 2 3 4 5 6 
#
# 1 151.8497 34.0795 42.9565 0.0000 0.0000 0.0000
# 2 34.0795 48.4426 23.7140 0.0000 0.0000 0.0000
# 3 42.9565 23.7140 124.1385 0.0000 0.0000 0.0000
# 4 0.0000 0.0000 0.0000 -40.9078 0.0000 0.0000
# 5 0.0000 0.0000 0.0000 0.0000 120.7179 0.0000
# 6 0.0000 0.0000 0.0000 0.0000 0.0000 0.9344
#
#
#
# Elastic Compliance Matrix: (Units=1/GPa)
#
#
# Indices 1 2 3 4 5 6 
#
# 1 0.008214 -0.004840 -0.001918 0.000000 0.000000 0.000000
# 2 -0.004840 0.025624 -0.003220 0.000000 0.000000 0.000000
# 3 -0.001918 -0.003220 0.009334 0.000000 0.000000 0.000000
# 4 0.000000 0.000000 0.000000 -0.024445 0.000000 0.000000
# 5 0.000000 0.000000 0.000000 0.000000 0.008284 0.000000
# 6 0.000000 0.000000 0.000000 0.000000 0.000000 1.070191
#
#
# Mechanical properties :
#
#
# Convention : Reuss Voigt Hill
#
# Bulk Modulus (GPa) = 43.07209 58.43676 50.75442
# Shear Modulus (GPa) = 4.44485 31.06095 17.75290
#
# Velocity S-wave (km/s) = 1.46366 3.86917 2.92513
# Velocity P-wave (km/s) = 4.85962 6.93726 5.98922
#
# Compressibility (1/GPa) = 0.02321689
#
# Stress axis : x y z
#
# Youngs Moduli (GPa) = 121.74023 39.02558 107.13154
#
# Poissons Ratio (x) = 0.18888 0.20546
# Poissons Ratio (y) = 0.58921 0.34498
# Poissons Ratio (z) = 0.23348 0.12567
#
# Static dielectric constant tensor:
#      x y z
#    x 1.715490 0.000000 0.000000 
#    y 0.000000 1.781800 0.000000 
#    z 0.000000 0.000000 1.774660 
# 
# From -- ./inp_files/40277.got.cif
#   From: 2010.05.17/outbox.cif.g08.bks.cpg/sg65_21_cif.got.tgz:40277.got - 2010.06.03 17:01:31.
