data_PCOD9487361
_publ_section_title
;
Structure prediction by ZEFSAII (Michael W. Deem and Ramdas Pophale) SiO2 
 PCOD9487361
Probable space group: C M M M
;
_chemical_formula_sum "Si O2"
_cell_formula_units_Z 72
_cell_length_a 8.638395
_cell_length_b 19.507903
_cell_length_c 23.116661
_cell_angle_alpha 90.000000
_cell_angle_beta 90.000000
_cell_angle_gamma 90.000000
_cell_volume 3895.549708
_symmetry_space_group_name_H-M "C M M M"
_symmetry_group_IT_number 65
_symmetry_cell_setting 'orthorhombic'
loop_
_space_group_symop_operation_xyz
x,y,z
-x,-y,z
x,-y,-z
-x,y,-z
-x,-y,-z
x,y,-z
-x,y,z
x,-y,z
1/2+x,1/2+y,z
1/2-x,1/2-y,z
1/2+x,1/2-y,-z
1/2-x,1/2+y,-z
1/2-x,1/2-y,-z
1/2+x,1/2+y,-z
1/2-x,1/2+y,z
1/2+x,1/2-y,z
loop_
_atom_site_type_symbol
_atom_site_label
_atom_site_fract_x
_atom_site_fract_y
_atom_site_fract_z
Si Si1 0.685479 0.420169 0.833533
Si Si2 0.688565 0.421742 0.500000
Si Si3 0.814872 0.325090 0.932273
Si Si4 0.684788 0.174536 0.267109
Si Si5 0.686485 0.674644 0.605604
O O1 0.500000 0.415639 0.829588
O O2 0.730063 0.500000 0.833766
O O3 0.741814 0.381944 0.891227
O O4 0.758865 0.380035 0.779646
O O5 0.743230 0.500000 0.500000
O O6 0.500000 0.423019 0.500000
O O7 0.734721 0.379839 0.442890
O O8 0.750000 0.250000 0.916539
O O9 0.000000 0.324790 0.925481
O O10 0.778299 0.336840 0.000000
O O11 0.500000 0.177913 0.268623
O O12 0.750000 0.250000 0.251931
O O13 0.748992 0.157635 0.330923
O O14 0.500000 0.677368 0.608117
O O15 0.750000 0.750000 0.590264
#
# Coordination Sequence:
#
# PCOD9487361 Si02
#       5
#    16   8  16  16  16
#     4  11  24  40  58  82 114 151 188 228 278 334
#     4   9  19  34  53  79 110 145 182 222 272 329
#     4  10  21  38  61  87 115 148 187 231 277 327
#     4  11  22  38  60  84 112 145 186 233 280 331
#     4  10  19  34  57  82 109 142 183 228 274 326
#
# _framework density 18.48263
#
# number of rings (size 3 to 8) (size 9 to 14) (size 15 to 20)
#    0.000    1.667    0.000    6.333    0.000    4.444 
#    0.000    6.111    0.000    4.667    0.000    0.000 
#    0.000    0.000    0.000    0.000    0.000    0.000 
#
# Total GULP energy -201229.469382 kJ/mol
# GULP energy per Si atom -5589.707483 kJ/mol
# Density = 1.844056 g / cm^3
# Si number density = 18.482630 Si / 1000 Ang^3
#
#
#
# Elastic Constant Matrix: (Units=GPa)
#
#
# Indices 1 2 3 4 5 6 
#
# 1 94.1253 68.5659 58.9928 0.0000 0.0000 0.0000
# 2 68.5659 173.7245 125.8233 0.0000 0.0000 0.0000
# 3 58.9928 125.8233 124.8318 0.0000 0.0000 0.0000
# 4 0.0000 0.0000 0.0000 -55.5615 0.0000 0.0000
# 5 0.0000 0.0000 0.0000 0.0000 12.6320 0.0000
# 6 0.0000 0.0000 0.0000 0.0000 0.0000 29.9657
#
#
#
# Elastic Compliance Matrix: (Units=1/GPa)
#
#
# Indices 1 2 3 4 5 6 
#
# 1 0.015509 -0.003011 -0.004295 0.000000 0.000000 0.000000
# 2 -0.003011 0.021906 -0.020657 0.000000 0.000000 0.000000
# 3 -0.004295 -0.020657 0.030861 0.000000 0.000000 0.000000
# 4 0.000000 0.000000 0.000000 -0.017998 0.000000 0.000000
# 5 0.000000 0.000000 0.000000 0.000000 0.079164 0.000000
# 6 0.000000 0.000000 0.000000 0.000000 0.000000 0.033372
#
#
# Mechanical properties :
#
#
# Convention : Reuss Voigt Hill
#
# Bulk Modulus (GPa) = 80.96155 99.93839 90.44997
# Shear Modulus (GPa) = 22.43621 6.69389 14.56505
#
# Velocity S-wave (km/s) = 3.48790 1.90515 2.81025
# Velocity P-wave (km/s) = 7.75370 7.68299 7.71842
#
# Compressibility (1/GPa) = 0.01235154
#
# Stress axis : x y z
#
# Youngs Moduli (GPa) = 64.47926 45.65059 32.40316
#
# Poissons Ratio (x) = 0.13743 0.13916
# Poissons Ratio (y) = 0.19412 0.66934
# Poissons Ratio (z) = 0.27692 0.94299
#
# Static dielectric constant tensor:
#      x y z
#    x 1.624150 0.000000 0.000000 
#    y 0.000000 1.607550 0.000000 
#    z 0.000000 0.000000 1.624230 
# 
# From -- ./inp_files/67063.got.cif
#   From: 2010.05.17/outbox.cif.g08.bks.cpg/sg65_34_cif.got.tgz:67063.got - 2010.06.03 17:01:31.
