data_PCOD9487139
_publ_section_title
;
Structure prediction by ZEFSAII (Michael W. Deem and Ramdas Pophale) SiO2 
 PCOD9487139
Probable space group: C M M M
;
_chemical_formula_sum "Si O2"
_cell_formula_units_Z 88
_cell_length_a 20.334270
_cell_length_b 30.858651
_cell_length_c 9.128694
_cell_angle_alpha 90.000000
_cell_angle_beta 90.000000
_cell_angle_gamma 90.000000
_cell_volume 5728.147230
_symmetry_space_group_name_H-M "C M M M"
_symmetry_group_IT_number 65
_symmetry_cell_setting 'orthorhombic'
loop_
_space_group_symop_operation_xyz
x,y,z
-x,-y,z
x,-y,-z
-x,y,-z
-x,-y,-z
x,y,-z
-x,y,z
x,-y,z
1/2+x,1/2+y,z
1/2-x,1/2-y,z
1/2+x,1/2-y,-z
1/2-x,1/2+y,-z
1/2-x,1/2-y,-z
1/2+x,1/2+y,-z
1/2-x,1/2+y,z
1/2+x,1/2-y,z
loop_
_atom_site_type_symbol
_atom_site_label
_atom_site_fract_x
_atom_site_fract_y
_atom_site_fract_z
Si Si1 0.072225 0.818511 0.668106
Si Si2 0.500000 0.552527 0.333053
Si Si3 0.426116 0.771857 0.825689
Si Si4 0.362987 0.449058 0.173993
Si Si5 0.202184 0.125605 0.327830
Si Si6 0.208237 0.293341 0.323146
O O1 0.076810 0.801529 0.500000
O O2 0.076818 0.778421 0.777426
O O3 0.132013 0.850522 0.687475
O O4 0.000000 0.838878 0.684596
O O5 0.500000 0.500000 0.340778
O O6 0.500000 0.569322 0.500000
O O7 0.567407 0.563116 0.249406
O O8 0.500000 0.787222 0.783755
O O9 0.364072 0.792781 0.745432
O O10 0.419599 0.775902 0.000000
O O11 0.351003 0.500000 0.204489
O O12 0.306104 0.418301 0.237487
O O13 0.368960 0.443518 0.000000
O O14 0.212406 0.116025 0.500000
O O15 0.254126 0.162413 0.281850
O O16 0.204317 0.291905 0.500000
O O17 0.250000 0.250000 0.279439
#
# Coordination Sequence:
#
# PCOD9487139 Si02
#       6
#    16   8  16  16  16  16
#     4   9  17  30  46  64  90 125 162 200 239 279
#     4   9  17  31  51  69  87 119 163 207 247 285
#     4  10  20  32  47  69  96 127 163 200 237 281
#     4  10  21  35  48  66  94 124 157 200 248 292
#     4  10  20  32  49  71  92 122 163 203 240 285
#     4  10  19  34  51  70  97 127 161 199 238 284
#
# _framework density 15.362733
#
# number of rings (size 3 to 8) (size 9 to 14) (size 15 to 20)
#    0.000    2.273    1.818    1.364    1.273    5.091 
#    0.000    0.000    0.000    0.000    0.000    0.000 
#    0.000    0.727    0.000    8.000    0.000    5.818 
#
# Total GULP energy -245311.663722 kJ/mol
# GULP energy per Si atom -5575.265085 kJ/mol
# Density = 1.532777 g / cm^3
# Si number density = 15.362733 Si / 1000 Ang^3
#
#
#
# Elastic Constant Matrix: (Units=GPa)
#
#
# Indices 1 2 3 4 5 6 
#
# 1 94.3174 48.9014 41.4429 0.0000 0.0000 0.0000
# 2 48.9014 80.8066 44.3718 0.0000 0.0000 0.0000
# 3 41.4429 44.3718 45.6533 0.0000 0.0000 0.0000
# 4 0.0000 0.0000 0.0000 17.6507 0.0000 0.0000
# 5 0.0000 0.0000 0.0000 0.0000 24.0240 0.0000
# 6 0.0000 0.0000 0.0000 0.0000 0.0000 25.8466
#
#
#
# Elastic Compliance Matrix: (Units=1/GPa)
#
#
# Indices 1 2 3 4 5 6 
#
# 1 0.018274 -0.004181 -0.012524 0.000000 0.000000 0.000000
# 2 -0.004181 0.027496 -0.022928 0.000000 0.000000 0.000000
# 3 -0.012524 -0.022928 0.055558 0.000000 0.000000 0.000000
# 4 0.000000 0.000000 0.000000 0.056655 0.000000 0.000000
# 5 0.000000 0.000000 0.000000 0.000000 0.041625 0.000000
# 6 0.000000 0.000000 0.000000 0.000000 0.000000 0.038690
#
#
# Mechanical properties :
#
#
# Convention : Reuss Voigt Hill
#
# Bulk Modulus (GPa) = 45.33157 54.46773 49.89965
# Shear Modulus (GPa) = 15.38845 19.24168 17.31506
#
# Velocity S-wave (km/s) = 3.16836 3.54289 3.36085
# Velocity P-wave (km/s) = 6.55410 7.22963 6.90014
#
# Compressibility (1/GPa) = 0.02205968
#
# Stress axis : x y z
#
# Youngs Moduli (GPa) = 54.72376 36.36919 17.99905
#
# Poissons Ratio (x) = 0.15207 0.22543
# Poissons Ratio (y) = 0.22881 0.41269
# Poissons Ratio (z) = 0.68539 0.83389
#
# Static dielectric constant tensor:
#      x y z
#    x 1.516540 0.000000 0.000000 
#    y 0.000000 1.530150 0.000000 
#    z 0.000000 0.000000 1.518190 
# 
# From -- ./inp_files/12669.got.cif
#   From: 2010.05.17/outbox.cif.g08.bks.cpg/sg65_7_cif.got.tgz:12669.got - 2010.06.03 17:01:31.
