data_PCOD9487016
_publ_section_title
;
Structure prediction by ZEFSAII (Michael W. Deem and Ramdas Pophale) SiO2 
 PCOD9487016
Probable space group: C M M M
;
_chemical_formula_sum "Si O2"
_cell_formula_units_Z 72
_cell_length_a 8.569646
_cell_length_b 18.613146
_cell_length_c 23.645482
_cell_angle_alpha 90.000000
_cell_angle_beta 90.000000
_cell_angle_gamma 90.000000
_cell_volume 3771.645249
_symmetry_space_group_name_H-M "C M M M"
_symmetry_group_IT_number 65
_symmetry_cell_setting 'orthorhombic'
loop_
_space_group_symop_operation_xyz
x,y,z
-x,-y,z
x,-y,-z
-x,y,-z
-x,-y,-z
x,y,-z
-x,y,z
x,-y,z
1/2+x,1/2+y,z
1/2-x,1/2-y,z
1/2+x,1/2-y,-z
1/2-x,1/2+y,-z
1/2-x,1/2-y,-z
1/2+x,1/2+y,-z
1/2-x,1/2+y,z
1/2+x,1/2-y,z
loop_
_atom_site_type_symbol
_atom_site_label
_atom_site_fract_x
_atom_site_fract_y
_atom_site_fract_z
Si Si1 0.811089 0.168994 0.000000
Si Si2 0.690316 0.417225 0.111846
Si Si3 0.687041 0.329948 0.434937
Si Si4 0.186964 0.582828 0.669319
Si Si5 0.187264 0.169261 0.223493
O O1 0.750000 0.250000 0.000000
O O2 0.760321 0.126124 0.056089
O O3 0.000000 0.170831 0.000000
O O4 0.500000 0.418176 0.111606
O O5 0.742448 0.500000 0.111057
O O6 0.739516 0.376033 0.168570
O O7 0.730216 0.346991 0.500000
O O8 0.500000 0.329322 0.430789
O O9 0.750000 0.250000 0.422441
O O10 0.755889 0.384892 0.389955
O O11 0.236709 0.500000 0.675554
O O12 0.254814 0.630226 0.720057
O O13 0.000000 0.585969 0.671401
O O14 0.250000 0.250000 0.220597
O O15 0.000000 0.171131 0.223830
#
# Coordination Sequence:
#
# PCOD9487016 Si02
#       5
#     8  16  16  16  16
#     4  10  19  33  55  81 111 144 182 228 274 328
#     4   9  18  33  55  82 109 142 185 230 276 327
#     4  10  21  38  61  87 115 148 186 228 274 327
#     4  11  24  40  58  82 113 148 186 230 280 331
#     4  11  22  37  58  82 111 146 186 231 278 333
#
# _framework density 19.089812999999999
#
# number of rings (size 3 to 8) (size 9 to 14) (size 15 to 20)
#    0.000    1.778    0.000    4.333    0.000    5.778 
#    0.000    3.333    0.000    4.000    0.000    0.000 
#    0.000    0.000    0.000    0.000    0.000    0.000 
#
# Total GULP energy -201226.326348 kJ/mol
# GULP energy per Si atom -5589.620176 kJ/mol
# Density = 1.904636 g / cm^3
# Si number density = 19.089813 Si / 1000 Ang^3
#
#
#
# Elastic Constant Matrix: (Units=GPa)
#
#
# Indices 1 2 3 4 5 6 
#
# 1 35.2453 36.5548 31.5337 0.0000 0.0000 0.0000
# 2 36.5548 201.5889 110.1255 0.0000 0.0000 0.0000
# 3 31.5337 110.1255 139.1049 0.0000 0.0000 0.0000
# 4 0.0000 0.0000 0.0000 -4.1924 0.0000 0.0000
# 5 0.0000 0.0000 0.0000 0.0000 -2.2555 0.0000
# 6 0.0000 0.0000 0.0000 0.0000 0.0000 25.8318
#
#
#
# Elastic Compliance Matrix: (Units=1/GPa)
#
#
# Indices 1 2 3 4 5 6 
#
# 1 0.037143 -0.003763 -0.005441 0.000000 0.000000 0.000000
# 2 -0.003763 0.009122 -0.006369 0.000000 0.000000 0.000000
# 3 -0.005441 -0.006369 0.013464 0.000000 0.000000 0.000000
# 4 0.000000 0.000000 0.000000 -0.238529 0.000000 0.000000
# 5 0.000000 0.000000 0.000000 0.000000 -0.443367 0.000000
# 6 0.000000 0.000000 0.000000 0.000000 0.000000 0.038712
#
#
# Mechanical properties :
#
#
# Convention : Reuss Voigt Hill
#
# Bulk Modulus (GPa) = 34.98426 81.37414 58.17920
# Shear Modulus (GPa) = -9.21182 17.05847 3.92332
#
# Velocity S-wave (km/s) = -2.19909 2.99254 1.43515
# Velocity P-wave (km/s) = 3.45224 7.39324 5.76966
#
# Compressibility (1/GPa) = 0.02858429
#
# Stress axis : x y z
#
# Youngs Moduli (GPa) = 26.92272 109.62429 74.27153
#
# Poissons Ratio (x) = 0.41252 0.40411
# Poissons Ratio (y) = 0.10131 0.47301
# Poissons Ratio (z) = 0.14649 0.69816
#
# Static dielectric constant tensor:
#      x y z
#    x 1.647970 0.000000 0.000000 
#    y 0.000000 1.619870 0.000000 
#    z 0.000000 0.000000 1.642320 
# 
# From -- ./inp_files/72521.got.cif
#   From: 2010.05.17/outbox.cif.g08.bks.cpg/sg65_37_cif.got.tgz:72521.got - 2010.06.03 17:01:31.
