data_PCOD9487954
_publ_section_title
;
Structure prediction by ZEFSAII (Michael W. Deem and Ramdas Pophale) SiO2 
 PCOD9487954
Probable space group: C M M M
;
_chemical_formula_sum "Si O2"
_cell_formula_units_Z 104
_cell_length_a 8.218276
_cell_length_b 28.013488
_cell_length_c 23.900446
_cell_angle_alpha 90.000000
_cell_angle_beta 90.000000
_cell_angle_gamma 90.000000
_cell_volume 5502.422248
_symmetry_space_group_name_H-M "C M M M"
_symmetry_group_IT_number 65
_symmetry_cell_setting 'orthorhombic'
loop_
_space_group_symop_operation_xyz
x,y,z
-x,-y,z
x,-y,-z
-x,y,-z
-x,-y,-z
x,y,-z
-x,y,z
x,-y,z
1/2+x,1/2+y,z
1/2-x,1/2-y,z
1/2+x,1/2-y,-z
1/2-x,1/2+y,-z
1/2-x,1/2-y,-z
1/2+x,1/2+y,-z
1/2-x,1/2+y,z
1/2+x,1/2-y,z
loop_
_atom_site_type_symbol
_atom_site_label
_atom_site_fract_x
_atom_site_fract_y
_atom_site_fract_z
Si Si1 0.303640 0.603148 0.435318
Si Si2 0.807336 0.198617 0.241055
Si Si3 0.311674 0.696373 0.934975
Si Si4 0.194362 0.500000 0.564758
Si Si5 0.196905 0.197767 0.630811
Si Si6 0.197864 0.444026 0.938070
Si Si7 0.315504 0.873977 0.151611
O O1 0.246953 0.605819 0.500000
O O2 0.500000 0.603723 0.435364
O O3 0.251406 0.551230 0.411607
O O4 0.247931 0.650648 0.402653
O O5 0.750000 0.250000 0.217344
O O6 0.743741 0.194680 0.304722
O O7 0.761578 0.153075 0.203984
O O8 0.000000 0.201151 0.243849
O O9 0.500000 0.691993 0.915851
O O10 0.250000 0.750000 0.930920
O O11 0.194575 0.664948 0.897659
O O12 0.305249 0.682916 0.000000
O O13 0.255221 0.500000 0.500000
O O14 0.000000 0.500000 0.564633
O O15 0.250000 0.250000 0.608790
O O16 0.000000 0.197200 0.630677
O O17 0.231599 0.500000 0.935174
O O18 0.262257 0.418098 0.882412
O O19 0.000000 0.438059 0.937683
O O20 0.254388 0.427230 0.000000
O O21 0.500000 0.886034 0.166968
#
# Coordination Sequence:
#
# PCOD9487954 Si02
#       7
#    16  16  16   8  16  16  16
#     4   9  17  31  52  77 105 138 175 213 258 315
#     4  10  20  35  52  70  96 129 167 204 241 289
#     4  10  20  32  45  64  93 124 151 184 229 281
#     4   9  17  29  47  75 107 137 171 211 254 297
#     4   9  19  34  52  74 101 136 173 213 259 309
#     4   8  15  29  49  72  95 119 150 190 237 289
#     4  11  20  30  49  73  94 120 156 197 240 284
#
# _framework density 18.900766999999998
#
# number of rings (size 3 to 8) (size 9 to 14) (size 15 to 20)
#    0.000    2.538    0.000    3.000    0.000    4.000 
#    0.000    0.000    1.692    1.846    0.000    5.385 
#    0.000    0.000    0.000    0.000    0.000    0.000 
#
# Total GULP energy -289649.663858 kJ/mol
# GULP energy per Si atom -5570.185843 kJ/mol
# Density = 1.885775 g / cm^3
# Si number density = 18.900767 Si / 1000 Ang^3
#
#
#
# Elastic Constant Matrix: (Units=GPa)
#
#
# Indices 1 2 3 4 5 6 
#
# 1 21.9974 10.0986 8.9016 0.0000 0.0000 0.0000
# 2 10.0986 151.7529 53.9619 0.0000 0.0000 0.0000
# 3 8.9016 53.9619 58.9372 0.0000 0.0000 0.0000
# 4 0.0000 0.0000 0.0000 30.5132 0.0000 0.0000
# 5 0.0000 0.0000 0.0000 0.0000 197.0088 0.0000
# 6 0.0000 0.0000 0.0000 0.0000 0.0000 19.5008
#
#
#
# Elastic Compliance Matrix: (Units=1/GPa)
#
#
# Indices 1 2 3 4 5 6 
#
# 1 0.048506 -0.000923 -0.006481 0.000000 0.000000 0.000000
# 2 -0.000923 0.009788 -0.008823 0.000000 0.000000 0.000000
# 3 -0.006481 -0.008823 0.026024 0.000000 0.000000 0.000000
# 4 0.000000 0.000000 0.000000 0.032773 0.000000 0.000000
# 5 0.000000 0.000000 0.000000 0.000000 0.005076 0.000000
# 6 0.000000 0.000000 0.000000 0.000000 0.000000 0.051280
#
#
# Mechanical properties :
#
#
# Convention : Reuss Voigt Hill
#
# Bulk Modulus (GPa) = 19.28078 42.06795 30.67436
# Shear Modulus (GPa) = 22.40254 60.05291 41.22773
#
# Velocity S-wave (km/s) = 3.44651 5.64285 4.67548
# Velocity P-wave (km/s) = 5.10501 8.04743 6.73878
#
# Compressibility (1/GPa) = 0.05186513
#
# Stress axis : x y z
#
# Youngs Moduli (GPa) = 20.61584 102.16241 38.42629
#
# Poissons Ratio (x) = 0.09434 0.24903
# Poissons Ratio (y) = 0.01904 0.33902
# Poissons Ratio (z) = 0.13361 0.90134
#
# Static dielectric constant tensor:
#      x y z
#    x 1.673290 0.000000 0.000000 
#    y 0.000000 1.690810 0.000000 
#    z 0.000000 0.000000 1.676930 
# 
# From -- ./inp_files/68145.got.cif
#   From: 2010.05.17/outbox.cif.g08.bks.cpg/sg65_35_cif.got.tgz:68145.got - 2010.06.03 17:01:31.
