data_PCOD9487707
_publ_section_title
;
Structure prediction by ZEFSAII (Michael W. Deem and Ramdas Pophale) SiO2 
 PCOD9487707
Probable space group: C M M M
;
_chemical_formula_sum "Si O2"
_cell_formula_units_Z 84
_cell_length_a 14.634915
_cell_length_b 20.110265
_cell_length_c 13.431646
_cell_angle_alpha 90.000000
_cell_angle_beta 90.000000
_cell_angle_gamma 90.000000
_cell_volume 3953.094851
_symmetry_space_group_name_H-M "C M M M"
_symmetry_group_IT_number 65
_symmetry_cell_setting 'orthorhombic'
loop_
_space_group_symop_operation_xyz
x,y,z
-x,-y,z
x,-y,-z
-x,y,-z
-x,-y,-z
x,y,-z
-x,y,z
x,-y,z
1/2+x,1/2+y,z
1/2-x,1/2-y,z
1/2+x,1/2-y,-z
1/2-x,1/2+y,-z
1/2-x,1/2-y,-z
1/2+x,1/2+y,-z
1/2-x,1/2+y,z
1/2+x,1/2-y,z
loop_
_atom_site_type_symbol
_atom_site_label
_atom_site_fract_x
_atom_site_fract_y
_atom_site_fract_z
Si Si1 0.225548 0.074648 0.302250
Si Si2 0.349059 0.000000 0.000000
Si Si3 0.360473 0.747259 0.176902
Si Si4 0.395599 0.103555 0.825499
Si Si5 0.605702 0.397515 0.109370
Si Si6 0.843738 0.208071 0.607886
O O1 0.327397 0.094815 0.267743
O O2 0.166282 0.077037 0.200049
O O3 0.183537 0.131491 0.371669
O O4 0.223687 0.000000 0.342375
O O5 0.358330 0.942511 0.087036
O O6 0.250000 0.750000 0.175817
O O7 0.393179 0.819070 0.143814
O O8 0.389580 0.682711 0.115821
O O9 0.390910 0.733497 0.291213
O O10 0.500000 0.084810 0.803826
O O11 0.500000 0.417450 0.120134
O O12 0.638871 0.419422 0.000000
O O13 0.889036 0.215125 0.500000
O O14 0.750000 0.250000 0.604049
#
# Coordination Sequence:
#
# PCOD9487707 Si02
#       6
#    16   4  16  16  16  16
#     4  11  23  38  59  88 121 162 202 247 303 357
#     4  12  29  40  54  84 121 180 223 244 292 358
#     4  10  19  37  60  89 114 152 199 248 310 355
#     4  12  23  38  56  82 122 164 210 250 293 354
#     4  10  22  38  57  85 118 157 202 246 297 357
#     4   9  17  36  65  90 115 150 198 249 306 370
#
# _framework density 21.249172999999999
#
# number of rings (size 3 to 8) (size 9 to 14) (size 15 to 20)
#    0.000    1.524    6.667    1.429    2.667    1.524 
#    0.000    0.952    0.000   16.000    0.000    6.667 
#    0.000    0.000    0.000    0.000    0.000    0.000 
#
# Total GULP energy -234128.814871 kJ/mol
# GULP energy per Si atom -5574.495592 kJ/mol
# Density = 2.120081 g / cm^3
# Si number density = 21.249173 Si / 1000 Ang^3
#
#
#
# Elastic Constant Matrix: (Units=GPa)
#
#
# Indices 1 2 3 4 5 6 
#
# 1 83.3786 -16.6126 2.7730 0.0000 0.0000 0.0000
# 2 -16.6126 163.9796 4.7765 0.0000 0.0000 0.0000
# 3 2.7730 4.7765 84.0669 0.0000 0.0000 0.0000
# 4 0.0000 0.0000 0.0000 16.9584 0.0000 0.0000
# 5 0.0000 0.0000 0.0000 0.0000 -6.0323 0.0000
# 6 0.0000 0.0000 0.0000 0.0000 0.0000 -32.7755
#
#
#
# Elastic Compliance Matrix: (Units=1/GPa)
#
#
# Indices 1 2 3 4 5 6 
#
# 1 0.012260 0.001256 -0.000476 0.000000 0.000000 0.000000
# 2 0.001256 0.006237 -0.000396 0.000000 0.000000 0.000000
# 3 -0.000476 -0.000396 0.011933 0.000000 0.000000 0.000000
# 4 0.000000 0.000000 0.000000 0.058968 0.000000 0.000000
# 5 0.000000 0.000000 0.000000 0.000000 -0.165774 0.000000
# 6 0.000000 0.000000 0.000000 0.000000 0.000000 -0.030511
#
#
# Mechanical properties :
#
#
# Convention : Reuss Voigt Hill
#
# Bulk Modulus (GPa) = 32.05262 34.81098 33.43180
# Shear Modulus (GPa) = -51.41063 18.32934 -16.54064
#
# Velocity S-wave (km/s) = -4.92409 2.94018 -2.79303
# Velocity P-wave (km/s) = 4.14874 5.28621 2.31646
#
# Compressibility (1/GPa) = 0.03119870
#
# Stress axis : x y z
#
# Youngs Moduli (GPa) = 81.56925 160.33146 83.79795
#
# Poissons Ratio (x) = -0.20135 0.03987
# Poissons Ratio (y) = -0.10244 0.03317
# Poissons Ratio (z) = 0.03881 0.06346
#
# Static dielectric constant tensor:
#      x y z
#    x 1.808390 0.000000 0.000000 
#    y 0.000000 1.771450 0.000000 
#    z 0.000000 0.000000 1.747350 
# 
# From -- ./inp_files/40152.got.cif
#   From: 2010.05.17/outbox.cif.g08.bks.cpg/sg65_21_cif.got.tgz:40152.got - 2010.06.03 17:01:31.
