data_PCOD9487197
_publ_section_title
;
Structure prediction by ZEFSAII (Michael W. Deem and Ramdas Pophale) SiO2 
 PCOD9487197
Probable space group: C M M M
;
_chemical_formula_sum "Si O2"
_cell_formula_units_Z 96
_cell_length_a 8.596471
_cell_length_b 24.577356
_cell_length_c 26.094978
_cell_angle_alpha 90.000000
_cell_angle_beta 90.000000
_cell_angle_gamma 90.000000
_cell_volume 5513.308543
_symmetry_space_group_name_H-M "C M M M"
_symmetry_group_IT_number 65
_symmetry_cell_setting 'orthorhombic'
loop_
_space_group_symop_operation_xyz
x,y,z
-x,-y,z
x,-y,-z
-x,y,-z
-x,-y,-z
x,y,-z
-x,y,z
x,-y,z
1/2+x,1/2+y,z
1/2-x,1/2-y,z
1/2+x,1/2-y,-z
1/2-x,1/2+y,-z
1/2-x,1/2-y,-z
1/2+x,1/2+y,-z
1/2-x,1/2+y,z
1/2+x,1/2-y,z
loop_
_atom_site_type_symbol
_atom_site_label
_atom_site_fract_x
_atom_site_fract_y
_atom_site_fract_z
Si Si1 0.812694 0.062728 0.941576
Si Si2 0.814662 0.609591 0.158163
Si Si3 0.679365 0.500000 0.205590
Si Si4 0.819809 0.000000 0.671605
Si Si5 0.312434 0.689296 0.557394
Si Si6 0.812766 0.688808 0.247517
Si Si7 0.810380 0.879693 0.655782
O O1 0.751219 0.103895 0.899035
O O2 0.000000 0.063187 0.940421
O O3 0.763789 0.000000 0.929648
O O4 0.763471 0.074515 0.000000
O O5 0.760796 0.554214 0.185835
O O6 0.762812 0.659258 0.194510
O O7 0.000000 0.611037 0.155488
O O8 0.500000 0.500000 0.187527
O O9 0.680275 0.500000 0.266835
O O10 0.752555 0.942006 0.655135
O O11 0.000000 0.000000 0.653940
O O12 0.263384 0.671902 0.500000
O O13 0.500000 0.691107 0.557956
O O14 0.250000 0.750000 0.565885
O O15 0.263441 0.650795 0.603773
O O16 0.750000 0.750000 0.251015
O O17 0.751451 0.652784 0.294953
O O18 0.000000 0.689602 0.249323
O O19 0.000000 0.880263 0.659263
#
# Coordination Sequence:
#
# PCOD9487197 Si02
#       7
#    16  16   8   8  16  16  16
#     4   9  18  32  51  77 107 139 175 210 249 303
#     4  11  22  34  51  78 109 136 169 215 261 304
#     4  11  19  31  52  75 103 141 176 204 249 311
#     4   9  18  31  50  76 103 137 173 204 248 311
#     4   9  18  32  51  74 100 132 172 219 264 304
#     4  11  24  38  53  76 105 135 172 215 260 306
#     4  10  19  34  54  76 105 137 173 211 255 311
#
# _framework density 17.412413000000001
#
# number of rings (size 3 to 8) (size 9 to 14) (size 15 to 20)
#    0.000    2.000    2.500    2.250    0.000    4.333 
#    0.000    1.667    0.000    3.000    0.000    0.000 
#    0.000    4.000    0.000    0.000    0.000    0.000 
#
# Total GULP energy -267766.609971 kJ/mol
# GULP energy per Si atom -5578.471041 kJ/mol
# Density = 1.737278 g / cm^3
# Si number density = 17.412413 Si / 1000 Ang^3
#
#
#
# Elastic Constant Matrix: (Units=GPa)
#
#
# Indices 1 2 3 4 5 6 
#
# 1 18.8806 20.8058 28.8257 0.0000 0.0000 0.0000
# 2 20.8058 135.1392 87.1813 0.0000 0.0000 0.0000
# 3 28.8257 87.1813 147.7784 0.0000 0.0000 0.0000
# 4 0.0000 0.0000 0.0000 61.4217 0.0000 0.0000
# 5 0.0000 0.0000 0.0000 0.0000 19.7933 0.0000
# 6 0.0000 0.0000 0.0000 0.0000 0.0000 11.2056
#
#
#
# Elastic Compliance Matrix: (Units=1/GPa)
#
#
# Indices 1 2 3 4 5 6 
#
# 1 0.076422 -0.003469 -0.012860 0.000000 0.000000 0.000000
# 2 -0.003469 0.012104 -0.006464 0.000000 0.000000 0.000000
# 3 -0.012860 -0.006464 0.013089 0.000000 0.000000 0.000000
# 4 0.000000 0.000000 0.000000 0.016281 0.000000 0.000000
# 5 0.000000 0.000000 0.000000 0.000000 0.050522 0.000000
# 6 0.000000 0.000000 0.000000 0.000000 0.000000 0.089241
#
#
# Mechanical properties :
#
#
# Convention : Reuss Voigt Hill
#
# Bulk Modulus (GPa) = 17.84837 63.93595 40.89216
# Shear Modulus (GPa) = 15.53174 29.48315 22.50745
#
# Velocity S-wave (km/s) = 2.98986 4.11935 3.59919
# Velocity P-wave (km/s) = 4.71080 7.70868 6.38809
#
# Compressibility (1/GPa) = 0.05602752
#
# Stress axis : x y z
#
# Youngs Moduli (GPa) = 13.08530 82.61772 76.40157
#
# Poissons Ratio (x) = 0.28664 0.98253
# Poissons Ratio (y) = 0.04540 0.49385
# Poissons Ratio (z) = 0.16828 0.53403
#
# Static dielectric constant tensor:
#      x y z
#    x 1.598100 0.000000 0.000000 
#    y 0.000000 1.574550 0.000000 
#    z 0.000000 0.000000 1.605340 
# 
# From -- ./inp_files/73485.got.cif
#   From: 2010.05.17/outbox.cif.g08.bks.cpg/sg65_37_cif.got.tgz:73485.got - 2010.06.03 17:01:31.
