data_PCOD9487976
_publ_section_title
;
Structure prediction by ZEFSAII (Michael W. Deem and Ramdas Pophale) SiO2 
 PCOD9487976
Probable space group: C M M M
;
_chemical_formula_sum "Si O2"
_cell_formula_units_Z 88
_cell_length_a 8.595350
_cell_length_b 33.017131
_cell_length_c 16.929527
_cell_angle_alpha 90.000000
_cell_angle_beta 90.000000
_cell_angle_gamma 90.000000
_cell_volume 4804.494748
_symmetry_space_group_name_H-M "C M M M"
_symmetry_group_IT_number 65
_symmetry_cell_setting 'orthorhombic'
loop_
_space_group_symop_operation_xyz
x,y,z
-x,-y,z
x,-y,-z
-x,y,-z
-x,-y,-z
x,y,-z
-x,y,z
x,-y,z
1/2+x,1/2+y,z
1/2-x,1/2-y,z
1/2+x,1/2-y,-z
1/2-x,1/2+y,-z
1/2-x,1/2-y,-z
1/2+x,1/2+y,-z
1/2-x,1/2+y,z
1/2+x,1/2-y,z
loop_
_atom_site_type_symbol
_atom_site_label
_atom_site_fract_x
_atom_site_fract_y
_atom_site_fract_z
Si Si1 0.685980 0.206527 0.907970
Si Si2 0.681622 0.058977 0.412565
Si Si3 0.312803 0.544076 0.239783
Si Si4 0.681652 0.150179 0.640229
Si Si5 0.187677 0.294403 0.500000
Si Si6 0.183421 0.132282 0.192849
O O1 0.500000 0.208299 0.904128
O O2 0.750000 0.250000 0.877196
O O3 0.741427 0.166042 0.863378
O O4 0.734789 0.203649 0.000000
O O5 0.740948 0.047183 0.500000
O O6 0.500000 0.046948 0.408039
O O7 0.765467 0.045381 0.332422
O O8 0.685805 0.107558 0.405475
O O9 0.500000 0.545386 0.236172
O O10 0.260444 0.500000 0.208323
O O11 0.256380 0.585249 0.196088
O O12 0.500000 0.157385 0.662350
O O13 0.739308 0.183270 0.579224
O O14 0.783012 0.147033 0.718245
O O15 0.250000 0.250000 0.500000
O O16 0.000000 0.296501 0.500000
O O17 0.000000 0.131118 0.176296
#
# Coordination Sequence:
#
# PCOD9487976 Si02
#       6
#    16  16  16  16   8  16
#     4  10  21  38  61  88 115 140 167 205 256 314
#     4   9  16  28  47  67  89 123 171 224 273 318
#     4   9  19  34  49  70 103 141 180 221 265 313
#     4   9  17  32  49  65  92 132 175 217 263 312
#     4  10  20  32  46  64  89 126 169 215 264 309
#     4  10  20  34  55  81 107 140 179 217 262 313
#
# _framework density 18.316182000000001
#
# number of rings (size 3 to 8) (size 9 to 14) (size 15 to 20)
#    0.000    2.545    0.909    1.091    0.000    4.364 
#    0.000    3.636    0.000    0.545    0.000    3.818 
#    0.000    0.000    0.000    0.000    0.000    0.000 
#
# Total GULP energy -245117.179286 kJ/mol
# GULP energy per Si atom -5570.844984 kJ/mol
# Density = 1.827449 g / cm^3
# Si number density = 18.316182 Si / 1000 Ang^3
#
#
#
# Elastic Constant Matrix: (Units=GPa)
#
#
# Indices 1 2 3 4 5 6 
#
# 1 14.4766 21.8884 11.2697 0.0000 0.0000 0.0000
# 2 21.8884 178.7021 56.0201 0.0000 0.0000 0.0000
# 3 11.2697 56.0201 56.2417 0.0000 0.0000 0.0000
# 4 0.0000 0.0000 0.0000 45.3923 0.0000 0.0000
# 5 0.0000 0.0000 0.0000 0.0000 13.5110 0.0000
# 6 0.0000 0.0000 0.0000 0.0000 0.0000 14.6602
#
#
#
# Elastic Compliance Matrix: (Units=1/GPa)
#
#
# Indices 1 2 3 4 5 6 
#
# 1 0.088548 -0.007682 -0.010091 0.000000 0.000000 0.000000
# 2 -0.007682 0.008803 -0.007229 0.000000 0.000000 0.000000
# 3 -0.010091 -0.007229 0.027003 0.000000 0.000000 0.000000
# 4 0.000000 0.000000 0.000000 0.022030 0.000000 0.000000
# 5 0.000000 0.000000 0.000000 0.000000 0.074014 0.000000
# 6 0.000000 0.000000 0.000000 0.000000 0.000000 0.068212
#
#
# Mechanical properties :
#
#
# Convention : Reuss Voigt Hill
#
# Bulk Modulus (GPa) = 13.45005 47.53075 30.49040
# Shear Modulus (GPa) = 13.75900 25.39550 19.57725
#
# Velocity S-wave (km/s) = 2.74377 3.72762 3.27287
# Velocity P-wave (km/s) = 4.17096 6.67333 5.56463
#
# Compressibility (1/GPa) = 0.07434916
#
# Stress axis : x y z
#
# Youngs Moduli (GPa) = 11.29329 113.59705 37.03299
#
# Poissons Ratio (x) = 0.87270 0.37370
# Poissons Ratio (y) = 0.08676 0.26771
# Poissons Ratio (z) = 0.11396 0.82119
#
# Static dielectric constant tensor:
#      x y z
#    x 1.632150 0.000000 0.000000 
#    y 0.000000 1.674810 0.000000 
#    z 0.000000 0.000000 1.604260 
# 
# From -- ./inp_files/50354.got.cif
#   From: 2010.05.17/outbox.cif.g08.bks.cpg/sg65_26_cif.got.tgz:50354.got - 2010.06.03 17:01:31.
