data_PCOD9487337
_publ_section_title
;
Structure prediction by ZEFSAII (Michael W. Deem and Ramdas Pophale) SiO2 
 PCOD9487337
Probable space group: C M M M
;
_chemical_formula_sum "Si O2"
_cell_formula_units_Z 64
_cell_length_a 15.879866
_cell_length_b 8.524808
_cell_length_c 24.453154
_cell_angle_alpha 90.000000
_cell_angle_beta 90.000000
_cell_angle_gamma 90.000000
_cell_volume 3310.292139
_symmetry_space_group_name_H-M "C M M M"
_symmetry_group_IT_number 65
_symmetry_cell_setting 'orthorhombic'
loop_
_space_group_symop_operation_xyz
x,y,z
-x,-y,z
x,-y,-z
-x,y,-z
-x,-y,-z
x,y,-z
-x,y,z
x,-y,z
1/2+x,1/2+y,z
1/2-x,1/2-y,z
1/2+x,1/2-y,-z
1/2-x,1/2+y,-z
1/2-x,1/2-y,-z
1/2+x,1/2+y,-z
1/2-x,1/2+y,z
1/2+x,1/2-y,z
loop_
_atom_site_type_symbol
_atom_site_label
_atom_site_fract_x
_atom_site_fract_y
_atom_site_fract_z
Si Si1 0.500000 0.688673 0.315889
Si Si2 0.658872 0.813232 0.616403
Si Si3 0.840342 0.810465 0.881667
Si Si4 0.098090 0.191068 0.000000
Si Si5 0.500000 0.691262 0.189751
Si Si6 0.899990 0.812157 0.500000
O O1 0.500000 0.500000 0.318108
O O2 0.416996 0.749098 0.346609
O O3 0.500000 0.740225 0.252702
O O4 0.750000 0.750000 0.634020
O O5 0.640904 0.756260 0.554612
O O6 0.658923 0.000000 0.617857
O O7 0.750000 0.750000 0.863294
O O8 0.858580 0.756469 0.943919
O O9 0.916809 0.758363 0.842977
O O10 0.839970 0.000000 0.881898
O O11 0.000000 0.237249 0.000000
O O12 0.099398 0.000000 0.000000
O O13 0.500000 0.500000 0.189059
O O14 0.000000 0.775966 0.500000
O O15 0.890581 0.000000 0.500000
#
# Coordination Sequence:
#
# PCOD9487337 Si02
#       6
#     8  16  16   8   8   8
#     4  11  23  42  63  87 118 156 204 255 302 353
#     4  12  25  42  65  93 125 161 201 246 298 356
#     4  10  19  34  56  84 113 148 190 235 288 346
#     4   9  15  28  55  82 109 148 191 229 278 352
#     4   9  20  38  60  81 110 152 197 239 286 349
#     4  11  22  39  66  96 129 163 195 239 298 358
#
# _framework density 19.333642000000001
#
# number of rings (size 3 to 8) (size 9 to 14) (size 15 to 20)
#    0.000    1.500    2.500    3.750    0.000    1.500 
#    0.000    5.625    0.000    0.750    0.000    0.000 
#    0.000    0.000    0.000    0.000    0.000    0.000 
#
# Total GULP energy -178890.592982 kJ/mol
# GULP energy per Si atom -5590.331031 kJ/mol
# Density = 1.928964 g / cm^3
# Si number density = 19.333642 Si / 1000 Ang^3
#
#
#
# Elastic Constant Matrix: (Units=GPa)
#
#
# Indices 1 2 3 4 5 6 
#
# 1 206.1938 44.6950 96.1630 0.0000 0.0000 0.0000
# 2 44.6950 60.5249 31.0016 0.0000 0.0000 0.0000
# 3 96.1630 31.0016 160.9358 0.0000 0.0000 0.0000
# 4 0.0000 0.0000 0.0000 -7.6852 0.0000 0.0000
# 5 0.0000 0.0000 0.0000 0.0000 -3.1016 0.0000
# 6 0.0000 0.0000 0.0000 0.0000 0.0000 33.1063
#
#
#
# Elastic Compliance Matrix: (Units=1/GPa)
#
#
# Indices 1 2 3 4 5 6 
#
# 1 0.007343 -0.003523 -0.003709 0.000000 0.000000 0.000000
# 2 -0.003523 0.020021 -0.001752 0.000000 0.000000 0.000000
# 3 -0.003709 -0.001752 0.008767 0.000000 0.000000 0.000000
# 4 0.000000 0.000000 0.000000 -0.130120 0.000000 0.000000
# 5 0.000000 0.000000 0.000000 0.000000 -0.322414 0.000000
# 6 0.000000 0.000000 0.000000 0.000000 0.000000 0.030206
#
#
# Mechanical properties :
#
#
# Convention : Reuss Voigt Hill
#
# Bulk Modulus (GPa) = 55.05362 85.70819 70.38091
# Shear Modulus (GPa) = -13.80549 21.51689 3.85570
#
# Velocity S-wave (km/s) = -2.67510 3.33967 1.41373
# Velocity P-wave (km/s) = 4.35842 7.70056 6.25677
#
# Compressibility (1/GPa) = 0.01816411
#
# Stress axis : x y z
#
# Youngs Moduli (GPa) = 136.17915 49.94806 114.05866
#
# Poissons Ratio (x) = 0.17596 0.42306
# Poissons Ratio (y) = 0.47973 0.19980
# Poissons Ratio (z) = 0.50511 0.08750
#
# Static dielectric constant tensor:
#      x y z
#    x 1.667740 0.000000 0.000000 
#    y 0.000000 1.656860 0.000000 
#    z 0.000000 0.000000 1.658460 
# 
# From -- ./inp_files/69591.got.cif
#   From: 2010.05.17/outbox.cif.g08.bks.cpg/sg65_35_cif.got.tgz:69591.got - 2010.06.03 17:01:31.
