data_PCOD9487840
_publ_section_title
;
Structure prediction by ZEFSAII (Michael W. Deem and Ramdas Pophale) SiO2 
 PCOD9487840
Probable space group: C M M M
;
_chemical_formula_sum "Si O2"
_cell_formula_units_Z 72
_cell_length_a 18.911289
_cell_length_b 7.822579
_cell_length_c 26.033754
_cell_angle_alpha 90.000000
_cell_angle_beta 90.000000
_cell_angle_gamma 90.000000
_cell_volume 3851.304757
_symmetry_space_group_name_H-M "C M M M"
_symmetry_group_IT_number 65
_symmetry_cell_setting 'orthorhombic'
loop_
_space_group_symop_operation_xyz
x,y,z
-x,-y,z
x,-y,-z
-x,y,-z
-x,-y,-z
x,y,-z
-x,y,z
x,-y,z
1/2+x,1/2+y,z
1/2-x,1/2-y,z
1/2+x,1/2-y,-z
1/2-x,1/2+y,-z
1/2-x,1/2-y,-z
1/2+x,1/2+y,-z
1/2-x,1/2+y,z
1/2+x,1/2-y,z
loop_
_atom_site_type_symbol
_atom_site_label
_atom_site_fract_x
_atom_site_fract_y
_atom_site_fract_z
Si Si1 0.668027 0.794138 0.155899
Si Si2 0.586092 0.690003 0.630750
Si Si3 0.418001 0.208610 0.942623
Si Si4 0.913531 0.500000 0.559053
Si Si5 0.582160 0.207153 0.255277
O O1 0.750000 0.750000 0.156663
O O2 0.630225 0.730308 0.104030
O O3 0.628232 0.733041 0.207177
O O4 0.661044 0.000000 0.155778
O O5 0.500000 0.696420 0.631466
O O6 0.607729 0.500000 0.615436
O O7 0.609556 0.834225 0.591110
O O8 0.607575 0.727235 0.689424
O O9 0.500000 0.257008 0.934678
O O10 0.416302 0.000000 0.942590
O O11 0.396246 0.263999 0.000000
O O12 0.890613 0.500000 0.500000
O O13 0.000000 0.500000 0.558786
O O14 0.500000 0.257407 0.248140
O O15 0.583750 0.000000 0.257360
#
# Coordination Sequence:
#
# PCOD9487840 Si02
#       5
#    16  16  16   8  16
#     4  10  20  31  45  68  97 127 156 199 253 304
#     4   9  16  26  42  65  92 126 167 206 248 298
#     4   8  14  27  48  71  92 119 164 212 245 286
#     4   9  16  26  40  62  98 136 165 201 248 297
#     4   9  16  29  48  65  86 122 167 210 248 294
#
# _framework density 18.694962
#
# number of rings (size 3 to 8) (size 9 to 14) (size 15 to 20)
#    0.000    3.000    1.111    1.333    0.000    4.444 
#    0.000    2.222    0.000    2.000    0.000    1.556 
#    0.000    0.889    0.444    0.000    0.000    0.000 
#
# Total GULP energy -200731.298466 kJ/mol
# GULP energy per Si atom -5575.869402 kJ/mol
# Density = 1.865241 g / cm^3
# Si number density = 18.694962 Si / 1000 Ang^3
#
#
#
# Elastic Constant Matrix: (Units=GPa)
#
#
# Indices 1 2 3 4 5 6 
#
# 1 51.5166 20.7176 70.4855 0.0000 0.0000 0.0000
# 2 20.7176 71.3204 67.7956 0.0000 0.0000 0.0000
# 3 70.4855 67.7956 209.3875 0.0000 0.0000 0.0000
# 4 0.0000 0.0000 0.0000 -1.2578 0.0000 0.0000
# 5 0.0000 0.0000 0.0000 0.0000 -2.5193 0.0000
# 6 0.0000 0.0000 0.0000 0.0000 0.0000 15.0488
#
#
#
# Elastic Compliance Matrix: (Units=1/GPa)
#
#
# Indices 1 2 3 4 5 6 
#
# 1 0.036102 0.001539 -0.012651 0.000000 0.000000 0.000000
# 2 0.001539 0.020321 -0.007098 0.000000 0.000000 0.000000
# 3 -0.012651 -0.007098 0.011333 0.000000 0.000000 0.000000
# 4 0.000000 0.000000 0.000000 -0.795057 0.000000 0.000000
# 5 0.000000 0.000000 0.000000 0.000000 -0.396940 0.000000
# 6 0.000000 0.000000 0.000000 0.000000 0.000000 0.066450
#
#
# Mechanical properties :
#
#
# Convention : Reuss Voigt Hill
#
# Bulk Modulus (GPa) = 31.91259 72.24688 52.07974
# Shear Modulus (GPa) = -4.94596 13.80274 4.42839
#
# Velocity S-wave (km/s) = -1.62830 2.72014 1.54075
# Velocity P-wave (km/s) = 3.68403 6.97098 5.57524
#
# Compressibility (1/GPa) = 0.03133560
#
# Stress axis : x y z
#
# Youngs Moduli (GPa) = 27.69960 49.21011 88.24144
#
# Poissons Ratio (x) = -0.07572 1.11634
# Poissons Ratio (y) = -0.04262 0.62630
# Poissons Ratio (z) = 0.35043 0.34927
#
# Static dielectric constant tensor:
#      x y z
#    x 1.598490 0.000000 0.000000 
#    y 0.000000 1.684790 0.000000 
#    z 0.000000 0.000000 1.639430 
# 
# From -- ./inp_files/67140.got.cif
#   From: 2010.05.17/outbox.cif.g08.bks.cpg/sg65_34_cif.got.tgz:67140.got - 2010.06.03 17:01:31.
