data_PCOD9487800
_publ_section_title
;
Structure prediction by ZEFSAII (Michael W. Deem and Ramdas Pophale) SiO2 
 PCOD9487800
Probable space group: C M M M
;
_chemical_formula_sum "Si O2"
_cell_formula_units_Z 96
_cell_length_a 27.993557
_cell_length_b 7.560764
_cell_length_c 25.403160
_cell_angle_alpha 90.000000
_cell_angle_beta 90.000000
_cell_angle_gamma 90.000000
_cell_volume 5376.646844
_symmetry_space_group_name_H-M "C M M M"
_symmetry_group_IT_number 65
_symmetry_cell_setting 'orthorhombic'
loop_
_space_group_symop_operation_xyz
x,y,z
-x,-y,z
x,-y,-z
-x,y,-z
-x,-y,-z
x,y,-z
-x,y,z
x,-y,z
1/2+x,1/2+y,z
1/2-x,1/2-y,z
1/2+x,1/2-y,-z
1/2-x,1/2+y,-z
1/2-x,1/2-y,-z
1/2+x,1/2+y,-z
1/2-x,1/2+y,z
1/2+x,1/2-y,z
loop_
_atom_site_type_symbol
_atom_site_label
_atom_site_fract_x
_atom_site_fract_y
_atom_site_fract_z
Si Si1 0.055761 0.216308 0.328779
Si Si2 0.695893 0.287935 0.835522
Si Si3 0.602058 0.713602 0.221176
Si Si4 0.946773 0.709338 0.111728
Si Si5 0.442822 0.713285 0.556636
Si Si6 0.651620 0.293038 0.058084
O O1 0.084046 0.278234 0.277545
O O2 0.074505 0.276101 0.386191
O O3 0.000000 0.265958 0.323784
O O4 0.056828 0.000000 0.329147
O O5 0.690549 0.500000 0.837681
O O6 0.750000 0.250000 0.820835
O O7 0.654681 0.223638 0.796074
O O8 0.682703 0.217083 0.893828
O O9 0.602783 0.500000 0.223773
O O10 0.567179 0.760241 0.172770
O O11 0.947193 0.500000 0.102354
O O12 0.903475 0.783366 0.076959
O O13 0.000000 0.779297 0.101044
O O14 0.424329 0.780212 0.500000
O O15 0.500000 0.745335 0.557036
O O16 0.436886 0.500000 0.556101
O O17 0.664007 0.500000 0.054556
O O18 0.657750 0.214701 0.000000
#
# Coordination Sequence:
#
# PCOD9487800 Si02
#       6
#    16  16  16  16  16  16
#     4   8  12  18  32  54  78 107 139 165 192 229
#     4   9  18  31  46  63  81 101 126 161 205 247
#     4   9  17  29  44  61  81 106 139 173 200 236
#     4  10  20  31  43  62  88 114 137 163 196 231
#     4   7   9  13  22  41  73 108 135 159 191 230
#     4   9  19  35  51  66  83 103 131 163 193 234
#
# _framework density 17.854994000000001
#
# number of rings (size 3 to 8) (size 9 to 14) (size 15 to 20)
#    0.000    3.333    0.000    3.500    0.000    5.667 
#    0.000    1.667    0.000    0.000    0.000    0.000 
#    0.000    1.333    0.000    6.667    0.000    6.000 
#
# Total GULP energy -267304.903839 kJ/mol
# GULP energy per Si atom -5568.852163 kJ/mol
# Density = 1.781436 g / cm^3
# Si number density = 17.854994 Si / 1000 Ang^3
#
#
#
# Elastic Constant Matrix: (Units=GPa)
#
#
# Indices 1 2 3 4 5 6 
#
# 1 56.2288 -2.8887 15.7591 0.0000 0.0000 0.0000
# 2 -2.8887 40.5586 5.7963 0.0000 0.0000 0.0000
# 3 15.7591 5.7963 130.7742 0.0000 0.0000 0.0000
# 4 0.0000 0.0000 0.0000 -29.6060 0.0000 0.0000
# 5 0.0000 0.0000 0.0000 0.0000 6.7546 0.0000
# 6 0.0000 0.0000 0.0000 0.0000 0.0000 12.6150
#
#
#
# Elastic Compliance Matrix: (Units=1/GPa)
#
#
# Indices 1 2 3 4 5 6 
#
# 1 0.018515 0.001648 -0.002304 0.000000 0.000000 0.000000
# 2 0.001648 0.024960 -0.001305 0.000000 0.000000 0.000000
# 3 -0.002304 -0.001305 0.007982 0.000000 0.000000 0.000000
# 4 0.000000 0.000000 0.000000 -0.033777 0.000000 0.000000
# 5 0.000000 0.000000 0.000000 0.000000 0.148046 0.000000
# 6 0.000000 0.000000 0.000000 0.000000 0.000000 0.079271
#
#
# Mechanical properties :
#
#
# Convention : Reuss Voigt Hill
#
# Bulk Modulus (GPa) = 21.03732 29.43278 25.23505
# Shear Modulus (GPa) = 18.88476 11.87906 15.38191
#
# Velocity S-wave (km/s) = 3.25572 2.58215 2.93830
# Velocity P-wave (km/s) = 5.09321 5.04085 5.06710
#
# Compressibility (1/GPa) = 0.04753457
#
# Stress axis : x y z
#
# Youngs Moduli (GPa) = 54.01049 40.06484 125.27763
#
# Poissons Ratio (x) = -0.06603 0.28866
# Poissons Ratio (y) = -0.08901 0.16347
# Poissons Ratio (z) = 0.12445 0.05228
#
# Static dielectric constant tensor:
#      x y z
#    x 1.589000 0.000000 0.000000 
#    y 0.000000 1.654840 0.000000 
#    z 0.000000 0.000000 1.658210 
# 
# From -- ./inp_files/71670.got.cif
#   From: 2010.05.17/outbox.cif.g08.bks.cpg/sg65_36_cif.got.tgz:71670.got - 2010.06.03 17:01:31.
