data_PCOD9487103
_publ_section_title
;
Structure prediction by ZEFSAII (Michael W. Deem and Ramdas Pophale) SiO2 
 PCOD9487103
Probable space group: C M M M
;
_chemical_formula_sum "Si O2"
_cell_formula_units_Z 88
_cell_length_a 8.847371
_cell_length_b 26.174334
_cell_length_c 21.228768
_cell_angle_alpha 90.000000
_cell_angle_beta 90.000000
_cell_angle_gamma 90.000000
_cell_volume 4916.031646
_symmetry_space_group_name_H-M "C M M M"
_symmetry_group_IT_number 65
_symmetry_cell_setting 'orthorhombic'
loop_
_space_group_symop_operation_xyz
x,y,z
-x,-y,z
x,-y,-z
-x,y,-z
-x,-y,-z
x,y,-z
-x,y,z
x,-y,z
1/2+x,1/2+y,z
1/2-x,1/2-y,z
1/2+x,1/2-y,-z
1/2-x,1/2+y,-z
1/2-x,1/2-y,-z
1/2+x,1/2+y,-z
1/2-x,1/2+y,z
1/2+x,1/2-y,z
loop_
_atom_site_type_symbol
_atom_site_label
_atom_site_fract_x
_atom_site_fract_y
_atom_site_fract_z
Si Si1 0.680329 0.000000 0.142289
Si Si2 0.181038 0.694868 0.145551
Si Si3 0.180279 0.901318 0.074678
Si Si4 0.319745 0.195107 0.706592
Si Si5 0.182145 0.099371 0.635544
Si Si6 0.184292 0.059264 0.500000
Si Si7 0.181480 0.000000 0.719297
O O1 0.745551 0.050044 0.108211
O O2 0.734683 0.000000 0.214452
O O3 0.500000 0.000000 0.139127
O O4 0.250000 0.750000 0.128865
O O5 0.251670 0.650014 0.104332
O O6 0.216902 0.685389 0.219522
O O7 0.000000 0.695959 0.138673
O O8 0.000000 0.902481 0.084858
O O9 0.208922 0.903229 0.000000
O O10 0.500000 0.197419 0.700941
O O11 0.250000 0.250000 0.689792
O O12 0.254594 0.149758 0.664590
O O13 0.231291 0.086918 0.564234
O O14 0.218739 0.050312 0.678807
O O15 0.000000 0.104718 0.635767
O O16 0.000000 0.058363 0.500000
O O17 0.232939 0.000000 0.500000
O O18 0.000000 0.000000 0.729974
#
# Coordination Sequence:
#
# PCOD9487103 Si02
#       7
#     8  16  16  16  16   8   8
#     4  12  25  39  57  82 113 149 188 233 284 338
#     4  10  21  38  61  87 115 148 186 233 284 334
#     4  11  24  41  60  82 111 148 189 233 281 337
#     4  10  21  37  57  82 112 146 186 232 279 329
#     4  10  19  33  57  86 114 148 187 228 274 327
#     4   9  16  32  56  83 116 149 188 228 267 324
#     4  10  20  34  57  86 114 146 184 227 276 333
#
# _framework density 17.900617
#
# number of rings (size 3 to 8) (size 9 to 14) (size 15 to 20)
#    0.000    1.727    0.909    3.818    0.000    8.727 
#    0.000    0.909    0.000    0.545    0.000    0.000 
#    0.000    0.000    0.000    0.000    0.000    0.000 
#
# Total GULP energy -245896.747654 kJ/mol
# GULP energy per Si atom -5588.562447 kJ/mol
# Density = 1.785987 g / cm^3
# Si number density = 17.900617 Si / 1000 Ang^3
#
#
#
# Elastic Constant Matrix: (Units=GPa)
#
#
# Indices 1 2 3 4 5 6 
#
# 1 64.1790 75.8190 82.2776 0.0000 0.0000 0.0000
# 2 75.8190 172.1702 119.7483 0.0000 0.0000 0.0000
# 3 82.2776 119.7483 151.4323 0.0000 0.0000 0.0000
# 4 0.0000 0.0000 0.0000 161.3110 0.0000 0.0000
# 5 0.0000 0.0000 0.0000 0.0000 19.3502 0.0000
# 6 0.0000 0.0000 0.0000 0.0000 0.0000 35.8224
#
#
#
# Elastic Compliance Matrix: (Units=1/GPa)
#
#
# Indices 1 2 3 4 5 6 
#
# 1 0.055611 -0.007721 -0.024110 0.000000 0.000000 0.000000
# 2 -0.007721 0.013979 -0.006859 0.000000 0.000000 0.000000
# 3 -0.024110 -0.006859 0.025127 0.000000 0.000000 0.000000
# 4 0.000000 0.000000 0.000000 0.006199 0.000000 0.000000
# 5 0.000000 0.000000 0.000000 0.000000 0.051679 0.000000
# 6 0.000000 0.000000 0.000000 0.000000 0.000000 0.027915
#
#
# Mechanical properties :
#
#
# Convention : Reuss Voigt Hill
#
# Bulk Modulus (GPa) = 57.67730 104.83013 81.25371
# Shear Modulus (GPa) = 18.96304 50.62583 34.79444
#
# Velocity S-wave (km/s) = 3.25830 5.32382 4.41359
# Velocity P-wave (km/s) = 6.81514 9.82243 8.45359
#
# Compressibility (1/GPa) = 0.01733784
#
# Stress axis : x y z
#
# Youngs Moduli (GPa) = 17.98193 71.53593 39.79713
#
# Poissons Ratio (x) = 0.55230 0.95951
# Poissons Ratio (y) = 0.13883 0.27298
# Poissons Ratio (z) = 0.43354 0.49069
#
# Static dielectric constant tensor:
#      x y z
#    x 1.599200 0.000000 0.000000 
#    y 0.000000 1.572820 0.000000 
#    z 0.000000 0.000000 1.596040 
# 
# From -- ./inp_files/59876.got.cif
#   From: 2010.05.17/outbox.cif.g08.bks.cpg/sg65_30_cif.got.tgz:59876.got - 2010.06.03 17:01:31.
