data_PCOD9487216
_publ_section_title
;
Structure prediction by ZEFSAII (Michael W. Deem and Ramdas Pophale) SiO2 
 PCOD9487216
Probable space group: C M M M
;
_chemical_formula_sum "Si O2"
_cell_formula_units_Z 88
_cell_length_a 14.033251
_cell_length_b 19.081517
_cell_length_c 18.075065
_cell_angle_alpha 90.000000
_cell_angle_beta 90.000000
_cell_angle_gamma 90.000000
_cell_volume 4840.063500
_symmetry_space_group_name_H-M "C M M M"
_symmetry_group_IT_number 65
_symmetry_cell_setting 'orthorhombic'
loop_
_space_group_symop_operation_xyz
x,y,z
-x,-y,z
x,-y,-z
-x,y,-z
-x,-y,-z
x,y,-z
-x,y,z
x,-y,z
1/2+x,1/2+y,z
1/2-x,1/2-y,z
1/2+x,1/2-y,-z
1/2-x,1/2+y,-z
1/2-x,1/2-y,-z
1/2+x,1/2+y,-z
1/2-x,1/2+y,z
1/2+x,1/2-y,z
loop_
_atom_site_type_symbol
_atom_site_label
_atom_site_fract_x
_atom_site_fract_y
_atom_site_fract_z
Si Si1 0.115176 0.830759 0.582648
Si Si2 0.885128 0.324495 0.359371
Si Si3 0.383740 0.919573 0.500000
Si Si4 0.613391 0.581932 0.723570
Si Si5 0.227227 0.668611 0.793775
Si Si6 0.113701 0.581420 0.913078
O O1 0.152845 0.840999 0.500000
O O2 0.139679 0.754179 0.614012
O O3 0.140057 0.889485 0.642109
O O4 0.000000 0.831265 0.577826
O O5 0.857858 0.377305 0.425536
O O6 0.834227 0.338629 0.281818
O O7 0.000000 0.327879 0.350150
O O8 0.500000 0.920754 0.500000
O O9 0.350092 0.000000 0.500000
O O10 0.500000 0.592799 0.733118
O O11 0.633952 0.500000 0.730138
O O12 0.674875 0.627006 0.780106
O O13 0.250000 0.750000 0.805725
O O14 0.170073 0.633451 0.860412
O O15 0.136589 0.500000 0.895368
O O16 0.000000 0.589928 0.903024
O O17 0.134366 0.592501 0.000000
#
# Coordination Sequence:
#
# PCOD9487216 Si02
#       6
#    16  16   8  16  16  16
#     4   9  16  31  55  75  99 145 197 244 293 336
#     4  10  19  34  54  79 113 150 188 236 292 350
#     4   9  18  32  51  76 112 156 195 241 300 354
#     4  10  22  39  55  76 111 152 198 247 288 329
#     4  12  23  35  59  90 118 149 190 235 283 346
#     4   9  20  41  67  93 121 150 180 223 282 346
#
# _framework density 18.181581000000001
#
# number of rings (size 3 to 8) (size 9 to 14) (size 15 to 20)
#    0.000    2.091    2.727    1.636    0.000    2.909 
#    1.636    5.000    0.000    0.545    0.000    2.545 
#    0.000    0.000    0.000    0.000    0.000    0.000 
#
# Total GULP energy -245805.108330 kJ/mol
# GULP energy per Si atom -5586.479735 kJ/mol
# Density = 1.814020 g / cm^3
# Si number density = 18.181581 Si / 1000 Ang^3
#
#
#
# Elastic Constant Matrix: (Units=GPa)
#
#
# Indices 1 2 3 4 5 6 
#
# 1 77.8905 64.5405 50.6414 0.0000 0.0000 0.0000
# 2 64.5405 163.7898 87.3808 0.0000 0.0000 0.0000
# 3 50.6414 87.3808 115.1219 0.0000 0.0000 0.0000
# 4 0.0000 0.0000 0.0000 12.9501 0.0000 0.0000
# 5 0.0000 0.0000 0.0000 0.0000 18.1710 0.0000
# 6 0.0000 0.0000 0.0000 0.0000 0.0000 18.2415
#
#
#
# Elastic Compliance Matrix: (Units=1/GPa)
#
#
# Indices 1 2 3 4 5 6 
#
# 1 0.020566 -0.005508 -0.004866 0.000000 0.000000 0.000000
# 2 -0.005508 0.011735 -0.006484 0.000000 0.000000 0.000000
# 3 -0.004866 -0.006484 0.015749 0.000000 0.000000 0.000000
# 4 0.000000 0.000000 0.000000 0.077219 0.000000 0.000000
# 5 0.000000 0.000000 0.000000 0.000000 0.055033 0.000000
# 6 0.000000 0.000000 0.000000 0.000000 0.000000 0.054820
#
#
# Mechanical properties :
#
#
# Convention : Reuss Voigt Hill
#
# Bulk Modulus (GPa) = 69.76847 84.65863 77.21355
# Shear Modulus (GPa) = 18.27368 20.15516 19.21442
#
# Velocity S-wave (km/s) = 3.17372 3.33310 3.25438
# Velocity P-wave (km/s) = 7.20322 7.84071 7.52872
#
# Compressibility (1/GPa) = 0.01433312
#
# Stress axis : x y z
#
# Youngs Moduli (GPa) = 48.62326 85.21417 63.49614
#
# Poissons Ratio (x) = 0.46935 0.30899
# Poissons Ratio (y) = 0.26781 0.41174
# Poissons Ratio (z) = 0.23662 0.55257
#
# Static dielectric constant tensor:
#      x y z
#    x 1.662420 0.000000 0.000000 
#    y 0.000000 1.601740 0.000000 
#    z 0.000000 0.000000 1.593200 
# 
# From -- ./inp_files/53046.got.cif
#   From: 2010.05.17/outbox.cif.g08.bks.cpg/sg65_27_cif.got.tgz:53046.got - 2010.06.03 17:01:31.
