data_PCOD9487125
_publ_section_title
;
Structure prediction by ZEFSAII (Michael W. Deem and Ramdas Pophale) SiO2 
 PCOD9487125
Probable space group: C M M M
;
_chemical_formula_sum "Si O2"
_cell_formula_units_Z 112
_cell_length_a 13.632684
_cell_length_b 29.012589
_cell_length_c 14.014160
_cell_angle_alpha 90.000000
_cell_angle_beta 90.000000
_cell_angle_gamma 90.000000
_cell_volume 5542.872966
_symmetry_space_group_name_H-M "C M M M"
_symmetry_group_IT_number 65
_symmetry_cell_setting 'orthorhombic'
loop_
_space_group_symop_operation_xyz
x,y,z
-x,-y,z
x,-y,-z
-x,y,-z
-x,-y,-z
x,y,-z
-x,y,z
x,-y,z
1/2+x,1/2+y,z
1/2-x,1/2-y,z
1/2+x,1/2-y,-z
1/2-x,1/2+y,-z
1/2-x,1/2-y,-z
1/2+x,1/2+y,-z
1/2-x,1/2+y,z
1/2+x,1/2-y,z
loop_
_atom_site_type_symbol
_atom_site_label
_atom_site_fract_x
_atom_site_fract_y
_atom_site_fract_z
Si Si1 0.119069 0.273065 0.611533
Si Si2 0.887412 0.384614 0.887702
Si Si3 0.383635 0.582586 0.610923
Si Si4 0.786047 0.552994 0.261720
Si Si5 0.756974 0.805084 0.889462
Si Si6 0.382567 0.321240 0.290352
Si Si7 0.617186 0.127398 0.609065
O O1 0.145349 0.270940 0.500000
O O2 0.150651 0.227105 0.664226
O O3 0.150123 0.323096 0.650920
O O4 0.000000 0.272670 0.614779
O O5 0.813417 0.419144 0.834000
O O6 0.845074 0.332821 0.877589
O O7 0.000000 0.388068 0.851514
O O8 0.888527 0.395160 0.000000
O O9 0.356702 0.572844 0.500000
O O10 0.500000 0.574249 0.619175
O O11 0.322302 0.556053 0.691898
O O12 0.364653 0.636263 0.637838
O O13 0.814883 0.500000 0.252713
O O14 0.846899 0.582638 0.337998
O O15 0.750000 0.750000 0.875768
O O16 0.830393 0.825863 0.811374
O O17 0.787954 0.812632 0.000000
O O18 0.500000 0.319420 0.276556
O O19 0.650217 0.126266 0.500000
O O20 0.500000 0.127825 0.609353
#
# Coordination Sequence:
#
# PCOD9487125 Si02
#       7
#    16  16  16  16  16  16  16
#     4   8  15  29  51  82 120 161 200 238 285 349
#     4  10  23  45  70  94 125 164 207 260 317 371
#     4  10  22  41  64  93 129 166 208 257 309 372
#     4  12  25  41  63  90 119 154 206 267 322 375
#     4  10  22  39  59  90 130 167 206 248 300 373
#     4  10  19  33  59  92 124 160 202 252 304 359
#     4   9  19  35  54  82 123 164 201 245 303 372
#
# _framework density 20.206126999999999
#
# number of rings (size 3 to 8) (size 9 to 14) (size 15 to 20)
#    0.000    2.143    1.429    2.143    2.000    5.429 
#    0.000    3.571    0.000    3.857    0.000    1.000 
#    0.000    0.000    0.000    0.000    0.000    0.000 
#
# Total GULP energy -312682.451825 kJ/mol
# GULP energy per Si atom -5583.615211 kJ/mol
# Density = 2.016014 g / cm^3
# Si number density = 20.206127 Si / 1000 Ang^3
#
#
#
# Elastic Constant Matrix: (Units=GPa)
#
#
# Indices 1 2 3 4 5 6 
#
# 1 77.5954 32.5225 24.9195 0.0000 0.0000 0.0000
# 2 32.5225 126.1731 27.9106 0.0000 0.0000 0.0000
# 3 24.9195 27.9106 109.5821 0.0000 0.0000 0.0000
# 4 0.0000 0.0000 0.0000 27.3475 0.0000 0.0000
# 5 0.0000 0.0000 0.0000 0.0000 31.2030 0.0000
# 6 0.0000 0.0000 0.0000 0.0000 0.0000 20.2373
#
#
#
# Elastic Compliance Matrix: (Units=1/GPa)
#
#
# Indices 1 2 3 4 5 6 
#
# 1 0.015112 -0.003322 -0.002590 0.000000 0.000000 0.000000
# 2 -0.003322 0.009129 -0.001570 0.000000 0.000000 0.000000
# 3 -0.002590 -0.001570 0.010114 0.000000 0.000000 0.000000
# 4 0.000000 0.000000 0.000000 0.036566 0.000000 0.000000
# 5 0.000000 0.000000 0.000000 0.000000 0.032048 0.000000
# 6 0.000000 0.000000 0.000000 0.000000 0.000000 0.049414
#
#
# Mechanical properties :
#
#
# Convention : Reuss Voigt Hill
#
# Bulk Modulus (GPa) = 51.57075 53.78399 52.67737
# Shear Modulus (GPa) = 28.76678 30.95742 29.86210
#
# Velocity S-wave (km/s) = 3.77724 3.91843 3.84848
# Velocity P-wave (km/s) = 6.67841 6.86641 6.77306
#
# Compressibility (1/GPa) = 0.01939084
#
# Stress axis : x y z
#
# Youngs Moduli (GPa) = 66.17404 109.53879 98.86857
#
# Poissons Ratio (x) = 0.36391 0.25610
# Poissons Ratio (y) = 0.21984 0.15520
# Poissons Ratio (z) = 0.17141 0.17195
#
# Static dielectric constant tensor:
#      x y z
#    x 1.777060 0.000000 0.000000 
#    y 0.000000 1.702500 0.000000 
#    z 0.000000 0.000000 1.724870 
# 
# From -- ./inp_files/40789.got.cif
#   From: 2010.05.17/outbox.cif.g08.bks.cpg/sg65_21_cif.got.tgz:40789.got - 2010.06.03 17:01:31.
