data_PCOD9487308
_publ_section_title
;
Structure prediction by ZEFSAII (Michael W. Deem and Ramdas Pophale) SiO2 
 PCOD9487308
Probable space group: C M M M
;
_chemical_formula_sum "Si O2"
_cell_formula_units_Z 88
_cell_length_a 18.767151
_cell_length_b 8.287152
_cell_length_c 30.184133
_cell_angle_alpha 90.000000
_cell_angle_beta 90.000000
_cell_angle_gamma 90.000000
_cell_volume 4694.424500
_symmetry_space_group_name_H-M "C M M M"
_symmetry_group_IT_number 65
_symmetry_cell_setting 'orthorhombic'
loop_
_space_group_symop_operation_xyz
x,y,z
-x,-y,z
x,-y,-z
-x,y,-z
-x,-y,-z
x,y,-z
-x,y,z
x,-y,z
1/2+x,1/2+y,z
1/2-x,1/2-y,z
1/2+x,1/2-y,-z
1/2-x,1/2+y,-z
1/2-x,1/2-y,-z
1/2+x,1/2+y,-z
1/2-x,1/2+y,z
1/2+x,1/2-y,z
loop_
_atom_site_type_symbol
_atom_site_label
_atom_site_fract_x
_atom_site_fract_y
_atom_site_fract_z
Si Si1 0.169338 0.806406 0.550726
Si Si2 0.830489 0.810381 0.282238
Si Si3 0.086917 0.500000 0.948534
Si Si4 0.586715 0.320027 0.895953
Si Si5 0.582839 0.189757 0.198851
Si Si6 0.417781 0.192204 0.633912
O O1 0.152646 0.757972 0.500000
O O2 0.250000 0.750000 0.560200
O O3 0.116634 0.733441 0.586711
O O4 0.166759 0.000000 0.553361
O O5 0.750000 0.750000 0.286687
O O6 0.869718 0.724524 0.241378
O O7 0.872772 0.774090 0.327281
O O8 0.830660 0.000000 0.273567
O O9 0.110753 0.665469 0.924524
O O10 0.000000 0.500000 0.946343
O O11 0.107097 0.500000 0.000000
O O12 0.500000 0.318969 0.897786
O O13 0.610130 0.500000 0.909961
O O14 0.605545 0.287902 0.844654
O O15 0.500000 0.229794 0.208804
O O16 0.585430 0.000000 0.187514
O O17 0.500000 0.244117 0.635598
O O18 0.414891 0.000000 0.640875
#
# Coordination Sequence:
#
# PCOD9487308 Si02
#       6
#    16  16   8  16  16  16
#     4  10  21  38  61  87 115 148 186 230 279 332
#     4  12  25  40  58  81 111 146 183 230 280 336
#     4   9  16  26  40  64 102 144 184 230 282 334
#     4   9  16  27  44  68  99 140 186 228 278 336
#     4  10  19  34  56  80 109 145 184 229 280 336
#     4  11  24  41  60  83 113 148 186 228 278 335
#
# _framework density 18.745642
#
# number of rings (size 3 to 8) (size 9 to 14) (size 15 to 20)
#    0.000    1.727    0.909    4.364    0.000    6.545 
#    0.000    3.636    0.000    0.000    0.000    0.000 
#    0.000    0.727    0.364    0.000    0.000    0.000 
#
# Total GULP energy -245775.469417 kJ/mol
# GULP energy per Si atom -5585.806123 kJ/mol
# Density = 1.870298 g / cm^3
# Si number density = 18.745642 Si / 1000 Ang^3
#
#
#
# Elastic Constant Matrix: (Units=GPa)
#
#
# Indices 1 2 3 4 5 6 
#
# 1 70.5061 20.5449 47.0158 0.0000 0.0000 0.0000
# 2 20.5449 88.6765 30.8940 0.0000 0.0000 0.0000
# 3 47.0158 30.8940 95.3013 0.0000 0.0000 0.0000
# 4 0.0000 0.0000 0.0000 19.7665 0.0000 0.0000
# 5 0.0000 0.0000 0.0000 0.0000 -5.7243 0.0000
# 6 0.0000 0.0000 0.0000 0.0000 0.0000 21.6622
#
#
#
# Elastic Compliance Matrix: (Units=1/GPa)
#
#
# Indices 1 2 3 4 5 6 
#
# 1 0.021298 -0.001436 -0.010041 0.000000 0.000000 0.000000
# 2 -0.001436 0.012810 -0.003444 0.000000 0.000000 0.000000
# 3 -0.010041 -0.003444 0.016563 0.000000 0.000000 0.000000
# 4 0.000000 0.000000 0.000000 0.050591 0.000000 0.000000
# 5 0.000000 0.000000 0.000000 0.000000 -0.174694 0.000000
# 6 0.000000 0.000000 0.000000 0.000000 0.000000 0.046163
#
#
# Mechanical properties :
#
#
# Convention : Reuss Voigt Hill
#
# Bulk Modulus (GPa) = 48.01344 50.15482 49.08413
# Shear Modulus (GPa) = 525.44127 17.54282 271.49204
#
# Velocity S-wave (km/s) = 16.76034 3.06246 12.04757
# Velocity P-wave (km/s) = 20.00535 6.27044 14.82451
#
# Compressibility (1/GPa) = 0.02082750
#
# Stress axis : x y z
#
# Youngs Moduli (GPa) = 46.95379 78.06699 60.37441
#
# Poissons Ratio (x) = 0.11210 0.60624
# Poissons Ratio (y) = 0.06742 0.20793
# Poissons Ratio (z) = 0.47148 0.26887
#
# Static dielectric constant tensor:
#      x y z
#    x 1.605550 0.000000 0.000000 
#    y 0.000000 1.662640 0.000000 
#    z 0.000000 0.000000 1.622840 
# 
# From -- ./inp_files/77984.got.cif
#   From: 2010.05.17/outbox.cif.g08.bks.cpg/sg65_39_cif.got.tgz:77984.got - 2010.06.03 17:01:31.
