data_PCOD9487639
_publ_section_title
;
Structure prediction by ZEFSAII (Michael W. Deem and Ramdas Pophale) SiO2 
 PCOD9487639
Probable space group: C M M M
;
_chemical_formula_sum "Si O2"
_cell_formula_units_Z 104
_cell_length_a 33.579246
_cell_length_b 19.559318
_cell_length_c 8.852598
_cell_angle_alpha 90.000000
_cell_angle_beta 90.000000
_cell_angle_gamma 90.000000
_cell_volume 5814.272617
_symmetry_space_group_name_H-M "C M M M"
_symmetry_group_IT_number 65
_symmetry_cell_setting 'orthorhombic'
loop_
_space_group_symop_operation_xyz
x,y,z
-x,-y,z
x,-y,-z
-x,y,-z
-x,-y,-z
x,y,-z
-x,y,z
x,-y,z
1/2+x,1/2+y,z
1/2-x,1/2-y,z
1/2+x,1/2-y,-z
1/2-x,1/2+y,-z
1/2-x,1/2-y,-z
1/2+x,1/2+y,-z
1/2-x,1/2+y,z
1/2+x,1/2-y,z
loop_
_atom_site_type_symbol
_atom_site_label
_atom_site_fract_x
_atom_site_fract_y
_atom_site_fract_z
Si Si1 0.417523 0.578400 0.318400
Si Si2 0.119384 0.338101 0.818301
Si Si3 0.954018 0.579992 0.317913
Si Si4 0.855507 0.193555 0.319291
Si Si5 0.198293 0.421600 0.184003
Si Si6 0.500000 0.583064 0.827280
Si Si7 0.769926 0.175393 0.177010
O O1 0.419753 0.577411 0.500000
O O2 0.410837 0.500000 0.267352
O O3 0.382851 0.629603 0.272989
O O4 0.459664 0.603843 0.255122
O O5 0.078977 0.371898 0.756451
O O6 0.127973 0.262592 0.755881
O O7 0.157435 0.384344 0.770838
O O8 0.118222 0.336335 0.000000
O O9 0.951237 0.585309 0.500000
O O10 0.946814 0.500000 0.278096
O O11 0.000000 0.596186 0.276072
O O12 0.857264 0.201005 0.500000
O O13 0.810670 0.178544 0.267814
O O14 0.199268 0.500000 0.234289
O O15 0.237128 0.378997 0.232196
O O16 0.198748 0.420852 0.000000
O O17 0.500000 0.500000 0.824281
O O18 0.500000 0.605708 0.000000
O O19 0.750000 0.250000 0.184238
O O20 0.778697 0.161329 0.000000
#
# Coordination Sequence:
#
# PCOD9487639 Si02
#       7
#    16  16  16  16  16   8  16
#     4   9  19  37  58  79 108 147 186 223 271 335
#     4  11  21  36  57  82 114 149 190 236 278 328
#     4   9  19  37  59  83 115 153 189 230 282 335
#     4  11  23  37  56  82 111 147 187 227 280 338
#     4   9  18  33  55  82 109 141 182 226 273 325
#     4   9  17  31  55  85 111 135 172 225 274 319
#     4  10  19  36  57  77 106 144 180 221 276 334
#
# _framework density 17.887018000000001
#
# number of rings (size 3 to 8) (size 9 to 14) (size 15 to 20)
#    0.000    2.231    1.538    2.077    0.000    4.308 
#    1.385    0.769    0.000    1.846    0.000    0.000 
#    0.000    0.000    0.000    0.000    0.000    0.000 
#
# Total GULP energy -290156.875978 kJ/mol
# GULP energy per Si atom -5579.939923 kJ/mol
# Density = 1.784631 g / cm^3
# Si number density = 17.887018 Si / 1000 Ang^3
#
#
#
# Elastic Constant Matrix: (Units=GPa)
#
#
# Indices 1 2 3 4 5 6 
#
# 1 172.1916 92.2845 47.2071 0.0000 0.0000 0.0000
# 2 92.2845 125.3870 37.8678 0.0000 0.0000 0.0000
# 3 47.2071 37.8678 28.9148 0.0000 0.0000 0.0000
# 4 0.0000 0.0000 0.0000 19.6613 0.0000 0.0000
# 5 0.0000 0.0000 0.0000 0.0000 36.7560 0.0000
# 6 0.0000 0.0000 0.0000 0.0000 0.0000 32.0860
#
#
#
# Elastic Compliance Matrix: (Units=1/GPa)
#
#
# Indices 1 2 3 4 5 6 
#
# 1 0.012066 -0.004849 -0.013349 0.000000 0.000000 0.000000
# 2 -0.004849 0.015142 -0.011914 0.000000 0.000000 0.000000
# 3 -0.013349 -0.011914 0.071981 0.000000 0.000000 0.000000
# 4 0.000000 0.000000 0.000000 0.050861 0.000000 0.000000
# 5 0.000000 0.000000 0.000000 0.000000 0.027206 0.000000
# 6 0.000000 0.000000 0.000000 0.000000 0.000000 0.031166
#
#
# Mechanical properties :
#
#
# Convention : Reuss Voigt Hill
#
# Bulk Modulus (GPa) = 25.66378 75.69025 50.67701
# Shear Modulus (GPa) = 17.75342 27.64291 22.69817
#
# Velocity S-wave (km/s) = 3.15386 3.93544 3.56613
# Velocity P-wave (km/s) = 5.25750 7.94090 6.73421
#
# Compressibility (1/GPa) = 0.03896543
#
# Stress axis : x y z
#
# Youngs Moduli (GPa) = 82.87826 66.03960 13.89254
#
# Poissons Ratio (x) = 0.32023 0.18545
# Poissons Ratio (y) = 0.40188 0.16552
# Poissons Ratio (z) = 1.10631 0.78682
#
# Static dielectric constant tensor:
#      x y z
#    x 1.608450 0.000000 0.000000 
#    y 0.000000 1.601020 0.000000 
#    z 0.000000 0.000000 1.608930 
# 
# From -- ./inp_files/18676.got.cif
#   From: 2010.05.17/outbox.cif.g08.bks.cpg/sg65_10_cif.got.tgz:18676.got - 2010.06.03 17:01:31.
