data_PCOD9487546
_publ_section_title
;
Structure prediction by ZEFSAII (Michael W. Deem and Ramdas Pophale) SiO2 
 PCOD9487546
Probable space group: C M M M
;
_chemical_formula_sum "Si O2"
_cell_formula_units_Z 104
_cell_length_a 28.736884
_cell_length_b 8.455667
_cell_length_c 22.284140
_cell_angle_alpha 90.000000
_cell_angle_beta 90.000000
_cell_angle_gamma 90.000000
_cell_volume 5414.812521
_symmetry_space_group_name_H-M "C M M M"
_symmetry_group_IT_number 65
_symmetry_cell_setting 'orthorhombic'
loop_
_space_group_symop_operation_xyz
x,y,z
-x,-y,z
x,-y,-z
-x,y,-z
-x,-y,-z
x,y,-z
-x,y,z
x,-y,z
1/2+x,1/2+y,z
1/2-x,1/2-y,z
1/2+x,1/2-y,-z
1/2-x,1/2+y,-z
1/2-x,1/2-y,-z
1/2+x,1/2+y,-z
1/2-x,1/2+y,z
1/2+x,1/2-y,z
loop_
_atom_site_type_symbol
_atom_site_label
_atom_site_fract_x
_atom_site_fract_y
_atom_site_fract_z
Si Si1 0.380132 0.179023 0.655317
Si Si2 0.301121 0.190686 0.069602
Si Si3 0.447021 0.807338 0.000000
Si Si4 0.946776 0.177194 0.571502
Si Si5 0.053550 0.188302 0.241554
Si Si6 0.103312 0.308481 0.877751
Si Si7 0.802779 0.308291 0.567451
O O1 0.415804 0.188876 0.599848
O O2 0.409280 0.260332 0.707971
O O3 0.333958 0.248515 0.623567
O O4 0.370309 0.000000 0.674341
O O5 0.250000 0.250000 0.086555
O O6 0.342869 0.241532 0.113352
O O7 0.300927 0.000000 0.069212
O O8 0.310089 0.240746 0.000000
O O9 0.421539 0.758644 0.939431
O O10 0.500000 0.753749 0.000000
O O11 0.446526 0.000000 0.000000
O O12 0.946440 0.184058 0.500000
O O13 0.000000 0.190443 0.592100
O O14 0.930184 0.000000 0.589220
O O15 0.075231 0.243572 0.178552
O O16 0.000000 0.249031 0.249904
O O17 0.050843 0.000000 0.242552
O O18 0.102382 0.500000 0.874214
O O19 0.819395 0.258745 0.500000
O O20 0.804073 0.500000 0.568458
O O21 0.750000 0.250000 0.573033
#
# Coordination Sequence:
#
# PCOD9487546 Si02
#       7
#    16  16   8  16  16  16  16
#     4  11  22  36  56  81 108 142 186 233 277 324
#     4   9  17  31  53  83 116 145 176 218 269 327
#     4   9  16  28  52  83 109 135 173 227 286 339
#     4   9  18  32  50  75 108 143 178 218 267 324
#     4  11  25  42  57  77 110 150 191 234 281 338
#     4  10  19  35  58  84 111 143 187 234 280 336
#     4   9  19  36  58  86 117 145 178 225 279 333
#
# _framework density 19.206575000000001
#
# number of rings (size 3 to 8) (size 9 to 14) (size 15 to 20)
#    0.000    2.231    0.769    2.769    0.000    6.769 
#    0.000    3.462    0.000    1.385    0.000    0.000 
#    0.000    0.000    0.000    0.000    0.000    0.000 
#
# Total GULP energy -289883.521598 kJ/mol
# GULP energy per Si atom -5574.683108 kJ/mol
# Density = 1.916286 g / cm^3
# Si number density = 19.206575 Si / 1000 Ang^3
#
#
#
# Elastic Constant Matrix: (Units=GPa)
#
#
# Indices 1 2 3 4 5 6 
#
# 1 132.9528 20.7109 76.7665 0.0000 0.0000 0.0000
# 2 20.7109 16.7868 19.2594 0.0000 0.0000 0.0000
# 3 76.7665 19.2594 117.1951 0.0000 0.0000 0.0000
# 4 0.0000 0.0000 0.0000 19.3807 0.0000 0.0000
# 5 0.0000 0.0000 0.0000 0.0000 56.4135 0.0000
# 6 0.0000 0.0000 0.0000 0.0000 0.0000 25.6756
#
#
#
# Elastic Compliance Matrix: (Units=1/GPa)
#
#
# Indices 1 2 3 4 5 6 
#
# 1 0.012844 -0.007633 -0.007159 0.000000 0.000000 0.000000
# 2 -0.007633 0.077948 -0.007810 0.000000 0.000000 0.000000
# 3 -0.007159 -0.007810 0.014505 0.000000 0.000000 0.000000
# 4 0.000000 0.000000 0.000000 0.051598 0.000000 0.000000
# 5 0.000000 0.000000 0.000000 0.000000 0.017726 0.000000
# 6 0.000000 0.000000 0.000000 0.000000 0.000000 0.038947
#
#
# Mechanical properties :
#
#
# Convention : Reuss Voigt Hill
#
# Bulk Modulus (GPa) = 16.64050 55.60092 36.12071
# Shear Modulus (GPa) = 17.93372 30.30716 24.12044
#
# Velocity S-wave (km/s) = 3.05901 3.97666 3.54763
# Velocity P-wave (km/s) = 4.59995 7.07791 5.96893
#
# Compressibility (1/GPa) = 0.06009436
#
# Stress axis : x y z
#
# Youngs Moduli (GPa) = 77.85733 12.82899 68.93948
#
# Poissons Ratio (x) = 0.09793 0.49353
# Poissons Ratio (y) = 0.59430 0.53840
# Poissons Ratio (z) = 0.55737 0.10019
#
# Static dielectric constant tensor:
#      x y z
#    x 1.684090 0.000000 0.000000 
#    y 0.000000 1.693350 0.000000 
#    z 0.000000 0.000000 1.672070 
# 
# From -- ./inp_files/65948.got.cif
#   From: 2010.05.17/outbox.cif.g08.bks.cpg/sg65_33_cif.got.tgz:65948.got - 2010.06.03 17:01:31.
