data_PCOD9487768
_publ_section_title
;
Structure prediction by ZEFSAII (Michael W. Deem and Ramdas Pophale) SiO2 
 PCOD9487768
Probable space group: C M M M
;
_chemical_formula_sum "Si O2"
_cell_formula_units_Z 104
_cell_length_a 14.012749
_cell_length_b 23.075039
_cell_length_c 19.364855
_cell_angle_alpha 90.000000
_cell_angle_beta 90.000000
_cell_angle_gamma 90.000000
_cell_volume 6261.523805
_symmetry_space_group_name_H-M "C M M M"
_symmetry_group_IT_number 65
_symmetry_cell_setting 'orthorhombic'
loop_
_space_group_symop_operation_xyz
x,y,z
-x,-y,z
x,-y,-z
-x,y,-z
-x,-y,-z
x,y,-z
-x,y,z
x,-y,z
1/2+x,1/2+y,z
1/2-x,1/2-y,z
1/2+x,1/2-y,-z
1/2-x,1/2+y,-z
1/2-x,1/2-y,-z
1/2+x,1/2+y,-z
1/2-x,1/2+y,z
1/2+x,1/2-y,z
loop_
_atom_site_type_symbol
_atom_site_label
_atom_site_fract_x
_atom_site_fract_y
_atom_site_fract_z
Si Si1 0.731154 0.681873 0.289476
Si Si2 0.386888 0.844043 0.616268
Si Si3 0.749966 0.659860 0.861847
Si Si4 0.383805 0.066174 0.500000
Si Si5 0.385555 0.289388 0.422566
Si Si6 0.892896 0.431194 0.917459
Si Si7 0.888158 0.754327 0.920052
O O1 0.750000 0.750000 0.278949
O O2 0.829662 0.652965 0.313260
O O3 0.706359 0.657395 0.214916
O O4 0.662359 0.679517 0.356678
O O5 0.500000 0.846992 0.625408
O O6 0.356119 0.895418 0.565801
O O7 0.365702 0.779892 0.585136
O O8 0.805526 0.602349 0.883208
O O9 0.833052 0.708959 0.871147
O O10 0.665881 0.684656 0.910057
O O11 0.500000 0.064753 0.500000
O O12 0.349854 0.000000 0.500000
O O13 0.354495 0.307472 0.500000
O O14 0.500000 0.296032 0.418824
O O15 0.887585 0.500000 0.905318
O O16 0.000000 0.411338 0.895369
O O17 0.888041 0.421661 0.000000
O O18 0.000000 0.757663 0.904639
O O19 0.876854 0.735351 0.000000
#
# Coordination Sequence:
#
# PCOD9487768 Si02
#       7
#    16  16  16   8  16  16  16
#     4  10  20  30  43  70  97 132 164 195 242 305
#     4   9  17  28  42  63  91 125 156 190 236 286
#     4  11  19  33  48  74 106 137 169 211 262 308
#     4   9  16  28  45  64  87 119 160 201 240 280
#     4   9  17  30  48  68  93 124 161 202 243 291
#     4   9  18  33  55  80 103 135 179 218 250 290
#     4  10  20  32  49  73 102 139 176 209 253 309
#
# _framework density 16.609376000000001
#
# number of rings (size 3 to 8) (size 9 to 14) (size 15 to 20)
#    0.000    2.385    2.308    2.769    1.077    4.000 
#    0.000    0.769    0.000    2.308    0.000    2.154 
#    0.000    2.462    0.000    0.000    0.000    0.000 
#
# Total GULP energy -289566.709284 kJ/mol
# GULP energy per Si atom -5568.590563 kJ/mol
# Density = 1.657157 g / cm^3
# Si number density = 16.609376 Si / 1000 Ang^3
#
#
#
# Elastic Constant Matrix: (Units=GPa)
#
#
# Indices 1 2 3 4 5 6 
#
# 1 66.6721 19.7400 27.4753 0.0000 0.0000 0.0000
# 2 19.7400 51.1168 20.0936 0.0000 0.0000 0.0000
# 3 27.4753 20.0936 77.9931 0.0000 0.0000 0.0000
# 4 0.0000 0.0000 0.0000 15.8911 0.0000 0.0000
# 5 0.0000 0.0000 0.0000 0.0000 14.3220 0.0000
# 6 0.0000 0.0000 0.0000 0.0000 0.0000 20.8467
#
#
#
# Elastic Compliance Matrix: (Units=1/GPa)
#
#
# Indices 1 2 3 4 5 6 
#
# 1 0.018690 -0.005151 -0.005257 0.000000 0.000000 0.000000
# 2 -0.005151 0.023187 -0.004159 0.000000 0.000000 0.000000
# 3 -0.005257 -0.004159 0.015745 0.000000 0.000000 0.000000
# 4 0.000000 0.000000 0.000000 0.062928 0.000000 0.000000
# 5 0.000000 0.000000 0.000000 0.000000 0.069823 0.000000
# 6 0.000000 0.000000 0.000000 0.000000 0.000000 0.047969
#
#
# Mechanical properties :
#
#
# Convention : Reuss Voigt Hill
#
# Bulk Modulus (GPa) = 35.10270 36.71109 35.90689
# Shear Modulus (GPa) = 18.05225 18.77683 18.41454
#
# Velocity S-wave (km/s) = 3.30035 3.36593 3.33330
# Velocity P-wave (km/s) = 5.97522 6.10382 6.03986
#
# Compressibility (1/GPa) = 0.02848784
#
# Stress axis : x y z
#
# Youngs Moduli (GPa) = 53.50358 43.12716 63.51173
#
# Poissons Ratio (x) = 0.22216 0.33389
# Poissons Ratio (y) = 0.27561 0.26415
# Poissons Ratio (z) = 0.28127 0.17937
#
# Static dielectric constant tensor:
#      x y z
#    x 1.580970 0.000000 0.000000 
#    y 0.000000 1.557350 0.000000 
#    z 0.000000 0.000000 1.590250 
# 
# From -- ./inp_files/53512.got.cif
#   From: 2010.05.17/outbox.cif.g08.bks.cpg/sg65_27_cif.got.tgz:53512.got - 2010.06.03 17:01:31.
