data_PCOD9487151
_publ_section_title
;
Structure prediction by ZEFSAII (Michael W. Deem and Ramdas Pophale) SiO2 
 PCOD9487151
Probable space group: C M M M
;
_chemical_formula_sum "Si O2"
_cell_formula_units_Z 104
_cell_length_a 9.270962
_cell_length_b 29.909346
_cell_length_c 23.574744
_cell_angle_alpha 90.000000
_cell_angle_beta 90.000000
_cell_angle_gamma 90.000000
_cell_volume 6537.003285
_symmetry_space_group_name_H-M "C M M M"
_symmetry_group_IT_number 65
_symmetry_cell_setting 'orthorhombic'
loop_
_space_group_symop_operation_xyz
x,y,z
-x,-y,z
x,-y,-z
-x,y,-z
-x,-y,-z
x,y,-z
-x,y,z
x,-y,z
1/2+x,1/2+y,z
1/2-x,1/2-y,z
1/2+x,1/2-y,-z
1/2-x,1/2+y,-z
1/2-x,1/2-y,-z
1/2+x,1/2+y,-z
1/2-x,1/2+y,z
1/2+x,1/2-y,z
loop_
_atom_site_type_symbol
_atom_site_label
_atom_site_fract_x
_atom_site_fract_y
_atom_site_fract_z
Si Si1 0.325881 0.105236 0.102490
Si Si2 0.171962 0.704478 0.067323
Si Si3 0.672377 0.447781 0.331890
Si Si4 0.327486 0.052214 0.783419
Si Si5 0.173104 0.053302 0.000000
Si Si6 0.163999 0.706848 0.568781
Si Si7 0.173294 0.884471 0.565232
O O1 0.500000 0.101889 0.093337
O O2 0.287597 0.157782 0.097263
O O3 0.291803 0.083215 0.163098
O O4 0.244314 0.077127 0.054358
O O5 0.250000 0.750000 0.086373
O O6 0.000000 0.710326 0.073296
O O7 0.203219 0.698625 0.000000
O O8 0.500000 0.443348 0.324532
O O9 0.705880 0.500000 0.339842
O O10 0.750855 0.433047 0.274456
O O11 0.713886 0.420905 0.388100
O O12 0.500000 0.053499 0.775697
O O13 0.287524 0.000000 0.794611
O O14 0.000000 0.059291 0.000000
O O15 0.203015 0.000000 0.000000
O O16 0.158444 0.710130 0.500000
O O17 0.250000 0.750000 0.589817
O O18 0.249803 0.661719 0.580745
O O19 0.000000 0.705646 0.589485
O O20 0.211767 0.896273 0.500000
O O21 0.000000 0.878627 0.566570
#
# Coordination Sequence:
#
# PCOD9487151 Si02
#       7
#    16  16  16  16   8  16  16
#     4  10  19  34  53  72  95 128 167 200 235 283
#     4   9  17  30  48  71  97 125 158 196 237 281
#     4   9  18  32  49  69  95 127 161 199 242 286
#     4   9  18  32  51  72  92 121 162 203 240 284
#     4  11  23  33  44  71 106 131 154 193 244 289
#     4   9  16  26  42  65  93 123 153 187 231 282
#     4   9  17  29  46  69  96 125 159 198 240 289
#
# _framework density 15.909431
#
# number of rings (size 3 to 8) (size 9 to 14) (size 15 to 20)
#    0.000    2.692    0.769    1.154    0.000    5.231 
#    0.000    3.077    0.000    0.923    0.000    8.615 
#    0.000    0.000    0.000    0.000    0.000    0.000 
#
# Total GULP energy -289735.690865 kJ/mol
# GULP energy per Si atom -5571.840209 kJ/mol
# Density = 1.587322 g / cm^3
# Si number density = 15.909431 Si / 1000 Ang^3
#
#
#
# Elastic Constant Matrix: (Units=GPa)
#
#
# Indices 1 2 3 4 5 6 
#
# 1 33.1942 50.4586 47.6988 0.0000 0.0000 0.0000
# 2 50.4586 128.6379 85.9335 0.0000 0.0000 0.0000
# 3 47.6988 85.9335 114.8394 0.0000 0.0000 0.0000
# 4 0.0000 0.0000 0.0000 7.4261 0.0000 0.0000
# 5 0.0000 0.0000 0.0000 0.0000 23.5282 0.0000
# 6 0.0000 0.0000 0.0000 0.0000 0.0000 26.3291
#
#
#
# Elastic Compliance Matrix: (Units=1/GPa)
#
#
# Indices 1 2 3 4 5 6 
#
# 1 0.100066 -0.022967 -0.024377 0.000000 0.000000 0.000000
# 2 -0.022967 0.020815 -0.006036 0.000000 0.000000 0.000000
# 3 -0.024377 -0.006036 0.023350 0.000000 0.000000 0.000000
# 4 0.000000 0.000000 0.000000 0.134659 0.000000 0.000000
# 5 0.000000 0.000000 0.000000 0.000000 0.042502 0.000000
# 6 0.000000 0.000000 0.000000 0.000000 0.000000 0.037981
#
#
# Mechanical properties :
#
#
# Convention : Reuss Voigt Hill
#
# Bulk Modulus (GPa) = 26.68738 71.65037 49.16887
# Shear Modulus (GPa) = 10.44661 17.62872 14.03766
#
# Velocity S-wave (km/s) = 2.56526 3.33238 2.97366
# Velocity P-wave (km/s) = 5.05817 7.74212 6.53932
#
# Compressibility (1/GPa) = 0.03747089
#
# Stress axis : x y z
#
# Youngs Moduli (GPa) = 9.99337 48.04196 42.82716
#
# Poissons Ratio (x) = 1.10338 1.04398
# Poissons Ratio (y) = 0.22952 0.25852
# Poissons Ratio (z) = 0.24360 0.29000
#
# Static dielectric constant tensor:
#      x y z
#    x 1.533890 0.000000 0.000000 
#    y 0.000000 1.525480 0.000000 
#    z 0.000000 0.000000 1.509230 
# 
# From -- ./inp_files/60863.got.cif
#   From: 2010.05.17/outbox.cif.g08.bks.cpg/sg65_31_cif.got.tgz:60863.got - 2010.06.03 17:01:31.
