data_PCOD9487980
_publ_section_title
;
Structure prediction by ZEFSAII (Michael W. Deem and Ramdas Pophale) SiO2 
 PCOD9487980
Probable space group: C M M M
;
_chemical_formula_sum "Si O2"
_cell_formula_units_Z 104
_cell_length_a 27.600488
_cell_length_b 9.278747
_cell_length_c 27.381625
_cell_angle_alpha 90.000000
_cell_angle_beta 90.000000
_cell_angle_gamma 90.000000
_cell_volume 7012.377900
_symmetry_space_group_name_H-M "C M M M"
_symmetry_group_IT_number 65
_symmetry_cell_setting 'orthorhombic'
loop_
_space_group_symop_operation_xyz
x,y,z
-x,-y,z
x,-y,-z
-x,y,-z
-x,-y,-z
x,y,-z
-x,y,z
x,-y,z
1/2+x,1/2+y,z
1/2-x,1/2-y,z
1/2+x,1/2-y,-z
1/2-x,1/2+y,-z
1/2-x,1/2-y,-z
1/2+x,1/2+y,-z
1/2-x,1/2+y,z
1/2+x,1/2-y,z
loop_
_atom_site_type_symbol
_atom_site_label
_atom_site_fract_x
_atom_site_fract_y
_atom_site_fract_z
Si Si1 0.599469 0.827496 0.298939
Si Si2 0.358305 0.827637 0.555687
Si Si3 0.799360 0.670985 0.650517
Si Si4 0.056111 0.171587 0.607906
Si Si5 0.559109 0.834494 0.000000
Si Si6 0.057895 0.172723 0.205812
Si Si7 0.058884 0.833755 0.096014
O O1 0.655305 0.799070 0.313874
O O2 0.567768 0.749408 0.340719
O O3 0.585283 0.760800 0.247197
O O4 0.591772 0.000000 0.300411
O O5 0.343733 0.799859 0.500000
O O6 0.318466 0.787715 0.596302
O O7 0.406925 0.742271 0.569616
O O8 0.367193 0.000000 0.561239
O O9 0.791099 0.500000 0.650679
O O10 0.750000 0.750000 0.663058
O O11 0.000000 0.193979 0.594863
O O12 0.064601 0.000000 0.612268
O O13 0.575462 0.757568 0.049731
O O14 0.500000 0.828257 0.000000
O O15 0.573468 0.000000 0.000000
O O16 0.072946 0.214095 0.150546
O O17 0.000000 0.197482 0.210698
O O18 0.065345 0.000000 0.211131
O O19 0.000000 0.831290 0.095977
O O20 0.073351 0.000000 0.089663
#
# Coordination Sequence:
#
# PCOD9487980 Si02
#       7
#    16  16  16  16   8  16  16
#     4  10  20  32  46  65  88 112 140 175 214 257
#     4   9  19  35  51  68  91 114 137 168 206 250
#     4   9  19  34  50  68  87 108 136 169 208 255
#     4  10  20  32  46  65  89 116 146 177 205 239
#     4   9  15  21  31  49  73 103 144 189 222 249
#     4   9  17  28  42  62  87 115 149 184 215 251
#     4   8  14  24  36  50  73 108 146 181 216 251
#
# _framework density 14.830918
#
# number of rings (size 3 to 8) (size 9 to 14) (size 15 to 20)
#    0.000    2.846    0.000    3.462    0.000    8.923 
#    0.000    3.077    0.000    0.000    0.000    0.000 
#    0.000    0.000    0.000    0.692    0.000    9.154 
#
# Total GULP energy -289698.225102 kJ/mol
# GULP energy per Si atom -5571.119713 kJ/mol
# Density = 1.479716 g / cm^3
# Si number density = 14.830918 Si / 1000 Ang^3
#
#
#
# Elastic Constant Matrix: (Units=GPa)
#
#
# Indices 1 2 3 4 5 6 
#
# 1 45.4866 23.9139 16.1759 0.0000 0.0000 0.0000
# 2 23.9139 44.0133 41.9189 0.0000 0.0000 0.0000
# 3 16.1759 41.9189 109.0237 0.0000 0.0000 0.0000
# 4 0.0000 0.0000 0.0000 26.5156 0.0000 0.0000
# 5 0.0000 0.0000 0.0000 0.0000 8.3858 0.0000
# 6 0.0000 0.0000 0.0000 0.0000 0.0000 22.5849
#
#
#
# Elastic Compliance Matrix: (Units=1/GPa)
#
#
# Indices 1 2 3 4 5 6 
#
# 1 0.031384 -0.019907 0.002998 0.000000 0.000000 0.000000
# 2 -0.019907 0.048475 -0.015685 0.000000 0.000000 0.000000
# 3 0.002998 -0.015685 0.014758 0.000000 0.000000 0.000000
# 4 0.000000 0.000000 0.000000 0.037714 0.000000 0.000000
# 5 0.000000 0.000000 0.000000 0.000000 0.119250 0.000000
# 6 0.000000 0.000000 0.000000 0.000000 0.000000 0.044277
#
#
# Mechanical properties :
#
#
# Convention : Reuss Voigt Hill
#
# Bulk Modulus (GPa) = 33.97993 40.28234 37.13113
# Shear Modulus (GPa) = 13.48231 19.26492 16.37361
#
# Velocity S-wave (km/s) = 3.01835 3.60803 3.32628
# Velocity P-wave (km/s) = 5.92524 6.67662 6.31212
#
# Compressibility (1/GPa) = 0.02942914
#
# Stress axis : x y z
#
# Youngs Moduli (GPa) = 31.86300 20.62921 67.75887
#
# Poissons Ratio (x) = 0.41067 -0.20312
# Poissons Ratio (y) = 0.63430 1.06278
# Poissons Ratio (z) = -0.09552 0.32356
#
# Static dielectric constant tensor:
#      x y z
#    x 1.461320 0.000000 0.000000 
#    y 0.000000 1.494310 0.000000 
#    z 0.000000 0.000000 1.501030 
# 
# From -- ./inp_files/75973.got.cif
#   From: 2010.05.17/outbox.cif.g08.bks.cpg/sg65_38_cif.got.tgz:75973.got - 2010.06.03 17:01:31.
