data_PCOD9487180
_publ_section_title
;
Structure prediction by ZEFSAII (Michael W. Deem and Ramdas Pophale) SiO2 
 PCOD9487180
Probable space group: C M M M
;
_chemical_formula_sum "Si O2"
_cell_formula_units_Z 64
_cell_length_a 11.841490
_cell_length_b 35.342586
_cell_length_c 7.553972
_cell_angle_alpha 90.000000
_cell_angle_beta 90.000000
_cell_angle_gamma 90.000000
_cell_volume 3161.404351
_symmetry_space_group_name_H-M "C M M M"
_symmetry_group_IT_number 65
_symmetry_cell_setting 'orthorhombic'
loop_
_space_group_symop_operation_xyz
x,y,z
-x,-y,z
x,-y,-z
-x,y,-z
-x,-y,-z
x,y,-z
-x,y,z
x,-y,z
1/2+x,1/2+y,z
1/2-x,1/2-y,z
1/2+x,1/2-y,-z
1/2-x,1/2+y,-z
1/2-x,1/2-y,-z
1/2+x,1/2+y,-z
1/2-x,1/2+y,z
1/2+x,1/2-y,z
loop_
_atom_site_type_symbol
_atom_site_label
_atom_site_fract_x
_atom_site_fract_y
_atom_site_fract_z
Si Si1 0.872822 0.854238 0.714281
Si Si2 0.766430 0.424634 0.290312
Si Si3 0.372493 0.500000 0.211886
Si Si4 0.130081 0.766501 0.206158
Si Si5 0.500000 0.043808 0.717489
O O1 0.865774 0.852074 0.500000
O O2 0.789037 0.886487 0.781373
O O3 0.856848 0.811852 0.782433
O O4 0.000000 0.866416 0.759500
O O5 0.779153 0.418358 0.500000
O O6 0.689913 0.461813 0.269038
O O7 0.888427 0.435385 0.218901
O O8 0.500000 0.500000 0.279482
O O9 0.373934 0.500000 0.000000
O O10 0.250000 0.750000 0.280577
O O11 0.000000 0.758250 0.276827
O O12 0.126624 0.754801 0.000000
O O13 0.500000 0.043600 0.500000
O O14 0.500000 0.000000 0.771097
#
# Coordination Sequence:
#
# PCOD9487180 Si02
#       5
#    16  16   8  16   8
#     4   9  18  32  51  76 103 130 164 207 250 293
#     4  10  19  34  54  73  98 133 171 206 249 303
#     4  11  23  34  47  72 102 129 164 213 258 295
#     4   9  18  34  55  76 101 135 169 202 247 303
#     4   9  16  30  52  74  96 130 170 208 246 294
#
# _framework density 20.244167000000001
#
# number of rings (size 3 to 8) (size 9 to 14) (size 15 to 20)
#    0.000    2.500    1.250    1.125    0.000    3.500 
#    2.250    3.750    0.000    0.000    0.000    0.000 
#    0.000    0.000    0.000    0.000    0.000    0.000 
#
# Total GULP energy -178384.351869 kJ/mol
# GULP energy per Si atom -5574.510996 kJ/mol
# Density = 2.019809 g / cm^3
# Si number density = 20.244167 Si / 1000 Ang^3
#
#
#
# Elastic Constant Matrix: (Units=GPa)
#
#
# Indices 1 2 3 4 5 6 
#
# 1 209.8145 82.8980 8.2263 0.0000 0.0000 0.0000
# 2 82.8980 84.6209 -0.9336 0.0000 0.0000 0.0000
# 3 8.2263 -0.9336 45.1358 0.0000 0.0000 0.0000
# 4 0.0000 0.0000 0.0000 25.8308 0.0000 0.0000
# 5 0.0000 0.0000 0.0000 0.0000 4.2077 0.0000
# 6 0.0000 0.0000 0.0000 0.0000 0.0000 58.7830
#
#
#
# Elastic Compliance Matrix: (Units=1/GPa)
#
#
# Indices 1 2 3 4 5 6 
#
# 1 0.007889 -0.007746 -0.001598 0.000000 0.000000 0.000000
# 2 -0.007746 0.019426 0.001814 0.000000 0.000000 0.000000
# 3 -0.001598 0.001814 0.022484 0.000000 0.000000 0.000000
# 4 0.000000 0.000000 0.000000 0.038714 0.000000 0.000000
# 5 0.000000 0.000000 0.000000 0.000000 0.237659 0.000000
# 6 0.000000 0.000000 0.000000 0.000000 0.000000 0.017012
#
#
# Mechanical properties :
#
#
# Convention : Reuss Voigt Hill
#
# Bulk Modulus (GPa) = 28.78704 57.77253 43.27979
# Shear Modulus (GPa) = 13.51991 34.38967 23.95479
#
# Velocity S-wave (km/s) = 2.58707 4.12605 3.44363
# Velocity P-wave (km/s) = 4.81401 7.16233 6.10220
#
# Compressibility (1/GPa) = 0.03473785
#
# Stress axis : x y z
#
# Youngs Moduli (GPa) = 126.75267 51.47718 44.47584
#
# Poissons Ratio (x) = 0.39876 0.07108
# Poissons Ratio (y) = 0.98187 -0.08066
# Poissons Ratio (z) = 0.20257 -0.09336
#
# Static dielectric constant tensor:
#      x y z
#    x 1.754520 0.000000 0.000000 
#    y 0.000000 1.661020 0.000000 
#    z 0.000000 0.000000 1.754020 
# 
# From -- ./inp_files/4947.got.cif
#   From: 2010.05.17/outbox.cif.g08.bks.cpg/sg65_3_cif.got.tgz:4947.got - 2010.06.03 17:01:31.
