data_PCOD9487754
_publ_section_title
;
Structure prediction by ZEFSAII (Michael W. Deem and Ramdas Pophale) SiO2 
 PCOD9487754
Probable space group: C M M M
;
_chemical_formula_sum "Si O2"
_cell_formula_units_Z 112
_cell_length_a 13.607016
_cell_length_b 29.813945
_cell_length_c 14.543260
_cell_angle_alpha 90.000000
_cell_angle_beta 90.000000
_cell_angle_gamma 90.000000
_cell_volume 5899.892652
_symmetry_space_group_name_H-M "C M M M"
_symmetry_group_IT_number 65
_symmetry_cell_setting 'orthorhombic'
loop_
_space_group_symop_operation_xyz
x,y,z
-x,-y,z
x,-y,-z
-x,y,-z
-x,-y,-z
x,y,-z
-x,y,z
x,-y,z
1/2+x,1/2+y,z
1/2-x,1/2-y,z
1/2+x,1/2-y,-z
1/2-x,1/2+y,-z
1/2-x,1/2-y,-z
1/2+x,1/2+y,-z
1/2-x,1/2+y,z
1/2+x,1/2-y,z
loop_
_atom_site_type_symbol
_atom_site_label
_atom_site_fract_x
_atom_site_fract_y
_atom_site_fract_z
Si Si1 0.116879 0.816174 0.714596
Si Si2 0.118339 0.231454 0.899142
Si Si3 0.749335 0.893591 0.757116
Si Si4 0.882555 0.375197 0.391823
Si Si5 0.113295 0.945966 0.105253
Si Si6 0.383372 0.833536 0.890114
Si Si7 0.118749 0.272636 0.607087
O O1 0.136119 0.803871 0.820708
O O2 0.173598 0.862051 0.702229
O O3 0.152156 0.772274 0.658782
O O4 0.000000 0.820999 0.699527
O O5 0.149261 0.281856 0.873633
O O6 0.000000 0.235086 0.904969
O O7 0.155212 0.218860 0.000000
O O8 0.674701 0.908066 0.676480
O O9 0.812957 0.927149 0.818837
O O10 0.681215 0.866343 0.829238
O O11 0.858346 0.379774 0.500000
O O12 0.856831 0.323373 0.362752
O O13 0.000000 0.379724 0.383220
O O14 0.000000 0.931348 0.122612
O O15 0.114605 0.000000 0.106606
O O16 0.138239 0.931760 0.000000
O O17 0.500000 0.837115 0.866653
O O18 0.374890 0.841328 0.000000
O O19 0.143998 0.269108 0.500000
O O20 0.000000 0.271346 0.614789
#
# Coordination Sequence:
#
# PCOD9487754 Si02
#       7
#    16  16  16  16  16  16  16
#     4  10  20  30  41  65 100 132 169 221 271 307
#     4   8  15  28  41  54  86 137 176 201 242 303
#     4  12  21  30  52  82 102 126 172 227 271 310
#     4   9  19  35  53  75 107 149 192 226 257 301
#     4   9  20  41  65  85 108 138 168 202 254 325
#     4   9  18  31  45  65  97 135 171 206 250 307
#     4   8  15  30  48  64  94 144 189 220 256 302
#
# _framework density 18.983395000000002
#
# number of rings (size 3 to 8) (size 9 to 14) (size 15 to 20)
#    0.000    2.714    0.000    4.286    0.000    6.286 
#    0.000    4.286    0.000    3.429    0.000    7.000 
#    0.000    0.000    0.000    0.000    0.000    0.000 
#
# Total GULP energy -312478.292320 kJ/mol
# GULP energy per Si atom -5579.969506 kJ/mol
# Density = 1.894019 g / cm^3
# Si number density = 18.983395 Si / 1000 Ang^3
#
#
#
# Elastic Constant Matrix: (Units=GPa)
#
#
# Indices 1 2 3 4 5 6 
#
# 1 82.8827 22.2639 26.8973 0.0000 0.0000 0.0000
# 2 22.2639 19.3387 22.8581 0.0000 0.0000 0.0000
# 3 26.8973 22.8581 62.3502 0.0000 0.0000 0.0000
# 4 0.0000 0.0000 0.0000 9.5697 0.0000 0.0000
# 5 0.0000 0.0000 0.0000 0.0000 19.8760 0.0000
# 6 0.0000 0.0000 0.0000 0.0000 0.0000 27.0458
#
#
#
# Elastic Compliance Matrix: (Units=1/GPa)
#
#
# Indices 1 2 3 4 5 6 
#
# 1 0.017470 -0.019773 -0.000288 0.000000 0.000000 0.000000
# 2 -0.019773 0.113631 -0.033128 0.000000 0.000000 0.000000
# 3 -0.000288 -0.033128 0.028308 0.000000 0.000000 0.000000
# 4 0.000000 0.000000 0.000000 0.104496 0.000000 0.000000
# 5 0.000000 0.000000 0.000000 0.000000 0.050312 0.000000
# 6 0.000000 0.000000 0.000000 0.000000 0.000000 0.036974
#
#
# Mechanical properties :
#
#
# Convention : Reuss Voigt Hill
#
# Bulk Modulus (GPa) = 18.85676 34.29004 26.57340
# Shear Modulus (GPa) = 10.52089 17.46845 13.99467
#
# Velocity S-wave (km/s) = 2.35673 3.03676 2.71810
# Velocity P-wave (km/s) = 4.16659 5.51347 4.88665
#
# Compressibility (1/GPa) = 0.05303137
#
# Stress axis : x y z
#
# Youngs Moduli (GPa) = 57.24146 8.80042 35.32610
#
# Poissons Ratio (x) = 0.17401 0.01016
# Poissons Ratio (y) = 1.13181 1.17030
# Poissons Ratio (z) = 0.01646 0.29154
#
# Static dielectric constant tensor:
#      x y z
#    x 1.727680 0.000000 0.000000 
#    y 0.000000 1.646210 0.000000 
#    z 0.000000 0.000000 1.680010 
# 
# From -- ./inp_files/41368.got.cif
#   From: 2010.05.17/outbox.cif.g08.bks.cpg/sg65_21_cif.got.tgz:41368.got - 2010.06.03 17:01:31.
