data_PCOD9487008
_publ_section_title
;
Structure prediction by ZEFSAII (Michael W. Deem and Ramdas Pophale) SiO2 
 PCOD9487008
Probable space group: C M M M
;
_chemical_formula_sum "Si O2"
_cell_formula_units_Z 68
_cell_length_a 25.826855
_cell_length_b 10.014033
_cell_length_c 15.998505
_cell_angle_alpha 90.000000
_cell_angle_beta 90.000000
_cell_angle_gamma 90.000000
_cell_volume 4137.708999
_symmetry_space_group_name_H-M "C M M M"
_symmetry_group_IT_number 65
_symmetry_cell_setting 'orthorhombic'
loop_
_space_group_symop_operation_xyz
x,y,z
-x,-y,z
x,-y,-z
-x,y,-z
-x,-y,-z
x,y,-z
-x,y,z
x,-y,z
1/2+x,1/2+y,z
1/2-x,1/2-y,z
1/2+x,1/2-y,-z
1/2-x,1/2+y,-z
1/2-x,1/2-y,-z
1/2+x,1/2+y,-z
1/2-x,1/2+y,z
1/2+x,1/2-y,z
loop_
_atom_site_type_symbol
_atom_site_label
_atom_site_fract_x
_atom_site_fract_y
_atom_site_fract_z
Si Si1 0.939645 0.766517 0.500000
Si Si2 0.348592 0.723659 0.215466
Si Si3 0.295851 0.500000 0.327914
Si Si4 0.788654 0.500000 0.208726
Si Si5 0.183506 0.000000 0.901204
Si Si6 0.145146 0.000000 0.500000
Si Si7 0.560366 0.845361 0.685043
O O1 0.894772 0.876523 0.500000
O O2 0.933406 0.685793 0.586390
O O3 0.000000 0.816903 0.500000
O O4 0.318262 0.632394 0.282902
O O5 0.320475 0.864020 0.198650
O O6 0.346295 0.630393 0.133772
O O7 0.403628 0.754765 0.257106
O O8 0.235729 0.500000 0.302574
O O9 0.317326 0.500000 0.420455
O O10 0.739995 0.500000 0.144403
O O11 0.188751 0.000000 0.000000
O O12 0.500000 0.825345 0.704557
O O13 0.573850 0.000000 0.699429
#
# Coordination Sequence:
#
# PCOD9487008 Si02
#       7
#     8  16   8   8   8   4  16
#     4  10  20  32  48  76 108 145 186 233 270 294
#     4  10  19  36  57  77 108 141 173 218 273 320
#     4  10  20  33  47  73 106 144 181 217 264 314
#     4  10  20  36  58  77 103 140 179 218 266 318
#     4  10  22  38  57  86 111 131 168 221 274 328
#     4  12  19  30  46  68 106 146 181 228 260 314
#     4  10  19  33  55  81 109 142 184 227 266 309
#
# _framework density 16.434214999999998
#
# number of rings (size 3 to 8) (size 9 to 14) (size 15 to 20)
#    0.000    2.118    3.529    3.353    0.000    3.294 
#    0.000    5.882    0.000    1.412    0.000    1.647 
#    0.000    0.000    0.000    0.000    0.000    0.000 
#
# Total GULP energy -189416.805493 kJ/mol
# GULP energy per Si atom -5571.082515 kJ/mol
# Density = 1.639681 g / cm^3
# Si number density = 16.434215 Si / 1000 Ang^3
#
#
#
# Elastic Constant Matrix: (Units=GPa)
#
#
# Indices 1 2 3 4 5 6 
#
# 1 56.2178 41.3365 40.8372 0.0000 0.0000 0.0000
# 2 41.3365 118.3282 38.7726 0.0000 0.0000 0.0000
# 3 40.8372 38.7726 114.4014 0.0000 0.0000 0.0000
# 4 0.0000 0.0000 0.0000 6.4196 0.0000 0.0000
# 5 0.0000 0.0000 0.0000 0.0000 14.7990 0.0000
# 6 0.0000 0.0000 0.0000 0.0000 0.0000 15.4157
#
#
#
# Elastic Compliance Matrix: (Units=1/GPa)
#
#
# Indices 1 2 3 4 5 6 
#
# 1 0.029025 -0.007587 -0.007789 0.000000 0.000000 0.000000
# 2 -0.007587 0.011490 -0.001186 0.000000 0.000000 0.000000
# 3 -0.007789 -0.001186 0.011924 0.000000 0.000000 0.000000
# 4 0.000000 0.000000 0.000000 0.155773 0.000000 0.000000
# 5 0.000000 0.000000 0.000000 0.000000 0.067572 0.000000
# 6 0.000000 0.000000 0.000000 0.000000 0.000000 0.064869
#
#
# Mechanical properties :
#
#
# Convention : Reuss Voigt Hill
#
# Bulk Modulus (GPa) = 51.77643 58.98224 55.37934
# Shear Modulus (GPa) = 13.15043 18.52694 15.83868
#
# Velocity S-wave (km/s) = 2.83182 3.36123 3.10782
# Velocity P-wave (km/s) = 6.50123 7.14364 6.82999
#
# Compressibility (1/GPa) = 0.01931381
#
# Stress axis : x y z
#
# Youngs Moduli (GPa) = 34.45294 87.03123 83.86713
#
# Poissons Ratio (x) = 0.66032 0.65328
# Poissons Ratio (y) = 0.26140 0.09945
# Poissons Ratio (z) = 0.26837 0.10321
#
# Static dielectric constant tensor:
#      x y z
#    x 1.553180 0.000000 0.000000 
#    y 0.000000 1.557990 0.000000 
#    z 0.000000 0.000000 1.531410 
# 
# From -- ./inp_files/56548.got.cif
#   From: 2010.05.17/outbox.cif.g08.bks.cpg/sg65_29_cif.got.tgz:56548.got - 2010.06.03 17:01:31.
