data_PCOD9487081
_publ_section_title
;
Structure prediction by ZEFSAII (Michael W. Deem and Ramdas Pophale) SiO2 
 PCOD9487081
Probable space group: C M M M
;
_chemical_formula_sum "Si O2"
_cell_formula_units_Z 64
_cell_length_a 11.100685
_cell_length_b 33.553344
_cell_length_c 7.849304
_cell_angle_alpha 90.000000
_cell_angle_beta 90.000000
_cell_angle_gamma 90.000000
_cell_volume 2923.591818
_symmetry_space_group_name_H-M "C M M M"
_symmetry_group_IT_number 65
_symmetry_cell_setting 'orthorhombic'
loop_
_space_group_symop_operation_xyz
x,y,z
-x,-y,z
x,-y,-z
-x,y,-z
-x,-y,-z
x,y,-z
-x,y,z
x,-y,z
1/2+x,1/2+y,z
1/2-x,1/2-y,z
1/2+x,1/2-y,-z
1/2-x,1/2+y,-z
1/2-x,1/2-y,-z
1/2+x,1/2+y,-z
1/2-x,1/2+y,z
1/2+x,1/2-y,z
loop_
_atom_site_type_symbol
_atom_site_label
_atom_site_fract_x
_atom_site_fract_y
_atom_site_fract_z
Si Si1 0.500000 0.454026 0.206007
Si Si2 0.858856 0.500000 0.192013
Si Si3 0.757884 0.670426 0.697977
Si Si4 0.000000 0.201604 0.805878
Si Si5 0.246924 0.581703 0.207010
Si Si6 0.000000 0.710447 0.303669
O O1 0.500000 0.500000 0.268175
O O2 0.616730 0.429269 0.253958
O O3 0.500000 0.456576 0.000000
O O4 0.822381 0.457775 0.268210
O O5 0.000000 0.500000 0.175933
O O6 0.801489 0.500000 0.000000
O O7 0.745098 0.681585 0.500000
O O8 0.625434 0.678203 0.776370
O O9 0.788543 0.623852 0.717275
O O10 0.872873 0.694652 0.771037
O O11 0.000000 0.241965 0.698111
O O12 0.000000 0.215158 0.000000
O O13 0.235009 0.584965 0.000000
O O14 0.000000 0.695879 0.500000
#
# Coordination Sequence:
#
# PCOD9487081 Si02
#       6
#     8   8  16   8  16   8
#     4   9  15  28  50  76 104 141 191 244 297 346
#     4   9  18  31  50  80 117 159 203 252 308 358
#     4  11  24  42  64  91 128 168 205 249 306 372
#     4  12  25  43  68  98 125 154 201 257 312 368
#     4  10  19  33  56  84 116 155 205 257 302 353
#     4  10  24  45  67  91 124 168 206 242 304 377
#
# _framework density 21.890881
#
# number of rings (size 3 to 8) (size 9 to 14) (size 15 to 20)
#    0.000    1.750    1.250    3.375    1.750    6.000 
#    0.000    0.625    0.000    1.500    0.000    0.000 
#    0.000    0.000    0.000    0.000    0.000    0.000 
#
# Total GULP energy -178597.917830 kJ/mol
# GULP energy per Si atom -5581.184932 kJ/mol
# Density = 2.184106 g / cm^3
# Si number density = 21.890881 Si / 1000 Ang^3
#
#
#
# Elastic Constant Matrix: (Units=GPa)
#
#
# Indices 1 2 3 4 5 6 
#
# 1 122.4366 40.5046 9.7811 0.0000 0.0000 0.0000
# 2 40.5046 126.5321 -14.9644 0.0000 0.0000 0.0000
# 3 9.7811 -14.9644 36.0384 0.0000 0.0000 0.0000
# 4 0.0000 0.0000 0.0000 29.8897 0.0000 0.0000
# 5 0.0000 0.0000 0.0000 0.0000 38.3394 0.0000
# 6 0.0000 0.0000 0.0000 0.0000 0.0000 450.8193
#
#
#
# Elastic Compliance Matrix: (Units=1/GPa)
#
#
# Indices 1 2 3 4 5 6 
#
# 1 0.009683 -0.003587 -0.004117 0.000000 0.000000 0.000000
# 2 -0.003587 0.009640 0.004976 0.000000 0.000000 0.000000
# 3 -0.004117 0.004976 0.030932 0.000000 0.000000 0.000000
# 4 0.000000 0.000000 0.000000 0.033456 0.000000 0.000000
# 5 0.000000 0.000000 0.000000 0.000000 0.026083 0.000000
# 6 0.000000 0.000000 0.000000 0.000000 0.000000 0.002218
#
#
# Mechanical properties :
#
#
# Convention : Reuss Voigt Hill
#
# Bulk Modulus (GPa) = 22.32181 39.51663 30.91922
# Shear Modulus (GPa) = 37.76427 120.45541 79.10984
#
# Velocity S-wave (km/s) = 4.15796 7.42596 6.01803
# Velocity P-wave (km/s) = 5.76805 9.57169 7.90214
#
# Compressibility (1/GPa) = 0.04479924
#
# Stress axis : x y z
#
# Youngs Moduli (GPa) = 103.27468 103.73721 32.32908
#
# Poissons Ratio (x) = 0.37206 0.13311
# Poissons Ratio (y) = 0.37040 -0.16087
# Poissons Ratio (z) = 0.42521 -0.51621
#
# Static dielectric constant tensor:
#      x y z
#    x 1.526970 0.000000 0.000000 
#    y 0.000000 1.790430 0.000000 
#    z 0.000000 0.000000 1.834200 
# 
# From -- ./inp_files/5047.got.cif
#   From: 2010.05.17/outbox.cif.g08.bks.cpg/sg65_3_cif.got.tgz:5047.got - 2010.06.03 17:01:31.
