data_PCOD9487788
_publ_section_title
;
Structure prediction by ZEFSAII (Michael W. Deem and Ramdas Pophale) SiO2 
 PCOD9487788
Probable space group: C M M M
;
_chemical_formula_sum "Si O2"
_cell_formula_units_Z 72
_cell_length_a 7.357627
_cell_length_b 26.213879
_cell_length_c 18.033334
_cell_angle_alpha 90.000000
_cell_angle_beta 90.000000
_cell_angle_gamma 90.000000
_cell_volume 3478.124184
_symmetry_space_group_name_H-M "C M M M"
_symmetry_group_IT_number 65
_symmetry_cell_setting 'orthorhombic'
loop_
_space_group_symop_operation_xyz
x,y,z
-x,-y,z
x,-y,-z
-x,y,-z
-x,-y,-z
x,y,-z
-x,y,z
x,-y,z
1/2+x,1/2+y,z
1/2-x,1/2-y,z
1/2+x,1/2-y,-z
1/2-x,1/2+y,-z
1/2-x,1/2-y,-z
1/2+x,1/2+y,-z
1/2-x,1/2+y,z
1/2+x,1/2-y,z
loop_
_atom_site_type_symbol
_atom_site_label
_atom_site_fract_x
_atom_site_fract_y
_atom_site_fract_z
Si Si1 0.722924 0.611175 0.795065
Si Si2 0.710329 0.500000 0.796326
Si Si3 0.709915 0.500000 0.616035
Si Si4 0.216786 0.810293 0.500000
Si Si5 0.777391 0.112140 0.375911
Si Si6 0.783058 0.809220 0.083271
O O1 0.500000 0.610453 0.794441
O O2 0.786181 0.554652 0.818750
O O3 0.777122 0.619766 0.709634
O O4 0.784866 0.653732 0.852524
O O5 0.500000 0.500000 0.820045
O O6 0.711954 0.500000 0.706224
O O7 0.500000 0.500000 0.591252
O O8 0.784504 0.555890 0.596292
O O9 0.250000 0.750000 0.500000
O O10 0.282077 0.841763 0.428254
O O11 0.000000 0.815812 0.500000
O O12 0.000000 0.110161 0.376351
O O13 0.750000 0.750000 0.100420
O O14 0.000000 0.816356 0.080430
O O15 0.712454 0.819319 0.000000
#
# Coordination Sequence:
#
# PCOD9487788 Si02
#       6
#    16   8   8   8  16  16
#     4   8  13  23  39  58  81 106 129 156 197 243
#     4   7  10  18  34  56  81 104 122 150 197 243
#     4   7  10  19  36  58  80  98 122 160 202 235
#     4  10  20  31  41  57  83 110 135 164 196 230
#     4   8  14  24  39  59  81 104 129 161 200 237
#     4   9  17  28  41  58  80 105 134 167 197 226
#
# _framework density 20.700814999999999
#
# number of rings (size 3 to 8) (size 9 to 14) (size 15 to 20)
#    0.000    3.778    0.000    2.667    0.000    1.333 
#    0.000    2.778    0.000    3.333    0.000    2.333 
#    0.000    8.889    0.000    0.000    0.000    0.000 
#
# Total GULP energy -200587.200064 kJ/mol
# GULP energy per Si atom -5571.866668 kJ/mol
# Density = 2.065370 g / cm^3
# Si number density = 20.700815 Si / 1000 Ang^3
#
#
#
# Elastic Constant Matrix: (Units=GPa)
#
#
# Indices 1 2 3 4 5 6 
#
# 1 74.6744 4.0970 5.9686 0.0000 0.0000 0.0000
# 2 4.0970 226.4399 134.9980 0.0000 0.0000 0.0000
# 3 5.9686 134.9980 132.4067 0.0000 0.0000 0.0000
# 4 0.0000 0.0000 0.0000 105.8467 0.0000 0.0000
# 5 0.0000 0.0000 0.0000 0.0000 -8.3929 0.0000
# 6 0.0000 0.0000 0.0000 0.0000 0.0000 9.8806
#
#
#
# Elastic Compliance Matrix: (Units=1/GPa)
#
#
# Indices 1 2 3 4 5 6 
#
# 1 0.013448 0.000301 -0.000913 0.000000 0.000000 0.000000
# 2 0.000301 0.011268 -0.011502 0.000000 0.000000 0.000000
# 3 -0.000913 -0.011502 0.019321 0.000000 0.000000 0.000000
# 4 0.000000 0.000000 0.000000 0.009448 0.000000 0.000000
# 5 0.000000 0.000000 0.000000 0.000000 -0.119149 0.000000
# 6 0.000000 0.000000 0.000000 0.000000 0.000000 0.101209
#
#
# Mechanical properties :
#
#
# Convention : Reuss Voigt Hill
#
# Bulk Modulus (GPa) = 50.48361 80.40535 65.44448
# Shear Modulus (GPa) = 75.32848 40.69738 58.01293
#
# Velocity S-wave (km/s) = 6.03889 4.43875 5.29956
# Velocity P-wave (km/s) = 8.54777 8.07440 8.31445
#
# Compressibility (1/GPa) = 0.01980841
#
# Stress axis : x y z
#
# Youngs Moduli (GPa) = 74.36079 88.74682 51.75754
#
# Poissons Ratio (x) = -0.02672 0.04727
# Poissons Ratio (y) = -0.02239 0.59532
# Poissons Ratio (z) = 0.06791 1.02078
#
# Static dielectric constant tensor:
#      x y z
#    x 1.858090 0.000000 0.000000 
#    y 0.000000 1.740370 0.000000 
#    z 0.000000 0.000000 1.717030 
# 
# From -- ./inp_files/51554.got.cif
#   From: 2010.05.17/outbox.cif.g08.bks.cpg/sg65_26_cif.got.tgz:51554.got - 2010.06.03 17:01:31.
