data_PCOD9487168
_publ_section_title
;
Structure prediction by ZEFSAII (Michael W. Deem and Ramdas Pophale) SiO2 
 PCOD9487168
Probable space group: C M M M
;
_chemical_formula_sum "Si O2"
_cell_formula_units_Z 120
_cell_length_a 8.948009
_cell_length_b 28.983452
_cell_length_c 28.991255
_cell_angle_alpha 90.000000
_cell_angle_beta 90.000000
_cell_angle_gamma 90.000000
_cell_volume 7518.713526
_symmetry_space_group_name_H-M "C M M M"
_symmetry_group_IT_number 65
_symmetry_cell_setting 'orthorhombic'
loop_
_space_group_symop_operation_xyz
x,y,z
-x,-y,z
x,-y,-z
-x,y,-z
-x,-y,-z
x,y,-z
-x,y,z
x,-y,z
1/2+x,1/2+y,z
1/2-x,1/2-y,z
1/2+x,1/2-y,-z
1/2-x,1/2+y,-z
1/2-x,1/2-y,-z
1/2+x,1/2+y,-z
1/2-x,1/2+y,z
1/2+x,1/2-y,z
loop_
_atom_site_type_symbol
_atom_site_label
_atom_site_fract_x
_atom_site_fract_y
_atom_site_fract_z
Si Si1 0.820870 0.896900 0.088439
Si Si2 0.821989 0.945432 0.646233
Si Si3 0.321449 0.109613 0.730228
Si Si4 0.674534 0.055912 0.449015
Si Si5 0.679055 0.298431 0.123782
Si Si6 0.320718 0.700928 0.767905
Si Si7 0.679223 0.054263 0.000000
Si Si8 0.322417 0.945515 0.824039
O O1 0.775756 0.843278 0.094801
O O2 0.744794 0.921092 0.045063
O O3 0.770042 0.922881 0.134786
O O4 0.000000 0.898887 0.083971
O O5 0.742193 0.916170 0.685686
O O6 0.768302 0.929895 0.595440
O O7 0.000000 0.941182 0.650099
O O8 0.783461 0.000000 0.651403
O O9 0.500000 0.114367 0.726748
O O10 0.246293 0.159036 0.738892
O O11 0.288010 0.078835 0.775572
O O12 0.724768 0.071838 0.500000
O O13 0.500000 0.068416 0.443268
O O14 0.680787 0.000000 0.449951
O O15 0.500000 0.294440 0.121642
O O16 0.750000 0.250000 0.109229
O O17 0.718611 0.306557 0.177777
O O18 0.500000 0.702250 0.764259
O O19 0.250000 0.750000 0.754672
O O20 0.500000 0.057434 0.000000
O O21 0.719680 0.000000 0.000000
O O22 0.500000 0.939203 0.833255
O O23 0.293167 0.000000 0.821211
#
# Coordination Sequence:
#
# PCOD9487168 Si02
#       8
#    16  16  16  16  16  16   8  16
#     4  11  22  38  58  82 105 130 165 207 251 296
#     4  10  20  31  44  66  99 138 176 217 263 306
#     4  11  21  33  50  72 101 137 173 209 253 303
#     4   8  14  26  44  64  88 124 171 218 261 307
#     4   9  19  34  55  81 107 131 161 200 244 296
#     4  10  19  34  53  76 104 132 167 207 251 301
#     4  11  25  43  60  79 104 135 170 207 246 293
#     4  10  21  35  51  73 101 134 171 207 244 294
#
# _framework density 15.960176000000001
#
# number of rings (size 3 to 8) (size 9 to 14) (size 15 to 20)
#    0.000    2.067    1.333    3.000    0.000    6.133 
#    0.000    1.667    0.000    0.000    0.000    0.000 
#    0.000    0.533    0.000    2.000    0.000    3.067 
#
# Total GULP energy -334826.908792 kJ/mol
# GULP energy per Si atom -5580.448480 kJ/mol
# Density = 1.592385 g / cm^3
# Si number density = 15.960176 Si / 1000 Ang^3
#
#
#
# Elastic Constant Matrix: (Units=GPa)
#
#
# Indices 1 2 3 4 5 6 
#
# 1 55.9759 55.5644 58.0797 0.0000 0.0000 0.0000
# 2 55.5644 123.9423 70.3747 0.0000 0.0000 0.0000
# 3 58.0797 70.3747 122.6475 0.0000 0.0000 0.0000
# 4 0.0000 0.0000 0.0000 5.8189 0.0000 0.0000
# 5 0.0000 0.0000 0.0000 0.0000 -8.2275 0.0000
# 6 0.0000 0.0000 0.0000 0.0000 0.0000 26.5398
#
#
#
# Elastic Compliance Matrix: (Units=1/GPa)
#
#
# Indices 1 2 3 4 5 6 
#
# 1 0.044338 -0.011800 -0.014226 0.000000 0.000000 0.000000
# 2 -0.011800 0.015108 -0.003081 0.000000 0.000000 0.000000
# 3 -0.014226 -0.003081 0.016658 0.000000 0.000000 0.000000
# 4 0.000000 0.000000 0.000000 0.171855 0.000000 0.000000
# 5 0.000000 0.000000 0.000000 0.000000 -0.121543 0.000000
# 6 0.000000 0.000000 0.000000 0.000000 0.000000 0.037679
#
#
# Mechanical properties :
#
#
# Convention : Reuss Voigt Hill
#
# Bulk Modulus (GPa) = 55.89440 74.51148 65.20294
# Shear Modulus (GPa) = 21.90379 12.72935 17.31657
#
# Velocity S-wave (km/s) = 3.70861 2.82719 3.29749
# Velocity P-wave (km/s) = 7.30997 7.57922 7.44581
#
# Compressibility (1/GPa) = 0.01789088
#
# Stress axis : x y z
#
# Youngs Moduli (GPa) = 22.55387 66.19203 60.03201
#
# Poissons Ratio (x) = 0.78106 0.85400
# Poissons Ratio (y) = 0.26613 0.18495
# Poissons Ratio (z) = 0.32084 0.20393
#
# Static dielectric constant tensor:
#      x y z
#    x 1.529810 0.000000 0.000000 
#    y 0.000000 1.518310 0.000000 
#    z 0.000000 0.000000 1.521600 
# 
# From -- ./inp_files/73907.got.cif
#   From: 2010.05.17/outbox.cif.g08.bks.cpg/sg65_37_cif.got.tgz:73907.got - 2010.06.03 17:01:31.
