data_PCOD9487871
_publ_section_title
;
Structure prediction by ZEFSAII (Michael W. Deem and Ramdas Pophale) SiO2 
 PCOD9487871
Probable space group: C M M M
;
_chemical_formula_sum "Si O2"
_cell_formula_units_Z 112
_cell_length_a 13.380076
_cell_length_b 25.562411
_cell_length_c 15.220651
_cell_angle_alpha 90.000000
_cell_angle_beta 90.000000
_cell_angle_gamma 90.000000
_cell_volume 5205.873629
_symmetry_space_group_name_H-M "C M M M"
_symmetry_group_IT_number 65
_symmetry_cell_setting 'orthorhombic'
loop_
_space_group_symop_operation_xyz
x,y,z
-x,-y,z
x,-y,-z
-x,y,-z
-x,-y,-z
x,y,-z
-x,y,z
x,-y,z
1/2+x,1/2+y,z
1/2-x,1/2-y,z
1/2+x,1/2-y,-z
1/2-x,1/2+y,-z
1/2-x,1/2-y,-z
1/2+x,1/2+y,-z
1/2-x,1/2+y,z
1/2+x,1/2-y,z
loop_
_atom_site_type_symbol
_atom_site_label
_atom_site_fract_x
_atom_site_fract_y
_atom_site_fract_z
Si Si1 0.808161 0.440386 0.665081
Si Si2 0.617217 0.385198 0.723449
Si Si3 0.881418 0.769506 0.712679
Si Si4 0.879623 0.329360 0.401005
Si Si5 0.108824 0.560255 0.138930
Si Si6 0.219168 0.133614 0.095358
Si Si7 0.383977 0.775727 0.100189
O O1 0.821781 0.500000 0.630729
O O2 0.691784 0.429163 0.687389
O O3 0.841864 0.388709 0.612819
O O4 0.869681 0.436567 0.756539
O O5 0.500000 0.394968 0.710013
O O6 0.646838 0.328120 0.683819
O O7 0.642943 0.377225 0.826339
O O8 0.844099 0.716589 0.665536
O O9 0.867934 0.762521 0.817650
O O10 0.000000 0.768884 0.697655
O O11 0.855274 0.312367 0.500000
O O12 0.000000 0.332281 0.391899
O O13 0.104756 0.500000 0.115047
O O14 0.203639 0.585662 0.094965
O O15 0.000000 0.583988 0.118817
O O16 0.300406 0.179891 0.110214
O O17 0.171368 0.139842 0.000000
O O18 0.500000 0.793608 0.108416
O O19 0.374007 0.755395 0.000000
#
# Coordination Sequence:
#
# PCOD9487871 Si02
#       7
#    16  16  16  16  16  16  16
#     4  10  21  37  58  84 113 147 193 242 281 331
#     4  10  22  39  58  78 104 149 205 255 298 331
#     4   9  18  35  57  81 115 155 195 240 286 338
#     4  10  21  37  61  95 130 157 177 209 274 359
#     4   9  17  30  50  75 104 142 186 232 287 350
#     4  10  20  31  46  73 108 145 189 239 291 351
#     4   9  17  29  48  77 113 151 187 227 284 354
#
# _framework density 21.51416
#
# number of rings (size 3 to 8) (size 9 to 14) (size 15 to 20)
#    0.000    2.429    0.000    2.571    0.000    6.857 
#    0.000    5.714    0.000    1.286    0.000    5.000 
#    0.000    0.000    0.000    0.000    0.000    0.000 
#
# Total GULP energy -312327.782956 kJ/mol
# GULP energy per Si atom -5577.281839 kJ/mol
# Density = 2.146519 g / cm^3
# Si number density = 21.514160 Si / 1000 Ang^3
#
#
#
# Elastic Constant Matrix: (Units=GPa)
#
#
# Indices 1 2 3 4 5 6 
#
# 1 70.3005 9.4311 4.6666 0.0000 0.0000 0.0000
# 2 9.4311 102.2782 23.7371 0.0000 0.0000 0.0000
# 3 4.6666 23.7371 48.0713 0.0000 0.0000 0.0000
# 4 0.0000 0.0000 0.0000 -62.6412 0.0000 0.0000
# 5 0.0000 0.0000 0.0000 0.0000 -333.3643 0.0000
# 6 0.0000 0.0000 0.0000 0.0000 0.0000 30.5578
#
#
#
# Elastic Compliance Matrix: (Units=1/GPa)
#
#
# Indices 1 2 3 4 5 6 
#
# 1 0.014433 -0.001136 -0.000840 0.000000 0.000000 0.000000
# 2 -0.001136 0.011132 -0.005387 0.000000 0.000000 0.000000
# 3 -0.000840 -0.005387 0.023544 0.000000 0.000000 0.000000
# 4 0.000000 0.000000 0.000000 -0.015964 0.000000 0.000000
# 5 0.000000 0.000000 0.000000 0.000000 -0.003000 0.000000
# 6 0.000000 0.000000 0.000000 0.000000 0.000000 0.032725
#
#
# Mechanical properties :
#
#
# Convention : Reuss Voigt Hill
#
# Bulk Modulus (GPa) = 29.08383 32.92438 31.00411
# Shear Modulus (GPa) = 56.14409 -60.90184 -2.37887
#
# Velocity S-wave (km/s) = 5.11400 -5.32628 -1.05267
# Velocity P-wave (km/s) = 6.95834 4.74224 3.60067
#
# Compressibility (1/GPa) = 0.03438336
#
# Stress axis : x y z
#
# Youngs Moduli (GPa) = 69.28662 89.82989 42.47390
#
# Poissons Ratio (x) = 0.10203 0.03569
# Poissons Ratio (y) = 0.07870 0.22879
# Poissons Ratio (z) = 0.05822 0.48388
#
# Static dielectric constant tensor:
#      x y z
#    x 1.788240 0.000000 0.000000 
#    y 0.000000 1.805540 0.000000 
#    z 0.000000 0.000000 1.820600 
# 
# From -- ./inp_files/41142.got.cif
#   From: 2010.05.17/outbox.cif.g08.bks.cpg/sg65_21_cif.got.tgz:41142.got - 2010.06.03 17:01:31.
