data_PCOD9487330
_publ_section_title
;
Structure prediction by ZEFSAII (Michael W. Deem and Ramdas Pophale) SiO2 
 PCOD9487330
Probable space group: C M M M
;
_chemical_formula_sum "Si O2"
_cell_formula_units_Z 96
_cell_length_a 29.521550
_cell_length_b 9.127319
_cell_length_c 20.879212
_cell_angle_alpha 90.000000
_cell_angle_beta 90.000000
_cell_angle_gamma 90.000000
_cell_volume 5625.958048
_symmetry_space_group_name_H-M "C M M M"
_symmetry_group_IT_number 65
_symmetry_cell_setting 'orthorhombic'
loop_
_space_group_symop_operation_xyz
x,y,z
-x,-y,z
x,-y,-z
-x,y,-z
-x,-y,-z
x,y,-z
-x,y,z
x,-y,z
1/2+x,1/2+y,z
1/2-x,1/2-y,z
1/2+x,1/2-y,-z
1/2-x,1/2+y,-z
1/2-x,1/2-y,-z
1/2+x,1/2+y,-z
1/2-x,1/2+y,z
1/2+x,1/2-y,z
loop_
_atom_site_type_symbol
_atom_site_label
_atom_site_fract_x
_atom_site_fract_y
_atom_site_fract_z
Si Si1 0.606589 0.823231 0.187217
Si Si2 0.447327 0.323895 0.073883
Si Si3 0.946529 0.324837 0.317173
Si Si4 0.796365 0.673570 0.236555
Si Si5 0.110799 0.173730 0.572243
Si Si6 0.202949 0.673997 0.609972
O O1 0.584860 0.752487 0.124776
O O2 0.576926 0.784831 0.249898
O O3 0.658178 0.775896 0.201166
O O4 0.605993 0.000000 0.181710
O O5 0.500000 0.284582 0.086435
O O6 0.443837 0.500000 0.079228
O O7 0.437200 0.284643 0.000000
O O8 0.939947 0.500000 0.325909
O O9 0.922104 0.241754 0.374824
O O10 0.000000 0.294984 0.315148
O O11 0.791993 0.500000 0.226895
O O12 0.750000 0.750000 0.216289
O O13 0.802117 0.696230 0.313076
O O14 0.093441 0.197036 0.500000
O O15 0.159502 0.251338 0.578696
O O16 0.116089 0.000000 0.582617
O O17 0.204209 0.500000 0.597602
O O18 0.250000 0.750000 0.590390
#
# Coordination Sequence:
#
# PCOD9487330 Si02
#       6
#    16  16  16  16  16  16
#     4  10  19  34  56  83 111 139 175 220 266 313
#     4   9  19  35  53  78 114 150 182 217 260 312
#     4  10  21  38  58  79 105 138 177 223 275 328
#     4   9  18  32  52  79 109 137 170 214 263 313
#     4  11  24  39  54  75 105 141 181 225 273 324
#     4  10  19  35  57  80 107 138 174 219 271 326
#
# _framework density 17.063761
#
# number of rings (size 3 to 8) (size 9 to 14) (size 15 to 20)
#    0.000    2.167    1.667    2.000    0.000    5.667 
#    0.000    2.500    0.000    0.500    0.000    0.000 
#    0.000    0.000    0.000    0.000    0.000    0.000 
#
# Total GULP energy -267956.738292 kJ/mol
# GULP energy per Si atom -5582.432048 kJ/mol
# Density = 1.702492 g / cm^3
# Si number density = 17.063761 Si / 1000 Ang^3
#
#
#
# Elastic Constant Matrix: (Units=GPa)
#
#
# Indices 1 2 3 4 5 6 
#
# 1 130.5048 55.3640 81.3808 0.0000 0.0000 0.0000
# 2 55.3640 41.5418 51.4251 0.0000 0.0000 0.0000
# 3 81.3808 51.4251 106.2911 0.0000 0.0000 0.0000
# 4 0.0000 0.0000 0.0000 25.2595 0.0000 0.0000
# 5 0.0000 0.0000 0.0000 0.0000 -34.4922 0.0000
# 6 0.0000 0.0000 0.0000 0.0000 0.0000 32.7461
#
#
#
# Elastic Compliance Matrix: (Units=1/GPa)
#
#
# Indices 1 2 3 4 5 6 
#
# 1 0.018922 -0.018160 -0.005701 0.000000 0.000000 0.000000
# 2 -0.018160 0.077447 -0.023566 0.000000 0.000000 0.000000
# 3 -0.005701 -0.023566 0.025175 0.000000 0.000000 0.000000
# 4 0.000000 0.000000 0.000000 0.039589 0.000000 0.000000
# 5 0.000000 0.000000 0.000000 0.000000 -0.028992 0.000000
# 6 0.000000 0.000000 0.000000 0.000000 0.000000 0.030538
#
#
# Mechanical properties :
#
#
# Convention : Reuss Voigt Hill
#
# Bulk Modulus (GPa) = 37.46817 72.74193 55.10505
# Shear Modulus (GPa) = 18.76670 10.71385 14.74028
#
# Velocity S-wave (km/s) = 3.31992 2.50846 2.94230
# Velocity P-wave (km/s) = 6.05815 7.14925 6.62620
#
# Compressibility (1/GPa) = 0.02668932
#
# Stress axis : x y z
#
# Youngs Moduli (GPa) = 52.84922 12.91203 39.72243
#
# Poissons Ratio (x) = 0.23448 0.22647
# Poissons Ratio (y) = 0.95974 0.93609
# Poissons Ratio (z) = 0.30130 0.30428
#
# Static dielectric constant tensor:
#      x y z
#    x 1.563510 0.000000 0.000000 
#    y 0.000000 1.568030 0.000000 
#    z 0.000000 0.000000 1.561990 
# 
# From -- ./inp_files/60161.got.cif
#   From: 2010.05.17/outbox.cif.g08.bks.cpg/sg65_31_cif.got.tgz:60161.got - 2010.06.03 17:01:31.
