data_PCOD9487504
_publ_section_title
;
Structure prediction by ZEFSAII (Michael W. Deem and Ramdas Pophale) SiO2 
 PCOD9487504
Probable space group: C M M M
;
_chemical_formula_sum "Si O2"
_cell_formula_units_Z 104
_cell_length_a 22.886331
_cell_length_b 17.978128
_cell_length_c 14.226393
_cell_angle_alpha 90.000000
_cell_angle_beta 90.000000
_cell_angle_gamma 90.000000
_cell_volume 5853.497601
_symmetry_space_group_name_H-M "C M M M"
_symmetry_group_IT_number 65
_symmetry_cell_setting 'orthorhombic'
loop_
_space_group_symop_operation_xyz
x,y,z
-x,-y,z
x,-y,-z
-x,y,-z
-x,-y,-z
x,y,-z
-x,y,z
x,-y,z
1/2+x,1/2+y,z
1/2-x,1/2-y,z
1/2+x,1/2-y,-z
1/2-x,1/2+y,-z
1/2-x,1/2-y,-z
1/2+x,1/2+y,-z
1/2-x,1/2+y,z
1/2+x,1/2-y,z
loop_
_atom_site_type_symbol
_atom_site_label
_atom_site_fract_x
_atom_site_fract_y
_atom_site_fract_z
Si Si1 0.145760 0.641282 0.888055
Si Si2 0.434215 0.734603 0.192876
Si Si3 0.762584 0.911637 0.202822
Si Si4 0.819601 0.911087 0.395371
Si Si5 0.067028 0.500000 0.885923
Si Si6 0.566442 0.313115 0.605224
Si Si7 0.389106 0.585264 0.112065
O O1 0.113293 0.716653 0.860180
O O2 0.208033 0.631696 0.838912
O O3 0.103243 0.573239 0.858495
O O4 0.153800 0.637030 0.000000
O O5 0.500000 0.758118 0.167479
O O6 0.426587 0.740322 0.305397
O O7 0.425528 0.648529 0.164463
O O8 0.779457 0.887593 0.308431
O O9 0.821431 0.903511 0.141406
O O10 0.748287 0.000000 0.202831
O O11 0.797061 0.892621 0.500000
O O12 0.883260 0.874501 0.386121
O O13 0.825498 0.000000 0.388769
O O14 0.000000 0.500000 0.852198
O O15 0.064933 0.500000 0.000000
O O16 0.572138 0.280073 0.500000
O O17 0.500000 0.343153 0.612086
O O18 0.404574 0.500000 0.138104
O O19 0.395821 0.592974 0.000000
#
# Coordination Sequence:
#
# PCOD9487504 Si02
#       7
#    16  16  16  16   8  16  16
#     4  11  22  36  57  82 110 148 189 236 285 334
#     4  11  23  38  56  82 114 146 187 237 285 333
#     4  10  19  35  56  80 112 146 184 225 277 339
#     4   9  17  31  54  83 113 144 183 236 288 332
#     4   9  18  34  56  82 107 137 182 235 293 339
#     4   9  18  34  55  78 108 147 188 230 281 337
#     4  10  21  36  54  77 110 154 192 225 268 328
#
# _framework density 17.767154999999999
#
# number of rings (size 3 to 8) (size 9 to 14) (size 15 to 20)
#    0.000    2.077    2.308    1.385    0.000    3.692 
#    0.000    6.154    0.000    1.846    0.000    0.000 
#    0.000    3.692    0.000    0.000    0.000    0.000 
#
# Total GULP energy -290008.756581 kJ/mol
# GULP energy per Si atom -5577.091473 kJ/mol
# Density = 1.772672 g / cm^3
# Si number density = 17.767155 Si / 1000 Ang^3
#
#
#
# Elastic Constant Matrix: (Units=GPa)
#
#
# Indices 1 2 3 4 5 6 
#
# 1 76.2949 14.9160 35.4795 0.0000 0.0000 0.0000
# 2 14.9160 37.9316 12.6196 0.0000 0.0000 0.0000
# 3 35.4795 12.6196 86.0625 0.0000 0.0000 0.0000
# 4 0.0000 0.0000 0.0000 15.9296 0.0000 0.0000
# 5 0.0000 0.0000 0.0000 0.0000 26.4495 0.0000
# 6 0.0000 0.0000 0.0000 0.0000 0.0000 23.2536
#
#
#
# Elastic Compliance Matrix: (Units=1/GPa)
#
#
# Indices 1 2 3 4 5 6 
#
# 1 0.016934 -0.004559 -0.006313 0.000000 0.000000 0.000000
# 2 -0.004559 0.028943 -0.002365 0.000000 0.000000 0.000000
# 3 -0.006313 -0.002365 0.014569 0.000000 0.000000 0.000000
# 4 0.000000 0.000000 0.000000 0.062776 0.000000 0.000000
# 5 0.000000 0.000000 0.000000 0.000000 0.037808 0.000000
# 6 0.000000 0.000000 0.000000 0.000000 0.000000 0.043004
#
#
# Mechanical properties :
#
#
# Convention : Reuss Voigt Hill
#
# Bulk Modulus (GPa) = 29.43502 36.25771 32.84637
# Shear Modulus (GPa) = 20.67572 22.27813 21.47693
#
# Velocity S-wave (km/s) = 3.41501 3.54488 3.48055
# Velocity P-wave (km/s) = 5.67034 6.09970 5.88894
#
# Compressibility (1/GPa) = 0.03397314
#
# Stress axis : x y z
#
# Youngs Moduli (GPa) = 59.05336 34.55112 68.64100
#
# Poissons Ratio (x) = 0.15751 0.43330
# Poissons Ratio (y) = 0.26921 0.16231
# Poissons Ratio (z) = 0.37278 0.08170
#
# Static dielectric constant tensor:
#      x y z
#    x 1.586920 0.000000 0.000000 
#    y 0.000000 1.600650 0.000000 
#    z 0.000000 0.000000 1.631880 
# 
# From -- ./inp_files/44398.got.cif
#   From: 2010.05.17/outbox.cif.g08.bks.cpg/sg65_23_cif.got.tgz:44398.got - 2010.06.03 17:01:31.
