data_PCOD9487610
_publ_section_title
;
Structure prediction by ZEFSAII (Michael W. Deem and Ramdas Pophale) SiO2 
 PCOD9487610
Probable space group: C M M M
;
_chemical_formula_sum "Si O2"
_cell_formula_units_Z 72
_cell_length_a 8.469825
_cell_length_b 22.292606
_cell_length_c 20.592564
_cell_angle_alpha 90.000000
_cell_angle_beta 90.000000
_cell_angle_gamma 90.000000
_cell_volume 3888.174091
_symmetry_space_group_name_H-M "C M M M"
_symmetry_group_IT_number 65
_symmetry_cell_setting 'orthorhombic'
loop_
_space_group_symop_operation_xyz
x,y,z
-x,-y,z
x,-y,-z
-x,y,-z
-x,-y,-z
x,y,-z
-x,y,z
x,-y,z
1/2+x,1/2+y,z
1/2-x,1/2-y,z
1/2+x,1/2-y,-z
1/2-x,1/2+y,-z
1/2-x,1/2-y,-z
1/2+x,1/2+y,-z
1/2-x,1/2+y,z
1/2+x,1/2-y,z
loop_
_atom_site_type_symbol
_atom_site_label
_atom_site_fract_x
_atom_site_fract_y
_atom_site_fract_z
Si Si1 0.689208 0.376033 0.368026
Si Si2 0.311619 0.816475 0.500000
Si Si3 0.687901 0.681426 0.902636
Si Si4 0.691427 0.500000 0.573968
Si Si5 0.191726 0.073337 0.000000
Si Si6 0.186747 0.315053 0.241454
O O1 0.500000 0.370129 0.361762
O O2 0.743763 0.342725 0.433179
O O3 0.736661 0.442997 0.385324
O O4 0.767826 0.356540 0.301298
O O5 0.500000 0.821714 0.500000
O O6 0.250000 0.750000 0.500000
O O7 0.500000 0.685394 0.910986
O O8 0.750000 0.750000 0.919984
O O9 0.732970 0.671511 0.827557
O O10 0.738515 0.620082 0.941078
O O11 0.500000 0.500000 0.568783
O O12 0.752391 0.500000 0.500000
O O13 0.000000 0.069787 0.000000
O O14 0.241545 0.000000 0.000000
O O15 0.250000 0.250000 0.261451
O O16 0.000000 0.313163 0.231414
#
# Coordination Sequence:
#
# PCOD9487610 Si02
#       6
#    16   8  16   8   8  16
#     4  11  21  38  60  82 109 144 188 233 280 336
#     4  12  24  37  54  81 111 144 182 230 287 338
#     4  10  19  35  61  89 118 153 195 239 285 341
#     4   9  18  36  60  82 104 139 186 231 274 336
#     4   9  19  36  59  89 122 155 196 240 280 335
#     4  11  22  38  58  84 117 149 187 234 285 340
#
# _framework density 18.517690000000002
#
# number of rings (size 3 to 8) (size 9 to 14) (size 15 to 20)
#    0.000    1.556    1.111    6.667    0.000    0.000 
#    2.000    4.444    0.000    4.667    0.000    0.000 
#    0.000    0.000    0.000    0.000    0.000    0.000 
#
# Total GULP energy -200481.334546 kJ/mol
# GULP energy per Si atom -5568.925960 kJ/mol
# Density = 1.847554 g / cm^3
# Si number density = 18.517690 Si / 1000 Ang^3
#
#
#
# Elastic Constant Matrix: (Units=GPa)
#
#
# Indices 1 2 3 4 5 6 
#
# 1 50.1102 17.1120 9.6363 0.0000 0.0000 0.0000
# 2 17.1120 175.4697 82.8144 0.0000 0.0000 0.0000
# 3 9.6363 82.8144 120.9368 0.0000 0.0000 0.0000
# 4 0.0000 0.0000 0.0000 38.9348 0.0000 0.0000
# 5 0.0000 0.0000 0.0000 0.0000 27.8772 0.0000
# 6 0.0000 0.0000 0.0000 0.0000 0.0000 21.6946
#
#
#
# Elastic Compliance Matrix: (Units=1/GPa)
#
#
# Indices 1 2 3 4 5 6 
#
# 1 0.020656 -0.001829 -0.000394 0.000000 0.000000 0.000000
# 2 -0.001829 0.008582 -0.005731 0.000000 0.000000 0.000000
# 3 -0.000394 -0.005731 0.012225 0.000000 0.000000 0.000000
# 4 0.000000 0.000000 0.000000 0.025684 0.000000 0.000000
# 5 0.000000 0.000000 0.000000 0.000000 0.035872 0.000000
# 6 0.000000 0.000000 0.000000 0.000000 0.000000 0.046094
#
#
# Mechanical properties :
#
#
# Convention : Reuss Voigt Hill
#
# Bulk Modulus (GPa) = 39.12955 62.84912 50.98934
# Shear Modulus (GPa) = 28.81202 33.49825 31.15514
#
# Velocity S-wave (km/s) = 3.94879 4.25783 4.10622
# Velocity P-wave (km/s) = 6.47822 7.62797 7.07649
#
# Compressibility (1/GPa) = 0.02555613
#
# Stress axis : x y z
#
# Youngs Moduli (GPa) = 48.41163 116.52036 81.80152
#
# Poissons Ratio (x) = 0.21307 0.03221
# Poissons Ratio (y) = 0.08853 0.46882
# Poissons Ratio (z) = 0.01906 0.66780
#
# Static dielectric constant tensor:
#      x y z
#    x 1.644750 0.000000 0.000000 
#    y 0.000000 1.644020 0.000000 
#    z 0.000000 0.000000 1.437460 
# 
# From -- ./inp_files/59327.got.cif
#   From: 2010.05.17/outbox.cif.g08.bks.cpg/sg65_30_cif.got.tgz:59327.got - 2010.06.03 17:01:31.
