data_PCOD9487268
_publ_section_title
;
Structure prediction by ZEFSAII (Michael W. Deem and Ramdas Pophale) SiO2 
 PCOD9487268
Probable space group: C M M M
;
_chemical_formula_sum "Si O2"
_cell_formula_units_Z 104
_cell_length_a 21.206171
_cell_length_b 13.653177
_cell_length_c 17.862440
_cell_angle_alpha 90.000000
_cell_angle_beta 90.000000
_cell_angle_gamma 90.000000
_cell_volume 5171.740943
_symmetry_space_group_name_H-M "C M M M"
_symmetry_group_IT_number 65
_symmetry_cell_setting 'orthorhombic'
loop_
_space_group_symop_operation_xyz
x,y,z
-x,-y,z
x,-y,-z
-x,y,-z
-x,-y,-z
x,y,-z
-x,y,z
x,-y,z
1/2+x,1/2+y,z
1/2-x,1/2-y,z
1/2+x,1/2-y,-z
1/2-x,1/2+y,-z
1/2-x,1/2-y,-z
1/2+x,1/2+y,-z
1/2-x,1/2+y,z
1/2+x,1/2-y,z
loop_
_atom_site_type_symbol
_atom_site_label
_atom_site_fract_x
_atom_site_fract_y
_atom_site_fract_z
Si Si1 0.712226 0.610519 0.869005
Si Si2 0.846648 0.617818 0.642086
Si Si3 0.870005 0.113154 0.725698
Si Si4 0.071298 0.619256 0.500000
Si Si5 0.571379 0.197338 0.224547
Si Si6 0.791062 0.119556 0.414195
Si Si7 0.653404 0.188853 0.085577
O O1 0.697426 0.500000 0.893782
O O2 0.689916 0.618598 0.782576
O O3 0.674643 0.696826 0.910486
O O4 0.785795 0.631827 0.881691
O O5 0.845378 0.500000 0.643462
O O6 0.891851 0.648886 0.574148
O O7 0.877302 0.651693 0.719252
O O8 0.776193 0.649519 0.620610
O O9 0.921137 0.186804 0.758849
O O10 0.846091 0.145103 0.643960
O O11 0.890155 0.000000 0.723668
O O12 0.070128 0.500000 0.500000
O O13 0.000000 0.655184 0.500000
O O14 0.500000 0.164497 0.238630
O O15 0.594784 0.176034 0.140774
O O16 0.798193 0.152731 0.500000
O O17 0.790260 0.000000 0.416030
O O18 0.642500 0.160483 0.000000
#
# Coordination Sequence:
#
# PCOD9487268 Si02
#       7
#    16  16  16   8  16  16  16
#     4   9  17  33  58  86 112 138 169 213 272 330
#     4  10  19  34  55  81 110 140 175 216 264 318
#     4   9  19  36  57  79 105 138 178 225 273 320
#     4   9  16  28  48  73 105 143 176 209 249 297
#     4  11  24  39  54  74 103 144 191 227 260 311
#     4   9  16  30  54  82 110 137 166 210 272 328
#     4  10  21  35  54  82 111 139 175 219 269 325
#
# _framework density 20.109283000000001
#
# number of rings (size 3 to 8) (size 9 to 14) (size 15 to 20)
#    0.000    2.385    0.769    2.308    0.000    6.462 
#    1.385    0.769    0.000    0.000    0.000    8.615 
#    0.000    0.000    0.000    0.000    0.000    0.000 
#
# Total GULP energy -290378.819174 kJ/mol
# GULP energy per Si atom -5584.208061 kJ/mol
# Density = 2.006351 g / cm^3
# Si number density = 20.109283 Si / 1000 Ang^3
#
#
#
# Elastic Constant Matrix: (Units=GPa)
#
#
# Indices 1 2 3 4 5 6 
#
# 1 48.9742 -0.4522 24.2678 0.0000 0.0000 0.0000
# 2 -0.4522 47.8035 8.9814 0.0000 0.0000 0.0000
# 3 24.2678 8.9814 107.2033 0.0000 0.0000 0.0000
# 4 0.0000 0.0000 0.0000 18.5125 0.0000 0.0000
# 5 0.0000 0.0000 0.0000 0.0000 8.4711 0.0000
# 6 0.0000 0.0000 0.0000 0.0000 0.0000 14.2061
#
#
#
# Elastic Compliance Matrix: (Units=1/GPa)
#
#
# Indices 1 2 3 4 5 6 
#
# 1 0.023068 0.001219 -0.005324 0.000000 0.000000 0.000000
# 2 0.001219 0.021318 -0.002062 0.000000 0.000000 0.000000
# 3 -0.005324 -0.002062 0.010706 0.000000 0.000000 0.000000
# 4 0.000000 0.000000 0.000000 0.054018 0.000000 0.000000
# 5 0.000000 0.000000 0.000000 0.000000 0.118048 0.000000
# 6 0.000000 0.000000 0.000000 0.000000 0.000000 0.070392
#
#
# Mechanical properties :
#
#
# Convention : Reuss Voigt Hill
#
# Bulk Modulus (GPa) = 23.38773 29.95276 26.67025
# Shear Modulus (GPa) = 15.42554 19.65019 17.53787
#
# Velocity S-wave (km/s) = 2.77264 3.12936 2.95638
# Velocity P-wave (km/s) = 4.68034 5.29004 4.99450
#
# Compressibility (1/GPa) = 0.04275746
#
# Stress axis : x y z
#
# Youngs Moduli (GPa) = 43.34932 46.90898 93.40517
#
# Poissons Ratio (x) = -0.05716 0.49730
# Poissons Ratio (y) = -0.05282 0.19259
# Poissons Ratio (z) = 0.23080 0.09672
#
# Static dielectric constant tensor:
#      x y z
#    x 1.671930 0.000000 0.000000 
#    y 0.000000 1.782250 0.000000 
#    z 0.000000 0.000000 1.710510 
# 
# From -- ./inp_files/55837.got.cif
#   From: 2010.05.17/outbox.cif.g08.bks.cpg/sg65_28_cif.got.tgz:55837.got - 2010.06.03 17:01:31.
