data_PCOD9487978
_publ_section_title
;
Structure prediction by ZEFSAII (Michael W. Deem and Ramdas Pophale) SiO2 
 PCOD9487978
Probable space group: C M M M
;
_chemical_formula_sum "Si O2"
_cell_formula_units_Z 104
_cell_length_a 7.647793
_cell_length_b 27.976989
_cell_length_c 27.999687
_cell_angle_alpha 90.000000
_cell_angle_beta 90.000000
_cell_angle_gamma 90.000000
_cell_volume 5990.875208
_symmetry_space_group_name_H-M "C M M M"
_symmetry_group_IT_number 65
_symmetry_cell_setting 'orthorhombic'
loop_
_space_group_symop_operation_xyz
x,y,z
-x,-y,z
x,-y,-z
-x,y,-z
-x,-y,-z
x,y,-z
-x,y,z
x,-y,z
1/2+x,1/2+y,z
1/2-x,1/2-y,z
1/2+x,1/2-y,-z
1/2-x,1/2+y,-z
1/2-x,1/2-y,-z
1/2+x,1/2+y,-z
1/2-x,1/2+y,z
1/2+x,1/2-y,z
loop_
_atom_site_type_symbol
_atom_site_label
_atom_site_fract_x
_atom_site_fract_y
_atom_site_fract_z
Si Si1 0.789828 0.193300 0.448645
Si Si2 0.206680 0.150791 0.753144
Si Si3 0.710704 0.693572 0.344728
Si Si4 0.209947 0.102311 0.097991
Si Si5 0.791529 0.553313 0.197634
Si Si6 0.789947 0.804287 0.850710
Si Si7 0.285455 0.555323 0.000000
O O1 0.723649 0.174327 0.500000
O O2 0.750000 0.250000 0.448662
O O3 0.723499 0.176361 0.396873
O O4 0.000000 0.187514 0.448870
O O5 0.279083 0.165850 0.701740
O O6 0.226721 0.095617 0.768059
O O7 0.278245 0.181532 0.797860
O O8 0.000000 0.161032 0.751107
O O9 0.500000 0.688735 0.346099
O O10 0.750000 0.750000 0.339510
O O11 0.248120 0.068661 0.143374
O O12 0.274775 0.155055 0.112851
O O13 0.275446 0.081330 0.048227
O O14 0.000000 0.104905 0.093781
O O15 0.723471 0.500000 0.207481
O O16 0.000000 0.552523 0.201948
O O17 0.750000 0.750000 0.863040
O O18 0.000000 0.809057 0.849095
O O19 0.232891 0.500000 0.000000
O O20 0.500000 0.555934 0.000000
#
# Coordination Sequence:
#
# PCOD9487978 Si02
#       7
#    16  16  16  16  16  16   8
#     4   8  13  21  33  50  75 108 142 173 205 241
#     4   9  18  30  43  61  83 109 142 175 206 244
#     4   9  16  25  38  58  84 113 145 177 208 244
#     4   9  18  32  49  69  89 110 140 172 201 240
#     4  10  20  32  46  65  87 109 133 164 207 255
#     4   9  17  28  42  60  83 111 140 169 200 235
#     4   9  16  28  50  73  87 105 137 175 210 243
#
# _framework density 17.359732999999999
#
# number of rings (size 3 to 8) (size 9 to 14) (size 15 to 20)
#    0.000    3.000    0.000    2.308    0.000    4.923 
#    0.000    0.769    0.000    1.385    0.000    0.000 
#    0.000    0.615    0.000    7.692    0.000    1.231 
#
# Total GULP energy -289612.518612 kJ/mol
# GULP energy per Si atom -5569.471512 kJ/mol
# Density = 1.732022 g / cm^3
# Si number density = 17.359733 Si / 1000 Ang^3
#
#
#
# Elastic Constant Matrix: (Units=GPa)
#
#
# Indices 1 2 3 4 5 6 
#
# 1 30.8332 -6.1314 6.7279 0.0000 0.0000 0.0000
# 2 -6.1314 79.2506 59.7378 0.0000 0.0000 0.0000
# 3 6.7279 59.7378 176.9736 0.0000 0.0000 0.0000
# 4 0.0000 0.0000 0.0000 17.5686 0.0000 0.0000
# 5 0.0000 0.0000 0.0000 0.0000 5.2201 0.0000
# 6 0.0000 0.0000 0.0000 0.0000 0.0000 17.2939
#
#
#
# Elastic Compliance Matrix: (Units=1/GPa)
#
#
# Indices 1 2 3 4 5 6 
#
# 1 0.034034 0.004840 -0.002928 0.000000 0.000000 0.000000
# 2 0.004840 0.017613 -0.006129 0.000000 0.000000 0.000000
# 3 -0.002928 -0.006129 0.007831 0.000000 0.000000 0.000000
# 4 0.000000 0.000000 0.000000 0.056920 0.000000 0.000000
# 5 0.000000 0.000000 0.000000 0.000000 0.191567 0.000000
# 6 0.000000 0.000000 0.000000 0.000000 0.000000 0.057824
#
#
# Mechanical properties :
#
#
# Convention : Reuss Voigt Hill
#
# Bulk Modulus (GPa) = 19.59113 45.30289 32.44701
# Shear Modulus (GPa) = 12.78000 23.13141 17.95571
#
# Velocity S-wave (km/s) = 2.71622 3.65427 3.21959
# Velocity P-wave (km/s) = 4.59859 6.63009 5.70548
#
# Compressibility (1/GPa) = 0.05104351
#
# Stress axis : x y z
#
# Youngs Moduli (GPa) = 29.38255 56.77708 127.70120
#
# Poissons Ratio (x) = -0.27479 0.37385
# Poissons Ratio (y) = -0.14221 0.78271
# Poissons Ratio (z) = 0.08602 0.34800
#
# Static dielectric constant tensor:
#      x y z
#    x 1.588970 0.000000 0.000000 
#    y 0.000000 1.570450 0.000000 
#    z 0.000000 0.000000 1.642670 
# 
# From -- ./inp_files/73809.got.cif
#   From: 2010.05.17/outbox.cif.g08.bks.cpg/sg65_37_cif.got.tgz:73809.got - 2010.06.03 17:01:31.
