data_PCOD9487644
_publ_section_title
;
Structure prediction by ZEFSAII (Michael W. Deem and Ramdas Pophale) SiO2 
 PCOD9487644
Probable space group: C M M M
;
_chemical_formula_sum "Si O2"
_cell_formula_units_Z 88
_cell_length_a 32.312142
_cell_length_b 7.662902
_cell_length_c 17.459676
_cell_angle_alpha 90.000000
_cell_angle_beta 90.000000
_cell_angle_gamma 90.000000
_cell_volume 4323.099192
_symmetry_space_group_name_H-M "C M M M"
_symmetry_group_IT_number 65
_symmetry_cell_setting 'orthorhombic'
loop_
_space_group_symop_operation_xyz
x,y,z
-x,-y,z
x,-y,-z
-x,y,-z
-x,-y,-z
x,y,-z
-x,y,z
x,-y,z
1/2+x,1/2+y,z
1/2-x,1/2-y,z
1/2+x,1/2-y,-z
1/2-x,1/2+y,-z
1/2-x,1/2-y,-z
1/2+x,1/2+y,-z
1/2-x,1/2+y,z
1/2+x,1/2-y,z
loop_
_atom_site_type_symbol
_atom_site_label
_atom_site_fract_x
_atom_site_fract_y
_atom_site_fract_z
Si Si1 0.331506 0.211746 0.000000
Si Si2 0.590434 0.794149 0.586417
Si Si3 0.071034 0.204710 0.000000
Si Si4 0.873976 0.285142 0.739287
Si Si5 0.202982 0.709222 0.838411
Si Si6 0.454779 0.794889 0.830428
Si Si7 0.000000 0.791795 0.410853
O O1 0.379565 0.263998 0.000000
O O2 0.308834 0.274324 0.923307
O O3 0.330890 0.000000 0.000000
O O4 0.592418 0.718657 0.500000
O O5 0.620620 0.725610 0.651798
O O6 0.543776 0.773051 0.619230
O O7 0.597849 0.000000 0.579428
O O8 0.052605 0.279391 0.921511
O O9 0.062548 0.000000 0.000000
O O10 0.874216 0.500000 0.739803
O O11 0.831939 0.227175 0.779745
O O12 0.914098 0.225010 0.787689
O O13 0.199221 0.500000 0.840829
O O14 0.250000 0.750000 0.818267
O O15 0.500000 0.718842 0.810517
O O16 0.456244 0.000000 0.811644
O O17 0.000000 0.733164 0.500000
O O18 0.000000 0.000000 0.408253
#
# Coordination Sequence:
#
# PCOD9487644 Si02
#       7
#     8  16   8  16  16  16   8
#     4  10  19  36  58  75  98 134 170 207 253 311
#     4   9  17  30  51  77 102 132 174 219 256 293
#     4  12  23  34  51  74 107 139 170 217 259 296
#     4   9  18  33  54  78 103 132 170 215 257 298
#     4  10  20  35  56  78 102 130 164 210 258 308
#     4  10  20  35  55  73  96 140 186 214 245 302
#     4   9  17  29  45  69 103 140 171 202 251 309
#
# _framework density 20.355767
#
# number of rings (size 3 to 8) (size 9 to 14) (size 15 to 20)
#    0.000    2.273    1.818    1.636    1.273    3.273 
#    0.000    1.818    0.000    0.545    0.000    0.000 
#    0.000    0.000    0.000    0.000    0.000    0.000 
#
# Total GULP energy -245639.628363 kJ/mol
# GULP energy per Si atom -5582.718826 kJ/mol
# Density = 2.030944 g / cm^3
# Si number density = 20.355767 Si / 1000 Ang^3
#
#
#
# Elastic Constant Matrix: (Units=GPa)
#
#
# Indices 1 2 3 4 5 6 
#
# 1 175.4740 1.1695 84.0115 0.0000 0.0000 0.0000
# 2 1.1695 38.4621 2.5880 0.0000 0.0000 0.0000
# 3 84.0115 2.5880 132.1933 0.0000 0.0000 0.0000
# 4 0.0000 0.0000 0.0000 -8.8773 0.0000 0.0000
# 5 0.0000 0.0000 0.0000 0.0000 7.2736 0.0000
# 6 0.0000 0.0000 0.0000 0.0000 0.0000 14.5928
#
#
#
# Elastic Compliance Matrix: (Units=1/GPa)
#
#
# Indices 1 2 3 4 5 6 
#
# 1 0.008192 0.000101 -0.005208 0.000000 0.000000 0.000000
# 2 0.000101 0.026035 -0.000574 0.000000 0.000000 0.000000
# 3 -0.005208 -0.000574 0.010886 0.000000 0.000000 0.000000
# 4 0.000000 0.000000 0.000000 -0.112647 0.000000 0.000000
# 5 0.000000 0.000000 0.000000 0.000000 0.137483 0.000000
# 6 0.000000 0.000000 0.000000 0.000000 0.000000 0.068527
#
#
# Mechanical properties :
#
#
# Convention : Reuss Voigt Hill
#
# Bulk Modulus (GPa) = 29.62870 57.96304 43.79587
# Shear Modulus (GPa) = 31.03919 19.82187 25.43053
#
# Velocity S-wave (km/s) = 3.90915 3.12392 3.53838
# Velocity P-wave (km/s) = 5.91289 6.44582 6.18510
#
# Compressibility (1/GPa) = 0.03375105
#
# Stress axis : x y z
#
# Youngs Moduli (GPa) = 122.07712 38.40963 91.86426
#
# Poissons Ratio (x) = -0.00389 0.47842
# Poissons Ratio (y) = -0.01237 0.05274
# Poissons Ratio (z) = 0.63576 0.02205
#
# Static dielectric constant tensor:
#      x y z
#    x 1.712710 0.000000 0.000000 
#    y 0.000000 1.763680 0.000000 
#    z 0.000000 0.000000 1.751210 
# 
# From -- ./inp_files/58108.got.cif
#   From: 2010.05.17/outbox.cif.g08.bks.cpg/sg65_30_cif.got.tgz:58108.got - 2010.06.03 17:01:31.
