data_PCOD9487595
_publ_section_title
;
Structure prediction by ZEFSAII (Michael W. Deem and Ramdas Pophale) SiO2 
 PCOD9487595
Probable space group: C M M M
;
_chemical_formula_sum "Si O2"
_cell_formula_units_Z 66
_cell_length_a 26.224913
_cell_length_b 15.677624
_cell_length_c 7.810450
_cell_angle_alpha 90.000000
_cell_angle_beta 90.000000
_cell_angle_gamma 90.000000
_cell_volume 3211.222197
_symmetry_space_group_name_H-M "C M M M"
_symmetry_group_IT_number 65
_symmetry_cell_setting 'orthorhombic'
loop_
_space_group_symop_operation_xyz
x,y,z
-x,-y,z
x,-y,-z
-x,y,-z
-x,-y,-z
x,y,-z
-x,y,z
x,-y,z
1/2+x,1/2+y,z
1/2-x,1/2-y,z
1/2+x,1/2-y,-z
1/2-x,1/2+y,-z
1/2-x,1/2-y,-z
1/2+x,1/2+y,-z
1/2-x,1/2+y,z
1/2+x,1/2-y,z
loop_
_atom_site_type_symbol
_atom_site_label
_atom_site_fract_x
_atom_site_fract_y
_atom_site_fract_z
Si Si1 0.441617 0.500000 0.709849
Si Si2 0.134644 0.854535 0.301715
Si Si3 0.500000 0.000000 0.500000
Si Si4 0.650626 0.172796 0.797512
Si Si5 0.247276 0.903896 0.797150
Si Si6 0.913792 0.500000 0.201018
O O1 0.500000 0.500000 0.769306
O O2 0.443629 0.500000 0.500000
O O3 0.409263 0.417106 0.765909
O O4 0.140590 0.876605 0.500000
O O5 0.123859 0.754490 0.284199
O O6 0.189961 0.871513 0.221815
O O7 0.543948 0.000000 0.347124
O O8 0.707971 0.156738 0.728781
O O9 0.620529 0.084665 0.777151
O O10 0.653143 0.192381 0.000000
O O11 0.250948 0.000000 0.725926
O O12 0.257777 0.909643 0.000000
O O13 0.931495 0.500000 0.000000
#
# Coordination Sequence:
#
# PCOD9487595 Si02
#       6
#     8  16   2  16  16   8
#     4   9  20  41  59  78 114 162 202 253 313 366
#     4  11  22  36  58  90 123 156 206 259 314 372
#     4  12  26  44  72  98 120 170 218 256 338 382
#     4  10  21  40  63  90 123 165 205 251 311 378
#     4  10  19  35  60  86 120 166 205 243 309 387
#     4  10  23  46  68  93 132 165 211 270 318 381
#
# _framework density 20.552921999999999
#
# number of rings (size 3 to 8) (size 9 to 14) (size 15 to 20)
#    0.000    1.818    2.424    1.636    1.697    3.879 
#    2.182    0.000    0.000    5.091    0.000    0.000 
#    0.000    0.000    0.000    0.000    0.000    0.000 
#
# Total GULP energy -183955.715640 kJ/mol
# GULP energy per Si atom -5574.415625 kJ/mol
# Density = 2.050614 g / cm^3
# Si number density = 20.552922 Si / 1000 Ang^3
#
#
#
# Elastic Constant Matrix: (Units=GPa)
#
#
# Indices 1 2 3 4 5 6 
#
# 1 142.9421 62.5722 34.1192 0.0000 0.0000 0.0000
# 2 62.5722 147.3026 7.6071 0.0000 0.0000 0.0000
# 3 34.1192 7.6071 49.9140 0.0000 0.0000 0.0000
# 4 0.0000 0.0000 0.0000 15.0900 0.0000 0.0000
# 5 0.0000 0.0000 0.0000 0.0000 32.0336 0.0000
# 6 0.0000 0.0000 0.0000 0.0000 0.0000 9.3911
#
#
#
# Elastic Compliance Matrix: (Units=1/GPa)
#
#
# Indices 1 2 3 4 5 6 
#
# 1 0.010299 -0.004043 -0.006424 0.000000 0.000000 0.000000
# 2 -0.004043 0.008430 0.001479 0.000000 0.000000 0.000000
# 3 -0.006424 0.001479 0.024200 0.000000 0.000000 0.000000
# 4 0.000000 0.000000 0.000000 0.066269 0.000000 0.000000
# 5 0.000000 0.000000 0.000000 0.000000 0.031217 0.000000
# 6 0.000000 0.000000 0.000000 0.000000 0.000000 0.106483
#
#
# Mechanical properties :
#
#
# Convention : Reuss Voigt Hill
#
# Bulk Modulus (GPa) = 40.07526 60.97286 50.52406
# Shear Modulus (GPa) = 18.30214 27.02697 22.66455
#
# Velocity S-wave (km/s) = 2.98734 3.63022 3.32436
# Velocity P-wave (km/s) = 5.60713 6.87764 6.27463
#
# Compressibility (1/GPa) = 0.02495305
#
# Stress axis : x y z
#
# Youngs Moduli (GPa) = 97.09662 118.62611 41.32214
#
# Poissons Ratio (x) = 0.47962 0.26545
# Poissons Ratio (y) = 0.39258 -0.06112
# Poissons Ratio (z) = 0.62373 -0.17545
#
# Static dielectric constant tensor:
#      x y z
#    x 1.711620 0.000000 0.000000 
#    y 0.000000 1.761000 0.000000 
#    z 0.000000 0.000000 1.757380 
# 
# From -- ./inp_files/15671.got.cif
#   From: 2010.05.17/outbox.cif.g08.bks.cpg/sg65_8_cif.got.tgz:15671.got - 2010.06.03 17:01:31.
