data_PCOD9487041
_publ_section_title
;
Structure prediction by ZEFSAII (Michael W. Deem and Ramdas Pophale) SiO2 
 PCOD9487041
Probable space group: C M M M
;
_chemical_formula_sum "Si O2"
_cell_formula_units_Z 66
_cell_length_a 16.345117
_cell_length_b 9.122637
_cell_length_c 24.517620
_cell_angle_alpha 90.000000
_cell_angle_beta 90.000000
_cell_angle_gamma 90.000000
_cell_volume 3655.836272
_symmetry_space_group_name_H-M "C M M M"
_symmetry_group_IT_number 65
_symmetry_cell_setting 'orthorhombic'
loop_
_space_group_symop_operation_xyz
x,y,z
-x,-y,z
x,-y,-z
-x,y,-z
-x,-y,-z
x,y,-z
-x,y,z
x,-y,z
1/2+x,1/2+y,z
1/2-x,1/2-y,z
1/2+x,1/2-y,-z
1/2-x,1/2+y,-z
1/2-x,1/2-y,-z
1/2+x,1/2+y,-z
1/2-x,1/2+y,z
1/2+x,1/2-y,z
loop_
_atom_site_type_symbol
_atom_site_label
_atom_site_fract_x
_atom_site_fract_y
_atom_site_fract_z
Si Si1 0.500000 0.000000 0.000000
Si Si2 0.337820 0.174472 0.500000
Si Si3 0.402424 0.827184 0.714452
Si Si4 0.000000 0.662757 0.887284
Si Si5 0.335065 0.824140 0.833742
Si Si6 0.901812 0.834323 0.394368
O O1 0.500000 0.874928 0.951024
O O2 0.250000 0.250000 0.500000
O O3 0.380850 0.233279 0.445469
O O4 0.333430 0.000000 0.500000
O O5 0.500000 0.800836 0.723017
O O6 0.355807 0.794304 0.770395
O O7 0.373100 0.733669 0.662844
O O8 0.393239 0.000000 0.702303
O O9 0.085583 0.729536 0.867789
O O10 0.000000 0.500000 0.858497
O O11 0.250000 0.750000 0.849385
O O12 0.327140 0.000000 0.841193
O O13 0.000000 0.840983 0.390842
O O14 0.870404 0.000000 0.402630
#
# Coordination Sequence:
#
# PCOD9487041 Si02
#       6
#     2   8  16   8  16  16
#     4   8  16  32  68  84 110 162 212 234 278 332
#     4  12  25  40  57  75 101 141 185 238 295 352
#     4   9  17  32  54  77 103 146 189 236 279 345
#     4   8  16  34  57  81 113 152 202 230 275 340
#     4  10  19  33  55  83 117 152 195 241 292 342
#     4  10  21  37  57  81 110 140 183 233 288 347
#
# _framework density 18.053325000000001
#
# number of rings (size 3 to 8) (size 9 to 14) (size 15 to 20)
#    0.364    1.939    1.212    2.182    0.000    4.848 
#    0.000    3.636    0.000    0.000    0.000    0.848 
#    0.000    0.000    0.000    0.000    0.000    0.000 
#
# Total GULP energy -183711.835402 kJ/mol
# GULP energy per Si atom -5567.025315 kJ/mol
# Density = 1.801223 g / cm^3
# Si number density = 18.053325 Si / 1000 Ang^3
#
#
#
# Elastic Constant Matrix: (Units=GPa)
#
#
# Indices 1 2 3 4 5 6 
#
# 1 96.3797 40.1497 52.3199 0.0000 0.0000 0.0000
# 2 40.1497 76.7291 51.8833 0.0000 0.0000 0.0000
# 3 52.3199 51.8833 122.9059 0.0000 0.0000 0.0000
# 4 0.0000 0.0000 0.0000 13.0615 0.0000 0.0000
# 5 0.0000 0.0000 0.0000 0.0000 -2.8186 0.0000
# 6 0.0000 0.0000 0.0000 0.0000 0.0000 26.5377
#
#
#
# Elastic Compliance Matrix: (Units=1/GPa)
#
#
# Indices 1 2 3 4 5 6 
#
# 1 0.014672 -0.004834 -0.004205 0.000000 0.000000 0.000000
# 2 -0.004834 0.019832 -0.006314 0.000000 0.000000 0.000000
# 3 -0.004205 -0.006314 0.012592 0.000000 0.000000 0.000000
# 4 0.000000 0.000000 0.000000 0.076561 0.000000 0.000000
# 5 0.000000 0.000000 0.000000 0.000000 -0.354784 0.000000
# 6 0.000000 0.000000 0.000000 0.000000 0.000000 0.037682
#
#
# Mechanical properties :
#
#
# Convention : Reuss Voigt Hill
#
# Bulk Modulus (GPa) = 61.01487 64.96895 62.99191
# Shear Modulus (GPa) = -31.79123 17.46691 -7.16216
#
# Velocity S-wave (km/s) = -4.20093 3.11387 -1.99395
# Velocity P-wave (km/s) = 3.21558 6.99954 5.44672
#
# Compressibility (1/GPa) = 0.01638945
#
# Stress axis : x y z
#
# Youngs Moduli (GPa) = 68.15640 50.42430 79.41680
#
# Poissons Ratio (x) = 0.24375 0.33396
# Poissons Ratio (y) = 0.32946 0.50144
# Poissons Ratio (z) = 0.28661 0.31838
#
# Static dielectric constant tensor:
#      x y z
#    x 1.666550 0.000000 0.000000 
#    y 0.000000 1.631810 0.000000 
#    z 0.000000 0.000000 1.608210 
# 
# From -- ./inp_files/74544.got.cif
#   From: 2010.05.17/outbox.cif.g08.bks.cpg/sg65_38_cif.got.tgz:74544.got - 2010.06.03 17:01:31.
