data_PCOD9487545
_publ_section_title
;
Structure prediction by ZEFSAII (Michael W. Deem and Ramdas Pophale) SiO2 
 PCOD9487545
Probable space group: C M M M
;
_chemical_formula_sum "Si O2"
_cell_formula_units_Z 72
_cell_length_a 22.257829
_cell_length_b 21.253950
_cell_length_c 7.953198
_cell_angle_alpha 90.000000
_cell_angle_beta 90.000000
_cell_angle_gamma 90.000000
_cell_volume 3762.393806
_symmetry_space_group_name_H-M "C M M M"
_symmetry_group_IT_number 65
_symmetry_cell_setting 'orthorhombic'
loop_
_space_group_symop_operation_xyz
x,y,z
-x,-y,z
x,-y,-z
-x,y,-z
-x,-y,-z
x,y,-z
-x,y,z
x,-y,z
1/2+x,1/2+y,z
1/2-x,1/2-y,z
1/2+x,1/2-y,-z
1/2-x,1/2+y,-z
1/2-x,1/2-y,-z
1/2+x,1/2+y,-z
1/2-x,1/2+y,z
1/2+x,1/2-y,z
loop_
_atom_site_type_symbol
_atom_site_label
_atom_site_fract_x
_atom_site_fract_y
_atom_site_fract_z
Si Si1 0.069653 0.500000 0.188946
Si Si2 0.124935 0.622484 0.308294
Si Si3 0.067776 0.752446 0.705027
Si Si4 0.250003 0.427097 0.805974
Si Si5 0.303168 0.701611 0.698429
O O1 0.086617 0.560421 0.293901
O O2 0.000000 0.500000 0.164559
O O3 0.098481 0.500000 0.000000
O O4 0.144497 0.635677 0.500000
O O5 0.084564 0.680502 0.251457
O O6 0.184013 0.603748 0.206850
O O7 0.065670 0.757603 0.500000
O O8 0.128977 0.786813 0.764763
O O9 0.000000 0.769002 0.764261
O O10 0.249661 0.500000 0.740073
O O11 0.288589 0.372026 0.720965
O O12 0.267951 0.430637 0.000000
O O13 0.305651 0.715249 0.500000
O O14 0.250000 0.750000 0.764081
#
# Coordination Sequence:
#
# PCOD9487545 Si02
#       5
#     8  16  16  16  16
#     4  11  23  35  45  67 109 153 190 229 272 323
#     4  11  20  33  54  77 105 143 188 228 269 327
#     4   9  18  33  54  81 111 139 174 227 282 326
#     4  11  23  37  54  79 113 148 184 229 285 336
#     4  10  19  35  58  84 110 141 186 233 276 329
#
# _framework density 19.136752999999999
#
# number of rings (size 3 to 8) (size 9 to 14) (size 15 to 20)
#    0.000    1.667    3.333    2.333    0.000    3.556 
#    0.000    0.000    0.000    4.000    0.000    4.667 
#    0.000    0.000    0.000    0.000    0.000    0.000 
#
# Total GULP energy -200410.619205 kJ/mol
# GULP energy per Si atom -5566.961645 kJ/mol
# Density = 1.909320 g / cm^3
# Si number density = 19.136753 Si / 1000 Ang^3
#
#
#
# Elastic Constant Matrix: (Units=GPa)
#
#
# Indices 1 2 3 4 5 6 
#
# 1 151.3236 55.4383 4.6374 0.0000 0.0000 0.0000
# 2 55.4383 70.4622 9.6716 0.0000 0.0000 0.0000
# 3 4.6374 9.6716 25.4424 0.0000 0.0000 0.0000
# 4 0.0000 0.0000 0.0000 -30.0326 0.0000 0.0000
# 5 0.0000 0.0000 0.0000 0.0000 7.7651 0.0000
# 6 0.0000 0.0000 0.0000 0.0000 0.0000 -71.1039
#
#
#
# Elastic Compliance Matrix: (Units=1/GPa)
#
#
# Indices 1 2 3 4 5 6 
#
# 1 0.009316 -0.007487 0.001148 0.000000 0.000000 0.000000
# 2 -0.007487 0.020991 -0.006615 0.000000 0.000000 0.000000
# 3 0.001148 -0.006615 0.041610 0.000000 0.000000 0.000000
# 4 0.000000 0.000000 0.000000 -0.033297 0.000000 0.000000
# 5 0.000000 0.000000 0.000000 0.000000 0.128782 0.000000
# 6 0.000000 0.000000 0.000000 0.000000 0.000000 -0.014064
#
#
# Mechanical properties :
#
#
# Convention : Reuss Voigt Hill
#
# Bulk Modulus (GPa) = 21.73495 42.96920 32.35208
# Shear Modulus (GPa) = 25.69617 -6.84223 9.42697
#
# Velocity S-wave (km/s) = 3.66835 -1.89293 2.22189
# Velocity P-wave (km/s) = 5.41523 4.21010 4.85024
#
# Compressibility (1/GPa) = 0.04600885
#
# Stress axis : x y z
#
# Youngs Moduli (GPa) = 107.33960 47.63967 24.03290
#
# Poissons Ratio (x) = 0.35670 -0.02759
# Poissons Ratio (y) = 0.80370 0.15897
# Poissons Ratio (z) = -0.12325 0.31512
#
# Static dielectric constant tensor:
#      x y z
#    x 1.724710 0.000000 0.000000 
#    y 0.000000 1.672290 0.000000 
#    z 0.000000 0.000000 1.752080 
# 
# From -- ./inp_files/11223.got.cif
#   From: 2010.05.17/outbox.cif.g08.bks.cpg/sg65_6_cif.got.tgz:11223.got - 2010.06.03 17:01:31.
