data_PCOD9487124
_publ_section_title
;
Structure prediction by ZEFSAII (Michael W. Deem and Ramdas Pophale) SiO2 
 PCOD9487124
Probable space group: C M M M
;
_chemical_formula_sum "Si O2"
_cell_formula_units_Z 92
_cell_length_a 24.261385
_cell_length_b 10.750987
_cell_length_c 18.498703
_cell_angle_alpha 90.000000
_cell_angle_beta 90.000000
_cell_angle_gamma 90.000000
_cell_volume 4825.087641
_symmetry_space_group_name_H-M "C M M M"
_symmetry_group_IT_number 65
_symmetry_cell_setting 'orthorhombic'
loop_
_space_group_symop_operation_xyz
x,y,z
-x,-y,z
x,-y,-z
-x,y,-z
-x,-y,-z
x,y,-z
-x,y,z
x,-y,z
1/2+x,1/2+y,z
1/2-x,1/2-y,z
1/2+x,1/2-y,-z
1/2-x,1/2+y,-z
1/2-x,1/2-y,-z
1/2+x,1/2+y,-z
1/2-x,1/2+y,z
1/2+x,1/2-y,z
loop_
_atom_site_type_symbol
_atom_site_label
_atom_site_fract_x
_atom_site_fract_y
_atom_site_fract_z
Si Si1 0.000000 0.266065 0.303801
Si Si2 0.201569 0.650284 0.792356
Si Si3 0.815077 0.746295 0.632332
Si Si4 0.115394 0.349793 0.080214
Si Si5 0.000000 0.351252 0.859616
Si Si6 0.918128 0.643443 0.423134
Si Si7 0.376179 0.500000 0.412739
Si Si8 0.500000 0.500000 0.651267
O O1 0.051964 0.301120 0.353818
O O2 0.000000 0.327866 0.226061
O O3 0.000000 0.119402 0.298223
O O4 0.215066 0.500000 0.791319
O O5 0.250000 0.750000 0.805953
O O6 0.180172 0.691199 0.713328
O O7 0.157592 0.673693 0.855285
O O8 0.750000 0.750000 0.615056
O O9 0.852838 0.657696 0.584017
O O10 0.844552 0.879843 0.620269
O O11 0.112039 0.500000 0.076284
O O12 0.055327 0.302186 0.103328
O O13 0.131332 0.305140 0.000000
O O14 0.000000 0.500000 0.869687
O O15 0.935177 0.702190 0.500000
O O16 0.933493 0.500000 0.424419
O O17 0.370389 0.500000 0.500000
O O18 0.441842 0.500000 0.393242
#
# Coordination Sequence:
#
# PCOD9487124 Si02
#       8
#     8  16  16  16   8  16   8   4
#     4  12  23  40  59  86 117 155 208 262 311 382
#     4  10  22  39  64  94 126 169 212 261 316 374
#     4  11  25  41  63  89 123 161 211 263 316 383
#     4   9  18  34  58  93 130 160 197 249 309 378
#     4  10  19  33  59  91 119 157 195 248 311 373
#     4  11  23  38  58  83 114 154 197 257 321 375
#     4  12  27  46  68  92 126 173 220 275 330 385
#     4  12  27  44  64  90 119 164 212 264 321 384
#
# _framework density 19.067011000000001
#
# number of rings (size 3 to 8) (size 9 to 14) (size 15 to 20)
#    0.000    1.391    1.739    3.522    6.087    5.565 
#    0.000    0.000    0.000    0.000    0.000    0.609 
#    0.000    0.000    0.000    0.000    0.000    0.000 
#
# Total GULP energy -256487.976741 kJ/mol
# GULP energy per Si atom -5575.825581 kJ/mol
# Density = 1.902361 g / cm^3
# Si number density = 19.067011 Si / 1000 Ang^3
#
#
#
# Elastic Constant Matrix: (Units=GPa)
#
#
# Indices 1 2 3 4 5 6 
#
# 1 134.0112 37.5099 58.5960 0.0000 0.0000 0.0000
# 2 37.5099 86.5567 13.2143 0.0000 0.0000 0.0000
# 3 58.5960 13.2143 87.8421 0.0000 0.0000 0.0000
# 4 0.0000 0.0000 0.0000 6.3367 0.0000 0.0000
# 5 0.0000 0.0000 0.0000 0.0000 -8.7117 0.0000
# 6 0.0000 0.0000 0.0000 0.0000 0.0000 23.2410
#
#
#
# Elastic Compliance Matrix: (Units=1/GPa)
#
#
# Indices 1 2 3 4 5 6 
#
# 1 0.011739 -0.003983 -0.007231 0.000000 0.000000 0.000000
# 2 -0.003983 0.013176 0.000675 0.000000 0.000000 0.000000
# 3 -0.007231 0.000675 0.016106 0.000000 0.000000 0.000000
# 4 0.000000 0.000000 0.000000 0.157811 0.000000 0.000000
# 5 0.000000 0.000000 0.000000 0.000000 -0.114788 0.000000
# 6 0.000000 0.000000 0.000000 0.000000 0.000000 0.043027
#
#
# Mechanical properties :
#
#
# Convention : Reuss Voigt Hill
#
# Bulk Modulus (GPa) = 50.14508 58.56114 54.35311
# Shear Modulus (GPa) = 32.30003 17.44585 24.87294
#
# Velocity S-wave (km/s) = 4.12032 3.02814 3.61571
# Velocity P-wave (km/s) = 6.99947 6.55791 6.78228
#
# Compressibility (1/GPa) = 0.01994214
#
# Stress axis : x y z
#
# Youngs Moduli (GPa) = 85.18760 75.89445 62.08767
#
# Poissons Ratio (x) = 0.30230 0.44897
# Poissons Ratio (y) = 0.33931 -0.04190
# Poissons Ratio (z) = 0.61602 -0.05122
#
# Static dielectric constant tensor:
#      x y z
#    x 1.705830 0.000000 0.000000 
#    y 0.000000 1.680670 0.000000 
#    z 0.000000 0.000000 1.676100 
# 
# From -- ./inp_files/56729.got.cif
#   From: 2010.05.17/outbox.cif.g08.bks.cpg/sg65_29_cif.got.tgz:56729.got - 2010.06.03 17:01:31.
