data_PCOD9487351
_publ_section_title
;
Structure prediction by ZEFSAII (Michael W. Deem and Ramdas Pophale) SiO2 
 PCOD9487351
Probable space group: C M M M
;
_chemical_formula_sum "Si O2"
_cell_formula_units_Z 80
_cell_length_a 8.416402
_cell_length_b 19.233870
_cell_length_c 26.699385
_cell_angle_alpha 90.000000
_cell_angle_beta 90.000000
_cell_angle_gamma 90.000000
_cell_volume 4322.095961
_symmetry_space_group_name_H-M "C M M M"
_symmetry_group_IT_number 65
_symmetry_cell_setting 'orthorhombic'
loop_
_space_group_symop_operation_xyz
x,y,z
-x,-y,z
x,-y,-z
-x,y,-z
-x,-y,-z
x,y,-z
-x,y,z
x,-y,z
1/2+x,1/2+y,z
1/2-x,1/2-y,z
1/2+x,1/2-y,-z
1/2-x,1/2+y,-z
1/2-x,1/2-y,-z
1/2+x,1/2+y,-z
1/2-x,1/2+y,z
1/2+x,1/2-y,z
loop_
_atom_site_type_symbol
_atom_site_label
_atom_site_fract_x
_atom_site_fract_y
_atom_site_fract_z
Si Si1 0.808414 0.829539 0.500000
Si Si2 0.692417 0.670474 0.390474
Si Si3 0.309226 0.671889 0.093840
Si Si4 0.305911 0.420409 0.000000
Si Si5 0.189028 0.671630 0.204309
Si Si6 0.807698 0.920025 0.704136
O O1 0.750000 0.750000 0.500000
O O2 0.756539 0.857226 0.445602
O O3 0.000000 0.831187 0.500000
O O4 0.500000 0.671721 0.389749
O O5 0.750000 0.750000 0.384620
O O6 0.747167 0.622585 0.344818
O O7 0.500000 0.672668 0.095172
O O8 0.250000 0.750000 0.083507
O O9 0.255701 0.620741 0.049745
O O10 0.247862 0.651733 0.148797
O O11 0.252655 0.500000 0.000000
O O12 0.500000 0.420481 0.000000
O O13 0.250000 0.750000 0.214334
O O14 0.251658 0.619838 0.246458
O O15 0.000000 0.672914 0.204712
O O16 0.000000 0.919841 0.703688
O O17 0.754339 0.000000 0.703239
#
# Coordination Sequence:
#
# PCOD9487351 Si02
#       6
#     8  16  16   8  16  16
#     4   8  14  26  45  71  99 125 161 208 255 300
#     4   9  17  30  50  74  99 130 168 211 256 304
#     4  10  19  34  57  81 106 136 171 212 256 303
#     4   9  19  34  53  79 108 139 174 208 248 301
#     4  11  22  37  57  80 105 134 174 219 263 310
#     4  10  21  36  52  73 104 140 175 212 259 312
#
# _framework density 18.509537999999999
#
# number of rings (size 3 to 8) (size 9 to 14) (size 15 to 20)
#    0.000    2.300    0.000    4.500    0.000    3.600 
#    0.000    4.000    0.000    7.200    0.000    0.000 
#    0.000    9.600    0.000    0.000    0.000    0.000 
#
# Total GULP energy -223167.623374 kJ/mol
# GULP energy per Si atom -5579.190584 kJ/mol
# Density = 1.846741 g / cm^3
# Si number density = 18.509538 Si / 1000 Ang^3
#
#
#
# Elastic Constant Matrix: (Units=GPa)
#
#
# Indices 1 2 3 4 5 6 
#
# 1 31.5325 22.1064 26.8870 0.0000 0.0000 0.0000
# 2 22.1064 122.8693 135.5416 0.0000 0.0000 0.0000
# 3 26.8870 135.5416 208.3287 0.0000 0.0000 0.0000
# 4 0.0000 0.0000 0.0000 1.3646 0.0000 0.0000
# 5 0.0000 0.0000 0.0000 0.0000 -9.2056 0.0000
# 6 0.0000 0.0000 0.0000 0.0000 0.0000 21.0988
#
#
#
# Elastic Compliance Matrix: (Units=1/GPa)
#
#
# Indices 1 2 3 4 5 6 
#
# 1 0.036431 -0.004846 -0.001549 0.000000 0.000000 0.000000
# 2 -0.004846 0.029476 -0.018552 0.000000 0.000000 0.000000
# 3 -0.001549 -0.018552 0.017070 0.000000 0.000000 0.000000
# 4 0.000000 0.000000 0.000000 0.732822 0.000000 0.000000
# 5 0.000000 0.000000 0.000000 0.000000 -0.108630 0.000000
# 6 0.000000 0.000000 0.000000 0.000000 0.000000 0.047396
#
#
# Mechanical properties :
#
#
# Convention : Reuss Voigt Hill
#
# Bulk Modulus (GPa) = 30.22631 81.31117 55.76874
# Shear Modulus (GPa) = 6.13130 14.53126 10.33128
#
# Velocity S-wave (km/s) = 1.82200 2.80495 2.36510
# Velocity P-wave (km/s) = 4.55981 7.38343 6.13624
#
# Compressibility (1/GPa) = 0.03308376
#
# Stress axis : x y z
#
# Youngs Moduli (GPa) = 27.44881 33.92565 58.58099
#
# Poissons Ratio (x) = 0.16440 0.09075
# Poissons Ratio (y) = 0.13301 1.08681
# Poissons Ratio (z) = 0.04252 0.62940
#
# Static dielectric constant tensor:
#      x y z
#    x 1.637950 0.000000 0.000000 
#    y 0.000000 1.599010 0.000000 
#    z 0.000000 0.000000 1.656970 
# 
# From -- ./inp_files/72948.got.cif
#   From: 2010.05.17/outbox.cif.g08.bks.cpg/sg65_37_cif.got.tgz:72948.got - 2010.06.03 17:01:31.
