data_PCOD9487903
_publ_section_title
;
Structure prediction by ZEFSAII (Michael W. Deem and Ramdas Pophale) SiO2 
 PCOD9487903
Probable space group: C M M M
;
_chemical_formula_sum "Si O2"
_cell_formula_units_Z 96
_cell_length_a 15.365187
_cell_length_b 14.373043
_cell_length_c 23.202901
_cell_angle_alpha 90.000000
_cell_angle_beta 90.000000
_cell_angle_gamma 90.000000
_cell_volume 5124.232918
_symmetry_space_group_name_H-M "C M M M"
_symmetry_group_IT_number 65
_symmetry_cell_setting 'orthorhombic'
loop_
_space_group_symop_operation_xyz
x,y,z
-x,-y,z
x,-y,-z
-x,y,-z
-x,-y,-z
x,y,-z
-x,y,z
x,-y,z
1/2+x,1/2+y,z
1/2-x,1/2-y,z
1/2+x,1/2-y,-z
1/2-x,1/2+y,-z
1/2-x,1/2-y,-z
1/2+x,1/2+y,-z
1/2-x,1/2+y,z
1/2+x,1/2-y,z
loop_
_atom_site_type_symbol
_atom_site_label
_atom_site_fract_x
_atom_site_fract_y
_atom_site_fract_z
Si Si1 0.396637 0.252405 0.569217
Si Si2 0.247421 0.388542 0.385983
Si Si3 0.719935 0.142604 0.064875
Si Si4 0.635723 0.400366 0.845927
Si Si5 0.721699 0.105343 0.748763
Si Si6 0.595100 0.809694 0.162975
O O1 0.397367 0.256860 0.500000
O O2 0.500000 0.251761 0.587831
O O3 0.335864 0.337906 0.591930
O O4 0.338083 0.162484 0.587463
O O5 0.248520 0.500000 0.396949
O O6 0.240537 0.372638 0.317204
O O7 0.750000 0.250000 0.061491
O O8 0.797472 0.097062 0.100599
O O9 0.637682 0.141323 0.107367
O O10 0.705807 0.109160 0.000000
O O11 0.589907 0.500000 0.845647
O O12 0.691748 0.395403 0.787291
O O13 0.591214 0.300520 0.849611
O O14 0.656737 0.172750 0.782421
O O15 0.685317 0.000000 0.751211
O O16 0.500000 0.846483 0.174828
#
# Coordination Sequence:
#
# PCOD9487903 Si02
#       6
#    16  16  16  16  16  16
#     4  10  23  40  59  90 127 157 191 241 296 346
#     4  10  21  38  63  88 114 157 205 243 287 347
#     4   8  15  30  50  68  92 133 182 223 261 315
#     4   9  18  32  50  73 102 137 177 217 263 322
#     4   9  19  36  55  75 102 136 180 229 272 321
#     4  10  20  31  49  77 108 141 172 218 283 336
#
# _framework density 18.734511999999999
#
# number of rings (size 3 to 8) (size 9 to 14) (size 15 to 20)
#    0.000    2.667    0.000    2.500    4.667    4.000 
#    0.000    3.333    0.000    3.000    0.000    9.333 
#    0.000    0.000    0.000    0.000    0.000    0.000 
#
# Total GULP energy -267217.589261 kJ/mol
# GULP energy per Si atom -5567.033110 kJ/mol
# Density = 1.869187 g / cm^3
# Si number density = 18.734512 Si / 1000 Ang^3
#
#
#
# Elastic Constant Matrix: (Units=GPa)
#
#
# Indices 1 2 3 4 5 6 
#
# 1 141.0176 50.5691 52.8081 0.0000 0.0000 0.0000
# 2 50.5691 113.9875 37.8989 0.0000 0.0000 0.0000
# 3 52.8081 37.8989 124.6850 0.0000 0.0000 0.0000
# 4 0.0000 0.0000 0.0000 46.7918 0.0000 0.0000
# 5 0.0000 0.0000 0.0000 0.0000 -3.0839 0.0000
# 6 0.0000 0.0000 0.0000 0.0000 0.0000 -2.1201
#
#
#
# Elastic Compliance Matrix: (Units=1/GPa)
#
#
# Indices 1 2 3 4 5 6 
#
# 1 0.009344 -0.003148 -0.003001 0.000000 0.000000 0.000000
# 2 -0.003148 0.010819 -0.001956 0.000000 0.000000 0.000000
# 3 -0.003001 -0.001956 0.009885 0.000000 0.000000 0.000000
# 4 0.000000 0.000000 0.000000 0.021371 0.000000 0.000000
# 5 0.000000 0.000000 0.000000 0.000000 -0.324265 0.000000
# 6 0.000000 0.000000 0.000000 0.000000 0.000000 -0.471672
#
#
# Mechanical properties :
#
#
# Convention : Reuss Voigt Hill
#
# Bulk Modulus (GPa) = 72.24837 73.58246 72.91542
# Shear Modulus (GPa) = -6.90898 24.21183 8.65142
#
# Velocity S-wave (km/s) = -1.92246 3.59885 2.15126
# Velocity P-wave (km/s) = 5.80691 7.52533 6.72127
#
# Compressibility (1/GPa) = 0.01384114
#
# Stress axis : x y z
#
# Youngs Moduli (GPa) = 107.02389 92.42604 101.15843
#
# Poissons Ratio (x) = 0.29092 0.30354
# Poissons Ratio (y) = 0.33686 0.19782
# Poissons Ratio (z) = 0.32114 0.18074
#
# Static dielectric constant tensor:
#      x y z
#    x 1.638930 0.000000 0.000000 
#    y 0.000000 1.718740 0.000000 
#    z 0.000000 0.000000 1.625740 
# 
# From -- ./inp_files/62573.got.cif
#   From: 2010.05.17/outbox.cif.g08.bks.cpg/sg65_32_cif.got.tgz:62573.got - 2010.06.03 17:01:31.
