data_PCOD9487331
_publ_section_title
;
Structure prediction by ZEFSAII (Michael W. Deem and Ramdas Pophale) SiO2 
 PCOD9487331
Probable space group: C M M M
;
_chemical_formula_sum "Si O2"
_cell_formula_units_Z 88
_cell_length_a 7.934153
_cell_length_b 18.740132
_cell_length_c 31.370892
_cell_angle_alpha 90.000000
_cell_angle_beta 90.000000
_cell_angle_gamma 90.000000
_cell_volume 4664.446157
_symmetry_space_group_name_H-M "C M M M"
_symmetry_group_IT_number 65
_symmetry_cell_setting 'orthorhombic'
loop_
_space_group_symop_operation_xyz
x,y,z
-x,-y,z
x,-y,-z
-x,y,-z
-x,-y,-z
x,y,-z
-x,y,z
x,-y,z
1/2+x,1/2+y,z
1/2-x,1/2-y,z
1/2+x,1/2-y,-z
1/2-x,1/2+y,-z
1/2-x,1/2-y,-z
1/2+x,1/2+y,-z
1/2-x,1/2+y,z
1/2+x,1/2-y,z
loop_
_atom_site_type_symbol
_atom_site_label
_atom_site_fract_x
_atom_site_fract_y
_atom_site_fract_z
Si Si1 0.200649 0.667917 0.452830
Si Si2 0.299351 0.832918 0.287267
Si Si3 0.204995 0.665288 0.100081
Si Si4 0.800371 0.079297 0.629672
Si Si5 0.000000 0.915636 0.051032
Si Si6 0.201896 0.333356 0.195293
O O1 0.267901 0.647577 0.500000
O O2 0.250000 0.750000 0.445085
O O3 0.255478 0.619700 0.413715
O O4 0.000000 0.664534 0.454626
O O5 0.500000 0.835451 0.285278
O O6 0.250000 0.750000 0.291989
O O7 0.246848 0.876812 0.328357
O O8 0.233358 0.860976 0.241113
O O9 0.250000 0.750000 0.096966
O O10 0.331028 0.622376 0.069363
O O11 0.252089 0.640285 0.148486
O O12 0.000000 0.657085 0.093755
O O13 0.000000 0.073450 0.630200
O O14 0.724400 0.000000 0.630562
O O15 0.000000 0.000000 0.061818
O O16 0.000000 0.908747 0.000000
O O17 0.250000 0.250000 0.195698
O O18 0.000000 0.339401 0.195629
#
# Coordination Sequence:
#
# PCOD9487331 Si02
#       6
#    16  16  16  16   8  16
#     4  10  21  38  61  85 106 133 173 221 273 331
#     4  10  19  34  56  83 112 146 184 229 277 333
#     4  10  19  38  65  95 124 159 207 264 313 368
#     4  11  24  39  53  74 109 148 185 225 272 327
#     4  11  26  44  60  88 129 169 211 257 315 381
#     4   8  16  29  53  86 115 143 185 236 290 339
#
# _framework density 18.866119000000001
#
# number of rings (size 3 to 8) (size 9 to 14) (size 15 to 20)
#    0.000    2.091    0.909    2.182    1.273    4.727 
#    0.000    3.636    0.000    3.273    0.000    0.000 
#    0.000    0.000    0.000    0.000    0.000    0.000 
#
# Total GULP energy -245191.268897 kJ/mol
# GULP energy per Si atom -5572.528839 kJ/mol
# Density = 1.882318 g / cm^3
# Si number density = 18.866119 Si / 1000 Ang^3
#
#
#
# Elastic Constant Matrix: (Units=GPa)
#
#
# Indices 1 2 3 4 5 6 
#
# 1 79.6390 35.1209 51.6589 0.0000 0.0000 0.0000
# 2 35.1209 87.8736 89.4503 0.0000 0.0000 0.0000
# 3 51.6589 89.4503 178.4290 0.0000 0.0000 0.0000
# 4 0.0000 0.0000 0.0000 -27.2955 0.0000 0.0000
# 5 0.0000 0.0000 0.0000 0.0000 153.9096 0.0000
# 6 0.0000 0.0000 0.0000 0.0000 0.0000 17.7845
#
#
#
# Elastic Compliance Matrix: (Units=1/GPa)
#
#
# Indices 1 2 3 4 5 6 
#
# 1 0.015947 -0.003418 -0.002903 0.000000 0.000000 0.000000
# 2 -0.003418 0.023972 -0.011028 0.000000 0.000000 0.000000
# 3 -0.002903 -0.011028 0.011974 0.000000 0.000000 0.000000
# 4 0.000000 0.000000 0.000000 -0.036636 0.000000 0.000000
# 5 0.000000 0.000000 0.000000 0.000000 0.006497 0.000000
# 6 0.000000 0.000000 0.000000 0.000000 0.000000 0.056229
#
#
# Mechanical properties :
#
#
# Convention : Reuss Voigt Hill
#
# Bulk Modulus (GPa) = 58.16083 77.60020 67.88052
# Shear Modulus (GPa) = 42.22462 40.19381 41.20921
#
# Velocity S-wave (km/s) = 4.73601 4.62072 4.67872
# Velocity P-wave (km/s) = 7.79753 8.34801 8.07746
#
# Compressibility (1/GPa) = 0.01719370
#
# Stress axis : x y z
#
# Youngs Moduli (GPa) = 62.70576 41.71501 83.51610
#
# Poissons Ratio (x) = 0.14259 0.24249
# Poissons Ratio (y) = 0.21434 0.92103
# Poissons Ratio (z) = 0.18207 0.46004
#
# Static dielectric constant tensor:
#      x y z
#    x 1.653690 0.000000 0.000000 
#    y 0.000000 1.461210 0.000000 
#    z 0.000000 0.000000 1.731060 
# 
# From -- ./inp_files/76568.got.cif
#   From: 2010.05.17/outbox.cif.g08.bks.cpg/sg65_39_cif.got.tgz:76568.got - 2010.06.03 17:01:31.
