data_PCOD9487945
_publ_section_title
;
Structure prediction by ZEFSAII (Michael W. Deem and Ramdas Pophale) SiO2 
 PCOD9487945
Probable space group: C M M M
;
_chemical_formula_sum "Si O2"
_cell_formula_units_Z 80
_cell_length_a 14.671234
_cell_length_b 34.195643
_cell_length_c 7.366350
_cell_angle_alpha 90.000000
_cell_angle_beta 90.000000
_cell_angle_gamma 90.000000
_cell_volume 3695.640928
_symmetry_space_group_name_H-M "C M M M"
_symmetry_group_IT_number 65
_symmetry_cell_setting 'orthorhombic'
loop_
_space_group_symop_operation_xyz
x,y,z
-x,-y,z
x,-y,-z
-x,y,-z
-x,-y,-z
x,y,-z
-x,y,z
x,-y,z
1/2+x,1/2+y,z
1/2-x,1/2-y,z
1/2+x,1/2-y,-z
1/2-x,1/2+y,-z
1/2-x,1/2-y,-z
1/2+x,1/2+y,-z
1/2-x,1/2+y,z
1/2+x,1/2-y,z
loop_
_atom_site_type_symbol
_atom_site_label
_atom_site_fract_x
_atom_site_fract_y
_atom_site_fract_z
Si Si1 0.399572 0.879329 0.214395
Si Si2 0.097533 0.047228 0.716334
Si Si3 0.204296 0.544502 0.281408
Si Si4 0.277347 0.189527 0.220807
Si Si5 0.395938 0.265303 0.220926
O O1 0.500000 0.871489 0.290239
O O2 0.371820 0.924259 0.235380
O O3 0.320702 0.850886 0.286118
O O4 0.404379 0.871185 0.000000
O O5 0.096420 0.054733 0.500000
O O6 0.196481 0.059567 0.786153
O O7 0.000000 0.061717 0.789408
O O8 0.097956 0.000000 0.738071
O O9 0.209931 0.542666 0.500000
O O10 0.188606 0.500000 0.218057
O O11 0.347410 0.224358 0.270350
O O12 0.175860 0.201455 0.280594
O O13 0.273225 0.189167 0.000000
O O14 0.500000 0.268641 0.283947
O O15 0.398656 0.265916 0.000000
#
# Coordination Sequence:
#
# PCOD9487945 Si02
#       5
#    16  16  16  16  16
#     4  10  20  32  45  62  88 121 152 184 227 276
#     4   7  10  20  41  65  83 100 128 168 212 257
#     4   9  18  32  49  68  88 112 148 193 231 262
#     4   8  14  24  38  59  87 116 145 177 214 259
#     4   8  12  20  38  62  86 113 145 179 213 252
#
# _framework density 21.647124000000002
#
# number of rings (size 3 to 8) (size 9 to 14) (size 15 to 20)
#    0.000    3.600    0.000    3.600    0.000    3.600 
#    0.000    3.000    0.000    1.800    0.000    5.600 
#    0.000    1.600    0.000    0.000    0.000    0.000 
#
# Total GULP energy -222878.791537 kJ/mol
# GULP energy per Si atom -5571.969788 kJ/mol
# Density = 2.159785 g / cm^3
# Si number density = 21.647124 Si / 1000 Ang^3
#
#
#
# Elastic Constant Matrix: (Units=GPa)
#
#
# Indices 1 2 3 4 5 6 
#
# 1 164.4916 57.0257 3.2234 0.0000 0.0000 0.0000
# 2 57.0257 79.7776 -5.1106 0.0000 0.0000 0.0000
# 3 3.2234 -5.1106 74.9294 0.0000 0.0000 0.0000
# 4 0.0000 0.0000 0.0000 7.1079 0.0000 0.0000
# 5 0.0000 0.0000 0.0000 0.0000 -4.9485 0.0000
# 6 0.0000 0.0000 0.0000 0.0000 0.0000 17.3160
#
#
#
# Elastic Compliance Matrix: (Units=1/GPa)
#
#
# Indices 1 2 3 4 5 6 
#
# 1 0.008124 -0.005855 -0.000749 0.000000 0.000000 0.000000
# 2 -0.005855 0.016810 0.001398 0.000000 0.000000 0.000000
# 3 -0.000749 0.001398 0.013473 0.000000 0.000000 0.000000
# 4 0.000000 0.000000 0.000000 0.140688 0.000000 0.000000
# 5 0.000000 0.000000 0.000000 0.000000 -0.202080 0.000000
# 6 0.000000 0.000000 0.000000 0.000000 0.000000 0.057750
#
#
# Mechanical properties :
#
#
# Convention : Reuss Voigt Hill
#
# Bulk Modulus (GPa) = 35.71922 47.71952 41.71937
# Shear Modulus (GPa) = 91.72974 21.49908 56.61441
#
# Velocity S-wave (km/s) = 6.51667 3.15486 5.11958
# Velocity P-wave (km/s) = 8.55331 5.94668 7.36621
#
# Compressibility (1/GPa) = 0.02799613
#
# Stress axis : x y z
#
# Youngs Moduli (GPa) = 123.09529 59.48986 74.21984
#
# Poissons Ratio (x) = 0.34831 0.05558
# Poissons Ratio (y) = 0.72071 -0.10379
# Poissons Ratio (z) = 0.09218 -0.08319
#
# Static dielectric constant tensor:
#      x y z
#    x 1.828360 0.000000 0.000000 
#    y 0.000000 1.758460 0.000000 
#    z 0.000000 0.000000 1.876940 
# 
# From -- ./inp_files/24990.got.cif
#   From: 2010.05.17/outbox.cif.g08.bks.cpg/sg65_13_cif.got.tgz:24990.got - 2010.06.03 17:01:31.
