data_PCOD9487858
_publ_section_title
;
Structure prediction by ZEFSAII (Michael W. Deem and Ramdas Pophale) SiO2 
 PCOD9487858
Probable space group: C M M M
;
_chemical_formula_sum "Si O2"
_cell_formula_units_Z 88
_cell_length_a 20.676680
_cell_length_b 27.251917
_cell_length_c 9.414251
_cell_angle_alpha 90.000000
_cell_angle_beta 90.000000
_cell_angle_gamma 90.000000
_cell_volume 5304.734313
_symmetry_space_group_name_H-M "C M M M"
_symmetry_group_IT_number 65
_symmetry_cell_setting 'orthorhombic'
loop_
_space_group_symop_operation_xyz
x,y,z
-x,-y,z
x,-y,-z
-x,y,-z
-x,-y,-z
x,y,-z
-x,y,z
x,-y,z
1/2+x,1/2+y,z
1/2-x,1/2-y,z
1/2+x,1/2-y,-z
1/2-x,1/2+y,-z
1/2-x,1/2-y,-z
1/2+x,1/2+y,-z
1/2-x,1/2+y,z
1/2+x,1/2-y,z
loop_
_atom_site_type_symbol
_atom_site_label
_atom_site_fract_x
_atom_site_fract_y
_atom_site_fract_z
Si Si1 0.128421 0.170207 0.169449
Si Si2 0.358243 0.941693 0.329293
Si Si3 0.873010 0.286153 0.832447
Si Si4 0.000000 0.440463 0.333782
Si Si5 0.268029 0.867742 0.169725
Si Si6 0.500000 0.669038 0.336652
Si Si7 0.000000 0.288439 0.662281
O O1 0.138769 0.228506 0.195967
O O2 0.193783 0.142000 0.209345
O O3 0.064989 0.154110 0.254598
O O4 0.117801 0.164867 0.000000
O O5 0.356301 0.934422 0.500000
O O6 0.430018 0.925483 0.275411
O O7 0.302916 0.911205 0.252846
O O8 0.351851 0.000000 0.304119
O O9 0.810481 0.318893 0.802131
O O10 0.934781 0.303211 0.742535
O O11 0.888098 0.290588 0.000000
O O12 0.000000 0.500000 0.329861
O O13 0.000000 0.426830 0.500000
O O14 0.270406 0.876432 0.000000
O O15 0.500000 0.653019 0.500000
O O16 0.500000 0.728782 0.335777
O O17 0.000000 0.305177 0.500000
#
# Coordination Sequence:
#
# PCOD9487858 Si02
#       7
#    16  16  16   8  16   8   8
#     4   9  17  31  49  67  91 125 158 186 224 276
#     4   9  18  33  51  69  91 122 158 193 232 278
#     4   9  17  30  46  64  91 126 160 192 226 268
#     4   7  12  27  49  66  82 113 157 194 221 260
#     4  10  20  31  46  70  95 120 154 194 233 272
#     4   9  17  29  46  68  92 118 153 195 229 263
#     4   9  17  28  42  63  91 124 161 196 229 264
#
# _framework density 16.588954999999999
#
# number of rings (size 3 to 8) (size 9 to 14) (size 15 to 20)
#    0.000    3.000    0.000    2.182    0.000    6.909 
#    0.000    2.273    0.000    7.091    0.000    0.636 
#    0.000    5.091    0.000    0.000    0.000    0.000 
#
# Total GULP energy -245224.626059 kJ/mol
# GULP energy per Si atom -5573.286956 kJ/mol
# Density = 1.655120 g / cm^3
# Si number density = 16.588955 Si / 1000 Ang^3
#
#
#
# Elastic Constant Matrix: (Units=GPa)
#
#
# Indices 1 2 3 4 5 6 
#
# 1 186.6426 57.2697 76.4098 0.0000 0.0000 0.0000
# 2 57.2697 49.6504 32.6056 0.0000 0.0000 0.0000
# 3 76.4098 32.6056 45.8651 0.0000 0.0000 0.0000
# 4 0.0000 0.0000 0.0000 18.5344 0.0000 0.0000
# 5 0.0000 0.0000 0.0000 0.0000 23.7021 0.0000
# 6 0.0000 0.0000 0.0000 0.0000 0.0000 -29.5101
#
#
#
# Elastic Compliance Matrix: (Units=1/GPa)
#
#
# Indices 1 2 3 4 5 6 
#
# 1 0.016944 -0.001888 -0.026886 0.000000 0.000000 0.000000
# 2 -0.001888 0.037988 -0.023860 0.000000 0.000000 0.000000
# 3 -0.026886 -0.023860 0.083556 0.000000 0.000000 0.000000
# 4 0.000000 0.000000 0.000000 0.053954 0.000000 0.000000
# 5 0.000000 0.000000 0.000000 0.000000 0.042190 0.000000
# 6 0.000000 0.000000 0.000000 0.000000 0.000000 -0.033887
#
#
# Mechanical properties :
#
#
# Convention : Reuss Voigt Hill
#
# Bulk Modulus (GPa) = 30.10235 68.30314 49.20274
# Shear Modulus (GPa) = 15.76855 10.27014 13.01934
#
# Velocity S-wave (km/s) = 3.08644 2.49086 2.80450
# Velocity P-wave (km/s) = 5.55759 7.03817 6.34124
#
# Compressibility (1/GPa) = 0.03322000
#
# Stress axis : x y z
#
# Youngs Moduli (GPa) = 59.01764 26.32433 11.96797
#
# Poissons Ratio (x) = 0.04971 0.32177
# Poissons Ratio (y) = 0.11144 0.28555
# Poissons Ratio (z) = 1.58675 0.62809
#
# Static dielectric constant tensor:
#      x y z
#    x 1.556500 0.000000 0.000000 
#    y 0.000000 1.552810 0.000000 
#    z 0.000000 0.000000 1.551660 
# 
# From -- ./inp_files/10201.got.cif
#   From: 2010.05.17/outbox.cif.g08.bks.cpg/sg65_6_cif.got.tgz:10201.got - 2010.06.03 17:01:31.
