data_PCOD9487564
_publ_section_title
;
Structure prediction by ZEFSAII (Michael W. Deem and Ramdas Pophale) SiO2 
 PCOD9487564
Probable space group: C M M M
;
_chemical_formula_sum "Si O2"
_cell_formula_units_Z 88
_cell_length_a 8.609746
_cell_length_b 26.363685
_cell_length_c 21.385646
_cell_angle_alpha 90.000000
_cell_angle_beta 90.000000
_cell_angle_gamma 90.000000
_cell_volume 4854.212976
_symmetry_space_group_name_H-M "C M M M"
_symmetry_group_IT_number 65
_symmetry_cell_setting 'orthorhombic'
loop_
_space_group_symop_operation_xyz
x,y,z
-x,-y,z
x,-y,-z
-x,y,-z
-x,-y,-z
x,y,-z
-x,y,z
x,-y,z
1/2+x,1/2+y,z
1/2-x,1/2-y,z
1/2+x,1/2-y,-z
1/2-x,1/2+y,-z
1/2-x,1/2-y,-z
1/2+x,1/2+y,-z
1/2-x,1/2+y,z
1/2+x,1/2-y,z
loop_
_atom_site_type_symbol
_atom_site_label
_atom_site_fract_x
_atom_site_fract_y
_atom_site_fract_z
Si Si1 0.686870 0.000000 0.141477
Si Si2 0.186524 0.694588 0.149231
Si Si3 0.186347 0.900413 0.072861
Si Si4 0.312960 0.195092 0.705549
Si Si5 0.311798 0.096069 0.631204
Si Si6 0.186087 0.059145 0.500000
Si Si7 0.311058 0.000000 0.714284
O O1 0.746972 0.050121 0.107040
O O2 0.500000 0.000000 0.140750
O O3 0.739697 0.000000 0.213872
O O4 0.250000 0.750000 0.131127
O O5 0.252596 0.649942 0.106813
O O6 0.232671 0.685875 0.221995
O O7 0.000000 0.694636 0.145936
O O8 0.000000 0.901670 0.076169
O O9 0.232421 0.900648 0.000000
O O10 0.500000 0.196526 0.704230
O O11 0.250000 0.250000 0.686694
O O12 0.261062 0.149166 0.661544
O O13 0.500000 0.095729 0.628925
O O14 0.248387 0.085590 0.562421
O O15 0.262152 0.049973 0.676526
O O16 0.000000 0.060048 0.500000
O O17 0.237354 0.000000 0.500000
O O18 0.500000 0.000000 0.715000
#
# Coordination Sequence:
#
# PCOD9487564 Si02
#       7
#     8  16  16  16  16   8   8
#     4  11  22  38  60  85 112 144 185 234 287 340
#     4  10  20  37  61  87 115 145 184 234 286 336
#     4  11  24  40  56  78 112 152 192 233 279 336
#     4   9  19  35  57  85 113 143 182 227 273 327
#     4  10  19  35  59  82 107 145 187 219 263 326
#     4  11  23  37  52  79 118 147 178 224 273 320
#     4   9  18  33  57  85 109 134 175 230 275 325
#
# _framework density 18.128582999999999
#
# number of rings (size 3 to 8) (size 9 to 14) (size 15 to 20)
#    0.000    1.909    0.909    3.000    0.000    7.636 
#    0.000    4.091    0.000    0.000    0.000    0.000 
#    0.000    0.000    0.000    0.000    0.000    0.000 
#
# Total GULP energy -245793.239844 kJ/mol
# GULP energy per Si atom -5586.209996 kJ/mol
# Density = 1.808732 g / cm^3
# Si number density = 18.128583 Si / 1000 Ang^3
#
#
#
# Elastic Constant Matrix: (Units=GPa)
#
#
# Indices 1 2 3 4 5 6 
#
# 1 32.0866 41.4721 41.6921 0.0000 0.0000 0.0000
# 2 41.4721 194.9098 136.5364 0.0000 0.0000 0.0000
# 3 41.6921 136.5364 174.3648 0.0000 0.0000 0.0000
# 4 0.0000 0.0000 0.0000 -62.5643 0.0000 0.0000
# 5 0.0000 0.0000 0.0000 0.0000 17.8305 0.0000
# 6 0.0000 0.0000 0.0000 0.0000 0.0000 34.1507
#
#
#
# Elastic Compliance Matrix: (Units=1/GPa)
#
#
# Indices 1 2 3 4 5 6 
#
# 1 0.047097 -0.004723 -0.007563 0.000000 0.000000 0.000000
# 2 -0.004723 0.011838 -0.008140 0.000000 0.000000 0.000000
# 3 -0.007563 -0.008140 0.013918 0.000000 0.000000 0.000000
# 4 0.000000 0.000000 0.000000 -0.015984 0.000000 0.000000
# 5 0.000000 0.000000 0.000000 0.000000 0.056084 0.000000
# 6 0.000000 0.000000 0.000000 0.000000 0.000000 0.029282
#
#
# Mechanical properties :
#
#
# Convention : Reuss Voigt Hill
#
# Bulk Modulus (GPa) = 31.24989 93.41805 62.33397
# Shear Modulus (GPa) = 25.80583 9.99409 17.89996
#
# Velocity S-wave (km/s) = 3.77701 2.35050 3.14568
# Velocity P-wave (km/s) = 6.02465 7.68174 6.90310
#
# Compressibility (1/GPa) = 0.03200011
#
# Stress axis : x y z
#
# Youngs Moduli (GPa) = 21.23263 84.47371 71.85092
#
# Poissons Ratio (x) = 0.39900 0.54339
# Poissons Ratio (y) = 0.10029 0.58489
# Poissons Ratio (z) = 0.16058 0.68764
#
# Static dielectric constant tensor:
#      x y z
#    x 1.617030 0.000000 0.000000 
#    y 0.000000 1.592750 0.000000 
#    z 0.000000 0.000000 1.598530 
# 
# From -- ./inp_files/59874.got.cif
#   From: 2010.05.17/outbox.cif.g08.bks.cpg/sg65_30_cif.got.tgz:59874.got - 2010.06.03 17:01:31.
