data_PCOD9487635
_publ_section_title
;
Structure prediction by ZEFSAII (Michael W. Deem and Ramdas Pophale) SiO2 
 PCOD9487635
Probable space group: C M M M
;
_chemical_formula_sum "Si O2"
_cell_formula_units_Z 120
_cell_length_a 15.156053
_cell_length_b 31.529972
_cell_length_c 13.777198
_cell_angle_alpha 90.000000
_cell_angle_beta 90.000000
_cell_angle_gamma 90.000000
_cell_volume 6583.708599
_symmetry_space_group_name_H-M "C M M M"
_symmetry_group_IT_number 65
_symmetry_cell_setting 'orthorhombic'
loop_
_space_group_symop_operation_xyz
x,y,z
-x,-y,z
x,-y,-z
-x,y,-z
-x,-y,-z
x,y,-z
-x,y,z
x,-y,z
1/2+x,1/2+y,z
1/2-x,1/2-y,z
1/2+x,1/2-y,-z
1/2-x,1/2+y,-z
1/2-x,1/2-y,-z
1/2+x,1/2+y,-z
1/2-x,1/2+y,z
1/2+x,1/2-y,z
loop_
_atom_site_type_symbol
_atom_site_label
_atom_site_fract_x
_atom_site_fract_y
_atom_site_fract_z
Si Si1 0.331981 0.079027 0.276475
Si Si2 0.817841 0.876338 0.390038
Si Si3 0.265668 0.702389 0.888307
Si Si4 0.694880 0.793021 0.391663
Si Si5 0.398794 0.630904 0.189714
Si Si6 0.205454 0.951511 0.114098
Si Si7 0.897873 0.670770 0.790453
Si Si8 0.500000 0.049443 0.606528
O O1 0.253140 0.089355 0.351776
O O2 0.288675 0.054492 0.186121
O O3 0.370759 0.123307 0.237957
O O4 0.412565 0.059233 0.333502
O O5 0.847293 0.884284 0.500000
O O6 0.764029 0.831987 0.388518
O O7 0.890387 0.874220 0.305995
O O8 0.250000 0.750000 0.848972
O O9 0.335372 0.670681 0.837880
O O10 0.169010 0.682580 0.875690
O O11 0.292641 0.705834 0.000000
O O12 0.653968 0.793215 0.500000
O O13 0.750000 0.750000 0.380902
O O14 0.627461 0.801063 0.304193
O O15 0.500000 0.637677 0.160465
O O16 0.359411 0.587585 0.142546
O O17 0.170829 0.000000 0.127464
O O18 0.227850 0.946981 0.000000
O O19 0.000000 0.674768 0.813959
O O20 0.500000 0.071200 0.500000
O O21 0.500000 0.000000 0.592579
#
# Coordination Sequence:
#
# PCOD9487635 Si02
#       8
#    16  16  16  16  16  16  16   8
#     4  10  19  36  55  83 115 155 197 238 289 349
#     4   9  18  34  56  80 111 152 191 230 282 344
#     4  11  24  43  62  82 115 155 199 248 296 352
#     4   9  17  32  53  77 112 152 189 235 290 342
#     4  11  23  39  63  91 120 154 194 242 301 361
#     4  10  21  39  64  89 116 151 192 243 303 363
#     4  11  21  35  57  85 113 150 195 240 289 340
#     4  11  22  34  53  83 119 157 202 252 293 347
#
# _framework density 18.22681
#
# number of rings (size 3 to 8) (size 9 to 14) (size 15 to 20)
#    0.000    1.800    4.667    1.600    0.000    3.200 
#    0.000    2.333    0.000    7.200    0.000    3.733 
#    0.000    0.000    0.000    0.000    0.000    0.000 
#
# Total GULP energy -334346.174776 kJ/mol
# GULP energy per Si atom -5572.436246 kJ/mol
# Density = 1.818533 g / cm^3
# Si number density = 18.226810 Si / 1000 Ang^3
#
#
#
# Elastic Constant Matrix: (Units=GPa)
#
#
# Indices 1 2 3 4 5 6 
#
# 1 97.2929 36.0951 27.8778 0.0000 0.0000 0.0000
# 2 36.0951 102.4196 38.9925 0.0000 0.0000 0.0000
# 3 27.8778 38.9925 109.3040 0.0000 0.0000 0.0000
# 4 0.0000 0.0000 0.0000 8.5958 0.0000 0.0000
# 5 0.0000 0.0000 0.0000 0.0000 9.3951 0.0000
# 6 0.0000 0.0000 0.0000 0.0000 0.0000 10.8578
#
#
#
# Elastic Compliance Matrix: (Units=1/GPa)
#
#
# Indices 1 2 3 4 5 6 
#
# 1 0.012128 -0.003583 -0.001815 0.000000 0.000000 0.000000
# 2 -0.003583 0.012357 -0.003494 0.000000 0.000000 0.000000
# 3 -0.001815 -0.003494 0.010858 0.000000 0.000000 0.000000
# 4 0.000000 0.000000 0.000000 0.116336 0.000000 0.000000
# 5 0.000000 0.000000 0.000000 0.000000 0.106439 0.000000
# 6 0.000000 0.000000 0.000000 0.000000 0.000000 0.092100
#
#
# Mechanical properties :
#
#
# Convention : Reuss Voigt Hill
#
# Bulk Modulus (GPa) = 56.95368 57.21637 57.08502
# Shear Modulus (GPa) = 13.37417 19.50646 16.44032
#
# Velocity S-wave (km/s) = 2.71175 3.27495 3.00657
# Velocity P-wave (km/s) = 6.41247 6.76460 6.59089
#
# Compressibility (1/GPa) = 0.01755813
#
# Stress axis : x y z
#
# Youngs Moduli (GPa) = 82.45669 80.92688 92.09622
#
# Poissons Ratio (x) = 0.28997 0.16715
# Poissons Ratio (y) = 0.29545 0.32181
# Poissons Ratio (z) = 0.14965 0.28278
#
# Static dielectric constant tensor:
#      x y z
#    x 1.585570 0.000000 0.000000 
#    y 0.000000 1.680820 0.000000 
#    z 0.000000 0.000000 1.670980 
# 
# From -- ./inp_files/41433.got.cif
#   From: 2010.05.17/outbox.cif.g08.bks.cpg/sg65_21_cif.got.tgz:41433.got - 2010.06.03 17:01:31.
