data_PCOD9487086
_publ_section_title
;
Structure prediction by ZEFSAII (Michael W. Deem and Ramdas Pophale) SiO2 
 PCOD9487086
Probable space group: C M M M
;
_chemical_formula_sum "Si O2"
_cell_formula_units_Z 72
_cell_length_a 15.579018
_cell_length_b 9.037425
_cell_length_c 27.231355
_cell_angle_alpha 90.000000
_cell_angle_beta 90.000000
_cell_angle_gamma 90.000000
_cell_volume 3834.017026
_symmetry_space_group_name_H-M "C M M M"
_symmetry_group_IT_number 65
_symmetry_cell_setting 'orthorhombic'
loop_
_space_group_symop_operation_xyz
x,y,z
-x,-y,z
x,-y,-z
-x,y,-z
-x,-y,-z
x,y,-z
-x,y,z
x,-y,z
1/2+x,1/2+y,z
1/2-x,1/2-y,z
1/2+x,1/2-y,-z
1/2-x,1/2+y,-z
1/2-x,1/2-y,-z
1/2+x,1/2+y,-z
1/2-x,1/2+y,z
1/2+x,1/2-y,z
loop_
_atom_site_type_symbol
_atom_site_label
_atom_site_fract_x
_atom_site_fract_y
_atom_site_fract_z
Si Si1 0.395108 0.670481 0.500000
Si Si2 0.500000 0.677433 0.769066
Si Si3 0.104182 0.672306 0.600711
Si Si4 0.500000 0.178833 0.124473
Si Si5 0.341268 0.177979 0.056694
Si Si6 0.661766 0.322833 0.299034
O O1 0.367107 0.500000 0.500000
O O2 0.500000 0.670751 0.500000
O O3 0.368339 0.754402 0.549409
O O4 0.500000 0.500000 0.775656
O O5 0.500000 0.754888 0.821456
O O6 0.583644 0.716429 0.737069
O O7 0.128882 0.500000 0.602689
O O8 0.140804 0.759438 0.647098
O O9 0.000000 0.680051 0.602969
O O10 0.416075 0.224338 0.093592
O O11 0.500000 0.000000 0.127141
O O12 0.250000 0.250000 0.068634
O O13 0.333738 0.000000 0.059003
O O14 0.362887 0.216300 0.000000
O O15 0.668955 0.500000 0.301294
O O16 0.750000 0.250000 0.281734
#
# Coordination Sequence:
#
# PCOD9487086 Si02
#       6
#     8   8  16   8  16  16
#     4   9  17  29  50  81 116 154 189 226 279 341
#     4  10  24  43  61  82 115 152 190 241 293 343
#     4  10  19  33  56  85 116 149 188 234 283 341
#     4  10  21  36  58  84 113 151 194 237 284 339
#     4   9  18  34  56  84 118 155 193 234 281 335
#     4  11  23  41  62  85 112 148 192 238 292 348
#
# _framework density 18.779260000000001
#
# number of rings (size 3 to 8) (size 9 to 14) (size 15 to 20)
#    0.000    2.111    1.111    2.000    0.000    7.111 
#    0.000    5.000    0.000    3.333    0.000    0.000 
#    0.000    0.000    0.000    0.000    0.000    0.000 
#
# Total GULP energy -201139.268303 kJ/mol
# GULP energy per Si atom -5587.201897 kJ/mol
# Density = 1.873652 g / cm^3
# Si number density = 18.779260 Si / 1000 Ang^3
#
#
#
# Elastic Constant Matrix: (Units=GPa)
#
#
# Indices 1 2 3 4 5 6 
#
# 1 130.2741 62.0815 104.6630 0.0000 0.0000 0.0000
# 2 62.0815 75.6036 64.9801 0.0000 0.0000 0.0000
# 3 104.6630 64.9801 167.9490 0.0000 0.0000 0.0000
# 4 0.0000 0.0000 0.0000 37.2816 0.0000 0.0000
# 5 0.0000 0.0000 0.0000 0.0000 -10.9487 0.0000
# 6 0.0000 0.0000 0.0000 0.0000 0.0000 29.0575
#
#
#
# Elastic Compliance Matrix: (Units=1/GPa)
#
#
# Indices 1 2 3 4 5 6 
#
# 1 0.017916 -0.007664 -0.008200 0.000000 0.000000 0.000000
# 2 -0.007664 0.023095 -0.004159 0.000000 0.000000 0.000000
# 3 -0.008200 -0.004159 0.012673 0.000000 0.000000 0.000000
# 4 0.000000 0.000000 0.000000 0.026823 0.000000 0.000000
# 5 0.000000 0.000000 0.000000 0.000000 -0.091335 0.000000
# 6 0.000000 0.000000 0.000000 0.000000 0.000000 0.034414
#
#
# Mechanical properties :
#
#
# Convention : Reuss Voigt Hill
#
# Bulk Modulus (GPa) = 73.32403 93.03065 83.17734
# Shear Modulus (GPa) = 73.33548 20.55157 46.94352
#
# Velocity S-wave (km/s) = 6.25588 3.31172 5.00518
# Velocity P-wave (km/s) = 9.55570 8.01685 8.81990
#
# Compressibility (1/GPa) = 0.01363809
#
# Stress axis : x y z
#
# Youngs Moduli (GPa) = 55.81536 43.29880 78.90524
#
# Poissons Ratio (x) = 0.33185 0.64700
# Poissons Ratio (y) = 0.42778 0.32820
# Poissons Ratio (z) = 0.45767 0.18010
#
# Static dielectric constant tensor:
#      x y z
#    x 1.663250 0.000000 0.000000 
#    y 0.000000 1.626520 0.000000 
#    z 0.000000 0.000000 1.610330 
# 
# From -- ./inp_files/72609.got.cif
#   From: 2010.05.17/outbox.cif.g08.bks.cpg/sg65_37_cif.got.tgz:72609.got - 2010.06.03 17:01:31.
