data_PCOD9487163
_publ_section_title
;
Structure prediction by ZEFSAII (Michael W. Deem and Ramdas Pophale) SiO2 
 PCOD9487163
Probable space group: C M M M
;
_chemical_formula_sum "Si O2"
_cell_formula_units_Z 72
_cell_length_a 17.912411
_cell_length_b 16.292941
_cell_length_c 14.202476
_cell_angle_alpha 90.000000
_cell_angle_beta 90.000000
_cell_angle_gamma 90.000000
_cell_volume 4144.933760
_symmetry_space_group_name_H-M "C M M M"
_symmetry_group_IT_number 65
_symmetry_cell_setting 'orthorhombic'
loop_
_space_group_symop_operation_xyz
x,y,z
-x,-y,z
x,-y,-z
-x,y,-z
-x,-y,-z
x,y,-z
-x,y,z
x,-y,z
1/2+x,1/2+y,z
1/2-x,1/2-y,z
1/2+x,1/2-y,-z
1/2-x,1/2+y,-z
1/2-x,1/2-y,-z
1/2+x,1/2+y,-z
1/2-x,1/2+y,z
1/2+x,1/2-y,z
loop_
_atom_site_type_symbol
_atom_site_label
_atom_site_fract_x
_atom_site_fract_y
_atom_site_fract_z
Si Si1 0.667758 0.832503 0.388042
Si Si2 0.588594 0.278927 0.757125
Si Si3 0.785059 0.095509 0.257142
Si Si4 0.417354 0.000000 0.386736
Si Si5 0.188178 0.322919 0.892981
O O1 0.674055 0.822396 0.500000
O O2 0.617920 0.763165 0.339142
O O3 0.747405 0.847785 0.338395
O O4 0.626194 0.917856 0.363893
O O5 0.500000 0.289022 0.758779
O O6 0.635586 0.363140 0.767177
O O7 0.618374 0.216548 0.837918
O O8 0.728296 0.107768 0.169537
O O9 0.790948 0.000000 0.283110
O O10 0.500000 0.000000 0.345473
O O11 0.423198 0.000000 0.500000
O O12 0.250000 0.250000 0.894335
O O13 0.171655 0.346717 0.000000
#
# Coordination Sequence:
#
# PCOD9487163 Si02
#       5
#    16  16  16   8  16
#     4  10  19  34  53  74 101 135 178 221 262 310
#     4  10  21  34  51  78 108 139 174 212 259 312
#     4  10  20  34  53  78 105 137 178 216 254 309
#     4   9  16  26  46  74  98 122 156 207 268 312
#     4   8  16  33  55  76  99 131 171 212 253 299
#
# _framework density 17.370602999999999
#
# number of rings (size 3 to 8) (size 9 to 14) (size 15 to 20)
#    0.000    2.556    1.111    2.667    0.000    4.444 
#    0.000    0.000    0.000    0.000    0.000   12.444 
#    0.000    0.000    0.000    0.000    0.000    0.000 
#
# Total GULP energy -200568.436371 kJ/mol
# GULP energy per Si atom -5571.345455 kJ/mol
# Density = 1.733107 g / cm^3
# Si number density = 17.370603 Si / 1000 Ang^3
#
#
#
# Elastic Constant Matrix: (Units=GPa)
#
#
# Indices 1 2 3 4 5 6 
#
# 1 150.5035 34.0093 37.0491 0.0000 0.0000 0.0000
# 2 34.0093 60.8951 10.8652 0.0000 0.0000 0.0000
# 3 37.0491 10.8652 116.5860 0.0000 0.0000 0.0000
# 4 0.0000 0.0000 0.0000 14.9058 0.0000 0.0000
# 5 0.0000 0.0000 0.0000 0.0000 11.4659 0.0000
# 6 0.0000 0.0000 0.0000 0.0000 0.0000 8.8602
#
#
#
# Elastic Compliance Matrix: (Units=1/GPa)
#
#
# Indices 1 2 3 4 5 6 
#
# 1 0.008121 -0.004144 -0.002195 0.000000 0.000000 0.000000
# 2 -0.004144 0.018814 -0.000436 0.000000 0.000000 0.000000
# 3 -0.002195 -0.000436 0.009315 0.000000 0.000000 0.000000
# 4 0.000000 0.000000 0.000000 0.067088 0.000000 0.000000
# 5 0.000000 0.000000 0.000000 0.000000 0.087215 0.000000
# 6 0.000000 0.000000 0.000000 0.000000 0.000000 0.112865
#
#
# Mechanical properties :
#
#
# Convention : Reuss Voigt Hill
#
# Bulk Modulus (GPa) = 44.05201 54.64798 49.34999
# Shear Modulus (GPa) = 15.40667 23.45044 19.42855
#
# Velocity S-wave (km/s) = 2.98138 3.67823 3.34799
# Velocity P-wave (km/s) = 6.10464 7.04042 6.58916
#
# Compressibility (1/GPa) = 0.02270044
#
# Stress axis : x y z
#
# Youngs Moduli (GPa) = 123.13778 53.15215 107.34888
#
# Poissons Ratio (x) = 0.22026 0.23558
# Poissons Ratio (y) = 0.51027 0.04686
# Poissons Ratio (z) = 0.27023 0.02320
#
# Static dielectric constant tensor:
#      x y z
#    x 1.610290 0.000000 0.000000 
#    y 0.000000 1.645020 0.000000 
#    z 0.000000 0.000000 1.607830 
# 
# From -- ./inp_files/39817.got.cif
#   From: 2010.05.17/outbox.cif.g08.bks.cpg/sg65_20_cif.got.tgz:39817.got - 2010.06.03 17:01:31.
