data_PCOD9487795
_publ_section_title
;
Structure prediction by ZEFSAII (Michael W. Deem and Ramdas Pophale) SiO2 
 PCOD9487795
Probable space group: C M M M
;
_chemical_formula_sum "Si O2"
_cell_formula_units_Z 104
_cell_length_a 7.698608
_cell_length_b 28.131963
_cell_length_c 29.663217
_cell_angle_alpha 90.000000
_cell_angle_beta 90.000000
_cell_angle_gamma 90.000000
_cell_volume 6424.369225
_symmetry_space_group_name_H-M "C M M M"
_symmetry_group_IT_number 65
_symmetry_cell_setting 'orthorhombic'
loop_
_space_group_symop_operation_xyz
x,y,z
-x,-y,z
x,-y,-z
-x,y,-z
-x,-y,-z
x,y,-z
-x,y,z
x,-y,z
1/2+x,1/2+y,z
1/2-x,1/2-y,z
1/2+x,1/2-y,-z
1/2-x,1/2+y,-z
1/2-x,1/2-y,-z
1/2+x,1/2+y,-z
1/2-x,1/2+y,z
1/2+x,1/2-y,z
loop_
_atom_site_type_symbol
_atom_site_label
_atom_site_fract_x
_atom_site_fract_y
_atom_site_fract_z
Si Si1 0.787835 0.445202 0.280729
Si Si2 0.291270 0.196189 0.140317
Si Si3 0.790112 0.603283 0.810101
Si Si4 0.204795 0.350170 0.950189
Si Si5 0.000000 0.942035 0.551738
Si Si6 0.699507 0.942110 0.380950
Si Si7 0.206534 0.946844 0.097276
O O1 0.732393 0.500000 0.275030
O O2 0.727156 0.414787 0.238209
O O3 0.738638 0.428035 0.330739
O O4 0.000000 0.445446 0.280838
O O5 0.500000 0.191679 0.138769
O O6 0.250000 0.250000 0.152112
O O7 0.228654 0.155501 0.174628
O O8 0.222651 0.181813 0.090563
O O9 0.742688 0.568033 0.851004
O O10 0.000000 0.604087 0.808058
O O11 0.220923 0.404725 0.933768
O O12 0.000000 0.339520 0.952948
O O13 0.280669 0.343491 0.000000
O O14 0.169478 0.927152 0.580001
O O15 0.000000 0.926116 0.500000
O O16 0.000000 0.000000 0.551207
O O17 0.500000 0.926896 0.388055
O O18 0.698111 0.000000 0.380112
O O19 0.000000 0.947070 0.090644
O O20 0.273655 0.000000 0.088315
#
# Coordination Sequence:
#
# PCOD9487795 Si02
#       7
#    16  16  16  16   8  16  16
#     4   8  13  23  41  61  80 104 135 174 213 244
#     4   9  18  31  47  65  84 105 129 165 205 246
#     4   9  17  30  47  64  81 107 143 173 199 244
#     4   9  19  35  51  65  79 100 136 171 198 238
#     4   9  16  24  34  50  74 108 150 190 223 253
#     4   8  14  24  36  52  75 104 141 184 224 257
#     4  10  20  31  42  62  91 113 130 158 200 246
#
# _framework density 16.188359999999999
#
# number of rings (size 3 to 8) (size 9 to 14) (size 15 to 20)
#    0.000    3.154    0.000    2.769    0.000    5.538 
#    1.385    3.077    0.000    0.000    0.000    0.000 
#    0.000    0.000    0.000    0.000    0.000    0.769 
#
# Total GULP energy -289677.464871 kJ/mol
# GULP energy per Si atom -5570.720478 kJ/mol
# Density = 1.615151 g / cm^3
# Si number density = 16.188360 Si / 1000 Ang^3
#
#
#
# Elastic Constant Matrix: (Units=GPa)
#
#
# Indices 1 2 3 4 5 6 
#
# 1 41.1047 0.6272 28.6670 0.0000 0.0000 0.0000
# 2 0.6272 49.4837 17.5232 0.0000 0.0000 0.0000
# 3 28.6670 17.5232 125.7436 0.0000 0.0000 0.0000
# 4 0.0000 0.0000 0.0000 5.1140 0.0000 0.0000
# 5 0.0000 0.0000 0.0000 0.0000 -187.0489 0.0000
# 6 0.0000 0.0000 0.0000 0.0000 0.0000 13.7645
#
#
#
# Elastic Compliance Matrix: (Units=1/GPa)
#
#
# Indices 1 2 3 4 5 6 
#
# 1 0.029131 0.002085 -0.006932 0.000000 0.000000 0.000000
# 2 0.002085 0.021407 -0.003459 0.000000 0.000000 0.000000
# 3 -0.006932 -0.003459 0.010015 0.000000 0.000000 0.000000
# 4 0.000000 0.000000 0.000000 0.195542 0.000000 0.000000
# 5 0.000000 0.000000 0.000000 0.000000 -0.005346 0.000000
# 6 0.000000 0.000000 0.000000 0.000000 0.000000 0.072651
#
#
# Mechanical properties :
#
#
# Convention : Reuss Voigt Hill
#
# Bulk Modulus (GPa) = 22.75693 34.44076 28.59884
# Shear Modulus (GPa) = 14.09813 -22.33311 -4.11749
#
# Velocity S-wave (km/s) = 2.95427 -3.71830 -1.59656
# Velocity P-wave (km/s) = 5.07199 1.69908 3.78232
#
# Compressibility (1/GPa) = 0.04394266
#
# Stress axis : x y z
#
# Youngs Moduli (GPa) = 34.32808 46.71360 99.85031
#
# Poissons Ratio (x) = -0.09742 0.69214
# Poissons Ratio (y) = -0.07159 0.34535
# Poissons Ratio (z) = 0.23796 0.16157
#
# Static dielectric constant tensor:
#      x y z
#    x 1.606210 0.000000 0.000000 
#    y 0.000000 1.525610 0.000000 
#    z 0.000000 0.000000 1.554860 
# 
# From -- ./inp_files/77015.got.cif
#   From: 2010.05.17/outbox.cif.g08.bks.cpg/sg65_39_cif.got.tgz:77015.got - 2010.06.03 17:01:31.
