data_PCOD9487878
_publ_section_title
;
Structure prediction by ZEFSAII (Michael W. Deem and Ramdas Pophale) SiO2 
 PCOD9487878
Probable space group: C M M M
;
_chemical_formula_sum "Si O2"
_cell_formula_units_Z 80
_cell_length_a 7.600490
_cell_length_b 17.865419
_cell_length_c 31.169861
_cell_angle_alpha 90.000000
_cell_angle_beta 90.000000
_cell_angle_gamma 90.000000
_cell_volume 4232.428827
_symmetry_space_group_name_H-M "C M M M"
_symmetry_group_IT_number 65
_symmetry_cell_setting 'orthorhombic'
loop_
_space_group_symop_operation_xyz
x,y,z
-x,-y,z
x,-y,-z
-x,y,-z
-x,-y,-z
x,y,-z
-x,y,z
x,-y,z
1/2+x,1/2+y,z
1/2-x,1/2-y,z
1/2+x,1/2-y,-z
1/2-x,1/2+y,-z
1/2-x,1/2-y,-z
1/2+x,1/2+y,-z
1/2-x,1/2+y,z
1/2+x,1/2-y,z
loop_
_atom_site_type_symbol
_atom_site_label
_atom_site_fract_x
_atom_site_fract_y
_atom_site_fract_z
Si Si1 0.785682 0.087629 0.547022
Si Si2 0.701994 0.408849 0.048160
Si Si3 0.000000 0.591235 0.788548
Si Si4 0.295838 0.409839 0.722349
Si Si5 0.500000 0.091629 0.886759
Si Si6 0.710606 0.337121 0.366097
O O1 0.726740 0.115317 0.500000
O O2 0.720371 0.130383 0.588951
O O3 0.000000 0.091555 0.546934
O O4 0.740112 0.000000 0.550417
O O5 0.500000 0.385887 0.054606
O O6 0.704571 0.500000 0.048256
O O7 0.830944 0.384169 0.085700
O O8 0.758319 0.386077 0.000000
O O9 0.171138 0.614124 0.761309
O O10 0.000000 0.500000 0.789505
O O11 0.000000 0.617001 0.837633
O O12 0.500000 0.387359 0.728562
O O13 0.291539 0.500000 0.719805
O O14 0.227996 0.377929 0.677080
O O15 0.500000 0.000000 0.886065
O O16 0.500000 0.348685 0.366753
O O17 0.750000 0.250000 0.363301
#
# Coordination Sequence:
#
# PCOD9487878 Si02
#       6
#    16  16   8  16   8  16
#     4   8  14  27  48  71  94 122 156 189 224 277
#     4   8  13  20  30  46  72 109 149 186 225 270
#     4   9  18  29  44  65  85 114 154 198 249 285
#     4   9  18  33  50  66  88 119 156 197 238 286
#     4   9  15  22  33  52  76 103 144 194 235 273
#     4  10  20  31  47  71  94 119 152 192 237 283
#
# _framework density 18.901676999999999
#
# number of rings (size 3 to 8) (size 9 to 14) (size 15 to 20)
#    0.000    3.200    0.000    2.100    1.400    4.800 
#    0.000    4.000    0.000    0.000    0.000    1.400 
#    0.000    0.000    0.000    0.000    0.000    4.000 
#
# Total GULP energy -222919.485062 kJ/mol
# GULP energy per Si atom -5572.987127 kJ/mol
# Density = 1.885866 g / cm^3
# Si number density = 18.901677 Si / 1000 Ang^3
#
#
#
# Elastic Constant Matrix: (Units=GPa)
#
#
# Indices 1 2 3 4 5 6 
#
# 1 80.2762 13.4400 86.5258 0.0000 0.0000 0.0000
# 2 13.4400 11.2185 32.9616 0.0000 0.0000 0.0000
# 3 86.5258 32.9616 228.1604 0.0000 0.0000 0.0000
# 4 0.0000 0.0000 0.0000 -3.5916 0.0000 0.0000
# 5 0.0000 0.0000 0.0000 0.0000 -1.9855 0.0000
# 6 0.0000 0.0000 0.0000 0.0000 0.0000 8.5723
#
#
#
# Elastic Compliance Matrix: (Units=1/GPa)
#
#
# Indices 1 2 3 4 5 6 
#
# 1 0.021130 -0.003076 -0.007569 0.000000 0.000000 0.000000
# 2 -0.003076 0.155328 -0.021273 0.000000 0.000000 0.000000
# 3 -0.007569 -0.021273 0.010327 0.000000 0.000000 0.000000
# 4 0.000000 0.000000 0.000000 -0.278428 0.000000 0.000000
# 5 0.000000 0.000000 0.000000 0.000000 -0.503654 0.000000
# 6 0.000000 0.000000 0.000000 0.000000 0.000000 0.116655
#
#
# Mechanical properties :
#
#
# Convention : Reuss Voigt Hill
#
# Bulk Modulus (GPa) = 8.13348 65.05664 36.59506
# Shear Modulus (GPa) = -13.37527 13.04756 -0.16386
#
# Velocity S-wave (km/s) = -2.66300 2.63018 -0.29475
# Velocity P-wave (km/s) = 2.26783 6.61188 4.39169
#
# Compressibility (1/GPa) = 0.12294854
#
# Stress axis : x y z
#
# Youngs Moduli (GPa) = 47.32605 6.43799 96.83817
#
# Poissons Ratio (x) = 0.01980 0.73295
# Poissons Ratio (y) = 0.14557 2.06006
# Poissons Ratio (z) = 0.35820 0.13696
#
# Static dielectric constant tensor:
#      x y z
#    x 1.694810 0.000000 0.000000 
#    y 0.000000 1.609510 0.000000 
#    z 0.000000 0.000000 1.655940 
# 
# From -- ./inp_files/75038.got.cif
#   From: 2010.05.17/outbox.cif.g08.bks.cpg/sg65_38_cif.got.tgz:75038.got - 2010.06.03 17:01:31.
