data_PCOD9487335
_publ_section_title
;
Structure prediction by ZEFSAII (Michael W. Deem and Ramdas Pophale) SiO2 
 PCOD9487335
Probable space group: C M M M
;
_chemical_formula_sum "Si O2"
_cell_formula_units_Z 104
_cell_length_a 20.506090
_cell_length_b 30.245636
_cell_length_c 7.570619
_cell_angle_alpha 90.000000
_cell_angle_beta 90.000000
_cell_angle_gamma 90.000000
_cell_volume 4695.447302
_symmetry_space_group_name_H-M "C M M M"
_symmetry_group_IT_number 65
_symmetry_cell_setting 'orthorhombic'
loop_
_space_group_symop_operation_xyz
x,y,z
-x,-y,z
x,-y,-z
-x,y,-z
-x,-y,-z
x,y,-z
-x,y,z
x,-y,z
1/2+x,1/2+y,z
1/2-x,1/2-y,z
1/2+x,1/2-y,-z
1/2-x,1/2+y,-z
1/2-x,1/2-y,-z
1/2+x,1/2+y,-z
1/2-x,1/2+y,z
1/2+x,1/2-y,z
loop_
_atom_site_type_symbol
_atom_site_label
_atom_site_fract_x
_atom_site_fract_y
_atom_site_fract_z
Si Si1 0.667427 0.417696 0.206962
Si Si2 0.847296 0.318363 0.789843
Si Si3 0.757984 0.500000 0.788257
Si Si4 0.202687 0.816911 0.211261
Si Si5 0.426022 0.264527 0.783916
Si Si6 0.071371 0.402029 0.287288
Si Si7 0.576667 0.448434 0.500000
Si Si8 0.095628 0.500000 0.299298
O O1 0.718016 0.456092 0.255970
O O2 0.696273 0.369394 0.235293
O O3 0.605450 0.425191 0.328243
O O4 0.651811 0.422573 0.000000
O O5 0.775248 0.305747 0.719198
O O6 0.903253 0.284638 0.728972
O O7 0.871152 0.368437 0.761454
O O8 0.842540 0.312524 0.000000
O O9 0.826797 0.500000 0.697394
O O10 0.768366 0.500000 0.000000
O O11 0.135504 0.794619 0.275625
O O12 0.203731 0.807476 0.000000
O O13 0.500000 0.275023 0.724617
O O14 0.427866 0.266853 0.000000
O O15 0.072598 0.404522 0.500000
O O16 0.077258 0.452462 0.219148
O O17 0.000000 0.384642 0.231691
O O18 0.596717 0.500000 0.500000
O O19 0.500000 0.446628 0.500000
O O20 0.070318 0.500000 0.500000
#
# Coordination Sequence:
#
# PCOD9487335 Si02
#       8
#    16  16   8  16  16  16   8   8
#     4  10  21  38  59  85 118 156 195 244 299 354
#     4  10  19  34  56  84 113 143 187 237 285 342
#     4  10  20  35  55  82 114 145 185 236 290 346
#     4   9  18  33  55  84 117 150 186 236 292 344
#     4   9  17  30  53  84 113 147 189 230 282 349
#     4  10  21  37  54  76 110 149 189 232 282 343
#     4  11  24  40  60  86 115 154 202 250 299 359
#     4  10  21  34  54  80 105 147 193 232 278 334
#
# _framework density 22.149114999999998
#
# number of rings (size 3 to 8) (size 9 to 14) (size 15 to 20)
#    0.000    2.231    0.769    2.077    1.077    6.462 
#    1.385    2.308    1.692    2.308    0.000    0.000 
#    0.000    0.000    0.000    0.000    0.000    0.000 
#
# Total GULP energy -290308.568272 kJ/mol
# GULP energy per Si atom -5582.857082 kJ/mol
# Density = 2.209870 g / cm^3
# Si number density = 22.149115 Si / 1000 Ang^3
#
#
#
# Elastic Constant Matrix: (Units=GPa)
#
#
# Indices 1 2 3 4 5 6 
#
# 1 179.0516 62.0488 20.4577 0.0000 0.0000 0.0000
# 2 62.0488 95.3637 5.7685 0.0000 0.0000 0.0000
# 3 20.4577 5.7685 36.4041 0.0000 0.0000 0.0000
# 4 0.0000 0.0000 0.0000 126.8595 0.0000 0.0000
# 5 0.0000 0.0000 0.0000 0.0000 22.3104 0.0000
# 6 0.0000 0.0000 0.0000 0.0000 0.0000 41.0991
#
#
#
# Elastic Compliance Matrix: (Units=1/GPa)
#
#
# Indices 1 2 3 4 5 6 
#
# 1 0.007637 -0.004755 -0.003538 0.000000 0.000000 0.000000
# 2 -0.004755 0.013548 0.000525 0.000000 0.000000 0.000000
# 3 -0.003538 0.000525 0.029375 0.000000 0.000000 0.000000
# 4 0.000000 0.000000 0.000000 0.007883 0.000000 0.000000
# 5 0.000000 0.000000 0.000000 0.000000 0.044822 0.000000
# 6 0.000000 0.000000 0.000000 0.000000 0.000000 0.024331
#
#
# Mechanical properties :
#
#
# Convention : Reuss Voigt Hill
#
# Bulk Modulus (GPa) = 28.55187 54.15214 41.35200
# Shear Modulus (GPa) = 32.29828 52.89008 42.59418
#
# Velocity S-wave (km/s) = 3.82281 4.89193 4.39003
# Velocity P-wave (km/s) = 5.69244 7.51065 6.66385
#
# Compressibility (1/GPa) = 0.03502398
#
# Stress axis : x y z
#
# Youngs Moduli (GPa) = 130.94009 73.81003 34.04303
#
# Poissons Ratio (x) = 0.35097 0.12045
# Poissons Ratio (y) = 0.62263 -0.01788
# Poissons Ratio (z) = 0.46330 -0.03878
#
# Static dielectric constant tensor:
#      x y z
#    x 1.797530 0.000000 0.000000 
#    y 0.000000 1.819080 0.000000 
#    z 0.000000 0.000000 1.833220 
# 
# From -- ./inp_files/12885.got.cif
#   From: 2010.05.17/outbox.cif.g08.bks.cpg/sg65_7_cif.got.tgz:12885.got - 2010.06.03 17:01:31.
