data_PCOD9487704
_publ_section_title
;
Structure prediction by ZEFSAII (Michael W. Deem and Ramdas Pophale) SiO2 
 PCOD9487704
Probable space group: C M M M
;
_chemical_formula_sum "Si O2"
_cell_formula_units_Z 82
_cell_length_a 26.155813
_cell_length_b 17.305223
_cell_length_c 9.817306
_cell_angle_alpha 90.000000
_cell_angle_beta 90.000000
_cell_angle_gamma 90.000000
_cell_volume 4443.628584
_symmetry_space_group_name_H-M "C M M M"
_symmetry_group_IT_number 65
_symmetry_cell_setting 'orthorhombic'
loop_
_space_group_symop_operation_xyz
x,y,z
-x,-y,z
x,-y,-z
-x,y,-z
-x,-y,-z
x,y,-z
-x,y,z
x,-y,z
1/2+x,1/2+y,z
1/2-x,1/2-y,z
1/2+x,1/2-y,-z
1/2-x,1/2+y,-z
1/2-x,1/2-y,-z
1/2+x,1/2+y,-z
1/2-x,1/2+y,z
1/2+x,1/2-y,z
loop_
_atom_site_type_symbol
_atom_site_label
_atom_site_fract_x
_atom_site_fract_y
_atom_site_fract_z
Si Si1 0.098203 0.339182 0.342175
Si Si2 0.500000 0.182021 0.160679
Si Si3 0.686767 0.093237 0.157324
Si Si4 0.000000 0.000000 0.000000
Si Si5 0.000000 0.134871 0.227595
Si Si6 0.609378 0.345486 0.650485
Si Si7 0.197415 0.092925 0.842293
O O1 0.091003 0.365385 0.500000
O O2 0.145965 0.377136 0.265371
O O3 0.107597 0.247304 0.348395
O O4 0.048960 0.348585 0.244643
O O5 0.500000 0.276319 0.171006
O O6 0.500000 0.161501 0.000000
O O7 0.744786 0.117810 0.193562
O O8 0.686129 0.000000 0.156388
O O9 0.676091 0.118248 0.000000
O O10 0.000000 0.068397 0.116396
O O11 0.947572 0.127666 0.311490
O O12 0.622871 0.373233 0.500000
O O13 0.652210 0.372861 0.754277
O O14 0.195748 0.000000 0.831868
O O15 0.189210 0.113399 0.000000
#
# Coordination Sequence:
#
# PCOD9487704 Si02
#       7
#    16   8  16   2   8  16  16
#     4  10  21  36  57  82 112 146 180 223 272 328
#     4  10  19  37  59  82 108 145 184 219 269 323
#     4   9  19  38  59  83 110 141 178 226 277 328
#     4  12  24  36  54  88 108 144 192 240 276 318
#     4  10  23  36  55  80 111 144 184 232 276 317
#     4  10  22  38  54  77 112 149 186 226 274 328
#     4   9  20  36  56  78 108 144 185 230 276 321
#
# _framework density 18.453386999999999
#
# number of rings (size 3 to 8) (size 9 to 14) (size 15 to 20)
#    0.000    2.341    0.488    2.341    2.732    6.244 
#    0.000    6.829    0.000    2.927    0.000    0.000 
#    0.000    0.000    0.000    0.000    0.000    0.000 
#
# Total GULP energy -228404.363551 kJ/mol
# GULP energy per Si atom -5570.838135 kJ/mol
# Density = 1.841139 g / cm^3
# Si number density = 18.453387 Si / 1000 Ang^3
#
#
#
# Elastic Constant Matrix: (Units=GPa)
#
#
# Indices 1 2 3 4 5 6 
#
# 1 166.0399 25.3313 107.6663 0.0000 0.0000 0.0000
# 2 25.3313 12.2206 19.8083 0.0000 0.0000 0.0000
# 3 107.6663 19.8083 134.5660 0.0000 0.0000 0.0000
# 4 0.0000 0.0000 0.0000 28.2294 0.0000 0.0000
# 5 0.0000 0.0000 0.0000 0.0000 -5.8766 0.0000
# 6 0.0000 0.0000 0.0000 0.0000 0.0000 27.8886
#
#
#
# Elastic Compliance Matrix: (Units=1/GPa)
#
#
# Indices 1 2 3 4 5 6 
#
# 1 0.014239 -0.014511 -0.009256 0.000000 0.000000 0.000000
# 2 -0.014511 0.122259 -0.006387 0.000000 0.000000 0.000000
# 3 -0.009256 -0.006387 0.015777 0.000000 0.000000 0.000000
# 4 0.000000 0.000000 0.000000 0.035424 0.000000 0.000000
# 5 0.000000 0.000000 0.000000 0.000000 -0.170166 0.000000
# 6 0.000000 0.000000 0.000000 0.000000 0.000000 0.035857
#
#
# Mechanical properties :
#
#
# Convention : Reuss Voigt Hill
#
# Bulk Modulus (GPa) = 10.87337 68.71538 39.79437
# Shear Modulus (GPa) = 34.63711 20.71630 27.67671
#
# Velocity S-wave (km/s) = 4.33714 3.35420 3.87695
# Velocity P-wave (km/s) = 5.56653 7.23319 6.45388
#
# Compressibility (1/GPa) = 0.09196783
#
# Stress axis : x y z
#
# Youngs Moduli (GPa) = 70.23194 8.17934 63.38195
#
# Poissons Ratio (x) = 0.11869 0.58668
# Poissons Ratio (y) = 1.01912 0.40480
# Poissons Ratio (z) = 0.65009 0.05224
#
# Static dielectric constant tensor:
#      x y z
#    x 1.637950 0.000000 0.000000 
#    y 0.000000 1.626300 0.000000 
#    z 0.000000 0.000000 1.628170 
# 
# From -- ./inp_files/13926.got.cif
#   From: 2010.05.17/outbox.cif.g08.bks.cpg/sg65_7_cif.got.tgz:13926.got - 2010.06.03 17:01:31.
