data_PCOD9487732
_publ_section_title
;
Structure prediction by ZEFSAII (Michael W. Deem and Ramdas Pophale) SiO2 
 PCOD9487732
Probable space group: C M M M
;
_chemical_formula_sum "Si O2"
_cell_formula_units_Z 88
_cell_length_a 17.248386
_cell_length_b 8.461801
_cell_length_c 31.220073
_cell_angle_alpha 90.000000
_cell_angle_beta 90.000000
_cell_angle_gamma 90.000000
_cell_volume 4556.644892
_symmetry_space_group_name_H-M "C M M M"
_symmetry_group_IT_number 65
_symmetry_cell_setting 'orthorhombic'
loop_
_space_group_symop_operation_xyz
x,y,z
-x,-y,z
x,-y,-z
-x,y,-z
-x,-y,-z
x,y,-z
-x,y,z
x,-y,z
1/2+x,1/2+y,z
1/2-x,1/2-y,z
1/2+x,1/2-y,-z
1/2-x,1/2+y,-z
1/2-x,1/2-y,-z
1/2+x,1/2+y,-z
1/2-x,1/2+y,z
1/2+x,1/2-y,z
loop_
_atom_site_type_symbol
_atom_site_label
_atom_site_fract_x
_atom_site_fract_y
_atom_site_fract_z
Si Si1 0.162100 0.188796 0.911911
Si Si2 0.915106 0.743368 0.386856
Si Si3 0.592857 0.185486 0.000000
Si Si4 0.864975 0.000000 0.676689
Si Si5 0.777472 0.500000 0.614634
Si Si6 0.593155 0.179934 0.174495
Si Si7 0.136548 0.000000 0.449394
Si Si8 0.905377 0.000000 0.225323
O O1 0.250000 0.250000 0.911414
O O2 0.117774 0.279185 0.873878
O O3 0.158613 0.000000 0.905011
O O4 0.125512 0.232552 0.957552
O O5 0.837200 0.643064 0.386100
O O6 0.000000 0.668624 0.386872
O O7 0.907869 0.851777 0.344828
O O8 0.907305 0.850968 0.429055
O O9 0.500000 0.194789 0.000000
O O10 0.615472 0.000000 0.000000
O O11 0.778923 0.000000 0.655776
O O12 0.870825 0.000000 0.727133
O O13 0.720644 0.500000 0.573785
O O14 0.500000 0.176483 0.177334
O O15 0.618383 0.335068 0.201937
O O16 0.620610 0.000000 0.185984
O O17 0.140903 0.000000 0.500000
O O18 0.000000 0.000000 0.227401
#
# Coordination Sequence:
#
# PCOD9487732 Si02
#       8
#    16  16   8   8   8  16   8   8
#     4  12  24  40  62  88 125 164 205 252 307 368
#     4  10  20  36  59  85 116 154 199 252 304 359
#     4  11  24  41  62  91 121 157 208 256 304 366
#     4  10  19  38  62  84 115 156 197 243 300 373
#     4  10  21  37  58  86 121 154 197 249 315 365
#     4  10  21  40  65  93 125 161 203 252 306 368
#     4  10  20  36  57  81 115 164 209 244 297 371
#     4  10  20  38  65  92 122 161 206 252 306 370
#
# _framework density 19.312455
#
# number of rings (size 3 to 8) (size 9 to 14) (size 15 to 20)
#    0.000    1.727    0.909    6.818    0.000    5.091 
#    1.636    1.818    0.000    1.636    0.000    0.000 
#    0.000    0.000    0.000    0.000    0.000    0.000 
#
# Total GULP energy -245470.797374 kJ/mol
# GULP energy per Si atom -5578.881759 kJ/mol
# Density = 1.926850 g / cm^3
# Si number density = 19.312455 Si / 1000 Ang^3
#
#
#
# Elastic Constant Matrix: (Units=GPa)
#
#
# Indices 1 2 3 4 5 6 
#
# 1 85.0709 37.8128 24.0866 0.0000 0.0000 0.0000
# 2 37.8128 149.2514 59.3139 0.0000 0.0000 0.0000
# 3 24.0866 59.3139 162.0222 0.0000 0.0000 0.0000
# 4 0.0000 0.0000 0.0000 -35.8950 0.0000 0.0000
# 5 0.0000 0.0000 0.0000 0.0000 0.4077 0.0000
# 6 0.0000 0.0000 0.0000 0.0000 0.0000 92.5861
#
#
#
# Elastic Compliance Matrix: (Units=1/GPa)
#
#
# Indices 1 2 3 4 5 6 
#
# 1 0.013351 -0.003035 -0.000874 0.000000 0.000000 0.000000
# 2 -0.003035 0.008531 -0.002672 0.000000 0.000000 0.000000
# 3 -0.000874 -0.002672 0.007280 0.000000 0.000000 0.000000
# 4 0.000000 0.000000 0.000000 -0.027859 0.000000 0.000000
# 5 0.000000 0.000000 0.000000 0.000000 2.452896 0.000000
# 6 0.000000 0.000000 0.000000 0.000000 0.000000 0.010801
#
#
# Mechanical properties :
#
#
# Convention : Reuss Voigt Hill
#
# Bulk Modulus (GPa) = 62.49733 70.97456 66.73594
# Shear Modulus (GPa) = 2.01329 29.76185 15.88757
#
# Velocity S-wave (km/s) = 1.02213 3.92991 2.87132
# Velocity P-wave (km/s) = 5.81587 7.57777 6.75452
#
# Compressibility (1/GPa) = 0.01600068
#
# Stress axis : x y z
#
# Youngs Moduli (GPa) = 74.89824 117.22079 137.36318
#
# Poissons Ratio (x) = 0.35581 0.12001
# Poissons Ratio (y) = 0.22735 0.36701
# Poissons Ratio (z) = 0.06543 0.31319
#
# Static dielectric constant tensor:
#      x y z
#    x 1.658910 0.000000 0.000000 
#    y 0.000000 1.772050 0.000000 
#    z 0.000000 0.000000 1.620310 
# 
# From -- ./inp_files/78039.got.cif
#   From: 2010.05.17/outbox.cif.g08.bks.cpg/sg65_40_cif.got.tgz:78039.got - 2010.06.03 17:01:31.
