data_PCOD9487505
_publ_section_title
;
Structure prediction by ZEFSAII (Michael W. Deem and Ramdas Pophale) SiO2 
 PCOD9487505
Probable space group: C M M M
;
_chemical_formula_sum "Si O2"
_cell_formula_units_Z 104
_cell_length_a 23.940565
_cell_length_b 17.787386
_cell_length_c 13.891772
_cell_angle_alpha 90.000000
_cell_angle_beta 90.000000
_cell_angle_gamma 90.000000
_cell_volume 5915.673171
_symmetry_space_group_name_H-M "C M M M"
_symmetry_group_IT_number 65
_symmetry_cell_setting 'orthorhombic'
loop_
_space_group_symop_operation_xyz
x,y,z
-x,-y,z
x,-y,-z
-x,y,-z
-x,-y,-z
x,y,-z
-x,y,z
x,-y,z
1/2+x,1/2+y,z
1/2-x,1/2-y,z
1/2+x,1/2-y,-z
1/2-x,1/2+y,-z
1/2-x,1/2-y,-z
1/2+x,1/2+y,-z
1/2-x,1/2+y,z
1/2+x,1/2-y,z
loop_
_atom_site_type_symbol
_atom_site_label
_atom_site_fract_x
_atom_site_fract_y
_atom_site_fract_z
Si Si1 0.124137 0.651654 0.885783
Si Si2 0.434307 0.703566 0.204912
Si Si3 0.731162 0.910832 0.201949
Si Si4 0.838025 0.587218 0.388231
Si Si5 0.936218 0.500000 0.882503
Si Si6 0.563903 0.206435 0.612919
Si Si7 0.350862 0.589791 0.113126
O O1 0.093262 0.723439 0.844101
O O2 0.188107 0.641090 0.855850
O O3 0.094340 0.575313 0.850356
O O4 0.119771 0.654368 0.000000
O O5 0.500000 0.699002 0.183123
O O6 0.427611 0.722009 0.318205
O O7 0.401241 0.632840 0.164115
O O8 0.712456 0.901432 0.313002
O O9 0.793853 0.892426 0.170759
O O10 0.722663 0.000000 0.177372
O O11 0.821688 0.598655 0.500000
O O12 0.856071 0.500000 0.378458
O O13 0.889179 0.643541 0.366760
O O14 0.000000 0.500000 0.851321
O O15 0.935203 0.500000 0.000000
O O16 0.567755 0.224849 0.500000
O O17 0.500000 0.179170 0.631524
O O18 0.358639 0.500000 0.116383
O O19 0.345942 0.611410 0.000000
#
# Coordination Sequence:
#
# PCOD9487505 Si02
#       7
#    16  16  16  16   8  16  16
#     4  11  20  31  50  77 110 150 186 221 268 324
#     4  11  23  39  58  83 113 144 184 236 290 342
#     4  10  19  35  56  80 113 150 188 230 277 331
#     4   9  17  31  53  81 114 153 195 235 273 318
#     4   9  18  30  44  68 105 149 190 218 253 316
#     4   9  18  34  55  80 114 153 190 230 277 328
#     4  10  23  42  63  84 107 142 188 240 293 344
#
# _framework density 17.580417000000001
#
# number of rings (size 3 to 8) (size 9 to 14) (size 15 to 20)
#    0.000    2.077    2.308    1.385    0.000    3.692 
#    0.000    4.615    0.000    3.231    0.000    2.154 
#    0.000    0.000    0.000    0.000    0.000    0.000 
#
# Total GULP energy -290059.350038 kJ/mol
# GULP energy per Si atom -5578.064424 kJ/mol
# Density = 1.754040 g / cm^3
# Si number density = 17.580417 Si / 1000 Ang^3
#
#
#
# Elastic Constant Matrix: (Units=GPa)
#
#
# Indices 1 2 3 4 5 6 
#
# 1 119.3125 52.6318 53.1537 0.0000 0.0000 0.0000
# 2 52.6318 47.2819 34.5817 0.0000 0.0000 0.0000
# 3 53.1537 34.5817 102.2329 0.0000 0.0000 0.0000
# 4 0.0000 0.0000 0.0000 24.8416 0.0000 0.0000
# 5 0.0000 0.0000 0.0000 0.0000 26.1274 0.0000
# 6 0.0000 0.0000 0.0000 0.0000 0.0000 74.5002
#
#
#
# Elastic Compliance Matrix: (Units=1/GPa)
#
#
# Indices 1 2 3 4 5 6 
#
# 1 0.017261 -0.016809 -0.003289 0.000000 0.000000 0.000000
# 2 -0.016809 0.044471 -0.006303 0.000000 0.000000 0.000000
# 3 -0.003289 -0.006303 0.013624 0.000000 0.000000 0.000000
# 4 0.000000 0.000000 0.000000 0.040255 0.000000 0.000000
# 5 0.000000 0.000000 0.000000 0.000000 0.038274 0.000000
# 6 0.000000 0.000000 0.000000 0.000000 0.000000 0.013423
#
#
# Mechanical properties :
#
#
# Convention : Reuss Voigt Hill
#
# Bulk Modulus (GPa) = 44.33885 61.06241 52.70063
# Shear Modulus (GPa) = 21.96557 33.65784 27.81171
#
# Velocity S-wave (km/s) = 3.53857 4.38026 3.98171
# Velocity P-wave (km/s) = 6.47847 7.77115 7.15407
#
# Compressibility (1/GPa) = 0.02255358
#
# Stress axis : x y z
#
# Youngs Moduli (GPa) = 57.93248 22.48646 73.40137
#
# Poissons Ratio (x) = 0.37798 0.24140
# Poissons Ratio (y) = 0.97380 0.46268
# Poissons Ratio (z) = 0.19053 0.14174
#
# Static dielectric constant tensor:
#      x y z
#    x 1.586180 0.000000 0.000000 
#    y 0.000000 1.583380 0.000000 
#    z 0.000000 0.000000 1.632040 
# 
# From -- ./inp_files/44401.got.cif
#   From: 2010.05.17/outbox.cif.g08.bks.cpg/sg65_23_cif.got.tgz:44401.got - 2010.06.03 17:01:31.
