data_PCOD9487355
_publ_section_title
;
Structure prediction by ZEFSAII (Michael W. Deem and Ramdas Pophale) SiO2 
 PCOD9487355
Probable space group: C M M M
;
_chemical_formula_sum "Si O2"
_cell_formula_units_Z 88
_cell_length_a 15.927136
_cell_length_b 34.327297
_cell_length_c 8.916496
_cell_angle_alpha 90.000000
_cell_angle_beta 90.000000
_cell_angle_gamma 90.000000
_cell_volume 4874.965147
_symmetry_space_group_name_H-M "C M M M"
_symmetry_group_IT_number 65
_symmetry_cell_setting 'orthorhombic'
loop_
_space_group_symop_operation_xyz
x,y,z
-x,-y,z
x,-y,-z
-x,y,-z
-x,-y,-z
x,y,-z
-x,y,z
x,-y,z
1/2+x,1/2+y,z
1/2-x,1/2-y,z
1/2+x,1/2-y,-z
1/2-x,1/2+y,-z
1/2-x,1/2-y,-z
1/2+x,1/2+y,-z
1/2-x,1/2+y,z
1/2+x,1/2-y,z
loop_
_atom_site_type_symbol
_atom_site_label
_atom_site_fract_x
_atom_site_fract_y
_atom_site_fract_z
Si Si1 0.253827 0.883054 0.679819
Si Si2 0.849428 0.247934 0.179281
Si Si3 0.406901 0.332181 0.319392
Si Si4 0.176014 0.045640 0.178845
Si Si5 0.404388 0.165234 0.180270
Si Si6 0.500000 0.547232 0.669727
O O1 0.254048 0.884725 0.500000
O O2 0.171170 0.858696 0.730420
O O3 0.243512 0.925912 0.747986
O O4 0.335539 0.861009 0.739158
O O5 0.750000 0.250000 0.212845
O O6 0.890450 0.211386 0.261016
O O7 0.889163 0.289455 0.220087
O O8 0.858878 0.242556 0.000000
O O9 0.405813 0.332036 0.500000
O O10 0.500000 0.345470 0.270609
O O11 0.085254 0.057456 0.245619
O O12 0.189498 0.000000 0.214974
O O13 0.175022 0.049647 0.000000
O O14 0.500000 0.154363 0.216504
O O15 0.392962 0.162270 0.000000
O O16 0.500000 0.500000 0.661689
O O17 0.500000 0.563033 0.500000
#
# Coordination Sequence:
#
# PCOD9487355 Si02
#       6
#    16  16  16  16  16   8
#     4  11  23  37  57  83 113 148 187 234 285 339
#     4  10  19  34  57  81 108 144 188 234 277 328
#     4  10  22  37  52  76 112 151 187 225 272 326
#     4  10  21  37  57  82 113 149 190 233 281 340
#     4  10  21  38  59  82 111 148 190 238 289 338
#     4   9  17  31  53  81 113 149 187 225 269 327
#
# _framework density 18.051410000000001
#
# number of rings (size 3 to 8) (size 9 to 14) (size 15 to 20)
#    0.000    1.909    1.818    1.909    1.273    5.455 
#    0.000    0.000    0.000    0.545    0.000    3.818 
#    0.000    0.000    0.000    0.000    0.000    0.000 
#
# Total GULP energy -245793.120067 kJ/mol
# GULP energy per Si atom -5586.207274 kJ/mol
# Density = 1.801032 g / cm^3
# Si number density = 18.051410 Si / 1000 Ang^3
#
#
#
# Elastic Constant Matrix: (Units=GPa)
#
#
# Indices 1 2 3 4 5 6 
#
# 1 121.3174 63.0613 44.7565 0.0000 0.0000 0.0000
# 2 63.0613 106.3215 45.4288 0.0000 0.0000 0.0000
# 3 44.7565 45.4288 40.3560 0.0000 0.0000 0.0000
# 4 0.0000 0.0000 0.0000 28.2216 0.0000 0.0000
# 5 0.0000 0.0000 0.0000 0.0000 27.2953 0.0000
# 6 0.0000 0.0000 0.0000 0.0000 0.0000 22.8690
#
#
#
# Elastic Compliance Matrix: (Units=1/GPa)
#
#
# Indices 1 2 3 4 5 6 
#
# 1 0.014542 -0.003341 -0.012366 0.000000 0.000000 0.000000
# 2 -0.003341 0.018889 -0.017558 0.000000 0.000000 0.000000
# 3 -0.012366 -0.017558 0.058260 0.000000 0.000000 0.000000
# 4 0.000000 0.000000 0.000000 0.035434 0.000000 0.000000
# 5 0.000000 0.000000 0.000000 0.000000 0.036636 0.000000
# 6 0.000000 0.000000 0.000000 0.000000 0.000000 0.043727
#
#
# Mechanical properties :
#
#
# Convention : Reuss Voigt Hill
#
# Bulk Modulus (GPa) = 39.74676 63.83202 51.78939
# Shear Modulus (GPa) = 17.70494 23.32706 20.51600
#
# Velocity S-wave (km/s) = 3.13518 3.59870 3.37491
# Velocity P-wave (km/s) = 5.93062 7.25986 6.62864
#
# Compressibility (1/GPa) = 0.02515928
#
# Stress axis : x y z
#
# Youngs Moduli (GPa) = 68.76741 52.93955 17.16446
#
# Poissons Ratio (x) = 0.17688 0.21226
# Poissons Ratio (y) = 0.22976 0.30138
# Poissons Ratio (z) = 0.85040 0.92954
#
# Static dielectric constant tensor:
#      x y z
#    x 1.612270 0.000000 0.000000 
#    y 0.000000 1.617040 0.000000 
#    z 0.000000 0.000000 1.604800 
# 
# From -- ./inp_files/10053.got.cif
#   From: 2010.05.17/outbox.cif.g08.bks.cpg/sg65_6_cif.got.tgz:10053.got - 2010.06.03 17:01:31.
