data_PCOD9487808
_publ_section_title
;
Structure prediction by ZEFSAII (Michael W. Deem and Ramdas Pophale) SiO2 
 PCOD9487808
Probable space group: C M M M
;
_chemical_formula_sum "Si O2"
_cell_formula_units_Z 104
_cell_length_a 9.259923
_cell_length_b 31.257348
_cell_length_c 22.394291
_cell_angle_alpha 90.000000
_cell_angle_beta 90.000000
_cell_angle_gamma 90.000000
_cell_volume 6481.817822
_symmetry_space_group_name_H-M "C M M M"
_symmetry_group_IT_number 65
_symmetry_cell_setting 'orthorhombic'
loop_
_space_group_symop_operation_xyz
x,y,z
-x,-y,z
x,-y,-z
-x,y,-z
-x,-y,-z
x,y,-z
-x,y,z
x,-y,z
1/2+x,1/2+y,z
1/2-x,1/2-y,z
1/2+x,1/2-y,-z
1/2-x,1/2+y,-z
1/2-x,1/2-y,-z
1/2+x,1/2+y,-z
1/2-x,1/2+y,z
1/2+x,1/2-y,z
loop_
_atom_site_type_symbol
_atom_site_label
_atom_site_fract_x
_atom_site_fract_y
_atom_site_fract_z
Si Si1 0.674104 0.949625 0.500000
Si Si2 0.325909 0.948862 0.632017
Si Si3 0.171246 0.880410 0.286703
Si Si4 0.667061 0.207095 0.711943
Si Si5 0.829837 0.450258 0.929217
Si Si6 0.669874 0.621457 0.143957
Si Si7 0.165871 0.292333 0.142634
O O1 0.500000 0.946412 0.500000
O O2 0.720784 0.933789 0.434867
O O3 0.708727 0.000000 0.500000
O O4 0.500000 0.943642 0.637240
O O5 0.244455 0.920185 0.680038
O O6 0.297623 0.000000 0.637691
O O7 0.249289 0.836149 0.305312
O O8 0.190654 0.884414 0.215174
O O9 0.000000 0.878298 0.298599
O O10 0.500000 0.206553 0.692519
O O11 0.750000 0.250000 0.692149
O O12 0.666307 0.208186 0.784624
O O13 0.799256 0.500000 0.915858
O O14 0.734294 0.418540 0.890927
O O15 0.000000 0.442772 0.917237
O O16 0.806793 0.443886 0.000000
O O17 0.500000 0.626389 0.133124
O O18 0.753063 0.664425 0.124973
O O19 0.250000 0.250000 0.122685
O O20 0.000000 0.292115 0.123007
#
# Coordination Sequence:
#
# PCOD9487808 Si02
#       7
#     8  16  16  16  16  16  16
#     4   7  12  26  47  67  86 113 154 199 235 271
#     4   9  17  30  48  68  91 122 159 196 234 277
#     4  10  20  31  43  66 100 130 156 189 230 275
#     4   9  16  27  44  65  90 121 156 192 230 272
#     4   9  19  36  55  72  90 116 154 198 239 279
#     4  10  20  32  47  69  97 127 157 190 230 276
#     4   9  16  27  45  68  94 123 154 188 227 273
#
# _framework density 16.044881
#
# number of rings (size 3 to 8) (size 9 to 14) (size 15 to 20)
#    0.000    2.846    0.000    3.231    0.000    7.077 
#    0.000    4.231    0.000    1.846    0.000    0.538 
#    0.000    0.000    0.000    0.000    0.000    0.000 
#
# Total GULP energy -289678.559715 kJ/mol
# GULP energy per Si atom -5570.741533 kJ/mol
# Density = 1.600836 g / cm^3
# Si number density = 16.044881 Si / 1000 Ang^3
#
#
#
# Elastic Constant Matrix: (Units=GPa)
#
#
# Indices 1 2 3 4 5 6 
#
# 1 127.4438 87.8142 51.2702 0.0000 0.0000 0.0000
# 2 87.8142 121.6035 47.2292 0.0000 0.0000 0.0000
# 3 51.2702 47.2292 26.8645 0.0000 0.0000 0.0000
# 4 0.0000 0.0000 0.0000 -6.6909 0.0000 0.0000
# 5 0.0000 0.0000 0.0000 0.0000 16.8518 0.0000
# 6 0.0000 0.0000 0.0000 0.0000 0.0000 33.9365
#
#
#
# Elastic Compliance Matrix: (Units=1/GPa)
#
#
# Indices 1 2 3 4 5 6 
#
# 1 0.033949 0.002043 -0.068382 0.000000 0.000000 0.000000
# 2 0.002043 0.026048 -0.049694 0.000000 0.000000 0.000000
# 3 -0.068382 -0.049694 0.255093 0.000000 0.000000 0.000000
# 4 0.000000 0.000000 0.000000 -0.149457 0.000000 0.000000
# 5 0.000000 0.000000 0.000000 0.000000 0.059341 0.000000
# 6 0.000000 0.000000 0.000000 0.000000 0.000000 0.029467
#
#
# Mechanical properties :
#
#
# Convention : Reuss Voigt Hill
#
# Bulk Modulus (GPa) = 12.04458 72.05991 42.05224
# Shear Modulus (GPa) = 9.72420 14.79269 12.25845
#
# Velocity S-wave (km/s) = 2.46450 3.03967 2.76707
# Velocity P-wave (km/s) = 3.95240 7.57155 6.03945
#
# Compressibility (1/GPa) = 0.08302491
#
# Stress axis : x y z
#
# Youngs Moduli (GPa) = 29.45631 38.39008 3.92014
#
# Poissons Ratio (x) = -0.07844 0.26807
# Poissons Ratio (y) = -0.06018 0.19481
# Poissons Ratio (z) = 2.01428 1.90775
#
# Static dielectric constant tensor:
#      x y z
#    x 1.533320 0.000000 0.000000 
#    y 0.000000 1.519000 0.000000 
#    z 0.000000 0.000000 1.530590 
# 
# From -- ./inp_files/68190.got.cif
#   From: 2010.05.17/outbox.cif.g08.bks.cpg/sg65_35_cif.got.tgz:68190.got - 2010.06.03 17:01:31.
