data_PCOD9487650
_publ_section_title
;
Structure prediction by ZEFSAII (Michael W. Deem and Ramdas Pophale) SiO2 
 PCOD9487650
Probable space group: C M M M
;
_chemical_formula_sum "Si O2"
_cell_formula_units_Z 52
_cell_length_a 11.878984
_cell_length_b 30.604975
_cell_length_c 7.287128
_cell_angle_alpha 90.000000
_cell_angle_beta 90.000000
_cell_angle_gamma 90.000000
_cell_volume 2649.279168
_symmetry_space_group_name_H-M "C M M M"
_symmetry_group_IT_number 65
_symmetry_cell_setting 'orthorhombic'
loop_
_space_group_symop_operation_xyz
x,y,z
-x,-y,z
x,-y,-z
-x,y,-z
-x,-y,-z
x,y,-z
-x,y,z
x,-y,z
1/2+x,1/2+y,z
1/2-x,1/2-y,z
1/2+x,1/2-y,-z
1/2-x,1/2+y,-z
1/2-x,1/2-y,-z
1/2+x,1/2+y,-z
1/2-x,1/2+y,z
1/2+x,1/2-y,z
loop_
_atom_site_type_symbol
_atom_site_label
_atom_site_fract_x
_atom_site_fract_y
_atom_site_fract_z
Si Si1 0.367006 0.637166 0.719513
Si Si2 0.500000 0.078870 0.279982
Si Si3 0.000000 0.343420 0.000000
Si Si4 0.242543 0.698099 0.000000
Si Si5 0.753439 0.452262 0.277767
O O1 0.350481 0.641039 0.500000
O O2 0.500000 0.638441 0.756861
O O3 0.315708 0.590366 0.780062
O O4 0.303237 0.675380 0.826397
O O5 0.500000 0.084649 0.500000
O O6 0.500000 0.124689 0.175736
O O7 0.615328 0.054452 0.229855
O O8 0.887391 0.315565 0.000000
O O9 0.250000 0.750000 0.000000
O O10 0.747413 0.452604 0.500000
O O11 0.714093 0.500000 0.214605
#
# Coordination Sequence:
#
# PCOD9487650 Si02
#       5
#    16   8   4   8  16
#     4  10  22  42  65  90 124 164 203 249 303 357
#     4  10  19  36  58  86 128 162 198 249 296 352
#     4  12  24  40  65  94 112 160 203 244 316 366
#     4  12  27  44  67  90 121 154 203 259 312 366
#     4   9  17  32  58  90 123 162 203 243 293 354
#
# _framework density 19.627980000000001
#
# number of rings (size 3 to 8) (size 9 to 14) (size 15 to 20)
#    0.000    1.846    3.077    0.923    2.154    3.077 
#    0.000    6.923    0.000    1.846    0.000    0.000 
#    0.000    0.000    0.000    0.000    0.000    0.000 
#
# Total GULP energy -145273.089200 kJ/mol
# GULP energy per Si atom -5587.426508 kJ/mol
# Density = 1.958331 g / cm^3
# Si number density = 19.627980 Si / 1000 Ang^3
#
#
#
# Elastic Constant Matrix: (Units=GPa)
#
#
# Indices 1 2 3 4 5 6 
#
# 1 140.0149 90.1259 44.3577 0.0000 0.0000 0.0000
# 2 90.1259 217.2596 49.3446 0.0000 0.0000 0.0000
# 3 44.3577 49.3446 89.8930 0.0000 0.0000 0.0000
# 4 0.0000 0.0000 0.0000 29.1551 0.0000 0.0000
# 5 0.0000 0.0000 0.0000 0.0000 15.0434 0.0000
# 6 0.0000 0.0000 0.0000 0.0000 0.0000 -49.8555
#
#
#
# Elastic Compliance Matrix: (Units=1/GPa)
#
#
# Indices 1 2 3 4 5 6 
#
# 1 0.010485 -0.003626 -0.003183 0.000000 0.000000 0.000000
# 2 -0.003626 0.006513 -0.001785 0.000000 0.000000 0.000000
# 3 -0.003183 -0.001785 0.013675 0.000000 0.000000 0.000000
# 4 0.000000 0.000000 0.000000 0.034299 0.000000 0.000000
# 5 0.000000 0.000000 0.000000 0.000000 0.066474 0.000000
# 6 0.000000 0.000000 0.000000 0.000000 0.000000 -0.020058
#
#
# Mechanical properties :
#
#
# Convention : Reuss Voigt Hill
#
# Bulk Modulus (GPa) = 74.16992 90.53597 82.35295
# Shear Modulus (GPa) = 37.57347 16.42456 26.99901
#
# Velocity S-wave (km/s) = 4.38000 2.89588 3.71285
# Velocity P-wave (km/s) = 7.96549 7.57678 7.77356
#
# Compressibility (1/GPa) = 0.01348255
#
# Stress axis : x y z
#
# Youngs Moduli (GPa) = 95.37578 153.54633 73.12550
#
# Poissons Ratio (x) = 0.55683 0.23276
# Poissons Ratio (y) = 0.34588 0.13057
# Poissons Ratio (z) = 0.30359 0.27416
#
# Static dielectric constant tensor:
#      x y z
#    x 1.669800 0.000000 0.000000 
#    y 0.000000 1.652810 0.000000 
#    z 0.000000 0.000000 1.741470 
# 
# From -- ./inp_files/4323.got.cif
#   From: 2010.05.17/outbox.cif.g08.bks.cpg/sg65_3_cif.got.tgz:4323.got - 2010.06.03 17:01:31.
