data_PCOD9487751
_publ_section_title
;
Structure prediction by ZEFSAII (Michael W. Deem and Ramdas Pophale) SiO2 
 PCOD9487751
Probable space group: C M M M
;
_chemical_formula_sum "Si O2"
_cell_formula_units_Z 104
_cell_length_a 28.097091
_cell_length_b 8.170528
_cell_length_c 27.774461
_cell_angle_alpha 90.000000
_cell_angle_beta 90.000000
_cell_angle_gamma 90.000000
_cell_volume 6376.129372
_symmetry_space_group_name_H-M "C M M M"
_symmetry_group_IT_number 65
_symmetry_cell_setting 'orthorhombic'
loop_
_space_group_symop_operation_xyz
x,y,z
-x,-y,z
x,-y,-z
-x,y,-z
-x,-y,-z
x,y,-z
-x,y,z
x,-y,z
1/2+x,1/2+y,z
1/2-x,1/2-y,z
1/2+x,1/2-y,-z
1/2-x,1/2+y,-z
1/2-x,1/2-y,-z
1/2+x,1/2+y,-z
1/2-x,1/2+y,z
1/2+x,1/2-y,z
loop_
_atom_site_type_symbol
_atom_site_label
_atom_site_fract_x
_atom_site_fract_y
_atom_site_fract_z
Si Si1 0.695062 0.698398 0.000000
Si Si2 0.942438 0.194949 0.551789
Si Si3 0.802390 0.304626 0.195809
Si Si4 0.148772 0.197054 0.099299
Si Si5 0.552949 0.696843 0.851252
Si Si6 0.398249 0.195776 0.245341
Si Si7 0.444902 0.302019 0.656531
O O1 0.750000 0.750000 0.000000
O O2 0.668530 0.756948 0.048340
O O3 0.693751 0.500000 0.000000
O O4 0.925919 0.263750 0.500000
O O5 0.926835 0.258529 0.604091
O O6 0.000000 0.209471 0.552478
O O7 0.932196 0.000000 0.551000
O O8 0.803523 0.500000 0.194294
O O9 0.750000 0.250000 0.210278
O O10 0.815685 0.241037 0.142642
O O11 0.845155 0.247683 0.230604
O O12 0.096453 0.258537 0.115511
O O13 0.146087 0.000000 0.096727
O O14 0.500000 0.759305 0.862469
O O15 0.552044 0.500000 0.855831
O O16 0.567071 0.737114 0.796329
O O17 0.414567 0.248773 0.297914
O O18 0.399562 0.000000 0.242604
O O19 0.500000 0.248721 0.662926
O O20 0.445387 0.500000 0.654765
#
# Coordination Sequence:
#
# PCOD9487751 Si02
#       7
#     8  16  16  16  16  16  16
#     4  10  20  32  47  67  89 111 136 170 213 256
#     4   7  10  18  33  53  77 106 141 178 209 235
#     4  10  20  33  48  65  84 108 138 171 210 254
#     4   9  18  32  48  67  90 113 138 169 205 247
#     4   9  17  30  47  64  84 113 146 175 203 239
#     4  10  20  30  41  61  87 112 139 172 210 252
#     4   9  16  25  39  60  85 114 147 178 206 239
#
# _framework density 16.310836999999999
#
# number of rings (size 3 to 8) (size 9 to 14) (size 15 to 20)
#    0.000    2.923    0.000    3.231    0.000    6.154 
#    0.000    0.385    0.000    2.769    0.000    2.154 
#    0.000    6.154    0.000    1.385    0.000    2.154 
#
# Total GULP energy -289597.268918 kJ/mol
# GULP energy per Si atom -5569.178248 kJ/mol
# Density = 1.627371 g / cm^3
# Si number density = 16.310837 Si / 1000 Ang^3
#
#
#
# Elastic Constant Matrix: (Units=GPa)
#
#
# Indices 1 2 3 4 5 6 
#
# 1 95.9404 7.4618 60.7709 0.0000 0.0000 0.0000
# 2 7.4618 7.9253 8.1501 0.0000 0.0000 0.0000
# 3 60.7709 8.1501 154.2359 0.0000 0.0000 0.0000
# 4 0.0000 0.0000 0.0000 -0.8428 0.0000 0.0000
# 5 0.0000 0.0000 0.0000 0.0000 10.3812 0.0000
# 6 0.0000 0.0000 0.0000 0.0000 0.0000 16.5512
#
#
#
# Elastic Compliance Matrix: (Units=1/GPa)
#
#
# Indices 1 2 3 4 5 6 
#
# 1 0.014371 -0.008151 -0.005232 0.000000 0.000000 0.000000
# 2 -0.008151 0.138052 -0.004083 0.000000 0.000000 0.000000
# 3 -0.005232 -0.004083 0.008761 0.000000 0.000000 0.000000
# 4 0.000000 0.000000 0.000000 -1.186590 0.000000 0.000000
# 5 0.000000 0.000000 0.000000 0.000000 0.096328 0.000000
# 6 0.000000 0.000000 0.000000 0.000000 0.000000 0.060419
#
#
# Mechanical properties :
#
#
# Convention : Reuss Voigt Hill
#
# Bulk Modulus (GPa) = 7.92066 45.65190 26.78628
# Shear Modulus (GPa) = -6.31596 17.33252 5.50828
#
# Velocity S-wave (km/s) = -1.96994 3.26335 1.83967
# Velocity P-wave (km/s) = 0.55461 6.49990 4.57936
#
# Compressibility (1/GPa) = 0.12625211
#
# Stress axis : x y z
#
# Youngs Moduli (GPa) = 69.58514 7.24366 114.14644
#
# Poissons Ratio (x) = 0.05904 0.59717
# Poissons Ratio (y) = 0.56715 0.46611
# Poissons Ratio (z) = 0.36404 0.02958
#
# Static dielectric constant tensor:
#      x y z
#    x 1.554850 0.000000 0.000000 
#    y 0.000000 1.573840 0.000000 
#    z 0.000000 0.000000 1.567670 
# 
# From -- ./inp_files/71799.got.cif
#   From: 2010.05.17/outbox.cif.g08.bks.cpg/sg65_36_cif.got.tgz:71799.got - 2010.06.03 17:01:31.
