data_PCOD9487437
_publ_section_title
;
Structure prediction by ZEFSAII (Michael W. Deem and Ramdas Pophale) SiO2 
 PCOD9487437
Probable space group: C M M M
;
_chemical_formula_sum "Si O2"
_cell_formula_units_Z 68
_cell_length_a 17.778308
_cell_length_b 24.611873
_cell_length_c 7.686371
_cell_angle_alpha 90.000000
_cell_angle_beta 90.000000
_cell_angle_gamma 90.000000
_cell_volume 3363.228961
_symmetry_space_group_name_H-M "C M M M"
_symmetry_group_IT_number 65
_symmetry_cell_setting 'orthorhombic'
loop_
_space_group_symop_operation_xyz
x,y,z
-x,-y,z
x,-y,-z
-x,y,-z
-x,-y,-z
x,y,-z
-x,y,z
x,-y,z
1/2+x,1/2+y,z
1/2-x,1/2-y,z
1/2+x,1/2-y,-z
1/2-x,1/2+y,-z
1/2-x,1/2-y,-z
1/2+x,1/2+y,-z
1/2-x,1/2+y,z
1/2+x,1/2-y,z
loop_
_atom_site_type_symbol
_atom_site_label
_atom_site_fract_x
_atom_site_fract_y
_atom_site_fract_z
Si Si1 0.914763 0.897656 0.000000
Si Si2 0.084377 0.273761 0.711191
Si Si3 0.161860 0.500000 0.807764
Si Si4 0.669490 0.877218 0.293936
Si Si5 0.809071 0.000000 0.000000
Si Si6 0.666058 0.334237 0.709826
O O1 0.859551 0.948003 0.000000
O O2 0.895738 0.864369 0.825766
O O3 0.000000 0.915365 0.000000
O O4 0.080204 0.275120 0.500000
O O5 0.110405 0.332967 0.774666
O O6 0.148599 0.229067 0.748524
O O7 0.000000 0.259553 0.773068
O O8 0.147389 0.559824 0.732858
O O9 0.252227 0.500000 0.837377
O O10 0.127140 0.500000 0.000000
O O11 0.672759 0.869527 0.500000
O O12 0.752960 0.858624 0.233411
O O13 0.658405 0.341802 0.500000
#
# Coordination Sequence:
#
# PCOD9487437 Si02
#       6
#     8  16   8  16   4  16
#     4  12  23  38  58  85 117 155 191 228 287 341
#     4   9  18  34  56  84 117 148 181 232 290 338
#     4  10  19  36  57  76 108 145 189 236 284 319
#     4  10  19  34  59  84 108 145 193 235 278 336
#     4  10  21  40  54  74 115 150 186 244 281 326
#     4  10  20  37  60  86 116 150 189 233 278 338
#
# _framework density 20.218665000000001
#
# number of rings (size 3 to 8) (size 9 to 14) (size 15 to 20)
#    0.353    1.647    2.353    1.941    0.000    4.235 
#    2.118    2.353    0.000    4.941    0.000    0.000 
#    0.000    0.000    0.000    0.000    0.000    0.000 
#
# Total GULP energy -189336.825875 kJ/mol
# GULP energy per Si atom -5568.730173 kJ/mol
# Density = 2.017265 g / cm^3
# Si number density = 20.218665 Si / 1000 Ang^3
#
#
#
# Elastic Constant Matrix: (Units=GPa)
#
#
# Indices 1 2 3 4 5 6 
#
# 1 21.1165 7.4943 3.8175 0.0000 0.0000 0.0000
# 2 7.4943 133.2872 5.9294 0.0000 0.0000 0.0000
# 3 3.8175 5.9294 38.5461 0.0000 0.0000 0.0000
# 4 0.0000 0.0000 0.0000 155.2179 0.0000 0.0000
# 5 0.0000 0.0000 0.0000 0.0000 11.6586 0.0000
# 6 0.0000 0.0000 0.0000 0.0000 0.0000 96.7720
#
#
#
# Elastic Compliance Matrix: (Units=1/GPa)
#
#
# Indices 1 2 3 4 5 6 
#
# 1 0.049072 -0.002560 -0.004466 0.000000 0.000000 0.000000
# 2 -0.002560 0.007688 -0.000929 0.000000 0.000000 0.000000
# 3 -0.004466 -0.000929 0.026528 0.000000 0.000000 0.000000
# 4 0.000000 0.000000 0.000000 0.006443 0.000000 0.000000
# 5 0.000000 0.000000 0.000000 0.000000 0.085773 0.000000
# 6 0.000000 0.000000 0.000000 0.000000 0.000000 0.010334
#
#
# Mechanical properties :
#
#
# Convention : Reuss Voigt Hill
#
# Bulk Modulus (GPa) = 14.84183 25.27025 20.05604
# Shear Modulus (GPa) = 22.30068 64.44360 43.37214
#
# Velocity S-wave (km/s) = 3.32471 5.65177 4.63660
# Velocity P-wave (km/s) = 4.70052 7.42399 6.21331
#
# Compressibility (1/GPa) = 0.06737713
#
# Stress axis : x y z
#
# Youngs Moduli (GPa) = 20.37805 130.07470 37.69571
#
# Poissons Ratio (x) = 0.33306 0.16836
# Poissons Ratio (y) = 0.05218 0.03502
# Poissons Ratio (z) = 0.09101 0.12084
#
# Static dielectric constant tensor:
#      x y z
#    x 1.713360 0.000000 0.000000 
#    y 0.000000 1.759520 0.000000 
#    z 0.000000 0.000000 1.754550 
# 
# From -- ./inp_files/9305.got.cif
#   From: 2010.05.17/outbox.cif.g08.bks.cpg/sg65_5_cif.got.tgz:9305.got - 2010.06.03 17:01:31.
