data_PCOD9487926
_publ_section_title
;
Structure prediction by ZEFSAII (Michael W. Deem and Ramdas Pophale) SiO2 
 PCOD9487926
Probable space group: C M M M
;
_chemical_formula_sum "Si O2"
_cell_formula_units_Z 96
_cell_length_a 30.899093
_cell_length_b 17.473867
_cell_length_c 12.073382
_cell_angle_alpha 90.000000
_cell_angle_beta 90.000000
_cell_angle_gamma 90.000000
_cell_volume 6518.740595
_symmetry_space_group_name_H-M "C M M M"
_symmetry_group_IT_number 65
_symmetry_cell_setting 'orthorhombic'
loop_
_space_group_symop_operation_xyz
x,y,z
-x,-y,z
x,-y,-z
-x,y,-z
-x,-y,-z
x,y,-z
-x,y,z
x,-y,z
1/2+x,1/2+y,z
1/2-x,1/2-y,z
1/2+x,1/2-y,-z
1/2-x,1/2+y,-z
1/2-x,1/2-y,-z
1/2+x,1/2+y,-z
1/2-x,1/2+y,z
1/2+x,1/2-y,z
loop_
_atom_site_type_symbol
_atom_site_label
_atom_site_fract_x
_atom_site_fract_y
_atom_site_fract_z
Si Si1 0.142754 0.734707 0.369673
Si Si2 0.083357 0.148521 0.733393
Si Si3 0.161195 0.911712 0.874714
Si Si4 0.000000 0.092868 0.133947
Si Si5 0.549487 0.591158 0.500000
Si Si6 0.722298 0.675825 0.723345
Si Si7 0.196891 0.586824 0.633156
O O1 0.130690 0.732169 0.500000
O O2 0.104373 0.768006 0.292703
O O3 0.183385 0.793523 0.355087
O O4 0.161767 0.651876 0.334440
O O5 0.120995 0.101496 0.793856
O O6 0.072519 0.117559 0.611576
O O7 0.041401 0.133798 0.809582
O O8 0.199835 0.860679 0.829308
O O9 0.174044 0.000000 0.871448
O O10 0.148703 0.891781 0.000000
O O11 0.000000 0.000000 0.159087
O O12 0.000000 0.099844 0.000000
O O13 0.548116 0.500000 0.500000
O O14 0.500000 0.620352 0.500000
O O15 0.750000 0.750000 0.752568
O O16 0.755759 0.616550 0.669181
O O17 0.196228 0.586200 0.500000
O O18 0.188763 0.500000 0.672507
#
# Coordination Sequence:
#
# PCOD9487926 Si02
#       7
#    16  16  16   8   8  16  16
#     4   9  17  29  43  65  94 124 150 185 233 272
#     4  11  20  32  47  66  92 120 152 183 222 270
#     4  10  20  32  44  59  85 120 156 191 223 260
#     4  11  22  35  51  69  94 126 156 186 219 262
#     4  11  20  30  46  68  92 115 145 187 222 266
#     4   9  17  28  44  63  87 118 153 193 232 269
#     4   9  16  27  45  67  92 121 154 188 227 279
#
# _framework density 14.726770999999999
#
# number of rings (size 3 to 8) (size 9 to 14) (size 15 to 20)
#    0.000    2.167    1.667    3.000    0.000    3.667 
#    0.000    0.000    0.000    0.000    0.000    0.583 
#    0.000    4.000    0.000    0.000    0.000    0.000 
#
# Total GULP energy -267229.398611 kJ/mol
# GULP energy per Si atom -5567.279138 kJ/mol
# Density = 1.469325 g / cm^3
# Si number density = 14.726771 Si / 1000 Ang^3
#
#
#
# Elastic Constant Matrix: (Units=GPa)
#
#
# Indices 1 2 3 4 5 6 
#
# 1 79.1749 39.2097 33.1470 0.0000 0.0000 0.0000
# 2 39.2097 88.6581 30.0321 0.0000 0.0000 0.0000
# 3 33.1470 30.0321 80.2236 0.0000 0.0000 0.0000
# 4 0.0000 0.0000 0.0000 18.7467 0.0000 0.0000
# 5 0.0000 0.0000 0.0000 0.0000 -137.6834 0.0000
# 6 0.0000 0.0000 0.0000 0.0000 0.0000 14.1362
#
#
#
# Elastic Compliance Matrix: (Units=1/GPa)
#
#
# Indices 1 2 3 4 5 6 
#
# 1 0.017793 -0.006160 -0.005046 0.000000 0.000000 0.000000
# 2 -0.006160 0.015050 -0.003089 0.000000 0.000000 0.000000
# 3 -0.005046 -0.003089 0.015706 0.000000 0.000000 0.000000
# 4 0.000000 0.000000 0.000000 0.053343 0.000000 0.000000
# 5 0.000000 0.000000 0.000000 0.000000 -0.007263 0.000000
# 6 0.000000 0.000000 0.000000 0.000000 0.000000 0.070740
#
#
# Mechanical properties :
#
#
# Convention : Reuss Voigt Hill
#
# Bulk Modulus (GPa) = 50.09962 50.31492 50.20727
# Shear Modulus (GPa) = 24.92366 -11.24891 6.83737
#
# Velocity S-wave (km/s) = 4.11835 -2.76677 2.15706
# Velocity P-wave (km/s) = 7.53045 4.90236 6.35377
#
# Compressibility (1/GPa) = 0.01996023
#
# Stress axis : x y z
#
# Youngs Moduli (GPa) = 56.20072 66.44571 63.66855
#
# Poissons Ratio (x) = 0.40931 0.32127
# Poissons Ratio (y) = 0.34620 0.19666
# Poissons Ratio (z) = 0.28358 0.20524
#
# Static dielectric constant tensor:
#      x y z
#    x 1.500810 0.000000 0.000000 
#    y 0.000000 1.495810 0.000000 
#    z 0.000000 0.000000 1.482030 
# 
# From -- ./inp_files/33894.got.cif
#   From: 2010.05.17/outbox.cif.g08.bks.cpg/sg65_17_cif.got.tgz:33894.got - 2010.06.03 17:01:31.
