data_PCOD9487916
_publ_section_title
;
Structure prediction by ZEFSAII (Michael W. Deem and Ramdas Pophale) SiO2 
 PCOD9487916
Probable space group: C M M M
;
_chemical_formula_sum "Si O2"
_cell_formula_units_Z 96
_cell_length_a 9.252917
_cell_length_b 30.618979
_cell_length_c 26.163674
_cell_angle_alpha 90.000000
_cell_angle_beta 90.000000
_cell_angle_gamma 90.000000
_cell_volume 7412.557932
_symmetry_space_group_name_H-M "C M M M"
_symmetry_group_IT_number 65
_symmetry_cell_setting 'orthorhombic'
loop_
_space_group_symop_operation_xyz
x,y,z
-x,-y,z
x,-y,-z
-x,y,-z
-x,-y,-z
x,y,-z
-x,y,z
x,-y,z
1/2+x,1/2+y,z
1/2-x,1/2-y,z
1/2+x,1/2-y,-z
1/2-x,1/2+y,-z
1/2-x,1/2-y,-z
1/2+x,1/2+y,-z
1/2-x,1/2+y,z
1/2+x,1/2-y,z
loop_
_atom_site_type_symbol
_atom_site_label
_atom_site_fract_x
_atom_site_fract_y
_atom_site_fract_z
Si Si1 0.666826 0.206425 0.562161
Si Si2 0.828717 0.882972 0.438900
Si Si3 0.331571 0.446935 0.056962
Si Si4 0.166508 0.446710 0.841877
Si Si5 0.328872 0.947766 0.363904
Si Si6 0.666027 0.446913 0.740188
O O1 0.664937 0.207672 0.500000
O O2 0.500000 0.205375 0.579133
O O3 0.750000 0.250000 0.579343
O O4 0.753192 0.162695 0.576122
O O5 0.809737 0.888549 0.500000
O O6 0.752110 0.921556 0.408140
O O7 0.000000 0.881657 0.428542
O O8 0.500000 0.435106 0.063981
O O9 0.326532 0.500000 0.056986
O O10 0.236643 0.432052 0.104695
O O11 0.284890 0.432829 0.000000
O O12 0.169068 0.500000 0.842060
O O13 0.258893 0.432539 0.792790
O O14 0.000000 0.433431 0.837385
O O15 0.500000 0.938771 0.364266
O O16 0.258427 0.934898 0.309591
O O17 0.309531 0.000000 0.370091
O O18 0.500000 0.432248 0.736397
O O19 0.664171 0.500000 0.741435
#
# Coordination Sequence:
#
# PCOD9487916 Si02
#       6
#    16  16  16  16  16  16
#     4   9  16  27  44  64  84 103 122 145 175 212
#     4  10  20  32  45  61  80 101 125 151 181 221
#     4   8  13  20  28  38  54  76 100 126 160 204
#     4   9  15  21  30  44  60  77 100 132 169 208
#     4  10  20  32  44  57  74  96 123 156 192 227
#     4   9  16  26  39  51  63  82 110 143 178 215
#
# _framework density 12.950995000000001
#
# number of rings (size 3 to 8) (size 9 to 14) (size 15 to 20)
#    0.000    2.833    0.000    3.000    0.000    8.667 
#    0.000    3.333    0.000    0.000    0.000    0.000 
#    0.000    0.000    0.000    0.000    0.000    0.000 
#
# Total GULP energy -267262.574746 kJ/mol
# GULP energy per Si atom -5567.970307 kJ/mol
# Density = 1.292152 g / cm^3
# Si number density = 12.950995 Si / 1000 Ang^3
#
#
#
# Elastic Constant Matrix: (Units=GPa)
#
#
# Indices 1 2 3 4 5 6 
#
# 1 127.0590 40.3061 66.5420 0.0000 0.0000 0.0000
# 2 40.3061 30.9566 31.2764 0.0000 0.0000 0.0000
# 3 66.5420 31.2764 74.1262 0.0000 0.0000 0.0000
# 4 0.0000 0.0000 0.0000 -0.5228 0.0000 0.0000
# 5 0.0000 0.0000 0.0000 0.0000 21.9344 0.0000
# 6 0.0000 0.0000 0.0000 0.0000 0.0000 15.1145
#
#
#
# Elastic Compliance Matrix: (Units=1/GPa)
#
#
# Indices 1 2 3 4 5 6 
#
# 1 0.016977 -0.011690 -0.010307 0.000000 0.000000 0.000000
# 2 -0.011690 0.064356 -0.016660 0.000000 0.000000 0.000000
# 3 -0.010307 -0.016660 0.029773 0.000000 0.000000 0.000000
# 4 0.000000 0.000000 0.000000 -1.912774 0.000000 0.000000
# 5 0.000000 0.000000 0.000000 0.000000 0.045591 0.000000
# 6 0.000000 0.000000 0.000000 0.000000 0.000000 0.066162
#
#
# Mechanical properties :
#
#
# Convention : Reuss Voigt Hill
#
# Bulk Modulus (GPa) = 29.59394 56.48787 43.04090
# Shear Modulus (GPa) = -3.12239 13.57303 5.22532
#
# Velocity S-wave (km/s) = -1.55440 3.24084 2.01083
# Velocity P-wave (km/s) = 4.43608 7.59706 6.22070
#
# Compressibility (1/GPa) = 0.03379071
#
# Stress axis : x y z
#
# Youngs Moduli (GPa) = 58.90368 15.53848 33.58800
#
# Poissons Ratio (x) = 0.18165 0.34620
# Poissons Ratio (y) = 0.68861 0.55957
# Poissons Ratio (z) = 0.60714 0.25887
#
# Static dielectric constant tensor:
#      x y z
#    x 1.433680 0.000000 0.000000 
#    y 0.000000 1.390310 0.000000 
#    z 0.000000 0.000000 1.423880 
# 
# From -- ./inp_files/68073.got.cif
#   From: 2010.05.17/outbox.cif.g08.bks.cpg/sg65_35_cif.got.tgz:68073.got - 2010.06.03 17:01:31.
