data_PCOD9487806
_publ_section_title
;
Structure prediction by ZEFSAII (Michael W. Deem and Ramdas Pophale) SiO2 
 PCOD9487806
Probable space group: C M M M
;
_chemical_formula_sum "Si O2"
_cell_formula_units_Z 72
_cell_length_a 29.161479
_cell_length_b 8.857174
_cell_length_c 18.667070
_cell_angle_alpha 90.000000
_cell_angle_beta 90.000000
_cell_angle_gamma 90.000000
_cell_volume 4821.485657
_symmetry_space_group_name_H-M "C M M M"
_symmetry_group_IT_number 65
_symmetry_cell_setting 'orthorhombic'
loop_
_space_group_symop_operation_xyz
x,y,z
-x,-y,z
x,-y,-z
-x,y,-z
-x,-y,-z
x,y,-z
-x,y,z
x,-y,z
1/2+x,1/2+y,z
1/2-x,1/2-y,z
1/2+x,1/2-y,-z
1/2-x,1/2+y,-z
1/2-x,1/2-y,-z
1/2+x,1/2+y,-z
1/2-x,1/2+y,z
1/2+x,1/2-y,z
loop_
_atom_site_type_symbol
_atom_site_label
_atom_site_fract_x
_atom_site_fract_y
_atom_site_fract_z
Si Si1 0.054091 0.679815 0.228056
Si Si2 0.444448 0.323468 0.079012
Si Si3 0.890860 0.818609 0.640770
Si Si4 0.799289 0.319435 0.584385
Si Si5 0.052448 0.183544 0.500000
O O1 0.057651 0.500000 0.235048
O O2 0.069555 0.730618 0.148675
O O3 0.083820 0.760277 0.288614
O O4 0.000000 0.721243 0.236233
O O5 0.500000 0.316589 0.077485
O O6 0.432160 0.500000 0.087413
O O7 0.428515 0.271831 0.000000
O O8 0.840517 0.750285 0.629766
O O9 0.920790 0.770038 0.571450
O O10 0.888439 0.000000 0.641325
O O11 0.807475 0.282646 0.500000
O O12 0.798205 0.500000 0.591367
O O13 0.750000 0.250000 0.603485
O O14 0.000000 0.236903 0.500000
O O15 0.051580 0.000000 0.500000
#
# Coordination Sequence:
#
# PCOD9487806 Si02
#       5
#    16  16  16  16   8
#     4  10  20  31  43  64  95 128 160 194 234 277
#     4   8  14  26  44  64  86 116 155 194 231 273
#     4  11  20  32  49  67  91 121 158 197 236 278
#     4  10  20  34  52  71  92 115 147 190 239 287
#     4   9  18  30  44  63  86 117 158 197 228 265
#
# _framework density 14.933157
#
# number of rings (size 3 to 8) (size 9 to 14) (size 15 to 20)
#    0.000    2.333    1.111    3.333    0.000    3.556 
#    0.000    2.222    0.000    2.667    0.000    0.000 
#    0.000    0.889    0.000    3.333    0.000    5.111 
#
# Total GULP energy -200727.363330 kJ/mol
# GULP energy per Si atom -5575.760093 kJ/mol
# Density = 1.489917 g / cm^3
# Si number density = 14.933157 Si / 1000 Ang^3
#
#
#
# Elastic Constant Matrix: (Units=GPa)
#
#
# Indices 1 2 3 4 5 6 
#
# 1 93.6440 39.4063 57.4749 0.0000 0.0000 0.0000
# 2 39.4063 50.3919 45.4948 0.0000 0.0000 0.0000
# 3 57.4749 45.4948 118.7696 0.0000 0.0000 0.0000
# 4 0.0000 0.0000 0.0000 19.6428 0.0000 0.0000
# 5 0.0000 0.0000 0.0000 0.0000 3.4125 0.0000
# 6 0.0000 0.0000 0.0000 0.0000 0.0000 20.8209
#
#
#
# Elastic Compliance Matrix: (Units=1/GPa)
#
#
# Indices 1 2 3 4 5 6 
#
# 1 0.017650 -0.009311 -0.004975 0.000000 0.000000 0.000000
# 2 -0.009311 0.035247 -0.008996 0.000000 0.000000 0.000000
# 3 -0.004975 -0.008996 0.014273 0.000000 0.000000 0.000000
# 4 0.000000 0.000000 0.000000 0.050909 0.000000 0.000000
# 5 0.000000 0.000000 0.000000 0.000000 0.293039 0.000000
# 6 0.000000 0.000000 0.000000 0.000000 0.000000 0.048029
#
#
# Mechanical properties :
#
#
# Convention : Reuss Voigt Hill
#
# Bulk Modulus (GPa) = 48.52649 60.83971 54.68310
# Shear Modulus (GPa) = 9.75460 16.80390 13.27925
#
# Velocity S-wave (km/s) = 2.55859 3.35815 2.98526
# Velocity P-wave (km/s) = 6.42610 7.47436 6.96997
#
# Compressibility (1/GPa) = 0.02060730
#
# Stress axis : x y z
#
# Youngs Moduli (GPa) = 56.65658 28.37109 70.06367
#
# Poissons Ratio (x) = 0.26417 0.34854
# Poissons Ratio (y) = 0.52754 0.63026
# Poissons Ratio (z) = 0.28184 0.25521
#
# Static dielectric constant tensor:
#      x y z
#    x 1.470650 0.000000 0.000000 
#    y 0.000000 1.493160 0.000000 
#    z 0.000000 0.000000 1.496180 
# 
# From -- ./inp_files/36562.got.cif
#   From: 2010.05.17/outbox.cif.g08.bks.cpg/sg65_19_cif.got.tgz:36562.got - 2010.06.03 17:01:31.
