data_PCOD9487857
_publ_section_title
;
Structure prediction by ZEFSAII (Michael W. Deem and Ramdas Pophale) SiO2 
 PCOD9487857
Probable space group: C M M M
;
_chemical_formula_sum "Si O2"
_cell_formula_units_Z 88
_cell_length_a 31.339544
_cell_length_b 18.099127
_cell_length_c 9.364887
_cell_angle_alpha 90.000000
_cell_angle_beta 90.000000
_cell_angle_gamma 90.000000
_cell_volume 5311.936098
_symmetry_space_group_name_H-M "C M M M"
_symmetry_group_IT_number 65
_symmetry_cell_setting 'orthorhombic'
loop_
_space_group_symop_operation_xyz
x,y,z
-x,-y,z
x,-y,-z
-x,y,-z
-x,-y,-z
x,y,-z
-x,y,z
x,-y,z
1/2+x,1/2+y,z
1/2-x,1/2-y,z
1/2+x,1/2-y,-z
1/2-x,1/2+y,-z
1/2-x,1/2-y,-z
1/2+x,1/2+y,-z
1/2-x,1/2+y,z
1/2+x,1/2-y,z
loop_
_atom_site_type_symbol
_atom_site_label
_atom_site_fract_x
_atom_site_fract_y
_atom_site_fract_z
Si Si1 0.082910 0.864321 0.334565
Si Si2 0.621131 0.200002 0.667494
Si Si3 0.500000 0.411369 0.832903
Si Si4 0.798564 0.761308 0.829473
Si Si5 0.451622 0.086205 0.673642
Si Si6 0.162012 0.080638 0.166992
O O1 0.076106 0.882811 0.500000
O O2 0.097102 0.778857 0.324763
O O3 0.121067 0.911330 0.266617
O O4 0.041189 0.879084 0.243883
O O5 0.630460 0.185342 0.500000
O O6 0.665311 0.212128 0.752254
O O7 0.587451 0.138265 0.720959
O O8 0.500000 0.500000 0.817886
O O9 0.500000 0.393576 0.000000
O O10 0.750000 0.750000 0.781442
O O11 0.809624 0.847570 0.804875
O O12 0.800846 0.747485 0.000000
O O13 0.451751 0.090006 0.500000
O O14 0.500000 0.108421 0.719211
O O15 0.445482 0.000000 0.712436
O O16 0.182379 0.000000 0.188059
O O17 0.148763 0.085116 0.000000
#
# Coordination Sequence:
#
# PCOD9487857 Si02
#       6
#    16  16   8  16  16  16
#     4  10  20  31  46  69  95 122 153 195 239 275
#     4   9  18  31  50  74  98 124 157 199 241 284
#     4  11  23  35  45  61  90 127 162 192 225 269
#     4   9  18  33  51  70  95 126 160 199 243 292
#     4   8  14  26  47  73  99 129 163 197 235 285
#     4   9  17  31  50  68  89 121 160 196 231 280
#
# _framework density 16.566464
#
# number of rings (size 3 to 8) (size 9 to 14) (size 15 to 20)
#    0.000    2.818    0.000    1.909    1.273    4.364 
#    0.000    0.909    0.000    1.636    0.000    1.273 
#    0.000    0.000    0.000    0.000    0.000    0.000 
#
# Total GULP energy -245074.246734 kJ/mol
# GULP energy per Si atom -5569.869244 kJ/mol
# Density = 1.652876 g / cm^3
# Si number density = 16.566464 Si / 1000 Ang^3
#
#
#
# Elastic Constant Matrix: (Units=GPa)
#
#
# Indices 1 2 3 4 5 6 
#
# 1 150.9129 60.0096 63.7969 0.0000 0.0000 0.0000
# 2 60.0096 75.4912 29.5566 0.0000 0.0000 0.0000
# 3 63.7969 29.5566 53.5858 0.0000 0.0000 0.0000
# 4 0.0000 0.0000 0.0000 14.8934 0.0000 0.0000
# 5 0.0000 0.0000 0.0000 0.0000 30.9672 0.0000
# 6 0.0000 0.0000 0.0000 0.0000 0.0000 10.8278
#
#
#
# Elastic Compliance Matrix: (Units=1/GPa)
#
#
# Indices 1 2 3 4 5 6 
#
# 1 0.015492 -0.006496 -0.014860 0.000000 0.000000 0.000000
# 2 -0.006496 0.019620 -0.003087 0.000000 0.000000 0.000000
# 3 -0.014860 -0.003087 0.038057 0.000000 0.000000 0.000000
# 4 0.000000 0.000000 0.000000 0.067144 0.000000 0.000000
# 5 0.000000 0.000000 0.000000 0.000000 0.032292 0.000000
# 6 0.000000 0.000000 0.000000 0.000000 0.000000 0.092355
#
#
# Mechanical properties :
#
#
# Convention : Reuss Voigt Hill
#
# Bulk Modulus (GPa) = 41.18683 65.19068 53.18875
# Shear Modulus (GPa) = 15.53083 19.77947 17.65515
#
# Velocity S-wave (km/s) = 3.06516 3.45910 3.26807
# Velocity P-wave (km/s) = 6.11903 7.44246 6.81296
#
# Compressibility (1/GPa) = 0.02427961
#
# Stress axis : x y z
#
# Youngs Moduli (GPa) = 64.55045 50.96970 26.27656
#
# Poissons Ratio (x) = 0.33112 0.39048
# Poissons Ratio (y) = 0.41935 0.08112
# Poissons Ratio (z) = 0.95925 0.15735
#
# Static dielectric constant tensor:
#      x y z
#    x 1.541780 0.000000 0.000000 
#    y 0.000000 1.567370 0.000000 
#    z 0.000000 0.000000 1.553740 
# 
# From -- ./inp_files/10104.got.cif
#   From: 2010.05.17/outbox.cif.g08.bks.cpg/sg65_6_cif.got.tgz:10104.got - 2010.06.03 17:01:31.
