data_PCOD9487621
_publ_section_title
;
Structure prediction by ZEFSAII (Michael W. Deem and Ramdas Pophale) SiO2 
 PCOD9487621
Probable space group: C M M M
;
_chemical_formula_sum "Si O2"
_cell_formula_units_Z 108
_cell_length_a 14.718164
_cell_length_b 22.819531
_cell_length_c 17.586364
_cell_angle_alpha 90.000000
_cell_angle_beta 90.000000
_cell_angle_gamma 90.000000
_cell_volume 5906.584345
_symmetry_space_group_name_H-M "C M M M"
_symmetry_group_IT_number 65
_symmetry_cell_setting 'orthorhombic'
loop_
_space_group_symop_operation_xyz
x,y,z
-x,-y,z
x,-y,-z
-x,y,-z
-x,-y,-z
x,y,-z
-x,y,z
x,-y,z
1/2+x,1/2+y,z
1/2-x,1/2-y,z
1/2+x,1/2-y,-z
1/2-x,1/2+y,-z
1/2-x,1/2-y,-z
1/2+x,1/2+y,-z
1/2-x,1/2+y,z
1/2+x,1/2-y,z
loop_
_atom_site_type_symbol
_atom_site_label
_atom_site_fract_x
_atom_site_fract_y
_atom_site_fract_z
Si Si1 0.396757 0.339296 0.220670
Si Si2 0.250000 0.250000 0.500000
Si Si3 0.392488 0.880711 0.662127
Si Si4 0.393209 0.254778 0.637800
Si Si5 0.890113 0.432563 0.500000
Si Si6 0.101154 0.613881 0.090618
Si Si7 0.237116 0.432378 0.789757
Si Si8 0.640705 0.750851 0.087425
O O1 0.500000 0.361075 0.228384
O O2 0.374248 0.300809 0.295273
O O3 0.323841 0.390330 0.211972
O O4 0.392464 0.296140 0.148080
O O5 0.327245 0.261363 0.566864
O O6 0.500000 0.894839 0.671009
O O7 0.381562 0.811130 0.670212
O O8 0.363695 0.898754 0.576473
O O9 0.330900 0.914465 0.721728
O O10 0.500000 0.259692 0.616237
O O11 0.858568 0.500000 0.500000
O O12 0.000000 0.433701 0.500000
O O13 0.179134 0.580157 0.134508
O O14 0.109712 0.683365 0.107584
O O15 0.000000 0.594216 0.113480
O O16 0.110097 0.607634 0.000000
O O17 0.262282 0.500000 0.783860
O O18 0.750000 0.750000 0.089318
O O19 0.612508 0.738789 0.000000
#
# Coordination Sequence:
#
# PCOD9487621 Si02
#       8
#    16   4  16  16   8  16  16  16
#     4  11  24  41  60  83 116 154 195 245 298 344
#     4  12  20  32  58  84 124 160 178 218 272 356
#     4  10  20  35  56  85 118 147 181 231 289 348
#     4  10  22  37  57  88 120 152 189 236 295 354
#     4   9  17  30  49  76 117 161 188 212 260 334
#     4  10  21  37  58  87 121 152 183 229 293 359
#     4  12  25  39  57  80 109 151 203 245 283 342
#     4  10  19  35  63  93 120 148 185 234 288 345
#
# _framework density 18.284679000000001
#
# number of rings (size 3 to 8) (size 9 to 14) (size 15 to 20)
#    0.000    1.556    1.481    3.778    1.037    5.630 
#    0.000    0.741    0.000    0.000    0.000    2.074 
#    0.000    6.519    0.000    0.000    0.000    0.000 
#
# Total GULP energy -301297.817226 kJ/mol
# GULP energy per Si atom -5579.589208 kJ/mol
# Density = 1.824306 g / cm^3
# Si number density = 18.284679 Si / 1000 Ang^3
#
#
#
# Elastic Constant Matrix: (Units=GPa)
#
#
# Indices 1 2 3 4 5 6 
#
# 1 94.3130 46.5347 45.0289 0.0000 0.0000 0.0000
# 2 46.5347 76.5025 38.4472 0.0000 0.0000 0.0000
# 3 45.0289 38.4472 83.8820 0.0000 0.0000 0.0000
# 4 0.0000 0.0000 0.0000 8.8498 0.0000 0.0000
# 5 0.0000 0.0000 0.0000 0.0000 29.4093 0.0000
# 6 0.0000 0.0000 0.0000 0.0000 0.0000 -8.8169
#
#
#
# Elastic Compliance Matrix: (Units=1/GPa)
#
#
# Indices 1 2 3 4 5 6 
#
# 1 0.017021 -0.007486 -0.005706 0.000000 0.000000 0.000000
# 2 -0.007486 0.020276 -0.005275 0.000000 0.000000 0.000000
# 3 -0.005706 -0.005275 0.017402 0.000000 0.000000 0.000000
# 4 0.000000 0.000000 0.000000 0.112997 0.000000 0.000000
# 5 0.000000 0.000000 0.000000 0.000000 0.034003 0.000000
# 6 0.000000 0.000000 0.000000 0.000000 0.000000 -0.113419
#
#
# Mechanical properties :
#
#
# Convention : Reuss Voigt Hill
#
# Bulk Modulus (GPa) = 56.28828 57.19102 56.73965
# Shear Modulus (GPa) = 38.12872 14.20090 26.16481
#
# Velocity S-wave (km/s) = 4.57144 2.78988 3.78692
# Velocity P-wave (km/s) = 7.66259 6.45940 7.08658
#
# Compressibility (1/GPa) = 0.01776569
#
# Stress axis : x y z
#
# Youngs Moduli (GPa) = 58.75186 49.31969 57.46383
#
# Poissons Ratio (x) = 0.36920 0.32788
# Poissons Ratio (y) = 0.43980 0.30312
# Poissons Ratio (z) = 0.33523 0.26016
#
# Static dielectric constant tensor:
#      x y z
#    x 1.636490 0.000000 0.000000 
#    y 0.000000 1.617170 0.000000 
#    z 0.000000 0.000000 1.633650 
# 
# From -- ./inp_files/40902.got.cif
#   From: 2010.05.17/outbox.cif.g08.bks.cpg/sg65_21_cif.got.tgz:40902.got - 2010.06.03 17:01:31.
