data_PCOD9487270
_publ_section_title
;
Structure prediction by ZEFSAII (Michael W. Deem and Ramdas Pophale) SiO2 
 PCOD9487270
Probable space group: C M M M
;
_chemical_formula_sum "Si O2"
_cell_formula_units_Z 88
_cell_length_a 8.710157
_cell_length_b 29.429442
_cell_length_c 18.446314
_cell_angle_alpha 90.000000
_cell_angle_beta 90.000000
_cell_angle_gamma 90.000000
_cell_volume 4728.437010
_symmetry_space_group_name_H-M "C M M M"
_symmetry_group_IT_number 65
_symmetry_cell_setting 'orthorhombic'
loop_
_space_group_symop_operation_xyz
x,y,z
-x,-y,z
x,-y,-z
-x,y,-z
-x,-y,-z
x,y,-z
-x,y,z
x,-y,z
1/2+x,1/2+y,z
1/2-x,1/2-y,z
1/2+x,1/2-y,-z
1/2-x,1/2+y,-z
1/2-x,1/2-y,-z
1/2+x,1/2+y,-z
1/2-x,1/2+y,z
1/2+x,1/2-y,z
loop_
_atom_site_type_symbol
_atom_site_label
_atom_site_fract_x
_atom_site_fract_y
_atom_site_fract_z
Si Si1 0.685401 0.446833 0.778681
Si Si2 0.184163 0.052873 0.500000
Si Si3 0.184409 0.701869 0.311013
Si Si4 0.814836 0.109466 0.919386
Si Si5 0.816170 0.701611 0.141056
Si Si6 0.184268 0.604235 0.639107
O O1 0.500000 0.442828 0.771884
O O2 0.724056 0.500000 0.776798
O O3 0.732517 0.424008 0.854639
O O4 0.762591 0.420627 0.712358
O O5 0.245282 0.078445 0.429120
O O6 0.000000 0.053634 0.500000
O O7 0.233681 0.000000 0.500000
O O8 0.250000 0.750000 0.336543
O O9 0.229019 0.695986 0.226146
O O10 0.233527 0.657047 0.354327
O O11 0.000000 0.704163 0.313069
O O12 0.749507 0.159213 0.902471
O O13 0.000000 0.111795 0.917846
O O14 0.767916 0.094584 0.000000
O O15 0.750000 0.750000 0.116436
O O16 0.000000 0.702184 0.136883
O O17 0.000000 0.603106 0.634340
#
# Coordination Sequence:
#
# PCOD9487270 Si02
#       6
#    16   8  16  16  16  16
#     4  10  21  37  58  83 111 148 193 239 288 343
#     4  11  25  43  62  89 122 155 194 237 282 333
#     4   9  19  34  56  86 116 147 187 231 276 334
#     4  10  21  36  54  79 112 150 193 240 289 341
#     4  10  19  34  55  81 112 147 188 235 286 340
#     4  11  22  39  62  90 120 151 189 234 285 340
#
# _framework density 18.610800000000001
#
# number of rings (size 3 to 8) (size 9 to 14) (size 15 to 20)
#    0.000    1.909    1.818    1.909    0.000    6.545 
#    0.000    2.273    0.000    0.000    0.000    2.545 
#    0.000    0.000    0.000    0.000    0.000    0.000 
#
# Total GULP energy -245745.163889 kJ/mol
# GULP energy per Si atom -5585.117361 kJ/mol
# Density = 1.856844 g / cm^3
# Si number density = 18.610800 Si / 1000 Ang^3
#
#
#
# Elastic Constant Matrix: (Units=GPa)
#
#
# Indices 1 2 3 4 5 6 
#
# 1 21.4137 35.6476 36.0410 0.0000 0.0000 0.0000
# 2 35.6476 156.2568 87.1669 0.0000 0.0000 0.0000
# 3 36.0410 87.1669 134.2933 0.0000 0.0000 0.0000
# 4 0.0000 0.0000 0.0000 5.7610 0.0000 0.0000
# 5 0.0000 0.0000 0.0000 0.0000 -1.3045 0.0000
# 6 0.0000 0.0000 0.0000 0.0000 0.0000 28.4876
#
#
#
# Elastic Compliance Matrix: (Units=1/GPa)
#
#
# Indices 1 2 3 4 5 6 
#
# 1 0.097707 -0.012012 -0.018425 0.000000 0.000000 0.000000
# 2 -0.012012 0.011509 -0.004247 0.000000 0.000000 0.000000
# 3 -0.018425 -0.004247 0.015148 0.000000 0.000000 0.000000
# 4 0.000000 0.000000 0.000000 0.173581 0.000000 0.000000
# 5 0.000000 0.000000 0.000000 0.000000 -0.766597 0.000000
# 6 0.000000 0.000000 0.000000 0.000000 0.000000 0.035103
#
#
# Mechanical properties :
#
#
# Convention : Reuss Voigt Hill
#
# Bulk Modulus (GPa) = 18.18326 69.96388 44.07357
# Shear Modulus (GPa) = -14.45709 16.79606 1.16948
#
# Velocity S-wave (km/s) = -2.79016 3.00741 0.79357
# Velocity P-wave (km/s) = 0.76713 7.05224 4.95710
#
# Compressibility (1/GPa) = 0.05499565
#
# Stress axis : x y z
#
# Youngs Moduli (GPa) = 10.23472 86.88911 66.01675
#
# Poissons Ratio (x) = 1.04369 1.21639
# Poissons Ratio (y) = 0.12294 0.28034
# Poissons Ratio (z) = 0.18858 0.36898
#
# Static dielectric constant tensor:
#      x y z
#    x 1.624560 0.000000 0.000000 
#    y 0.000000 1.625190 0.000000 
#    z 0.000000 0.000000 1.633500 
# 
# From -- ./inp_files/50464.got.cif
#   From: 2010.05.17/outbox.cif.g08.bks.cpg/sg65_26_cif.got.tgz:50464.got - 2010.06.03 17:01:31.
