data_PCOD9487632
_publ_section_title
;
Structure prediction by ZEFSAII (Michael W. Deem and Ramdas Pophale) SiO2 
 PCOD9487632
Probable space group: C M M M
;
_chemical_formula_sum "Si O2"
_cell_formula_units_Z 100
_cell_length_a 20.979958
_cell_length_b 7.800038
_cell_length_c 30.514156
_cell_angle_alpha 90.000000
_cell_angle_beta 90.000000
_cell_angle_gamma 90.000000
_cell_volume 4993.472875
_symmetry_space_group_name_H-M "C M M M"
_symmetry_group_IT_number 65
_symmetry_cell_setting 'orthorhombic'
loop_
_space_group_symop_operation_xyz
x,y,z
-x,-y,z
x,-y,-z
-x,y,-z
-x,-y,-z
x,y,-z
-x,y,z
x,-y,z
1/2+x,1/2+y,z
1/2-x,1/2-y,z
1/2+x,1/2-y,-z
1/2-x,1/2+y,-z
1/2-x,1/2-y,-z
1/2+x,1/2+y,-z
1/2-x,1/2+y,z
1/2+x,1/2-y,z
loop_
_atom_site_type_symbol
_atom_site_label
_atom_site_fract_x
_atom_site_fract_y
_atom_site_fract_z
Si Si1 0.681892 0.696654 0.383372
Si Si2 0.675122 0.293242 0.856562
Si Si3 0.174929 0.206351 0.046984
Si Si4 0.000000 0.000000 0.339987
Si Si5 0.925858 0.208615 0.783274
Si Si6 0.094350 0.690058 0.315988
Si Si7 0.070598 0.292911 0.448967
O O1 0.685497 0.500000 0.371804
O O2 0.750000 0.750000 0.401572
O O3 0.662418 0.797311 0.339597
O O4 0.626910 0.726964 0.419052
O O5 0.672032 0.500000 0.857203
O O6 0.750000 0.250000 0.849199
O O7 0.653972 0.230277 0.905136
O O8 0.625374 0.235408 0.819610
O O9 0.250000 0.250000 0.046291
O O10 0.167863 0.000000 0.047004
O O11 0.148247 0.269753 0.000000
O O12 0.945618 0.152454 0.335513
O O13 0.907522 0.283199 0.736030
O O14 0.000000 0.253581 0.792883
O O15 0.923978 0.000000 0.779809
O O16 0.069461 0.500000 0.326317
O O17 0.078562 0.245580 0.500000
O O18 0.070366 0.500000 0.446714
O O19 0.000000 0.230825 0.434791
#
# Coordination Sequence:
#
# PCOD9487632 Si02
#       7
#    16  16  16   4  16  16  16
#     4  12  26  44  63  91 127 165 210 254 307 371
#     4   9  18  30  48  72 103 139 175 229 287 337
#     4   8  13  23  40  64  93 128 172 219 272 333
#     4  12  22  44  64  98 121 154 201 254 296 362
#     4  10  19  36  55  76 107 145 192 235 281 346
#     4  12  24  41  66  93 123 158 202 251 301 354
#     4   9  20  40  66  96 127 162 207 256 307 364
#
# _framework density 20.026143999999999
#
# number of rings (size 3 to 8) (size 9 to 14) (size 15 to 20)
#    0.000    1.920    2.400    2.160    1.120    2.240 
#    0.000    2.400    0.000    0.480    0.000    3.360 
#    0.000    0.000    0.000   27.360    0.000   15.680 
#
# Total GULP energy -278378.412745 kJ/mol
# GULP energy per Si atom -5567.568255 kJ/mol
# Density = 1.998056 g / cm^3
# Si number density = 20.026144 Si / 1000 Ang^3
#
#
#
# Elastic Constant Matrix: (Units=GPa)
#
#
# Indices 1 2 3 4 5 6 
#
# 1 123.2276 21.9906 80.1742 0.0000 0.0000 0.0000
# 2 21.9906 89.3441 14.4539 0.0000 0.0000 0.0000
# 3 80.1742 14.4539 125.2496 0.0000 0.0000 0.0000
# 4 0.0000 0.0000 0.0000 -2.3470 0.0000 0.0000
# 5 0.0000 0.0000 0.0000 0.0000 -11.5355 0.0000
# 6 0.0000 0.0000 0.0000 0.0000 0.0000 7.2279
#
#
#
# Elastic Compliance Matrix: (Units=1/GPa)
#
#
# Indices 1 2 3 4 5 6 
#
# 1 0.014274 -0.002074 -0.008898 0.000000 0.000000 0.000000
# 2 -0.002074 0.011707 -0.000023 0.000000 0.000000 0.000000
# 3 -0.008898 -0.000023 0.013682 0.000000 0.000000 0.000000
# 4 0.000000 0.000000 0.000000 -0.426081 0.000000 0.000000
# 5 0.000000 0.000000 0.000000 0.000000 -0.086689 0.000000
# 6 0.000000 0.000000 0.000000 0.000000 0.000000 0.138354
#
#
# Mechanical properties :
#
#
# Convention : Reuss Voigt Hill
#
# Bulk Modulus (GPa) = 56.58281 63.45096 60.01689
# Shear Modulus (GPa) = -16.29351 13.41590 -1.43880
#
# Velocity S-wave (km/s) = -2.85548 2.59109 -0.84854
# Velocity P-wave (km/s) = 4.17661 6.38001 5.39206
#
# Compressibility (1/GPa) = 0.01767321
#
# Stress axis : x y z
#
# Youngs Moduli (GPa) = 70.05600 85.41946 73.08642
#
# Poissons Ratio (x) = 0.17715 0.65031
# Poissons Ratio (y) = 0.14529 0.00171
# Poissons Ratio (z) = 0.62335 0.00200
#
# Static dielectric constant tensor:
#      x y z
#    x 1.625620 0.000000 0.000000 
#    y 0.000000 1.725950 0.000000 
#    z 0.000000 0.000000 1.753210 
# 
# From -- ./inp_files/78199.got.cif
#   From: 2010.05.17/outbox.cif.g08.bks.cpg/sg65_40_cif.got.tgz:78199.got - 2010.06.03 17:01:31.
