data_PCOD9487028
_publ_section_title
;
Structure prediction by ZEFSAII (Michael W. Deem and Ramdas Pophale) SiO2 
 PCOD9487028
Probable space group: C M M M
;
_chemical_formula_sum "Si O2"
_cell_formula_units_Z 72
_cell_length_a 15.311307
_cell_length_b 15.073652
_cell_length_c 14.223788
_cell_angle_alpha 90.000000
_cell_angle_beta 90.000000
_cell_angle_gamma 90.000000
_cell_volume 3282.812057
_symmetry_space_group_name_H-M "C M M M"
_symmetry_group_IT_number 65
_symmetry_cell_setting 'orthorhombic'
loop_
_space_group_symop_operation_xyz
x,y,z
-x,-y,z
x,-y,-z
-x,y,-z
-x,-y,-z
x,y,-z
-x,y,z
x,-y,z
1/2+x,1/2+y,z
1/2-x,1/2-y,z
1/2+x,1/2-y,-z
1/2-x,1/2+y,-z
1/2-x,1/2-y,-z
1/2+x,1/2+y,-z
1/2-x,1/2+y,z
1/2+x,1/2-y,z
loop_
_atom_site_type_symbol
_atom_site_label
_atom_site_fract_x
_atom_site_fract_y
_atom_site_fract_z
Si Si1 0.840779 0.400825 0.712851
Si Si2 0.130288 0.906608 0.701196
Si Si3 0.640188 0.642355 0.500000
Si Si4 0.393048 0.605673 0.000000
Si Si5 0.851911 0.651141 0.500000
Si Si6 0.096167 0.240985 0.161567
O O1 0.868404 0.500000 0.740022
O O2 0.735427 0.399077 0.705801
O O3 0.876363 0.383880 0.605394
O O4 0.862489 0.329278 0.793754
O O5 0.107319 0.903238 0.592832
O O6 0.090988 0.821915 0.748579
O O7 0.104050 0.000000 0.746059
O O8 0.746532 0.639124 0.500000
O O9 0.621063 0.746535 0.500000
O O10 0.364306 0.669524 0.087153
O O11 0.365058 0.500000 0.000000
O O12 0.500000 0.601774 0.000000
O O13 0.000000 0.264747 0.125120
#
# Coordination Sequence:
#
# PCOD9487028 Si02
#       6
#    16  16   8   8   8  16
#     4  10  20  35  56  82 113 150 189 223 260 313
#     4  10  19  33  55  82 112 145 182 225 272 321
#     4   9  15  27  51  79 109 144 187 222 261 312
#     4   9  20  40  62  81 103 139 183 222 274 346
#     4   9  15  29  53  77 109 152 193 220 249 304
#     4  11  22  37  58  81 107 138 180 230 277 329
#
# _framework density 21.932416
#
# number of rings (size 3 to 8) (size 9 to 14) (size 15 to 20)
#    0.000    2.111    2.222    2.000    0.000    4.444 
#    0.000    5.000    0.000    7.333    0.000    0.000 
#    0.000    0.000    0.000    0.000    0.000    0.000 
#
# Total GULP energy -200434.367822 kJ/mol
# GULP energy per Si atom -5567.621328 kJ/mol
# Density = 2.188250 g / cm^3
# Si number density = 21.932416 Si / 1000 Ang^3
#
#
#
# Elastic Constant Matrix: (Units=GPa)
#
#
# Indices 1 2 3 4 5 6 
#
# 1 33.4517 26.9909 11.4964 0.0000 0.0000 0.0000
# 2 26.9909 191.3059 71.5152 0.0000 0.0000 0.0000
# 3 11.4964 71.5152 112.1838 0.0000 0.0000 0.0000
# 4 0.0000 0.0000 0.0000 23.6915 0.0000 0.0000
# 5 0.0000 0.0000 0.0000 0.0000 12.7561 0.0000
# 6 0.0000 0.0000 0.0000 0.0000 0.0000 -30.6482
#
#
#
# Elastic Compliance Matrix: (Units=1/GPa)
#
#
# Indices 1 2 3 4 5 6 
#
# 1 0.033760 -0.004555 -0.000556 0.000000 0.000000 0.000000
# 2 -0.004555 0.007477 -0.004300 0.000000 0.000000 0.000000
# 3 -0.000556 -0.004300 0.011712 0.000000 0.000000 0.000000
# 4 0.000000 0.000000 0.000000 0.042209 0.000000 0.000000
# 5 0.000000 0.000000 0.000000 0.000000 0.078394 0.000000
# 6 0.000000 0.000000 0.000000 0.000000 0.000000 -0.032628
#
#
# Mechanical properties :
#
#
# Convention : Reuss Voigt Hill
#
# Bulk Modulus (GPa) = 29.30167 61.88294 45.59230
# Shear Modulus (GPa) = 29.21884 16.28915 22.75400
#
# Velocity S-wave (km/s) = 3.65392 2.72820 3.22446
# Velocity P-wave (km/s) = 5.58485 6.18067 5.89030
#
# Compressibility (1/GPa) = 0.03412775
#
# Stress axis : x y z
#
# Youngs Moduli (GPa) = 29.62050 133.73745 85.38286
#
# Poissons Ratio (x) = 0.60923 0.04745
# Poissons Ratio (y) = 0.13493 0.36713
# Poissons Ratio (z) = 0.01646 0.57505
#
# Static dielectric constant tensor:
#      x y z
#    x 1.912800 0.000000 0.000000 
#    y 0.000000 1.775400 0.000000 
#    z 0.000000 0.000000 1.871240 
# 
# From -- ./inp_files/42218.got.cif
#   From: 2010.05.17/outbox.cif.g08.bks.cpg/sg65_22_cif.got.tgz:42218.got - 2010.06.03 17:01:31.
