data_PCOD9487227
_publ_section_title
;
Structure prediction by ZEFSAII (Michael W. Deem and Ramdas Pophale) SiO2 
 PCOD9487227
Probable space group: C M M M
;
_chemical_formula_sum "Si O2"
_cell_formula_units_Z 88
_cell_length_a 19.345306
_cell_length_b 29.372980
_cell_length_c 7.604492
_cell_angle_alpha 90.000000
_cell_angle_beta 90.000000
_cell_angle_gamma 90.000000
_cell_volume 4321.095061
_symmetry_space_group_name_H-M "C M M M"
_symmetry_group_IT_number 65
_symmetry_cell_setting 'orthorhombic'
loop_
_space_group_symop_operation_xyz
x,y,z
-x,-y,z
x,-y,-z
-x,y,-z
-x,-y,-z
x,y,-z
-x,y,z
x,-y,z
1/2+x,1/2+y,z
1/2-x,1/2-y,z
1/2+x,1/2-y,-z
1/2-x,1/2+y,-z
1/2-x,1/2-y,-z
1/2+x,1/2+y,-z
1/2-x,1/2+y,z
1/2+x,1/2-y,z
loop_
_atom_site_type_symbol
_atom_site_label
_atom_site_fract_x
_atom_site_fract_y
_atom_site_fract_z
Si Si1 0.287837 0.681887 0.784443
Si Si2 0.854214 0.724088 0.789718
Si Si3 0.854264 0.088986 0.791629
Si Si4 0.233835 0.000000 0.289423
Si Si5 0.500000 0.447048 0.215825
Si Si6 0.000000 0.424980 0.285098
Si Si7 0.109132 0.500000 0.285507
Si Si8 0.500000 0.821657 0.707209
O O1 0.209076 0.692089 0.727327
O O2 0.335085 0.724844 0.729419
O O3 0.318256 0.634295 0.720359
O O4 0.287185 0.681048 0.000000
O O5 0.929985 0.705410 0.750486
O O6 0.848840 0.725459 0.000000
O O7 0.806738 0.044897 0.767934
O O8 0.930344 0.077311 0.722147
O O9 0.862802 0.096391 0.000000
O O10 0.312457 0.000000 0.223448
O O11 0.235670 0.000000 0.500000
O O12 0.500000 0.500000 0.268359
O O13 0.500000 0.447005 0.000000
O O14 0.066289 0.455156 0.231684
O O15 0.000000 0.424315 0.500000
O O16 0.000000 0.373268 0.218488
O O17 0.109531 0.500000 0.500000
O O18 0.500000 0.827350 0.500000
#
# Coordination Sequence:
#
# PCOD9487227 Si02
#       8
#    16  16  16   8   8   8   8   8
#     4   8  17  34  58  81  99 132 177 219 264 314
#     4   9  18  36  56  77 107 136 171 218 266 314
#     4  10  19  34  55  76 100 133 174 214 255 307
#     4  11  22  32  49  80 108 135 172 214 262 315
#     4   9  16  29  48  70  95 125 162 204 243 291
#     4   8  16  32  50  69  98 140 180 214 249 300
#     4   8  16  32  50  67  97 139 180 215 250 299
#     4  11  22  32  51  83 111 140 178 215 260 316
#
# _framework density 20.365207999999999
#
# number of rings (size 3 to 8) (size 9 to 14) (size 15 to 20)
#    0.000    2.818    0.909    2.182    2.545    0.727 
#    0.000    6.364    0.000    0.000    0.000    5.091 
#    0.000    0.000    0.000    0.000    0.000    0.000 
#
# Total GULP energy -245509.306331 kJ/mol
# GULP energy per Si atom -5579.756962 kJ/mol
# Density = 2.031886 g / cm^3
# Si number density = 20.365208 Si / 1000 Ang^3
#
#
#
# Elastic Constant Matrix: (Units=GPa)
#
#
# Indices 1 2 3 4 5 6 
#
# 1 228.8739 135.9415 -1.3049 0.0000 0.0000 0.0000
# 2 135.9415 194.5501 0.6083 0.0000 0.0000 0.0000
# 3 -1.3049 0.6083 38.5780 0.0000 0.0000 0.0000
# 4 0.0000 0.0000 0.0000 5.8345 0.0000 0.0000
# 5 0.0000 0.0000 0.0000 0.0000 -3.5556 0.0000
# 6 0.0000 0.0000 0.0000 0.0000 0.0000 31.0242
#
#
#
# Elastic Compliance Matrix: (Units=1/GPa)
#
#
# Indices 1 2 3 4 5 6 
#
# 1 0.007473 -0.005223 0.000335 0.000000 0.000000 0.000000
# 2 -0.005223 0.008791 -0.000315 0.000000 0.000000 0.000000
# 3 0.000335 -0.000315 0.025938 0.000000 0.000000 0.000000
# 4 0.000000 0.000000 0.000000 0.171393 0.000000 0.000000
# 5 0.000000 0.000000 0.000000 0.000000 -0.281243 0.000000
# 6 0.000000 0.000000 0.000000 0.000000 0.000000 0.032233
#
#
# Mechanical properties :
#
#
# Convention : Reuss Voigt Hill
#
# Bulk Modulus (GPa) = 31.45099 81.38797 56.41948
# Shear Modulus (GPa) = -346.99294 28.44442 -159.27426
#
# Velocity S-wave (km/s) = -13.06733 3.74132 -8.85318
# Velocity P-wave (km/s) = 14.56696 7.66253 8.76020
#
# Compressibility (1/GPa) = 0.03179550
#
# Stress axis : x y z
#
# Youngs Moduli (GPa) = 133.80745 113.75696 38.55370
#
# Poissons Ratio (x) = 0.59416 -0.01292
# Poissons Ratio (y) = 0.69889 0.01215
# Poissons Ratio (z) = -0.04484 0.03586
#
# Static dielectric constant tensor:
#      x y z
#    x 1.760490 0.000000 0.000000 
#    y 0.000000 1.699710 0.000000 
#    z 0.000000 0.000000 1.762260 
# 
# From -- ./inp_files/10243.got.cif
#   From: 2010.05.17/outbox.cif.g08.bks.cpg/sg65_6_cif.got.tgz:10243.got - 2010.06.03 17:01:31.
