data_PCOD9487699
_publ_section_title
;
Structure prediction by ZEFSAII (Michael W. Deem and Ramdas Pophale) SiO2 
 PCOD9487699
Probable space group: C M M M
;
_chemical_formula_sum "Si O2"
_cell_formula_units_Z 88
_cell_length_a 12.574201
_cell_length_b 15.002315
_cell_length_c 21.466819
_cell_angle_alpha 90.000000
_cell_angle_beta 90.000000
_cell_angle_gamma 90.000000
_cell_volume 4049.546338
_symmetry_space_group_name_H-M "C M M M"
_symmetry_group_IT_number 65
_symmetry_cell_setting 'orthorhombic'
loop_
_space_group_symop_operation_xyz
x,y,z
-x,-y,z
x,-y,-z
-x,y,-z
-x,-y,-z
x,y,-z
-x,y,z
x,-y,z
1/2+x,1/2+y,z
1/2-x,1/2-y,z
1/2+x,1/2-y,-z
1/2-x,1/2+y,-z
1/2-x,1/2-y,-z
1/2+x,1/2+y,-z
1/2-x,1/2+y,z
1/2+x,1/2-y,z
loop_
_atom_site_type_symbol
_atom_site_label
_atom_site_fract_x
_atom_site_fract_y
_atom_site_fract_z
Si Si1 0.000000 0.391873 0.773722
Si Si2 0.222445 0.352933 0.431040
Si Si3 0.167935 0.391926 0.122615
Si Si4 0.500000 0.892765 0.631273
Si Si5 0.117190 0.105492 0.321813
Si Si6 0.622657 0.785768 0.000000
Si Si7 0.620115 0.391063 0.182453
O O1 0.101769 0.367384 0.815340
O O2 0.000000 0.358920 0.702811
O O3 0.000000 0.500000 0.769863
O O4 0.235512 0.393755 0.500000
O O5 0.250000 0.250000 0.436698
O O6 0.300186 0.384916 0.376822
O O7 0.103945 0.364292 0.405980
O O8 0.162390 0.500000 0.116323
O O9 0.122645 0.345369 0.062160
O O10 0.289756 0.363714 0.134557
O O11 0.500000 0.000000 0.633998
O O12 0.147015 0.139662 0.252979
O O13 0.000000 0.141272 0.338679
O O14 0.107118 0.000000 0.312610
O O15 0.750000 0.750000 0.000000
O O16 0.500000 0.739981 0.000000
O O17 0.500000 0.362246 0.168159
O O18 0.620908 0.500000 0.181781
#
# Coordination Sequence:
#
# PCOD9487699 Si02
#       7
#     8  16  16   8  16   8  16
#     4   9  18  34  64  98 120 142 194 268 317 356
#     4  11  25  40  57  82 122 167 207 254 313 378
#     4  10  19  36  66  95 117 152 206 256 302 360
#     4  11  23  42  68  94 122 159 209 268 326 382
#     4   9  18  35  61  89 118 153 199 253 308 370
#     4  12  27  45  63  85 131 176 208 252 306 368
#     4   8  15  30  55  89 124 152 186 244 310 365
#
# _framework density 21.730830000000001
#
# number of rings (size 3 to 8) (size 9 to 14) (size 15 to 20)
#    0.000    2.182    0.909    3.273    1.273    6.182 
#    0.000    4.545    0.000    2.727    0.000    0.000 
#    0.000    0.000    0.000    0.000    0.000    0.000 
#
# Total GULP energy -245473.559545 kJ/mol
# GULP energy per Si atom -5578.944535 kJ/mol
# Density = 2.168137 g / cm^3
# Si number density = 21.730830 Si / 1000 Ang^3
#
#
#
# Elastic Constant Matrix: (Units=GPa)
#
#
# Indices 1 2 3 4 5 6 
#
# 1 153.9942 19.2638 65.2047 0.0000 0.0000 0.0000
# 2 19.2638 40.1774 19.7457 0.0000 0.0000 0.0000
# 3 65.2047 19.7457 107.2791 0.0000 0.0000 0.0000
# 4 0.0000 0.0000 0.0000 40.0513 0.0000 0.0000
# 5 0.0000 0.0000 0.0000 0.0000 43.7861 0.0000
# 6 0.0000 0.0000 0.0000 0.0000 0.0000 22.6124
#
#
#
# Elastic Compliance Matrix: (Units=1/GPa)
#
#
# Indices 1 2 3 4 5 6 
#
# 1 0.008856 -0.001760 -0.005059 0.000000 0.000000 0.000000
# 2 -0.001760 0.027715 -0.004031 0.000000 0.000000 0.000000
# 3 -0.005059 -0.004031 0.013138 0.000000 0.000000 0.000000
# 4 0.000000 0.000000 0.000000 0.024968 0.000000 0.000000
# 5 0.000000 0.000000 0.000000 0.000000 0.022838 0.000000
# 6 0.000000 0.000000 0.000000 0.000000 0.000000 0.044224
#
#
# Mechanical properties :
#
#
# Convention : Reuss Voigt Hill
#
# Bulk Modulus (GPa) = 35.70328 56.65325 46.17826
# Shear Modulus (GPa) = 28.93936 34.43907 31.68922
#
# Velocity S-wave (km/s) = 3.65323 3.98528 3.82286
# Velocity P-wave (km/s) = 5.85323 6.87776 6.38607
#
# Compressibility (1/GPa) = 0.02800863
#
# Stress axis : x y z
#
# Youngs Moduli (GPa) = 112.91916 36.08186 76.11388
#
# Poissons Ratio (x) = 0.06350 0.38504
# Poissons Ratio (y) = 0.19873 0.30685
# Poissons Ratio (z) = 0.57123 0.14546
#
# Static dielectric constant tensor:
#      x y z
#    x 1.926580 0.000000 0.000000 
#    y 0.000000 1.819920 0.000000 
#    z 0.000000 0.000000 1.774080 
# 
# From -- ./inp_files/61502.got.cif
#   From: 2010.05.17/outbox.cif.g08.bks.cpg/sg65_31_cif.got.tgz:61502.got - 2010.06.03 17:01:31.
