data_PCOD9487400
_publ_section_title
;
Structure prediction by ZEFSAII (Michael W. Deem and Ramdas Pophale) SiO2 
 PCOD9487400
Probable space group: C M M M
;
_chemical_formula_sum "Si O2"
_cell_formula_units_Z 128
_cell_length_a 18.370988
_cell_length_b 19.648090
_cell_length_c 20.937582
_cell_angle_alpha 90.000000
_cell_angle_beta 90.000000
_cell_angle_gamma 90.000000
_cell_volume 7557.521260
_symmetry_space_group_name_H-M "C M M M"
_symmetry_group_IT_number 65
_symmetry_cell_setting 'orthorhombic'
loop_
_space_group_symop_operation_xyz
x,y,z
-x,-y,z
x,-y,-z
-x,y,-z
-x,-y,-z
x,y,-z
-x,y,z
x,-y,z
1/2+x,1/2+y,z
1/2-x,1/2-y,z
1/2+x,1/2-y,-z
1/2-x,1/2+y,-z
1/2-x,1/2-y,-z
1/2+x,1/2+y,-z
1/2-x,1/2+y,z
1/2+x,1/2-y,z
loop_
_atom_site_type_symbol
_atom_site_label
_atom_site_fract_x
_atom_site_fract_y
_atom_site_fract_z
Si Si1 0.144982 0.578915 0.072689
Si Si2 0.152436 0.325274 0.189756
Si Si3 0.916595 0.684474 0.674583
Si Si4 0.081642 0.848059 0.311228
Si Si5 0.673329 0.334187 0.809900
Si Si6 0.155555 0.919449 0.427235
Si Si7 0.822017 0.078640 0.070114
Si Si8 0.208886 0.320418 0.425385
O O1 0.123773 0.500000 0.085197
O O2 0.124498 0.630480 0.129596
O O3 0.233517 0.580294 0.071331
O O4 0.120970 0.596658 0.000000
O O5 0.239198 0.337767 0.197247
O O6 0.148543 0.243845 0.179826
O O7 0.111471 0.340266 0.256103
O O8 0.687854 0.812620 0.500000
O O9 0.915065 0.767022 0.676281
O O10 0.859455 0.665460 0.619698
O O11 0.000000 0.663243 0.663263
O O12 0.137379 0.861986 0.254303
O O13 0.102704 0.887807 0.374879
O O14 0.000000 0.865081 0.290975
O O15 0.651362 0.376915 0.871558
O O16 0.129962 0.906895 0.500000
O O17 0.232049 0.880219 0.420258
O O18 0.163779 0.000000 0.418532
O O19 0.843324 0.000000 0.076727
O O20 0.844709 0.103548 0.000000
O O21 0.250000 0.250000 0.406077
#
# Coordination Sequence:
#
# PCOD9487400 Si02
#       8
#    16  16  16  16  16  16  16  16
#     4   8  14  26  45  70  98 126 161 210 265 316
#     4   9  17  28  46  70  99 130 165 209 259 304
#     4  10  20  33  52  77 107 138 170 214 260 303
#     4  10  20  33  49  71 102 138 172 207 253 309
#     4   9  17  28  45  69  94 128 166 209 251 301
#     4  10  21  36  54  78 106 135 168 210 261 310
#     4   8  14  25  41  63  91 119 153 203 256 301
#     4  10  19  34  58  81 102 133 175 218 255 302
#
# _framework density 16.936769000000002
#
# number of rings (size 3 to 8) (size 9 to 14) (size 15 to 20)
#    0.000    2.750    1.250    1.500    1.750    1.750 
#    0.000    7.500    0.000    2.250    0.000    7.000 
#    0.000    0.000    0.000    0.000    0.000    0.000 
#
# Total GULP energy -356565.857442 kJ/mol
# GULP energy per Si atom -5571.341523 kJ/mol
# Density = 1.689822 g / cm^3
# Si number density = 16.936769 Si / 1000 Ang^3
#
#
#
# Elastic Constant Matrix: (Units=GPa)
#
#
# Indices 1 2 3 4 5 6 
#
# 1 25.7381 15.1281 29.8203 0.0000 0.0000 0.0000
# 2 15.1281 48.7491 46.8574 0.0000 0.0000 0.0000
# 3 29.8203 46.8574 102.6548 0.0000 0.0000 0.0000
# 4 0.0000 0.0000 0.0000 24.0002 0.0000 0.0000
# 5 0.0000 0.0000 0.0000 0.0000 -4.5318 0.0000
# 6 0.0000 0.0000 0.0000 0.0000 0.0000 7.3043
#
#
#
# Elastic Compliance Matrix: (Units=1/GPa)
#
#
# Indices 1 2 3 4 5 6 
#
# 1 0.058853 -0.003262 -0.015607 0.000000 0.000000 0.000000
# 2 -0.003262 0.036729 -0.015818 0.000000 0.000000 0.000000
# 3 -0.015607 -0.015818 0.021495 0.000000 0.000000 0.000000
# 4 0.000000 0.000000 0.000000 0.041666 0.000000 0.000000
# 5 0.000000 0.000000 0.000000 0.000000 -0.220664 0.000000
# 6 0.000000 0.000000 0.000000 0.000000 0.000000 0.136906
#
#
# Mechanical properties :
#
#
# Convention : Reuss Voigt Hill
#
# Bulk Modulus (GPa) = 20.96280 40.08374 30.52327
# Shear Modulus (GPa) = 31.19925 11.04364 21.12144
#
# Velocity S-wave (km/s) = 4.29663 2.55630 3.53523
# Velocity P-wave (km/s) = 6.08429 5.69482 5.89278
#
# Compressibility (1/GPa) = 0.04770356
#
# Stress axis : x y z
#
# Youngs Moduli (GPa) = 16.99153 27.22612 46.52172
#
# Poissons Ratio (x) = 0.08881 0.72608
# Poissons Ratio (y) = 0.05542 0.73587
# Poissons Ratio (z) = 0.26519 0.43066
#
# Static dielectric constant tensor:
#      x y z
#    x 1.559790 0.000000 0.000000 
#    y 0.000000 1.563160 0.000000 
#    z 0.000000 0.000000 1.575720 
# 
# From -- ./inp_files/56277.got.cif
#   From: 2010.05.17/outbox.cif.g08.bks.cpg/sg65_29_cif.got.tgz:56277.got - 2010.06.03 17:01:31.
