data_PCOD9487941
_publ_section_title
;
Structure prediction by ZEFSAII (Michael W. Deem and Ramdas Pophale) SiO2 
 PCOD9487941
Probable space group: C M M M
;
_chemical_formula_sum "Si O2"
_cell_formula_units_Z 100
_cell_length_a 28.792988
_cell_length_b 29.380782
_cell_length_c 8.447914
_cell_angle_alpha 90.000000
_cell_angle_beta 90.000000
_cell_angle_gamma 90.000000
_cell_volume 7146.601581
_symmetry_space_group_name_H-M "C M M M"
_symmetry_group_IT_number 65
_symmetry_cell_setting 'orthorhombic'
loop_
_space_group_symop_operation_xyz
x,y,z
-x,-y,z
x,-y,-z
-x,y,-z
-x,-y,-z
x,y,-z
-x,y,z
x,-y,z
1/2+x,1/2+y,z
1/2-x,1/2-y,z
1/2+x,1/2-y,-z
1/2-x,1/2+y,-z
1/2-x,1/2-y,-z
1/2+x,1/2+y,-z
1/2-x,1/2+y,z
1/2+x,1/2-y,z
loop_
_atom_site_type_symbol
_atom_site_label
_atom_site_fract_x
_atom_site_fract_y
_atom_site_fract_z
Si Si1 0.676847 0.948851 0.190714
Si Si2 0.280311 0.144719 0.808409
Si Si3 0.500000 0.000000 0.205091
Si Si4 0.074434 0.570928 0.315372
Si Si5 0.552938 0.830137 0.186709
Si Si6 0.292569 0.713699 0.183361
Si Si7 0.858723 0.285730 0.686095
O O1 0.710831 0.907512 0.235308
O O2 0.627398 0.939967 0.272399
O O3 0.692815 0.000000 0.228715
O O4 0.669995 0.946240 0.000000
O O5 0.232113 0.167929 0.754714
O O6 0.323225 0.175106 0.746770
O O7 0.280765 0.148511 0.000000
O O8 0.540364 0.039527 0.214044
O O9 0.065042 0.560448 0.500000
O O10 0.064293 0.623551 0.280307
O O11 0.500000 0.816106 0.221082
O O12 0.592071 0.793757 0.231065
O O13 0.556490 0.840433 0.000000
O O14 0.250000 0.750000 0.186292
O O15 0.334190 0.737807 0.274684
O O16 0.306283 0.707886 0.000000
O O17 0.864381 0.291011 0.500000
#
# Coordination Sequence:
#
# PCOD9487941 Si02
#       7
#    16  16   4  16  16  16  16
#     4  10  20  32  45  62  82 108 141 175 210 252
#     4   9  17  30  46  62  85 111 136 168 209 252
#     4  12  25  36  45  58  81 104 137 186 233 272
#     4  12  22  34  46  58  76 103 136 178 226 262
#     4  11  23  36  47  60  78 105 139 175 213 258
#     4   8  15  28  45  63  83 109 133 161 203 252
#     4  11  20  29  45  66  85 105 130 170 214 256
#
# _framework density 13.992666
#
# number of rings (size 3 to 8) (size 9 to 14) (size 15 to 20)
#    0.000    1.760    3.200    4.080    0.000    3.840 
#    0.000    1.600    0.000    0.000    0.000    0.000 
#    0.000    0.000    0.000    0.000    0.000    0.800 
#
# Total GULP energy -278408.140138 kJ/mol
# GULP energy per Si atom -5568.162803 kJ/mol
# Density = 1.396082 g / cm^3
# Si number density = 13.992666 Si / 1000 Ang^3
#
#
#
# Elastic Constant Matrix: (Units=GPa)
#
#
# Indices 1 2 3 4 5 6 
#
# 1 59.1446 49.6719 12.3874 0.0000 0.0000 0.0000
# 2 49.6719 79.0780 12.3435 0.0000 0.0000 0.0000
# 3 12.3874 12.3435 23.6750 0.0000 0.0000 0.0000
# 4 0.0000 0.0000 0.0000 -10.8227 0.0000 0.0000
# 5 0.0000 0.0000 0.0000 0.0000 -261.8042 0.0000
# 6 0.0000 0.0000 0.0000 0.0000 0.0000 21.1165
#
#
#
# Elastic Compliance Matrix: (Units=1/GPa)
#
#
# Indices 1 2 3 4 5 6 
#
# 1 0.037097 -0.022068 -0.007904 0.000000 0.000000 0.000000
# 2 -0.022068 0.026894 -0.002475 0.000000 0.000000 0.000000
# 3 -0.007904 -0.002475 0.047665 0.000000 0.000000 0.000000
# 4 0.000000 0.000000 0.000000 -0.092398 0.000000 0.000000
# 5 0.000000 0.000000 0.000000 0.000000 -0.003820 0.000000
# 6 0.000000 0.000000 0.000000 0.000000 0.000000 0.047356
#
#
# Mechanical properties :
#
#
# Convention : Reuss Voigt Hill
#
# Bulk Modulus (GPa) = 21.38557 34.52258 27.95408
# Shear Modulus (GPa) = 34.89748 -44.46909 -4.78580
#
# Velocity S-wave (km/s) = 4.99940 -5.64352 -1.85139
# Velocity P-wave (km/s) = 6.97437 4.21192 3.93076
#
# Compressibility (1/GPa) = 0.04676049
#
# Stress axis : x y z
#
# Youngs Moduli (GPa) = 26.95634 37.18301 20.97978
#
# Poissons Ratio (x) = 0.82056 0.16583
# Poissons Ratio (y) = 0.59488 0.05193
# Poissons Ratio (z) = 0.21307 0.09203
#
# Static dielectric constant tensor:
#      x y z
#    x 1.447720 0.000000 0.000000 
#    y 0.000000 1.475170 0.000000 
#    z 0.000000 0.000000 1.496240 
# 
# From -- ./inp_files/17206.got.cif
#   From: 2010.05.17/outbox.cif.g08.bks.cpg/sg65_9_cif.got.tgz:17206.got - 2010.06.03 17:01:31.
