data_PCOD9487834
_publ_section_title
;
Structure prediction by ZEFSAII (Michael W. Deem and Ramdas Pophale) SiO2 
 PCOD9487834
Probable space group: C M M M
;
_chemical_formula_sum "Si O2"
_cell_formula_units_Z 104
_cell_length_a 28.286207
_cell_length_b 8.353570
_cell_length_c 27.642136
_cell_angle_alpha 90.000000
_cell_angle_beta 90.000000
_cell_angle_gamma 90.000000
_cell_volume 6531.582711
_symmetry_space_group_name_H-M "C M M M"
_symmetry_group_IT_number 65
_symmetry_cell_setting 'orthorhombic'
loop_
_space_group_symop_operation_xyz
x,y,z
-x,-y,z
x,-y,-z
-x,y,-z
-x,-y,-z
x,y,-z
-x,y,z
x,-y,z
1/2+x,1/2+y,z
1/2-x,1/2-y,z
1/2+x,1/2-y,-z
1/2-x,1/2+y,-z
1/2-x,1/2-y,-z
1/2+x,1/2+y,-z
1/2-x,1/2+y,z
1/2+x,1/2-y,z
loop_
_atom_site_type_symbol
_atom_site_label
_atom_site_fract_x
_atom_site_fract_y
_atom_site_fract_z
Si Si1 0.554587 0.306806 0.945310
Si Si2 0.804277 0.193061 0.500000
Si Si3 0.804320 0.194001 0.394376
Si Si4 0.301932 0.191404 0.798051
Si Si5 0.603602 0.808799 0.850224
Si Si6 0.552831 0.692923 0.755418
Si Si7 0.853190 0.806550 0.296814
O O1 0.500000 0.257294 0.936433
O O2 0.555466 0.500000 0.944188
O O3 0.587747 0.243264 0.903181
O O4 0.567354 0.256271 0.000000
O O5 0.750000 0.250000 0.500000
O O6 0.823045 0.246347 0.447485
O O7 0.805674 0.000000 0.500000
O O8 0.750000 0.250000 0.389141
O O9 0.835129 0.250356 0.348917
O O10 0.804020 0.000000 0.393697
O O11 0.250000 0.250000 0.811276
O O12 0.343688 0.244063 0.834473
O O13 0.317153 0.255067 0.745294
O O14 0.301848 0.000000 0.796314
O O15 0.568481 0.738869 0.809597
O O16 0.601746 0.000000 0.846820
O O17 0.500000 0.752344 0.744758
O O18 0.552085 0.500000 0.752533
O O19 0.594867 0.750526 0.720116
O O20 0.854244 0.000000 0.297787
#
# Coordination Sequence:
#
# PCOD9487834 Si02
#       7
#    16   8  16  16  16  16  16
#     4   9  18  32  49  69  92 117 144 172 204 246
#     4   8  14  24  36  52  75 103 133 165 204 248
#     4   9  16  25  38  56  79 106 135 168 206 248
#     4  10  20  32  45  63  87 114 143 174 208 247
#     4  10  20  31  45  67  91 113 139 173 211 248
#     4   9  17  29  44  61  83 112 143 172 204 247
#     4   9  17  28  42  61  83 109 141 174 209 248
#
# _framework density 15.922632999999999
#
# number of rings (size 3 to 8) (size 9 to 14) (size 15 to 20)
#    0.000    2.769    0.000    2.308    0.000    6.462 
#    0.000    0.769    0.000    0.462    0.000    0.538 
#    0.000    4.308    0.000    0.000    0.000   41.615 
#
# Total GULP energy -289679.646361 kJ/mol
# GULP energy per Si atom -5570.762430 kJ/mol
# Density = 1.588639 g / cm^3
# Si number density = 15.922633 Si / 1000 Ang^3
#
#
#
# Elastic Constant Matrix: (Units=GPa)
#
#
# Indices 1 2 3 4 5 6 
#
# 1 97.1273 10.1877 66.5244 0.0000 0.0000 0.0000
# 2 10.1877 6.2670 11.1955 0.0000 0.0000 0.0000
# 3 66.5244 11.1955 147.0679 0.0000 0.0000 0.0000
# 4 0.0000 0.0000 0.0000 10.9868 0.0000 0.0000
# 5 0.0000 0.0000 0.0000 0.0000 20.5984 0.0000
# 6 0.0000 0.0000 0.0000 0.0000 0.0000 17.3627
#
#
#
# Elastic Compliance Matrix: (Units=1/GPa)
#
#
# Indices 1 2 3 4 5 6 
#
# 1 0.016080 -0.015216 -0.006115 0.000000 0.000000 0.000000
# 2 -0.015216 0.199077 -0.008272 0.000000 0.000000 0.000000
# 3 -0.006115 -0.008272 0.010196 0.000000 0.000000 0.000000
# 4 0.000000 0.000000 0.000000 0.091019 0.000000 0.000000
# 5 0.000000 0.000000 0.000000 0.000000 0.048547 0.000000
# 6 0.000000 0.000000 0.000000 0.000000 0.000000 0.057595
#
#
# Mechanical properties :
#
#
# Convention : Reuss Voigt Hill
#
# Bulk Modulus (GPa) = 6.01879 47.36416 26.69147
# Shear Modulus (GPa) = 9.30923 20.62657 14.96790
#
# Velocity S-wave (km/s) = 2.42059 3.60310 3.06933
# Velocity P-wave (km/s) = 3.40596 6.86446 5.41855
#
# Compressibility (1/GPa) = 0.16614638
#
# Stress axis : x y z
#
# Youngs Moduli (GPa) = 62.18777 5.02319 98.08206
#
# Poissons Ratio (x) = 0.07643 0.59982
# Poissons Ratio (y) = 0.94622 0.81134
# Poissons Ratio (z) = 0.38031 0.04155
#
# Static dielectric constant tensor:
#      x y z
#    x 1.529020 0.000000 0.000000 
#    y 0.000000 1.548080 0.000000 
#    z 0.000000 0.000000 1.543980 
# 
# From -- ./inp_files/76030.got.cif
#   From: 2010.05.17/outbox.cif.g08.bks.cpg/sg65_39_cif.got.tgz:76030.got - 2010.06.03 17:01:31.
