data_PCOD9487176
_publ_section_title
;
Structure prediction by ZEFSAII (Michael W. Deem and Ramdas Pophale) SiO2 
 PCOD9487176
Probable space group: C M M M
;
_chemical_formula_sum "Si O2"
_cell_formula_units_Z 88
_cell_length_a 19.017928
_cell_length_b 29.148413
_cell_length_c 8.123050
_cell_angle_alpha 90.000000
_cell_angle_beta 90.000000
_cell_angle_gamma 90.000000
_cell_volume 4502.951193
_symmetry_space_group_name_H-M "C M M M"
_symmetry_group_IT_number 65
_symmetry_cell_setting 'orthorhombic'
loop_
_space_group_symop_operation_xyz
x,y,z
-x,-y,z
x,-y,-z
-x,y,-z
-x,-y,-z
x,y,-z
-x,y,z
x,-y,z
1/2+x,1/2+y,z
1/2-x,1/2-y,z
1/2+x,1/2-y,-z
1/2-x,1/2+y,-z
1/2-x,1/2-y,-z
1/2+x,1/2+y,-z
1/2-x,1/2+y,z
1/2+x,1/2-y,z
loop_
_atom_site_type_symbol
_atom_site_label
_atom_site_fract_x
_atom_site_fract_y
_atom_site_fract_z
Si Si1 0.419283 0.205091 0.804155
Si Si2 0.578088 0.446848 0.700756
Si Si3 0.207851 0.885063 0.702074
Si Si4 0.683547 0.719620 0.698869
Si Si5 0.000000 0.551904 0.805012
Si Si6 0.135996 0.391127 0.693381
O O1 0.500000 0.203399 0.749176
O O2 0.384344 0.253468 0.761608
O O3 0.378359 0.162843 0.722222
O O4 0.417056 0.197896 0.000000
O O5 0.578579 0.445661 0.500000
O O6 0.500000 0.430909 0.752645
O O7 0.585888 0.500000 0.748823
O O8 0.643597 0.416777 0.757321
O O9 0.209156 0.885525 0.500000
O O10 0.193153 0.832652 0.752802
O O11 0.285381 0.900758 0.758906
O O12 0.681875 0.719831 0.500000
O O13 0.750000 0.750000 0.753055
O O14 0.929651 0.580036 0.760384
O O15 0.000000 0.500000 0.734123
O O16 0.000000 0.548156 0.000000
O O17 0.137265 0.400074 0.500000
#
# Coordination Sequence:
#
# PCOD9487176 Si02
#       6
#    16  16  16  16   8  16
#     4  11  23  37  54  78 110 148 190 229 277 341
#     4   8  14  26  45  70 103 140 173 211 269 335
#     4   9  18  31  50  79 111 141 179 233 282 330
#     4  10  19  34  53  77 109 142 183 230 277 326
#     4  11  25  43  59  81 117 153 191 243 294 345
#     4  11  21  36  59  83 109 144 190 238 284 337
#
# _framework density 19.542739000000001
#
# number of rings (size 3 to 8) (size 9 to 14) (size 15 to 20)
#    0.000    2.091    2.727    1.909    0.000    3.636 
#    0.000    3.636    0.000    0.000    0.000    0.000 
#    0.000    0.000    0.000   18.000    0.000   15.636 
#
# Total GULP energy -245557.657603 kJ/mol
# GULP energy per Si atom -5580.855855 kJ/mol
# Density = 1.949826 g / cm^3
# Si number density = 19.542739 Si / 1000 Ang^3
#
#
#
# Elastic Constant Matrix: (Units=GPa)
#
#
# Indices 1 2 3 4 5 6 
#
# 1 195.0513 86.3273 11.8854 0.0000 0.0000 0.0000
# 2 86.3273 107.2291 6.8536 0.0000 0.0000 0.0000
# 3 11.8854 6.8536 12.4453 0.0000 0.0000 0.0000
# 4 0.0000 0.0000 0.0000 10.0771 0.0000 0.0000
# 5 0.0000 0.0000 0.0000 0.0000 -17.3703 0.0000
# 6 0.0000 0.0000 0.0000 0.0000 0.0000 38.5475
#
#
#
# Elastic Compliance Matrix: (Units=1/GPa)
#
#
# Indices 1 2 3 4 5 6 
#
# 1 0.008185 -0.006312 -0.004341 0.000000 0.000000 0.000000
# 2 -0.006312 0.014534 -0.001976 0.000000 0.000000 0.000000
# 3 -0.004341 -0.001976 0.085585 0.000000 0.000000 0.000000
# 4 0.000000 0.000000 0.000000 0.099235 0.000000 0.000000
# 5 0.000000 0.000000 0.000000 0.000000 -0.057570 0.000000
# 6 0.000000 0.000000 0.000000 0.000000 0.000000 0.025942
#
#
# Mechanical properties :
#
#
# Convention : Reuss Voigt Hill
#
# Bulk Modulus (GPa) = 12.04141 58.31759 35.17950
# Shear Modulus (GPa) = 21.84836 20.22816 21.03826
#
# Velocity S-wave (km/s) = 3.34725 3.22075 3.28460
# Velocity P-wave (km/s) = 4.59496 6.61338 5.69432
#
# Compressibility (1/GPa) = 0.08304672
#
# Stress axis : x y z
#
# Youngs Moduli (GPa) = 122.17449 68.80506 11.68433
#
# Poissons Ratio (x) = 0.43430 0.05072
# Poissons Ratio (y) = 0.77118 0.02308
# Poissons Ratio (z) = 0.53032 0.13593
#
# Static dielectric constant tensor:
#      x y z
#    x 1.698300 0.000000 0.000000 
#    y 0.000000 1.664280 0.000000 
#    z 0.000000 0.000000 1.681150 
# 
# From -- ./inp_files/10087.got.cif
#   From: 2010.05.17/outbox.cif.g08.bks.cpg/sg65_6_cif.got.tgz:10087.got - 2010.06.03 17:01:31.
