data_PCOD9487070
_publ_section_title
;
Structure prediction by ZEFSAII (Michael W. Deem and Ramdas Pophale) SiO2 
 PCOD9487070
Probable space group: C M M M
;
_chemical_formula_sum "Si O2"
_cell_formula_units_Z 72
_cell_length_a 19.772206
_cell_length_b 23.268184
_cell_length_c 7.628986
_cell_angle_alpha 90.000000
_cell_angle_beta 90.000000
_cell_angle_gamma 90.000000
_cell_volume 3509.816683
_symmetry_space_group_name_H-M "C M M M"
_symmetry_group_IT_number 65
_symmetry_cell_setting 'orthorhombic'
loop_
_space_group_symop_operation_xyz
x,y,z
-x,-y,z
x,-y,-z
-x,y,-z
-x,-y,-z
x,y,-z
-x,y,z
x,-y,z
1/2+x,1/2+y,z
1/2-x,1/2-y,z
1/2+x,1/2-y,-z
1/2-x,1/2+y,-z
1/2-x,1/2-y,-z
1/2+x,1/2+y,-z
1/2-x,1/2+y,z
1/2+x,1/2-y,z
loop_
_atom_site_type_symbol
_atom_site_label
_atom_site_fract_x
_atom_site_fract_y
_atom_site_fract_z
Si Si1 0.076165 0.834446 0.290444
Si Si2 0.173044 0.604120 0.789204
Si Si3 0.174726 0.264349 0.709811
Si Si4 0.178742 0.065204 0.211412
Si Si5 0.922126 0.500000 0.214687
O O1 0.071290 0.827057 0.500000
O O2 0.120151 0.780986 0.220576
O O3 0.118923 0.891964 0.259810
O O4 0.000000 0.837083 0.220101
O O5 0.156820 0.669637 0.744029
O O6 0.248659 0.588864 0.724816
O O7 0.119322 0.556544 0.728305
O O8 0.174664 0.599893 0.000000
O O9 0.177528 0.256672 0.500000
O O10 0.250000 0.250000 0.778855
O O11 0.168737 0.000000 0.273265
O O12 0.182094 0.063797 0.000000
O O13 0.000000 0.500000 0.271619
O O14 0.922393 0.500000 0.000000
#
# Coordination Sequence:
#
# PCOD9487070 Si02
#       5
#    16  16  16  16   8
#     4  10  22  39  56  77 108 143 178 220 270 321
#     4  10  19  33  56  83 108 140 181 220 261 314
#     4  10  20  35  55  79 106 139 179 220 266 318
#     4  10  20  35  56  81 109 140 177 222 268 314
#     4   9  18  34  55  81 114 145 174 216 269 319
#
# _framework density 20.513891000000001
#
# number of rings (size 3 to 8) (size 9 to 14) (size 15 to 20)
#    0.000    2.111    3.333    0.000    0.000    3.556 
#    0.000    2.778    0.000    0.667    0.000    0.000 
#    0.000    0.000    0.000    0.000    0.000    0.000 
#
# Total GULP energy -201081.658970 kJ/mol
# GULP energy per Si atom -5585.601638 kJ/mol
# Density = 2.046720 g / cm^3
# Si number density = 20.513891 Si / 1000 Ang^3
#
#
#
# Elastic Constant Matrix: (Units=GPa)
#
#
# Indices 1 2 3 4 5 6 
#
# 1 199.0139 107.8395 8.8360 0.0000 0.0000 0.0000
# 2 107.8395 194.9142 -6.6368 0.0000 0.0000 0.0000
# 3 8.8360 -6.6368 39.0957 0.0000 0.0000 0.0000
# 4 0.0000 0.0000 0.0000 30.3290 0.0000 0.0000
# 5 0.0000 0.0000 0.0000 0.0000 10.8411 0.0000
# 6 0.0000 0.0000 0.0000 0.0000 0.0000 28.8074
#
#
#
# Elastic Compliance Matrix: (Units=1/GPa)
#
#
# Indices 1 2 3 4 5 6 
#
# 1 0.007390 -0.004169 -0.002378 0.000000 0.000000 0.000000
# 2 -0.004169 0.007513 0.002218 0.000000 0.000000 0.000000
# 3 -0.002378 0.002218 0.026492 0.000000 0.000000 0.000000
# 4 0.000000 0.000000 0.000000 0.032972 0.000000 0.000000
# 5 0.000000 0.000000 0.000000 0.000000 0.092242 0.000000
# 6 0.000000 0.000000 0.000000 0.000000 0.000000 0.034713
#
#
# Mechanical properties :
#
#
# Convention : Reuss Voigt Hill
#
# Bulk Modulus (GPa) = 30.54813 72.56682 51.55748
# Shear Modulus (GPa) = 22.63547 35.52784 29.08166
#
# Velocity S-wave (km/s) = 3.32538 4.16612 3.76926
# Velocity P-wave (km/s) = 5.44683 7.65463 6.64309
#
# Compressibility (1/GPa) = 0.03273522
#
# Stress axis : x y z
#
# Youngs Moduli (GPa) = 135.32506 133.10696 37.74707
#
# Poissons Ratio (x) = 0.55497 0.08976
# Poissons Ratio (y) = 0.56422 -0.08371
# Poissons Ratio (z) = 0.32179 -0.29519
#
# Static dielectric constant tensor:
#      x y z
#    x 1.715990 0.000000 0.000000 
#    y 0.000000 1.693210 0.000000 
#    z 0.000000 0.000000 1.754280 
# 
# From -- ./inp_files/9197.got.cif
#   From: 2010.05.17/outbox.cif.g08.bks.cpg/sg65_5_cif.got.tgz:9197.got - 2010.06.03 17:01:31.
