data_PCOD9487072
_publ_section_title
;
Structure prediction by ZEFSAII (Michael W. Deem and Ramdas Pophale) SiO2 
 PCOD9487072
Probable space group: C M M M
;
_chemical_formula_sum "Si O2"
_cell_formula_units_Z 96
_cell_length_a 22.847103
_cell_length_b 25.354308
_cell_length_c 7.703155
_cell_angle_alpha 90.000000
_cell_angle_beta 90.000000
_cell_angle_gamma 90.000000
_cell_volume 4462.225750
_symmetry_space_group_name_H-M "C M M M"
_symmetry_group_IT_number 65
_symmetry_cell_setting 'orthorhombic'
loop_
_space_group_symop_operation_xyz
x,y,z
-x,-y,z
x,-y,-z
-x,y,-z
-x,-y,-z
x,y,-z
-x,y,z
x,-y,z
1/2+x,1/2+y,z
1/2-x,1/2-y,z
1/2+x,1/2-y,-z
1/2-x,1/2+y,-z
1/2-x,1/2-y,-z
1/2+x,1/2+y,-z
1/2-x,1/2+y,z
1/2+x,1/2-y,z
loop_
_atom_site_type_symbol
_atom_site_label
_atom_site_fract_x
_atom_site_fract_y
_atom_site_fract_z
Si Si1 0.590967 0.302460 0.198501
Si Si2 0.706678 0.000000 0.200603
Si Si3 0.063711 0.083571 0.789346
Si Si4 0.338607 0.500000 0.301917
Si Si5 0.778249 0.805378 0.294746
Si Si6 0.175561 0.614658 0.210433
Si Si7 0.934129 0.315273 0.787762
O O1 0.566656 0.356342 0.276539
O O2 0.660454 0.310853 0.200319
O O3 0.577058 0.244924 0.273821
O O4 0.569441 0.300478 0.000000
O O5 0.777527 0.000000 0.201345
O O6 0.683216 0.945006 0.276331
O O7 0.687544 0.000000 0.000000
O O8 0.000000 0.061464 0.739703
O O9 0.119141 0.049733 0.731646
O O10 0.066080 0.084166 0.000000
O O11 0.319960 0.500000 0.500000
O O12 0.790524 0.802633 0.500000
O O13 0.750000 0.750000 0.239715
O O14 0.732404 0.851539 0.260603
O O15 0.117597 0.645875 0.270578
O O16 0.173968 0.613468 0.000000
O O17 0.000000 0.331247 0.739173
O O18 0.931323 0.314409 0.000000
#
# Coordination Sequence:
#
# PCOD9487072 Si02
#       7
#    16   8  16   8  16  16  16
#     4  10  19  33  56  83 110 142 182 221 266 325
#     4  10  22  39  58  82 110 143 183 228 275 326
#     4  10  21  37  57  81 110 145 183 225 271 322
#     4  12  25  39  56  78 105 143 189 230 273 322
#     4  11  22  34  51  79 114 145 179 226 276 322
#     4  10  20  36  58  82 110 144 183 223 269 325
#     4   9  17  31  54  83 111 139 174 218 266 319
#
# _framework density 21.513928
#
# number of rings (size 3 to 8) (size 9 to 14) (size 15 to 20)
#    0.000    1.833    1.667    3.000    0.000    9.333 
#    0.000    0.417    0.000    5.500    0.000    0.000 
#    0.000    2.000    0.000    0.000    0.000    0.000 
#
# Total GULP energy -268182.365861 kJ/mol
# GULP energy per Si atom -5587.132622 kJ/mol
# Density = 2.146496 g / cm^3
# Si number density = 21.513928 Si / 1000 Ang^3
#
#
#
# Elastic Constant Matrix: (Units=GPa)
#
#
# Indices 1 2 3 4 5 6 
#
# 1 135.8477 58.5505 -2.6339 0.0000 0.0000 0.0000
# 2 58.5505 168.5344 1.4230 0.0000 0.0000 0.0000
# 3 -2.6339 1.4230 41.2434 0.0000 0.0000 0.0000
# 4 0.0000 0.0000 0.0000 -64.6316 0.0000 0.0000
# 5 0.0000 0.0000 0.0000 0.0000 -145.3896 0.0000
# 6 0.0000 0.0000 0.0000 0.0000 0.0000 -15.0194
#
#
#
# Elastic Compliance Matrix: (Units=1/GPa)
#
#
# Indices 1 2 3 4 5 6 
#
# 1 0.008675 -0.003019 0.000658 0.000000 0.000000 0.000000
# 2 -0.003019 0.006986 -0.000434 0.000000 0.000000 0.000000
# 3 0.000658 -0.000434 0.024303 0.000000 0.000000 0.000000
# 4 0.000000 0.000000 0.000000 -0.015472 0.000000 0.000000
# 5 0.000000 0.000000 0.000000 0.000000 -0.006878 0.000000
# 6 0.000000 0.000000 0.000000 0.000000 0.000000 -0.066581
#
#
# Mechanical properties :
#
#
# Convention : Reuss Voigt Hill
#
# Bulk Modulus (GPa) = 29.09126 51.14496 40.11811
# Shear Modulus (GPa) = -156.65307 -25.78906 -91.22107
#
# Velocity S-wave (km/s) = -8.54241 -3.46600 -6.51866
# Velocity P-wave (km/s) = 9.15126 2.79410 6.16193
#
# Compressibility (1/GPa) = 0.03437458
#
# Stress axis : x y z
#
# Youngs Moduli (GPa) = 115.26933 143.14024 41.14663
#
# Poissons Ratio (x) = 0.43221 -0.02708
# Poissons Ratio (y) = 0.34805 0.01785
# Poissons Ratio (z) = -0.07587 0.06210
#
# Static dielectric constant tensor:
#      x y z
#    x 1.795050 0.000000 0.000000 
#    y 0.000000 1.794670 0.000000 
#    z 0.000000 0.000000 1.803880 
# 
# From -- ./inp_files/14394.got.cif
#   From: 2010.05.17/outbox.cif.g08.bks.cpg/sg65_8_cif.got.tgz:14394.got - 2010.06.03 17:01:31.
