data_PCOD9487960
_publ_section_title
;
Structure prediction by ZEFSAII (Michael W. Deem and Ramdas Pophale) SiO2 
 PCOD9487960
Probable space group: C M M M
;
_chemical_formula_sum "Si O2"
_cell_formula_units_Z 88
_cell_length_a 31.328826
_cell_length_b 20.249137
_cell_length_c 8.527579
_cell_angle_alpha 90.000000
_cell_angle_beta 90.000000
_cell_angle_gamma 90.000000
_cell_volume 5409.739975
_symmetry_space_group_name_H-M "C M M M"
_symmetry_group_IT_number 65
_symmetry_cell_setting 'orthorhombic'
loop_
_space_group_symop_operation_xyz
x,y,z
-x,-y,z
x,-y,-z
-x,y,-z
-x,-y,-z
x,y,-z
-x,y,z
x,-y,z
1/2+x,1/2+y,z
1/2-x,1/2-y,z
1/2+x,1/2-y,-z
1/2-x,1/2+y,-z
1/2-x,1/2-y,-z
1/2+x,1/2+y,-z
1/2-x,1/2+y,z
1/2+x,1/2-y,z
loop_
_atom_site_type_symbol
_atom_site_label
_atom_site_fract_x
_atom_site_fract_y
_atom_site_fract_z
Si Si1 0.170948 0.074838 0.683590
Si Si2 0.734730 0.073234 0.184951
Si Si3 0.707793 0.208344 0.686381
Si Si4 0.867352 0.795915 0.816516
Si Si5 0.448241 0.500000 0.322265
Si Si6 0.048704 0.857130 0.810932
O O1 0.163070 0.089548 0.500000
O O2 0.221537 0.076739 0.716678
O O3 0.150767 0.130378 0.791331
O O4 0.156424 0.000000 0.716955
O O5 0.707895 0.136803 0.233483
O O6 0.715721 0.000000 0.212474
O O7 0.745162 0.077456 0.000000
O O8 0.711490 0.200172 0.500000
O O9 0.750000 0.250000 0.738958
O O10 0.665153 0.248420 0.727340
O O11 0.916235 0.803515 0.759451
O O12 0.866863 0.778634 0.000000
O O13 0.500000 0.500000 0.324703
O O14 0.432213 0.500000 0.500000
O O15 0.437452 0.430550 0.242509
O O16 0.000000 0.845580 0.756385
O O17 0.048511 0.856972 0.000000
#
# Coordination Sequence:
#
# PCOD9487960 Si02
#       6
#    16  16  16  16   8  16
#     4  10  20  32  45  65  95 129 164 204 246 289
#     4  10  20  34  53  74  96 126 164 204 240 282
#     4  11  22  35  51  72 100 133 163 198 243 289
#     4  11  22  33  50  71  92 126 166 207 248 289
#     4   9  17  29  47  69  91 121 161 205 251 291
#     4   9  19  35  50  66  91 123 161 204 250 295
#
# _framework density 16.266956
#
# number of rings (size 3 to 8) (size 9 to 14) (size 15 to 20)
#    0.000    1.909    1.818    2.455    1.273    5.455 
#    0.000    0.000    0.000    0.000    0.000    0.000 
#    0.000    0.727    0.000    8.364    0.000    2.364 
#
# Total GULP energy -245502.650862 kJ/mol
# GULP energy per Si atom -5579.605701 kJ/mol
# Density = 1.622993 g / cm^3
# Si number density = 16.266956 Si / 1000 Ang^3
#
#
#
# Elastic Constant Matrix: (Units=GPa)
#
#
# Indices 1 2 3 4 5 6 
#
# 1 82.3710 42.3572 7.7883 0.0000 0.0000 0.0000
# 2 42.3572 81.0301 14.8735 0.0000 0.0000 0.0000
# 3 7.7883 14.8735 27.1044 0.0000 0.0000 0.0000
# 4 0.0000 0.0000 0.0000 19.7150 0.0000 0.0000
# 5 0.0000 0.0000 0.0000 0.0000 11.1361 0.0000
# 6 0.0000 0.0000 0.0000 0.0000 0.0000 27.4746
#
#
#
# Elastic Compliance Matrix: (Units=1/GPa)
#
#
# Indices 1 2 3 4 5 6 
#
# 1 0.016603 -0.008677 -0.000009 0.000000 0.000000 0.000000
# 2 -0.008677 0.018258 -0.007526 0.000000 0.000000 0.000000
# 3 -0.000009 -0.007526 0.041027 0.000000 0.000000 0.000000
# 4 0.000000 0.000000 0.000000 0.050723 0.000000 0.000000
# 5 0.000000 0.000000 0.000000 0.000000 0.089798 0.000000
# 6 0.000000 0.000000 0.000000 0.000000 0.000000 0.036397
#
#
# Mechanical properties :
#
#
# Convention : Reuss Voigt Hill
#
# Bulk Modulus (GPa) = 23.00773 35.61593 29.31183
# Shear Modulus (GPa) = 16.68229 20.03092 18.35660
#
# Velocity S-wave (km/s) = 3.20587 3.51292 3.36290
# Velocity P-wave (km/s) = 5.27996 6.19648 5.75649
#
# Compressibility (1/GPa) = 0.04346364
#
# Stress axis : x y z
#
# Youngs Moduli (GPa) = 60.22944 54.76907 24.37428
#
# Poissons Ratio (x) = 0.47525 0.00022
# Poissons Ratio (y) = 0.52263 0.18344
# Poissons Ratio (z) = 0.00055 0.41219
#
# Static dielectric constant tensor:
#      x y z
#    x 1.591210 0.000000 0.000000 
#    y 0.000000 1.537990 0.000000 
#    z 0.000000 0.000000 1.542300 
# 
# From -- ./inp_files/12670.got.cif
#   From: 2010.05.17/outbox.cif.g08.bks.cpg/sg65_7_cif.got.tgz:12670.got - 2010.06.03 17:01:31.
