data_PCOD9487679
_publ_section_title
;
Structure prediction by ZEFSAII (Michael W. Deem and Ramdas Pophale) SiO2 
 PCOD9487679
Probable space group: C M M M
;
_chemical_formula_sum "Si O2"
_cell_formula_units_Z 88
_cell_length_a 19.772973
_cell_length_b 29.688596
_cell_length_c 7.695677
_cell_angle_alpha 90.000000
_cell_angle_beta 90.000000
_cell_angle_gamma 90.000000
_cell_volume 4517.607176
_symmetry_space_group_name_H-M "C M M M"
_symmetry_group_IT_number 65
_symmetry_cell_setting 'orthorhombic'
loop_
_space_group_symop_operation_xyz
x,y,z
-x,-y,z
x,-y,-z
-x,y,-z
-x,-y,-z
x,y,-z
-x,y,z
x,-y,z
1/2+x,1/2+y,z
1/2-x,1/2-y,z
1/2+x,1/2-y,-z
1/2-x,1/2+y,-z
1/2-x,1/2-y,-z
1/2+x,1/2+y,-z
1/2-x,1/2+y,z
1/2+x,1/2-y,z
loop_
_atom_site_type_symbol
_atom_site_label
_atom_site_fract_x
_atom_site_fract_y
_atom_site_fract_z
Si Si1 0.828479 0.913337 0.709326
Si Si2 0.660695 0.786421 0.707838
Si Si3 0.576815 0.934144 0.000000
Si Si4 0.183528 0.552220 0.698147
Si Si5 0.422123 0.500000 0.794002
Si Si6 0.426404 0.172261 0.000000
Si Si7 0.315000 0.686049 0.709339
O O1 0.825948 0.912138 0.500000
O O2 0.751199 0.923445 0.765842
O O3 0.843158 0.862119 0.772313
O O4 0.879466 0.954457 0.750431
O O5 0.650731 0.789330 0.500000
O O6 0.654388 0.733975 0.763816
O O7 0.735382 0.806351 0.745151
O O8 0.610487 0.813804 0.824899
O O9 0.621085 0.945600 0.829786
O O10 0.500000 0.952029 0.000000
O O11 0.570692 0.880919 0.000000
O O12 0.167640 0.567938 0.500000
O O13 0.203556 0.500000 0.686102
O O14 0.500000 0.500000 0.722791
O O15 0.427828 0.500000 0.000000
O O16 0.500000 0.193232 0.000000
O O17 0.321257 0.685374 0.500000
#
# Coordination Sequence:
#
# PCOD9487679 Si02
#       7
#    16  16   8  16   8   8  16
#     4  10  19  36  61  88 112 146 195 241 286 345
#     4   9  18  37  58  83 117 145 179 240 293 332
#     4  11  25  40  56  82 117 157 197 236 288 348
#     4  10  21  37  60  89 116 149 196 243 287 338
#     4  11  25  41  55  81 121 158 193 236 292 354
#     4  11  24  38  53  79 109 149 200 226 265 349
#     4   8  16  32  60  89 110 137 182 233 290 347
#
# _framework density 19.479337999999998
#
# number of rings (size 3 to 8) (size 9 to 14) (size 15 to 20)
#    0.000    2.273    0.909    2.727    1.273    5.818 
#    3.273    3.636    0.000    3.273    0.000    0.000 
#    0.000    0.000    0.000    0.000    0.000    0.000 
#
# Total GULP energy -245163.359133 kJ/mol
# GULP energy per Si atom -5571.894526 kJ/mol
# Density = 1.943500 g / cm^3
# Si number density = 19.479338 Si / 1000 Ang^3
#
#
#
# Elastic Constant Matrix: (Units=GPa)
#
#
# Indices 1 2 3 4 5 6 
#
# 1 66.4747 36.8332 24.9909 0.0000 0.0000 0.0000
# 2 36.8332 151.9257 15.6322 0.0000 0.0000 0.0000
# 3 24.9909 15.6322 57.8221 0.0000 0.0000 0.0000
# 4 0.0000 0.0000 0.0000 -0.2465 0.0000 0.0000
# 5 0.0000 0.0000 0.0000 0.0000 -0.6999 0.0000
# 6 0.0000 0.0000 0.0000 0.0000 0.0000 21.2489
#
#
#
# Elastic Compliance Matrix: (Units=1/GPa)
#
#
# Indices 1 2 3 4 5 6 
#
# 1 0.020182 -0.004110 -0.007612 0.000000 0.000000 0.000000
# 2 -0.004110 0.007607 -0.000280 0.000000 0.000000 0.000000
# 3 -0.007612 -0.000280 0.020660 0.000000 0.000000 0.000000
# 4 0.000000 0.000000 0.000000 -4.056776 0.000000 0.000000
# 5 0.000000 0.000000 0.000000 0.000000 -1.428812 0.000000
# 6 0.000000 0.000000 0.000000 0.000000 0.000000 0.047061
#
#
# Mechanical properties :
#
#
# Convention : Reuss Voigt Hill
#
# Bulk Modulus (GPa) = 40.90685 47.90389 44.40537
# Shear Modulus (GPa) = -0.93320 17.31158 8.18919
#
# Velocity S-wave (km/s) = -0.69290 2.98437 2.05260
# Velocity P-wave (km/s) = 4.51725 6.04324 5.33509
#
# Compressibility (1/GPa) = 0.02444578
#
# Stress axis : x y z
#
# Youngs Moduli (GPa) = 49.54878 131.45094 48.40265
#
# Poissons Ratio (x) = 0.54024 0.36843
# Poissons Ratio (y) = 0.20364 0.01357
# Poissons Ratio (z) = 0.37715 0.03686
#
# Static dielectric constant tensor:
#      x y z
#    x 1.689720 0.000000 0.000000 
#    y 0.000000 1.719500 0.000000 
#    z 0.000000 0.000000 1.684340 
# 
# From -- ./inp_files/10180.got.cif
#   From: 2010.05.17/outbox.cif.g08.bks.cpg/sg65_6_cif.got.tgz:10180.got - 2010.06.03 17:01:31.
