data_PCOD9487445
_publ_section_title
;
Structure prediction by ZEFSAII (Michael W. Deem and Ramdas Pophale) SiO2 
 PCOD9487445
Probable space group: C M M M
;
_chemical_formula_sum "Si O2"
_cell_formula_units_Z 112
_cell_length_a 15.142107
_cell_length_b 25.652170
_cell_length_c 14.297429
_cell_angle_alpha 90.000000
_cell_angle_beta 90.000000
_cell_angle_gamma 90.000000
_cell_volume 5553.520364
_symmetry_space_group_name_H-M "C M M M"
_symmetry_group_IT_number 65
_symmetry_cell_setting 'orthorhombic'
loop_
_space_group_symop_operation_xyz
x,y,z
-x,-y,z
x,-y,-z
-x,y,-z
-x,-y,-z
x,y,-z
-x,y,z
x,-y,z
1/2+x,1/2+y,z
1/2-x,1/2-y,z
1/2+x,1/2-y,-z
1/2-x,1/2+y,-z
1/2-x,1/2-y,-z
1/2+x,1/2+y,-z
1/2-x,1/2+y,z
1/2+x,1/2-y,z
loop_
_atom_site_type_symbol
_atom_site_label
_atom_site_fract_x
_atom_site_fract_y
_atom_site_fract_z
Si Si1 0.239914 0.099031 0.109934
Si Si2 0.641783 0.249992 0.701110
Si Si3 0.162731 0.785126 0.897312
Si Si4 0.401639 0.442620 0.243307
Si Si5 0.644429 0.356402 0.394643
Si Si6 0.358525 0.141310 0.607983
Si Si7 0.101700 0.438457 0.234069
O O1 0.199769 0.157017 0.122657
O O2 0.169710 0.063037 0.162265
O O3 0.331943 0.090111 0.162919
O O4 0.248582 0.089038 0.000000
O O5 0.750000 0.250000 0.702737
O O6 0.612577 0.263203 0.806913
O O7 0.616339 0.298501 0.636106
O O8 0.613209 0.194509 0.660455
O O9 0.250000 0.750000 0.904978
O O10 0.118675 0.784895 0.000000
O O11 0.500000 0.437244 0.203680
O O12 0.393220 0.500000 0.286760
O O13 0.387776 0.398444 0.320347
O O14 0.615707 0.367730 0.500000
O O15 0.751436 0.358103 0.391873
O O16 0.387310 0.140803 0.500000
O O17 0.388407 0.091538 0.667507
O O18 0.124186 0.500000 0.241310
O O19 0.000000 0.434540 0.203444
#
# Coordination Sequence:
#
# PCOD9487445 Si02
#       7
#    16  16  16  16  16  16  16
#     4  11  22  41  67  92 122 160 203 250 302 364
#     4   9  15  30  55  86 125 155 195 249 301 357
#     4   9  16  28  56  92 121 156 198 237 294 363
#     4  11  24  41  60  86 122 159 200 251 302 356
#     4  10  19  34  59  88 119 160 205 248 303 365
#     4  10  20  35  60  91 122 162 207 251 305 364
#     4  11  24  41  61  88 123 161 205 258 312 364
#
# _framework density 20.167387999999999
#
# number of rings (size 3 to 8) (size 9 to 14) (size 15 to 20)
#    0.000    1.857    2.857    2.571    0.000    4.571 
#    0.000    5.000    0.000    1.714    0.000    4.000 
#    0.000    0.000    0.000    0.000    0.000    0.000 
#
# Total GULP energy -312693.985184 kJ/mol
# GULP energy per Si atom -5583.821164 kJ/mol
# Density = 2.012149 g / cm^3
# Si number density = 20.167388 Si / 1000 Ang^3
#
#
#
# Elastic Constant Matrix: (Units=GPa)
#
#
# Indices 1 2 3 4 5 6 
#
# 1 65.2381 9.6528 33.0550 0.0000 0.0000 0.0000
# 2 9.6528 90.5621 45.6176 0.0000 0.0000 0.0000
# 3 33.0550 45.6176 155.3190 0.0000 0.0000 0.0000
# 4 0.0000 0.0000 0.0000 8.9127 0.0000 0.0000
# 5 0.0000 0.0000 0.0000 0.0000 -2.9719 0.0000
# 6 0.0000 0.0000 0.0000 0.0000 0.0000 125.0994
#
#
#
# Elastic Compliance Matrix: (Units=1/GPa)
#
#
# Indices 1 2 3 4 5 6 
#
# 1 0.017181 0.000012 -0.003660 0.000000 0.000000 0.000000
# 2 0.000012 0.012959 -0.003809 0.000000 0.000000 0.000000
# 3 -0.003660 -0.003809 0.008336 0.000000 0.000000 0.000000
# 4 0.000000 0.000000 0.000000 0.112200 0.000000 0.000000
# 5 0.000000 0.000000 0.000000 0.000000 -0.336485 0.000000
# 6 0.000000 0.000000 0.000000 0.000000 0.000000 0.007994
#
#
# Mechanical properties :
#
#
# Convention : Reuss Voigt Hill
#
# Bulk Modulus (GPa) = 42.43884 54.19667 48.31775
# Shear Modulus (GPa) = -32.24833 41.06097 4.40632
#
# Velocity S-wave (km/s) = -4.00313 4.51711 1.47974
# Velocity P-wave (km/s) = 0.52702 7.35782 5.18940
#
# Compressibility (1/GPa) = 0.02356332
#
# Stress axis : x y z
#
# Youngs Moduli (GPa) = 58.20335 77.16407 119.96198
#
# Poissons Ratio (x) = -0.00095 0.43907
# Poissons Ratio (y) = -0.00072 0.45692
# Poissons Ratio (z) = 0.21303 0.29391
#
# Static dielectric constant tensor:
#      x y z
#    x 1.767800 0.000000 0.000000 
#    y 0.000000 1.726590 0.000000 
#    z 0.000000 0.000000 1.713550 
# 
# From -- ./inp_files/40754.got.cif
#   From: 2010.05.17/outbox.cif.g08.bks.cpg/sg65_21_cif.got.tgz:40754.got - 2010.06.03 17:01:31.
