data_PCOD9487973
_publ_section_title
;
Structure prediction by ZEFSAII (Michael W. Deem and Ramdas Pophale) SiO2 
 PCOD9487973
Probable space group: C M M M
;
_chemical_formula_sum "Si O2"
_cell_formula_units_Z 96
_cell_length_a 7.692582
_cell_length_b 28.721341
_cell_length_c 24.743553
_cell_angle_alpha 90.000000
_cell_angle_beta 90.000000
_cell_angle_gamma 90.000000
_cell_volume 5466.872044
_symmetry_space_group_name_H-M "C M M M"
_symmetry_group_IT_number 65
_symmetry_cell_setting 'orthorhombic'
loop_
_space_group_symop_operation_xyz
x,y,z
-x,-y,z
x,-y,-z
-x,y,-z
-x,-y,-z
x,y,-z
-x,y,z
x,-y,z
1/2+x,1/2+y,z
1/2-x,1/2-y,z
1/2+x,1/2-y,-z
1/2-x,1/2+y,-z
1/2-x,1/2-y,-z
1/2+x,1/2+y,-z
1/2-x,1/2+y,z
1/2+x,1/2-y,z
loop_
_atom_site_type_symbol
_atom_site_label
_atom_site_fract_x
_atom_site_fract_y
_atom_site_fract_z
Si Si1 0.792443 0.643210 0.833043
Si Si2 0.712222 0.053770 0.560879
Si Si3 0.205980 0.196754 0.939669
Si Si4 0.712216 0.052451 0.225755
Si Si5 0.291401 0.196580 0.727854
Si Si6 0.712064 0.893190 0.666063
O O1 0.758460 0.661818 0.892576
O O2 0.729077 0.591637 0.817018
O O3 0.726871 0.678896 0.786712
O O4 0.000000 0.641708 0.826948
O O5 0.767553 0.066332 0.500000
O O6 0.500000 0.054520 0.561144
O O7 0.772971 0.087225 0.608771
O O8 0.762388 0.000000 0.571238
O O9 0.250000 0.250000 0.924592
O O10 0.000000 0.194015 0.943484
O O11 0.279873 0.187990 0.000000
O O12 0.500000 0.051207 0.224493
O O13 0.759925 0.072102 0.284942
O O14 0.774069 0.000000 0.216770
O O15 0.500000 0.193237 0.728759
O O16 0.250000 0.250000 0.717295
O O17 0.230167 0.158318 0.684244
O O18 0.500000 0.892758 0.664434
#
# Coordination Sequence:
#
# PCOD9487973 Si02
#       6
#    16  16  16  16  16  16
#     4   9  17  28  43  64  86 107 134 167 202 241
#     4   8  12  17  28  49  76 104 131 159 196 242
#     4  10  20  32  46  64  85 109 136 165 200 242
#     4   8  13  22  38  59  81 105 133 166 203 241
#     4   9  17  27  39  57  80 106 135 165 199 239
#     4   8  13  21  33  51  77 106 133 163 201 242
#
# _framework density 17.560314999999999
#
# number of rings (size 3 to 8) (size 9 to 14) (size 15 to 20)
#    0.000    3.333    0.000    4.000    0.000    5.000 
#    0.000    0.000    0.000    1.500    0.000    3.500 
#    0.000    2.000    0.000    1.833    0.000    3.500 
#
# Total GULP energy -267373.799042 kJ/mol
# GULP energy per Si atom -5570.287480 kJ/mol
# Density = 1.752035 g / cm^3
# Si number density = 17.560315 Si / 1000 Ang^3
#
#
#
# Elastic Constant Matrix: (Units=GPa)
#
#
# Indices 1 2 3 4 5 6 
#
# 1 26.8647 7.7147 6.1272 0.0000 0.0000 0.0000
# 2 7.7147 171.1980 108.5353 0.0000 0.0000 0.0000
# 3 6.1272 108.5353 143.5893 0.0000 0.0000 0.0000
# 4 0.0000 0.0000 0.0000 27.1009 0.0000 0.0000
# 5 0.0000 0.0000 0.0000 0.0000 -16.7045 0.0000
# 6 0.0000 0.0000 0.0000 0.0000 0.0000 11.6220
#
#
#
# Elastic Compliance Matrix: (Units=1/GPa)
#
#
# Indices 1 2 3 4 5 6 
#
# 1 0.037741 -0.001305 -0.000624 0.000000 0.000000 0.000000
# 2 -0.001305 0.011261 -0.008456 0.000000 0.000000 0.000000
# 3 -0.000624 -0.008456 0.013383 0.000000 0.000000 0.000000
# 4 0.000000 0.000000 0.000000 0.036899 0.000000 0.000000
# 5 0.000000 0.000000 0.000000 0.000000 -0.059864 0.000000
# 6 0.000000 0.000000 0.000000 0.000000 0.000000 0.086043
#
#
# Mechanical properties :
#
#
# Convention : Reuss Voigt Hill
#
# Bulk Modulus (GPa) = 24.03044 65.15626 44.59335
# Shear Modulus (GPa) = 31.22954 19.02200 25.12577
#
# Velocity S-wave (km/s) = 4.22170 3.29483 3.78673
# Velocity P-wave (km/s) = 6.12192 7.18744 6.67597
#
# Compressibility (1/GPa) = 0.04161388
#
# Stress axis : x y z
#
# Youngs Moduli (GPa) = 26.49659 88.80168 74.72291
#
# Poissons Ratio (x) = 0.11590 0.04662
# Poissons Ratio (y) = 0.03458 0.63187
# Poissons Ratio (z) = 0.01653 0.75093
#
# Static dielectric constant tensor:
#      x y z
#    x 1.690610 0.000000 0.000000 
#    y 0.000000 1.572930 0.000000 
#    z 0.000000 0.000000 1.617230 
# 
# From -- ./inp_files/68033.got.cif
#   From: 2010.05.17/outbox.cif.g08.bks.cpg/sg65_35_cif.got.tgz:68033.got - 2010.06.03 17:01:31.
