data_PCOD9487117
_publ_section_title
;
Structure prediction by ZEFSAII (Michael W. Deem and Ramdas Pophale) SiO2 
 PCOD9487117
Probable space group: C M M M
;
_chemical_formula_sum "Si O2"
_cell_formula_units_Z 66
_cell_length_a 15.574798
_cell_length_b 26.644281
_cell_length_c 7.598195
_cell_angle_alpha 90.000000
_cell_angle_beta 90.000000
_cell_angle_gamma 90.000000
_cell_volume 3153.093600
_symmetry_space_group_name_H-M "C M M M"
_symmetry_group_IT_number 65
_symmetry_cell_setting 'orthorhombic'
loop_
_space_group_symop_operation_xyz
x,y,z
-x,-y,z
x,-y,-z
-x,y,-z
-x,-y,-z
x,y,-z
-x,y,z
x,-y,z
1/2+x,1/2+y,z
1/2-x,1/2-y,z
1/2+x,1/2-y,-z
1/2-x,1/2+y,-z
1/2-x,1/2-y,-z
1/2+x,1/2+y,-z
1/2-x,1/2+y,z
1/2+x,1/2-y,z
loop_
_atom_site_type_symbol
_atom_site_label
_atom_site_fract_x
_atom_site_fract_y
_atom_site_fract_z
Si Si1 0.000000 0.942612 0.715807
Si Si2 0.138769 0.136012 0.702662
Si Si3 0.597741 0.746831 0.287177
Si Si4 0.500000 0.090686 0.784911
Si Si5 0.173609 0.649401 0.795650
Si Si6 0.500000 0.000000 0.500000
O O1 0.082619 0.909863 0.773958
O O2 0.000000 0.945526 0.500000
O O3 0.000000 0.000000 0.777941
O O4 0.110703 0.140098 0.500000
O O5 0.119683 0.191131 0.780343
O O6 0.240651 0.129227 0.706137
O O7 0.601150 0.746276 0.500000
O O8 0.500000 0.759032 0.233346
O O9 0.660470 0.791185 0.230532
O O10 0.585371 0.122748 0.742473
O O11 0.500000 0.043391 0.656950
O O12 0.500000 0.080957 0.000000
O O13 0.186213 0.639355 0.000000
#
# Coordination Sequence:
#
# PCOD9487117 Si02
#       6
#     8  16  16   8  16   2
#     4   9  18  37  61  88 118 152 196 263 313 352
#     4  10  20  36  59  89 123 157 207 258 309 372
#     4  10  19  33  58  87 122 161 202 255 313 378
#     4  10  25  46  64  95 134 159 211 276 314 379
#     4  11  23  39  59  88 126 164 198 256 316 371
#     4  12  26  44  80  90 112 178 218 248 346 390
#
# _framework density 20.931825
#
# number of rings (size 3 to 8) (size 9 to 14) (size 15 to 20)
#    0.000    1.818    2.424    1.636    3.394    3.879 
#    2.182    0.606    0.000    0.727    0.000    0.000 
#    0.000    0.000    0.000    0.000    0.000    0.000 
#
# Total GULP energy -183973.074000 kJ/mol
# GULP energy per Si atom -5574.941636 kJ/mol
# Density = 2.088418 g / cm^3
# Si number density = 20.931825 Si / 1000 Ang^3
#
#
#
# Elastic Constant Matrix: (Units=GPa)
#
#
# Indices 1 2 3 4 5 6 
#
# 1 146.4258 79.8378 9.7751 0.0000 0.0000 0.0000
# 2 79.8378 186.3283 23.1342 0.0000 0.0000 0.0000
# 3 9.7751 23.1342 45.7370 0.0000 0.0000 0.0000
# 4 0.0000 0.0000 0.0000 54.3608 0.0000 0.0000
# 5 0.0000 0.0000 0.0000 0.0000 -136.5613 0.0000
# 6 0.0000 0.0000 0.0000 0.0000 0.0000 13.4652
#
#
#
# Elastic Compliance Matrix: (Units=1/GPa)
#
#
# Indices 1 2 3 4 5 6 
#
# 1 0.008911 -0.003822 0.000029 0.000000 0.000000 0.000000
# 2 -0.003822 0.007366 -0.002909 0.000000 0.000000 0.000000
# 3 0.000029 -0.002909 0.023329 0.000000 0.000000 0.000000
# 4 0.000000 0.000000 0.000000 0.018396 0.000000 0.000000
# 5 0.000000 0.000000 0.000000 0.000000 -0.007323 0.000000
# 6 0.000000 0.000000 0.000000 0.000000 0.000000 0.074266
#
#
# Mechanical properties :
#
#
# Convention : Reuss Voigt Hill
#
# Bulk Modulus (GPa) = 38.16487 67.10950 52.63718
# Shear Modulus (GPa) = 33.99445 3.96921 18.98183
#
# Velocity S-wave (km/s) = 4.03433 1.37854 3.01465
# Velocity P-wave (km/s) = 6.32247 5.88765 6.10893
#
# Compressibility (1/GPa) = 0.02620211
#
# Stress axis : x y z
#
# Youngs Moduli (GPa) = 112.21654 135.76602 42.86455
#
# Poissons Ratio (x) = 0.51888 -0.00122
# Poissons Ratio (y) = 0.42888 0.12468
# Poissons Ratio (z) = -0.00321 0.39491
#
# Static dielectric constant tensor:
#      x y z
#    x 1.758220 0.000000 0.000000 
#    y 0.000000 1.730380 0.000000 
#    z 0.000000 0.000000 1.780470 
# 
# From -- ./inp_files/7132.got.cif
#   From: 2010.05.17/outbox.cif.g08.bks.cpg/sg65_4_cif.got.tgz:7132.got - 2010.06.03 17:01:31.
