data_PCOD9487549
_publ_section_title
;
Structure prediction by ZEFSAII (Michael W. Deem and Ramdas Pophale) SiO2 
 PCOD9487549
Probable space group: C M M M
;
_chemical_formula_sum "Si O2"
_cell_formula_units_Z 96
_cell_length_a 25.372303
_cell_length_b 14.538507
_cell_length_c 13.635380
_cell_angle_alpha 90.000000
_cell_angle_beta 90.000000
_cell_angle_gamma 90.000000
_cell_volume 5029.756317
_symmetry_space_group_name_H-M "C M M M"
_symmetry_group_IT_number 65
_symmetry_cell_setting 'orthorhombic'
loop_
_space_group_symop_operation_xyz
x,y,z
-x,-y,z
x,-y,-z
-x,y,-z
-x,-y,-z
x,y,-z
-x,y,z
x,-y,z
1/2+x,1/2+y,z
1/2-x,1/2-y,z
1/2+x,1/2-y,-z
1/2-x,1/2+y,-z
1/2-x,1/2-y,-z
1/2+x,1/2+y,-z
1/2-x,1/2+y,z
1/2+x,1/2-y,z
loop_
_atom_site_type_symbol
_atom_site_label
_atom_site_fract_x
_atom_site_fract_y
_atom_site_fract_z
Si Si1 0.091786 0.300136 0.614783
Si Si2 0.938714 0.197493 0.798633
Si Si3 0.749294 0.895997 0.186309
Si Si4 0.286279 0.160740 0.606933
Si Si5 0.936652 0.000000 0.112151
Si Si6 0.332314 0.250626 0.114450
Si Si7 0.437668 0.000000 0.610495
O O1 0.075445 0.293159 0.500000
O O2 0.067276 0.222958 0.684180
O O3 0.154741 0.301135 0.619738
O O4 0.077142 0.401993 0.654457
O O5 0.924366 0.093083 0.829202
O O6 0.892580 0.256188 0.850411
O O7 0.000000 0.213951 0.827610
O O8 0.732462 0.896521 0.300286
O O9 0.701756 0.841109 0.133560
O O10 0.800597 0.831915 0.170485
O O11 0.757102 0.000000 0.151326
O O12 0.283652 0.114575 0.500000
O O13 0.250000 0.250000 0.605365
O O14 0.000000 0.000000 0.103446
O O15 0.915257 0.000000 0.000000
O O16 0.331032 0.272942 0.000000
O O17 0.500000 0.000000 0.602407
O O18 0.413688 0.000000 0.500000
#
# Coordination Sequence:
#
# PCOD9487549 Si02
#       7
#    16  16  16  16   8  16   8
#     4  10  20  35  59  88 124 165 200 239 293 355
#     4  11  22  39  63  91 121 156 201 254 309 362
#     4  11  22  39  63  91 122 157 199 248 304 360
#     4  10  19  35  58  84 122 159 192 237 286 349
#     4   9  20  38  59  84 111 147 202 258 304 356
#     4  11  24  42  61  88 120 154 205 255 305 365
#     4   9  18  32  52  83 119 157 203 239 269 336
#
# _framework density 19.086411999999999
#
# number of rings (size 3 to 8) (size 9 to 14) (size 15 to 20)
#    0.000    1.667    3.333    2.000    2.333    3.667 
#    0.000    0.417    0.000    1.500    0.000    1.167 
#    0.000    0.000    0.000    0.000    0.000    0.000 
#
# Total GULP energy -267650.507768 kJ/mol
# GULP energy per Si atom -5576.052245 kJ/mol
# Density = 1.904297 g / cm^3
# Si number density = 19.086412 Si / 1000 Ang^3
#
#
#
# Elastic Constant Matrix: (Units=GPa)
#
#
# Indices 1 2 3 4 5 6 
#
# 1 113.2770 24.4268 21.1294 0.0000 0.0000 0.0000
# 2 24.4268 103.9447 31.3840 0.0000 0.0000 0.0000
# 3 21.1294 31.3840 104.3874 0.0000 0.0000 0.0000
# 4 0.0000 0.0000 0.0000 1.4694 0.0000 0.0000
# 5 0.0000 0.0000 0.0000 0.0000 23.5556 0.0000
# 6 0.0000 0.0000 0.0000 0.0000 0.0000 4.2544
#
#
#
# Elastic Compliance Matrix: (Units=1/GPa)
#
#
# Indices 1 2 3 4 5 6 
#
# 1 0.009475 -0.001812 -0.001373 0.000000 0.000000 0.000000
# 2 -0.001812 0.010928 -0.002919 0.000000 0.000000 0.000000
# 3 -0.001373 -0.002919 0.010735 0.000000 0.000000 0.000000
# 4 0.000000 0.000000 0.000000 0.680551 0.000000 0.000000
# 5 0.000000 0.000000 0.000000 0.000000 0.042453 0.000000
# 6 0.000000 0.000000 0.000000 0.000000 0.000000 0.235052
#
#
# Mechanical properties :
#
#
# Convention : Reuss Voigt Hill
#
# Bulk Modulus (GPa) = 52.82580 52.83217 52.82898
# Shear Modulus (GPa) = 4.96174 22.16713 13.56444
#
# Velocity S-wave (km/s) = 1.61408 3.41164 2.66876
# Velocity P-wave (km/s) = 5.58668 6.57721 6.10207
#
# Compressibility (1/GPa) = 0.01893015
#
# Stress axis : x y z
#
# Youngs Moduli (GPa) = 105.54358 91.51203 93.15240
#
# Poissons Ratio (x) = 0.16582 0.12790
# Poissons Ratio (y) = 0.19124 0.27187
# Poissons Ratio (z) = 0.14492 0.26709
#
# Static dielectric constant tensor:
#      x y z
#    x 1.654210 0.000000 0.000000 
#    y 0.000000 1.660550 0.000000 
#    z 0.000000 0.000000 1.726500 
# 
# From -- ./inp_files/45706.got.cif
#   From: 2010.05.17/outbox.cif.g08.bks.cpg/sg65_23_cif.got.tgz:45706.got - 2010.06.03 17:01:31.
