data_PCOD9487281
_publ_section_title
;
Structure prediction by ZEFSAII (Michael W. Deem and Ramdas Pophale) SiO2 
 PCOD9487281
Probable space group: C M M M
;
_chemical_formula_sum "Si O2"
_cell_formula_units_Z 96
_cell_length_a 26.984088
_cell_length_b 21.642896
_cell_length_c 7.825362
_cell_angle_alpha 90.000000
_cell_angle_beta 90.000000
_cell_angle_gamma 90.000000
_cell_volume 4570.119478
_symmetry_space_group_name_H-M "C M M M"
_symmetry_group_IT_number 65
_symmetry_cell_setting 'orthorhombic'
loop_
_space_group_symop_operation_xyz
x,y,z
-x,-y,z
x,-y,-z
-x,y,-z
-x,-y,-z
x,y,-z
-x,y,z
x,-y,z
1/2+x,1/2+y,z
1/2-x,1/2-y,z
1/2+x,1/2-y,-z
1/2-x,1/2+y,-z
1/2-x,1/2-y,-z
1/2+x,1/2+y,-z
1/2-x,1/2+y,z
1/2+x,1/2-y,z
loop_
_atom_site_type_symbol
_atom_site_label
_atom_site_fract_x
_atom_site_fract_y
_atom_site_fract_z
Si Si1 0.555660 0.308294 0.204907
Si Si2 0.281321 0.410591 0.804899
Si Si3 0.112695 0.689938 0.196849
Si Si4 0.889478 0.065980 0.302755
Si Si5 0.831965 0.570079 0.208791
Si Si6 0.803503 0.777874 0.692718
O O1 0.500000 0.320706 0.266607
O O2 0.574859 0.241326 0.272103
O O3 0.589805 0.368589 0.235424
O O4 0.554813 0.301252 0.000000
O O5 0.329770 0.435832 0.711510
O O6 0.225628 0.420602 0.734750
O O7 0.293860 0.338718 0.798553
O O8 0.281445 0.432539 0.000000
O O9 0.130261 0.623569 0.270801
O O10 0.162711 0.729938 0.208478
O O11 0.097929 0.678411 0.000000
O O12 0.903717 0.065669 0.500000
O O13 0.907348 0.000000 0.224730
O O14 0.846657 0.500000 0.252777
O O15 0.830756 0.575068 0.000000
O O16 0.823839 0.790965 0.500000
O O17 0.750000 0.750000 0.670007
#
# Coordination Sequence:
#
# PCOD9487281 Si02
#       6
#    16  16  16  16  16  16
#     4  10  22  39  59  82 104 134 182 235 283 330
#     4  11  20  32  53  79 110 147 189 223 255 308
#     4  10  19  34  56  77 103 141 182 226 272 321
#     4  11  24  39  55  79 112 148 183 222 273 327
#     4   9  18  31  50  79 111 144 183 221 259 312
#     4  11  21  31  48  77 112 144 178 222 269 316
#
# _framework density 21.006015000000001
#
# number of rings (size 3 to 8) (size 9 to 14) (size 15 to 20)
#    0.000    1.667    3.333    2.000    0.000    3.333 
#    0.000    1.667    0.000    2.000    0.000    3.500 
#    0.000    0.000    0.000    3.000    0.000    3.333 
#
# Total GULP energy -267347.897830 kJ/mol
# GULP energy per Si atom -5569.747871 kJ/mol
# Density = 2.095820 g / cm^3
# Si number density = 21.006015 Si / 1000 Ang^3
#
#
#
# Elastic Constant Matrix: (Units=GPa)
#
#
# Indices 1 2 3 4 5 6 
#
# 1 82.2650 49.1156 2.5745 0.0000 0.0000 0.0000
# 2 49.1156 198.6965 6.8429 0.0000 0.0000 0.0000
# 3 2.5745 6.8429 38.0386 0.0000 0.0000 0.0000
# 4 0.0000 0.0000 0.0000 10.1302 0.0000 0.0000
# 5 0.0000 0.0000 0.0000 0.0000 -6.6997 0.0000
# 6 0.0000 0.0000 0.0000 0.0000 0.0000 -3.4665
#
#
#
# Elastic Compliance Matrix: (Units=1/GPa)
#
#
# Indices 1 2 3 4 5 6 
#
# 1 0.014265 -0.003515 -0.000333 0.000000 0.000000 0.000000
# 2 -0.003515 0.005930 -0.000829 0.000000 0.000000 0.000000
# 3 -0.000333 -0.000829 0.026461 0.000000 0.000000 0.000000
# 4 0.000000 0.000000 0.000000 0.098715 0.000000 0.000000
# 5 0.000000 0.000000 0.000000 0.000000 -0.149261 0.000000
# 6 0.000000 0.000000 0.000000 0.000000 0.000000 -0.288474
#
#
# Mechanical properties :
#
#
# Convention : Reuss Voigt Hill
#
# Bulk Modulus (GPa) = 26.80813 48.45178 37.62996
# Shear Modulus (GPa) = -18.47898 17.35728 -0.56085
#
# Velocity S-wave (km/s) = -2.96919 2.87766 -0.51728
# Velocity P-wave (km/s) = 1.01737 5.84440 4.19476
#
# Compressibility (1/GPa) = 0.03730211
#
# Stress axis : x y z
#
# Youngs Moduli (GPa) = 70.10358 168.63080 37.79181
#
# Poissons Ratio (x) = 0.59267 0.01259
# Poissons Ratio (y) = 0.24638 0.03133
# Poissons Ratio (z) = 0.02336 0.13978
#
# Static dielectric constant tensor:
#      x y z
#    x 1.756410 0.000000 0.000000 
#    y 0.000000 1.814310 0.000000 
#    z 0.000000 0.000000 1.808320 
# 
# From -- ./inp_files/12212.got.cif
#   From: 2010.05.17/outbox.cif.g08.bks.cpg/sg65_7_cif.got.tgz:12212.got - 2010.06.03 17:01:31.
