data_PCOD9487828
_publ_section_title
;
Structure prediction by ZEFSAII (Michael W. Deem and Ramdas Pophale) SiO2 
 PCOD9487828
Probable space group: C M M M
;
_chemical_formula_sum "Si O2"
_cell_formula_units_Z 80
_cell_length_a 7.653613
_cell_length_b 28.144126
_cell_length_c 19.637593
_cell_angle_alpha 90.000000
_cell_angle_beta 90.000000
_cell_angle_gamma 90.000000
_cell_volume 4230.020965
_symmetry_space_group_name_H-M "C M M M"
_symmetry_group_IT_number 65
_symmetry_cell_setting 'orthorhombic'
loop_
_space_group_symop_operation_xyz
x,y,z
-x,-y,z
x,-y,-z
-x,y,-z
-x,-y,-z
x,y,-z
-x,y,z
x,-y,z
1/2+x,1/2+y,z
1/2-x,1/2-y,z
1/2+x,1/2-y,-z
1/2-x,1/2+y,-z
1/2-x,1/2-y,-z
1/2+x,1/2+y,-z
1/2-x,1/2+y,z
1/2+x,1/2-y,z
loop_
_atom_site_type_symbol
_atom_site_label
_atom_site_fract_x
_atom_site_fract_y
_atom_site_fract_z
Si Si1 0.792345 0.053129 0.647401
Si Si2 0.286774 0.055217 0.924301
Si Si3 0.794371 0.350253 0.424744
Si Si4 0.211006 0.603579 0.212626
Si Si5 0.290148 0.196101 0.711850
O O1 0.720122 0.095231 0.600329
O O2 0.756716 0.068213 0.725489
O O3 0.000000 0.052765 0.637269
O O4 0.724500 0.000000 0.634110
O O5 0.500000 0.056366 0.923908
O O6 0.224174 0.085494 0.860150
O O7 0.237065 0.000000 0.915518
O O8 0.230950 0.070763 0.000000
O O9 0.717825 0.343891 0.500000
O O10 0.720918 0.318328 0.363227
O O11 0.000000 0.339200 0.429074
O O12 0.273270 0.655675 0.236028
O O13 0.000000 0.604733 0.209123
O O14 0.500000 0.191335 0.709445
O O15 0.250000 0.250000 0.729513
#
# Coordination Sequence:
#
# PCOD9487828 Si02
#       5
#    16  16  16  16  16
#     4  10  20  31  44  66  95 124 153 184 219 263
#     4   8  13  22  41  71  99 119 145 184 225 260
#     4   9  19  35  51  67  88 114 148 188 227 272
#     4   9  17  30  48  68  91 120 154 190 225 265
#     4   9  18  31  47  67  88 113 148 188 229 271
#
# _framework density 18.912437000000001
#
# number of rings (size 3 to 8) (size 9 to 14) (size 15 to 20)
#    0.000    3.000    0.000    3.000    0.000    6.800 
#    0.000    2.000    0.000    1.200    0.000    2.800 
#    0.000    0.000    0.000    0.000    0.000    0.400 
#
# Total GULP energy -222999.909978 kJ/mol
# GULP energy per Si atom -5574.997749 kJ/mol
# Density = 1.886939 g / cm^3
# Si number density = 18.912437 Si / 1000 Ang^3
#
#
#
# Elastic Constant Matrix: (Units=GPa)
#
#
# Indices 1 2 3 4 5 6 
#
# 1 34.6324 -2.3995 7.1391 0.0000 0.0000 0.0000
# 2 -2.3995 61.5154 17.5928 0.0000 0.0000 0.0000
# 3 7.1391 17.5928 119.1282 0.0000 0.0000 0.0000
# 4 0.0000 0.0000 0.0000 4.5662 0.0000 0.0000
# 5 0.0000 0.0000 0.0000 0.0000 -14.5259 0.0000
# 6 0.0000 0.0000 0.0000 0.0000 0.0000 19.7184
#
#
#
# Elastic Compliance Matrix: (Units=1/GPa)
#
#
# Indices 1 2 3 4 5 6 
#
# 1 0.029410 0.001724 -0.002017 0.000000 0.000000 0.000000
# 2 0.001724 0.017074 -0.002625 0.000000 0.000000 0.000000
# 3 -0.002017 -0.002625 0.008903 0.000000 0.000000 0.000000
# 4 0.000000 0.000000 0.000000 0.219001 0.000000 0.000000
# 5 0.000000 0.000000 0.000000 0.000000 -0.068842 0.000000
# 6 0.000000 0.000000 0.000000 0.000000 0.000000 0.050714
#
#
# Mechanical properties :
#
#
# Convention : Reuss Voigt Hill
#
# Bulk Modulus (GPa) = 20.18120 28.88234 24.53177
# Shear Modulus (GPa) = 17.94610 14.81465 16.38037
#
# Velocity S-wave (km/s) = 3.08377 2.80184 2.94618
# Velocity P-wave (km/s) = 4.83462 5.07659 4.95708
#
# Compressibility (1/GPa) = 0.04955107
#
# Stress axis : x y z
#
# Youngs Moduli (GPa) = 34.00208 58.56859 112.32389
#
# Poissons Ratio (x) = -0.10097 0.22657
# Poissons Ratio (y) = -0.05862 0.29483
# Poissons Ratio (z) = 0.06859 0.15373
#
# Static dielectric constant tensor:
#      x y z
#    x 1.688990 0.000000 0.000000 
#    y 0.000000 1.647500 0.000000 
#    z 0.000000 0.000000 1.666220 
# 
# From -- ./inp_files/49837.got.cif
#   From: 2010.05.17/outbox.cif.g08.bks.cpg/sg65_25_cif.got.tgz:49837.got - 2010.06.03 17:01:31.
