data_PCOD9487336
_publ_section_title
;
Structure prediction by ZEFSAII (Michael W. Deem and Ramdas Pophale) SiO2 
 PCOD9487336
Probable space group: C M M M
;
_chemical_formula_sum "Si O2"
_cell_formula_units_Z 72
_cell_length_a 15.567649
_cell_length_b 8.447144
_cell_length_c 27.893397
_cell_angle_alpha 90.000000
_cell_angle_beta 90.000000
_cell_angle_gamma 90.000000
_cell_volume 3668.042314
_symmetry_space_group_name_H-M "C M M M"
_symmetry_group_IT_number 65
_symmetry_cell_setting 'orthorhombic'
loop_
_space_group_symop_operation_xyz
x,y,z
-x,-y,z
x,-y,-z
-x,y,-z
-x,-y,-z
x,y,-z
-x,y,z
x,-y,z
1/2+x,1/2+y,z
1/2-x,1/2-y,z
1/2+x,1/2-y,-z
1/2-x,1/2+y,-z
1/2-x,1/2-y,-z
1/2+x,1/2+y,-z
1/2-x,1/2+y,z
1/2+x,1/2-y,z
loop_
_atom_site_type_symbol
_atom_site_label
_atom_site_fract_x
_atom_site_fract_y
_atom_site_fract_z
Si Si1 0.100271 0.192659 0.500000
Si Si2 0.000000 0.193324 0.669405
Si Si3 0.651661 0.188088 0.846031
Si Si4 0.158403 0.808937 0.395862
Si Si5 0.500000 0.690065 0.779559
Si Si6 0.151409 0.190156 0.947997
O O1 0.142015 0.248074 0.549582
O O2 0.000000 0.235347 0.500000
O O3 0.104141 0.000000 0.500000
O O4 0.916929 0.244241 0.639393
O O5 0.000000 0.245079 0.724354
O O6 0.000000 0.000000 0.669577
O O7 0.750000 0.250000 0.840410
O O8 0.585316 0.251504 0.806770
O O9 0.616929 0.240782 0.898500
O O10 0.654923 0.000000 0.844373
O O11 0.250000 0.750000 0.378973
O O12 0.156911 0.000000 0.396983
O O13 0.500000 0.500000 0.780306
O O14 0.250000 0.250000 0.949131
O O15 0.150375 0.000000 0.944796
O O16 0.112945 0.235004 0.000000
#
# Coordination Sequence:
#
# PCOD9487336 Si02
#       6
#     8   8  16  16   8  16
#     4   9  15  28  55  82 111 152 189 221 260 326
#     4   9  20  38  59  79 105 144 188 231 279 340
#     4  11  22  38  60  86 115 150 191 236 287 345
#     4  10  19  34  56  84 113 146 187 226 273 329
#     4  11  23  41  61  82 110 146 192 246 297 344
#     4   9  16  28  50  81 115 150 186 226 276 336
#
# _framework density 19.629000999999999
#
# number of rings (size 3 to 8) (size 9 to 14) (size 15 to 20)
#    0.000    2.111    1.111    4.667    0.000    2.222 
#    0.000    5.556    0.000    4.000    0.000    0.000 
#    0.000    0.000    0.000    0.000    0.000    0.000 
#
# Total GULP energy -200927.401863 kJ/mol
# GULP energy per Si atom -5581.316718 kJ/mol
# Density = 1.958432 g / cm^3
# Si number density = 19.629001 Si / 1000 Ang^3
#
#
#
# Elastic Constant Matrix: (Units=GPa)
#
#
# Indices 1 2 3 4 5 6 
#
# 1 138.3384 25.6339 93.1789 0.0000 0.0000 0.0000
# 2 25.6339 65.5535 41.4098 0.0000 0.0000 0.0000
# 3 93.1789 41.4098 199.7263 0.0000 0.0000 0.0000
# 4 0.0000 0.0000 0.0000 10.6337 0.0000 0.0000
# 5 0.0000 0.0000 0.0000 0.0000 -6.7319 0.0000
# 6 0.0000 0.0000 0.0000 0.0000 0.0000 25.2437
#
#
#
# Elastic Compliance Matrix: (Units=1/GPa)
#
#
# Indices 1 2 3 4 5 6 
#
# 1 0.010619 -0.001177 -0.004710 0.000000 0.000000 0.000000
# 2 -0.001177 0.017684 -0.003117 0.000000 0.000000 0.000000
# 3 -0.004710 -0.003117 0.007851 0.000000 0.000000 0.000000
# 4 0.000000 0.000000 0.000000 0.094040 0.000000 0.000000
# 5 0.000000 0.000000 0.000000 0.000000 -0.148547 0.000000
# 6 0.000000 0.000000 0.000000 0.000000 0.000000 0.039614
#
#
# Mechanical properties :
#
#
# Convention : Reuss Voigt Hill
#
# Bulk Modulus (GPa) = 55.11215 80.45149 67.78182
# Shear Modulus (GPa) = 110.32791 22.05549 66.19170
#
# Velocity S-wave (km/s) = 7.50524 3.35568 5.81331
# Velocity P-wave (km/s) = 10.16084 7.48927 8.92557
#
# Compressibility (1/GPa) = 0.01814482
#
# Stress axis : x y z
#
# Youngs Moduli (GPa) = 94.16739 56.54756 127.37790
#
# Poissons Ratio (x) = 0.06657 0.59998
# Poissons Ratio (y) = 0.11085 0.39708
# Poissons Ratio (z) = 0.44355 0.17628
#
# Static dielectric constant tensor:
#      x y z
#    x 1.674630 0.000000 0.000000 
#    y 0.000000 1.664990 0.000000 
#    z 0.000000 0.000000 1.709220 
# 
# From -- ./inp_files/74645.got.cif
#   From: 2010.05.17/outbox.cif.g08.bks.cpg/sg65_38_cif.got.tgz:74645.got - 2010.06.03 17:01:31.
