data_PCOD9487875
_publ_section_title
;
Structure prediction by ZEFSAII (Michael W. Deem and Ramdas Pophale) SiO2 
 PCOD9487875
Probable space group: C M M M
;
_chemical_formula_sum "Si O2"
_cell_formula_units_Z 112
_cell_length_a 14.521501
_cell_length_b 22.374711
_cell_length_c 15.854882
_cell_angle_alpha 90.000000
_cell_angle_beta 90.000000
_cell_angle_gamma 90.000000
_cell_volume 5151.479284
_symmetry_space_group_name_H-M "C M M M"
_symmetry_group_IT_number 65
_symmetry_cell_setting 'orthorhombic'
loop_
_space_group_symop_operation_xyz
x,y,z
-x,-y,z
x,-y,-z
-x,y,-z
-x,-y,-z
x,y,-z
-x,y,z
x,-y,z
1/2+x,1/2+y,z
1/2-x,1/2-y,z
1/2+x,1/2-y,-z
1/2-x,1/2+y,-z
1/2-x,1/2-y,-z
1/2+x,1/2+y,-z
1/2-x,1/2+y,z
1/2+x,1/2-y,z
loop_
_atom_site_type_symbol
_atom_site_label
_atom_site_fract_x
_atom_site_fract_y
_atom_site_fract_z
Si Si1 0.901623 0.933034 0.261414
Si Si2 0.104481 0.783412 0.370539
Si Si3 0.107795 0.638317 0.098797
Si Si4 0.394935 0.621051 0.090730
Si Si5 0.350667 0.735706 0.816534
Si Si6 0.691019 0.928015 0.259544
Si Si7 0.697735 0.156721 0.405687
O O1 0.898884 0.929877 0.159882
O O2 0.798569 0.913561 0.277112
O O3 0.000000 0.904536 0.286797
O O4 0.905534 0.000000 0.293551
O O5 0.097796 0.782394 0.268175
O O6 0.192644 0.824840 0.395482
O O7 0.139660 0.717938 0.397835
O O8 0.000000 0.795579 0.402252
O O9 0.114589 0.706735 0.132737
O O10 0.160507 0.597678 0.168258
O O11 0.000000 0.621235 0.101113
O O12 0.137859 0.634588 0.000000
O O13 0.500000 0.643867 0.085778
O O14 0.341300 0.678670 0.123021
O O15 0.364173 0.600057 0.000000
O O16 0.250000 0.750000 0.783047
O O17 0.653077 0.887810 0.335993
O O18 0.676894 0.000000 0.263242
O O19 0.688861 0.131754 0.500000
#
# Coordination Sequence:
#
# PCOD9487875 Si02
#       7
#    16  16  16  16  16  16  16
#     4   9  19  36  57  81 112 156 211 265 318 380
#     4  11  21  39  66  94 131 171 204 253 320 381
#     4  11  24  42  64  91 126 171 221 271 323 381
#     4  10  20  31  46  75 113 155 203 250 304 372
#     4  12  21  34  56  88 126 164 207 260 317 379
#     4  11  24  43  66  91 124 170 216 266 330 385
#     4  11  24  42  64  98 132 161 214 267 313 387
#
# _framework density 21.741327999999999
#
# number of rings (size 3 to 8) (size 9 to 14) (size 15 to 20)
#    0.000    1.286    2.857    4.286    0.000    8.000 
#    0.000    3.571    0.000    0.000    0.000    5.000 
#    0.000    0.000    0.000    0.000    0.000    0.000 
#
# Total GULP energy -311939.764254 kJ/mol
# GULP energy per Si atom -5570.352933 kJ/mol
# Density = 2.169184 g / cm^3
# Si number density = 21.741328 Si / 1000 Ang^3
#
#
#
# Elastic Constant Matrix: (Units=GPa)
#
#
# Indices 1 2 3 4 5 6 
#
# 1 85.4958 13.0202 -3.8155 0.0000 0.0000 0.0000
# 2 13.0202 101.6542 44.1259 0.0000 0.0000 0.0000
# 3 -3.8155 44.1259 113.4866 0.0000 0.0000 0.0000
# 4 0.0000 0.0000 0.0000 9.6256 0.0000 0.0000
# 5 0.0000 0.0000 0.0000 0.0000 184.3052 0.0000
# 6 0.0000 0.0000 0.0000 0.0000 0.0000 17.7326
#
#
#
# Elastic Compliance Matrix: (Units=1/GPa)
#
#
# Indices 1 2 3 4 5 6 
#
# 1 0.012066 -0.002071 0.001211 0.000000 0.000000 0.000000
# 2 -0.002071 0.012190 -0.004809 0.000000 0.000000 0.000000
# 3 0.001211 -0.004809 0.010722 0.000000 0.000000 0.000000
# 4 0.000000 0.000000 0.000000 0.103890 0.000000 0.000000
# 5 0.000000 0.000000 0.000000 0.000000 0.005426 0.000000
# 6 0.000000 0.000000 0.000000 0.000000 0.000000 0.056393
#
#
# Mechanical properties :
#
#
# Convention : Reuss Voigt Hill
#
# Bulk Modulus (GPa) = 42.30241 45.25533 43.77887
# Shear Modulus (GPa) = 22.73696 58.81974 40.77835
#
# Velocity S-wave (km/s) = 3.23738 5.20702 4.33553
# Velocity P-wave (km/s) = 5.78564 7.55058 6.72625
#
# Compressibility (1/GPa) = 0.02363932
#
# Stress axis : x y z
#
# Youngs Moduli (GPa) = 82.87800 82.03299 93.26327
#
# Poissons Ratio (x) = 0.16990 -0.11294
# Poissons Ratio (y) = 0.17165 0.44854
# Poissons Ratio (z) = -0.10036 0.39453
#
# Static dielectric constant tensor:
#      x y z
#    x 1.917690 0.000000 0.000000 
#    y 0.000000 1.789180 0.000000 
#    z 0.000000 0.000000 1.822790 
# 
# From -- ./inp_files/40798.got.cif
#   From: 2010.05.17/outbox.cif.g08.bks.cpg/sg65_21_cif.got.tgz:40798.got - 2010.06.03 17:01:31.
