data_PCOD9487584
_publ_section_title
;
Structure prediction by ZEFSAII (Michael W. Deem and Ramdas Pophale) SiO2 
 PCOD9487584
Probable space group: C M M M
;
_chemical_formula_sum "Si O2"
_cell_formula_units_Z 88
_cell_length_a 8.644788
_cell_length_b 29.356358
_cell_length_c 18.409274
_cell_angle_alpha 90.000000
_cell_angle_beta 90.000000
_cell_angle_gamma 90.000000
_cell_volume 4671.896192
_symmetry_space_group_name_H-M "C M M M"
_symmetry_group_IT_number 65
_symmetry_cell_setting 'orthorhombic'
loop_
_space_group_symop_operation_xyz
x,y,z
-x,-y,z
x,-y,-z
-x,y,-z
-x,-y,-z
x,y,-z
-x,y,z
x,-y,z
1/2+x,1/2+y,z
1/2-x,1/2-y,z
1/2+x,1/2-y,-z
1/2-x,1/2+y,-z
1/2-x,1/2-y,-z
1/2+x,1/2+y,-z
1/2-x,1/2+y,z
1/2+x,1/2-y,z
loop_
_atom_site_type_symbol
_atom_site_label
_atom_site_fract_x
_atom_site_fract_y
_atom_site_fract_z
Si Si1 0.186965 0.946849 0.224230
Si Si2 0.685387 0.298916 0.682826
Si Si3 0.685872 0.298426 0.146690
Si Si4 0.685765 0.446989 0.500000
Si Si5 0.688675 0.606166 0.080873
Si Si6 0.815995 0.393187 0.637880
O O1 0.235060 0.927272 0.145842
O O2 0.261284 0.917594 0.288148
O O3 0.000000 0.942117 0.229784
O O4 0.225121 0.000000 0.231481
O O5 0.500000 0.299186 0.678713
O O6 0.750000 0.250000 0.658874
O O7 0.729761 0.304350 0.768336
O O8 0.752840 0.341693 0.640066
O O9 0.500000 0.296755 0.143883
O O10 0.750000 0.250000 0.121065
O O11 0.737397 0.342548 0.102025
O O12 0.734145 0.500000 0.500000
O O13 0.500000 0.445674 0.500000
O O14 0.747657 0.421432 0.570929
O O15 0.500000 0.605991 0.080278
O O16 0.741094 0.593786 0.000000
O O17 0.000000 0.392752 0.633781
#
# Coordination Sequence:
#
# PCOD9487584 Si02
#       6
#    16  16  16   8  16  16
#     4  10  20  36  58  82 110 150 199 248 300 356
#     4  10  19  35  59  88 121 156 198 242 289 345
#     4   9  17  30  50  76 109 146 187 236 288 343
#     4  11  25  45  68  93 122 157 195 241 297 349
#     4   9  17  31  51  78 112 148 191 246 300 348
#     4  12  24  39  62  91 123 157 194 238 291 349
#
# _framework density 18.836034999999999
#
# number of rings (size 3 to 8) (size 9 to 14) (size 15 to 20)
#    0.000    1.909    1.818    3.000    0.000    4.727 
#    0.000    2.273    0.000    1.636    0.000    1.273 
#    0.000    0.000    0.000    0.000    0.000    0.000 
#
# Total GULP energy -245756.848851 kJ/mol
# GULP energy per Si atom -5585.382928 kJ/mol
# Density = 1.879316 g / cm^3
# Si number density = 18.836035 Si / 1000 Ang^3
#
#
#
# Elastic Constant Matrix: (Units=GPa)
#
#
# Indices 1 2 3 4 5 6 
#
# 1 42.5682 52.1230 32.9946 0.0000 0.0000 0.0000
# 2 52.1230 157.2139 80.6871 0.0000 0.0000 0.0000
# 3 32.9946 80.6871 116.2567 0.0000 0.0000 0.0000
# 4 0.0000 0.0000 0.0000 1.7100 0.0000 0.0000
# 5 0.0000 0.0000 0.0000 0.0000 -5.0103 0.0000
# 6 0.0000 0.0000 0.0000 0.0000 0.0000 28.5817
#
#
#
# Elastic Compliance Matrix: (Units=1/GPa)
#
#
# Indices 1 2 3 4 5 6 
#
# 1 0.040377 -0.011658 -0.003368 0.000000 0.000000 0.000000
# 2 -0.011658 0.013246 -0.005885 0.000000 0.000000 0.000000
# 3 -0.003368 -0.005885 0.013642 0.000000 0.000000 0.000000
# 4 0.000000 0.000000 0.000000 0.584787 0.000000 0.000000
# 5 0.000000 0.000000 0.000000 0.000000 -0.199590 0.000000
# 6 0.000000 0.000000 0.000000 0.000000 0.000000 0.034987
#
#
# Mechanical properties :
#
#
# Convention : Reuss Voigt Hill
#
# Bulk Modulus (GPa) = 39.30324 71.96091 55.63207
# Shear Modulus (GPa) = 9.29796 15.07189 12.18493
#
# Velocity S-wave (km/s) = 2.22418 2.83178 2.54617
# Velocity P-wave (km/s) = 5.24474 6.99848 6.18409
#
# Compressibility (1/GPa) = 0.02544320
#
# Stress axis : x y z
#
# Youngs Moduli (GPa) = 24.76644 75.49379 73.30400
#
# Poissons Ratio (x) = 0.88011 0.24690
# Poissons Ratio (y) = 0.28873 0.43137
# Poissons Ratio (z) = 0.08342 0.44426
#
# Static dielectric constant tensor:
#      x y z
#    x 1.639940 0.000000 0.000000 
#    y 0.000000 1.637250 0.000000 
#    z 0.000000 0.000000 1.643460 
# 
# From -- ./inp_files/50377.got.cif
#   From: 2010.05.17/outbox.cif.g08.bks.cpg/sg65_26_cif.got.tgz:50377.got - 2010.06.03 17:01:31.
