data_PCOD9487708
_publ_section_title
;
Structure prediction by ZEFSAII (Michael W. Deem and Ramdas Pophale) SiO2 
 PCOD9487708
Probable space group: C M M M
;
_chemical_formula_sum "Si O2"
_cell_formula_units_Z 58
_cell_length_a 25.981055
_cell_length_b 7.439916
_cell_length_c 14.788470
_cell_angle_alpha 90.000000
_cell_angle_beta 90.000000
_cell_angle_gamma 90.000000
_cell_volume 2858.564916
_symmetry_space_group_name_H-M "C M M M"
_symmetry_group_IT_number 65
_symmetry_cell_setting 'orthorhombic'
loop_
_space_group_symop_operation_xyz
x,y,z
-x,-y,z
x,-y,-z
-x,y,-z
-x,-y,-z
x,y,-z
-x,y,z
x,-y,z
1/2+x,1/2+y,z
1/2-x,1/2-y,z
1/2+x,1/2-y,-z
1/2-x,1/2+y,-z
1/2-x,1/2-y,-z
1/2+x,1/2+y,-z
1/2-x,1/2+y,z
1/2+x,1/2-y,z
loop_
_atom_site_type_symbol
_atom_site_label
_atom_site_fract_x
_atom_site_fract_y
_atom_site_fract_z
Si Si1 0.688894 0.714164 0.500000
Si Si2 0.406801 0.281935 0.196791
Si Si3 0.559640 0.281220 0.000000
Si Si4 0.000000 0.000000 0.500000
Si Si5 0.000000 0.295829 0.335434
Si Si6 0.810476 0.215414 0.304057
O O1 0.679112 0.500000 0.500000
O O2 0.750000 0.750000 0.500000
O O3 0.671788 0.785201 0.596960
O O4 0.407563 0.500000 0.194754
O O5 0.417282 0.218969 0.095026
O O6 0.450597 0.230180 0.269115
O O7 0.350887 0.220474 0.230729
O O8 0.562948 0.500000 0.000000
O O9 0.500000 0.232895 0.000000
O O10 0.000000 0.156477 0.418588
O O11 0.000000 0.500000 0.369061
O O12 0.750000 0.250000 0.289332
O O13 0.814737 0.000000 0.308017
#
# Coordination Sequence:
#
# PCOD9487708 Si02
#       6
#     8  16   8   2   8  16
#     4   8  14  27  44  69  95 135 187 238 283 352
#     4  10  19  37  60  89 120 165 208 266 323 374
#     4   9  16  30  61  86 116 156 216 260 317 389
#     4  12  26  48  64  88 144 168 206 256 324 374
#     4  12  25  42  66  95 126 169 213 257 314 382
#     4   9  18  31  52  78 114 157 206 254 318 371
#
# _framework density 20.289899999999999
#
# number of rings (size 3 to 8) (size 9 to 14) (size 15 to 20)
#    0.000    2.345    2.759    0.207    0.000    2.207 
#    2.483    2.069    0.000    3.310    0.000    0.000 
#    0.000    0.000    0.000    0.000    0.000    0.000 
#
# Total GULP energy -161460.421963 kJ/mol
# GULP energy per Si atom -5567.600757 kJ/mol
# Density = 2.024372 g / cm^3
# Si number density = 20.289900 Si / 1000 Ang^3
#
#
#
# Elastic Constant Matrix: (Units=GPa)
#
#
# Indices 1 2 3 4 5 6 
#
# 1 125.5749 11.1016 107.3914 0.0000 0.0000 0.0000
# 2 11.1016 106.4305 39.6677 0.0000 0.0000 0.0000
# 3 107.3914 39.6677 230.8754 0.0000 0.0000 0.0000
# 4 0.0000 0.0000 0.0000 -5.5586 0.0000 0.0000
# 5 0.0000 0.0000 0.0000 0.0000 24.7606 0.0000
# 6 0.0000 0.0000 0.0000 0.0000 0.0000 13.7360
#
#
#
# Elastic Compliance Matrix: (Units=1/GPa)
#
#
# Indices 1 2 3 4 5 6 
#
# 1 0.013319 0.000983 -0.006364 0.000000 0.000000 0.000000
# 2 0.000983 0.010111 -0.002194 0.000000 0.000000 0.000000
# 3 -0.006364 -0.002194 0.007669 0.000000 0.000000 0.000000
# 4 0.000000 0.000000 0.000000 -0.179902 0.000000 0.000000
# 5 0.000000 0.000000 0.000000 0.000000 0.040387 0.000000
# 6 0.000000 0.000000 0.000000 0.000000 0.000000 0.072801
#
#
# Mechanical properties :
#
#
# Convention : Reuss Voigt Hill
#
# Bulk Modulus (GPa) = 62.70669 86.57802 74.64236
# Shear Modulus (GPa) = -330.09609 26.90229 -151.59690
#
# Velocity S-wave (km/s) = -12.76883 3.64524 -8.65319
# Velocity P-wave (km/s) = 13.65351 7.77690 7.93531
#
# Compressibility (1/GPa) = 0.01594726
#
# Stress axis : x y z
#
# Youngs Moduli (GPa) = 75.07963 98.90073 130.40045
#
# Poissons Ratio (x) = -0.09719 0.82990
# Poissons Ratio (y) = -0.07378 0.28614
# Poissons Ratio (z) = 0.47783 0.21702
#
# Static dielectric constant tensor:
#      x y z
#    x 1.699300 0.000000 0.000000 
#    y 0.000000 1.767640 0.000000 
#    z 0.000000 0.000000 1.832280 
# 
# From -- ./inp_files/33190.got.cif
#   From: 2010.05.17/outbox.cif.g08.bks.cpg/sg65_17_cif.got.tgz:33190.got - 2010.06.03 17:01:31.
