data_PCOD9487383
_publ_section_title
;
Structure prediction by ZEFSAII (Michael W. Deem and Ramdas Pophale) SiO2 
 PCOD9487383
Probable space group: C M M M
;
_chemical_formula_sum "Si O2"
_cell_formula_units_Z 96
_cell_length_a 25.955865
_cell_length_b 8.781663
_cell_length_c 23.993722
_cell_angle_alpha 90.000000
_cell_angle_beta 90.000000
_cell_angle_gamma 90.000000
_cell_volume 5469.024843
_symmetry_space_group_name_H-M "C M M M"
_symmetry_group_IT_number 65
_symmetry_cell_setting 'orthorhombic'
loop_
_space_group_symop_operation_xyz
x,y,z
-x,-y,z
x,-y,-z
-x,y,-z
-x,-y,-z
x,y,-z
-x,y,z
x,-y,z
1/2+x,1/2+y,z
1/2-x,1/2-y,z
1/2+x,1/2-y,-z
1/2-x,1/2+y,-z
1/2-x,1/2-y,-z
1/2+x,1/2+y,-z
1/2-x,1/2+y,z
1/2+x,1/2-y,z
loop_
_atom_site_type_symbol
_atom_site_label
_atom_site_fract_x
_atom_site_fract_y
_atom_site_fract_z
Si Si1 0.500000 0.314490 0.936301
Si Si2 0.600451 0.683997 0.133125
Si Si3 0.193659 0.817746 0.434891
Si Si4 0.439086 0.316482 0.745001
Si Si5 0.500000 0.679740 0.433507
Si Si6 0.193500 0.317735 0.935811
Si Si7 0.597637 0.181533 0.370406
O O1 0.500000 0.500000 0.936401
O O2 0.551232 0.267401 0.903719
O O3 0.500000 0.262258 0.000000
O O4 0.603871 0.500000 0.130441
O O5 0.588223 0.725248 0.196960
O O6 0.651425 0.754054 0.106614
O O7 0.181724 0.782440 0.500000
O O8 0.250000 0.750000 0.422880
O O9 0.150163 0.747675 0.395747
O O10 0.194613 0.000000 0.429067
O O11 0.500000 0.277519 0.747384
O O12 0.436112 0.500000 0.738852
O O13 0.413049 0.238522 0.692130
O O14 0.500000 0.500000 0.419750
O O15 0.500000 0.696089 0.500000
O O16 0.449585 0.755125 0.407211
O O17 0.195653 0.500000 0.932625
O O18 0.250000 0.250000 0.924740
O O19 0.179601 0.275239 0.000000
O O20 0.598354 0.000000 0.372410
#
# Coordination Sequence:
#
# PCOD9487383 Si02
#       7
#     8  16  16  16   8  16  16
#     4   9  16  27  49  82 114 141 174 219 272 331
#     4  10  19  34  57  85 112 146 190 233 279 334
#     4  10  21  39  63  89 118 153 190 232 286 343
#     4  10  20  37  59  81 112 154 196 236 283 340
#     4  11  23  38  57  82 114 151 190 237 292 345
#     4  10  21  37  57  82 113 150 189 233 287 342
#     4  12  24  37  57  86 117 151 194 239 287 343
#
# _framework density 17.553405000000001
#
# number of rings (size 3 to 8) (size 9 to 14) (size 15 to 20)
#    0.000    1.667    1.667    3.750    0.000    6.000 
#    0.000    1.250    0.000    5.500    0.000    0.000 
#    0.000    0.000    0.000    0.000    0.000    0.000 
#
# Total GULP energy -268196.992606 kJ/mol
# GULP energy per Si atom -5587.437346 kJ/mol
# Density = 1.751345 g / cm^3
# Si number density = 17.553405 Si / 1000 Ang^3
#
#
#
# Elastic Constant Matrix: (Units=GPa)
#
#
# Indices 1 2 3 4 5 6 
#
# 1 158.9509 67.7549 114.6320 0.0000 0.0000 0.0000
# 2 67.7549 71.8995 76.2615 0.0000 0.0000 0.0000
# 3 114.6320 76.2615 154.2309 0.0000 0.0000 0.0000
# 4 0.0000 0.0000 0.0000 17.4223 0.0000 0.0000
# 5 0.0000 0.0000 0.0000 0.0000 46.3116 0.0000
# 6 0.0000 0.0000 0.0000 0.0000 0.0000 29.2797
#
#
#
# Elastic Compliance Matrix: (Units=1/GPa)
#
#
# Indices 1 2 3 4 5 6 
#
# 1 0.014252 -0.004616 -0.008311 0.000000 0.000000 0.000000
# 2 -0.004616 0.030742 -0.011770 0.000000 0.000000 0.000000
# 3 -0.008311 -0.011770 0.018481 0.000000 0.000000 0.000000
# 4 0.000000 0.000000 0.000000 0.057398 0.000000 0.000000
# 5 0.000000 0.000000 0.000000 0.000000 0.021593 0.000000
# 6 0.000000 0.000000 0.000000 0.000000 0.000000 0.034153
#
#
# Mechanical properties :
#
#
# Convention : Reuss Voigt Hill
#
# Bulk Modulus (GPa) = 71.01356 100.26421 85.63889
# Shear Modulus (GPa) = 21.67255 27.03159 24.35207
#
# Velocity S-wave (km/s) = 3.51759 3.92849 3.72871
# Velocity P-wave (km/s) = 7.55258 8.82162 8.21165
#
# Compressibility (1/GPa) = 0.01408182
#
# Stress axis : x y z
#
# Youngs Moduli (GPa) = 70.16435 32.52827 54.11095
#
# Poissons Ratio (x) = 0.15015 0.44969
# Poissons Ratio (y) = 0.32388 0.63690
# Poissons Ratio (z) = 0.58310 0.38287
#
# Static dielectric constant tensor:
#      x y z
#    x 1.561510 0.000000 0.000000 
#    y 0.000000 1.587950 0.000000 
#    z 0.000000 0.000000 1.583840 
# 
# From -- ./inp_files/71455.got.cif
#   From: 2010.05.17/outbox.cif.g08.bks.cpg/sg65_36_cif.got.tgz:71455.got - 2010.06.03 17:01:31.
