data_PCOD9487521
_publ_section_title
;
Structure prediction by ZEFSAII (Michael W. Deem and Ramdas Pophale) SiO2 
 PCOD9487521
Probable space group: C M M M
;
_chemical_formula_sum "Si O2"
_cell_formula_units_Z 72
_cell_length_a 23.515262
_cell_length_b 7.441168
_cell_length_c 18.872546
_cell_angle_alpha 90.000000
_cell_angle_beta 90.000000
_cell_angle_gamma 90.000000
_cell_volume 3302.337257
_symmetry_space_group_name_H-M "C M M M"
_symmetry_group_IT_number 65
_symmetry_cell_setting 'orthorhombic'
loop_
_space_group_symop_operation_xyz
x,y,z
-x,-y,z
x,-y,-z
-x,y,-z
-x,-y,-z
x,y,-z
-x,y,z
x,-y,z
1/2+x,1/2+y,z
1/2-x,1/2-y,z
1/2+x,1/2-y,-z
1/2-x,1/2+y,-z
1/2-x,1/2-y,-z
1/2+x,1/2+y,-z
1/2-x,1/2+y,z
1/2+x,1/2-y,z
loop_
_atom_site_type_symbol
_atom_site_label
_atom_site_fract_x
_atom_site_fract_y
_atom_site_fract_z
Si Si1 0.500000 0.716622 0.775892
Si Si2 0.316611 0.784657 0.720620
Si Si3 0.372470 0.790727 0.423762
Si Si4 0.500000 0.714894 0.389215
Si Si5 0.384216 0.794826 0.853053
Si Si6 0.433059 0.220917 0.000000
O O1 0.500000 0.500000 0.782556
O O2 0.500000 0.763166 0.693541
O O3 0.444368 0.792434 0.812746
O O4 0.250000 0.750000 0.715110
O O5 0.347796 0.713772 0.649675
O O6 0.341534 0.712737 0.795036
O O7 0.327037 0.000000 0.722508
O O8 0.354138 0.712546 0.500000
O O9 0.440779 0.781668 0.420305
O O10 0.355522 0.000000 0.424366
O O11 0.500000 0.500000 0.396429
O O12 0.365346 0.000000 0.866243
O O13 0.399712 0.717315 0.929830
O O14 0.500000 0.275038 0.000000
O O15 0.434184 0.000000 0.000000
#
# Coordination Sequence:
#
# PCOD9487521 Si02
#       6
#     8  16  16   8  16   8
#     4  11  21  31  51  83 114 143 174 218 268 318
#     4  10  22  38  57  77 103 142 185 227 268 312
#     4  10  21  37  57  81 108 140 180 223 267 321
#     4  11  22  34  52  83 117 145 174 215 271 327
#     4  10  19  35  57  81 108 142 181 219 263 319
#     4   9  16  28  55  88 110 134 176 222 257 310
#
# _framework density 21.802741000000001
#
# number of rings (size 3 to 8) (size 9 to 14) (size 15 to 20)
#    0.000    1.889    3.333    1.000    0.000    4.889 
#    0.000    1.667    0.000    0.000    0.000    0.000 
#    0.000    0.000    0.000    0.000    0.000    0.000 
#
# Total GULP energy -200982.562333 kJ/mol
# GULP energy per Si atom -5582.848954 kJ/mol
# Density = 2.175312 g / cm^3
# Si number density = 21.802741 Si / 1000 Ang^3
#
#
#
# Elastic Constant Matrix: (Units=GPa)
#
#
# Indices 1 2 3 4 5 6 
#
# 1 110.9660 -14.4046 72.6687 0.0000 0.0000 0.0000
# 2 -14.4046 71.1638 14.2420 0.0000 0.0000 0.0000
# 3 72.6687 14.2420 239.4727 0.0000 0.0000 0.0000
# 4 0.0000 0.0000 0.0000 -13.3304 0.0000 0.0000
# 5 0.0000 0.0000 0.0000 0.0000 33.9739 0.0000
# 6 0.0000 0.0000 0.0000 0.0000 0.0000 19.0838
#
#
#
# Elastic Compliance Matrix: (Units=1/GPa)
#
#
# Indices 1 2 3 4 5 6 
#
# 1 0.011915 0.003173 -0.003804 0.000000 0.000000 0.000000
# 2 0.003173 0.015066 -0.001859 0.000000 0.000000 0.000000
# 3 -0.003804 -0.001859 0.005441 0.000000 0.000000 0.000000
# 4 0.000000 0.000000 0.000000 -0.075017 0.000000 0.000000
# 5 0.000000 0.000000 0.000000 0.000000 0.029434 0.000000
# 6 0.000000 0.000000 0.000000 0.000000 0.000000 0.052400
#
#
# Mechanical properties :
#
#
# Convention : Reuss Voigt Hill
#
# Bulk Modulus (GPa) = 36.44052 62.95721 49.69886
# Shear Modulus (GPa) = 93.68900 31.21855 62.45378
#
# Velocity S-wave (km/s) = 6.56235 3.78810 5.35790
# Velocity P-wave (km/s) = 8.61216 6.93336 7.81795
#
# Compressibility (1/GPa) = 0.02744198
#
# Stress axis : x y z
#
# Youngs Moduli (GPa) = 83.92735 66.37285 183.79490
#
# Poissons Ratio (x) = -0.21061 0.69923
# Poissons Ratio (y) = -0.26631 0.34166
# Poissons Ratio (z) = 0.31929 0.12338
#
# Static dielectric constant tensor:
#      x y z
#    x 1.720920 0.000000 0.000000 
#    y 0.000000 1.813600 0.000000 
#    z 0.000000 0.000000 1.839700 
# 
# From -- ./inp_files/49551.got.cif
#   From: 2010.05.17/outbox.cif.g08.bks.cpg/sg65_25_cif.got.tgz:49551.got - 2010.06.03 17:01:31.
