data_PCOD9487498
_publ_section_title
;
Structure prediction by ZEFSAII (Michael W. Deem and Ramdas Pophale) SiO2 
 PCOD9487498
Probable space group: C M M M
;
_chemical_formula_sum "Si O2"
_cell_formula_units_Z 80
_cell_length_a 24.228600
_cell_length_b 7.726502
_cell_length_c 21.228470
_cell_angle_alpha 90.000000
_cell_angle_beta 90.000000
_cell_angle_gamma 90.000000
_cell_volume 3974.018969
_symmetry_space_group_name_H-M "C M M M"
_symmetry_group_IT_number 65
_symmetry_cell_setting 'orthorhombic'
loop_
_space_group_symop_operation_xyz
x,y,z
-x,-y,z
x,-y,-z
-x,y,-z
-x,-y,-z
x,y,-z
-x,y,z
x,-y,z
1/2+x,1/2+y,z
1/2-x,1/2-y,z
1/2+x,1/2-y,-z
1/2-x,1/2+y,-z
1/2-x,1/2-y,-z
1/2+x,1/2+y,-z
1/2-x,1/2+y,z
1/2+x,1/2-y,z
loop_
_atom_site_type_symbol
_atom_site_label
_atom_site_fract_x
_atom_site_fract_y
_atom_site_fract_z
Si Si1 0.879018 0.205708 0.069064
Si Si2 0.185571 0.793080 0.191479
Si Si3 0.686695 0.791338 0.428745
Si Si4 0.000000 0.287359 0.260595
Si Si5 0.115620 0.704353 0.686452
Si Si6 0.000000 0.292349 0.885519
O O1 0.844747 0.275453 0.128515
O O2 0.943875 0.231534 0.081978
O O3 0.868568 0.000000 0.067286
O O4 0.864715 0.277551 0.000000
O O5 0.250000 0.750000 0.190913
O O6 0.155566 0.723632 0.253606
O O7 0.179221 0.000000 0.193105
O O8 0.676532 0.727347 0.500000
O O9 0.750000 0.750000 0.411929
O O10 0.645313 0.723087 0.375593
O O11 0.682312 0.000000 0.430078
O O12 0.944323 0.226079 0.294434
O O13 0.000000 0.500000 0.260126
O O14 0.000000 0.234067 0.187424
O O15 0.107844 0.500000 0.675186
O O16 0.000000 0.500000 0.886519
#
# Coordination Sequence:
#
# PCOD9487498 Si02
#       6
#    16  16  16   8  16   8
#     4  10  22  39  56  76 106 141 175 216 267 319
#     4  11  23  37  55  78 104 136 177 219 265 317
#     4   9  18  32  52  78 107 140 177 215 257 306
#     4   9  18  32  53  79 107 137 168 213 265 307
#     4  10  19  35  56  78 108 141 175 216 263 311
#     4  11  20  34  57  83 108 135 175 220 265 313
#
# _framework density 20.130752999999999
#
# number of rings (size 3 to 8) (size 9 to 14) (size 15 to 20)
#    0.000    2.000    2.000    1.800    0.000    5.200 
#    0.000    1.000    0.000    3.000    0.000    0.000 
#    0.000    4.800    0.000    0.000    0.000    0.000 
#
# Total GULP energy -223404.627577 kJ/mol
# GULP energy per Si atom -5585.115689 kJ/mol
# Density = 2.008493 g / cm^3
# Si number density = 20.130753 Si / 1000 Ang^3
#
#
#
# Elastic Constant Matrix: (Units=GPa)
#
#
# Indices 1 2 3 4 5 6 
#
# 1 120.6464 -19.3037 67.8084 0.0000 0.0000 0.0000
# 2 -19.3037 30.3970 -5.8645 0.0000 0.0000 0.0000
# 3 67.8084 -5.8645 142.4262 0.0000 0.0000 0.0000
# 4 0.0000 0.0000 0.0000 15.9424 0.0000 0.0000
# 5 0.0000 0.0000 0.0000 0.0000 52.9258 0.0000
# 6 0.0000 0.0000 0.0000 0.0000 0.0000 289.1078
#
#
#
# Elastic Compliance Matrix: (Units=1/GPa)
#
#
# Indices 1 2 3 4 5 6 
#
# 1 0.012607 0.006903 -0.005718 0.000000 0.000000 0.000000
# 2 0.006903 0.036941 -0.001765 0.000000 0.000000 0.000000
# 3 -0.005718 -0.001765 0.009671 0.000000 0.000000 0.000000
# 4 0.000000 0.000000 0.000000 0.062726 0.000000 0.000000
# 5 0.000000 0.000000 0.000000 0.000000 0.018894 0.000000
# 6 0.000000 0.000000 0.000000 0.000000 0.000000 0.003459
#
#
# Mechanical properties :
#
#
# Convention : Reuss Voigt Hill
#
# Bulk Modulus (GPa) = 17.22413 42.08332 29.65373
# Shear Modulus (GPa) = 30.33778 88.31718 59.32748
#
# Velocity S-wave (km/s) = 3.88627 6.63076 5.43462
# Velocity P-wave (km/s) = 5.35837 8.92037 7.35817
#
# Compressibility (1/GPa) = 0.05805808
#
# Stress axis : x y z
#
# Youngs Moduli (GPa) = 79.32226 27.07010 103.40509
#
# Poissons Ratio (x) = -0.18686 0.59125
# Poissons Ratio (y) = -0.54755 0.18255
# Poissons Ratio (z) = 0.45355 0.04779
#
# Static dielectric constant tensor:
#      x y z
#    x 1.673730 0.000000 0.000000 
#    y 0.000000 1.758970 0.000000 
#    z 0.000000 0.000000 1.723630 
# 
# From -- ./inp_files/59636.got.cif
#   From: 2010.05.17/outbox.cif.g08.bks.cpg/sg65_30_cif.got.tgz:59636.got - 2010.06.03 17:01:31.
