data_PCOD9487629
_publ_section_title
;
Structure prediction by ZEFSAII (Michael W. Deem and Ramdas Pophale) SiO2 
 PCOD9487629
Probable space group: C M M M
;
_chemical_formula_sum "Si O2"
_cell_formula_units_Z 88
_cell_length_a 21.643315
_cell_length_b 12.836066
_cell_length_c 18.029210
_cell_angle_alpha 90.000000
_cell_angle_beta 90.000000
_cell_angle_gamma 90.000000
_cell_volume 5008.785333
_symmetry_space_group_name_H-M "C M M M"
_symmetry_group_IT_number 65
_symmetry_cell_setting 'orthorhombic'
loop_
_space_group_symop_operation_xyz
x,y,z
-x,-y,z
x,-y,-z
-x,y,-z
-x,-y,-z
x,y,-z
-x,y,z
x,-y,z
1/2+x,1/2+y,z
1/2-x,1/2-y,z
1/2+x,1/2-y,-z
1/2-x,1/2+y,-z
1/2-x,1/2-y,-z
1/2+x,1/2+y,-z
1/2-x,1/2+y,z
1/2+x,1/2-y,z
loop_
_atom_site_type_symbol
_atom_site_label
_atom_site_fract_x
_atom_site_fract_y
_atom_site_fract_z
Si Si1 0.570413 0.698317 0.718238
Si Si2 0.321416 0.211694 0.081811
Si Si3 0.250000 0.750000 0.339412
Si Si4 0.644975 0.619593 0.584522
Si Si5 0.427764 0.379524 0.117368
Si Si6 0.336865 0.119953 0.758980
O O1 0.500000 0.728266 0.710574
O O2 0.592853 0.637591 0.646035
O O3 0.577073 0.630887 0.793267
O O4 0.610592 0.801644 0.730668
O O5 0.250000 0.250000 0.086417
O O6 0.373460 0.303662 0.087981
O O7 0.330866 0.138879 0.152974
O O8 0.329076 0.163548 0.000000
O O9 0.301358 0.697959 0.390742
O O10 0.276780 0.838587 0.284710
O O11 0.625047 0.639495 0.500000
O O12 0.666621 0.500000 0.588647
O O13 0.500000 0.351056 0.098265
O O14 0.418490 0.500000 0.095395
O O15 0.348654 0.000000 0.743037
#
# Coordination Sequence:
#
# PCOD9487629 Si02
#       6
#    16  16   8  16  16  16
#     4   9  19  35  53  76 106 137 173 221 264 307
#     4  10  21  36  50  76 114 146 176 219 276 330
#     4  10  19  36  53  76 104 140 174 222 255 306
#     4  10  20  32  51  80 110 140 172 210 262 319
#     4   9  18  34  57  81 105 141 185 224 266 319
#     4  10  20  35  56  77  98 137 182 219 260 310
#
# _framework density 17.569130000000001
#
# number of rings (size 3 to 8) (size 9 to 14) (size 15 to 20)
#    0.000    2.364    0.909    1.364    0.000    3.636 
#    0.000    3.636    0.000    4.909    0.000   10.182 
#    0.000    0.000    0.000    0.000    0.000    0.000 
#
# Total GULP energy -245184.882673 kJ/mol
# GULP energy per Si atom -5572.383697 kJ/mol
# Density = 1.752914 g / cm^3
# Si number density = 17.569130 Si / 1000 Ang^3
#
#
#
# Elastic Constant Matrix: (Units=GPa)
#
#
# Indices 1 2 3 4 5 6 
#
# 1 62.1093 2.9231 13.3292 0.0000 0.0000 0.0000
# 2 2.9231 69.7117 13.3573 0.0000 0.0000 0.0000
# 3 13.3292 13.3573 113.7373 0.0000 0.0000 0.0000
# 4 0.0000 0.0000 0.0000 2.2227 0.0000 0.0000
# 5 0.0000 0.0000 0.0000 0.0000 -42.3824 0.0000
# 6 0.0000 0.0000 0.0000 0.0000 0.0000 11.6660
#
#
#
# Elastic Compliance Matrix: (Units=1/GPa)
#
#
# Indices 1 2 3 4 5 6 
#
# 1 0.016523 -0.000329 -0.001898 0.000000 0.000000 0.000000
# 2 -0.000329 0.014682 -0.001686 0.000000 0.000000 0.000000
# 3 -0.001898 -0.001686 0.009213 0.000000 0.000000 0.000000
# 4 0.000000 0.000000 0.000000 0.449912 0.000000 0.000000
# 5 0.000000 0.000000 0.000000 0.000000 -0.023595 0.000000
# 6 0.000000 0.000000 0.000000 0.000000 0.000000 0.085719
#
#
# Mechanical properties :
#
#
# Convention : Reuss Voigt Hill
#
# Bulk Modulus (GPa) = 30.68206 33.86416 32.27311
# Shear Modulus (GPa) = 8.75437 8.69783 8.72610
#
# Velocity S-wave (km/s) = 2.23464 2.22742 2.23103
# Velocity P-wave (km/s) = 4.91525 5.09233 5.00457
#
# Compressibility (1/GPa) = 0.03259234
#
# Stress axis : x y z
#
# Youngs Moduli (GPa) = 60.52015 68.11260 108.54750
#
# Poissons Ratio (x) = 0.02242 0.20600
# Poissons Ratio (y) = 0.01992 0.18297
# Poissons Ratio (z) = 0.11485 0.11481
#
# Static dielectric constant tensor:
#      x y z
#    x 1.612530 0.000000 0.000000 
#    y 0.000000 1.554440 0.000000 
#    z 0.000000 0.000000 1.608920 
# 
# From -- ./inp_files/55669.got.cif
#   From: 2010.05.17/outbox.cif.g08.bks.cpg/sg65_28_cif.got.tgz:55669.got - 2010.06.03 17:01:31.
