data_PCOD9487298
_publ_section_title
;
Structure prediction by ZEFSAII (Michael W. Deem and Ramdas Pophale) SiO2 
 PCOD9487298
Probable space group: C M M M
;
_chemical_formula_sum "Si O2"
_cell_formula_units_Z 88
_cell_length_a 19.889538
_cell_length_b 8.606934
_cell_length_c 28.731081
_cell_angle_alpha 90.000000
_cell_angle_beta 90.000000
_cell_angle_gamma 90.000000
_cell_volume 4918.414595
_symmetry_space_group_name_H-M "C M M M"
_symmetry_group_IT_number 65
_symmetry_cell_setting 'orthorhombic'
loop_
_space_group_symop_operation_xyz
x,y,z
-x,-y,z
x,-y,-z
-x,y,-z
-x,-y,-z
x,y,-z
-x,y,z
x,-y,z
1/2+x,1/2+y,z
1/2-x,1/2-y,z
1/2+x,1/2-y,-z
1/2-x,1/2+y,-z
1/2-x,1/2-y,-z
1/2+x,1/2+y,-z
1/2-x,1/2+y,z
1/2+x,1/2-y,z
loop_
_atom_site_type_symbol
_atom_site_label
_atom_site_fract_x
_atom_site_fract_y
_atom_site_fract_z
Si Si1 0.421188 0.185606 0.236350
Si Si2 0.577295 0.189381 0.500000
Si Si3 0.676228 0.315089 0.685308
Si Si4 0.824784 0.187703 0.947404
Si Si5 0.578096 0.312368 0.864477
Si Si6 0.324269 0.813186 0.417173
O O1 0.500000 0.227215 0.241955
O O2 0.376698 0.262964 0.276087
O O3 0.400464 0.241661 0.184899
O O4 0.415050 0.000000 0.239378
O O5 0.500000 0.243168 0.500000
O O6 0.620056 0.236348 0.454674
O O7 0.575728 0.000000 0.500000
O O8 0.679573 0.500000 0.682152
O O9 0.750000 0.250000 0.697540
O O10 0.659221 0.246905 0.634449
O O11 0.750000 0.250000 0.938682
O O12 0.875852 0.239222 0.907384
O O13 0.823108 0.000000 0.946645
O O14 0.844573 0.235480 0.000000
O O15 0.500000 0.270221 0.872319
O O16 0.581693 0.500000 0.861173
O O17 0.250000 0.750000 0.429474
O O18 0.321174 0.000000 0.416515
#
# Coordination Sequence:
#
# PCOD9487298 Si02
#       6
#    16   8  16  16  16  16
#     4  10  21  37  56  78 106 140 176 215 263 317
#     4   9  19  34  53  79 108 139 176 216 258 307
#     4  11  22  37  57  81 109 139 177 221 265 314
#     4   9  18  32  50  73 101 133 168 208 256 308
#     4   9  18  33  52  74 101 134 173 215 257 304
#     4  10  19  34  56  79 106 140 177 216 260 310
#
# _framework density 17.891943999999999
#
# number of rings (size 3 to 8) (size 9 to 14) (size 15 to 20)
#    0.000    2.273    0.000    4.091    0.000    3.636 
#    0.000    6.818    0.000    3.818    0.000    5.091 
#    0.000    0.000    0.000    0.000    0.000    0.000 
#
# Total GULP energy -245591.977644 kJ/mol
# GULP energy per Si atom -5581.635856 kJ/mol
# Density = 1.785122 g / cm^3
# Si number density = 17.891944 Si / 1000 Ang^3
#
#
#
# Elastic Constant Matrix: (Units=GPa)
#
#
# Indices 1 2 3 4 5 6 
#
# 1 115.4252 40.1312 120.0028 0.0000 0.0000 0.0000
# 2 40.1312 54.6452 47.8376 0.0000 0.0000 0.0000
# 3 120.0028 47.8376 158.4700 0.0000 0.0000 0.0000
# 4 0.0000 0.0000 0.0000 20.9262 0.0000 0.0000
# 5 0.0000 0.0000 0.0000 0.0000 45.5056 0.0000
# 6 0.0000 0.0000 0.0000 0.0000 0.0000 26.0858
#
#
#
# Elastic Compliance Matrix: (Units=1/GPa)
#
#
# Indices 1 2 3 4 5 6 
#
# 1 0.041369 -0.004019 -0.030114 0.000000 0.000000 0.000000
# 2 -0.004019 0.025263 -0.004583 0.000000 0.000000 0.000000
# 3 -0.030114 -0.004583 0.030498 0.000000 0.000000 0.000000
# 4 0.000000 0.000000 0.000000 0.047787 0.000000 0.000000
# 5 0.000000 0.000000 0.000000 0.000000 0.021975 0.000000
# 6 0.000000 0.000000 0.000000 0.000000 0.000000 0.038335
#
#
# Mechanical properties :
#
#
# Convention : Reuss Voigt Hill
#
# Bulk Modulus (GPa) = 50.76462 82.72040 66.74251
# Shear Modulus (GPa) = 17.28752 26.54143 21.91447
#
# Velocity S-wave (km/s) = 3.11178 3.85571 3.50354
# Velocity P-wave (km/s) = 6.43004 8.13361 7.33147
#
# Compressibility (1/GPa) = 0.01969876
#
# Stress axis : x y z
#
# Youngs Moduli (GPa) = 24.17253 39.58303 32.78914
#
# Poissons Ratio (x) = 0.15908 0.98741
# Poissons Ratio (y) = 0.09715 0.15027
# Poissons Ratio (z) = 0.72793 0.18140
#
# Static dielectric constant tensor:
#      x y z
#    x 1.590100 0.000000 0.000000 
#    y 0.000000 1.608290 0.000000 
#    z 0.000000 0.000000 1.597150 
# 
# From -- ./inp_files/67471.got.cif
#   From: 2010.05.17/outbox.cif.g08.bks.cpg/sg65_34_cif.got.tgz:67471.got - 2010.06.03 17:01:31.
