data_PCOD9487932
_publ_section_title
;
Structure prediction by ZEFSAII (Michael W. Deem and Ramdas Pophale) SiO2 
 PCOD9487932
Probable space group: C M M M
;
_chemical_formula_sum "Si O2"
_cell_formula_units_Z 80
_cell_length_a 28.770925
_cell_length_b 8.906542
_cell_length_c 21.433450
_cell_angle_alpha 90.000000
_cell_angle_beta 90.000000
_cell_angle_gamma 90.000000
_cell_volume 5492.309815
_symmetry_space_group_name_H-M "C M M M"
_symmetry_group_IT_number 65
_symmetry_cell_setting 'orthorhombic'
loop_
_space_group_symop_operation_xyz
x,y,z
-x,-y,z
x,-y,-z
-x,y,-z
-x,-y,-z
x,y,-z
-x,y,z
x,-y,z
1/2+x,1/2+y,z
1/2-x,1/2-y,z
1/2+x,1/2-y,-z
1/2-x,1/2+y,-z
1/2-x,1/2-y,-z
1/2+x,1/2+y,-z
1/2-x,1/2+y,z
1/2+x,1/2-y,z
loop_
_atom_site_type_symbol
_atom_site_label
_atom_site_fract_x
_atom_site_fract_y
_atom_site_fract_z
Si Si1 0.106451 0.320967 0.381505
Si Si2 0.056567 0.325543 0.864339
Si Si3 0.944324 0.176695 0.500000
Si Si4 0.555393 0.322406 0.265037
Si Si5 0.200155 0.178504 0.425686
Si Si6 0.553756 0.816802 0.000000
O O1 0.107003 0.500000 0.385512
O O2 0.076814 0.253124 0.438769
O O3 0.083080 0.266648 0.317590
O O4 0.158195 0.255746 0.389279
O O5 0.069797 0.500000 0.855100
O O6 0.069681 0.229053 0.804384
O O7 0.073907 0.272684 0.932619
O O8 0.000000 0.322982 0.867745
O O9 0.000000 0.189213 0.500000
O O10 0.931820 0.000000 0.500000
O O11 0.500000 0.291980 0.271579
O O12 0.562331 0.500000 0.273129
O O13 0.192162 0.203640 0.500000
O O14 0.250000 0.250000 0.410348
O O15 0.200626 0.000000 0.415170
O O16 0.500000 0.766122 0.000000
O O17 0.553157 0.000000 0.000000
#
# Coordination Sequence:
#
# PCOD9487932 Si02
#       6
#    16  16   8  16  16   8
#     4  12  23  34  50  69  89 115 150 187 225 269
#     4   8  13  23  39  58  80 109 147 186 222 262
#     4  11  23  37  50  65  88 117 149 187 229 267
#     4  10  20  32  44  60  87 122 156 190 229 269
#     4  10  20  35  55  74  94 114 138 176 224 273
#     4   7  10  18  35  57  79 105 140 183 224 259
#
# _framework density 14.56582
#
# number of rings (size 3 to 8) (size 9 to 14) (size 15 to 20)
#    0.000    2.200    1.000    5.100    0.000    5.200 
#    0.000    0.500    0.000    3.000    0.000    0.000 
#    0.000    0.000    0.000    0.900    0.000   11.500 
#
# Total GULP energy -223031.563190 kJ/mol
# GULP energy per Si atom -5575.789080 kJ/mol
# Density = 1.453267 g / cm^3
# Si number density = 14.565820 Si / 1000 Ang^3
#
#
#
# Elastic Constant Matrix: (Units=GPa)
#
#
# Indices 1 2 3 4 5 6 
#
# 1 59.1813 48.1189 43.6191 0.0000 0.0000 0.0000
# 2 48.1189 92.1176 54.9556 0.0000 0.0000 0.0000
# 3 43.6191 54.9556 115.8395 0.0000 0.0000 0.0000
# 4 0.0000 0.0000 0.0000 11.5077 0.0000 0.0000
# 5 0.0000 0.0000 0.0000 0.0000 0.5194 0.0000
# 6 0.0000 0.0000 0.0000 0.0000 0.0000 20.5025
#
#
#
# Elastic Compliance Matrix: (Units=1/GPa)
#
#
# Indices 1 2 3 4 5 6 
#
# 1 0.031879 -0.013238 -0.005724 0.000000 0.000000 0.000000
# 2 -0.013238 0.020638 -0.004806 0.000000 0.000000 0.000000
# 3 -0.005724 -0.004806 0.013068 0.000000 0.000000 0.000000
# 4 0.000000 0.000000 0.000000 0.086898 0.000000 0.000000
# 5 0.000000 0.000000 0.000000 0.000000 1.925438 0.000000
# 6 0.000000 0.000000 0.000000 0.000000 0.000000 0.048775
#
#
# Mechanical properties :
#
#
# Convention : Reuss Voigt Hill
#
# Bulk Modulus (GPa) = 55.40329 62.28062 58.84195
# Shear Modulus (GPa) = 2.29332 14.53556 8.41444
#
# Velocity S-wave (km/s) = 1.25613 3.16242 2.40611
# Velocity P-wave (km/s) = 6.34215 7.49569 6.94292
#
# Compressibility (1/GPa) = 0.01804947
#
# Stress axis : x y z
#
# Youngs Moduli (GPa) = 31.36823 48.45436 76.52230
#
# Poissons Ratio (x) = 0.64143 0.43801
# Poissons Ratio (y) = 0.41525 0.36778
# Poissons Ratio (z) = 0.17955 0.23288
#
# Static dielectric constant tensor:
#      x y z
#    x 1.456290 0.000000 0.000000 
#    y 0.000000 1.483040 0.000000 
#    z 0.000000 0.000000 1.496660 
# 
# From -- ./inp_files/60055.got.cif
#   From: 2010.05.17/outbox.cif.g08.bks.cpg/sg65_31_cif.got.tgz:60055.got - 2010.06.03 17:01:31.
