data_PCOD9487115
_publ_section_title
;
Structure prediction by ZEFSAII (Michael W. Deem and Ramdas Pophale) SiO2 
 PCOD9487115
Probable space group: C M M M
;
_chemical_formula_sum "Si O2"
_cell_formula_units_Z 72
_cell_length_a 15.677816
_cell_length_b 7.964089
_cell_length_c 29.114513
_cell_angle_alpha 90.000000
_cell_angle_beta 90.000000
_cell_angle_gamma 90.000000
_cell_volume 3635.224175
_symmetry_space_group_name_H-M "C M M M"
_symmetry_group_IT_number 65
_symmetry_cell_setting 'orthorhombic'
loop_
_space_group_symop_operation_xyz
x,y,z
-x,-y,z
x,-y,-z
-x,y,-z
-x,-y,-z
x,y,-z
-x,y,z
x,-y,z
1/2+x,1/2+y,z
1/2-x,1/2-y,z
1/2+x,1/2-y,-z
1/2-x,1/2+y,-z
1/2-x,1/2-y,-z
1/2+x,1/2+y,-z
1/2-x,1/2+y,z
1/2+x,1/2-y,z
loop_
_atom_site_type_symbol
_atom_site_label
_atom_site_fract_x
_atom_site_fract_y
_atom_site_fract_z
Si Si1 0.843921 0.201384 0.215579
Si Si2 0.000000 0.702542 0.615393
Si Si3 0.104352 0.000000 0.947323
Si Si4 0.153743 0.297636 0.447702
Si Si5 0.603332 0.812194 0.114936
Si Si6 0.000000 0.202129 0.721412
O O1 0.750000 0.250000 0.231749
O O2 0.860166 0.279319 0.165507
O O3 0.916543 0.259949 0.250818
O O4 0.850264 0.000000 0.210730
O O5 0.083486 0.764202 0.588096
O O6 0.000000 0.747812 0.668580
O O7 0.000000 0.500000 0.612583
O O8 0.131227 0.834198 0.919534
O O9 0.000000 0.000000 0.947668
O O10 0.132773 0.000000 0.000000
O O11 0.137379 0.237518 0.500000
O O12 0.148774 0.500000 0.448807
O O13 0.250000 0.250000 0.435126
O O14 0.500000 0.802778 0.118560
O O15 0.626050 0.000000 0.099439
O O16 0.000000 0.000000 0.723163
#
# Coordination Sequence:
#
# PCOD9487115 Si02
#       6
#    16   8   8  16  16   8
#     4  11  22  39  61  87 115 150 198 249 298 356
#     4  10  21  36  56  80 112 152 189 237 292 359
#     4   9  18  32  54  86 124 161 197 245 299 358
#     4   9  18  34  56  82 111 148 194 241 288 343
#     4  10  19  33  58  87 117 156 199 246 297 355
#     4  10  24  41  59  81 120 157 189 244 305 352
#
# _framework density 19.806208000000002
#
# number of rings (size 3 to 8) (size 9 to 14) (size 15 to 20)
#    0.000    2.111    2.222    1.000    0.000    5.333 
#    0.000    6.667    0.000    4.000    0.000    0.000 
#    0.000    0.000    0.000    0.000    0.000    0.000 
#
# Total GULP energy -201103.631305 kJ/mol
# GULP energy per Si atom -5586.211981 kJ/mol
# Density = 1.976113 g / cm^3
# Si number density = 19.806208 Si / 1000 Ang^3
#
#
#
# Elastic Constant Matrix: (Units=GPa)
#
#
# Indices 1 2 3 4 5 6 
#
# 1 116.7065 37.8472 98.0871 0.0000 0.0000 0.0000
# 2 37.8472 79.6326 40.3130 0.0000 0.0000 0.0000
# 3 98.0871 40.3130 163.8326 0.0000 0.0000 0.0000
# 4 0.0000 0.0000 0.0000 23.3507 0.0000 0.0000
# 5 0.0000 0.0000 0.0000 0.0000 -6.5009 0.0000
# 6 0.0000 0.0000 0.0000 0.0000 0.0000 23.3351
#
#
#
# Elastic Compliance Matrix: (Units=1/GPa)
#
#
# Indices 1 2 3 4 5 6 
#
# 1 0.018088 -0.003558 -0.009954 0.000000 0.000000 0.000000
# 2 -0.003558 0.015044 -0.001572 0.000000 0.000000 0.000000
# 3 -0.009954 -0.001572 0.012450 0.000000 0.000000 0.000000
# 4 0.000000 0.000000 0.000000 0.042825 0.000000 0.000000
# 5 0.000000 0.000000 0.000000 0.000000 -0.153824 0.000000
# 6 0.000000 0.000000 0.000000 0.000000 0.000000 0.042854
#
#
# Mechanical properties :
#
#
# Convention : Reuss Voigt Hill
#
# Bulk Modulus (GPa) = 64.87017 79.18513 72.02765
# Shear Modulus (GPa) = 392.37846 20.29862 206.33854
#
# Velocity S-wave (km/s) = 14.09038 3.20482 10.21787
# Velocity P-wave (km/s) = 17.24941 7.33220 13.25336
#
# Compressibility (1/GPa) = 0.01541541
#
# Stress axis : x y z
#
# Youngs Moduli (GPa) = 55.28462 66.47052 80.32080
#
# Poissons Ratio (x) = 0.23648 0.79952
# Poissons Ratio (y) = 0.19669 0.12625
# Poissons Ratio (z) = 0.55031 0.10448
#
# Static dielectric constant tensor:
#      x y z
#    x 1.714170 0.000000 0.000000 
#    y 0.000000 1.713960 0.000000 
#    z 0.000000 0.000000 1.648390 
# 
# From -- ./inp_files/74681.got.cif
#   From: 2010.05.17/outbox.cif.g08.bks.cpg/sg65_38_cif.got.tgz:74681.got - 2010.06.03 17:01:31.
