data_PCOD9487703
_publ_section_title
;
Structure prediction by ZEFSAII (Michael W. Deem and Ramdas Pophale) SiO2 
 PCOD9487703
Probable space group: C M M M
;
_chemical_formula_sum "Si O2"
_cell_formula_units_Z 104
_cell_length_a 21.503836
_cell_length_b 30.683136
_cell_length_c 7.661500
_cell_angle_alpha 90.000000
_cell_angle_beta 90.000000
_cell_angle_gamma 90.000000
_cell_volume 5055.096961
_symmetry_space_group_name_H-M "C M M M"
_symmetry_group_IT_number 65
_symmetry_cell_setting 'orthorhombic'
loop_
_space_group_symop_operation_xyz
x,y,z
-x,-y,z
x,-y,-z
-x,y,-z
-x,-y,-z
x,y,-z
-x,y,z
x,-y,z
1/2+x,1/2+y,z
1/2-x,1/2-y,z
1/2+x,1/2-y,-z
1/2-x,1/2+y,-z
1/2-x,1/2-y,-z
1/2+x,1/2+y,-z
1/2-x,1/2+y,z
1/2+x,1/2-y,z
loop_
_atom_site_type_symbol
_atom_site_label
_atom_site_fract_x
_atom_site_fract_y
_atom_site_fract_z
Si Si1 0.212217 0.632910 0.699752
Si Si2 0.647363 0.632828 0.798650
Si Si3 0.429480 0.283664 0.786542
Si Si4 0.686453 0.229243 0.202905
Si Si5 0.363050 0.050031 0.285611
Si Si6 0.000000 0.447226 0.699035
Si Si7 0.428249 0.450888 0.711149
O O1 0.191153 0.635925 0.500000
O O2 0.286704 0.632965 0.705246
O O3 0.189606 0.677303 0.787512
O O4 0.185055 0.587294 0.769813
O O5 0.599036 0.669425 0.735684
O O6 0.615508 0.586120 0.784197
O O7 0.661413 0.643236 0.000000
O O8 0.500000 0.277398 0.724119
O O9 0.377743 0.248941 0.725802
O O10 0.432628 0.282593 0.000000
O O11 0.750000 0.250000 0.280629
O O12 0.686625 0.242619 0.000000
O O13 0.364202 0.048654 0.500000
O O14 0.432593 0.063499 0.224601
O O15 0.349848 0.000000 0.230537
O O16 0.000000 0.500000 0.691214
O O17 0.000000 0.430415 0.500000
O O18 0.425725 0.449060 0.500000
O O19 0.500000 0.443401 0.762704
O O20 0.410948 0.500000 0.763715
#
# Coordination Sequence:
#
# PCOD9487703 Si02
#       7
#    16  16  16  16  16   8  16
#     4  11  22  34  52  81 111 141 177 218 270 327
#     4  11  21  35  55  79 106 140 187 232 269 315
#     4   9  18  34  57  80 101 132 177 223 267 321
#     4  10  19  37  59  77 103 142 179 217 267 324
#     4   8  15  29  49  73 102 136 172 211 258 315
#     4   7  10  22  46  70  93 129 173 209 247 301
#     4   9  19  36  55  77 110 148 181 220 276 332
#
# _framework density 20.573293
#
# number of rings (size 3 to 8) (size 9 to 14) (size 15 to 20)
#    0.000    2.538    1.538    2.769    0.000    2.154 
#    1.385    2.308    0.000    3.231    0.000    0.000 
#    0.000    7.385    0.000    0.000    0.000    0.000 
#
# Total GULP energy -290034.217142 kJ/mol
# GULP energy per Si atom -5577.581099 kJ/mol
# Density = 2.052647 g / cm^3
# Si number density = 20.573293 Si / 1000 Ang^3
#
#
#
# Elastic Constant Matrix: (Units=GPa)
#
#
# Indices 1 2 3 4 5 6 
#
# 1 164.7407 90.2879 4.9718 0.0000 0.0000 0.0000
# 2 90.2879 133.8276 -0.6640 0.0000 0.0000 0.0000
# 3 4.9718 -0.6640 34.3131 0.0000 0.0000 0.0000
# 4 0.0000 0.0000 0.0000 20.6025 0.0000 0.0000
# 5 0.0000 0.0000 0.0000 0.0000 16.2382 0.0000
# 6 0.0000 0.0000 0.0000 0.0000 0.0000 41.9987
#
#
#
# Elastic Compliance Matrix: (Units=1/GPa)
#
#
# Indices 1 2 3 4 5 6 
#
# 1 0.009711 -0.006560 -0.001534 0.000000 0.000000 0.000000
# 2 -0.006560 0.011904 0.001181 0.000000 0.000000 0.000000
# 3 -0.001534 0.001181 0.029389 0.000000 0.000000 0.000000
# 4 0.000000 0.000000 0.000000 0.048538 0.000000 0.000000
# 5 0.000000 0.000000 0.000000 0.000000 0.061583 0.000000
# 6 0.000000 0.000000 0.000000 0.000000 0.000000 0.023810
#
#
# Mechanical properties :
#
#
# Convention : Reuss Voigt Hill
#
# Bulk Modulus (GPa) = 26.89766 58.00808 42.45287
# Shear Modulus (GPa) = 23.67948 31.65359 27.66653
#
# Velocity S-wave (km/s) = 3.39629 3.92672 3.67110
# Velocity P-wave (km/s) = 5.33687 6.98684 6.21684
#
# Compressibility (1/GPa) = 0.03717796
#
# Stress axis : x y z
#
# Youngs Moduli (GPa) = 102.97109 84.00817 34.02689
#
# Poissons Ratio (x) = 0.55105 0.05220
# Poissons Ratio (y) = 0.67544 -0.04018
# Poissons Ratio (z) = 0.15797 -0.09920
#
# Static dielectric constant tensor:
#      x y z
#    x 1.729420 0.000000 0.000000 
#    y 0.000000 1.705680 0.000000 
#    z 0.000000 0.000000 1.805090 
# 
# From -- ./inp_files/12802.got.cif
#   From: 2010.05.17/outbox.cif.g08.bks.cpg/sg65_7_cif.got.tgz:12802.got - 2010.06.03 17:01:31.
