data_PCOD9487696
_publ_section_title
;
Structure prediction by ZEFSAII (Michael W. Deem and Ramdas Pophale) SiO2 
 PCOD9487696
Probable space group: C M M M
;
_chemical_formula_sum "Si O2"
_cell_formula_units_Z 100
_cell_length_a 18.031920
_cell_length_b 15.296507
_cell_length_c 20.409536
_cell_angle_alpha 90.000000
_cell_angle_beta 90.000000
_cell_angle_gamma 90.000000
_cell_volume 5629.468237
_symmetry_space_group_name_H-M "C M M M"
_symmetry_group_IT_number 65
_symmetry_cell_setting 'orthorhombic'
loop_
_space_group_symop_operation_xyz
x,y,z
-x,-y,z
x,-y,-z
-x,y,-z
-x,-y,-z
x,y,-z
-x,y,z
x,-y,z
1/2+x,1/2+y,z
1/2-x,1/2-y,z
1/2+x,1/2-y,-z
1/2-x,1/2+y,-z
1/2-x,1/2-y,-z
1/2+x,1/2+y,-z
1/2-x,1/2+y,z
1/2+x,1/2-y,z
loop_
_atom_site_type_symbol
_atom_site_label
_atom_site_fract_x
_atom_site_fract_y
_atom_site_fract_z
Si Si1 0.726336 0.345298 0.608539
Si Si2 0.735749 0.500000 0.500000
Si Si3 0.322288 0.500000 0.076717
Si Si4 0.142978 0.500000 0.075999
Si Si5 0.085400 0.895437 0.313331
Si Si6 0.794902 0.604077 0.744956
Si Si7 0.087924 0.660622 0.162500
Si Si8 0.847209 0.846416 0.825423
O O1 0.750000 0.250000 0.583479
O O2 0.734335 0.422720 0.556926
O O3 0.642988 0.348181 0.638518
O O4 0.776679 0.364666 0.672467
O O5 0.232384 0.500000 0.081320
O O6 0.351103 0.583454 0.116775
O O7 0.341968 0.500000 0.000000
O O8 0.111356 0.585610 0.111615
O O9 0.122722 0.500000 0.000000
O O10 0.103152 0.870687 0.238129
O O11 0.000000 0.876472 0.328467
O O12 0.097877 0.000000 0.319771
O O13 0.783798 0.500000 0.749362
O O14 0.876172 0.629665 0.768873
O O15 0.735504 0.647539 0.794628
O O16 0.126761 0.753050 0.148726
O O17 0.000000 0.669556 0.165050
#
# Coordination Sequence:
#
# PCOD9487696 Si02
#       8
#    16   4   8   8  16  16  16  16
#     4  11  22  38  61  89 123 160 193 241 288 334
#     4  12  22  40  57  90 125 156 216 230 270 344
#     4  11  22  38  61  85 110 151 199 239 287 350
#     4  11  25  43  59  77 111 155 199 245 290 344
#     4  10  19  36  63  91 121 151 186 239 305 350
#     4  11  19  38  64  87 117 149 188 245 297 336
#     4  12  24  37  60  89 115 147 192 242 300 352
#     4  11  19  37  59  89 116 145 188 241 293 350
#
# _framework density 17.763666000000001
#
# number of rings (size 3 to 8) (size 9 to 14) (size 15 to 20)
#    0.000    0.960    5.600    4.320    0.000    1.280 
#    0.000    2.400    0.000    3.360    0.000    3.920 
#    0.000    0.000    0.000    0.000    0.000    0.000 
#
# Total GULP energy -278743.161762 kJ/mol
# GULP energy per Si atom -5574.863235 kJ/mol
# Density = 1.772324 g / cm^3
# Si number density = 17.763666 Si / 1000 Ang^3
#
#
#
# Elastic Constant Matrix: (Units=GPa)
#
#
# Indices 1 2 3 4 5 6 
#
# 1 69.6023 62.1518 32.9029 0.0000 0.0000 0.0000
# 2 62.1518 181.3759 71.3600 0.0000 0.0000 0.0000
# 3 32.9029 71.3600 130.4085 0.0000 0.0000 0.0000
# 4 0.0000 0.0000 0.0000 -1.7857 0.0000 0.0000
# 5 0.0000 0.0000 0.0000 0.0000 -4.9076 0.0000
# 6 0.0000 0.0000 0.0000 0.0000 0.0000 20.2886
#
#
#
# Elastic Compliance Matrix: (Units=1/GPa)
#
#
# Indices 1 2 3 4 5 6 
#
# 1 0.021005 -0.006515 -0.001734 0.000000 0.000000 0.000000
# 2 -0.006515 0.009047 -0.003307 0.000000 0.000000 0.000000
# 3 -0.001734 -0.003307 0.009915 0.000000 0.000000 0.000000
# 4 0.000000 0.000000 0.000000 -0.559990 0.000000 0.000000
# 5 0.000000 0.000000 0.000000 0.000000 -0.203766 0.000000
# 6 0.000000 0.000000 0.000000 0.000000 0.000000 0.049289
#
#
# Mechanical properties :
#
#
# Convention : Reuss Voigt Hill
#
# Bulk Modulus (GPa) = 59.33189 79.35735 69.34462
# Shear Modulus (GPa) = -7.74272 17.05051 4.65390
#
# Velocity S-wave (km/s) = -2.09002 3.10151 1.62037
# Velocity P-wave (km/s) = 5.25823 7.58925 6.52862
#
# Compressibility (1/GPa) = 0.01685434
#
# Stress axis : x y z
#
# Youngs Moduli (GPa) = 47.60710 110.53370 100.85463
#
# Poissons Ratio (x) = 0.72018 0.17493
# Poissons Ratio (y) = 0.31018 0.33349
# Poissons Ratio (z) = 0.08257 0.36550
#
# Static dielectric constant tensor:
#      x y z
#    x 1.616640 0.000000 0.000000 
#    y 0.000000 1.636170 0.000000 
#    z 0.000000 0.000000 1.588090 
# 
# From -- ./inp_files/63847.got.cif
#   From: 2010.05.17/outbox.cif.g08.bks.cpg/sg65_32_cif.got.tgz:63847.got - 2010.06.03 17:01:31.
