data_PCOD9487675
_publ_section_title
;
Structure prediction by ZEFSAII (Michael W. Deem and Ramdas Pophale) SiO2 
 PCOD9487675
Probable space group: C M M M
;
_chemical_formula_sum "Si O2"
_cell_formula_units_Z 80
_cell_length_a 11.445052
_cell_length_b 16.480553
_cell_length_c 24.799888
_cell_angle_alpha 90.000000
_cell_angle_beta 90.000000
_cell_angle_gamma 90.000000
_cell_volume 4677.774369
_symmetry_space_group_name_H-M "C M M M"
_symmetry_group_IT_number 65
_symmetry_cell_setting 'orthorhombic'
loop_
_space_group_symop_operation_xyz
x,y,z
-x,-y,z
x,-y,-z
-x,y,-z
-x,-y,-z
x,y,-z
-x,y,z
x,-y,z
1/2+x,1/2+y,z
1/2-x,1/2-y,z
1/2+x,1/2-y,-z
1/2-x,1/2+y,-z
1/2-x,1/2-y,-z
1/2+x,1/2+y,-z
1/2-x,1/2+y,z
1/2+x,1/2-y,z
loop_
_atom_site_type_symbol
_atom_site_label
_atom_site_fract_x
_atom_site_fract_y
_atom_site_fract_z
Si Si1 0.734351 0.154383 0.115337
Si Si2 0.141022 0.407139 0.559603
Si Si3 0.639473 0.500000 0.062507
Si Si4 0.500000 0.907338 0.935840
Si Si5 0.639536 0.809236 0.667690
Si Si6 0.635037 0.095818 0.221990
O O1 0.750000 0.250000 0.105580
O O2 0.818419 0.083423 0.091535
O O3 0.613531 0.134172 0.086604
O O4 0.718515 0.139321 0.179241
O O5 0.181343 0.379421 0.500000
O O6 0.181849 0.500000 0.567631
O O7 0.167039 0.351650 0.610518
O O8 0.000000 0.410312 0.557682
O O9 0.500000 0.500000 0.061605
O O10 0.683472 0.500000 0.000000
O O11 0.500000 0.000000 0.916509
O O12 0.500000 0.906727 0.000000
O O13 0.500000 0.780803 0.666205
O O14 0.750000 0.750000 0.677188
O O15 0.644652 0.872008 0.717343
O O16 0.500000 0.110323 0.205243
O O17 0.656478 0.000000 0.219812
#
# Coordination Sequence:
#
# PCOD9487675 Si02
#       6
#    16  16   8   8  16  16
#     4  12  24  40  63  90 117 149 190 240 291 344
#     4   8  14  27  49  77 107 141 188 239 281 328
#     4  11  26  45  61  85 125 162 190 229 290 360
#     4  11  22  40  64  87 111 147 194 239 281 333
#     4  10  20  33  52  81 112 147 186 232 287 343
#     4  10  19  36  61  84 108 141 189 241 283 334
#
# _framework density 17.102150000000002
#
# number of rings (size 3 to 8) (size 9 to 14) (size 15 to 20)
#    0.000    1.800    3.000    2.400    1.400    4.400 
#    0.000    1.000    0.000    1.800    0.000    1.400 
#    0.000    0.000    0.000    0.000    0.000    0.000 
#
# Total GULP energy -222699.814933 kJ/mol
# GULP energy per Si atom -5567.495373 kJ/mol
# Density = 1.706322 g / cm^3
# Si number density = 17.102150 Si / 1000 Ang^3
#
#
#
# Elastic Constant Matrix: (Units=GPa)
#
#
# Indices 1 2 3 4 5 6 
#
# 1 66.2548 43.3081 23.5789 0.0000 0.0000 0.0000
# 2 43.3081 116.3604 43.0632 0.0000 0.0000 0.0000
# 3 23.5789 43.0632 97.0167 0.0000 0.0000 0.0000
# 4 0.0000 0.0000 0.0000 -44.8356 0.0000 0.0000
# 5 0.0000 0.0000 0.0000 0.0000 21.8245 0.0000
# 6 0.0000 0.0000 0.0000 0.0000 0.0000 22.4886
#
#
#
# Elastic Compliance Matrix: (Units=1/GPa)
#
#
# Indices 1 2 3 4 5 6 
#
# 1 0.020230 -0.006832 -0.001884 0.000000 0.000000 0.000000
# 2 -0.006832 0.012591 -0.003928 0.000000 0.000000 0.000000
# 3 -0.001884 -0.003928 0.012509 0.000000 0.000000 0.000000
# 4 0.000000 0.000000 0.000000 -0.022304 0.000000 0.000000
# 5 0.000000 0.000000 0.000000 0.000000 0.045820 0.000000
# 6 0.000000 0.000000 0.000000 0.000000 0.000000 0.044467
#
#
# Mechanical properties :
#
#
# Convention : Reuss Voigt Hill
#
# Bulk Modulus (GPa) = 49.89842 55.50358 52.70100
# Shear Modulus (GPa) = 34.41605 11.20760 22.81182
#
# Velocity S-wave (km/s) = 4.49082 2.56272 3.65616
# Velocity P-wave (km/s) = 7.49200 6.42506 6.97895
#
# Compressibility (1/GPa) = 0.02004071
#
# Stress axis : x y z
#
# Youngs Moduli (GPa) = 49.43275 79.42487 79.94235
#
# Poissons Ratio (x) = 0.54263 0.15062
# Poissons Ratio (y) = 0.33772 0.31403
# Poissons Ratio (z) = 0.09313 0.31199
#
# Static dielectric constant tensor:
#      x y z
#    x 1.568580 0.000000 0.000000 
#    y 0.000000 1.460430 0.000000 
#    z 0.000000 0.000000 1.608490 
# 
# From -- ./inp_files/68862.got.cif
#   From: 2010.05.17/outbox.cif.g08.bks.cpg/sg65_35_cif.got.tgz:68862.got - 2010.06.03 17:01:31.
