data_PCOD9487985
_publ_section_title
;
Structure prediction by ZEFSAII (Michael W. Deem and Ramdas Pophale) SiO2 
 PCOD9487985
Probable space group: C M M M
;
_chemical_formula_sum "Si O2"
_cell_formula_units_Z 72
_cell_length_a 35.184369
_cell_length_b 14.567382
_cell_length_c 8.796859
_cell_angle_alpha 90.000000
_cell_angle_beta 90.000000
_cell_angle_gamma 90.000000
_cell_volume 4508.778563
_symmetry_space_group_name_H-M "C M M M"
_symmetry_group_IT_number 65
_symmetry_cell_setting 'orthorhombic'
loop_
_space_group_symop_operation_xyz
x,y,z
-x,-y,z
x,-y,-z
-x,y,-z
-x,-y,-z
x,y,-z
-x,y,z
x,-y,z
1/2+x,1/2+y,z
1/2-x,1/2-y,z
1/2+x,1/2-y,-z
1/2-x,1/2+y,-z
1/2-x,1/2-y,-z
1/2+x,1/2+y,-z
1/2-x,1/2+y,z
1/2+x,1/2-y,z
loop_
_atom_site_type_symbol
_atom_site_label
_atom_site_fract_x
_atom_site_fract_y
_atom_site_fract_z
Si Si1 0.276155 0.389841 0.677511
Si Si2 0.000000 0.888568 0.675375
Si Si3 0.916791 0.893286 0.684213
Si Si4 0.653256 0.715500 0.181013
Si Si5 0.805659 0.605431 0.817082
O O1 0.278702 0.365058 0.500000
O O2 0.280754 0.500000 0.690527
O O3 0.309466 0.340901 0.768933
O O4 0.234419 0.367845 0.741502
O O5 0.041157 0.863608 0.741290
O O6 0.000000 0.856745 0.500000
O O7 0.000000 0.000000 0.671679
O O8 0.917627 0.892207 0.500000
O O9 0.883331 0.829196 0.742018
O O10 0.910112 0.000000 0.729077
O O11 0.662401 0.820744 0.224718
O O12 0.648932 0.710453 0.000000
O O13 0.814278 0.500000 0.774826
O O14 0.800781 0.608974 0.000000
#
# Coordination Sequence:
#
# PCOD9487985 Si02
#       5
#    16   8  16  16  16
#     4  10  20  32  46  65  89 117 148 182 220 262
#     4   7  12  26  47  67  88 117 148 172 201 251
#     4   9  17  30  48  69  93 120 147 174 208 255
#     4  11  21  30  44  67  91 116 147 183 222 261
#     4   9  19  35  49  60  81 116 154 189 225 262
#
# _framework density 15.968847999999999
#
# number of rings (size 3 to 8) (size 9 to 14) (size 15 to 20)
#    0.000    2.556    0.000    4.000    0.000    8.889 
#    0.000    0.556    0.000    2.000    0.000    0.778 
#    0.000    6.222    0.000    0.000    0.000    0.000 
#
# Total GULP energy -200700.364345 kJ/mol
# GULP energy per Si atom -5575.010121 kJ/mol
# Density = 1.593250 g / cm^3
# Si number density = 15.968848 Si / 1000 Ang^3
#
#
#
# Elastic Constant Matrix: (Units=GPa)
#
#
# Indices 1 2 3 4 5 6 
#
# 1 133.7358 72.4676 26.1914 0.0000 0.0000 0.0000
# 2 72.4676 66.1795 22.8593 0.0000 0.0000 0.0000
# 3 26.1914 22.8593 17.4647 0.0000 0.0000 0.0000
# 4 0.0000 0.0000 0.0000 16.3270 0.0000 0.0000
# 5 0.0000 0.0000 0.0000 0.0000 353.3923 0.0000
# 6 0.0000 0.0000 0.0000 0.0000 0.0000 23.0381
#
#
#
# Elastic Compliance Matrix: (Units=1/GPa)
#
#
# Indices 1 2 3 4 5 6 
#
# 1 0.018436 -0.019416 -0.002235 0.000000 0.000000 0.000000
# 2 -0.019416 0.048026 -0.033744 0.000000 0.000000 0.000000
# 3 -0.002235 -0.033744 0.104778 0.000000 0.000000 0.000000
# 4 0.000000 0.000000 0.000000 0.061248 0.000000 0.000000
# 5 0.000000 0.000000 0.000000 0.000000 0.002830 0.000000
# 6 0.000000 0.000000 0.000000 0.000000 0.000000 0.043406
#
#
# Mechanical properties :
#
#
# Convention : Reuss Voigt Hill
#
# Bulk Modulus (GPa) = 16.54247 51.15738 33.84992
# Shear Modulus (GPa) = 12.20512 84.94226 48.57369
#
# Velocity S-wave (km/s) = 2.76761 7.30123 5.52121
# Velocity P-wave (km/s) = 4.53813 10.15788 7.86693
#
# Compressibility (1/GPa) = 0.06045048
#
# Stress axis : x y z
#
# Youngs Moduli (GPa) = 54.24197 20.82188 9.54401
#
# Poissons Ratio (x) = 0.40427 0.02133
# Poissons Ratio (y) = 1.05314 0.32205
# Poissons Ratio (z) = 0.12124 0.70261
#
# Static dielectric constant tensor:
#      x y z
#    x 1.528820 0.000000 0.000000 
#    y 0.000000 1.547020 0.000000 
#    z 0.000000 0.000000 1.540580 
# 
# From -- ./inp_files/7650.got.cif
#   From: 2010.05.17/outbox.cif.g08.bks.cpg/sg65_4_cif.got.tgz:7650.got - 2010.06.03 17:01:31.
