data_PCOD9487835
_publ_section_title
;
Structure prediction by ZEFSAII (Michael W. Deem and Ramdas Pophale) SiO2 
 PCOD9487835
Probable space group: C M M M
;
_chemical_formula_sum "Si O2"
_cell_formula_units_Z 72
_cell_length_a 28.989829
_cell_length_b 16.647932
_cell_length_c 9.000044
_cell_angle_alpha 90.000000
_cell_angle_beta 90.000000
_cell_angle_gamma 90.000000
_cell_volume 4343.607552
_symmetry_space_group_name_H-M "C M M M"
_symmetry_group_IT_number 65
_symmetry_cell_setting 'orthorhombic'
loop_
_space_group_symop_operation_xyz
x,y,z
-x,-y,z
x,-y,-z
-x,y,-z
-x,-y,-z
x,y,-z
-x,y,z
x,-y,z
1/2+x,1/2+y,z
1/2-x,1/2-y,z
1/2+x,1/2-y,-z
1/2-x,1/2+y,-z
1/2-x,1/2-y,-z
1/2+x,1/2+y,-z
1/2-x,1/2+y,z
1/2+x,1/2-y,z
loop_
_atom_site_type_symbol
_atom_site_label
_atom_site_fract_x
_atom_site_fract_y
_atom_site_fract_z
Si Si1 0.444111 0.500000 0.669102
Si Si2 0.138137 0.763423 0.321934
Si Si3 0.723010 0.835741 0.670777
Si Si4 0.194081 0.908963 0.823389
Si Si5 0.054238 0.831629 0.823117
O O1 0.500000 0.500000 0.661380
O O2 0.426228 0.500000 0.500000
O O3 0.432387 0.581402 0.755461
O O4 0.135834 0.767407 0.500000
O O5 0.171265 0.688338 0.282994
O O6 0.163898 0.842813 0.260788
O O7 0.087764 0.766656 0.250561
O O8 0.723240 0.864783 0.500000
O O9 0.750000 0.750000 0.670814
O O10 0.753063 0.892788 0.774399
O O11 0.180814 0.000000 0.785029
O O12 0.189185 0.897951 0.000000
O O13 0.000000 0.818357 0.791579
O O14 0.060476 0.833760 0.000000
#
# Coordination Sequence:
#
# PCOD9487835 Si02
#       5
#     8  16  16  16  16
#     4   9  17  29  43  57  77 109 145 181 221 257
#     4  10  20  32  47  65  87 118 153 186 222 264
#     4   8  16  31  47  64  86 113 146 182 221 264
#     4  10  20  31  45  67  92 117 147 183 222 265
#     4  10  20  32  45  62  86 115 148 187 225 260
#
# _framework density 16.576084000000002
#
# number of rings (size 3 to 8) (size 9 to 14) (size 15 to 20)
#    0.000    2.556    0.000    3.667    1.556    9.333 
#    0.000    0.000    0.000    0.000    0.000    0.000 
#    0.000    0.889    0.000    9.778    0.000    7.111 
#
# Total GULP energy -200714.999550 kJ/mol
# GULP energy per Si atom -5575.416654 kJ/mol
# Density = 1.653836 g / cm^3
# Si number density = 16.576084 Si / 1000 Ang^3
#
#
#
# Elastic Constant Matrix: (Units=GPa)
#
#
# Indices 1 2 3 4 5 6 
#
# 1 86.4116 8.0300 28.6002 0.0000 0.0000 0.0000
# 2 8.0300 10.9881 7.3500 0.0000 0.0000 0.0000
# 3 28.6002 7.3500 47.4572 0.0000 0.0000 0.0000
# 4 0.0000 0.0000 0.0000 18.8928 0.0000 0.0000
# 5 0.0000 0.0000 0.0000 0.0000 27.7187 0.0000
# 6 0.0000 0.0000 0.0000 0.0000 0.0000 24.5448
#
#
#
# Elastic Compliance Matrix: (Units=1/GPa)
#
#
# Indices 1 2 3 4 5 6 
#
# 1 0.014736 -0.005387 -0.008047 0.000000 0.000000 0.000000
# 2 -0.005387 0.103494 -0.012783 0.000000 0.000000 0.000000
# 3 -0.008047 -0.012783 0.027901 0.000000 0.000000 0.000000
# 4 0.000000 0.000000 0.000000 0.052930 0.000000 0.000000
# 5 0.000000 0.000000 0.000000 0.000000 0.036077 0.000000
# 6 0.000000 0.000000 0.000000 0.000000 0.000000 0.040742
#
#
# Mechanical properties :
#
#
# Convention : Reuss Voigt Hill
#
# Bulk Modulus (GPa) = 10.67243 25.86861 18.27052
# Shear Modulus (GPa) = 13.90646 20.95635 17.43141
#
# Velocity S-wave (km/s) = 2.89960 3.55949 3.24636
# Velocity P-wave (km/s) = 4.20270 5.70378 5.00978
#
# Compressibility (1/GPa) = 0.09369938
#
# Stress axis : x y z
#
# Youngs Moduli (GPa) = 67.85945 9.66238 35.84141
#
# Poissons Ratio (x) = 0.05205 0.28840
# Poissons Ratio (y) = 0.36554 0.45815
# Poissons Ratio (z) = 0.54604 0.12351
#
# Static dielectric constant tensor:
#      x y z
#    x 1.629730 0.000000 0.000000 
#    y 0.000000 1.535700 0.000000 
#    z 0.000000 0.000000 1.552380 
# 
# From -- ./inp_files/16199.got.cif
#   From: 2010.05.17/outbox.cif.g08.bks.cpg/sg65_9_cif.got.tgz:16199.got - 2010.06.03 17:01:31.
