data_PCOD9487094
_publ_section_title
;
Structure prediction by ZEFSAII (Michael W. Deem and Ramdas Pophale) SiO2 
 PCOD9487094
Probable space group: C M M M
;
_chemical_formula_sum "Si O2"
_cell_formula_units_Z 96
_cell_length_a 16.047666
_cell_length_b 18.632815
_cell_length_c 17.819450
_cell_angle_alpha 90.000000
_cell_angle_beta 90.000000
_cell_angle_gamma 90.000000
_cell_volume 5328.250620
_symmetry_space_group_name_H-M "C M M M"
_symmetry_group_IT_number 65
_symmetry_cell_setting 'orthorhombic'
loop_
_space_group_symop_operation_xyz
x,y,z
-x,-y,z
x,-y,-z
-x,y,-z
-x,-y,-z
x,y,-z
-x,y,z
x,-y,z
1/2+x,1/2+y,z
1/2-x,1/2-y,z
1/2+x,1/2-y,-z
1/2-x,1/2+y,-z
1/2-x,1/2-y,-z
1/2+x,1/2+y,-z
1/2-x,1/2+y,z
1/2+x,1/2-y,z
loop_
_atom_site_type_symbol
_atom_site_label
_atom_site_fract_x
_atom_site_fract_y
_atom_site_fract_z
Si Si1 0.500000 0.918276 0.263703
Si Si2 0.097333 0.204337 0.760901
Si Si3 0.778909 0.916549 0.720086
Si Si4 0.500000 0.835636 0.418820
Si Si5 0.823401 0.299778 0.364127
Si Si6 0.348497 0.234419 0.082878
Si Si7 0.150046 0.581700 0.850966
O O1 0.500000 0.876489 0.340228
O O2 0.578353 0.906689 0.210707
O O3 0.500000 0.000000 0.287095
O O4 0.137776 0.129768 0.733181
O O5 0.149295 0.263356 0.714583
O O6 0.109771 0.223217 0.848366
O O7 0.000000 0.208991 0.742448
O O8 0.719255 0.875438 0.659760
O O9 0.733366 0.914238 0.801180
O O10 0.790730 0.000000 0.700152
O O11 0.500000 0.873367 0.500000
O O12 0.408299 0.799115 0.412340
O O13 0.750000 0.250000 0.396672
O O14 0.250000 0.250000 0.087318
O O15 0.357465 0.148593 0.093901
O O16 0.378862 0.255176 0.000000
O O17 0.141754 0.500000 0.881273
#
# Coordination Sequence:
#
# PCOD9487094 Si02
#       7
#     8  16  16   8  16  16  16
#     4  10  20  35  53  76 106 138 169 215 267 321
#     4  11  20  35  57  78 107 143 187 233 277 333
#     4  10  19  33  57  81 103 139 188 234 276 319
#     4  12  22  33  54  87 120 150 183 215 273 343
#     4  10  20  37  58  81 113 148 188 231 276 322
#     4  11  21  34  50  75 107 137 179 229 283 342
#     4  10  19  34  55  73  99 139 181 220 269 327
#
# _framework density 18.017171000000001
#
# number of rings (size 3 to 8) (size 9 to 14) (size 15 to 20)
#    0.000    1.500    5.833    0.500    1.167    1.500 
#    0.000    0.000    0.000    2.000    0.000    1.167 
#    0.000    3.333    0.000    0.000    0.000    0.000 
#
# Total GULP energy -267441.665898 kJ/mol
# GULP energy per Si atom -5571.701373 kJ/mol
# Density = 1.797616 g / cm^3
# Si number density = 18.017171 Si / 1000 Ang^3
#
#
#
# Elastic Constant Matrix: (Units=GPa)
#
#
# Indices 1 2 3 4 5 6 
#
# 1 105.2041 38.4922 22.9442 0.0000 0.0000 0.0000
# 2 38.4922 119.4418 23.6514 0.0000 0.0000 0.0000
# 3 22.9442 23.6514 50.1167 0.0000 0.0000 0.0000
# 4 0.0000 0.0000 0.0000 73.0268 0.0000 0.0000
# 5 0.0000 0.0000 0.0000 0.0000 -11.0760 0.0000
# 6 0.0000 0.0000 0.0000 0.0000 0.0000 18.5575
#
#
#
# Elastic Compliance Matrix: (Units=1/GPa)
#
#
# Indices 1 2 3 4 5 6 
#
# 1 0.011411 -0.002915 -0.003848 0.000000 0.000000 0.000000
# 2 -0.002915 0.009980 -0.003375 0.000000 0.000000 0.000000
# 3 -0.003848 -0.003375 0.023308 0.000000 0.000000 0.000000
# 4 0.000000 0.000000 0.000000 0.013694 0.000000 0.000000
# 5 0.000000 0.000000 0.000000 0.000000 -0.090285 0.000000
# 6 0.000000 0.000000 0.000000 0.000000 0.000000 0.053886
#
#
# Mechanical properties :
#
#
# Convention : Reuss Voigt Hill
#
# Bulk Modulus (GPa) = 40.94738 49.43757 45.19247
# Shear Modulus (GPa) = 99.18102 28.74666 63.96384
#
# Velocity S-wave (km/s) = 7.42749 3.99872 5.96479
# Velocity P-wave (km/s) = 9.81493 6.98702 8.51914
#
# Compressibility (1/GPa) = 0.02442159
#
# Stress axis : x y z
#
# Youngs Moduli (GPa) = 87.63206 100.19871 42.90349
#
# Poissons Ratio (x) = 0.29213 0.16511
# Poissons Ratio (y) = 0.25549 0.14481
# Poissons Ratio (z) = 0.33724 0.33819
#
# Static dielectric constant tensor:
#      x y z
#    x 1.655020 0.000000 0.000000 
#    y 0.000000 1.660070 0.000000 
#    z 0.000000 0.000000 1.654560 
# 
# From -- ./inp_files/54535.got.cif
#   From: 2010.05.17/outbox.cif.g08.bks.cpg/sg65_28_cif.got.tgz:54535.got - 2010.06.03 17:01:31.
