data_PCOD9487758
_publ_section_title
;
Structure prediction by ZEFSAII (Michael W. Deem and Ramdas Pophale) SiO2 
 PCOD9487758
Probable space group: C M M M
;
_chemical_formula_sum "Si O2"
_cell_formula_units_Z 104
_cell_length_a 27.837348
_cell_length_b 8.665333
_cell_length_c 27.592722
_cell_angle_alpha 90.000000
_cell_angle_beta 90.000000
_cell_angle_gamma 90.000000
_cell_volume 6655.913373
_symmetry_space_group_name_H-M "C M M M"
_symmetry_group_IT_number 65
_symmetry_cell_setting 'orthorhombic'
loop_
_space_group_symop_operation_xyz
x,y,z
-x,-y,z
x,-y,-z
-x,y,-z
-x,-y,-z
x,y,-z
-x,y,z
x,-y,z
1/2+x,1/2+y,z
1/2-x,1/2-y,z
1/2+x,1/2-y,-z
1/2-x,1/2+y,-z
1/2-x,1/2-y,-z
1/2+x,1/2+y,-z
1/2-x,1/2+y,z
1/2+x,1/2-y,z
loop_
_atom_site_type_symbol
_atom_site_label
_atom_site_fract_x
_atom_site_fract_y
_atom_site_fract_z
Si Si1 0.695985 0.815986 0.000000
Si Si2 0.941981 0.184097 0.552124
Si Si3 0.801144 0.315270 0.193366
Si Si4 0.150900 0.185450 0.097660
Si Si5 0.553796 0.686154 0.850550
Si Si6 0.399118 0.184212 0.245234
Si Si7 0.443645 0.313256 0.658028
O O1 0.750000 0.750000 0.000000
O O2 0.668642 0.757094 0.952261
O O3 0.698266 0.000000 0.000000
O O4 0.924861 0.248053 0.500000
O O5 0.926002 0.242509 0.604841
O O6 0.000000 0.199437 0.552587
O O7 0.932284 0.000000 0.551549
O O8 0.799036 0.500000 0.188550
O O9 0.750000 0.250000 0.209051
O O10 0.815528 0.242716 0.141602
O O11 0.844670 0.275669 0.229684
O O12 0.096664 0.232432 0.113132
O O13 0.153034 0.000000 0.094691
O O14 0.500000 0.735602 0.864334
O O15 0.554476 0.500000 0.848256
O O16 0.567491 0.748838 0.797535
O O17 0.414355 0.249498 0.296908
O O18 0.403611 0.000000 0.245294
O O19 0.500000 0.270586 0.663498
O O20 0.441701 0.500000 0.658222
#
# Coordination Sequence:
#
# PCOD9487758 Si02
#       7
#     8  16  16  16  16  16  16
#     4  12  24  38  55  74  97 121 148 183 223 266
#     4   7  10  18  33  53  77 107 145 186 221 250
#     4  10  20  34  50  68  90 116 146 179 220 267
#     4  10  20  35  54  75  97 120 148 181 218 259
#     4   9  18  33  52  71  92 121 155 186 214 250
#     4  10  20  30  42  64  92 119 147 181 220 264
#     4   9  16  25  39  60  86 117 152 186 217 253
#
# _framework density 15.625203000000001
#
# number of rings (size 3 to 8) (size 9 to 14) (size 15 to 20)
#    0.000    2.615    0.000    4.385    0.000    4.923 
#    0.000    0.385    0.000    2.769    0.000    2.154 
#    0.000    0.615    0.000    1.385    0.000    2.154 
#
# Total GULP energy -289760.165577 kJ/mol
# GULP energy per Si atom -5572.310876 kJ/mol
# Density = 1.558964 g / cm^3
# Si number density = 15.625203 Si / 1000 Ang^3
#
#
#
# Elastic Constant Matrix: (Units=GPa)
#
#
# Indices 1 2 3 4 5 6 
#
# 1 91.6956 26.7381 59.6026 0.0000 0.0000 0.0000
# 2 26.7381 32.3547 33.9900 0.0000 0.0000 0.0000
# 3 59.6026 33.9900 158.7683 0.0000 0.0000 0.0000
# 4 0.0000 0.0000 0.0000 6.8841 0.0000 0.0000
# 5 0.0000 0.0000 0.0000 0.0000 14.5025 0.0000
# 6 0.0000 0.0000 0.0000 0.0000 0.0000 19.8323
#
#
#
# Elastic Compliance Matrix: (Units=1/GPa)
#
#
# Indices 1 2 3 4 5 6 
#
# 1 0.016252 -0.009059 -0.004162 0.000000 0.000000 0.000000
# 2 -0.009059 0.044925 -0.006217 0.000000 0.000000 0.000000
# 3 -0.004162 -0.006217 0.009192 0.000000 0.000000 0.000000
# 4 0.000000 0.000000 0.000000 0.145263 0.000000 0.000000
# 5 0.000000 0.000000 0.000000 0.000000 0.068954 0.000000
# 6 0.000000 0.000000 0.000000 0.000000 0.000000 0.050423
#
#
# Mechanical properties :
#
#
# Convention : Reuss Voigt Hill
#
# Bulk Modulus (GPa) = 31.75235 58.16442 44.95838
# Shear Modulus (GPa) = 13.00788 19.07630 16.04209
#
# Velocity S-wave (km/s) = 2.88843 3.49788 3.20766
# Velocity P-wave (km/s) = 5.61154 7.32251 6.52336
#
# Compressibility (1/GPa) = 0.03149374
#
# Stress axis : x y z
#
# Youngs Moduli (GPa) = 61.52934 22.25932 108.79189
#
# Poissons Ratio (x) = 0.20164 0.45278
# Poissons Ratio (y) = 0.55738 0.67636
# Poissons Ratio (z) = 0.25608 0.13839
#
# Static dielectric constant tensor:
#      x y z
#    x 1.517390 0.000000 0.000000 
#    y 0.000000 1.526810 0.000000 
#    z 0.000000 0.000000 1.528360 
# 
# From -- ./inp_files/71800.got.cif
#   From: 2010.05.17/outbox.cif.g08.bks.cpg/sg65_36_cif.got.tgz:71800.got - 2010.06.03 17:01:31.
