data_PCOD9487535
_publ_section_title
;
Structure prediction by ZEFSAII (Michael W. Deem and Ramdas Pophale) SiO2 
 PCOD9487535
Probable space group: C M M M
;
_chemical_formula_sum "Si O2"
_cell_formula_units_Z 96
_cell_length_a 24.417465
_cell_length_b 26.205679
_cell_length_c 7.840715
_cell_angle_alpha 90.000000
_cell_angle_beta 90.000000
_cell_angle_gamma 90.000000
_cell_volume 5017.087310
_symmetry_space_group_name_H-M "C M M M"
_symmetry_group_IT_number 65
_symmetry_cell_setting 'orthorhombic'
loop_
_space_group_symop_operation_xyz
x,y,z
-x,-y,z
x,-y,-z
-x,y,-z
-x,-y,-z
x,y,-z
-x,y,z
x,-y,z
1/2+x,1/2+y,z
1/2-x,1/2-y,z
1/2+x,1/2-y,-z
1/2-x,1/2+y,-z
1/2-x,1/2-y,-z
1/2+x,1/2+y,-z
1/2-x,1/2+y,z
1/2+x,1/2-y,z
loop_
_atom_site_type_symbol
_atom_site_label
_atom_site_fract_x
_atom_site_fract_y
_atom_site_fract_z
Si Si1 0.062005 0.692029 0.705561
Si Si2 0.366243 0.903734 0.201909
Si Si3 0.562651 0.691980 0.708462
Si Si4 0.865976 0.901546 0.296086
Si Si5 0.749191 0.558124 0.703617
Si Si6 0.062866 0.000000 0.795170
Si Si7 0.937002 0.500000 0.209056
O O1 0.060753 0.692714 0.500000
O O2 0.105324 0.649829 0.758979
O O3 0.074674 0.749892 0.762152
O O4 0.000000 0.679095 0.764619
O O5 0.304794 0.911238 0.266480
O O6 0.404554 0.949812 0.268247
O O7 0.363775 0.909787 0.000000
O O8 0.563404 0.691553 0.500000
O O9 0.500000 0.679682 0.758733
O O10 0.604766 0.649401 0.771200
O O11 0.860991 0.894707 0.500000
O O12 0.805660 0.915071 0.227734
O O13 0.904968 0.949955 0.265225
O O14 0.742100 0.554011 0.500000
O O15 0.754541 0.500000 0.770960
O O16 0.000000 0.000000 0.734586
O O17 0.062688 0.000000 0.000000
O O18 0.000000 0.500000 0.264495
O O19 0.937424 0.500000 0.000000
#
# Coordination Sequence:
#
# PCOD9487535 Si02
#       7
#    16  16  16  16  16   8   8
#     4   9  18  34  55  80 109 138 169 214 271 319
#     4  11  21  34  53  76 103 140 180 214 258 315
#     4   8  15  30  55  83 107 133 171 220 269 314
#     4  10  19  35  58  81 102 136 185 227 262 309
#     4  10  20  35  53  76 106 137 174 222 268 310
#     4  11  23  34  47  76 116 147 170 211 272 327
#     4   9  18  31  47  70  98 123 158 211 258 299
#
# _framework density 19.134609000000001
#
# number of rings (size 3 to 8) (size 9 to 14) (size 15 to 20)
#    0.000    2.333    1.667    2.750    0.000    3.000 
#    0.000    1.667    0.000    8.000    0.000    0.000 
#    0.000    0.000    0.000    0.000    0.000    0.000 
#
# Total GULP energy -267902.590552 kJ/mol
# GULP energy per Si atom -5581.303970 kJ/mol
# Density = 1.909106 g / cm^3
# Si number density = 19.134609 Si / 1000 Ang^3
#
#
#
# Elastic Constant Matrix: (Units=GPa)
#
#
# Indices 1 2 3 4 5 6 
#
# 1 193.9615 111.5891 1.4207 0.0000 0.0000 0.0000
# 2 111.5891 144.6001 -1.2142 0.0000 0.0000 0.0000
# 3 1.4207 -1.2142 18.7991 0.0000 0.0000 0.0000
# 4 0.0000 0.0000 0.0000 -19.7308 0.0000 0.0000
# 5 0.0000 0.0000 0.0000 0.0000 3.5063 0.0000
# 6 0.0000 0.0000 0.0000 0.0000 0.0000 72.7739
#
#
#
# Elastic Compliance Matrix: (Units=1/GPa)
#
#
# Indices 1 2 3 4 5 6 
#
# 1 0.009298 -0.007185 -0.001167 0.000000 0.000000 0.000000
# 2 -0.007185 0.012472 0.001349 0.000000 0.000000 0.000000
# 3 -0.001167 0.001349 0.053369 0.000000 0.000000 0.000000
# 4 0.000000 0.000000 0.000000 -0.050682 0.000000 0.000000
# 5 0.000000 0.000000 0.000000 0.000000 0.285197 0.000000
# 6 0.000000 0.000000 0.000000 0.000000 0.000000 0.013741
#
#
# Mechanical properties :
#
#
# Convention : Reuss Voigt Hill
#
# Bulk Modulus (GPa) = 16.35795 64.55023 40.45409
# Shear Modulus (GPa) = 13.97510 27.68089 20.82800
#
# Velocity S-wave (km/s) = 2.70544 3.80760 3.30282
# Velocity P-wave (km/s) = 4.28097 7.28961 5.97767
#
# Compressibility (1/GPa) = 0.06113234
#
# Stress axis : x y z
#
# Youngs Moduli (GPa) = 107.55142 80.18150 18.73737
#
# Poissons Ratio (x) = 0.57611 0.02186
# Poissons Ratio (y) = 0.77276 -0.02527
# Poissons Ratio (z) = 0.12549 -0.10813
#
# Static dielectric constant tensor:
#      x y z
#    x 1.661960 0.000000 0.000000 
#    y 0.000000 1.667500 0.000000 
#    z 0.000000 0.000000 1.689910 
# 
# From -- ./inp_files/14372.got.cif
#   From: 2010.05.17/outbox.cif.g08.bks.cpg/sg65_8_cif.got.tgz:14372.got - 2010.06.03 17:01:31.
