data_PCOD9487997
_publ_section_title
;
Structure prediction by ZEFSAII (Michael W. Deem and Ramdas Pophale) SiO2 
 PCOD9487997
Probable space group: C M M M
;
_chemical_formula_sum "Si O2"
_cell_formula_units_Z 72
_cell_length_a 18.779647
_cell_length_b 7.534512
_cell_length_c 24.863516
_cell_angle_alpha 90.000000
_cell_angle_beta 90.000000
_cell_angle_gamma 90.000000
_cell_volume 3518.075023
_symmetry_space_group_name_H-M "C M M M"
_symmetry_group_IT_number 65
_symmetry_cell_setting 'orthorhombic'
loop_
_space_group_symop_operation_xyz
x,y,z
-x,-y,z
x,-y,-z
-x,y,-z
-x,-y,-z
x,y,-z
-x,y,z
x,-y,z
1/2+x,1/2+y,z
1/2-x,1/2-y,z
1/2+x,1/2-y,-z
1/2-x,1/2+y,-z
1/2-x,1/2-y,-z
1/2+x,1/2+y,-z
1/2-x,1/2+y,z
1/2+x,1/2-y,z
loop_
_atom_site_type_symbol
_atom_site_label
_atom_site_fract_x
_atom_site_fract_y
_atom_site_fract_z
Si Si1 0.081382 0.211974 0.232671
Si Si2 0.917825 0.286615 0.115338
Si Si3 0.666757 0.712960 0.335943
Si Si4 0.582636 0.283602 0.559968
Si Si5 0.586588 0.788622 0.000000
O O1 0.113905 0.243908 0.173441
O O2 0.127109 0.280985 0.282507
O O3 0.000000 0.282378 0.234098
O O4 0.076695 0.000000 0.238436
O O5 0.919956 0.500000 0.111796
O O6 0.887649 0.219865 0.058105
O O7 0.000000 0.222097 0.118002
O O8 0.657791 0.500000 0.336269
O O9 0.750000 0.750000 0.334486
O O10 0.630460 0.779883 0.390787
O O11 0.604916 0.226087 0.500000
O O12 0.500000 0.233573 0.568008
O O13 0.584408 0.500000 0.559858
O O14 0.500000 0.768349 0.000000
O O15 0.600487 0.000000 0.000000
#
# Coordination Sequence:
#
# PCOD9487997 Si02
#       5
#    16  16  16  16   8
#     4   9  17  29  44  62  86 116 149 184 221 260
#     4   8  13  22  38  60  85 113 144 177 215 261
#     4  10  20  32  46  66  92 120 149 183 223 263
#     4   8  14  27  49  73  92 114 149 187 218 255
#     4   7  10  18  33  55  84 113 138 169 213 263
#
# _framework density 20.465737000000001
#
# number of rings (size 3 to 8) (size 9 to 14) (size 15 to 20)
#    0.000    3.444    0.000    2.667    0.000    4.000 
#    0.000    0.556    0.000    5.333    0.000    2.333 
#    0.000    0.000    0.000    0.000    0.000    0.000 
#
# Total GULP energy -200485.506570 kJ/mol
# GULP energy per Si atom -5569.041849 kJ/mol
# Density = 2.041916 g / cm^3
# Si number density = 20.465737 Si / 1000 Ang^3
#
#
#
# Elastic Constant Matrix: (Units=GPa)
#
#
# Indices 1 2 3 4 5 6 
#
# 1 61.7587 0.0243 96.4336 0.0000 0.0000 0.0000
# 2 0.0243 50.5957 8.7434 0.0000 0.0000 0.0000
# 3 96.4336 8.7434 277.4980 0.0000 0.0000 0.0000
# 4 0.0000 0.0000 0.0000 17.0864 0.0000 0.0000
# 5 0.0000 0.0000 0.0000 0.0000 -4.2063 0.0000
# 6 0.0000 0.0000 0.0000 0.0000 0.0000 12.6288
#
#
#
# Elastic Compliance Matrix: (Units=1/GPa)
#
#
# Indices 1 2 3 4 5 6 
#
# 1 0.035630 0.002134 -0.012449 0.000000 0.000000 0.000000
# 2 0.002134 0.020001 -0.001372 0.000000 0.000000 0.000000
# 3 -0.012449 -0.001372 0.007973 0.000000 0.000000 0.000000
# 4 0.000000 0.000000 0.000000 0.058526 0.000000 0.000000
# 5 0.000000 0.000000 0.000000 0.000000 -0.237741 0.000000
# 6 0.000000 0.000000 0.000000 0.000000 0.000000 0.079184
#
#
# Mechanical properties :
#
#
# Convention : Reuss Voigt Hill
#
# Bulk Modulus (GPa) = 24.85698 66.69499 45.77598
# Shear Modulus (GPa) = 14029.96319 24.07852 7027.02085
#
# Velocity S-wave (km/s) = 82.88682 3.43378 58.66010
# Velocity P-wave (km/s) = 95.77302 6.95561 67.90012
#
# Compressibility (1/GPa) = 0.04023014
#
# Stress axis : x y z
#
# Youngs Moduli (GPa) = 28.06642 49.99855 125.42314
#
# Poissons Ratio (x) = -0.10671 1.56139
# Poissons Ratio (y) = -0.05990 0.17206
# Poissons Ratio (z) = 0.34940 0.06859
#
# Static dielectric constant tensor:
#      x y z
#    x 1.667200 0.000000 0.000000 
#    y 0.000000 1.790780 0.000000 
#    z 0.000000 0.000000 1.795410 
# 
# From -- ./inp_files/70733.got.cif
#   From: 2010.05.17/outbox.cif.g08.bks.cpg/sg65_36_cif.got.tgz:70733.got - 2010.06.03 17:01:31.
