data_PCOD9487271
_publ_section_title
;
Structure prediction by ZEFSAII (Michael W. Deem and Ramdas Pophale) SiO2 
 PCOD9487271
Probable space group: C M M M
;
_chemical_formula_sum "Si O2"
_cell_formula_units_Z 116
_cell_length_a 7.614313
_cell_length_b 30.002157
_cell_length_c 25.647321
_cell_angle_alpha 90.000000
_cell_angle_beta 90.000000
_cell_angle_gamma 90.000000
_cell_volume 5859.023125
_symmetry_space_group_name_H-M "C M M M"
_symmetry_group_IT_number 65
_symmetry_cell_setting 'orthorhombic'
loop_
_space_group_symop_operation_xyz
x,y,z
-x,-y,z
x,-y,-z
-x,y,-z
-x,-y,-z
x,y,-z
-x,y,z
x,-y,z
1/2+x,1/2+y,z
1/2-x,1/2-y,z
1/2+x,1/2-y,-z
1/2-x,1/2+y,-z
1/2-x,1/2-y,-z
1/2+x,1/2+y,-z
1/2-x,1/2+y,z
1/2+x,1/2-y,z
loop_
_atom_site_type_symbol
_atom_site_label
_atom_site_fract_x
_atom_site_fract_y
_atom_site_fract_z
Si Si1 0.790862 0.302296 0.442836
Si Si2 0.196786 0.573380 0.938231
Si Si3 0.292244 0.547948 0.666648
Si Si4 0.711711 0.048553 0.789177
Si Si5 0.705949 0.644626 0.340325
Si Si6 0.701297 0.364169 0.852558
Si Si7 0.000000 0.000000 0.084771
Si Si8 0.211623 0.802382 0.761498
O O1 0.725102 0.317469 0.500000
O O2 0.750000 0.250000 0.438766
O O3 0.718772 0.326862 0.392517
O O4 0.000000 0.307878 0.442126
O O5 0.211852 0.619317 0.905804
O O6 0.346158 0.539159 0.920483
O O7 0.000000 0.555521 0.928252
O O8 0.216704 0.580121 0.000000
O O9 0.500000 0.546854 0.654287
O O10 0.217665 0.500000 0.648970
O O11 0.268318 0.549437 0.729093
O O12 0.217180 0.595452 0.649265
O O13 0.500000 0.050813 0.792102
O O14 0.790188 0.090856 0.817600
O O15 0.770245 0.000000 0.810237
O O16 0.500000 0.637690 0.328524
O O17 0.778268 0.670908 0.289806
O O18 0.500000 0.352787 0.863991
O O19 0.777086 0.325904 0.814678
O O20 0.250000 0.750000 0.758110
O O21 0.000000 0.807011 0.762029
#
# Coordination Sequence:
#
# PCOD9487271 Si02
#       8
#    16  16  16  16  16  16   4  16
#     4  10  21  36  54  79 109 142 182 228 282 339
#     4  11  24  40  60  88 121 160 205 244 288 351
#     4   9  17  32  52  74 106 146 181 218 266 324
#     4  10  20  31  46  74 109 143 183 226 268 324
#     4  10  19  34  55  82 112 144 187 228 276 338
#     4  11  22  38  57  79 112 153 194 237 291 347
#     4  12  23  42  64  90 126 168 202 242 297 342
#     4  10  22  38  56  82 113 146 187 237 294 354
#
# _framework density 19.798521000000001
#
# number of rings (size 3 to 8) (size 9 to 14) (size 15 to 20)
#    0.000    1.793    2.069    2.483    0.966    5.517 
#    0.000    0.000    0.000    0.828    0.000    2.897 
#    0.000    0.000    0.000    0.000    0.000    0.000 
#
# Total GULP energy -323141.645784 kJ/mol
# GULP energy per Si atom -5571.407686 kJ/mol
# Density = 1.975346 g / cm^3
# Si number density = 19.798521 Si / 1000 Ang^3
#
#
#
# Elastic Constant Matrix: (Units=GPa)
#
#
# Indices 1 2 3 4 5 6 
#
# 1 74.2406 14.2183 10.9300 0.0000 0.0000 0.0000
# 2 14.2183 132.5063 52.9202 0.0000 0.0000 0.0000
# 3 10.9300 52.9202 81.8313 0.0000 0.0000 0.0000
# 4 0.0000 0.0000 0.0000 20.7910 0.0000 0.0000
# 5 0.0000 0.0000 0.0000 0.0000 17.9030 0.0000
# 6 0.0000 0.0000 0.0000 0.0000 0.0000 16.4005
#
#
#
# Elastic Compliance Matrix: (Units=1/GPa)
#
#
# Indices 1 2 3 4 5 6 
#
# 1 0.013839 -0.001007 -0.001197 0.000000 0.000000 0.000000
# 2 -0.001007 0.010248 -0.006493 0.000000 0.000000 0.000000
# 3 -0.001197 -0.006493 0.016579 0.000000 0.000000 0.000000
# 4 0.000000 0.000000 0.000000 0.048098 0.000000 0.000000
# 5 0.000000 0.000000 0.000000 0.000000 0.055857 0.000000
# 6 0.000000 0.000000 0.000000 0.000000 0.000000 0.060974
#
#
# Mechanical properties :
#
#
# Convention : Reuss Voigt Hill
#
# Bulk Modulus (GPa) = 42.97019 49.41280 46.19149
# Shear Modulus (GPa) = 21.66893 25.05288 23.36091
#
# Velocity S-wave (km/s) = 3.31187 3.56109 3.43874
# Velocity P-wave (km/s) = 6.03121 6.47461 6.25684
#
# Compressibility (1/GPa) = 0.02327195
#
# Stress axis : x y z
#
# Youngs Moduli (GPa) = 72.26053 97.58048 60.31682
#
# Poissons Ratio (x) = 0.09824 0.07222
# Poissons Ratio (y) = 0.07275 0.39163
# Poissons Ratio (z) = 0.08652 0.63358
#
# Static dielectric constant tensor:
#      x y z
#    x 1.891750 0.000000 0.000000 
#    y 0.000000 1.712690 0.000000 
#    z 0.000000 0.000000 1.707360 
# 
# From -- ./inp_files/68623.got.cif
#   From: 2010.05.17/outbox.cif.g08.bks.cpg/sg65_35_cif.got.tgz:68623.got - 2010.06.03 17:01:31.
