data_PCOD9487206
_publ_section_title
;
Structure prediction by ZEFSAII (Michael W. Deem and Ramdas Pophale) SiO2 
 PCOD9487206
Probable space group: C M M M
;
_chemical_formula_sum "Si O2"
_cell_formula_units_Z 88
_cell_length_a 17.189729
_cell_length_b 29.562770
_cell_length_c 7.399519
_cell_angle_alpha 90.000000
_cell_angle_beta 90.000000
_cell_angle_gamma 90.000000
_cell_volume 3760.258003
_symmetry_space_group_name_H-M "C M M M"
_symmetry_group_IT_number 65
_symmetry_cell_setting 'orthorhombic'
loop_
_space_group_symop_operation_xyz
x,y,z
-x,-y,z
x,-y,-z
-x,y,-z
-x,-y,-z
x,y,-z
-x,y,z
x,-y,z
1/2+x,1/2+y,z
1/2-x,1/2-y,z
1/2+x,1/2-y,-z
1/2-x,1/2+y,-z
1/2-x,1/2-y,-z
1/2+x,1/2+y,-z
1/2-x,1/2+y,z
1/2+x,1/2-y,z
loop_
_atom_site_type_symbol
_atom_site_label
_atom_site_fract_x
_atom_site_fract_y
_atom_site_fract_z
Si Si1 0.157722 0.398532 0.781908
Si Si2 0.321219 0.277966 0.292988
Si Si3 0.500000 0.947969 0.779569
Si Si4 0.181864 0.949117 0.711888
Si Si5 0.587918 0.192515 0.218177
Si Si6 0.911143 0.864182 0.278217
O O1 0.234017 0.425318 0.725268
O O2 0.148141 0.346420 0.722873
O O3 0.079156 0.423753 0.721754
O O4 0.158000 0.398324 0.000000
O O5 0.298449 0.287824 0.500000
O O6 0.250000 0.250000 0.207202
O O7 0.390468 0.241476 0.290666
O O8 0.353088 0.324591 0.214616
O O9 0.500000 0.000000 0.724517
O O10 0.500000 0.946423 0.000000
O O11 0.164146 0.953293 0.500000
O O12 0.120306 0.912759 0.784159
O O13 0.182422 0.000000 0.788172
O O14 0.500000 0.179348 0.268159
O O15 0.590474 0.194752 0.000000
O O16 0.909603 0.863190 0.500000
O O17 0.000000 0.855959 0.224171
#
# Coordination Sequence:
#
# PCOD9487206 Si02
#       6
#    16  16   8  16  16  16
#     4  10  19  34  54  77 106 142 182 218 261 321
#     4  10  20  34  54  80 109 142 180 218 264 324
#     4   9  16  28  49  73  97 133 181 219 246 297
#     4  10  21  36  55  80 107 134 172 228 284 323
#     4  10  20  34  52  77 109 141 177 221 263 308
#     4   9  18  34  55  78 106 142 183 222 262 320
#
# _framework density 23.402649
#
# number of rings (size 3 to 8) (size 9 to 14) (size 15 to 20)
#    0.000    2.273    0.909    2.182    0.000    5.091 
#    0.000    3.182    0.000    3.273    0.000    1.273 
#    0.000    0.000    0.000    0.000    0.000    0.000 
#
# Total GULP energy -245939.914659 kJ/mol
# GULP energy per Si atom -5589.543515 kJ/mol
# Density = 2.334938 g / cm^3
# Si number density = 23.402649 Si / 1000 Ang^3
#
#
#
# Elastic Constant Matrix: (Units=GPa)
#
#
# Indices 1 2 3 4 5 6 
#
# 1 114.7944 50.6192 1.9292 0.0000 0.0000 0.0000
# 2 50.6192 171.9962 9.2637 0.0000 0.0000 0.0000
# 3 1.9292 9.2637 81.6071 0.0000 0.0000 0.0000
# 4 0.0000 0.0000 0.0000 -101.8317 0.0000 0.0000
# 5 0.0000 0.0000 0.0000 0.0000 15.5874 0.0000
# 6 0.0000 0.0000 0.0000 0.0000 0.0000 34.8310
#
#
#
# Elastic Compliance Matrix: (Units=1/GPa)
#
#
# Indices 1 2 3 4 5 6 
#
# 1 0.010011 -0.002952 0.000098 0.000000 0.000000 0.000000
# 2 -0.002952 0.006720 -0.000693 0.000000 0.000000 0.000000
# 3 0.000098 -0.000693 0.012330 0.000000 0.000000 0.000000
# 4 0.000000 0.000000 0.000000 -0.009820 0.000000 0.000000
# 5 0.000000 0.000000 0.000000 0.000000 0.064154 0.000000
# 6 0.000000 0.000000 0.000000 0.000000 0.000000 0.028710
#
#
# Mechanical properties :
#
#
# Convention : Reuss Voigt Hill
#
# Bulk Modulus (GPa) = 45.51909 54.66910 50.09410
# Shear Modulus (GPa) = 39.51907 10.15636 24.83772
#
# Velocity S-wave (km/s) = 4.11379 2.08549 3.26133
# Velocity P-wave (km/s) = 6.48513 5.40462 5.96938
#
# Compressibility (1/GPa) = 0.02196880
#
# Stress axis : x y z
#
# Youngs Moduli (GPa) = 99.88911 148.80777 81.10181
#
# Poissons Ratio (x) = 0.43922 -0.00798
# Poissons Ratio (y) = 0.29483 0.05621
# Poissons Ratio (z) = -0.00983 0.10313
#
# Static dielectric constant tensor:
#      x y z
#    x 1.853380 0.000000 0.000000 
#    y 0.000000 1.867450 0.000000 
#    z 0.000000 0.000000 1.988280 
# 
# From -- ./inp_files/10074.got.cif
#   From: 2010.05.17/outbox.cif.g08.bks.cpg/sg65_6_cif.got.tgz:10074.got - 2010.06.03 17:01:31.
