data_PCOD9487321
_publ_section_title
;
Structure prediction by ZEFSAII (Michael W. Deem and Ramdas Pophale) SiO2 
 PCOD9487321
Probable space group: C M M M
;
_chemical_formula_sum "Si O2"
_cell_formula_units_Z 104
_cell_length_a 7.954688
_cell_length_b 26.341120
_cell_length_c 25.032214
_cell_angle_alpha 90.000000
_cell_angle_beta 90.000000
_cell_angle_gamma 90.000000
_cell_volume 5245.134752
_symmetry_space_group_name_H-M "C M M M"
_symmetry_group_IT_number 65
_symmetry_cell_setting 'orthorhombic'
loop_
_space_group_symop_operation_xyz
x,y,z
-x,-y,z
x,-y,-z
-x,y,-z
-x,-y,-z
x,y,-z
-x,y,z
x,-y,z
1/2+x,1/2+y,z
1/2-x,1/2-y,z
1/2+x,1/2-y,-z
1/2-x,1/2+y,-z
1/2-x,1/2-y,-z
1/2+x,1/2+y,-z
1/2-x,1/2+y,z
1/2+x,1/2-y,z
loop_
_atom_site_type_symbol
_atom_site_label
_atom_site_fract_x
_atom_site_fract_y
_atom_site_fract_z
Si Si1 0.297458 0.691482 0.117057
Si Si2 0.200938 0.191231 0.000000
Si Si3 0.205953 0.500000 0.438279
Si Si4 0.200538 0.192913 0.439333
Si Si5 0.301584 0.585254 0.853645
Si Si6 0.798759 0.597342 0.629267
Si Si7 0.697484 0.057771 0.737704
Si Si8 0.793485 0.000000 0.937059
O O1 0.500000 0.693146 0.117205
O O2 0.250000 0.750000 0.128346
O O3 0.237912 0.674279 0.057589
O O4 0.237146 0.643415 0.151002
O O5 0.250000 0.250000 0.000000
O O6 0.000000 0.184235 0.000000
O O7 0.259607 0.500000 0.500000
O O8 0.262577 0.550626 0.407366
O O9 0.000000 0.500000 0.438304
O O10 0.265810 0.184125 0.500000
O O11 0.250000 0.250000 0.423773
O O12 0.263458 0.150099 0.399435
O O13 0.000000 0.190027 0.440969
O O14 0.500000 0.589187 0.864745
O O15 0.278949 0.561278 0.795594
O O16 0.236975 0.548952 0.901594
O O17 0.733474 0.592453 0.689923
O O18 0.000000 0.591013 0.633382
O O19 0.500000 0.068609 0.746257
O O20 0.710942 0.000000 0.717510
O O21 0.000000 0.000000 0.937376
O O22 0.742879 0.000000 0.000000
#
# Coordination Sequence:
#
# PCOD9487321 Si02
#       8
#    16   8   8  16  16  16  16   8
#     4   9  18  31  49  73 101 130 165 206 253 311
#     4   8  14  26  44  67  95 126 158 197 244 298
#     4   9  16  27  49  81 111 137 168 211 262 316
#     4  10  21  37  57  83 116 153 190 229 275 326
#     4  10  20  34  54  79 104 137 180 224 270 324
#     4  10  19  34  56  82 109 143 187 228 270 321
#     4  10  20  36  56  78 107 143 182 223 267 320
#     4   9  18  31  51  79 107 135 174 225 280 333
#
# _framework density 19.827898000000001
#
# number of rings (size 3 to 8) (size 9 to 14) (size 15 to 20)
#    0.000    2.462    1.538    0.923    1.077    2.769 
#    0.000    1.154    0.000    4.154    0.000    0.000 
#    0.000    0.000    0.000    0.000    0.000    0.000 
#
# Total GULP energy -289632.176672 kJ/mol
# GULP energy per Si atom -5569.849551 kJ/mol
# Density = 1.978277 g / cm^3
# Si number density = 19.827898 Si / 1000 Ang^3
#
#
#
# Elastic Constant Matrix: (Units=GPa)
#
#
# Indices 1 2 3 4 5 6 
#
# 1 13.8741 7.3893 4.4576 0.0000 0.0000 0.0000
# 2 7.3893 129.0349 68.1252 0.0000 0.0000 0.0000
# 3 4.4576 68.1252 117.9994 0.0000 0.0000 0.0000
# 4 0.0000 0.0000 0.0000 31.1218 0.0000 0.0000
# 5 0.0000 0.0000 0.0000 0.0000 16.6941 0.0000
# 6 0.0000 0.0000 0.0000 0.0000 0.0000 14.7662
#
#
#
# Elastic Compliance Matrix: (Units=1/GPa)
#
#
# Indices 1 2 3 4 5 6 
#
# 1 0.074365 -0.003992 -0.000504 0.000000 0.000000 0.000000
# 2 -0.003992 0.011362 -0.006409 0.000000 0.000000 0.000000
# 3 -0.000504 -0.006409 0.012194 0.000000 0.000000 0.000000
# 4 0.000000 0.000000 0.000000 0.032132 0.000000 0.000000
# 5 0.000000 0.000000 0.000000 0.000000 0.059901 0.000000
# 6 0.000000 0.000000 0.000000 0.000000 0.000000 0.067722
#
#
# Mechanical properties :
#
#
# Convention : Reuss Voigt Hill
#
# Bulk Modulus (GPa) = 13.13888 46.76140 29.95014
# Shear Modulus (GPa) = 16.40109 24.57883 20.48996
#
# Velocity S-wave (km/s) = 2.87918 3.52463 3.21813
# Velocity P-wave (km/s) = 4.20639 6.34025 5.38018
#
# Compressibility (1/GPa) = 0.07610999
#
# Stress axis : x y z
#
# Youngs Moduli (GPa) = 13.44712 88.01176 82.00903
#
# Poissons Ratio (x) = 0.35137 0.04136
# Poissons Ratio (y) = 0.05369 0.52559
# Poissons Ratio (z) = 0.00678 0.56406
#
# Static dielectric constant tensor:
#      x y z
#    x 0.546900 0.000000 0.000000 
#    y 0.000000 1.709760 0.000000 
#    z 0.000000 0.000000 1.733580 
# 
# From -- ./inp_files/68294.got.cif
#   From: 2010.05.17/outbox.cif.g08.bks.cpg/sg65_35_cif.got.tgz:68294.got - 2010.06.03 17:01:31.
