data_PCOD9487368
_publ_section_title
;
Structure prediction by ZEFSAII (Michael W. Deem and Ramdas Pophale) SiO2 
 PCOD9487368
Probable space group: C M M M
;
_chemical_formula_sum "Si O2"
_cell_formula_units_Z 104
_cell_length_a 26.123773
_cell_length_b 8.149149
_cell_length_c 25.016565
_cell_angle_alpha 90.000000
_cell_angle_beta 90.000000
_cell_angle_gamma 90.000000
_cell_volume 5325.689431
_symmetry_space_group_name_H-M "C M M M"
_symmetry_group_IT_number 65
_symmetry_cell_setting 'orthorhombic'
loop_
_space_group_symop_operation_xyz
x,y,z
-x,-y,z
x,-y,-z
-x,y,-z
-x,-y,-z
x,y,-z
-x,y,z
x,-y,z
1/2+x,1/2+y,z
1/2-x,1/2-y,z
1/2+x,1/2-y,-z
1/2-x,1/2+y,-z
1/2-x,1/2-y,-z
1/2+x,1/2+y,-z
1/2-x,1/2+y,z
1/2+x,1/2-y,z
loop_
_atom_site_type_symbol
_atom_site_label
_atom_site_fract_x
_atom_site_fract_y
_atom_site_fract_z
Si Si1 0.111747 0.798314 0.061938
Si Si2 0.808283 0.303483 0.560403
Si Si3 0.612726 0.193412 0.767466
Si Si4 0.500000 0.199886 0.240068
Si Si5 0.500000 0.689481 0.065211
Si Si6 0.390478 0.695897 0.354337
Si Si7 0.308092 0.691745 0.147766
Si Si8 0.500000 0.308225 0.637432
O O1 0.157326 0.737262 0.099493
O O2 0.055218 0.738109 0.080106
O O3 0.109830 0.000000 0.063768
O O4 0.119481 0.753849 0.000000
O O5 0.822035 0.248671 0.500000
O O6 0.810993 0.500000 0.562076
O O7 0.750000 0.250000 0.570060
O O8 0.845365 0.232723 0.605050
O O9 0.554915 0.246178 0.784654
O O10 0.617099 0.226410 0.704093
O O11 0.657868 0.278819 0.799659
O O12 0.616977 0.000000 0.777143
O O13 0.500000 0.283512 0.298366
O O14 0.500000 0.000000 0.246563
O O15 0.500000 0.500000 0.083523
O O16 0.500000 0.686604 0.000000
O O17 0.394853 0.500000 0.346322
O O18 0.444665 0.759755 0.378525
O O19 0.304816 0.500000 0.137546
O O20 0.250000 0.750000 0.152158
O O21 0.500000 0.500000 0.622965
#
# Coordination Sequence:
#
# PCOD9487368 Si02
#       8
#    16  16  16   8   8  16  16   8
#     4   8  15  29  50  75 102 132 166 207 258 313
#     4  10  21  37  56  79 107 140 180 224 267 311
#     4  10  20  36  56  79 108 139 172 211 260 315
#     4   8  16  31  53  78 103 134 168 206 256 313
#     4   7  10  21  44  74 104 128 155 200 256 309
#     4  10  19  34  57  83 110 141 177 215 260 311
#     4  11  23  37  52  73 103 138 178 222 264 307
#     4   8  16  30  50  78 110 140 171 211 254 304
#
# _framework density 19.527989000000002
#
# number of rings (size 3 to 8) (size 9 to 14) (size 15 to 20)
#    0.000    2.692    0.000    2.769    0.000    3.692 
#    0.000    4.231    0.000    3.692    0.000    0.000 
#    0.000    9.231    0.000    0.000    0.000    0.000 
#
# Total GULP energy -289834.645405 kJ/mol
# GULP energy per Si atom -5573.743181 kJ/mol
# Density = 1.948354 g / cm^3
# Si number density = 19.527989 Si / 1000 Ang^3
#
#
#
# Elastic Constant Matrix: (Units=GPa)
#
#
# Indices 1 2 3 4 5 6 
#
# 1 173.5473 5.2821 64.6476 0.0000 0.0000 0.0000
# 2 5.2821 13.2345 -9.4319 0.0000 0.0000 0.0000
# 3 64.6476 -9.4319 69.7375 0.0000 0.0000 0.0000
# 4 0.0000 0.0000 0.0000 5.6300 0.0000 0.0000
# 5 0.0000 0.0000 0.0000 0.0000 39.9819 0.0000
# 6 0.0000 0.0000 0.0000 0.0000 0.0000 9.1423
#
#
#
# Elastic Compliance Matrix: (Units=1/GPa)
#
#
# Indices 1 2 3 4 5 6 
#
# 1 0.010291 -0.012070 -0.011173 0.000000 0.000000 0.000000
# 2 -0.012070 0.097776 0.024413 0.000000 0.000000 0.000000
# 3 -0.011173 0.024413 0.027999 0.000000 0.000000 0.000000
# 4 0.000000 0.000000 0.000000 0.177619 0.000000 0.000000
# 5 0.000000 0.000000 0.000000 0.000000 0.025011 0.000000
# 6 0.000000 0.000000 0.000000 0.000000 0.000000 0.109381
#
#
# Mechanical properties :
#
#
# Convention : Reuss Voigt Hill
#
# Bulk Modulus (GPa) = 7.22506 41.94609 24.58558
# Shear Modulus (GPa) = 10.16524 24.01896 17.09210
#
# Velocity S-wave (km/s) = 2.28403 3.51091 2.96169
# Velocity P-wave (km/s) = 3.26551 6.16132 4.93079
#
# Compressibility (1/GPa) = 0.13840708
#
# Stress axis : x y z
#
# Youngs Moduli (GPa) = 97.16873 10.22743 35.71617
#
# Poissons Ratio (x) = 0.12344 0.39905
# Poissons Ratio (y) = 1.17282 -0.87194
# Poissons Ratio (z) = 1.08563 -0.24968
#
# Static dielectric constant tensor:
#      x y z
#    x 1.725220 0.000000 0.000000 
#    y 0.000000 1.689160 0.000000 
#    z 0.000000 0.000000 1.664910 
# 
# From -- ./inp_files/75560.got.cif
#   From: 2010.05.17/outbox.cif.g08.bks.cpg/sg65_38_cif.got.tgz:75560.got - 2010.06.03 17:01:31.
