data_PCOD9487346
_publ_section_title
;
Structure prediction by ZEFSAII (Michael W. Deem and Ramdas Pophale) SiO2 
 PCOD9487346
Probable space group: C M M M
;
_chemical_formula_sum "Si O2"
_cell_formula_units_Z 72
_cell_length_a 12.852027
_cell_length_b 12.732107
_cell_length_c 20.592804
_cell_angle_alpha 90.000000
_cell_angle_beta 90.000000
_cell_angle_gamma 90.000000
_cell_volume 3369.670183
_symmetry_space_group_name_H-M "C M M M"
_symmetry_group_IT_number 65
_symmetry_cell_setting 'orthorhombic'
loop_
_space_group_symop_operation_xyz
x,y,z
-x,-y,z
x,-y,-z
-x,y,-z
-x,-y,-z
x,y,-z
-x,y,z
x,-y,z
1/2+x,1/2+y,z
1/2-x,1/2-y,z
1/2+x,1/2-y,-z
1/2-x,1/2+y,-z
1/2-x,1/2-y,-z
1/2+x,1/2+y,-z
1/2-x,1/2+y,z
1/2+x,1/2-y,z
loop_
_atom_site_type_symbol
_atom_site_label
_atom_site_fract_x
_atom_site_fract_y
_atom_site_fract_z
Si Si1 0.124799 0.000000 0.072573
Si Si2 0.335433 0.116928 0.230780
Si Si3 0.886210 0.841533 0.424589
Si Si4 0.840640 0.615857 0.619614
Si Si5 0.118563 0.838157 0.182906
O O1 0.148174 0.103189 0.115775
O O2 0.000000 0.000000 0.066671
O O3 0.169572 0.000000 0.000000
O O4 0.370186 0.132086 0.304972
O O5 0.209642 0.125043 0.230743
O O6 0.374240 0.211857 0.185922
O O7 0.365290 0.000000 0.209507
O O8 0.876200 0.872021 0.500000
O O9 0.881006 0.714841 0.419921
O O10 0.784859 0.880374 0.387145
O O11 0.000000 0.874915 0.400528
O O12 0.875084 0.500000 0.599068
O O13 0.000000 0.868193 0.199002
#
# Coordination Sequence:
#
# PCOD9487346 Si02
#       5
#     8  16  16  16  16
#     4   9  18  34  58  86 111 143 188 227 263 313
#     4  10  21  35  53  81 115 140 180 231 270 327
#     4  10  21  36  53  75 104 136 177 227 272 323
#     4  10  21  36  54  76 104 141 174 220 274 322
#     4  10  19  34  57  79 108 147 180 220 269 318
#
# _framework density 21.367075
#
# number of rings (size 3 to 8) (size 9 to 14) (size 15 to 20)
#    0.000    2.111    1.111    4.000    0.000    6.667 
#    0.000    8.889    0.000    0.000    0.000    3.111 
#    0.000    0.000    0.000    0.000    0.000    0.000 
#
# Total GULP energy -200893.260040 kJ/mol
# GULP energy per Si atom -5580.368334 kJ/mol
# Density = 2.131844 g / cm^3
# Si number density = 21.367075 Si / 1000 Ang^3
#
#
#
# Elastic Constant Matrix: (Units=GPa)
#
#
# Indices 1 2 3 4 5 6 
#
# 1 108.0700 0.9554 9.8180 0.0000 0.0000 0.0000
# 2 0.9554 175.1771 43.3885 0.0000 0.0000 0.0000
# 3 9.8180 43.3885 75.3270 0.0000 0.0000 0.0000
# 4 0.0000 0.0000 0.0000 16.4948 0.0000 0.0000
# 5 0.0000 0.0000 0.0000 0.0000 19.6273 0.0000
# 6 0.0000 0.0000 0.0000 0.0000 0.0000 -0.2389
#
#
#
# Elastic Compliance Matrix: (Units=1/GPa)
#
#
# Indices 1 2 3 4 5 6 
#
# 1 0.009377 0.000293 -0.001391 0.000000 0.000000 0.000000
# 2 0.000293 0.006668 -0.003879 0.000000 0.000000 0.000000
# 3 -0.001391 -0.003879 0.015691 0.000000 0.000000 0.000000
# 4 0.000000 0.000000 0.000000 0.060625 0.000000 0.000000
# 5 0.000000 0.000000 0.000000 0.000000 0.050949 0.000000
# 6 0.000000 0.000000 0.000000 0.000000 0.000000 -4.186399
#
#
# Mechanical properties :
#
#
# Convention : Reuss Voigt Hill
#
# Bulk Modulus (GPa) = 45.90840 51.87754 48.89297
# Shear Modulus (GPa) = -1.24197 27.47080 13.11442
#
# Velocity S-wave (km/s) = -0.76323 3.58950 2.48012
# Velocity P-wave (km/s) = 4.55582 6.44292 5.57973
#
# Compressibility (1/GPa) = 0.02178250
#
# Stress axis : x y z
#
# Youngs Moduli (GPa) = 106.64329 149.97836 63.73084
#
# Poissons Ratio (x) = -0.04401 0.08866
# Poissons Ratio (y) = -0.03129 0.24720
# Poissons Ratio (z) = 0.14836 0.58174
#
# Static dielectric constant tensor:
#      x y z
#    x 1.826680 0.000000 0.000000 
#    y 0.000000 1.825340 0.000000 
#    z 0.000000 0.000000 1.720470 
# 
# From -- ./inp_files/62399.got.cif
#   From: 2010.05.17/outbox.cif.g08.bks.cpg/sg65_32_cif.got.tgz:62399.got - 2010.06.03 17:01:31.
