data_PCOD9487156
_publ_section_title
;
Structure prediction by ZEFSAII (Michael W. Deem and Ramdas Pophale) SiO2 
 PCOD9487156
Probable space group: C M M M
;
_chemical_formula_sum "Si O2"
_cell_formula_units_Z 96
_cell_length_a 7.751650
_cell_length_b 24.184402
_cell_length_c 26.392312
_cell_angle_alpha 90.000000
_cell_angle_beta 90.000000
_cell_angle_gamma 90.000000
_cell_volume 4947.740860
_symmetry_space_group_name_H-M "C M M M"
_symmetry_group_IT_number 65
_symmetry_cell_setting 'orthorhombic'
loop_
_space_group_symop_operation_xyz
x,y,z
-x,-y,z
x,-y,-z
-x,y,-z
-x,-y,-z
x,y,-z
-x,y,z
x,-y,z
1/2+x,1/2+y,z
1/2-x,1/2-y,z
1/2+x,1/2-y,-z
1/2-x,1/2+y,-z
1/2-x,1/2-y,-z
1/2+x,1/2+y,-z
1/2-x,1/2+y,z
1/2+x,1/2-y,z
loop_
_atom_site_type_symbol
_atom_site_label
_atom_site_fract_x
_atom_site_fract_y
_atom_site_fract_z
Si Si1 0.792148 0.186153 0.056901
Si Si2 0.787673 0.500000 0.305280
Si Si3 0.793900 0.120748 0.846216
Si Si4 0.796585 0.384812 0.350413
Si Si5 0.708076 0.813173 0.442531
Si Si6 0.293685 0.314476 0.253015
Si Si7 0.794307 0.500000 0.811686
O O1 0.750000 0.250000 0.068562
O O2 0.726022 0.146927 0.101643
O O3 0.000000 0.181276 0.055262
O O4 0.726799 0.174024 0.000000
O O5 0.727532 0.444310 0.333043
O O6 0.730400 0.500000 0.246626
O O7 0.000000 0.500000 0.304576
O O8 0.727012 0.153408 0.796784
O O9 0.761314 0.056050 0.839088
O O10 0.000000 0.129190 0.846633
O O11 0.724072 0.355842 0.400717
O O12 0.777427 0.343133 0.303387
O O13 0.000000 0.393143 0.359534
O O14 0.771604 0.822403 0.500000
O O15 0.500000 0.817321 0.443554
O O16 0.750000 0.750000 0.428066
O O17 0.500000 0.320331 0.254844
O O18 0.250000 0.250000 0.250485
O O19 0.000000 0.500000 0.809432
#
# Coordination Sequence:
#
# PCOD9487156 Si02
#       7
#    16   8  16  16  16  16   8
#     4   9  18  34  56  80 106 138 174 213 260 311
#     4   9  18  33  52  74  99 133 170 209 254 299
#     4  10  21  36  53  76 106 137 172 213 257 307
#     4  10  19  34  53  73 102 134 170 211 254 305
#     4   9  18  32  51  74 100 132 168 208 255 304
#     4  11  22  33  49  75 105 133 165 207 257 307
#     4  11  21  35  56  77 101 138 179 214 257 305
#
# _framework density 19.402794
#
# number of rings (size 3 to 8) (size 9 to 14) (size 15 to 20)
#    0.000    2.167    1.667    1.750    0.000    3.333 
#    0.000    1.250    0.000    5.000    0.000    0.000 
#    0.000    4.000    0.000    0.000    0.000    0.000 
#
# Total GULP energy -267970.495475 kJ/mol
# GULP energy per Si atom -5582.718656 kJ/mol
# Density = 1.935863 g / cm^3
# Si number density = 19.402794 Si / 1000 Ang^3
#
#
#
# Elastic Constant Matrix: (Units=GPa)
#
#
# Indices 1 2 3 4 5 6 
#
# 1 24.6151 -15.3729 -0.9268 0.0000 0.0000 0.0000
# 2 -15.3729 161.2676 106.4424 0.0000 0.0000 0.0000
# 3 -0.9268 106.4424 157.7789 0.0000 0.0000 0.0000
# 4 0.0000 0.0000 0.0000 10.8584 0.0000 0.0000
# 5 0.0000 0.0000 0.0000 0.0000 38.5507 0.0000
# 6 0.0000 0.0000 0.0000 0.0000 0.0000 4.4401
#
#
#
# Elastic Compliance Matrix: (Units=1/GPa)
#
#
# Indices 1 2 3 4 5 6 
#
# 1 0.045089 0.007433 -0.004750 0.000000 0.000000 0.000000
# 2 0.007433 0.012404 -0.008324 0.000000 0.000000 0.000000
# 3 -0.004750 -0.008324 0.011926 0.000000 0.000000 0.000000
# 4 0.000000 0.000000 0.000000 0.092094 0.000000 0.000000
# 5 0.000000 0.000000 0.000000 0.000000 0.025940 0.000000
# 6 0.000000 0.000000 0.000000 0.000000 0.000000 0.225221
#
#
# Mechanical properties :
#
#
# Convention : Reuss Voigt Hill
#
# Bulk Modulus (GPa) = 17.20086 58.21635 37.70860
# Shear Modulus (GPa) = 11.27818 27.67109 19.47463
#
# Velocity S-wave (km/s) = 2.41356 3.78052 3.17156
# Velocity P-wave (km/s) = 4.08062 7.00897 5.73486
#
# Compressibility (1/GPa) = 0.05813664
#
# Stress axis : x y z
#
# Youngs Moduli (GPa) = 22.17844 80.62052 83.85094
#
# Poissons Ratio (x) = -0.59926 0.39827
# Poissons Ratio (y) = -0.16486 0.69800
# Poissons Ratio (z) = 0.10534 0.67111
#
# Static dielectric constant tensor:
#      x y z
#    x 1.728910 0.000000 0.000000 
#    y 0.000000 1.647780 0.000000 
#    z 0.000000 0.000000 1.690910 
# 
# From -- ./inp_files/67880.got.cif
#   From: 2010.05.17/outbox.cif.g08.bks.cpg/sg65_34_cif.got.tgz:67880.got - 2010.06.03 17:01:31.
