data_PCOD9487150
_publ_section_title
;
Structure prediction by ZEFSAII (Michael W. Deem and Ramdas Pophale) SiO2 
 PCOD9487150
Probable space group: C M M M
;
_chemical_formula_sum "Si O2"
_cell_formula_units_Z 80
_cell_length_a 20.213333
_cell_length_b 24.045205
_cell_length_c 9.859405
_cell_angle_alpha 90.000000
_cell_angle_beta 90.000000
_cell_angle_gamma 90.000000
_cell_volume 4792.003444
_symmetry_space_group_name_H-M "C M M M"
_symmetry_group_IT_number 65
_symmetry_cell_setting 'orthorhombic'
loop_
_space_group_symop_operation_xyz
x,y,z
-x,-y,z
x,-y,-z
-x,y,-z
-x,-y,-z
x,y,-z
-x,y,z
x,-y,z
1/2+x,1/2+y,z
1/2-x,1/2-y,z
1/2+x,1/2-y,-z
1/2-x,1/2+y,-z
1/2-x,1/2-y,-z
1/2+x,1/2+y,-z
1/2-x,1/2+y,z
1/2+x,1/2-y,z
loop_
_atom_site_type_symbol
_atom_site_label
_atom_site_fract_x
_atom_site_fract_y
_atom_site_fract_z
Si Si1 0.099040 0.621279 0.149874
Si Si2 0.681214 0.717232 0.841204
Si Si3 0.926353 0.500000 0.742332
Si Si4 0.775272 0.500000 0.655373
Si Si5 0.253807 0.398882 0.153301
Si Si6 0.574946 0.778620 0.658435
O O1 0.078608 0.557263 0.172958
O O2 0.178691 0.624129 0.152050
O O3 0.075266 0.661171 0.268950
O O4 0.077183 0.639547 0.000000
O O5 0.750000 0.750000 0.819041
O O6 0.697508 0.652295 0.819784
O O7 0.625879 0.741128 0.742289
O O8 0.663104 0.725465 0.000000
O O9 0.856298 0.500000 0.662033
O O10 0.000000 0.500000 0.676385
O O11 0.755408 0.500000 0.500000
O O12 0.748017 0.446808 0.735820
O O13 0.265988 0.420449 0.000000
O O14 0.593270 0.783427 0.500000
O O15 0.500000 0.756688 0.666406
#
# Coordination Sequence:
#
# PCOD9487150 Si02
#       6
#    16  16   8   8  16  16
#     4  10  19  34  53  71  95 132 180 228 265 302
#     4  10  19  36  59  81 101 131 179 225 264 310
#     4  10  21  33  45  67  97 134 181 227 263 298
#     4  10  21  34  50  74 103 135 173 210 253 314
#     4   9  18  34  55  77 102 130 167 220 267 302
#     4  11  24  37  49  74 111 144 173 211 263 320
#
# _framework density 16.694479000000001
#
# number of rings (size 3 to 8) (size 9 to 14) (size 15 to 20)
#    0.000    2.000    2.000    1.800    0.000   10.200 
#    0.000    0.000    0.000    0.000    0.000    0.700 
#    0.000    5.600    0.000    0.000    0.000    0.000 
#
# Total GULP energy -223069.735074 kJ/mol
# GULP energy per Si atom -5576.743377 kJ/mol
# Density = 1.665648 g / cm^3
# Si number density = 16.694479 Si / 1000 Ang^3
#
#
#
# Elastic Constant Matrix: (Units=GPa)
#
#
# Indices 1 2 3 4 5 6 
#
# 1 69.2507 50.6085 64.1770 0.0000 0.0000 0.0000
# 2 50.6085 93.8185 79.3199 0.0000 0.0000 0.0000
# 3 64.1770 79.3199 163.1056 0.0000 0.0000 0.0000
# 4 0.0000 0.0000 0.0000 7.3124 0.0000 0.0000
# 5 0.0000 0.0000 0.0000 0.0000 6.6409 0.0000
# 6 0.0000 0.0000 0.0000 0.0000 0.0000 8.4472
#
#
#
# Elastic Compliance Matrix: (Units=1/GPa)
#
#
# Indices 1 2 3 4 5 6 
#
# 1 0.026891 -0.009442 -0.005989 0.000000 0.000000 0.000000
# 2 -0.009442 0.021417 -0.006700 0.000000 0.000000 0.000000
# 3 -0.005989 -0.006700 0.011746 0.000000 0.000000 0.000000
# 4 0.000000 0.000000 0.000000 0.136755 0.000000 0.000000
# 5 0.000000 0.000000 0.000000 0.000000 0.150583 0.000000
# 6 0.000000 0.000000 0.000000 0.000000 0.000000 0.118382
#
#
# Mechanical properties :
#
#
# Convention : Reuss Voigt Hill
#
# Bulk Modulus (GPa) = 63.32682 79.37618 71.35150
# Shear Modulus (GPa) = 9.70309 13.28471 11.49390
#
# Velocity S-wave (km/s) = 2.41346 2.82397 2.62675
# Velocity P-wave (km/s) = 6.76620 7.63431 7.21333
#
# Compressibility (1/GPa) = 0.01579110
#
# Stress axis : x y z
#
# Youngs Moduli (GPa) = 37.18739 46.69184 85.13785
#
# Poissons Ratio (x) = 0.44089 0.50987
# Poissons Ratio (y) = 0.35114 0.57042
# Poissons Ratio (z) = 0.22271 0.31284
#
# Static dielectric constant tensor:
#      x y z
#    x 1.561080 0.000000 0.000000 
#    y 0.000000 1.564920 0.000000 
#    z 0.000000 0.000000 1.560640 
# 
# From -- ./inp_files/9735.got.cif
#   From: 2010.05.17/outbox.cif.g08.bks.cpg/sg65_5_cif.got.tgz:9735.got - 2010.06.03 17:01:31.
