data_PCOD9487684
_publ_section_title
;
Structure prediction by ZEFSAII (Michael W. Deem and Ramdas Pophale) SiO2 
 PCOD9487684
Probable space group: C M M M
;
_chemical_formula_sum "Si O2"
_cell_formula_units_Z 58
_cell_length_a 7.512691
_cell_length_b 14.533002
_cell_length_c 23.493899
_cell_angle_alpha 90.000000
_cell_angle_beta 90.000000
_cell_angle_gamma 90.000000
_cell_volume 2565.109784
_symmetry_space_group_name_H-M "C M M M"
_symmetry_group_IT_number 65
_symmetry_cell_setting 'orthorhombic'
loop_
_space_group_symop_operation_xyz
x,y,z
-x,-y,z
x,-y,-z
-x,y,-z
-x,-y,-z
x,y,-z
-x,y,z
x,-y,z
1/2+x,1/2+y,z
1/2-x,1/2-y,z
1/2+x,1/2-y,-z
1/2-x,1/2+y,-z
1/2-x,1/2-y,-z
1/2+x,1/2+y,-z
1/2-x,1/2+y,z
1/2+x,1/2-y,z
loop_
_atom_site_type_symbol
_atom_site_label
_atom_site_fract_x
_atom_site_fract_y
_atom_site_fract_z
Si Si1 0.786177 0.859885 0.938683
Si Si2 0.000000 0.000000 0.500000
Si Si3 0.287638 0.641533 0.691981
Si Si4 0.305864 0.000000 0.596583
Si Si5 0.213370 0.859610 0.816159
O O1 0.750000 0.750000 0.938675
O O2 0.718751 0.894339 0.877374
O O3 0.000000 0.873613 0.938700
O O4 0.718842 0.894267 0.000000
O O5 0.845893 0.000000 0.450065
O O6 0.500000 0.627534 0.691309
O O7 0.250000 0.750000 0.687286
O O8 0.211367 0.586529 0.639198
O O9 0.220754 0.608901 0.754386
O O10 0.500000 0.000000 0.570017
O O11 0.250000 0.750000 0.816231
O O12 0.000000 0.873955 0.816278
#
# Coordination Sequence:
#
# PCOD9487684 Si02
#       5
#    16   2  16   8  16
#     4   8  12  18  29  51  88 135 185 235 290 349
#     4  12  26  52  72  98 136 162 200 248 296 366
#     4  10  19  36  61  92 128 164 209 260 308 364
#     4  12  25  45  73  98 130 168 203 246 305 359
#     4   8  14  23  40  67 102 144 189 244 299 346
#
# _framework density 22.611115999999999
#
# number of rings (size 3 to 8) (size 9 to 14) (size 15 to 20)
#    0.000    2.759    1.379    1.034    0.000    1.103 
#    0.000    0.690    0.000    0.000    0.000    0.966 
#    0.000    7.724    0.000    0.000    0.000    3.862 
#
# Total GULP energy -161515.196929 kJ/mol
# GULP energy per Si atom -5569.489549 kJ/mol
# Density = 2.255965 g / cm^3
# Si number density = 22.611116 Si / 1000 Ang^3
#
#
#
# Elastic Constant Matrix: (Units=GPa)
#
#
# Indices 1 2 3 4 5 6 
#
# 1 124.0948 1.6255 57.7106 0.0000 0.0000 0.0000
# 2 1.6255 97.9084 46.8784 0.0000 0.0000 0.0000
# 3 57.7106 46.8784 258.6992 0.0000 0.0000 0.0000
# 4 0.0000 0.0000 0.0000 -31.1545 0.0000 0.0000
# 5 0.0000 0.0000 0.0000 0.0000 4.8716 0.0000
# 6 0.0000 0.0000 0.0000 0.0000 0.0000 0.9686
#
#
#
# Elastic Compliance Matrix: (Units=1/GPa)
#
#
# Indices 1 2 3 4 5 6 
#
# 1 0.009062 0.000895 -0.002184 0.000000 0.000000 0.000000
# 2 0.000895 0.011272 -0.002242 0.000000 0.000000 0.000000
# 3 -0.002184 -0.002242 0.004759 0.000000 0.000000 0.000000
# 4 0.000000 0.000000 0.000000 -0.032098 0.000000 0.000000
# 5 0.000000 0.000000 0.000000 0.000000 0.205272 0.000000
# 6 0.000000 0.000000 0.000000 0.000000 0.000000 1.032451
#
#
# Mechanical properties :
#
#
# Convention : Reuss Voigt Hill
#
# Bulk Modulus (GPa) = 55.45815 77.01458 66.23636
# Shear Modulus (GPa) = 4.01997 19.90300 11.96149
#
# Velocity S-wave (km/s) = 1.33482 2.97009 2.30251
# Velocity P-wave (km/s) = 5.19190 6.77468 6.03540
#
# Compressibility (1/GPa) = 0.01803162
#
# Stress axis : x y z
#
# Youngs Moduli (GPa) = 110.34825 88.71229 210.12878
#
# Poissons Ratio (x) = -0.07941 0.45888
# Poissons Ratio (y) = -0.09878 0.47118
# Poissons Ratio (z) = 0.24098 0.19892
#
# Static dielectric constant tensor:
#      x y z
#    x 1.828160 0.000000 0.000000 
#    y 0.000000 1.855380 0.000000 
#    z 0.000000 0.000000 1.850750 
# 
# From -- ./inp_files/66695.got.cif
#   From: 2010.05.17/outbox.cif.g08.bks.cpg/sg65_34_cif.got.tgz:66695.got - 2010.06.03 17:01:31.
