data_PCOD9487507
_publ_section_title
;
Structure prediction by ZEFSAII (Michael W. Deem and Ramdas Pophale) SiO2 
 PCOD9487507
Probable space group: C M M M
;
_chemical_formula_sum "Si O2"
_cell_formula_units_Z 120
_cell_length_a 27.443759
_cell_length_b 16.792775
_cell_length_c 14.188336
_cell_angle_alpha 90.000000
_cell_angle_beta 90.000000
_cell_angle_gamma 90.000000
_cell_volume 6538.792120
_symmetry_space_group_name_H-M "C M M M"
_symmetry_group_IT_number 65
_symmetry_cell_setting 'orthorhombic'
loop_
_space_group_symop_operation_xyz
x,y,z
-x,-y,z
x,-y,-z
-x,y,-z
-x,-y,-z
x,y,-z
-x,y,z
x,-y,z
1/2+x,1/2+y,z
1/2-x,1/2-y,z
1/2+x,1/2-y,-z
1/2-x,1/2+y,-z
1/2-x,1/2-y,-z
1/2+x,1/2+y,-z
1/2-x,1/2+y,z
1/2+x,1/2-y,z
loop_
_atom_site_type_symbol
_atom_site_label
_atom_site_fract_x
_atom_site_fract_y
_atom_site_fract_z
Si Si1 0.804209 0.161582 0.389442
Si Si2 0.057577 0.000000 0.884946
Si Si3 0.054519 0.253961 0.612810
Si Si4 0.405397 0.584188 0.387632
Si Si5 0.781793 0.590220 0.724110
Si Si6 0.362930 0.787724 0.734216
Si Si7 0.614200 0.336032 0.108388
Si Si8 0.230892 0.840136 0.105678
O O1 0.804139 0.184523 0.500000
O O2 0.847229 0.095973 0.377506
O O3 0.751715 0.132315 0.355544
O O4 0.824817 0.229811 0.320846
O O5 0.086300 0.082790 0.859424
O O6 0.000000 0.000000 0.856783
O O7 0.058384 0.000000 0.000000
O O8 0.059120 0.256007 0.500000
O O9 0.067657 0.163611 0.644535
O O10 0.094620 0.307452 0.661129
O O11 0.000000 0.273829 0.639415
O O12 0.414634 0.581634 0.500000
O O13 0.421371 0.500000 0.346088
O O14 0.790414 0.500000 0.696520
O O15 0.830931 0.635478 0.752752
O O16 0.749693 0.598935 0.817812
O O17 0.387524 0.739237 0.820409
O O18 0.672654 0.347604 0.105276
O O19 0.598485 0.318755 0.000000
O O20 0.250000 0.750000 0.130079
O O21 0.249093 0.855356 0.000000
#
# Coordination Sequence:
#
# PCOD9487507 Si02
#       8
#    16   8  16  16  16  16  16  16
#     4  10  20  35  53  73 104 149 192 228 277 341
#     4   9  20  38  58  86 121 153 189 233 281 338
#     4   9  19  35  54  75 100 136 182 231 281 334
#     4   8  14  26  45  70 101 134 166 207 259 316
#     4  12  24  35  52  80 112 146 187 236 288 339
#     4  11  21  37  56  79 108 144 188 232 282 345
#     4  10  20  35  58  81 112 155 193 230 277 332
#     4  10  19  35  56  81 112 149 192 230 272 333
#
# _framework density 18.352014
#
# number of rings (size 3 to 8) (size 9 to 14) (size 15 to 20)
#    0.000    2.067    2.667    2.000    0.933    3.467 
#    4.800    1.333    0.000    0.400    0.000    0.933 
#    0.000    0.000    0.000    5.733    0.000    0.000 
#
# Total GULP energy -334361.764575 kJ/mol
# GULP energy per Si atom -5572.696076 kJ/mol
# Density = 1.831024 g / cm^3
# Si number density = 18.352014 Si / 1000 Ang^3
#
#
#
# Elastic Constant Matrix: (Units=GPa)
#
#
# Indices 1 2 3 4 5 6 
#
# 1 80.0484 24.7765 13.9396 0.0000 0.0000 0.0000
# 2 24.7765 29.7960 14.7974 0.0000 0.0000 0.0000
# 3 13.9396 14.7974 56.4901 0.0000 0.0000 0.0000
# 4 0.0000 0.0000 0.0000 13.1108 0.0000 0.0000
# 5 0.0000 0.0000 0.0000 0.0000 14.7101 0.0000
# 6 0.0000 0.0000 0.0000 0.0000 0.0000 8.0464
#
#
#
# Elastic Compliance Matrix: (Units=1/GPa)
#
#
# Indices 1 2 3 4 5 6 
#
# 1 0.016837 -0.013723 -0.000560 0.000000 0.000000 0.000000
# 2 -0.013723 0.049765 -0.009649 0.000000 0.000000 0.000000
# 3 -0.000560 -0.009649 0.020368 0.000000 0.000000 0.000000
# 4 0.000000 0.000000 0.000000 0.076273 0.000000 0.000000
# 5 0.000000 0.000000 0.000000 0.000000 0.067981 0.000000
# 6 0.000000 0.000000 0.000000 0.000000 0.000000 0.124279
#
#
# Mechanical properties :
#
#
# Convention : Reuss Voigt Hill
#
# Bulk Modulus (GPa) = 25.57190 30.37348 27.97269
# Shear Modulus (GPa) = 12.00758 14.69485 13.35121
#
# Velocity S-wave (km/s) = 2.56069 2.83277 2.70016
# Velocity P-wave (km/s) = 4.76521 5.22359 4.99965
#
# Compressibility (1/GPa) = 0.03910543
#
# Stress axis : x y z
#
# Youngs Moduli (GPa) = 59.39141 20.09453 49.09641
#
# Poissons Ratio (x) = 0.27575 0.02750
# Poissons Ratio (y) = 0.81502 0.47375
# Poissons Ratio (z) = 0.03327 0.19390
#
# Static dielectric constant tensor:
#      x y z
#    x 1.642730 0.000000 0.000000 
#    y 0.000000 1.648060 0.000000 
#    z 0.000000 0.000000 1.686060 
# 
# From -- ./inp_files/48075.got.cif
#   From: 2010.05.17/outbox.cif.g08.bks.cpg/sg65_25_cif.got.tgz:48075.got - 2010.06.03 17:01:31.
