data_PCOD9487179
_publ_section_title
;
Structure prediction by ZEFSAII (Michael W. Deem and Ramdas Pophale) SiO2 
 PCOD9487179
Probable space group: C M M M
;
_chemical_formula_sum "Si O2"
_cell_formula_units_Z 88
_cell_length_a 17.346031
_cell_length_b 29.918163
_cell_length_c 7.260963
_cell_angle_alpha 90.000000
_cell_angle_beta 90.000000
_cell_angle_gamma 90.000000
_cell_volume 3768.159399
_symmetry_space_group_name_H-M "C M M M"
_symmetry_group_IT_number 65
_symmetry_cell_setting 'orthorhombic'
loop_
_space_group_symop_operation_xyz
x,y,z
-x,-y,z
x,-y,-z
-x,y,-z
-x,-y,-z
x,y,-z
-x,y,z
x,-y,z
1/2+x,1/2+y,z
1/2-x,1/2-y,z
1/2+x,1/2-y,-z
1/2-x,1/2+y,-z
1/2-x,1/2-y,-z
1/2+x,1/2+y,-z
1/2-x,1/2+y,z
1/2+x,1/2-y,z
loop_
_atom_site_type_symbol
_atom_site_label
_atom_site_fract_x
_atom_site_fract_y
_atom_site_fract_z
Si Si1 0.249229 0.547151 0.776978
Si Si2 0.747802 0.197770 0.275749
Si Si3 0.500000 0.946215 0.724423
Si Si4 0.364573 0.122025 0.705157
Si Si5 0.918582 0.062296 0.782016
Si Si6 0.083758 0.167841 0.719044
O O1 0.210358 0.500000 0.727483
O O2 0.209395 0.590095 0.697176
O O3 0.337140 0.545896 0.713605
O O4 0.247693 0.550959 0.000000
O O5 0.745255 0.193951 0.500000
O O6 0.750000 0.250000 0.229499
O O7 0.674053 0.167504 0.213204
O O8 0.832187 0.181728 0.211245
O O9 0.500000 0.948374 0.500000
O O10 0.572276 0.913835 0.782044
O O11 0.500000 0.000000 0.782075
O O12 0.393389 0.133673 0.500000
O O13 0.918348 0.115215 0.754170
O O14 0.000000 0.046463 0.706199
O O15 0.918795 0.052675 0.000000
O O16 0.084586 0.176555 0.500000
O O17 0.000000 0.185908 0.786801
#
# Coordination Sequence:
#
# PCOD9487179 Si02
#       6
#    16  16   8  16  16  16
#     4  10  20  32  48  72 100 129 163 203 246 294
#     4   9  17  30  48  73 102 128 160 204 251 300
#     4   9  18  32  51  77 103 127 165 215 258 303
#     4  10  19  34  54  73  97 131 166 205 253 302
#     4   9  17  29  46  67  94 128 161 195 235 280
#     4   9  16  28  47  70  95 125 160 199 243 288
#
# _framework density 23.353576
#
# number of rings (size 3 to 8) (size 9 to 14) (size 15 to 20)
#    0.000    2.636    1.818    0.545    0.000    1.455 
#    1.636    2.273    0.000    3.818    0.000    3.818 
#    0.000    0.000    0.000    0.000    0.000    0.000 
#
# Total GULP energy -244954.528270 kJ/mol
# GULP energy per Si atom -5567.148370 kJ/mol
# Density = 2.330042 g / cm^3
# Si number density = 23.353576 Si / 1000 Ang^3
#
#
#
# Elastic Constant Matrix: (Units=GPa)
#
#
# Indices 1 2 3 4 5 6 
#
# 1 150.8518 72.1000 -0.7353 0.0000 0.0000 0.0000
# 2 72.1000 155.8619 -7.0548 0.0000 0.0000 0.0000
# 3 -0.7353 -7.0548 103.4826 0.0000 0.0000 0.0000
# 4 0.0000 0.0000 0.0000 16.3046 0.0000 0.0000
# 5 0.0000 0.0000 0.0000 0.0000 -4.9356 0.0000
# 6 0.0000 0.0000 0.0000 0.0000 0.0000 -33.1701
#
#
#
# Elastic Compliance Matrix: (Units=1/GPa)
#
#
# Indices 1 2 3 4 5 6 
#
# 1 0.008515 -0.003948 -0.000209 0.000000 0.000000 0.000000
# 2 -0.003948 0.008267 0.000536 0.000000 0.000000 0.000000
# 3 -0.000209 0.000536 0.009698 0.000000 0.000000 0.000000
# 4 0.000000 0.000000 0.000000 0.061332 0.000000 0.000000
# 5 0.000000 0.000000 0.000000 0.000000 -0.202610 0.000000
# 6 0.000000 0.000000 0.000000 0.000000 0.000000 -0.030148
#
#
# Mechanical properties :
#
#
# Convention : Reuss Voigt Hill
#
# Bulk Modulus (GPa) = 51.98289 59.86846 55.92567
# Shear Modulus (GPa) = -38.08394 18.69888 -9.69253
#
# Velocity S-wave (km/s) = -4.04264 2.83271 -2.03945
# Velocity P-wave (km/s) = 0.71889 6.03244 4.29576
#
# Compressibility (1/GPa) = 0.01923710
#
# Stress axis : x y z
#
# Youngs Moduli (GPa) = 117.43715 120.96727 103.10887
#
# Poissons Ratio (x) = 0.47764 0.02152
# Poissons Ratio (y) = 0.46370 -0.05522
# Poissons Ratio (z) = 0.02451 -0.06478
#
# Static dielectric constant tensor:
#      x y z
#    x 1.931890 0.000000 0.000000 
#    y 0.000000 1.841050 0.000000 
#    z 0.000000 0.000000 1.913480 
# 
# From -- ./inp_files/10081.got.cif
#   From: 2010.05.17/outbox.cif.g08.bks.cpg/sg65_6_cif.got.tgz:10081.got - 2010.06.03 17:01:31.
