data_PCOD9487948
_publ_section_title
;
Structure prediction by ZEFSAII (Michael W. Deem and Ramdas Pophale) SiO2 
 PCOD9487948
Probable space group: C M M M
;
_chemical_formula_sum "Si O2"
_cell_formula_units_Z 88
_cell_length_a 29.615580
_cell_length_b 18.913649
_cell_length_c 9.122925
_cell_angle_alpha 90.000000
_cell_angle_beta 90.000000
_cell_angle_gamma 90.000000
_cell_volume 5110.103213
_symmetry_space_group_name_H-M "C M M M"
_symmetry_group_IT_number 65
_symmetry_cell_setting 'orthorhombic'
loop_
_space_group_symop_operation_xyz
x,y,z
-x,-y,z
x,-y,-z
-x,y,-z
-x,-y,-z
x,y,-z
-x,y,z
x,-y,z
1/2+x,1/2+y,z
1/2-x,1/2-y,z
1/2+x,1/2-y,-z
1/2-x,1/2+y,-z
1/2-x,1/2-y,-z
1/2+x,1/2+y,-z
1/2-x,1/2+y,z
1/2+x,1/2-y,z
loop_
_atom_site_type_symbol
_atom_site_label
_atom_site_fract_x
_atom_site_fract_y
_atom_site_fract_z
Si Si1 0.737046 0.000000 0.167941
Si Si2 0.263795 0.856545 0.328791
Si Si3 0.906516 0.418319 0.176265
Si Si4 0.657683 0.212982 0.824925
Si Si5 0.654722 0.355075 0.328557
Si Si6 0.500000 0.914749 0.333916
Si Si7 0.846810 0.000000 0.831947
O O1 0.723143 0.068927 0.256151
O O2 0.791787 0.000000 0.163085
O O3 0.720103 0.000000 0.000000
O O4 0.275744 0.851822 0.500000
O O5 0.292438 0.799901 0.239475
O O6 0.209632 0.852882 0.318671
O O7 0.895012 0.500000 0.219945
O O8 0.870803 0.357271 0.214028
O O9 0.954218 0.397462 0.248231
O O10 0.910921 0.418776 0.000000
O O11 0.638572 0.284468 0.753200
O O12 0.659252 0.219984 0.000000
O O13 0.642931 0.354785 0.500000
O O14 0.640099 0.428150 0.251846
O O15 0.500000 0.886926 0.500000
O O16 0.500000 0.000000 0.341757
O O17 0.862561 0.000000 0.000000
#
# Coordination Sequence:
#
# PCOD9487948 Si02
#       7
#     8  16  16  16  16   8   8
#     4   9  17  29  45  63  83 112 155 202 241 285
#     4  10  20  32  45  63  89 126 164 203 251 297
#     4   9  19  35  52  71  98 132 164 199 244 292
#     4  11  22  32  47  70  96 126 164 206 245 289
#     4  10  20  34  49  66  93 127 163 204 253 300
#     4   9  17  31  53  77  97 122 159 198 237 291
#     4   9  17  31  51  69  85 112 157 204 241 287
#
# _framework density 17.220787000000001
#
# number of rings (size 3 to 8) (size 9 to 14) (size 15 to 20)
#    0.000    2.273    0.000    3.000    1.273    9.091 
#    0.000    0.000    0.000    0.000    0.000    0.000 
#    0.000    0.727    0.000    7.636    0.000    3.636 
#
# Total GULP energy -245415.663557 kJ/mol
# GULP energy per Si atom -5577.628717 kJ/mol
# Density = 1.718159 g / cm^3
# Si number density = 17.220787 Si / 1000 Ang^3
#
#
#
# Elastic Constant Matrix: (Units=GPa)
#
#
# Indices 1 2 3 4 5 6 
#
# 1 40.3441 19.2876 24.7858 0.0000 0.0000 0.0000
# 2 19.2876 131.7873 62.1723 0.0000 0.0000 0.0000
# 3 24.7858 62.1723 92.5437 0.0000 0.0000 0.0000
# 4 0.0000 0.0000 0.0000 22.6262 0.0000 0.0000
# 5 0.0000 0.0000 0.0000 0.0000 11.1865 0.0000
# 6 0.0000 0.0000 0.0000 0.0000 0.0000 20.3218
#
#
#
# Elastic Compliance Matrix: (Units=1/GPa)
#
#
# Indices 1 2 3 4 5 6 
#
# 1 0.029737 -0.000871 -0.007379 0.000000 0.000000 0.000000
# 2 -0.000871 0.011134 -0.007247 0.000000 0.000000 0.000000
# 3 -0.007379 -0.007247 0.017651 0.000000 0.000000 0.000000
# 4 0.000000 0.000000 0.000000 0.044197 0.000000 0.000000
# 5 0.000000 0.000000 0.000000 0.000000 0.089393 0.000000
# 6 0.000000 0.000000 0.000000 0.000000 0.000000 0.049208
#
#
# Mechanical properties :
#
#
# Convention : Reuss Voigt Hill
#
# Bulk Modulus (GPa) = 36.32727 53.01850 44.67289
# Shear Modulus (GPa) = 17.76266 21.38887 19.57577
#
# Velocity S-wave (km/s) = 3.21513 3.52808 3.37523
# Velocity P-wave (km/s) = 5.90961 6.88845 6.41772
#
# Compressibility (1/GPa) = 0.02752753
#
# Stress axis : x y z
#
# Youngs Moduli (GPa) = 33.62856 89.81285 56.65505
#
# Poissons Ratio (x) = 0.07821 0.41807
# Poissons Ratio (y) = 0.02928 0.41058
# Poissons Ratio (z) = 0.24815 0.65087
#
# Static dielectric constant tensor:
#      x y z
#    x 1.569220 0.000000 0.000000 
#    y 0.000000 1.521020 0.000000 
#    z 0.000000 0.000000 1.576510 
# 
# From -- ./inp_files/18354.got.cif
#   From: 2010.05.17/outbox.cif.g08.bks.cpg/sg65_10_cif.got.tgz:18354.got - 2010.06.03 17:01:31.
