data_PCOD9487896
_publ_section_title
;
Structure prediction by ZEFSAII (Michael W. Deem and Ramdas Pophale) SiO2 
 PCOD9487896
Probable space group: C M M M
;
_chemical_formula_sum "Si O2"
_cell_formula_units_Z 72
_cell_length_a 20.468747
_cell_length_b 29.508904
_cell_length_c 7.373344
_cell_angle_alpha 90.000000
_cell_angle_beta 90.000000
_cell_angle_gamma 90.000000
_cell_volume 4453.575649
_symmetry_space_group_name_H-M "C M M M"
_symmetry_group_IT_number 65
_symmetry_cell_setting 'orthorhombic'
loop_
_space_group_symop_operation_xyz
x,y,z
-x,-y,z
x,-y,-z
-x,y,-z
-x,-y,-z
x,y,-z
-x,y,z
x,-y,z
1/2+x,1/2+y,z
1/2-x,1/2-y,z
1/2+x,1/2-y,-z
1/2-x,1/2+y,-z
1/2-x,1/2-y,-z
1/2+x,1/2+y,-z
1/2-x,1/2+y,z
1/2+x,1/2-y,z
loop_
_atom_site_type_symbol
_atom_site_label
_atom_site_fract_x
_atom_site_fract_y
_atom_site_fract_z
Si Si1 0.929033 0.808519 0.214373
Si Si2 0.205675 0.858619 0.216187
Si Si3 0.855787 0.948370 0.778266
Si Si4 0.000000 0.055203 0.206521
Si Si5 0.427757 0.228849 0.500000
Si Si6 0.782395 0.300684 0.500000
O O1 0.866101 0.838121 0.255867
O O2 0.925180 0.762506 0.327645
O O3 0.000000 0.829959 0.256911
O O4 0.927505 0.799495 0.000000
O O5 0.197899 0.911167 0.270835
O O6 0.256057 0.828580 0.327455
O O7 0.217090 0.855727 0.000000
O O8 0.928816 0.934474 0.714316
O O9 0.842519 0.000000 0.722731
O O10 0.859630 0.948083 0.000000
O O11 0.000000 0.000000 0.195973
O O12 0.000000 0.073650 0.000000
O O13 0.500000 0.206512 0.500000
O O14 0.360698 0.201515 0.500000
O O15 0.750000 0.250000 0.500000
#
# Coordination Sequence:
#
# PCOD9487896 Si02
#       6
#    16  16  16   8   8   8
#     4   9  17  28  44  68  94 123 162 196 226 270
#     4  10  20  31  48  71  95 129 162 196 237 274
#     4   8  14  25  41  64  94 126 161 197 231 269
#     4   7  10  18  36  61  89 125 164 197 227 258
#     4  10  20  36  52  64  88 123 154 193 242 281
#     4  12  22  36  49  70  96 122 156 200 239 285
#
# _framework density 16.166784
#
# number of rings (size 3 to 8) (size 9 to 14) (size 15 to 20)
#    0.000    2.778    2.222    1.333    1.556    1.333 
#    0.000    0.556    0.000    0.000    0.000    2.333 
#    0.000    1.778    0.000    5.556    0.000    0.000 
#
# Total GULP energy -200632.231222 kJ/mol
# GULP energy per Si atom -5573.117534 kJ/mol
# Density = 1.612999 g / cm^3
# Si number density = 16.166784 Si / 1000 Ang^3
#
#
#
# Elastic Constant Matrix: (Units=GPa)
#
#
# Indices 1 2 3 4 5 6 
#
# 1 110.0457 58.5582 32.0192 0.0000 0.0000 0.0000
# 2 58.5582 89.5419 26.5977 0.0000 0.0000 0.0000
# 3 32.0192 26.5977 50.9165 0.0000 0.0000 0.0000
# 4 0.0000 0.0000 0.0000 15.2229 0.0000 0.0000
# 5 0.0000 0.0000 0.0000 0.0000 -10.7833 0.0000
# 6 0.0000 0.0000 0.0000 0.0000 0.0000 29.2226
#
#
#
# Elastic Compliance Matrix: (Units=1/GPa)
#
#
# Indices 1 2 3 4 5 6 
#
# 1 0.014975 -0.008281 -0.005091 0.000000 0.000000 0.000000
# 2 -0.008281 0.017798 -0.004090 0.000000 0.000000 0.000000
# 3 -0.005091 -0.004090 0.024978 0.000000 0.000000 0.000000
# 4 0.000000 0.000000 0.000000 0.065691 0.000000 0.000000
# 5 0.000000 0.000000 0.000000 0.000000 -0.092736 0.000000
# 6 0.000000 0.000000 0.000000 0.000000 0.000000 0.034220
#
#
# Mechanical properties :
#
#
# Convention : Reuss Voigt Hill
#
# Bulk Modulus (GPa) = 43.80754 53.87270 48.84012
# Shear Modulus (GPa) = 46.52914 15.62105 31.07509
#
# Velocity S-wave (km/s) = 5.37058 3.11182 4.38900
# Velocity P-wave (km/s) = 8.10023 6.80490 7.48065
#
# Compressibility (1/GPa) = 0.02282712
#
# Stress axis : x y z
#
# Youngs Moduli (GPa) = 66.77769 56.18483 40.03481
#
# Poissons Ratio (x) = 0.46527 0.20383
# Poissons Ratio (y) = 0.55298 0.16374
# Poissons Ratio (z) = 0.33999 0.22979
#
# Static dielectric constant tensor:
#      x y z
#    x 1.538840 0.000000 0.000000 
#    y 0.000000 1.563320 0.000000 
#    z 0.000000 0.000000 1.606750 
# 
# From -- ./inp_files/12031.got.cif
#   From: 2010.05.17/outbox.cif.g08.bks.cpg/sg65_7_cif.got.tgz:12031.got - 2010.06.03 17:01:31.
