data_PCOD9487358
_publ_section_title
;
Structure prediction by ZEFSAII (Michael W. Deem and Ramdas Pophale) SiO2 
 PCOD9487358
Probable space group: C M M M
;
_chemical_formula_sum "Si O2"
_cell_formula_units_Z 88
_cell_length_a 19.458990
_cell_length_b 8.395652
_cell_length_c 29.439341
_cell_angle_alpha 90.000000
_cell_angle_beta 90.000000
_cell_angle_gamma 90.000000
_cell_volume 4809.531879
_symmetry_space_group_name_H-M "C M M M"
_symmetry_group_IT_number 65
_symmetry_cell_setting 'orthorhombic'
loop_
_space_group_symop_operation_xyz
x,y,z
-x,-y,z
x,-y,-z
-x,y,-z
-x,-y,-z
x,y,-z
-x,y,z
x,-y,z
1/2+x,1/2+y,z
1/2-x,1/2-y,z
1/2+x,1/2-y,-z
1/2-x,1/2+y,-z
1/2-x,1/2-y,-z
1/2+x,1/2+y,-z
1/2-x,1/2+y,z
1/2+x,1/2-y,z
loop_
_atom_site_type_symbol
_atom_site_label
_atom_site_fract_x
_atom_site_fract_y
_atom_site_fract_z
Si Si1 0.579645 0.194221 0.949695
Si Si2 0.671172 0.191346 0.599586
Si Si3 0.672461 0.808975 0.235899
Si Si4 0.578883 0.690592 0.317461
Si Si5 0.671462 0.808117 0.500000
Si Si6 0.327050 0.192507 0.867007
O O1 0.500000 0.240493 0.945129
O O2 0.623785 0.250931 0.907135
O O3 0.581381 0.000000 0.949252
O O4 0.604196 0.244379 0.000000
O O5 0.750000 0.250000 0.605312
O O6 0.622372 0.252047 0.639248
O O7 0.644495 0.243979 0.549375
O O8 0.672683 0.000000 0.600814
O O9 0.750000 0.750000 0.245796
O O10 0.618970 0.746828 0.272651
O O11 0.654416 0.756832 0.184366
O O12 0.673089 0.000000 0.237311
O O13 0.500000 0.748970 0.318514
O O14 0.577852 0.500000 0.317739
O O15 0.750000 0.750000 0.500000
O O16 0.669647 0.000000 0.500000
O O17 0.250000 0.250000 0.875623
O O18 0.328245 0.000000 0.867317
#
# Coordination Sequence:
#
# PCOD9487358 Si02
#       6
#    16  16  16  16   8  16
#     4   8  14  26  45  69  97 129 165 203 241 284
#     4  10  19  34  57  82 108 137 171 209 250 297
#     4  10  20  35  55  76 100 131 168 210 255 304
#     4  11  24  39  53  73 103 136 171 211 255 303
#     4   8  16  30  51  80 107 133 167 207 247 290
#     4   9  18  31  49  74 100 126 159 201 247 295
#
# _framework density 18.296997999999999
#
# number of rings (size 3 to 8) (size 9 to 14) (size 15 to 20)
#    0.000    2.545    0.000    2.727    0.000    4.000 
#    0.000    2.273    0.000    3.273    0.000    1.273 
#    0.000    0.000    0.000    0.000    0.000    0.000 
#
# Total GULP energy -245316.708428 kJ/mol
# GULP energy per Si atom -5575.379737 kJ/mol
# Density = 1.825535 g / cm^3
# Si number density = 18.296998 Si / 1000 Ang^3
#
#
#
# Elastic Constant Matrix: (Units=GPa)
#
#
# Indices 1 2 3 4 5 6 
#
# 1 113.3567 22.7660 123.0599 0.0000 0.0000 0.0000
# 2 22.7660 26.3359 28.8216 0.0000 0.0000 0.0000
# 3 123.0599 28.8216 204.9697 0.0000 0.0000 0.0000
# 4 0.0000 0.0000 0.0000 -0.4135 0.0000 0.0000
# 5 0.0000 0.0000 0.0000 0.0000 -21.3310 0.0000
# 6 0.0000 0.0000 0.0000 0.0000 0.0000 21.1792
#
#
#
# Elastic Compliance Matrix: (Units=1/GPa)
#
#
# Indices 1 2 3 4 5 6 
#
# 1 0.026223 -0.006428 -0.014840 0.000000 0.000000 0.000000
# 2 -0.006428 0.046453 -0.002673 0.000000 0.000000 0.000000
# 3 -0.014840 -0.002673 0.014164 0.000000 0.000000 0.000000
# 4 0.000000 0.000000 0.000000 -2.418147 0.000000 0.000000
# 5 0.000000 0.000000 0.000000 0.000000 -0.046880 0.000000
# 6 0.000000 0.000000 0.000000 0.000000 0.000000 0.047216
#
#
# Mechanical properties :
#
#
# Convention : Reuss Voigt Hill
#
# Bulk Modulus (GPa) = 25.66816 77.10635 51.38726
# Shear Modulus (GPa) = -2.20254 11.22125 4.50936
#
# Velocity S-wave (km/s) = -1.09836 2.47914 1.57159
# Velocity P-wave (km/s) = 3.52854 7.10126 5.60707
#
# Compressibility (1/GPa) = 0.03895877
#
# Stress axis : x y z
#
# Youngs Moduli (GPa) = 38.13508 21.52736 70.60116
#
# Poissons Ratio (x) = 0.13837 1.04770
# Poissons Ratio (y) = 0.24512 0.18870
# Poissons Ratio (z) = 0.56591 0.05754
#
# Static dielectric constant tensor:
#      x y z
#    x 1.590360 0.000000 0.000000 
#    y 0.000000 1.629550 0.000000 
#    z 0.000000 0.000000 1.662960 
# 
# From -- ./inp_files/77943.got.cif
#   From: 2010.05.17/outbox.cif.g08.bks.cpg/sg65_39_cif.got.tgz:77943.got - 2010.06.03 17:01:31.
