data_PCOD9487673
_publ_section_title
;
Structure prediction by ZEFSAII (Michael W. Deem and Ramdas Pophale) SiO2 
 PCOD9487673
Probable space group: C M M M
;
_chemical_formula_sum "Si O2"
_cell_formula_units_Z 66
_cell_length_a 15.006763
_cell_length_b 7.623379
_cell_length_c 29.213719
_cell_angle_alpha 90.000000
_cell_angle_beta 90.000000
_cell_angle_gamma 90.000000
_cell_volume 3342.114948
_symmetry_space_group_name_H-M "C M M M"
_symmetry_group_IT_number 65
_symmetry_cell_setting 'orthorhombic'
loop_
_space_group_symop_operation_xyz
x,y,z
-x,-y,z
x,-y,-z
-x,y,-z
-x,-y,-z
x,y,-z
-x,y,z
x,-y,z
1/2+x,1/2+y,z
1/2-x,1/2-y,z
1/2+x,1/2-y,-z
1/2-x,1/2+y,-z
1/2-x,1/2-y,-z
1/2+x,1/2+y,-z
1/2-x,1/2+y,z
1/2+x,1/2-y,z
loop_
_atom_site_type_symbol
_atom_site_label
_atom_site_fract_x
_atom_site_fract_y
_atom_site_fract_z
Si Si1 0.353309 0.789926 0.747975
Si Si2 0.854780 0.710025 0.500000
Si Si3 0.000000 0.284857 0.677247
Si Si4 0.645775 0.790223 0.149660
Si Si5 0.500000 0.000000 0.000000
Si Si6 0.000000 0.285350 0.427378
Si Si7 0.500000 0.306680 0.076866
O O1 0.250000 0.750000 0.740276
O O2 0.415100 0.726610 0.706977
O O3 0.377928 0.725593 0.799008
O O4 0.363585 0.000000 0.749705
O O5 0.861174 0.500000 0.500000
O O6 0.750000 0.750000 0.500000
O O7 0.912260 0.770543 0.455926
O O8 0.000000 0.500000 0.675960
O O9 0.000000 0.225433 0.624919
O O10 0.750000 0.750000 0.142767
O O11 0.584958 0.711831 0.110351
O O12 0.633042 0.000000 0.148681
O O13 0.500000 0.153534 0.960028
O O14 0.000000 0.500000 0.426932
O O15 0.500000 0.500000 0.056044
#
# Coordination Sequence:
#
# PCOD9487673 Si02
#       7
#    16   8   8  16   2   8   8
#     4   9  18  31  51  78 109 141 177 220 266 321
#     4   9  17  31  50  70  90 125 177 233 280 324
#     4   9  16  29  48  71 103 144 180 210 271 334
#     4  10  19  36  60  88 118 150 192 237 279 338
#     4  12  26  48  64  90 128 154 194 252 296 348
#     4   8  16  30  47  67  96 134 178 220 266 343
#     4  12  24  42  68  90 120 158 195 240 298 351
#
# _framework density 19.747973000000002
#
# number of rings (size 3 to 8) (size 9 to 14) (size 15 to 20)
#    0.000    2.424    1.212    2.364    0.000    3.879 
#    0.000    2.424    0.000    1.455    0.000    0.000 
#    0.000    0.000    0.000    0.000    0.000    0.000 
#
# Total GULP energy -183924.097379 kJ/mol
# GULP energy per Si atom -5573.457496 kJ/mol
# Density = 1.970303 g / cm^3
# Si number density = 19.747973 Si / 1000 Ang^3
#
#
#
# Elastic Constant Matrix: (Units=GPa)
#
#
# Indices 1 2 3 4 5 6 
#
# 1 123.4895 14.2276 103.7209 0.0000 0.0000 0.0000
# 2 14.2276 85.1542 40.8946 0.0000 0.0000 0.0000
# 3 103.7209 40.8946 207.6363 0.0000 0.0000 0.0000
# 4 0.0000 0.0000 0.0000 5.5770 0.0000 0.0000
# 5 0.0000 0.0000 0.0000 0.0000 -34.3634 0.0000
# 6 0.0000 0.0000 0.0000 0.0000 0.0000 20.9311
#
#
#
# Elastic Compliance Matrix: (Units=1/GPa)
#
#
# Indices 1 2 3 4 5 6 
#
# 1 0.014049 0.001130 -0.007240 0.000000 0.000000 0.000000
# 2 0.001130 0.013061 -0.003137 0.000000 0.000000 0.000000
# 3 -0.007240 -0.003137 0.009051 0.000000 0.000000 0.000000
# 4 0.000000 0.000000 0.000000 0.179309 0.000000 0.000000
# 5 0.000000 0.000000 0.000000 0.000000 -0.029101 0.000000
# 6 0.000000 0.000000 0.000000 0.000000 0.000000 0.047776
#
#
# Mechanical properties :
#
#
# Convention : Reuss Voigt Hill
#
# Bulk Modulus (GPa) = 56.60585 81.55179 69.07882
# Shear Modulus (GPa) = 19.34025 15.59140 17.46583
#
# Velocity S-wave (km/s) = 3.13286 2.81289 2.97717
# Velocity P-wave (km/s) = 6.46628 7.20664 6.84648
#
# Compressibility (1/GPa) = 0.01766602
#
# Stress axis : x y z
#
# Youngs Moduli (GPa) = 71.17900 76.56353 110.48779
#
# Poissons Ratio (x) = -0.08651 0.79999
# Poissons Ratio (y) = -0.08042 0.34658
# Poissons Ratio (z) = 0.51537 0.24017
#
# Static dielectric constant tensor:
#      x y z
#    x 1.674800 0.000000 0.000000 
#    y 0.000000 1.724440 0.000000 
#    z 0.000000 0.000000 1.672020 
# 
# From -- ./inp_files/72458.got.cif
#   From: 2010.05.17/outbox.cif.g08.bks.cpg/sg65_37_cif.got.tgz:72458.got - 2010.06.03 17:01:31.
