data_PCOD9487588
_publ_section_title
;
Structure prediction by ZEFSAII (Michael W. Deem and Ramdas Pophale) SiO2 
 PCOD9487588
Probable space group: C M M M
;
_chemical_formula_sum "Si O2"
_cell_formula_units_Z 96
_cell_length_a 22.254092
_cell_length_b 16.799434
_cell_length_c 13.939953
_cell_angle_alpha 90.000000
_cell_angle_beta 90.000000
_cell_angle_gamma 90.000000
_cell_volume 5211.537157
_symmetry_space_group_name_H-M "C M M M"
_symmetry_group_IT_number 65
_symmetry_cell_setting 'orthorhombic'
loop_
_space_group_symop_operation_xyz
x,y,z
-x,-y,z
x,-y,-z
-x,y,-z
-x,-y,-z
x,y,-z
-x,y,z
x,-y,z
1/2+x,1/2+y,z
1/2-x,1/2-y,z
1/2+x,1/2-y,-z
1/2-x,1/2+y,-z
1/2-x,1/2-y,-z
1/2+x,1/2+y,-z
1/2-x,1/2+y,z
1/2+x,1/2-y,z
loop_
_atom_site_type_symbol
_atom_site_label
_atom_site_fract_x
_atom_site_fract_y
_atom_site_fract_z
Si Si1 0.614907 0.675306 0.793673
Si Si2 0.854068 0.644005 0.795212
Si Si3 0.500000 0.407232 0.114834
Si Si4 0.230874 0.906767 0.886032
Si Si5 0.927803 0.500000 0.885477
Si Si6 0.777869 0.337475 0.388324
Si Si7 0.351045 0.590929 0.388474
O O1 0.617718 0.769283 0.808203
O O2 0.558556 0.635654 0.844542
O O3 0.675296 0.636133 0.836149
O O4 0.616148 0.651495 0.681847
O O5 0.792744 0.634398 0.855734
O O6 0.898577 0.576148 0.832965
O O7 0.829994 0.639413 0.685412
O O8 0.500000 0.500000 0.143025
O O9 0.500000 0.403249 0.000000
O O10 0.233437 0.000000 0.857782
O O11 0.223260 0.903070 0.000000
O O12 0.000000 0.500000 0.878234
O O13 0.912072 0.500000 0.000000
O O14 0.796674 0.335410 0.500000
O O15 0.750000 0.250000 0.364384
O O16 0.720751 0.395750 0.378907
O O17 0.365426 0.604591 0.500000
O O18 0.365890 0.500000 0.362836
#
# Coordination Sequence:
#
# PCOD9487588 Si02
#       7
#    16  16   8  16   8  16  16
#     4  12  24  39  63  92 124 164 211 266 313 387
#     4  12  23  40  65  94 124 162 215 270 327 383
#     4  11  26  46  63  86 122 168 210 252 319 391
#     4  11  22  37  58  88 125 162 201 263 328 379
#     4  11  28  50  69  89 125 174 223 282 342 401
#     4  10  19  35  59  95 138 170 204 257 322 386
#     4  10  20  35  59  93 132 169 205 250 311 380
#
# _framework density 18.420667999999999
#
# number of rings (size 3 to 8) (size 9 to 14) (size 15 to 20)
#    0.000    1.000    4.167    3.000    2.333    4.667 
#    0.000    0.417    0.000    2.500    0.000    0.000 
#    0.000    0.000    0.000    0.000    0.000    0.000 
#
# Total GULP energy -268324.377613 kJ/mol
# GULP energy per Si atom -5590.091200 kJ/mol
# Density = 1.837874 g / cm^3
# Si number density = 18.420668 Si / 1000 Ang^3
#
#
#
# Elastic Constant Matrix: (Units=GPa)
#
#
# Indices 1 2 3 4 5 6 
#
# 1 90.1976 56.4553 40.4138 0.0000 0.0000 0.0000
# 2 56.4553 163.7158 64.0076 0.0000 0.0000 0.0000
# 3 40.4138 64.0076 102.6512 0.0000 0.0000 0.0000
# 4 0.0000 0.0000 0.0000 34.4021 0.0000 0.0000
# 5 0.0000 0.0000 0.0000 0.0000 27.5309 0.0000
# 6 0.0000 0.0000 0.0000 0.0000 0.0000 10.0107
#
#
#
# Elastic Compliance Matrix: (Units=1/GPa)
#
#
# Indices 1 2 3 4 5 6 
#
# 1 0.015061 -0.003802 -0.003559 0.000000 0.000000 0.000000
# 2 -0.003802 0.009037 -0.004138 0.000000 0.000000 0.000000
# 3 -0.003559 -0.004138 0.013723 0.000000 0.000000 0.000000
# 4 0.000000 0.000000 0.000000 0.029068 0.000000 0.000000
# 5 0.000000 0.000000 0.000000 0.000000 0.036323 0.000000
# 6 0.000000 0.000000 0.000000 0.000000 0.000000 0.099893
#
#
# Mechanical properties :
#
#
# Convention : Reuss Voigt Hill
#
# Bulk Modulus (GPa) = 67.46174 75.36866 71.41520
# Shear Modulus (GPa) = 21.64088 27.43461 24.53775
#
# Velocity S-wave (km/s) = 3.43128 3.86338 3.65372
# Velocity P-wave (km/s) = 7.23882 7.80417 7.52681
#
# Compressibility (1/GPa) = 0.01482322
#
# Stress axis : x y z
#
# Youngs Moduli (GPa) = 66.39597 110.65371 72.86996
#
# Poissons Ratio (x) = 0.42074 0.25932
# Poissons Ratio (y) = 0.25246 0.30154
# Poissons Ratio (z) = 0.23628 0.45790
#
# Static dielectric constant tensor:
#      x y z
#    x 1.595650 0.000000 0.000000 
#    y 0.000000 1.642030 0.000000 
#    z 0.000000 0.000000 1.658280 
# 
# From -- ./inp_files/44174.got.cif
#   From: 2010.05.17/outbox.cif.g08.bks.cpg/sg65_23_cif.got.tgz:44174.got - 2010.06.03 17:01:31.
