data_PCOD9487032
_publ_section_title
;
Structure prediction by ZEFSAII (Michael W. Deem and Ramdas Pophale) SiO2 
 PCOD9487032
Probable space group: C M M M
;
_chemical_formula_sum "Si O2"
_cell_formula_units_Z 80
_cell_length_a 22.960181
_cell_length_b 8.432779
_cell_length_c 22.287404
_cell_angle_alpha 90.000000
_cell_angle_beta 90.000000
_cell_angle_gamma 90.000000
_cell_volume 4315.245533
_symmetry_space_group_name_H-M "C M M M"
_symmetry_group_IT_number 65
_symmetry_cell_setting 'orthorhombic'
loop_
_space_group_symop_operation_xyz
x,y,z
-x,-y,z
x,-y,-z
-x,y,-z
-x,-y,-z
x,y,-z
-x,y,z
x,-y,z
1/2+x,1/2+y,z
1/2-x,1/2-y,z
1/2+x,1/2-y,-z
1/2-x,1/2+y,-z
1/2-x,1/2-y,-z
1/2+x,1/2+y,-z
1/2-x,1/2+y,z
1/2+x,1/2-y,z
loop_
_atom_site_type_symbol
_atom_site_label
_atom_site_fract_x
_atom_site_fract_y
_atom_site_fract_z
Si Si1 0.000000 0.309338 0.429270
Si Si2 0.880089 0.810681 0.620002
Si Si3 0.814814 0.190910 0.500000
Si Si4 0.312025 0.812692 0.730795
Si Si5 0.065382 0.807466 0.070707
Si Si6 0.685141 0.311074 0.865404
O O1 0.055152 0.236570 0.396581
O O2 0.000000 0.500000 0.425596
O O3 0.000000 0.265845 0.500000
O O4 0.844327 0.753804 0.561570
O O5 0.858877 0.731503 0.681044
O O6 0.873402 0.000000 0.625770
O O7 0.750000 0.250000 0.500000
O O8 0.818235 0.000000 0.500000
O O9 0.250000 0.750000 0.707231
O O10 0.321346 0.731889 0.795227
O O11 0.308905 0.000000 0.740092
O O12 0.125648 0.751745 0.102004
O O13 0.000000 0.754750 0.092025
O O14 0.065217 0.000000 0.076109
O O15 0.068778 0.769576 0.000000
O O16 0.686876 0.500000 0.872780
O O17 0.750000 0.250000 0.884416
#
# Coordination Sequence:
#
# PCOD9487032 Si02
#       6
#     8  16   8  16  16  16
#     4  11  23  39  59  83 111 145 180 223 276 329
#     4  11  22  39  59  81 108 144 184 226 275 332
#     4  10  22  35  54  81 107 134 172 220 273 326
#     4  11  22  38  58  81 111 146 184 229 279 333
#     4   8  15  30  53  81 112 146 187 233 277 326
#     4  10  19  33  55  82 113 148 187 230 281 336
#
# _framework density 18.538921999999999
#
# number of rings (size 3 to 8) (size 9 to 14) (size 15 to 20)
#    0.000    1.900    1.000    5.700    0.000    4.000 
#    1.800    0.000    0.000    3.600    0.000    5.600 
#    0.000    0.000    0.000    0.000    0.000    0.000 
#
# Total GULP energy -223092.906261 kJ/mol
# GULP energy per Si atom -5577.322657 kJ/mol
# Density = 1.849673 g / cm^3
# Si number density = 18.538922 Si / 1000 Ang^3
#
#
#
# Elastic Constant Matrix: (Units=GPa)
#
#
# Indices 1 2 3 4 5 6 
#
# 1 179.6481 8.3945 65.4822 0.0000 0.0000 0.0000
# 2 8.3945 26.7013 1.6718 0.0000 0.0000 0.0000
# 3 65.4822 1.6718 58.0159 0.0000 0.0000 0.0000
# 4 0.0000 0.0000 0.0000 -320.1358 0.0000 0.0000
# 5 0.0000 0.0000 0.0000 0.0000 50.6781 0.0000
# 6 0.0000 0.0000 0.0000 0.0000 0.0000 29.7828
#
#
#
# Elastic Compliance Matrix: (Units=1/GPa)
#
#
# Indices 1 2 3 4 5 6 
#
# 1 0.009602 -0.002344 -0.010770 0.000000 0.000000 0.000000
# 2 -0.002344 0.038091 0.001548 0.000000 0.000000 0.000000
# 3 -0.010770 0.001548 0.029348 0.000000 0.000000 0.000000
# 4 0.000000 0.000000 0.000000 -0.003124 0.000000 0.000000
# 5 0.000000 0.000000 0.000000 0.000000 0.019732 0.000000
# 6 0.000000 0.000000 0.000000 0.000000 0.000000 0.033576
#
#
# Mechanical properties :
#
#
# Convention : Reuss Voigt Hill
#
# Bulk Modulus (GPa) = 18.54959 46.16247 32.35603
# Shear Modulus (GPa) = 29.70409 -35.34719 -2.82155
#
# Velocity S-wave (km/s) = 4.00716 -4.37125 -1.23502
# Velocity P-wave (km/s) = 5.60689 0.72305 3.93157
#
# Compressibility (1/GPa) = 0.05390954
#
# Stress axis : x y z
#
# Youngs Moduli (GPa) = 104.14977 26.25260 34.07417
#
# Poissons Ratio (x) = 0.06154 0.36697
# Poissons Ratio (y) = 0.24416 -0.05276
# Poissons Ratio (z) = 1.12166 -0.04065
#
# Static dielectric constant tensor:
#      x y z
#    x 1.603660 0.000000 0.000000 
#    y 0.000000 1.642550 0.000000 
#    z 0.000000 0.000000 1.611370 
# 
# From -- ./inp_files/70804.got.cif
#   From: 2010.05.17/outbox.cif.g08.bks.cpg/sg65_36_cif.got.tgz:70804.got - 2010.06.03 17:01:31.
