data_PCOD9487893
_publ_section_title
;
Structure prediction by ZEFSAII (Michael W. Deem and Ramdas Pophale) SiO2 
 PCOD9487893
Probable space group: C M M M
;
_chemical_formula_sum "Si O2"
_cell_formula_units_Z 80
_cell_length_a 23.998856
_cell_length_b 8.716381
_cell_length_c 24.465108
_cell_angle_alpha 90.000000
_cell_angle_beta 90.000000
_cell_angle_gamma 90.000000
_cell_volume 5117.688906
_symmetry_space_group_name_H-M "C M M M"
_symmetry_group_IT_number 65
_symmetry_cell_setting 'orthorhombic'
loop_
_space_group_symop_operation_xyz
x,y,z
-x,-y,z
x,-y,-z
-x,y,-z
-x,-y,-z
x,y,-z
-x,y,z
x,-y,z
1/2+x,1/2+y,z
1/2-x,1/2-y,z
1/2+x,1/2-y,-z
1/2-x,1/2+y,-z
1/2-x,1/2-y,-z
1/2+x,1/2+y,-z
1/2-x,1/2+y,z
1/2+x,1/2-y,z
loop_
_atom_site_type_symbol
_atom_site_label
_atom_site_fract_x
_atom_site_fract_y
_atom_site_fract_z
Si Si1 0.500000 0.816155 0.935949
Si Si2 0.115571 0.814317 0.895238
Si Si3 0.812565 0.815032 0.791344
Si Si4 0.186984 0.683553 0.440285
Si Si5 0.688399 0.315572 0.000000
Si Si6 0.312780 0.316475 0.329824
O O1 0.444940 0.754137 0.906355
O O2 0.500000 0.000000 0.935438
O O3 0.500000 0.765447 0.000000
O O4 0.146139 0.765466 0.839473
O O5 0.111348 0.000000 0.894946
O O6 0.154631 0.768339 0.946133
O O7 0.750000 0.750000 0.798444
O O8 0.834801 0.775208 0.730503
O O9 0.807989 0.000000 0.793605
O O10 0.162006 0.722731 0.500000
O O11 0.190092 0.500000 0.436075
O O12 0.250000 0.750000 0.441460
O O13 0.160195 0.749439 0.384933
O O14 0.750000 0.250000 0.000000
O O15 0.691495 0.500000 0.000000
O O16 0.310722 0.500000 0.334553
O O17 0.250000 0.250000 0.328802
#
# Coordination Sequence:
#
# PCOD9487893 Si02
#       6
#     8  16  16  16   8  16
#     4  11  23  37  53  73  91 111 144 187 228 265
#     4  10  20  35  52  69  90 119 150 179 219 270
#     4   9  18  30  45  66  91 118 149 183 220 265
#     4   9  15  21  30  46  69 100 140 181 215 248
#     4  10  20  31  48  71  93 118 146 176 215 260
#     4   9  15  23  35  52  76 107 141 176 213 253
#
# _framework density 15.632056
#
# number of rings (size 3 to 8) (size 9 to 14) (size 15 to 20)
#    0.000    2.500    1.000    3.300    0.000    4.000 
#    0.000    0.000    0.000    0.000    0.000    0.000 
#    0.000    0.000    0.000    0.900    0.000   19.200 
#
# Total GULP energy -222729.859908 kJ/mol
# GULP energy per Si atom -5568.246498 kJ/mol
# Density = 1.559648 g / cm^3
# Si number density = 15.632056 Si / 1000 Ang^3
#
#
#
# Elastic Constant Matrix: (Units=GPa)
#
#
# Indices 1 2 3 4 5 6 
#
# 1 80.3194 19.7099 61.6708 0.0000 0.0000 0.0000
# 2 19.7099 30.8908 43.2532 0.0000 0.0000 0.0000
# 3 61.6708 43.2532 195.9881 0.0000 0.0000 0.0000
# 4 0.0000 0.0000 0.0000 18.5049 0.0000 0.0000
# 5 0.0000 0.0000 0.0000 0.0000 6.1898 0.0000
# 6 0.0000 0.0000 0.0000 0.0000 0.0000 18.6136
#
#
#
# Elastic Compliance Matrix: (Units=1/GPa)
#
#
# Indices 1 2 3 4 5 6 
#
# 1 0.016900 -0.004829 -0.004252 0.000000 0.000000 0.000000
# 2 -0.004829 0.048229 -0.009124 0.000000 0.000000 0.000000
# 3 -0.004252 -0.009124 0.008454 0.000000 0.000000 0.000000
# 4 0.000000 0.000000 0.000000 0.054040 0.000000 0.000000
# 5 0.000000 0.000000 0.000000 0.000000 0.161556 0.000000
# 6 0.000000 0.000000 0.000000 0.000000 0.000000 0.053724
#
#
# Mechanical properties :
#
#
# Convention : Reuss Voigt Hill
#
# Bulk Modulus (GPa) = 26.90199 61.82955 44.36577
# Shear Modulus (GPa) = 12.76468 20.83262 16.79865
#
# Velocity S-wave (km/s) = 2.86067 3.65456 3.28171
# Velocity P-wave (km/s) = 5.30642 7.57936 6.54235
#
# Compressibility (1/GPa) = 0.03717198
#
# Stress axis : x y z
#
# Youngs Moduli (GPa) = 59.17071 20.73435 118.28724
#
# Poissons Ratio (x) = 0.10013 0.50297
# Poissons Ratio (y) = 0.28576 1.07928
# Poissons Ratio (z) = 0.25160 0.18918
#
# Static dielectric constant tensor:
#      x y z
#    x 1.466250 0.000000 0.000000 
#    y 0.000000 1.526160 0.000000 
#    z 0.000000 0.000000 1.600220 
# 
# From -- ./inp_files/71357.got.cif
#   From: 2010.05.17/outbox.cif.g08.bks.cpg/sg65_36_cif.got.tgz:71357.got - 2010.06.03 17:01:31.
