data_PCOD9487649
_publ_section_title
;
Structure prediction by ZEFSAII (Michael W. Deem and Ramdas Pophale) SiO2 
 PCOD9487649
Probable space group: C M M M
;
_chemical_formula_sum "Si O2"
_cell_formula_units_Z 100
_cell_length_a 29.410499
_cell_length_b 22.262364
_cell_length_c 7.479255
_cell_angle_alpha 90.000000
_cell_angle_beta 90.000000
_cell_angle_gamma 90.000000
_cell_volume 4897.021525
_symmetry_space_group_name_H-M "C M M M"
_symmetry_group_IT_number 65
_symmetry_cell_setting 'orthorhombic'
loop_
_space_group_symop_operation_xyz
x,y,z
-x,-y,z
x,-y,-z
-x,y,-z
-x,-y,-z
x,y,-z
-x,y,z
x,-y,z
1/2+x,1/2+y,z
1/2-x,1/2-y,z
1/2+x,1/2-y,-z
1/2-x,1/2+y,-z
1/2-x,1/2-y,-z
1/2+x,1/2+y,-z
1/2-x,1/2+y,z
1/2+x,1/2-y,z
loop_
_atom_site_type_symbol
_atom_site_label
_atom_site_fract_x
_atom_site_fract_y
_atom_site_fract_z
Si Si1 0.122813 0.392443 0.717347
Si Si2 0.946268 0.500000 0.717841
Si Si3 0.821020 0.068629 0.786717
Si Si4 0.222345 0.432336 0.285615
Si Si5 0.909100 0.860602 0.217400
Si Si6 0.500000 0.430413 0.218262
Si Si7 0.074438 0.276253 0.204163
Si Si8 0.000000 0.696425 0.500000
O O1 0.122070 0.392304 0.500000
O O2 0.083819 0.441361 0.770912
O O3 0.173607 0.409464 0.776719
O O4 0.112999 0.326439 0.789186
O O5 0.947721 0.500000 0.500000
O O6 0.000000 0.500000 0.774757
O O7 0.771158 0.096642 0.755083
O O8 0.863443 0.106989 0.718260
O O9 0.822525 0.000000 0.715481
O O10 0.826495 0.064659 0.000000
O O11 0.219289 0.434246 0.500000
O O12 0.226781 0.500000 0.215271
O O13 0.954674 0.895315 0.276318
O O14 0.911573 0.790545 0.263590
O O15 0.908979 0.863267 0.000000
O O16 0.500000 0.500000 0.274092
O O17 0.500000 0.430255 0.000000
O O18 0.038592 0.301096 0.343772
O O19 0.057309 0.271312 0.000000
#
# Coordination Sequence:
#
# PCOD9487649 Si02
#       8
#    16   8  16  16  16   8  16   4
#     4  10  19  36  58  85 119 155 198 249 304 360
#     4   9  18  30  55  85 113 149 188 243 312 359
#     4   9  17  31  55  85 116 152 198 250 301 355
#     4   9  17  32  54  82 116 156 197 242 304 359
#     4   9  18  34  53  82 119 152 193 246 298 353
#     4   9  15  26  51  82 110 145 189 236 292 356
#     4  11  24  40  62  88 120 160 202 246 297 360
#     4  12  24  44  62  85 115 160 206 244 288 346
#
# _framework density 20.420577000000002
#
# number of rings (size 3 to 8) (size 9 to 14) (size 15 to 20)
#    0.000    2.400    1.600    1.200    1.120    3.840 
#    1.440    1.200    0.000    5.280    0.000    1.680 
#    0.000    0.000    0.000    0.000    0.000    0.000 
#
# Total GULP energy -278345.663173 kJ/mol
# GULP energy per Si atom -5566.913263 kJ/mol
# Density = 2.037410 g / cm^3
# Si number density = 20.420577 Si / 1000 Ang^3
#
#
#
# Elastic Constant Matrix: (Units=GPa)
#
#
# Indices 1 2 3 4 5 6 
#
# 1 193.9365 67.5334 0.5573 0.0000 0.0000 0.0000
# 2 67.5334 109.0571 -9.0595 0.0000 0.0000 0.0000
# 3 0.5573 -9.0595 69.4895 0.0000 0.0000 0.0000
# 4 0.0000 0.0000 0.0000 6.8674 0.0000 0.0000
# 5 0.0000 0.0000 0.0000 0.0000 26.5807 0.0000
# 6 0.0000 0.0000 0.0000 0.0000 0.0000 82.6592
#
#
#
# Elastic Compliance Matrix: (Units=1/GPa)
#
#
# Indices 1 2 3 4 5 6 
#
# 1 0.006598 -0.004135 -0.000592 0.000000 0.000000 0.000000
# 2 -0.004135 0.011861 0.001580 0.000000 0.000000 0.000000
# 3 -0.000592 0.001580 0.014601 0.000000 0.000000 0.000000
# 4 0.000000 0.000000 0.000000 0.145616 0.000000 0.000000
# 5 0.000000 0.000000 0.000000 0.000000 0.037621 0.000000
# 6 0.000000 0.000000 0.000000 0.000000 0.000000 0.012098
#
#
# Mechanical properties :
#
#
# Convention : Reuss Voigt Hill
#
# Bulk Modulus (GPa) = 37.36114 54.50504 45.93309
# Shear Modulus (GPa) = 20.52438 44.11826 32.32132
#
# Velocity S-wave (km/s) = 3.17374 4.65314 3.98274
# Velocity P-wave (km/s) = 5.63611 7.45776 6.60999
#
# Compressibility (1/GPa) = 0.02676578
#
# Stress axis : x y z
#
# Youngs Moduli (GPa) = 151.56323 84.30805 68.48683
#
# Poissons Ratio (x) = 0.34861 0.04054
# Poissons Ratio (y) = 0.62670 -0.10818
# Poissons Ratio (z) = 0.08972 -0.13317
#
# Static dielectric constant tensor:
#      x y z
#    x 1.886990 0.000000 0.000000 
#    y 0.000000 1.716110 0.000000 
#    z 0.000000 0.000000 1.786170 
# 
# From -- ./inp_files/18749.got.cif
#   From: 2010.05.17/outbox.cif.g08.bks.cpg/sg65_10_cif.got.tgz:18749.got - 2010.06.03 17:01:31.
