data_PCOD9487382
_publ_section_title
;
Structure prediction by ZEFSAII (Michael W. Deem and Ramdas Pophale) SiO2 
 PCOD9487382
Probable space group: C M M M
;
_chemical_formula_sum "Si O2"
_cell_formula_units_Z 72
_cell_length_a 7.662810
_cell_length_b 26.677338
_cell_length_c 17.992155
_cell_angle_alpha 90.000000
_cell_angle_beta 90.000000
_cell_angle_gamma 90.000000
_cell_volume 3678.017002
_symmetry_space_group_name_H-M "C M M M"
_symmetry_group_IT_number 65
_symmetry_cell_setting 'orthorhombic'
loop_
_space_group_symop_operation_xyz
x,y,z
-x,-y,z
x,-y,-z
-x,y,-z
-x,-y,-z
x,y,-z
-x,y,z
x,-y,z
1/2+x,1/2+y,z
1/2-x,1/2-y,z
1/2+x,1/2-y,-z
1/2-x,1/2+y,-z
1/2-x,1/2-y,-z
1/2+x,1/2+y,-z
1/2-x,1/2+y,z
1/2+x,1/2-y,z
loop_
_atom_site_type_symbol
_atom_site_label
_atom_site_fract_x
_atom_site_fract_y
_atom_site_fract_z
Si Si1 0.500000 0.559986 0.084886
Si Si2 0.300734 0.909305 0.804457
Si Si3 0.708851 0.694375 0.260263
Si Si4 0.210827 0.444377 0.639360
Si Si5 0.795344 0.162669 0.580171
O O1 0.500000 0.500000 0.083754
O O2 0.669104 0.577322 0.130578
O O3 0.500000 0.578398 0.000000
O O4 0.500000 0.924299 0.819885
O O5 0.290689 0.850098 0.787332
O O6 0.244819 0.934938 0.726180
O O7 0.500000 0.686349 0.260505
O O8 0.750000 0.750000 0.234057
O O9 0.777127 0.687801 0.345178
O O10 0.268490 0.500000 0.616478
O O11 0.279891 0.397179 0.593522
O O12 0.000000 0.442567 0.634377
O O13 0.717634 0.176021 0.500000
O O14 0.000000 0.175339 0.578010
#
# Coordination Sequence:
#
# PCOD9487382 Si02
#       5
#     8  16  16  16  16
#     4  11  24  40  62  94 127 159 191 225 281 350
#     4  10  20  38  60  86 119 155 192 242 287 335
#     4  10  19  34  57  85 110 146 198 246 295 347
#     4   9  18  31  49  73 100 138 190 237 282 337
#     4   9  19  33  46  67 105 146 186 236 291 344
#
# _framework density 19.575765000000001
#
# number of rings (size 3 to 8) (size 9 to 14) (size 15 to 20)
#    0.000    2.333    1.111    1.333    1.556    4.444 
#    0.000    3.333    0.000    0.667    0.000    0.000 
#    0.000    0.000    0.000    0.000    0.000    0.000 
#
# Total GULP energy -201019.742472 kJ/mol
# GULP energy per Si atom -5583.881735 kJ/mol
# Density = 1.953121 g / cm^3
# Si number density = 19.575765 Si / 1000 Ang^3
#
#
#
# Elastic Constant Matrix: (Units=GPa)
#
#
# Indices 1 2 3 4 5 6 
#
# 1 71.4322 -12.5558 33.7153 0.0000 0.0000 0.0000
# 2 -12.5558 65.5821 -7.7917 0.0000 0.0000 0.0000
# 3 33.7153 -7.7917 88.1003 0.0000 0.0000 0.0000
# 4 0.0000 0.0000 0.0000 -4.7560 0.0000 0.0000
# 5 0.0000 0.0000 0.0000 0.0000 11.3652 0.0000
# 6 0.0000 0.0000 0.0000 0.0000 0.0000 22.0491
#
#
#
# Elastic Compliance Matrix: (Units=1/GPa)
#
#
# Indices 1 2 3 4 5 6 
#
# 1 0.017508 0.002583 -0.006472 0.000000 0.000000 0.000000
# 2 0.002583 0.015791 0.000408 0.000000 0.000000 0.000000
# 3 -0.006472 0.000408 0.013863 0.000000 0.000000 0.000000
# 4 0.000000 0.000000 0.000000 -0.210260 0.000000 0.000000
# 5 0.000000 0.000000 0.000000 0.000000 0.087988 0.000000
# 6 0.000000 0.000000 0.000000 0.000000 0.000000 0.045353
#
#
# Mechanical properties :
#
#
# Convention : Reuss Voigt Hill
#
# Bulk Modulus (GPa) = 24.87484 27.98336 26.42910
# Shear Modulus (GPa) = -532.20538 19.84811 -256.17864
#
# Velocity S-wave (km/s) = -16.50635 3.18765 -11.45204
# Velocity P-wave (km/s) = 18.72285 5.27959 12.70179
#
# Compressibility (1/GPa) = 0.04020126
#
# Stress axis : x y z
#
# Youngs Moduli (GPa) = 57.11706 63.32688 72.13209
#
# Poissons Ratio (x) = -0.16358 0.46682
# Poissons Ratio (y) = -0.14754 -0.02943
# Poissons Ratio (z) = 0.36964 -0.02584
#
# Static dielectric constant tensor:
#      x y z
#    x 1.737260 0.000000 0.000000 
#    y 0.000000 1.684790 0.000000 
#    z 0.000000 0.000000 1.675190 
# 
# From -- ./inp_files/36536.got.cif
#   From: 2010.05.17/outbox.cif.g08.bks.cpg/sg65_19_cif.got.tgz:36536.got - 2010.06.03 17:01:31.
