data_PCOD9487523
_publ_section_title
;
Structure prediction by ZEFSAII (Michael W. Deem and Ramdas Pophale) SiO2 
 PCOD9487523
Probable space group: C M M M
;
_chemical_formula_sum "Si O2"
_cell_formula_units_Z 72
_cell_length_a 8.654105
_cell_length_b 25.855704
_cell_length_c 17.261075
_cell_angle_alpha 90.000000
_cell_angle_beta 90.000000
_cell_angle_gamma 90.000000
_cell_volume 3862.303227
_symmetry_space_group_name_H-M "C M M M"
_symmetry_group_IT_number 65
_symmetry_cell_setting 'orthorhombic'
loop_
_space_group_symop_operation_xyz
x,y,z
-x,-y,z
x,-y,-z
-x,y,-z
-x,-y,-z
x,y,-z
-x,y,z
x,-y,z
1/2+x,1/2+y,z
1/2-x,1/2-y,z
1/2+x,1/2-y,-z
1/2-x,1/2+y,-z
1/2-x,1/2-y,-z
1/2+x,1/2+y,-z
1/2-x,1/2+y,z
1/2+x,1/2-y,z
loop_
_atom_site_type_symbol
_atom_site_label
_atom_site_fract_x
_atom_site_fract_y
_atom_site_fract_z
Si Si1 0.683522 0.442334 0.375174
Si Si2 0.682580 0.411317 0.802924
Si Si3 0.685072 0.000000 0.089514
Si Si4 0.185307 0.304005 0.752871
Si Si5 0.184800 0.334278 0.417211
O O1 0.500000 0.436494 0.391157
O O2 0.730712 0.500000 0.399047
O O3 0.704548 0.436366 0.282473
O O4 0.774222 0.394962 0.412101
O O5 0.500000 0.406419 0.815583
O O6 0.753723 0.449543 0.865785
O O7 0.757592 0.354630 0.798076
O O8 0.500000 0.000000 0.092492
O O9 0.734682 0.000000 0.000000
O O10 0.250000 0.250000 0.783463
O O11 0.244012 0.310477 0.663384
O O12 0.000000 0.303279 0.752311
O O13 0.245756 0.314264 0.500000
O O14 0.000000 0.328064 0.416846
#
# Coordination Sequence:
#
# PCOD9487523 Si02
#       5
#    16  16   8  16  16
#     4   9  17  30  47  69  97 132 175 221 268 318
#     4  10  19  35  57  81 110 144 182 224 264 315
#     4  11  23  37  57  89 124 151 174 207 257 316
#     4  10  20  35  55  79 105 141 186 232 278 325
#     4   9  19  33  46  66  98 135 178 227 277 326
#
# _framework density 18.641726999999999
#
# number of rings (size 3 to 8) (size 9 to 14) (size 15 to 20)
#    0.000    2.333    1.111    1.667    0.000    4.444 
#    0.000    2.222    0.000    0.667    0.000    0.000 
#    0.000    0.000    0.000    0.000    0.000    0.000 
#
# Total GULP energy -200903.529735 kJ/mol
# GULP energy per Si atom -5580.653604 kJ/mol
# Density = 1.859930 g / cm^3
# Si number density = 18.641727 Si / 1000 Ang^3
#
#
#
# Elastic Constant Matrix: (Units=GPa)
#
#
# Indices 1 2 3 4 5 6 
#
# 1 38.2083 28.9608 34.0305 0.0000 0.0000 0.0000
# 2 28.9608 145.8978 42.1547 0.0000 0.0000 0.0000
# 3 34.0305 42.1547 95.5427 0.0000 0.0000 0.0000
# 4 0.0000 0.0000 0.0000 103.8284 0.0000 0.0000
# 5 0.0000 0.0000 0.0000 0.0000 12.5526 0.0000
# 6 0.0000 0.0000 0.0000 0.0000 0.0000 29.8207
#
#
#
# Elastic Compliance Matrix: (Units=1/GPa)
#
#
# Indices 1 2 3 4 5 6 
#
# 1 0.040717 -0.004461 -0.012535 0.000000 0.000000 0.000000
# 2 -0.004461 0.008344 -0.002093 0.000000 0.000000 0.000000
# 3 -0.012535 -0.002093 0.015854 0.000000 0.000000 0.000000
# 4 0.000000 0.000000 0.000000 0.009631 0.000000 0.000000
# 5 0.000000 0.000000 0.000000 0.000000 0.079665 0.000000
# 6 0.000000 0.000000 0.000000 0.000000 0.000000 0.033534
#
#
# Mechanical properties :
#
#
# Convention : Reuss Voigt Hill
#
# Bulk Modulus (GPa) = 37.39731 54.43783 45.91757
# Shear Modulus (GPa) = 21.29149 40.87386 31.08268
#
# Velocity S-wave (km/s) = 3.38322 4.68760 4.08778
# Velocity P-wave (km/s) = 5.94695 7.65269 6.85310
#
# Compressibility (1/GPa) = 0.02673989
#
# Stress axis : x y z
#
# Youngs Moduli (GPa) = 24.55948 119.84314 63.07367
#
# Poissons Ratio (x) = 0.53459 0.79061
# Poissons Ratio (y) = 0.10955 0.13200
# Poissons Ratio (z) = 0.30784 0.25080
#
# Static dielectric constant tensor:
#      x y z
#    x 1.625610 0.000000 0.000000 
#    y 0.000000 1.631290 0.000000 
#    z 0.000000 0.000000 1.664770 
# 
# From -- ./inp_files/36573.got.cif
#   From: 2010.05.17/outbox.cif.g08.bks.cpg/sg65_19_cif.got.tgz:36573.got - 2010.06.03 17:01:31.
