data_PCOD9487159
_publ_section_title
;
Structure prediction by ZEFSAII (Michael W. Deem and Ramdas Pophale) SiO2 
 PCOD9487159
Probable space group: C M M M
;
_chemical_formula_sum "Si O2"
_cell_formula_units_Z 104
_cell_length_a 33.523578
_cell_length_b 19.424197
_cell_length_c 9.240197
_cell_angle_alpha 90.000000
_cell_angle_beta 90.000000
_cell_angle_gamma 90.000000
_cell_volume 6016.925989
_symmetry_space_group_name_H-M "C M M M"
_symmetry_group_IT_number 65
_symmetry_cell_setting 'orthorhombic'
loop_
_space_group_symop_operation_xyz
x,y,z
-x,-y,z
x,-y,-z
-x,y,-z
-x,-y,-z
x,y,-z
-x,y,z
x,-y,z
1/2+x,1/2+y,z
1/2-x,1/2-y,z
1/2+x,1/2-y,-z
1/2-x,1/2+y,-z
1/2-x,1/2-y,-z
1/2+x,1/2+y,-z
1/2-x,1/2+y,z
1/2+x,1/2-y,z
loop_
_atom_site_type_symbol
_atom_site_label
_atom_site_fract_x
_atom_site_fract_y
_atom_site_fract_z
Si Si1 0.187779 0.416176 0.833153
Si Si2 0.233962 0.916265 0.665425
Si Si3 0.500000 0.421594 0.675841
Si Si4 0.953388 0.693227 0.673355
Si Si5 0.098217 0.580236 0.825435
Si Si6 0.652697 0.418134 0.827421
Si Si7 0.080230 0.841663 0.674537
O O1 0.187993 0.500000 0.833545
O O2 0.224527 0.392410 0.735881
O O3 0.143261 0.396988 0.783630
O O4 0.193416 0.394636 0.000000
O O5 0.229696 0.893210 0.500000
O O6 0.195442 0.898104 0.760129
O O7 0.235453 0.000000 0.664519
O O8 0.500000 0.500000 0.726711
O O9 0.500000 0.421720 0.500000
O O10 0.540273 0.382894 0.718610
O O11 0.951403 0.683752 0.500000
O O12 0.934180 0.628655 0.753136
O O13 0.928633 0.762115 0.708645
O O14 0.000000 0.703032 0.710770
O O15 0.093061 0.500000 0.785250
O O16 0.096216 0.584103 0.000000
O O17 0.646458 0.500000 0.797242
O O18 0.617946 0.374297 0.753496
O O19 0.652984 0.409258 0.000000
O O20 0.084848 0.848156 0.500000
#
# Coordination Sequence:
#
# PCOD9487159 Si02
#       7
#    16  16   8  16  16  16  16
#     4   8  14  27  47  71 101 133 164 204 253 301
#     4   9  16  26  44  72 103 135 171 208 249 301
#     4   9  16  28  51  77  96 123 166 214 259 301
#     4  10  21  37  55  76 104 136 171 214 264 315
#     4   9  19  35  55  80 107 136 172 211 253 308
#     4  10  20  32  47  72 106 140 174 214 259 303
#     4  10  19  34  53  73  99 133 175 217 258 310
#
# _framework density 17.284573000000002
#
# number of rings (size 3 to 8) (size 9 to 14) (size 15 to 20)
#    0.000    2.692    0.769    2.308    0.000    5.538 
#    0.000    3.462    0.000    2.308    0.000    6.462 
#    0.000    0.000    0.000    0.000    0.000    0.000 
#
# Total GULP energy -289885.424584 kJ/mol
# GULP energy per Si atom -5574.719704 kJ/mol
# Density = 1.724523 g / cm^3
# Si number density = 17.284573 Si / 1000 Ang^3
#
#
#
# Elastic Constant Matrix: (Units=GPa)
#
#
# Indices 1 2 3 4 5 6 
#
# 1 99.6693 45.1763 48.9663 0.0000 0.0000 0.0000
# 2 45.1763 67.2826 34.8389 0.0000 0.0000 0.0000
# 3 48.9663 34.8389 52.0603 0.0000 0.0000 0.0000
# 4 0.0000 0.0000 0.0000 18.7247 0.0000 0.0000
# 5 0.0000 0.0000 0.0000 0.0000 40.1845 0.0000
# 6 0.0000 0.0000 0.0000 0.0000 0.0000 -23.3016
#
#
#
# Elastic Compliance Matrix: (Units=1/GPa)
#
#
# Indices 1 2 3 4 5 6 
#
# 1 0.019955 -0.005631 -0.015001 0.000000 0.000000 0.000000
# 2 -0.005631 0.024333 -0.010987 0.000000 0.000000 0.000000
# 3 -0.015001 -0.010987 0.040670 0.000000 0.000000 0.000000
# 4 0.000000 0.000000 0.000000 0.053405 0.000000 0.000000
# 5 0.000000 0.000000 0.000000 0.000000 0.024885 0.000000
# 6 0.000000 0.000000 0.000000 0.000000 0.000000 -0.042915
#
#
# Mechanical properties :
#
#
# Convention : Reuss Voigt Hill
#
# Bulk Modulus (GPa) = 46.04004 52.99723 49.51863
# Shear Modulus (GPa) = 26.20378 13.12356 19.66367
#
# Velocity S-wave (km/s) = 3.89784 2.75846 3.37656
# Velocity P-wave (km/s) = 6.85214 6.39325 6.62667
#
# Compressibility (1/GPa) = 0.02172022
#
# Stress axis : x y z
#
# Youngs Moduli (GPa) = 50.11165 41.09673 24.58800
#
# Poissons Ratio (x) = 0.23143 0.36884
# Poissons Ratio (y) = 0.28220 0.27014
# Poissons Ratio (z) = 0.75172 0.45152
#
# Static dielectric constant tensor:
#      x y z
#    x 1.576450 0.000000 0.000000 
#    y 0.000000 1.573370 0.000000 
#    z 0.000000 0.000000 1.576640 
# 
# From -- ./inp_files/18659.got.cif
#   From: 2010.05.17/outbox.cif.g08.bks.cpg/sg65_10_cif.got.tgz:18659.got - 2010.06.03 17:01:31.
