data_PCOD9487341
_publ_section_title
;
Structure prediction by ZEFSAII (Michael W. Deem and Ramdas Pophale) SiO2 
 PCOD9487341
Probable space group: C M M M
;
_chemical_formula_sum "Si O2"
_cell_formula_units_Z 52
_cell_length_a 10.116641
_cell_length_b 26.492207
_cell_length_c 8.400015
_cell_angle_alpha 90.000000
_cell_angle_beta 90.000000
_cell_angle_gamma 90.000000
_cell_volume 2251.306059
_symmetry_space_group_name_H-M "C M M M"
_symmetry_group_IT_number 65
_symmetry_cell_setting 'orthorhombic'
loop_
_space_group_symop_operation_xyz
x,y,z
-x,-y,z
x,-y,-z
-x,y,-z
-x,-y,-z
x,y,-z
-x,y,z
x,-y,z
1/2+x,1/2+y,z
1/2-x,1/2-y,z
1/2+x,1/2-y,-z
1/2-x,1/2+y,-z
1/2-x,1/2-y,-z
1/2+x,1/2+y,-z
1/2-x,1/2+y,z
1/2+x,1/2-y,z
loop_
_atom_site_type_symbol
_atom_site_label
_atom_site_fract_x
_atom_site_fract_y
_atom_site_fract_z
Si Si1 0.291169 0.097103 0.325082
Si Si2 0.847872 0.294391 0.187970
Si Si3 0.251582 0.942914 0.000000
Si Si4 0.500000 0.632621 0.333636
Si Si5 0.000000 0.868239 0.000000
O O1 0.339115 0.081035 0.500000
O O2 0.327882 0.155146 0.289710
O O3 0.328382 0.067182 0.165309
O O4 0.130951 0.098504 0.332745
O O5 0.750000 0.250000 0.237352
O O6 0.000000 0.279375 0.200030
O O7 0.820496 0.306066 0.000000
O O8 0.129113 0.903672 0.000000
O O9 0.202509 0.000000 0.000000
O O10 0.500000 0.662272 0.500000
O O11 0.500000 0.661490 0.165534
#
# Coordination Sequence:
#
# PCOD9487341 Si02
#       5
#    16  16   8   8   4
#     4  10  20  36  58  86 122 162 203 252 306 361
#     4  10  22  40  62  93 126 161 204 251 302 363
#     4  10  19  34  56  85 120 162 207 256 306 362
#     4   8  16  29  49  81 114 152 198 244 292 350
#     4   8  15  28  48  76 112 156 200 242 302 356
#
# _framework density 23.097702000000002
#
# number of rings (size 3 to 8) (size 9 to 14) (size 15 to 20)
#    0.000    2.462    1.538    0.231    2.154    1.846 
#    0.000    0.000    0.000   11.077    0.000    2.154 
#    0.000    0.000    0.000    0.000    0.000    0.000 
#
# Total GULP energy -145099.336016 kJ/mol
# GULP energy per Si atom -5580.743693 kJ/mol
# Density = 2.304513 g / cm^3
# Si number density = 23.097702 Si / 1000 Ang^3
#
#
#
# Elastic Constant Matrix: (Units=GPa)
#
#
# Indices 1 2 3 4 5 6 
#
# 1 78.2958 17.8534 12.6885 0.0000 0.0000 0.0000
# 2 17.8534 70.3916 28.6247 0.0000 0.0000 0.0000
# 3 12.6885 28.6247 243.4012 0.0000 0.0000 0.0000
# 4 0.0000 0.0000 0.0000 -0.0909 0.0000 0.0000
# 5 0.0000 0.0000 0.0000 0.0000 -4.6950 0.0000
# 6 0.0000 0.0000 0.0000 0.0000 0.0000 3.0150
#
#
#
# Elastic Compliance Matrix: (Units=1/GPa)
#
#
# Indices 1 2 3 4 5 6 
#
# 1 0.013579 -0.003315 -0.000318 0.000000 0.000000 0.000000
# 2 -0.003315 0.015729 -0.001677 0.000000 0.000000 0.000000
# 3 -0.000318 -0.001677 0.004322 0.000000 0.000000 0.000000
# 4 0.000000 0.000000 0.000000-10.998335 0.000000 0.000000
# 5 0.000000 0.000000 0.000000 0.000000 -0.212991 0.000000
# 6 0.000000 0.000000 0.000000 0.000000 0.000000 0.331670
#
#
# Mechanical properties :
#
#
# Convention : Reuss Voigt Hill
#
# Bulk Modulus (GPa) = 43.45762 56.71356 50.08559
# Shear Modulus (GPa) = -0.46178 21.84061 10.68942
#
# Velocity S-wave (km/s) = -0.44761 3.07836 2.15359
# Velocity P-wave (km/s) = 4.31143 6.10263 5.28349
#
# Compressibility (1/GPa) = 0.02301093
#
# Stress axis : x y z
#
# Youngs Moduli (GPa) = 73.64049 63.57715 231.36147
#
# Poissons Ratio (x) = 0.21075 0.07359
# Poissons Ratio (y) = 0.24411 0.38799
# Poissons Ratio (z) = 0.02342 0.10662
#
# Static dielectric constant tensor:
#      x y z
#    x 1.881350 0.000000 0.000000 
#    y 0.000000 1.769500 0.000000 
#    z 0.000000 0.000000 1.988810 
# 
# From -- ./inp_files/4685.got.cif
#   From: 2010.05.17/outbox.cif.g08.bks.cpg/sg65_3_cif.got.tgz:4685.got - 2010.06.03 17:01:31.
