data_PCOD9487024
_publ_section_title
;
Structure prediction by ZEFSAII (Michael W. Deem and Ramdas Pophale) SiO2 
 PCOD9487024
Probable space group: C M M M
;
_chemical_formula_sum "Si O2"
_cell_formula_units_Z 96
_cell_length_a 29.677310
_cell_length_b 8.794183
_cell_length_c 21.040327
_cell_angle_alpha 90.000000
_cell_angle_beta 90.000000
_cell_angle_gamma 90.000000
_cell_volume 5491.266448
_symmetry_space_group_name_H-M "C M M M"
_symmetry_group_IT_number 65
_symmetry_cell_setting 'orthorhombic'
loop_
_space_group_symop_operation_xyz
x,y,z
-x,-y,z
x,-y,-z
-x,y,-z
-x,-y,-z
x,y,-z
-x,y,z
x,-y,z
1/2+x,1/2+y,z
1/2-x,1/2-y,z
1/2+x,1/2-y,-z
1/2-x,1/2+y,-z
1/2-x,1/2-y,-z
1/2+x,1/2+y,-z
1/2-x,1/2+y,z
1/2+x,1/2-y,z
loop_
_atom_site_type_symbol
_atom_site_label
_atom_site_fract_x
_atom_site_fract_y
_atom_site_fract_z
Si Si1 0.550527 0.681681 0.385211
Si Si2 0.142742 0.317168 0.183153
Si Si3 0.798590 0.818347 0.073478
Si Si4 0.857503 0.316843 0.430182
Si Si5 0.050602 0.681635 0.244747
Si Si6 0.700087 0.816358 0.691692
O O1 0.500000 0.728386 0.406209
O O2 0.553366 0.500000 0.389912
O O3 0.591962 0.755917 0.421646
O O4 0.555074 0.733000 0.311749
O O5 0.145273 0.500000 0.176544
O O6 0.163973 0.241880 0.121405
O O7 0.091110 0.275368 0.198278
O O8 0.171979 0.274099 0.245379
O O9 0.750000 0.750000 0.091892
O O10 0.795951 0.000000 0.076735
O O11 0.807219 0.774041 0.000000
O O12 0.840126 0.272147 0.500000
O O13 0.859019 0.500000 0.427198
O O14 0.826768 0.264640 0.371347
O O15 0.055104 0.500000 0.257628
O O16 0.000000 0.708744 0.220108
O O17 0.750000 0.750000 0.693754
O O18 0.702487 0.000000 0.690188
#
# Coordination Sequence:
#
# PCOD9487024 Si02
#       6
#    16  16  16  16  16  16
#     4  10  20  33  51  77 107 135 166 211 266 318
#     4  10  19  33  55  82 109 137 173 217 261 305
#     4  10  21  36  54  79 111 145 180 216 257 309
#     4  10  21  38  56  72  97 136 179 219 261 314
#     4   9  17  32  55  80 107 139 174 212 255 306
#     4  10  21  36  52  76 103 131 171 217 262 309
#
# _framework density 17.482306000000001
#
# number of rings (size 3 to 8) (size 9 to 14) (size 15 to 20)
#    0.000    2.167    1.667    1.500    0.000    6.333 
#    0.000    1.667    0.000    0.500    0.000    3.500 
#    0.000    0.000    0.000    0.000    0.000    0.000 
#
# Total GULP energy -267875.514429 kJ/mol
# GULP energy per Si atom -5580.739884 kJ/mol
# Density = 1.744252 g / cm^3
# Si number density = 17.482306 Si / 1000 Ang^3
#
#
#
# Elastic Constant Matrix: (Units=GPa)
#
#
# Indices 1 2 3 4 5 6 
#
# 1 113.5456 21.3554 52.2165 0.0000 0.0000 0.0000
# 2 21.3554 8.0521 20.2247 0.0000 0.0000 0.0000
# 3 52.2165 20.2247 79.6570 0.0000 0.0000 0.0000
# 4 0.0000 0.0000 0.0000 17.2750 0.0000 0.0000
# 5 0.0000 0.0000 0.0000 0.0000 19.4570 0.0000
# 6 0.0000 0.0000 0.0000 0.0000 0.0000 29.4085
#
#
#
# Elastic Compliance Matrix: (Units=1/GPa)
#
#
# Indices 1 2 3 4 5 6 
#
# 1 0.017594 -0.048840 0.000867 0.000000 0.000000 0.000000
# 2 -0.048840 0.478380 -0.089444 0.000000 0.000000 0.000000
# 3 0.000867 -0.089444 0.034695 0.000000 0.000000 0.000000
# 4 0.000000 0.000000 0.000000 0.057887 0.000000 0.000000
# 5 0.000000 0.000000 0.000000 0.000000 0.051395 0.000000
# 6 0.000000 0.000000 0.000000 0.000000 0.000000 0.034004
#
#
# Mechanical properties :
#
#
# Convention : Reuss Voigt Hill
#
# Bulk Modulus (GPa) = 3.90876 43.20531 23.55704
# Shear Modulus (GPa) = 4.83527 20.39200 12.61364
#
# Velocity S-wave (km/s) = 1.66488 3.41902 2.68901
# Velocity P-wave (km/s) = 2.43648 6.35245 4.81093
#
# Compressibility (1/GPa) = 0.25583559
#
# Stress axis : x y z
#
# Youngs Moduli (GPa) = 56.83791 2.09039 28.82251
#
# Poissons Ratio (x) = 0.10209 -0.02499
# Poissons Ratio (y) = 2.77594 2.57801
# Poissons Ratio (z) = -0.04929 0.18697
#
# Static dielectric constant tensor:
#      x y z
#    x 1.587590 0.000000 0.000000 
#    y 0.000000 1.590750 0.000000 
#    z 0.000000 0.000000 1.589510 
# 
# From -- ./inp_files/60198.got.cif
#   From: 2010.05.17/outbox.cif.g08.bks.cpg/sg65_31_cif.got.tgz:60198.got - 2010.06.03 17:01:31.
