data_PCOD9487709
_publ_section_title
;
Structure prediction by ZEFSAII (Michael W. Deem and Ramdas Pophale) SiO2 
 PCOD9487709
Probable space group: C M M M
;
_chemical_formula_sum "Si O2"
_cell_formula_units_Z 80
_cell_length_a 14.161509
_cell_length_b 27.569992
_cell_length_c 12.146870
_cell_angle_alpha 90.000000
_cell_angle_beta 90.000000
_cell_angle_gamma 90.000000
_cell_volume 4742.535127
_symmetry_space_group_name_H-M "C M M M"
_symmetry_group_IT_number 65
_symmetry_cell_setting 'orthorhombic'
loop_
_space_group_symop_operation_xyz
x,y,z
-x,-y,z
x,-y,-z
-x,y,-z
-x,-y,-z
x,y,-z
-x,y,z
x,-y,z
1/2+x,1/2+y,z
1/2-x,1/2-y,z
1/2+x,1/2-y,-z
1/2-x,1/2+y,-z
1/2-x,1/2-y,-z
1/2+x,1/2+y,-z
1/2-x,1/2+y,z
1/2+x,1/2-y,z
loop_
_atom_site_type_symbol
_atom_site_label
_atom_site_fract_x
_atom_site_fract_y
_atom_site_fract_z
Si Si1 0.388237 0.229971 0.625602
Si Si2 0.724891 0.869955 0.370702
Si Si3 0.889033 0.862748 0.000000
Si Si4 0.610614 0.942434 0.222800
Si Si5 0.611216 0.325947 0.758678
Si Si6 0.727691 0.942714 0.000000
O O1 0.369283 0.247529 0.500000
O O2 0.500000 0.219379 0.632756
O O3 0.330810 0.180953 0.643234
O O4 0.366466 0.272658 0.710846
O O5 0.739343 0.877903 0.500000
O O6 0.662193 0.911662 0.316242
O O7 0.823010 0.863374 0.306520
O O8 0.872227 0.832300 0.888619
O O9 0.819088 0.908522 0.000000
O O10 0.000000 0.877115 0.000000
O O11 0.500000 0.929654 0.214360
O O12 0.664385 0.933040 0.107886
O O13 0.616811 0.000000 0.244589
O O14 0.500000 0.334356 0.737514
O O15 0.752457 0.000000 0.000000
#
# Coordination Sequence:
#
# PCOD9487709 Si02
#       6
#    16  16   8  16  16   8
#     4   9  18  33  53  78 108 144 185 223 260 312
#     4  11  21  34  55  81 110 145 186 226 264 316
#     4  10  20  36  57  82 109 140 179 224 272 322
#     4  10  21  37  58  83 110 141 177 222 276 329
#     4  10  20  35  54  77 109 144 180 223 271 321
#     4  10  19  37  61  82 105 138 182 227 272 323
#
# _framework density 16.868614999999998
#
# number of rings (size 3 to 8) (size 9 to 14) (size 15 to 20)
#    0.000    2.000    2.000    2.100    0.000    5.800 
#    0.000    4.000    0.000    3.000    0.000    1.400 
#    0.000    0.000    0.000    0.000    0.000    0.000 
#
# Total GULP energy -223228.455646 kJ/mol
# GULP energy per Si atom -5580.711391 kJ/mol
# Density = 1.683022 g / cm^3
# Si number density = 16.868615 Si / 1000 Ang^3
#
#
#
# Elastic Constant Matrix: (Units=GPa)
#
#
# Indices 1 2 3 4 5 6 
#
# 1 84.4443 44.9975 70.3234 0.0000 0.0000 0.0000
# 2 44.9975 54.7443 63.4762 0.0000 0.0000 0.0000
# 3 70.3234 63.4762 143.9799 0.0000 0.0000 0.0000
# 4 0.0000 0.0000 0.0000 35.4271 0.0000 0.0000
# 5 0.0000 0.0000 0.0000 0.0000 21.2376 0.0000
# 6 0.0000 0.0000 0.0000 0.0000 0.0000 30.5204
#
#
#
# Elastic Compliance Matrix: (Units=1/GPa)
#
#
# Indices 1 2 3 4 5 6 
#
# 1 0.023376 -0.012225 -0.006028 0.000000 0.000000 0.000000
# 2 -0.012225 0.043763 -0.013323 0.000000 0.000000 0.000000
# 3 -0.006028 -0.013323 0.015763 0.000000 0.000000 0.000000
# 4 0.000000 0.000000 0.000000 0.028227 0.000000 0.000000
# 5 0.000000 0.000000 0.000000 0.000000 0.047086 0.000000
# 6 0.000000 0.000000 0.000000 0.000000 0.000000 0.032765
#
#
# Mechanical properties :
#
#
# Convention : Reuss Voigt Hill
#
# Bulk Modulus (GPa) = 50.62996 71.19585 60.91290
# Shear Modulus (GPa) = 19.17801 24.39512 21.78656
#
# Velocity S-wave (km/s) = 3.37546 3.80700 3.59771
# Velocity P-wave (km/s) = 6.72838 7.84997 7.31072
#
# Compressibility (1/GPa) = 0.01975115
#
# Stress axis : x y z
#
# Youngs Moduli (GPa) = 42.77830 22.85050 63.43877
#
# Poissons Ratio (x) = 0.27934 0.38241
# Poissons Ratio (y) = 0.52296 0.84518
# Poissons Ratio (z) = 0.25787 0.30443
#
# Static dielectric constant tensor:
#      x y z
#    x 1.579640 0.000000 0.000000 
#    y 0.000000 1.541770 0.000000 
#    z 0.000000 0.000000 1.559350 
# 
# From -- ./inp_files/25041.got.cif
#   From: 2010.05.17/outbox.cif.g08.bks.cpg/sg65_13_cif.got.tgz:25041.got - 2010.06.03 17:01:31.
