data_PCOD9487394
_publ_section_title
;
Structure prediction by ZEFSAII (Michael W. Deem and Ramdas Pophale) SiO2 
 PCOD9487394
Probable space group: C M M M
;
_chemical_formula_sum "Si O2"
_cell_formula_units_Z 96
_cell_length_a 20.036056
_cell_length_b 14.773813
_cell_length_c 15.150872
_cell_angle_alpha 90.000000
_cell_angle_beta 90.000000
_cell_angle_gamma 90.000000
_cell_volume 4484.793631
_symmetry_space_group_name_H-M "C M M M"
_symmetry_group_IT_number 65
_symmetry_cell_setting 'orthorhombic'
loop_
_space_group_symop_operation_xyz
x,y,z
-x,-y,z
x,-y,-z
-x,y,-z
-x,-y,-z
x,y,-z
-x,y,z
x,-y,z
1/2+x,1/2+y,z
1/2-x,1/2-y,z
1/2+x,1/2-y,-z
1/2-x,1/2+y,-z
1/2-x,1/2-y,-z
1/2+x,1/2+y,-z
1/2-x,1/2+y,z
1/2+x,1/2-y,z
loop_
_atom_site_type_symbol
_atom_site_label
_atom_site_fract_x
_atom_site_fract_y
_atom_site_fract_z
Si Si1 0.923140 0.605419 0.650760
Si Si2 0.424092 0.640504 0.101625
Si Si3 0.685046 0.601640 0.241858
Si Si4 0.573217 0.855377 0.139813
Si Si5 0.220535 0.604805 0.094639
Si Si6 0.829071 0.231396 0.597029
O O1 0.906065 0.500000 0.634091
O O2 0.923409 0.622666 0.756212
O O3 0.871469 0.677029 0.611153
O O4 0.000000 0.620291 0.620515
O O5 0.500000 0.609447 0.113930
O O6 0.373464 0.598629 0.169997
O O7 0.423725 0.748322 0.120266
O O8 0.405240 0.624221 0.000000
O O9 0.702183 0.500000 0.272830
O O10 0.746777 0.642058 0.184339
O O11 0.661076 0.663053 0.322227
O O12 0.500000 0.887187 0.108519
O O13 0.640816 0.893374 0.099696
O O14 0.241875 0.500000 0.094385
O O15 0.241340 0.645279 0.000000
O O16 0.846606 0.194150 0.500000
O O17 0.750000 0.250000 0.597594
#
# Coordination Sequence:
#
# PCOD9487394 Si02
#       6
#    16  16  16  16  16  16
#     4  10  21  40  69 101 133 171 214 263 322 388
#     4  10  21  37  60  91 125 164 212 261 308 361
#     4  11  24  42  64  90 124 166 213 265 316 371
#     4  10  19  34  57  88 127 167 206 251 306 371
#     4  10  21  35  54  86 126 168 214 258 305 368
#     4  11  25  44  67  96 128 166 212 264 329 398
#
# _framework density 21.405667000000001
#
# number of rings (size 3 to 8) (size 9 to 14) (size 15 to 20)
#    0.000    1.667    1.667    2.500    0.000    6.333 
#    0.000    5.833    0.000    0.000    0.000    2.333 
#    0.000    0.000    0.000    0.000    0.000    0.000 
#
# Total GULP energy -268178.923903 kJ/mol
# GULP energy per Si atom -5587.060915 kJ/mol
# Density = 2.135695 g / cm^3
# Si number density = 21.405667 Si / 1000 Ang^3
#
#
#
# Elastic Constant Matrix: (Units=GPa)
#
#
# Indices 1 2 3 4 5 6 
#
# 1 121.6367 40.7706 54.8389 0.0000 0.0000 0.0000
# 2 40.7706 114.0331 48.6029 0.0000 0.0000 0.0000
# 3 54.8389 48.6029 132.1851 0.0000 0.0000 0.0000
# 4 0.0000 0.0000 0.0000 13.1692 0.0000 0.0000
# 5 0.0000 0.0000 0.0000 0.0000 20.4359 0.0000
# 6 0.0000 0.0000 0.0000 0.0000 0.0000 37.2053
#
#
#
# Elastic Compliance Matrix: (Units=1/GPa)
#
#
# Indices 1 2 3 4 5 6 
#
# 1 0.010585 -0.002268 -0.003557 0.000000 0.000000 0.000000
# 2 -0.002268 0.010885 -0.003061 0.000000 0.000000 0.000000
# 3 -0.003557 -0.003061 0.010167 0.000000 0.000000 0.000000
# 4 0.000000 0.000000 0.000000 0.075935 0.000000 0.000000
# 5 0.000000 0.000000 0.000000 0.000000 0.048933 0.000000
# 6 0.000000 0.000000 0.000000 0.000000 0.000000 0.026878
#
#
# Mechanical properties :
#
#
# Convention : Reuss Voigt Hill
#
# Bulk Modulus (GPa) = 72.13470 72.91996 72.52733
# Shear Modulus (GPa) = 24.29797 29.07158 26.68478
#
# Velocity S-wave (km/s) = 3.37281 3.68927 3.53458
# Velocity P-wave (km/s) = 6.99570 7.23100 7.11432
#
# Compressibility (1/GPa) = 0.01386295
#
# Stress axis : x y z
#
# Youngs Moduli (GPa) = 94.47008 91.86807 98.36134
#
# Poissons Ratio (x) = 0.20839 0.34991
# Poissons Ratio (y) = 0.21429 0.30111
# Poissons Ratio (z) = 0.33607 0.28123
#
# Static dielectric constant tensor:
#      x y z
#    x 1.794790 0.000000 0.000000 
#    y 0.000000 1.776070 0.000000 
#    z 0.000000 0.000000 1.789910 
# 
# From -- ./inp_files/40348.got.cif
#   From: 2010.05.17/outbox.cif.g08.bks.cpg/sg65_21_cif.got.tgz:40348.got - 2010.06.03 17:01:31.
