data_PCOD9487657
_publ_section_title
;
Structure prediction by ZEFSAII (Michael W. Deem and Ramdas Pophale) SiO2 
 PCOD9487657
Probable space group: C M M M
;
_chemical_formula_sum "Si O2"
_cell_formula_units_Z 80
_cell_length_a 19.099323
_cell_length_b 25.575106
_cell_length_c 7.866509
_cell_angle_alpha 90.000000
_cell_angle_beta 90.000000
_cell_angle_gamma 90.000000
_cell_volume 3842.531706
_symmetry_space_group_name_H-M "C M M M"
_symmetry_group_IT_number 65
_symmetry_cell_setting 'orthorhombic'
loop_
_space_group_symop_operation_xyz
x,y,z
-x,-y,z
x,-y,-z
-x,y,-z
-x,-y,-z
x,y,-z
-x,y,z
x,-y,z
1/2+x,1/2+y,z
1/2-x,1/2-y,z
1/2+x,1/2-y,-z
1/2-x,1/2+y,-z
1/2-x,1/2-y,-z
1/2+x,1/2+y,-z
1/2-x,1/2+y,z
1/2+x,1/2-y,z
loop_
_atom_site_type_symbol
_atom_site_label
_atom_site_fract_x
_atom_site_fract_y
_atom_site_fract_z
Si Si1 0.824365 0.901794 0.292648
Si Si2 0.419059 0.000000 0.204269
Si Si3 0.581504 0.500000 0.708345
Si Si4 0.834442 0.600756 0.301843
Si Si5 0.815272 0.216252 0.696910
Si Si6 0.420523 0.799796 0.802429
O O1 0.829691 0.902463 0.500000
O O2 0.877118 0.947422 0.235149
O O3 0.743877 0.913238 0.244471
O O4 0.832879 0.841459 0.233571
O O5 0.382265 0.050884 0.276038
O O6 0.500000 0.000000 0.249897
O O7 0.413062 0.000000 0.000000
O O8 0.500000 0.500000 0.760105
O O9 0.582474 0.500000 0.500000
O O10 0.829707 0.614848 0.500000
O O11 0.871398 0.649614 0.213969
O O12 0.795496 0.207063 0.500000
O O13 0.750000 0.250000 0.772781
O O14 0.882755 0.252824 0.706646
O O15 0.500000 0.810739 0.744149
O O16 0.423186 0.785153 0.000000
#
# Coordination Sequence:
#
# PCOD9487657 Si02
#       6
#    16   8   8  16  16  16
#     4   9  18  33  55  83 114 145 185 241 292 337
#     4  11  24  39  53  77 116 153 188 236 290 347
#     4   9  17  30  50  80 116 149 182 228 292 353
#     4  11  21  37  60  83 110 148 196 243 289 347
#     4  10  19  36  59  84 114 150 195 245 292 346
#     4  11  24  39  55  82 120 155 189 238 298 356
#
# _framework density 20.819607000000001
#
# number of rings (size 3 to 8) (size 9 to 14) (size 15 to 20)
#    0.000    1.800    2.000    2.700    0.000    7.600 
#    0.000    2.000    0.000    0.000    0.000    0.000 
#    0.000    8.000    0.000    0.000    0.000    0.000 
#
# Total GULP energy -223288.825585 kJ/mol
# GULP energy per Si atom -5582.220640 kJ/mol
# Density = 2.077222 g / cm^3
# Si number density = 20.819607 Si / 1000 Ang^3
#
#
#
# Elastic Constant Matrix: (Units=GPa)
#
#
# Indices 1 2 3 4 5 6 
#
# 1 164.8181 83.9444 12.8336 0.0000 0.0000 0.0000
# 2 83.9444 165.7731 10.5097 0.0000 0.0000 0.0000
# 3 12.8336 10.5097 21.7841 0.0000 0.0000 0.0000
# 4 0.0000 0.0000 0.0000 26.2298 0.0000 0.0000
# 5 0.0000 0.0000 0.0000 0.0000 33.6437 0.0000
# 6 0.0000 0.0000 0.0000 0.0000 0.0000 2326.7931
#
#
#
# Elastic Compliance Matrix: (Units=1/GPa)
#
#
# Indices 1 2 3 4 5 6 
#
# 1 0.008359 -0.004044 -0.002973 0.000000 0.000000 0.000000
# 2 -0.004044 0.008179 -0.001564 0.000000 0.000000 0.000000
# 3 -0.002973 -0.001564 0.048411 0.000000 0.000000 0.000000
# 4 0.000000 0.000000 0.000000 0.038125 0.000000 0.000000
# 5 0.000000 0.000000 0.000000 0.000000 0.029723 0.000000
# 6 0.000000 0.000000 0.000000 0.000000 0.000000 0.000430
#
#
# Mechanical properties :
#
#
# Convention : Reuss Voigt Hill
#
# Bulk Modulus (GPa) = 20.92615 62.99453 41.96034
# Shear Modulus (GPa) = 30.06301 493.67248 261.86774
#
# Velocity S-wave (km/s) = 3.80409 15.41537 11.22731
# Velocity P-wave (km/s) = 5.41921 18.63245 13.72108
#
# Compressibility (1/GPa) = 0.04778709
#
# Stress axis : x y z
#
# Youngs Moduli (GPa) = 119.63826 122.25940 20.65645
#
# Poissons Ratio (x) = 0.49443 0.06142
# Poissons Ratio (y) = 0.48383 0.03230
# Poissons Ratio (z) = 0.35571 0.19117
#
# Static dielectric constant tensor:
#      x y z
#    x 1.733110 0.000000 0.000000 
#    y 0.000000 1.724100 0.000000 
#    z 0.000000 0.000000 1.766850 
# 
# From -- ./inp_files/9729.got.cif
#   From: 2010.05.17/outbox.cif.g08.bks.cpg/sg65_5_cif.got.tgz:9729.got - 2010.06.03 17:01:31.
