data_PCOD9487763
_publ_section_title
;
Structure prediction by ZEFSAII (Michael W. Deem and Ramdas Pophale) SiO2 
 PCOD9487763
Probable space group: C M M M
;
_chemical_formula_sum "Si O2"
_cell_formula_units_Z 88
_cell_length_a 7.753051
_cell_length_b 27.283305
_cell_length_c 23.650397
_cell_angle_alpha 90.000000
_cell_angle_beta 90.000000
_cell_angle_gamma 90.000000
_cell_volume 5002.741400
_symmetry_space_group_name_H-M "C M M M"
_symmetry_group_IT_number 65
_symmetry_cell_setting 'orthorhombic'
loop_
_space_group_symop_operation_xyz
x,y,z
-x,-y,z
x,-y,-z
-x,y,-z
-x,-y,-z
x,y,-z
-x,y,z
x,-y,z
1/2+x,1/2+y,z
1/2-x,1/2-y,z
1/2+x,1/2-y,-z
1/2-x,1/2+y,-z
1/2-x,1/2-y,-z
1/2+x,1/2+y,-z
1/2-x,1/2+y,z
1/2+x,1/2-y,z
loop_
_atom_site_type_symbol
_atom_site_label
_atom_site_fract_x
_atom_site_fract_y
_atom_site_fract_z
Si Si1 0.793122 0.696067 0.320466
Si Si2 0.208981 0.406119 0.727934
Si Si3 0.797072 0.945935 0.607118
Si Si4 0.202699 0.341240 0.438348
Si Si5 0.500000 0.440226 0.935069
Si Si6 0.698611 0.940936 0.851685
O O1 0.750000 0.750000 0.299832
O O2 0.734861 0.649882 0.283426
O O3 0.723098 0.687144 0.384172
O O4 0.000000 0.692200 0.323216
O O5 0.273847 0.437101 0.674380
O O6 0.260164 0.424358 0.789616
O O7 0.000000 0.408851 0.725782
O O8 0.716121 0.899064 0.576332
O O9 0.000000 0.944858 0.594169
O O10 0.729033 0.000000 0.592226
O O11 0.279519 0.331151 0.500000
O O12 0.000000 0.329209 0.440929
O O13 0.500000 0.500000 0.935613
O O14 0.330484 0.424770 0.900186
O O15 0.500000 0.423858 0.000000
O O16 0.500000 0.924432 0.860193
O O17 0.696757 0.000000 0.851613
#
# Coordination Sequence:
#
# PCOD9487763 Si02
#       6
#    16  16  16  16   8  16
#     4   9  18  32  48  67  90 114 142 185 240 287
#     4   9  18  32  48  66  91 122 154 192 228 277
#     4  10  20  30  43  66  92 116 144 185 236 279
#     4   9  19  35  50  62  81 114 154 188 223 277
#     4   9  18  30  44  68 104 140 171 203 231 265
#     4   9  17  29  47  70  97 134 171 201 235 274
#
# _framework density 17.590354999999999
#
# number of rings (size 3 to 8) (size 9 to 14) (size 15 to 20)
#    0.000    2.818    0.000    2.182    1.273    6.545 
#    0.000    3.636    0.000    0.000    0.000    0.000 
#    0.000    0.727    0.364    0.000    0.000    0.000 
#
# Total GULP energy -245282.699006 kJ/mol
# GULP energy per Si atom -5574.606796 kJ/mol
# Density = 1.755032 g / cm^3
# Si number density = 17.590355 Si / 1000 Ang^3
#
#
#
# Elastic Constant Matrix: (Units=GPa)
#
#
# Indices 1 2 3 4 5 6 
#
# 1 42.9807 -6.0742 23.9145 0.0000 0.0000 0.0000
# 2 -6.0742 34.9576 -21.5877 0.0000 0.0000 0.0000
# 3 23.9145 -21.5877 70.1384 0.0000 0.0000 0.0000
# 4 0.0000 0.0000 0.0000 5.5898 0.0000 0.0000
# 5 0.0000 0.0000 0.0000 0.0000 31.0542 0.0000
# 6 0.0000 0.0000 0.0000 0.0000 0.0000 12.7471
#
#
#
# Elastic Compliance Matrix: (Units=1/GPa)
#
#
# Indices 1 2 3 4 5 6 
#
# 1 0.028762 -0.001307 -0.010209 0.000000 0.000000 0.000000
# 2 -0.001307 0.035379 0.011335 0.000000 0.000000 0.000000
# 3 -0.010209 0.011335 0.021227 0.000000 0.000000 0.000000
# 4 0.000000 0.000000 0.000000 0.178896 0.000000 0.000000
# 5 0.000000 0.000000 0.000000 0.000000 0.032202 0.000000
# 6 0.000000 0.000000 0.000000 0.000000 0.000000 0.078449
#
#
# Mechanical properties :
#
#
# Convention : Reuss Voigt Hill
#
# Bulk Modulus (GPa) = 11.76397 15.62021 13.69209
# Shear Modulus (GPa) = 12.38814 19.99984 16.19399
#
# Velocity S-wave (km/s) = 2.65666 3.37557 3.03746
# Velocity P-wave (km/s) = 4.01407 4.90835 4.48356
#
# Compressibility (1/GPa) = 0.08500535
#
# Stress axis : x y z
#
# Youngs Moduli (GPa) = 34.76838 28.26573 47.10982
#
# Poissons Ratio (x) = 0.03694 0.48094
# Poissons Ratio (y) = 0.04543 -0.53397
# Poissons Ratio (z) = 0.35495 -0.32038
#
# Static dielectric constant tensor:
#      x y z
#    x 1.647300 0.000000 0.000000 
#    y 0.000000 1.599540 0.000000 
#    z 0.000000 0.000000 1.594910 
# 
# From -- ./inp_files/59784.got.cif
#   From: 2010.05.17/outbox.cif.g08.bks.cpg/sg65_30_cif.got.tgz:59784.got - 2010.06.03 17:01:31.
