data_PCOD9487855
_publ_section_title
;
Structure prediction by ZEFSAII (Michael W. Deem and Ramdas Pophale) SiO2 
 PCOD9487855
Probable space group: C M M M
;
_chemical_formula_sum "Si O2"
_cell_formula_units_Z 96
_cell_length_a 28.645691
_cell_length_b 14.317976
_cell_length_c 14.719769
_cell_angle_alpha 90.000000
_cell_angle_beta 90.000000
_cell_angle_gamma 90.000000
_cell_volume 6037.288471
_symmetry_space_group_name_H-M "C M M M"
_symmetry_group_IT_number 65
_symmetry_cell_setting 'orthorhombic'
loop_
_space_group_symop_operation_xyz
x,y,z
-x,-y,z
x,-y,-z
-x,y,-z
-x,-y,-z
x,y,-z
-x,y,z
x,-y,z
1/2+x,1/2+y,z
1/2-x,1/2-y,z
1/2+x,1/2-y,-z
1/2-x,1/2+y,-z
1/2-x,1/2-y,-z
1/2+x,1/2+y,-z
1/2-x,1/2+y,z
1/2+x,1/2-y,z
loop_
_atom_site_type_symbol
_atom_site_label
_atom_site_fract_x
_atom_site_fract_y
_atom_site_fract_z
Si Si1 0.231996 0.146528 0.300391
Si Si2 0.446705 0.612650 0.302966
Si Si3 0.819064 0.394696 0.186971
Si Si4 0.195484 0.110414 0.500000
Si Si5 0.410667 0.386708 0.500000
Si Si6 0.359942 0.692653 0.195892
Si Si7 0.768412 0.388073 0.000000
Si Si8 0.660856 0.614600 0.000000
O O1 0.250000 0.250000 0.286972
O O2 0.275943 0.094581 0.257008
O O3 0.221748 0.133037 0.406596
O O4 0.183490 0.138468 0.245249
O O5 0.500000 0.635329 0.278686
O O6 0.441108 0.500000 0.295920
O O7 0.436554 0.639554 0.407630
O O8 0.407725 0.661686 0.242609
O O9 0.840182 0.500000 0.178206
O O10 0.850811 0.304217 0.209049
O O11 0.795661 0.364887 0.091303
O O12 0.142703 0.150082 0.500000
O O13 0.189918 0.000000 0.500000
O O14 0.409179 0.500000 0.500000
O O15 0.359995 0.658517 0.091717
O O16 0.715392 0.354869 0.000000
O O17 0.764856 0.500000 0.000000
O O18 0.657467 0.500000 0.000000
#
# Coordination Sequence:
#
# PCOD9487855 Si02
#       8
#    16  16  16   8   8  16   8   8
#     4  10  20  31  46  68  98 135 169 203 240 290
#     4  10  20  35  54  75  99 126 161 206 255 305
#     4  10  20  33  49  72 102 134 171 209 243 283
#     4  11  19  28  45  67  98 133 164 198 242 298
#     4   9  17  29  50  76  97 122 157 203 254 297
#     4  11  21  33  51  73  99 134 170 204 247 294
#     4   9  17  29  49  72  98 133 167 203 237 273
#     4  11  21  31  49  75 106 137 168 203 240 289
#
# _framework density 15.901178
#
# number of rings (size 3 to 8) (size 9 to 14) (size 15 to 20)
#    0.000    1.833    3.333    2.000    0.000    3.000 
#    0.000    0.417    0.000    2.000    0.000    0.000 
#    0.000    4.667    0.000    0.000    0.000    0.000 
#
# Total GULP energy -267400.379730 kJ/mol
# GULP energy per Si atom -5570.841244 kJ/mol
# Density = 1.586499 g / cm^3
# Si number density = 15.901178 Si / 1000 Ang^3
#
#
#
# Elastic Constant Matrix: (Units=GPa)
#
#
# Indices 1 2 3 4 5 6 
#
# 1 110.2792 36.1983 52.8920 0.0000 0.0000 0.0000
# 2 36.1983 78.9475 18.9830 0.0000 0.0000 0.0000
# 3 52.8920 18.9830 111.9543 0.0000 0.0000 0.0000
# 4 0.0000 0.0000 0.0000 20.5692 0.0000 0.0000
# 5 0.0000 0.0000 0.0000 0.0000 6.1360 0.0000
# 6 0.0000 0.0000 0.0000 0.0000 0.0000 23.8814
#
#
#
# Elastic Compliance Matrix: (Units=1/GPa)
#
#
# Indices 1 2 3 4 5 6 
#
# 1 0.013245 -0.004763 -0.005450 0.000000 0.000000 0.000000
# 2 -0.004763 0.014918 -0.000279 0.000000 0.000000 0.000000
# 3 -0.005450 -0.000279 0.011554 0.000000 0.000000 0.000000
# 4 0.000000 0.000000 0.000000 0.048616 0.000000 0.000000
# 5 0.000000 0.000000 0.000000 0.000000 0.162974 0.000000
# 6 0.000000 0.000000 0.000000 0.000000 0.000000 0.041874
#
#
# Mechanical properties :
#
#
# Convention : Reuss Voigt Hill
#
# Bulk Modulus (GPa) = 53.38141 57.48083 55.43112
# Shear Modulus (GPa) = 15.60505 22.99115 19.29810
#
# Velocity S-wave (km/s) = 3.13609 3.80659 3.48749
# Velocity P-wave (km/s) = 6.83791 7.45302 7.15208
#
# Compressibility (1/GPa) = 0.01873311
#
# Stress axis : x y z
#
# Youngs Moduli (GPa) = 75.49972 67.03531 86.54715
#
# Poissons Ratio (x) = 0.31926 0.47168
# Poissons Ratio (y) = 0.35957 0.02418
# Poissons Ratio (z) = 0.41147 0.01873
#
# Static dielectric constant tensor:
#      x y z
#    x 1.522030 0.000000 0.000000 
#    y 0.000000 1.586520 0.000000 
#    z 0.000000 0.000000 1.528010 
# 
# From -- ./inp_files/40749.got.cif
#   From: 2010.05.17/outbox.cif.g08.bks.cpg/sg65_21_cif.got.tgz:40749.got - 2010.06.03 17:01:31.
