data_PCOD9487718
_publ_section_title
;
Structure prediction by ZEFSAII (Michael W. Deem and Ramdas Pophale) SiO2 
 PCOD9487718
Probable space group: C M M M
;
_chemical_formula_sum "Si O2"
_cell_formula_units_Z 100
_cell_length_a 29.344401
_cell_length_b 22.674760
_cell_length_c 7.550120
_cell_angle_alpha 90.000000
_cell_angle_beta 90.000000
_cell_angle_gamma 90.000000
_cell_volume 5023.678083
_symmetry_space_group_name_H-M "C M M M"
_symmetry_group_IT_number 65
_symmetry_cell_setting 'orthorhombic'
loop_
_space_group_symop_operation_xyz
x,y,z
-x,-y,z
x,-y,-z
-x,y,-z
-x,-y,-z
x,y,-z
-x,y,z
x,-y,z
1/2+x,1/2+y,z
1/2-x,1/2-y,z
1/2+x,1/2-y,-z
1/2-x,1/2+y,-z
1/2-x,1/2-y,-z
1/2+x,1/2+y,-z
1/2-x,1/2+y,z
1/2+x,1/2-y,z
loop_
_atom_site_type_symbol
_atom_site_label
_atom_site_fract_x
_atom_site_fract_y
_atom_site_fract_z
Si Si1 0.339216 0.895225 0.791488
Si Si2 0.000000 0.894705 0.286960
Si Si3 0.743936 0.184985 0.202128
Si Si4 0.657766 0.325063 0.702974
Si Si5 0.099491 0.935591 0.206525
Si Si6 0.152092 0.500000 0.500000
Si Si7 0.098909 0.713462 0.284470
Si Si8 0.000000 0.757716 0.284173
O O1 0.294089 0.859036 0.726946
O O2 0.347287 0.948406 0.657108
O O3 0.380109 0.847639 0.779934
O O4 0.333354 0.912470 0.000000
O O5 0.045589 0.926019 0.223582
O O6 0.000000 0.826244 0.228894
O O7 0.000000 0.895443 0.500000
O O8 0.750000 0.250000 0.284652
O O9 0.794836 0.159727 0.204579
O O10 0.728541 0.195180 0.000000
O O11 0.669342 0.312302 0.500000
O O12 0.624089 0.380253 0.707578
O O13 0.631527 0.267580 0.774854
O O14 0.111778 0.000000 0.279368
O O15 0.111698 0.934326 0.000000
O O16 0.099370 0.713559 0.500000
O O17 0.047070 0.726989 0.228172
O O18 0.000000 0.757838 0.500000
#
# Coordination Sequence:
#
# PCOD9487718 Si02
#       8
#    16   8  16  16  16   4  16   8
#     4  11  24  43  70  99 131 172 217 263 323 388
#     4  11  20  36  59  84 114 157 211 265 307 371
#     4  10  21  38  62  94 128 162 201 257 318 376
#     4  11  22  35  61  90 123 163 214 266 320 372
#     4  11  24  40  54  76 117 170 216 261 314 371
#     4  12  26  48  70  95 134 172 218 263 322 382
#     4  10  19  37  63  96 130 167 203 265 329 381
#     4   9  18  34  60  93 133 158 195 253 334 386
#
# _framework density 19.905733000000001
#
# number of rings (size 3 to 8) (size 9 to 14) (size 15 to 20)
#    0.000    1.440    4.000    1.680    1.120    3.200 
#    1.440    0.400    0.000    0.960    0.000    1.120 
#    0.000    0.000    0.000    0.000    0.000    0.000 
#
# Total GULP energy -278710.892099 kJ/mol
# GULP energy per Si atom -5574.217842 kJ/mol
# Density = 1.986043 g / cm^3
# Si number density = 19.905733 Si / 1000 Ang^3
#
#
#
# Elastic Constant Matrix: (Units=GPa)
#
#
# Indices 1 2 3 4 5 6 
#
# 1 83.5123 37.7402 10.0356 0.0000 0.0000 0.0000
# 2 37.7402 156.2148 35.4125 0.0000 0.0000 0.0000
# 3 10.0356 35.4125 91.0453 0.0000 0.0000 0.0000
# 4 0.0000 0.0000 0.0000 32.9082 0.0000 0.0000
# 5 0.0000 0.0000 0.0000 0.0000 20.4352 0.0000
# 6 0.0000 0.0000 0.0000 0.0000 0.0000 2.4408
#
#
#
# Elastic Compliance Matrix: (Units=1/GPa)
#
#
# Indices 1 2 3 4 5 6 
#
# 1 0.013447 -0.003194 -0.000240 0.000000 0.000000 0.000000
# 2 -0.003194 0.007779 -0.002674 0.000000 0.000000 0.000000
# 3 -0.000240 -0.002674 0.012050 0.000000 0.000000 0.000000
# 4 0.000000 0.000000 0.000000 0.030388 0.000000 0.000000
# 5 0.000000 0.000000 0.000000 0.000000 0.048935 0.000000
# 6 0.000000 0.000000 0.000000 0.000000 0.000000 0.409703
#
#
# Mechanical properties :
#
#
# Convention : Reuss Voigt Hill
#
# Bulk Modulus (GPa) = 47.48244 55.23877 51.36060
# Shear Modulus (GPa) = 9.23297 27.66245 18.44771
#
# Velocity S-wave (km/s) = 2.15602 3.73188 3.04757
# Velocity P-wave (km/s) = 5.48665 6.81026 6.18397
#
# Compressibility (1/GPa) = 0.02106042
#
# Stress axis : x y z
#
# Youngs Moduli (GPa) = 74.36817 128.54724 82.98819
#
# Poissons Ratio (x) = 0.41061 0.01990
# Poissons Ratio (y) = 0.23755 0.22188
# Poissons Ratio (z) = 0.01783 0.34369
#
# Static dielectric constant tensor:
#      x y z
#    x 1.703760 0.000000 0.000000 
#    y 0.000000 1.688170 0.000000 
#    z 0.000000 0.000000 1.765100 
# 
# From -- ./inp_files/18716.got.cif
#   From: 2010.05.17/outbox.cif.g08.bks.cpg/sg65_10_cif.got.tgz:18716.got - 2010.06.03 17:01:31.
