data_PCOD9487528
_publ_section_title
;
Structure prediction by ZEFSAII (Michael W. Deem and Ramdas Pophale) SiO2 
 PCOD9487528
Probable space group: C M M M
;
_chemical_formula_sum "Si O2"
_cell_formula_units_Z 88
_cell_length_a 14.020855
_cell_length_b 18.492350
_cell_length_c 19.475559
_cell_angle_alpha 90.000000
_cell_angle_beta 90.000000
_cell_angle_gamma 90.000000
_cell_volume 5049.594853
_symmetry_space_group_name_H-M "C M M M"
_symmetry_group_IT_number 65
_symmetry_cell_setting 'orthorhombic'
loop_
_space_group_symop_operation_xyz
x,y,z
-x,-y,z
x,-y,-z
-x,y,-z
-x,-y,-z
x,y,-z
-x,y,z
x,-y,z
1/2+x,1/2+y,z
1/2-x,1/2-y,z
1/2+x,1/2-y,-z
1/2-x,1/2+y,-z
1/2-x,1/2-y,-z
1/2+x,1/2+y,-z
1/2-x,1/2+y,z
1/2+x,1/2-y,z
loop_
_atom_site_type_symbol
_atom_site_label
_atom_site_fract_x
_atom_site_fract_y
_atom_site_fract_z
Si Si1 0.109491 0.664893 0.665879
Si Si2 0.891218 0.290088 0.176390
Si Si3 0.205520 0.083530 0.319187
Si Si4 0.196704 0.865334 0.837604
Si Si5 0.387570 0.500000 0.081919
Si Si6 0.384937 0.302040 0.578160
O O1 0.114192 0.703799 0.740469
O O2 0.182501 0.599146 0.668287
O O3 0.140841 0.724145 0.610147
O O4 0.000000 0.643917 0.653843
O O5 0.862961 0.208838 0.155370
O O6 0.807550 0.343300 0.150858
O O7 0.000000 0.307458 0.156314
O O8 0.185759 0.107862 0.241011
O O9 0.151523 0.135409 0.371923
O O10 0.181332 0.000000 0.328190
O O11 0.160658 0.928763 0.886213
O O12 0.500000 0.500000 0.099710
O O13 0.378551 0.500000 0.000000
O O14 0.351543 0.310300 0.500000
O O15 0.500000 0.304059 0.578402
#
# Coordination Sequence:
#
# PCOD9487528 Si02
#       6
#    16  16  16  16   8  16
#     4   9  18  33  53  76 103 137 181 227 265 313
#     4   9  17  32  57  85 110 142 185 231 272 312
#     4  11  21  33  51  79 110 140 177 218 272 327
#     4  10  19  35  57  83 114 143 182 230 270 322
#     4  11  24  40  59  85 116 150 183 218 271 333
#     4  10  21  36  53  74 103 141 184 228 274 323
#
# _framework density 17.427140999999999
#
# number of rings (size 3 to 8) (size 9 to 14) (size 15 to 20)
#    0.000    2.091    2.727    1.091    0.000    3.273 
#    0.000    3.182    0.000    2.182    0.000    3.818 
#    0.000    0.000    0.000    0.000    0.000    0.000 
#
# Total GULP energy -245504.246610 kJ/mol
# GULP energy per Si atom -5579.641968 kJ/mol
# Density = 1.738748 g / cm^3
# Si number density = 17.427141 Si / 1000 Ang^3
#
#
#
# Elastic Constant Matrix: (Units=GPa)
#
#
# Indices 1 2 3 4 5 6 
#
# 1 87.7830 26.8917 42.8304 0.0000 0.0000 0.0000
# 2 26.8917 79.4718 42.2267 0.0000 0.0000 0.0000
# 3 42.8304 42.2267 66.0887 0.0000 0.0000 0.0000
# 4 0.0000 0.0000 0.0000 22.4072 0.0000 0.0000
# 5 0.0000 0.0000 0.0000 0.0000 17.9868 0.0000
# 6 0.0000 0.0000 0.0000 0.0000 0.0000 15.6340
#
#
#
# Elastic Compliance Matrix: (Units=1/GPa)
#
#
# Indices 1 2 3 4 5 6 
#
# 1 0.016661 0.000151 -0.010894 0.000000 0.000000 0.000000
# 2 0.000151 0.019052 -0.012271 0.000000 0.000000 0.000000
# 3 -0.010894 -0.012271 0.030031 0.000000 0.000000 0.000000
# 4 0.000000 0.000000 0.000000 0.044628 0.000000 0.000000
# 5 0.000000 0.000000 0.000000 0.000000 0.055596 0.000000
# 6 0.000000 0.000000 0.000000 0.000000 0.000000 0.063963
#
#
# Mechanical properties :
#
#
# Convention : Reuss Voigt Hill
#
# Bulk Modulus (GPa) = 50.71867 50.80458 50.76162
# Shear Modulus (GPa) = 17.69711 19.29857 18.49784
#
# Velocity S-wave (km/s) = 3.19013 3.33135 3.26151
# Velocity P-wave (km/s) = 6.53726 6.63423 6.58592
#
# Compressibility (1/GPa) = 0.01971661
#
# Stress axis : x y z
#
# Youngs Moduli (GPa) = 60.02141 52.48764 33.29857
#
# Poissons Ratio (x) = -0.00790 0.36274
# Poissons Ratio (y) = -0.00904 0.40860
# Poissons Ratio (z) = 0.65385 0.64406
#
# Static dielectric constant tensor:
#      x y z
#    x 1.626820 0.000000 0.000000 
#    y 0.000000 1.551100 0.000000 
#    z 0.000000 0.000000 1.571020 
# 
# From -- ./inp_files/52977.got.cif
#   From: 2010.05.17/outbox.cif.g08.bks.cpg/sg65_27_cif.got.tgz:52977.got - 2010.06.03 17:01:31.
