data_PCOD9487442
_publ_section_title
;
Structure prediction by ZEFSAII (Michael W. Deem and Ramdas Pophale) SiO2 
 PCOD9487442
Probable space group: C M M M
;
_chemical_formula_sum "Si O2"
_cell_formula_units_Z 88
_cell_length_a 25.000980
_cell_length_b 8.490378
_cell_length_c 22.272477
_cell_angle_alpha 90.000000
_cell_angle_beta 90.000000
_cell_angle_gamma 90.000000
_cell_volume 4727.729038
_symmetry_space_group_name_H-M "C M M M"
_symmetry_group_IT_number 65
_symmetry_cell_setting 'orthorhombic'
loop_
_space_group_symop_operation_xyz
x,y,z
-x,-y,z
x,-y,-z
-x,y,-z
-x,-y,-z
x,y,-z
-x,y,z
x,-y,z
1/2+x,1/2+y,z
1/2-x,1/2-y,z
1/2+x,1/2-y,-z
1/2-x,1/2+y,-z
1/2-x,1/2-y,-z
1/2+x,1/2+y,-z
1/2-x,1/2+y,z
1/2+x,1/2-y,z
loop_
_atom_site_type_symbol
_atom_site_label
_atom_site_fract_x
_atom_site_fract_y
_atom_site_fract_z
Si Si1 0.189412 0.809100 0.500000
Si Si2 0.904029 0.185911 0.852302
Si Si3 0.062434 0.687547 0.276943
Si Si4 0.113358 0.190797 0.609436
Si Si5 0.000000 0.178345 0.570676
Si Si6 0.310342 0.188997 0.068185
Si Si7 0.500000 0.815199 0.928689
O O1 0.250000 0.750000 0.500000
O O2 0.157914 0.757737 0.439024
O O3 0.189285 0.000000 0.500000
O O4 0.921001 0.268635 0.790456
O O5 0.848333 0.241107 0.880947
O O6 0.948457 0.233606 0.900797
O O7 0.903790 0.000000 0.842253
O O8 0.062006 0.500000 0.284382
O O9 0.107693 0.758675 0.321439
O O10 0.000000 0.743122 0.287725
O O11 0.055810 0.254458 0.587160
O O12 0.114028 0.000000 0.606598
O O13 0.000000 0.162054 0.500000
O O14 0.000000 0.000000 0.596826
O O15 0.250000 0.250000 0.074938
O O16 0.311447 0.000000 0.071698
O O17 0.328183 0.233355 0.000000
O O18 0.500000 0.000000 0.911670
O O19 0.500000 0.804704 0.000000
#
# Coordination Sequence:
#
# PCOD9487442 Si02
#       7
#     8  16  16  16   8  16   8
#     4  10  22  39  61  88 120 159 196 240 292 349
#     4  12  24  38  59  86 119 159 204 250 300 359
#     4  11  23  38  57  84 121 159 194 239 302 365
#     4  10  19  34  59  87 114 149 196 239 287 349
#     4   9  14  25  51  84 111 134 172 227 278 327
#     4  10  21  39  63  89 118 153 195 246 301 354
#     4  11  23  38  57  84 121 163 203 248 307 369
#
# _framework density 18.613588
#
# number of rings (size 3 to 8) (size 9 to 14) (size 15 to 20)
#    0.000    1.455    2.727    3.545    0.000    5.455 
#    0.000    0.909    0.000    3.818    0.000    0.000 
#    0.000    0.000    0.000    0.000    0.000    0.000 
#
# Total GULP energy -245400.425658 kJ/mol
# GULP energy per Si atom -5577.282401 kJ/mol
# Density = 1.857122 g / cm^3
# Si number density = 18.613588 Si / 1000 Ang^3
#
#
#
# Elastic Constant Matrix: (Units=GPa)
#
#
# Indices 1 2 3 4 5 6 
#
# 1 107.9172 17.4503 55.1481 0.0000 0.0000 0.0000
# 2 17.4503 38.6022 20.2382 0.0000 0.0000 0.0000
# 3 55.1481 20.2382 96.9522 0.0000 0.0000 0.0000
# 4 0.0000 0.0000 0.0000 19.3245 0.0000 0.0000
# 5 0.0000 0.0000 0.0000 0.0000 31.3736 0.0000
# 6 0.0000 0.0000 0.0000 0.0000 0.0000 34.2552
#
#
#
# Elastic Compliance Matrix: (Units=1/GPa)
#
#
# Indices 1 2 3 4 5 6 
#
# 1 0.013241 -0.002287 -0.007054 0.000000 0.000000 0.000000
# 2 -0.002287 0.029484 -0.004854 0.000000 0.000000 0.000000
# 3 -0.007054 -0.004854 0.015340 0.000000 0.000000 0.000000
# 4 0.000000 0.000000 0.000000 0.051748 0.000000 0.000000
# 5 0.000000 0.000000 0.000000 0.000000 0.031874 0.000000
# 6 0.000000 0.000000 0.000000 0.000000 0.000000 0.029193
#
#
# Mechanical properties :
#
#
# Convention : Reuss Voigt Hill
#
# Bulk Modulus (GPa) = 33.69861 47.68274 40.69068
# Shear Modulus (GPa) = 23.90497 27.03298 25.46898
#
# Velocity S-wave (km/s) = 3.58757 3.81507 3.70307
# Velocity P-wave (km/s) = 5.94176 6.71410 6.33970
#
# Compressibility (1/GPa) = 0.02967481
#
# Stress axis : x y z
#
# Youngs Moduli (GPa) = 75.52217 33.91683 65.18845
#
# Poissons Ratio (x) = 0.07758 0.45986
# Poissons Ratio (y) = 0.17274 0.31640
# Poissons Ratio (z) = 0.53276 0.16462
#
# Static dielectric constant tensor:
#      x y z
#    x 1.645120 0.000000 0.000000 
#    y 0.000000 1.655350 0.000000 
#    z 0.000000 0.000000 1.680300 
# 
# From -- ./inp_files/65219.got.cif
#   From: 2010.05.17/outbox.cif.g08.bks.cpg/sg65_33_cif.got.tgz:65219.got - 2010.06.03 17:01:31.
