data_PCOD9487474
_publ_section_title
;
Structure prediction by ZEFSAII (Michael W. Deem and Ramdas Pophale) SiO2 
 PCOD9487474
Probable space group: C M M M
;
_chemical_formula_sum "Si O2"
_cell_formula_units_Z 88
_cell_length_a 23.783649
_cell_length_b 7.464509
_cell_length_c 24.657076
_cell_angle_alpha 90.000000
_cell_angle_beta 90.000000
_cell_angle_gamma 90.000000
_cell_volume 4377.451134
_symmetry_space_group_name_H-M "C M M M"
_symmetry_group_IT_number 65
_symmetry_cell_setting 'orthorhombic'
loop_
_space_group_symop_operation_xyz
x,y,z
-x,-y,z
x,-y,-z
-x,y,-z
-x,-y,-z
x,y,-z
-x,y,z
x,-y,z
1/2+x,1/2+y,z
1/2-x,1/2-y,z
1/2+x,1/2-y,-z
1/2-x,1/2+y,-z
1/2-x,1/2-y,-z
1/2+x,1/2+y,-z
1/2-x,1/2+y,z
1/2+x,1/2-y,z
loop_
_atom_site_type_symbol
_atom_site_label
_atom_site_fract_x
_atom_site_fract_y
_atom_site_fract_z
Si Si1 0.902077 0.205383 0.140774
Si Si2 0.000000 0.780750 0.062941
Si Si3 0.000000 0.716987 0.778021
Si Si4 0.379910 0.707640 0.665749
Si Si5 0.000000 0.798587 0.345580
Si Si6 0.183398 0.215381 0.774216
Si Si7 0.816124 0.287402 0.441461
O O1 0.945935 0.214147 0.190284
O O2 0.846258 0.282446 0.169894
O O3 0.942459 0.281778 0.093031
O O4 0.889530 0.000000 0.124964
O O5 0.000000 0.000000 0.067878
O O6 0.000000 0.733917 0.000000
O O7 0.000000 0.500000 0.776486
O O8 0.000000 0.798750 0.719390
O O9 0.392716 0.500000 0.678644
O O10 0.439168 0.788996 0.645268
O O11 0.349288 0.782067 0.719786
O O12 0.340331 0.711002 0.613748
O O13 0.000000 0.000000 0.369756
O O14 0.250000 0.250000 0.771235
O O15 0.176834 0.000000 0.774859
O O16 0.838660 0.221084 0.500000
O O17 0.825112 0.500000 0.439618
O O18 0.750000 0.250000 0.441672
#
# Coordination Sequence:
#
# PCOD9487474 Si02
#       7
#    16   8   8  16   8  16  16
#     4   9  17  32  50  68 102 139 163 201 254 302
#     4   8  14  26  52  83  98 119 171 224 252 283
#     4  11  19  27  46  75 100 127 164 201 237 286
#     4  10  20  34  54  76  99 130 168 207 251 306
#     4  10  19  35  53  71 101 135 163 196 247 305
#     4  10  20  32  48  71 100 136 168 203 252 300
#     4  10  21  37  56  76 100 131 168 211 257 301
#
# _framework density 20.103024000000001
#
# number of rings (size 3 to 8) (size 9 to 14) (size 15 to 20)
#    0.000    2.273    1.818    2.455    0.000    4.727 
#    0.000    0.455    0.000    7.636    0.000    0.000 
#    0.000    0.000    0.000    0.000    0.000    0.000 
#
# Total GULP energy -244953.674224 kJ/mol
# GULP energy per Si atom -5567.128960 kJ/mol
# Density = 2.005727 g / cm^3
# Si number density = 20.103024 Si / 1000 Ang^3
#
#
#
# Elastic Constant Matrix: (Units=GPa)
#
#
# Indices 1 2 3 4 5 6 
#
# 1 135.2171 -3.0038 54.1567 0.0000 0.0000 0.0000
# 2 -3.0038 73.8354 0.3413 0.0000 0.0000 0.0000
# 3 54.1567 0.3413 125.4081 0.0000 0.0000 0.0000
# 4 0.0000 0.0000 0.0000 5.9813 0.0000 0.0000
# 5 0.0000 0.0000 0.0000 0.0000 -5.7949 0.0000
# 6 0.0000 0.0000 0.0000 0.0000 0.0000 -1.2833
#
#
#
# Elastic Compliance Matrix: (Units=1/GPa)
#
#
# Indices 1 2 3 4 5 6 
#
# 1 0.008953 0.000382 -0.003867 0.000000 0.000000 0.000000
# 2 0.000382 0.013560 -0.000202 0.000000 0.000000 0.000000
# 3 -0.003867 -0.000202 0.009645 0.000000 0.000000 0.000000
# 4 0.000000 0.000000 0.000000 0.167188 0.000000 0.000000
# 5 0.000000 0.000000 0.000000 0.000000 -0.172566 0.000000
# 6 0.000000 0.000000 0.000000 0.000000 0.000000 -0.779231
#
#
# Mechanical properties :
#
#
# Convention : Reuss Voigt Hill
#
# Bulk Modulus (GPa) = 40.34960 48.60545 44.47752
# Shear Modulus (GPa) = -6.78596 18.64504 5.92954
#
# Velocity S-wave (km/s) = -1.83927 3.04875 1.71930
# Velocity P-wave (km/s) = 3.95024 6.05176 5.11020
#
# Compressibility (1/GPa) = 0.02478340
#
# Stress axis : x y z
#
# Youngs Moduli (GPa) = 111.69534 73.74566 103.68510
#
# Poissons Ratio (x) = -0.02818 0.40098
# Poissons Ratio (y) = -0.04268 0.02094
# Poissons Ratio (z) = 0.43196 0.01489
#
# Static dielectric constant tensor:
#      x y z
#    x 1.780540 0.000000 0.000000 
#    y 0.000000 3.256990 0.000000 
#    z 0.000000 0.000000 1.692960 
# 
# From -- ./inp_files/71078.got.cif
#   From: 2010.05.17/outbox.cif.g08.bks.cpg/sg65_36_cif.got.tgz:71078.got - 2010.06.03 17:01:31.
