data_PCOD9487502
_publ_section_title
;
Structure prediction by ZEFSAII (Michael W. Deem and Ramdas Pophale) SiO2 
 PCOD9487502
Probable space group: C M M M
;
_chemical_formula_sum "Si O2"
_cell_formula_units_Z 96
_cell_length_a 17.828748
_cell_length_b 24.647181
_cell_length_c 12.452764
_cell_angle_alpha 90.000000
_cell_angle_beta 90.000000
_cell_angle_gamma 90.000000
_cell_volume 5472.097898
_symmetry_space_group_name_H-M "C M M M"
_symmetry_group_IT_number 65
_symmetry_cell_setting 'orthorhombic'
loop_
_space_group_symop_operation_xyz
x,y,z
-x,-y,z
x,-y,-z
-x,y,-z
-x,-y,-z
x,y,-z
-x,y,z
x,-y,z
1/2+x,1/2+y,z
1/2-x,1/2-y,z
1/2+x,1/2-y,-z
1/2-x,1/2+y,-z
1/2-x,1/2-y,-z
1/2+x,1/2+y,-z
1/2-x,1/2+y,z
1/2+x,1/2-y,z
loop_
_atom_site_type_symbol
_atom_site_label
_atom_site_fract_x
_atom_site_fract_y
_atom_site_fract_z
Si Si1 0.408882 0.938140 0.500000
Si Si2 0.161383 0.741648 0.372778
Si Si3 0.912242 0.857176 0.371445
Si Si4 0.588140 0.865714 0.296313
Si Si5 0.085171 0.934137 0.000000
Si Si6 0.327658 0.564254 0.215117
Si Si7 0.339461 0.936836 0.127474
O O1 0.500000 0.940361 0.500000
O O2 0.386622 0.905474 0.606507
O O3 0.380961 0.000000 0.500000
O O4 0.148378 0.730538 0.500000
O O5 0.250000 0.750000 0.357476
O O6 0.117020 0.796679 0.345802
O O7 0.132030 0.690366 0.307325
O O8 0.906215 0.863767 0.500000
O O9 0.859834 0.900203 0.311371
O O10 0.000000 0.863728 0.341843
O O11 0.500000 0.855176 0.310809
O O12 0.603648 0.896850 0.185890
O O13 0.127834 0.918343 0.892182
O O14 0.000000 0.914823 0.000000
O O15 0.084871 0.000000 0.000000
O O16 0.340926 0.500000 0.233673
O O17 0.240333 0.570989 0.186739
O O18 0.361606 0.000000 0.141642
O O19 0.331151 0.927504 0.000000
#
# Coordination Sequence:
#
# PCOD9487502 Si02
#       7
#     8  16  16  16   8  16  16
#     4   9  18  32  51  82 118 144 175 226 282 329
#     4  10  20  36  58  83 111 149 192 232 275 337
#     4  10  21  35  54  82 116 149 184 230 282 340
#     4  11  21  35  59  85 113 149 188 232 281 335
#     4   9  16  28  52  80 100 133 189 237 275 325
#     4  10  19  35  56  79 112 151 188 232 283 336
#     4  10  21  38  58  81 113 151 190 233 283 339
#
# _framework density 17.543545999999999
#
# number of rings (size 3 to 8) (size 9 to 14) (size 15 to 20)
#    0.000    2.000    1.667    2.500    0.000    3.333 
#    1.500    1.667    1.833    1.500    0.000    0.000 
#    0.000    0.000    0.000    0.000    0.000    0.000 
#
# Total GULP energy -267915.923912 kJ/mol
# GULP energy per Si atom -5581.581748 kJ/mol
# Density = 1.750362 g / cm^3
# Si number density = 17.543546 Si / 1000 Ang^3
#
#
#
# Elastic Constant Matrix: (Units=GPa)
#
#
# Indices 1 2 3 4 5 6 
#
# 1 35.5301 27.6488 18.4254 0.0000 0.0000 0.0000
# 2 27.6488 94.6485 48.2075 0.0000 0.0000 0.0000
# 3 18.4254 48.2075 60.3835 0.0000 0.0000 0.0000
# 4 0.0000 0.0000 0.0000 9.9221 0.0000 0.0000
# 5 0.0000 0.0000 0.0000 0.0000 30.1357 0.0000
# 6 0.0000 0.0000 0.0000 0.0000 0.0000 22.4972
#
#
#
# Elastic Compliance Matrix: (Units=1/GPa)
#
#
# Indices 1 2 3 4 5 6 
#
# 1 0.037138 -0.008556 -0.004502 0.000000 0.000000 0.000000
# 2 -0.008556 0.019777 -0.013178 0.000000 0.000000 0.000000
# 3 -0.004502 -0.013178 0.028455 0.000000 0.000000 0.000000
# 4 0.000000 0.000000 0.000000 0.100785 0.000000 0.000000
# 5 0.000000 0.000000 0.000000 0.000000 0.033183 0.000000
# 6 0.000000 0.000000 0.000000 0.000000 0.000000 0.044450
#
#
# Mechanical properties :
#
#
# Convention : Reuss Voigt Hill
#
# Bulk Modulus (GPa) = 30.39652 42.12506 36.26079
# Shear Modulus (GPa) = 15.27999 18.92970 17.10484
#
# Velocity S-wave (km/s) = 2.95443 3.28840 3.12588
# Velocity P-wave (km/s) = 5.38536 6.20338 5.80879
#
# Compressibility (1/GPa) = 0.03289850
#
# Stress axis : x y z
#
# Youngs Moduli (GPa) = 26.92687 50.56430 35.14286
#
# Poissons Ratio (x) = 0.43262 0.15820
# Poissons Ratio (y) = 0.23038 0.46312
# Poissons Ratio (z) = 0.12121 0.66635
#
# Static dielectric constant tensor:
#      x y z
#    x 1.601500 0.000000 0.000000 
#    y 0.000000 1.571600 0.000000 
#    z 0.000000 0.000000 1.584210 
# 
# From -- ./inp_files/29064.got.cif
#   From: 2010.05.17/outbox.cif.g08.bks.cpg/sg65_15_cif.got.tgz:29064.got - 2010.06.03 17:01:31.
