data_PCOD9487619
_publ_section_title
;
Structure prediction by ZEFSAII (Michael W. Deem and Ramdas Pophale) SiO2 
 PCOD9487619
Probable space group: C M M M
;
_chemical_formula_sum "Si O2"
_cell_formula_units_Z 48
_cell_length_a 39.216577
_cell_length_b 7.779743
_cell_length_c 7.848909
_cell_angle_alpha 90.000000
_cell_angle_beta 90.000000
_cell_angle_gamma 90.000000
_cell_volume 2394.662031
_symmetry_space_group_name_H-M "C M M M"
_symmetry_group_IT_number 65
_symmetry_cell_setting 'orthorhombic'
loop_
_space_group_symop_operation_xyz
x,y,z
-x,-y,z
x,-y,-z
-x,y,-z
-x,-y,-z
x,y,-z
-x,y,z
x,-y,z
1/2+x,1/2+y,z
1/2-x,1/2-y,z
1/2+x,1/2-y,-z
1/2-x,1/2+y,-z
1/2-x,1/2-y,-z
1/2+x,1/2+y,-z
1/2-x,1/2+y,z
1/2+x,1/2-y,z
loop_
_atom_site_type_symbol
_atom_site_label
_atom_site_fract_x
_atom_site_fract_y
_atom_site_fract_z
Si Si1 0.337052 0.710458 0.192980
Si Si2 0.461642 0.204255 0.000000
Si Si3 0.587647 0.293515 0.691105
Si Si4 0.710389 0.293369 0.500000
O O1 0.337179 0.500000 0.193492
O O2 0.374967 0.766677 0.248446
O O3 0.309575 0.768500 0.331909
O O4 0.329856 0.765499 0.000000
O O5 0.440408 0.253294 0.832334
O O6 0.500000 0.277075 0.000000
O O7 0.464061 0.000000 0.000000
O O8 0.580099 0.229621 0.500000
O O9 0.589851 0.500000 0.682477
O O10 0.707451 0.500000 0.500000
O O11 0.750000 0.250000 0.500000
#
# Coordination Sequence:
#
# PCOD9487619 Si02
#       4
#    16   8  16   8
#     4   9  16  30  56  82 104 138 181 225 275 329
#     4  11  25  41  55  79 120 161 186 217 280 351
#     4  10  19  35  63  91 109 137 191 246 284 325
#     4  10  20  34  52  78 111 144 179 221 276 333
#
# _framework density 20.044584
#
# number of rings (size 3 to 8) (size 9 to 14) (size 15 to 20)
#    0.000    2.167    3.333    0.500    0.000    3.333 
#    0.000    5.000    0.000    0.000    0.000    0.000 
#    0.000    0.000    0.000    0.000    0.000    0.000 
#
# Total GULP energy -134006.061592 kJ/mol
# GULP energy per Si atom -5583.585900 kJ/mol
# Density = 1.999896 g / cm^3
# Si number density = 20.044584 Si / 1000 Ang^3
#
#
#
# Elastic Constant Matrix: (Units=GPa)
#
#
# Indices 1 2 3 4 5 6 
#
# 1 206.3534 3.9677 139.0074 0.0000 0.0000 0.0000
# 2 3.9677 25.7296 11.1534 0.0000 0.0000 0.0000
# 3 139.0074 11.1534 257.5010 0.0000 0.0000 0.0000
# 4 0.0000 0.0000 0.0000 -4.0684 0.0000 0.0000
# 5 0.0000 0.0000 0.0000 0.0000 35.8510 0.0000
# 6 0.0000 0.0000 0.0000 0.0000 0.0000 22.4598
#
#
#
# Elastic Compliance Matrix: (Units=1/GPa)
#
#
# Indices 1 2 3 4 5 6 
#
# 1 0.007625 0.000620 -0.004143 0.000000 0.000000 0.000000
# 2 0.000620 0.039660 -0.002053 0.000000 0.000000 0.000000
# 3 -0.004143 -0.002053 0.006209 0.000000 0.000000 0.000000
# 4 0.000000 0.000000 0.000000 -0.245799 0.000000 0.000000
# 5 0.000000 0.000000 0.000000 0.000000 0.027893 0.000000
# 6 0.000000 0.000000 0.000000 0.000000 0.000000 0.044524
#
#
# Mechanical properties :
#
#
# Convention : Reuss Voigt Hill
#
# Bulk Modulus (GPa) = 23.61673 88.64898 56.13286
# Shear Modulus (GPa) = -52.84160 33.21219 -9.81471
#
# Velocity S-wave (km/s) = -5.13997 4.07494 -2.21519
# Velocity P-wave (km/s) = 4.83922 8.15243 4.63919
#
# Compressibility (1/GPa) = 0.04234286
#
# Stress axis : x y z
#
# Youngs Moduli (GPa) = 131.14576 25.21434 161.05689
#
# Poissons Ratio (x) = -0.01564 0.66728
# Poissons Ratio (y) = -0.08133 0.33059
# Poissons Ratio (z) = 0.54336 0.05176
#
# Static dielectric constant tensor:
#      x y z
#    x 1.678680 0.000000 0.000000 
#    y 0.000000 1.742210 0.000000 
#    z 0.000000 0.000000 1.569300 
# 
# From -- ./inp_files/17540.got.cif
#   From: 2010.05.17/outbox.cif.g08.bks.cpg/sg65_9_cif.got.tgz:17540.got - 2010.06.03 17:01:31.
