data_PCOD9487147
_publ_section_title
;
Structure prediction by ZEFSAII (Michael W. Deem and Ramdas Pophale) SiO2 
 PCOD9487147
Probable space group: C M M M
;
_chemical_formula_sum "Si O2"
_cell_formula_units_Z 104
_cell_length_a 29.217715
_cell_length_b 8.302454
_cell_length_c 24.577042
_cell_angle_alpha 90.000000
_cell_angle_beta 90.000000
_cell_angle_gamma 90.000000
_cell_volume 5961.867753
_symmetry_space_group_name_H-M "C M M M"
_symmetry_group_IT_number 65
_symmetry_cell_setting 'orthorhombic'
loop_
_space_group_symop_operation_xyz
x,y,z
-x,-y,z
x,-y,-z
-x,y,-z
-x,-y,-z
x,y,-z
-x,y,z
x,-y,z
1/2+x,1/2+y,z
1/2-x,1/2-y,z
1/2+x,1/2-y,-z
1/2-x,1/2+y,-z
1/2-x,1/2-y,-z
1/2+x,1/2+y,-z
1/2-x,1/2+y,z
1/2+x,1/2-y,z
loop_
_atom_site_type_symbol
_atom_site_label
_atom_site_fract_x
_atom_site_fract_y
_atom_site_fract_z
Si Si1 0.700356 0.693123 0.160088
Si Si2 0.389686 0.812837 0.338226
Si Si3 0.700852 0.690913 0.715615
Si Si4 0.898846 0.192870 0.121069
Si Si5 0.552012 0.306055 0.438415
Si Si6 0.447195 0.689967 0.761850
Si Si7 0.946423 0.500000 0.065176
O O1 0.701372 0.500000 0.162595
O O2 0.750000 0.750000 0.139981
O O3 0.694574 0.755921 0.222344
O O4 0.655205 0.732528 0.125738
O O5 0.341444 0.736362 0.321776
O O6 0.413047 0.746557 0.392451
O O7 0.423308 0.781217 0.287319
O O8 0.382354 0.000000 0.345132
O O9 0.702202 0.500000 0.719963
O O10 0.750000 0.750000 0.695542
O O11 0.919867 0.206492 0.181847
O O12 0.923293 0.333684 0.086672
O O13 0.904476 0.000000 0.105277
O O14 0.563071 0.251854 0.500000
O O15 0.500000 0.251213 0.425526
O O16 0.551148 0.500000 0.439008
O O17 0.500000 0.737923 0.769292
O O18 0.446056 0.500000 0.747586
O O19 0.000000 0.500000 0.081702
O O20 0.943907 0.500000 0.000000
#
# Coordination Sequence:
#
# PCOD9487147 Si02
#       7
#    16  16  16  16  16  16   8
#     4   9  18  31  54  86 116 150 190 232 289 352
#     4  12  23  32  49  79 113 147 183 225 282 340
#     4  10  19  34  52  75 111 145 180 223 272 334
#     4  10  21  39  61  88 119 156 196 242 296 350
#     4   9  19  37  58  76  99 140 191 237 282 334
#     4  10  20  34  52  76 111 151 186 227 283 340
#     4  11  26  44  64  90 118 158 205 247 294 344
#
# _framework density 17.444198
#
# number of rings (size 3 to 8) (size 9 to 14) (size 15 to 20)
#    0.000    1.923    1.538    3.231    2.154    4.615 
#    0.000    1.538    0.000    0.923    0.000    0.000 
#    0.000    0.000    0.000    0.000    0.000    0.000 
#
# Total GULP energy -290052.907776 kJ/mol
# GULP energy per Si atom -5577.940534 kJ/mol
# Density = 1.740449 g / cm^3
# Si number density = 17.444198 Si / 1000 Ang^3
#
#
#
# Elastic Constant Matrix: (Units=GPa)
#
#
# Indices 1 2 3 4 5 6 
#
# 1 151.6118 50.4666 44.7372 0.0000 0.0000 0.0000
# 2 50.4666 65.2364 35.8537 0.0000 0.0000 0.0000
# 3 44.7372 35.8537 53.3256 0.0000 0.0000 0.0000
# 4 0.0000 0.0000 0.0000 35.6421 0.0000 0.0000
# 5 0.0000 0.0000 0.0000 0.0000 7.1363 0.0000
# 6 0.0000 0.0000 0.0000 0.0000 0.0000 31.2838
#
#
#
# Elastic Compliance Matrix: (Units=1/GPa)
#
#
# Indices 1 2 3 4 5 6 
#
# 1 0.009618 -0.004767 -0.004863 0.000000 0.000000 0.000000
# 2 -0.004767 0.026676 -0.013936 0.000000 0.000000 0.000000
# 3 -0.004863 -0.013936 0.032203 0.000000 0.000000 0.000000
# 4 0.000000 0.000000 0.000000 0.028057 0.000000 0.000000
# 5 0.000000 0.000000 0.000000 0.000000 0.140128 0.000000
# 6 0.000000 0.000000 0.000000 0.000000 0.000000 0.031965
#
#
# Mechanical properties :
#
#
# Convention : Reuss Voigt Hill
#
# Bulk Modulus (GPa) = 46.81033 59.14321 52.97677
# Shear Modulus (GPa) = 15.48457 24.08686 19.78572
#
# Velocity S-wave (km/s) = 2.98260 3.71994 3.37149
# Velocity P-wave (km/s) = 6.22525 7.24075 6.75212
#
# Compressibility (1/GPa) = 0.02136281
#
# Stress axis : x y z
#
# Youngs Moduli (GPa) = 103.97409 37.48657 31.05296
#
# Poissons Ratio (x) = 0.17871 0.15102
# Poissons Ratio (y) = 0.49568 0.43276
# Poissons Ratio (z) = 0.50567 0.52243
#
# Static dielectric constant tensor:
#      x y z
#    x 1.597430 0.000000 0.000000 
#    y 0.000000 1.601770 0.000000 
#    z 0.000000 0.000000 1.594940 
# 
# From -- ./inp_files/65875.got.cif
#   From: 2010.05.17/outbox.cif.g08.bks.cpg/sg65_33_cif.got.tgz:65875.got - 2010.06.03 17:01:31.
