data_PCOD9487313
_publ_section_title
;
Structure prediction by ZEFSAII (Michael W. Deem and Ramdas Pophale) SiO2 
 PCOD9487313
Probable space group: C M M M
;
_chemical_formula_sum "Si O2"
_cell_formula_units_Z 80
_cell_length_a 23.848908
_cell_length_b 8.392708
_cell_length_c 21.549370
_cell_angle_alpha 90.000000
_cell_angle_beta 90.000000
_cell_angle_gamma 90.000000
_cell_volume 4313.255548
_symmetry_space_group_name_H-M "C M M M"
_symmetry_group_IT_number 65
_symmetry_cell_setting 'orthorhombic'
loop_
_space_group_symop_operation_xyz
x,y,z
-x,-y,z
x,-y,-z
-x,y,-z
-x,-y,-z
x,y,-z
-x,y,z
x,-y,z
1/2+x,1/2+y,z
1/2-x,1/2-y,z
1/2+x,1/2-y,-z
1/2-x,1/2+y,-z
1/2-x,1/2-y,-z
1/2+x,1/2+y,-z
1/2-x,1/2+y,z
1/2+x,1/2-y,z
loop_
_atom_site_type_symbol
_atom_site_label
_atom_site_fract_x
_atom_site_fract_y
_atom_site_fract_z
Si Si1 0.123258 0.807132 0.379536
Si Si2 0.185971 0.810155 0.746689
Si Si3 0.000000 0.821136 0.617261
Si Si4 0.000000 0.694876 0.927623
Si Si5 0.097806 0.317650 0.838983
Si Si6 0.812794 0.309895 0.500000
Si Si7 0.000000 0.326478 0.261232
O O1 0.151363 0.751480 0.314651
O O2 0.159781 0.758165 0.437786
O O3 0.060412 0.745283 0.394688
O O4 0.118963 0.000000 0.375391
O O5 0.250000 0.750000 0.745931
O O6 0.152294 0.763798 0.809359
O O7 0.187393 0.000000 0.742529
O O8 0.000000 0.818794 0.692136
O O9 0.000000 0.000000 0.590885
O O10 0.942348 0.749964 0.893791
O O11 0.000000 0.500000 0.920290
O O12 0.000000 0.733056 0.000000
O O13 0.112680 0.500000 0.855456
O O14 0.053692 0.320759 0.782354
O O15 0.750000 0.250000 0.500000
O O16 0.683733 0.000000 0.500000
O O17 0.000000 0.500000 0.293637
#
# Coordination Sequence:
#
# PCOD9487313 Si02
#       7
#    16  16   8   8  16   8   8
#     4  10  22  39  59  82 109 141 179 221 274 332
#     4  11  22  35  54  79 109 144 184 229 275 325
#     4  10  19  34  56  81 108 136 168 210 265 323
#     4   8  15  30  55  86 117 149 183 219 265 323
#     4   9  17  30  51  80 112 144 179 219 266 315
#     4  12  26  43  62  79 103 140 184 230 275 326
#     4   9  16  27  47  76 108 138 165 205 257 311
#
# _framework density 18.547474000000001
#
# number of rings (size 3 to 8) (size 9 to 14) (size 15 to 20)
#    0.000    2.100    2.000    3.300    0.000    4.400 
#    0.000    3.500    0.000    1.800    0.000    0.000 
#    0.000    0.000    0.000    0.000    0.000    0.000 
#
# Total GULP energy -222763.600533 kJ/mol
# GULP energy per Si atom -5569.090013 kJ/mol
# Density = 1.850526 g / cm^3
# Si number density = 18.547474 Si / 1000 Ang^3
#
#
#
# Elastic Constant Matrix: (Units=GPa)
#
#
# Indices 1 2 3 4 5 6 
#
# 1 177.2655 20.0589 64.3777 0.0000 0.0000 0.0000
# 2 20.0589 19.6709 8.3657 0.0000 0.0000 0.0000
# 3 64.3777 8.3657 104.8173 0.0000 0.0000 0.0000
# 4 0.0000 0.0000 0.0000 15.0280 0.0000 0.0000
# 5 0.0000 0.0000 0.0000 0.0000 -10.3914 0.0000
# 6 0.0000 0.0000 0.0000 0.0000 0.0000 -6.6349
#
#
#
# Elastic Compliance Matrix: (Units=1/GPa)
#
#
# Indices 1 2 3 4 5 6 
#
# 1 0.007936 -0.006231 -0.004377 0.000000 0.000000 0.000000
# 2 -0.006231 0.057515 -0.000763 0.000000 0.000000 0.000000
# 3 -0.004377 -0.000763 0.012290 0.000000 0.000000 0.000000
# 4 0.000000 0.000000 0.000000 0.066542 0.000000 0.000000
# 5 0.000000 0.000000 0.000000 0.000000 -0.096233 0.000000
# 6 0.000000 0.000000 0.000000 0.000000 0.000000 -0.150718
#
#
# Mechanical properties :
#
#
# Convention : Reuss Voigt Hill
#
# Bulk Modulus (GPa) = 18.18243 54.15090 36.16667
# Shear Modulus (GPa) = -81.17802 13.53043 -33.82379
#
# Velocity S-wave (km/s) = -6.62289 2.70386 -4.27503
# Velocity P-wave (km/s) = 6.97561 6.24556 2.19683
#
# Compressibility (1/GPa) = 0.05499815
#
# Stress axis : x y z
#
# Youngs Moduli (GPa) = 126.00999 17.38672 81.37004
#
# Poissons Ratio (x) = 0.10834 0.35614
# Poissons Ratio (y) = 0.78517 0.06211
# Poissons Ratio (z) = 0.55152 0.01327
#
# Static dielectric constant tensor:
#      x y z
#    x 1.733400 0.000000 0.000000 
#    y 0.000000 1.686340 0.000000 
#    z 0.000000 0.000000 1.625140 
# 
# From -- ./inp_files/65127.got.cif
#   From: 2010.05.17/outbox.cif.g08.bks.cpg/sg65_33_cif.got.tgz:65127.got - 2010.06.03 17:01:31.
