data_PCOD9487343
_publ_section_title
;
Structure prediction by ZEFSAII (Michael W. Deem and Ramdas Pophale) SiO2 
 PCOD9487343
Probable space group: C M M M
;
_chemical_formula_sum "Si O2"
_cell_formula_units_Z 58
_cell_length_a 14.822847
_cell_length_b 10.731023
_cell_length_c 16.974744
_cell_angle_alpha 90.000000
_cell_angle_beta 90.000000
_cell_angle_gamma 90.000000
_cell_volume 2700.075977
_symmetry_space_group_name_H-M "C M M M"
_symmetry_group_IT_number 65
_symmetry_cell_setting 'orthorhombic'
loop_
_space_group_symop_operation_xyz
x,y,z
-x,-y,z
x,-y,-z
-x,y,-z
-x,-y,-z
x,y,-z
-x,y,z
x,-y,z
1/2+x,1/2+y,z
1/2-x,1/2-y,z
1/2+x,1/2-y,-z
1/2-x,1/2+y,-z
1/2-x,1/2-y,-z
1/2+x,1/2+y,-z
1/2-x,1/2+y,z
1/2+x,1/2-y,z
loop_
_atom_site_type_symbol
_atom_site_label
_atom_site_fract_x
_atom_site_fract_y
_atom_site_fract_z
Si Si1 0.354819 0.750045 0.672425
Si Si2 0.360323 0.500000 0.408168
Si Si3 0.359584 0.741278 0.000000
Si Si4 0.500000 0.500000 0.000000
Si Si5 0.639426 0.000000 0.591132
Si Si6 0.394272 0.138948 0.168591
O O1 0.250000 0.750000 0.649350
O O2 0.392572 0.623393 0.636803
O O3 0.393239 0.875876 0.634630
O O4 0.358760 0.765073 0.766331
O O5 0.385542 0.500000 0.500000
O O6 0.249832 0.500000 0.405539
O O7 0.250000 0.750000 0.000000
O O8 0.384250 0.813259 0.080159
O O9 0.418590 0.612088 0.000000
O O10 0.614009 0.000000 0.500000
O O11 0.500000 0.129850 0.184864
O O12 0.353279 0.000000 0.178442
#
# Coordination Sequence:
#
# PCOD9487343 Si02
#       6
#    16   8   8   2   8  16
#     4  10  19  34  56  89 124 165 226 287 358 445
#     4   9  18  31  54  88 122 161 214 284 369 438
#     4  12  27  49  77 109 152 197 245 315 379 455
#     4  12  28  52  74 122 160 188 270 310 388 474
#     4   9  16  30  54  82 120 162 213 288 353 431
#     4  11  23  43  66  93 134 182 239 295 369 443
#
# _framework density 21.480878000000001
#
# number of rings (size 3 to 8) (size 9 to 14) (size 15 to 20)
#    0.000    1.655    2.759    2.069    1.931    5.517 
#    0.000    0.000    0.000    4.966    0.000    0.000 
#    0.000    0.000    0.000    0.000    0.000    0.000 
#
# Total GULP energy -161553.902270 kJ/mol
# GULP energy per Si atom -5570.824216 kJ/mol
# Density = 2.143199 g / cm^3
# Si number density = 21.480878 Si / 1000 Ang^3
#
#
#
# Elastic Constant Matrix: (Units=GPa)
#
#
# Indices 1 2 3 4 5 6 
#
# 1 94.5341 22.5694 -13.4026 0.0000 0.0000 0.0000
# 2 22.5694 198.8459 101.0681 0.0000 0.0000 0.0000
# 3 -13.4026 101.0681 160.0163 0.0000 0.0000 0.0000
# 4 0.0000 0.0000 0.0000 28.2291 0.0000 0.0000
# 5 0.0000 0.0000 0.0000 0.0000 264.9507 0.0000
# 6 0.0000 0.0000 0.0000 0.0000 0.0000 0.9824
#
#
#
# Elastic Compliance Matrix: (Units=1/GPa)
#
#
# Indices 1 2 3 4 5 6 
#
# 1 0.011590 -0.002664 0.002654 0.000000 0.000000 0.000000
# 2 -0.002664 0.008019 -0.005288 0.000000 0.000000 0.000000
# 3 0.002654 -0.005288 0.009812 0.000000 0.000000 0.000000
# 4 0.000000 0.000000 0.000000 0.035424 0.000000 0.000000
# 5 0.000000 0.000000 0.000000 0.000000 0.003774 0.000000
# 6 0.000000 0.000000 0.000000 0.000000 0.000000 1.017936
#
#
# Mechanical properties :
#
#
# Convention : Reuss Voigt Hill
#
# Bulk Modulus (GPa) = 53.12466 74.87400 63.99933
# Shear Modulus (GPa) = 4.53133 81.70985 43.12059
#
# Velocity S-wave (km/s) = 1.45398 6.17422 4.48526
# Velocity P-wave (km/s) = 5.25391 9.26066 7.52872
#
# Compressibility (1/GPa) = 0.01882365
#
# Stress axis : x y z
#
# Youngs Moduli (GPa) = 86.27759 124.69929 101.91880
#
# Poissons Ratio (x) = 0.33224 -0.27045
# Poissons Ratio (y) = 0.22987 0.53897
# Poissons Ratio (z) = -0.22895 0.65944
#
# Static dielectric constant tensor:
#      x y z
#    x 1.829520 0.000000 0.000000 
#    y 0.000000 1.667060 0.000000 
#    z 0.000000 0.000000 1.750130 
# 
# From -- ./inp_files/53973.got.cif
#   From: 2010.05.17/outbox.cif.g08.bks.cpg/sg65_27_cif.got.tgz:53973.got - 2010.06.03 17:01:31.
