data_PCOD9487691
_publ_section_title
;
Structure prediction by ZEFSAII (Michael W. Deem and Ramdas Pophale) SiO2 
 PCOD9487691
Probable space group: C M M M
;
_chemical_formula_sum "Si O2"
_cell_formula_units_Z 72
_cell_length_a 14.102204
_cell_length_b 19.129274
_cell_length_c 13.416383
_cell_angle_alpha 90.000000
_cell_angle_beta 90.000000
_cell_angle_gamma 90.000000
_cell_volume 3619.269545
_symmetry_space_group_name_H-M "C M M M"
_symmetry_group_IT_number 65
_symmetry_cell_setting 'orthorhombic'
loop_
_space_group_symop_operation_xyz
x,y,z
-x,-y,z
x,-y,-z
-x,y,-z
-x,-y,-z
x,y,-z
-x,y,z
x,-y,z
1/2+x,1/2+y,z
1/2-x,1/2-y,z
1/2+x,1/2-y,-z
1/2-x,1/2+y,-z
1/2-x,1/2-y,-z
1/2+x,1/2+y,-z
1/2-x,1/2+y,z
1/2+x,1/2-y,z
loop_
_atom_site_type_symbol
_atom_site_label
_atom_site_fract_x
_atom_site_fract_y
_atom_site_fract_z
Si Si1 0.885316 0.825340 0.387710
Si Si2 0.386004 0.171571 0.690574
Si Si3 0.725629 0.832203 0.109671
Si Si4 0.887929 0.082647 0.201453
Si Si5 0.115856 0.420055 0.500000
O O1 0.848584 0.833284 0.500000
O O2 0.858844 0.750578 0.340919
O O3 0.862180 0.886245 0.310219
O O4 0.000000 0.824345 0.394391
O O5 0.500000 0.169474 0.698074
O O6 0.341162 0.152479 0.796312
O O7 0.356559 0.121214 0.599982
O O8 0.750000 0.750000 0.113526
O O9 0.821616 0.876038 0.125471
O O10 0.684864 0.847267 0.000000
O O11 0.000000 0.096377 0.184799
O O12 0.872545 0.000000 0.196998
O O13 0.148810 0.500000 0.500000
O O14 0.000000 0.420403 0.500000
#
# Coordination Sequence:
#
# PCOD9487691 Si02
#       5
#    16  16  16  16   8
#     4   9  16  31  58  89 121 158 198 243 301 368
#     4  10  19  36  62  90 123 160 197 245 307 368
#     4  11  24  40  60  88 121 159 207 259 305 359
#     4  10  22  41  63  88 122 163 206 254 307 364
#     4   9  18  34  59  90 122 158 199 242 291 358
#
# _framework density 19.893516000000002
#
# number of rings (size 3 to 8) (size 9 to 14) (size 15 to 20)
#    0.000    2.111    3.333    0.000    0.000    2.667 
#    2.000    7.222    0.000    0.000    0.000    4.667 
#    0.000    0.000    0.000    0.000    0.000    0.000 
#
# Total GULP energy -201110.431378 kJ/mol
# GULP energy per Si atom -5586.400872 kJ/mol
# Density = 1.984824 g / cm^3
# Si number density = 19.893516 Si / 1000 Ang^3
#
#
#
# Elastic Constant Matrix: (Units=GPa)
#
#
# Indices 1 2 3 4 5 6 
#
# 1 78.7170 33.9817 43.9225 0.0000 0.0000 0.0000
# 2 33.9817 109.1126 41.3606 0.0000 0.0000 0.0000
# 3 43.9225 41.3606 167.8621 0.0000 0.0000 0.0000
# 4 0.0000 0.0000 0.0000 -31.2084 0.0000 0.0000
# 5 0.0000 0.0000 0.0000 0.0000 18.4363 0.0000
# 6 0.0000 0.0000 0.0000 0.0000 0.0000 13.5012
#
#
#
# Elastic Compliance Matrix: (Units=1/GPa)
#
#
# Indices 1 2 3 4 5 6 
#
# 1 0.016181 -0.003788 -0.003300 0.000000 0.000000 0.000000
# 2 -0.003788 0.010996 -0.001718 0.000000 0.000000 0.000000
# 3 -0.003300 -0.001718 0.007244 0.000000 0.000000 0.000000
# 4 0.000000 0.000000 0.000000 -0.032043 0.000000 0.000000
# 5 0.000000 0.000000 0.000000 0.000000 0.054241 0.000000
# 6 0.000000 0.000000 0.000000 0.000000 0.000000 0.074068
#
#
# Mechanical properties :
#
#
# Convention : Reuss Voigt Hill
#
# Bulk Modulus (GPa) = 59.49805 66.02460 62.76133
# Shear Modulus (GPa) = 32.48816 15.90762 24.19789
#
# Velocity S-wave (km/s) = 4.04555 2.83086 3.49143
# Velocity P-wave (km/s) = 7.19689 6.62918 6.91886
#
# Compressibility (1/GPa) = 0.01680727
#
# Stress axis : x y z
#
# Youngs Moduli (GPa) = 61.80231 90.94292 138.04165
#
# Poissons Ratio (x) = 0.34451 0.45559
# Poissons Ratio (y) = 0.23412 0.23718
# Poissons Ratio (z) = 0.20397 0.15625
#
# Static dielectric constant tensor:
#      x y z
#    x 1.747070 0.000000 0.000000 
#    y 0.000000 1.661460 0.000000 
#    z 0.000000 0.000000 1.697700 
# 
# From -- ./inp_files/39771.got.cif
#   From: 2010.05.17/outbox.cif.g08.bks.cpg/sg65_20_cif.got.tgz:39771.got - 2010.06.03 17:01:31.
