data_PCOD9487044
_publ_section_title
;
Structure prediction by ZEFSAII (Michael W. Deem and Ramdas Pophale) SiO2 
 PCOD9487044
Probable space group: C M M M
;
_chemical_formula_sum "Si O2"
_cell_formula_units_Z 72
_cell_length_a 15.624951
_cell_length_b 8.912751
_cell_length_c 27.114409
_cell_angle_alpha 90.000000
_cell_angle_beta 90.000000
_cell_angle_gamma 90.000000
_cell_volume 3775.987782
_symmetry_space_group_name_H-M "C M M M"
_symmetry_group_IT_number 65
_symmetry_cell_setting 'orthorhombic'
loop_
_space_group_symop_operation_xyz
x,y,z
-x,-y,z
x,-y,-z
-x,y,-z
-x,-y,-z
x,y,-z
-x,y,z
x,-y,z
1/2+x,1/2+y,z
1/2-x,1/2-y,z
1/2+x,1/2-y,-z
1/2-x,1/2+y,-z
1/2-x,1/2-y,-z
1/2+x,1/2+y,-z
1/2-x,1/2+y,z
1/2+x,1/2-y,z
loop_
_atom_site_type_symbol
_atom_site_label
_atom_site_fract_x
_atom_site_fract_y
_atom_site_fract_z
Si Si1 0.395423 0.672836 0.500000
Si Si2 0.500000 0.682179 0.769076
Si Si3 0.103817 0.674535 0.602085
Si Si4 0.500000 0.319208 0.116795
Si Si5 0.342130 0.178650 0.058453
Si Si6 0.660752 0.320197 0.296539
O O1 0.367920 0.500000 0.500000
O O2 0.500000 0.674241 0.500000
O O3 0.368495 0.756125 0.549882
O O4 0.500000 0.500000 0.768498
O O5 0.500000 0.728145 0.825884
O O6 0.583832 0.730256 0.739065
O O7 0.127979 0.500000 0.605246
O O8 0.140590 0.764052 0.648312
O O9 0.000000 0.683881 0.604286
O O10 0.500000 0.500000 0.114283
O O11 0.416665 0.254894 0.089670
O O12 0.250000 0.250000 0.070230
O O13 0.340563 0.000000 0.066795
O O14 0.358039 0.203717 0.000000
O O15 0.665166 0.500000 0.296191
O O16 0.750000 0.250000 0.280225
#
# Coordination Sequence:
#
# PCOD9487044 Si02
#       6
#     8   8  16   8  16  16
#     4   9  17  29  50  81 114 152 189 224 281 347
#     4   9  22  42  62  84 117 156 196 245 297 350
#     4  10  19  33  55  84 116 148 188 236 285 342
#     4  11  22  38  61  90 123 159 202 249 302 356
#     4  10  21  38  60  89 125 164 205 248 296 352
#     4  11  22  40  62  85 113 150 194 240 293 350
#
# _framework density 19.067857
#
# number of rings (size 3 to 8) (size 9 to 14) (size 15 to 20)
#    0.000    1.889    1.111    3.000    0.000    5.778 
#    0.000    7.222    0.000    0.000    0.000    0.000 
#    0.000    0.000    0.000    0.000    0.000    0.000 
#
# Total GULP energy -201221.301692 kJ/mol
# GULP energy per Si atom -5589.480603 kJ/mol
# Density = 1.902446 g / cm^3
# Si number density = 19.067857 Si / 1000 Ang^3
#
#
#
# Elastic Constant Matrix: (Units=GPa)
#
#
# Indices 1 2 3 4 5 6 
#
# 1 143.9384 67.0359 104.9088 0.0000 0.0000 0.0000
# 2 67.0359 105.7419 67.0545 0.0000 0.0000 0.0000
# 3 104.9088 67.0545 144.9801 0.0000 0.0000 0.0000
# 4 0.0000 0.0000 0.0000 22.9110 0.0000 0.0000
# 5 0.0000 0.0000 0.0000 0.0000 -11.9527 0.0000
# 6 0.0000 0.0000 0.0000 0.0000 0.0000 33.0884
#
#
#
# Elastic Compliance Matrix: (Units=1/GPa)
#
#
# Indices 1 2 3 4 5 6 
#
# 1 0.015763 -0.003906 -0.009600 0.000000 0.000000 0.000000
# 2 -0.003906 0.014349 -0.003811 0.000000 0.000000 0.000000
# 3 -0.009600 -0.003811 0.015607 0.000000 0.000000 0.000000
# 4 0.000000 0.000000 0.000000 0.043647 0.000000 0.000000
# 5 0.000000 0.000000 0.000000 0.000000 -0.083663 0.000000
# 6 0.000000 0.000000 0.000000 0.000000 0.000000 0.030222
#
#
# Mechanical properties :
#
#
# Convention : Reuss Voigt Hill
#
# Bulk Modulus (GPa) = 90.19731 96.96207 93.57969
# Shear Modulus (GPa) = 67.33692 19.18677 43.26184
#
# Velocity S-wave (km/s) = 5.94904 3.17556 4.76840
# Velocity P-wave (km/s) = 9.72595 8.02540 8.91631
#
# Compressibility (1/GPa) = 0.01108681
#
# Stress axis : x y z
#
# Youngs Moduli (GPa) = 63.43837 69.68940 64.07504
#
# Poissons Ratio (x) = 0.27217 0.61513
# Poissons Ratio (y) = 0.24776 0.24417
# Poissons Ratio (z) = 0.60902 0.26556
#
# Static dielectric constant tensor:
#      x y z
#    x 1.666740 0.000000 0.000000 
#    y 0.000000 1.636580 0.000000 
#    z 0.000000 0.000000 1.629110 
# 
# From -- ./inp_files/74631.got.cif
#   From: 2010.05.17/outbox.cif.g08.bks.cpg/sg65_38_cif.got.tgz:74631.got - 2010.06.03 17:01:31.
