data_PCOD9487244
_publ_section_title
;
Structure prediction by ZEFSAII (Michael W. Deem and Ramdas Pophale) SiO2 
 PCOD9487244
Probable space group: C M M M
;
_chemical_formula_sum "Si O2"
_cell_formula_units_Z 88
_cell_length_a 24.080565
_cell_length_b 7.761813
_cell_length_c 23.455665
_cell_angle_alpha 90.000000
_cell_angle_beta 90.000000
_cell_angle_gamma 90.000000
_cell_volume 4384.071194
_symmetry_space_group_name_H-M "C M M M"
_symmetry_group_IT_number 65
_symmetry_cell_setting 'orthorhombic'
loop_
_space_group_symop_operation_xyz
x,y,z
-x,-y,z
x,-y,-z
-x,y,-z
-x,-y,-z
x,y,-z
-x,y,z
x,-y,z
1/2+x,1/2+y,z
1/2-x,1/2-y,z
1/2+x,1/2-y,-z
1/2-x,1/2+y,-z
1/2-x,1/2-y,-z
1/2+x,1/2+y,-z
1/2-x,1/2+y,z
1/2+x,1/2-y,z
loop_
_atom_site_type_symbol
_atom_site_label
_atom_site_fract_x
_atom_site_fract_y
_atom_site_fract_z
Si Si1 0.185002 0.292364 0.000000
Si Si2 0.186778 0.707893 0.435222
Si Si3 0.878791 0.291585 0.112471
Si Si4 0.500000 0.787976 0.278776
Si Si5 0.185727 0.201542 0.228099
Si Si6 0.000000 0.289541 0.853965
Si Si7 0.113434 0.699780 0.666688
O O1 0.250000 0.250000 0.000000
O O2 0.154071 0.228696 0.943104
O O3 0.180691 0.500000 0.000000
O O4 0.178044 0.770795 0.500000
O O5 0.182804 0.500000 0.436140
O O6 0.250000 0.750000 0.418307
O O7 0.143300 0.776017 0.388835
O O8 0.879698 0.500000 0.110329
O O9 0.846558 0.242230 0.169878
O O10 0.942663 0.232643 0.117021
O O11 0.500000 0.736435 0.212446
O O12 0.555477 0.726725 0.310499
O O13 0.500000 0.000000 0.277891
O O14 0.250000 0.250000 0.222393
O O15 0.156338 0.294414 0.280863
O O16 0.181506 0.000000 0.239893
O O17 0.000000 0.500000 0.854695
O O18 0.101720 0.500000 0.653182
#
# Coordination Sequence:
#
# PCOD9487244 Si02
#       7
#     8  16  16   8  16   8  16
#     4  10  22  37  57  81 109 142 181 222 267 318
#     4   9  18  32  51  76 106 140 178 221 267 317
#     4  10  20  37  58  82 109 142 179 219 265 319
#     4   9  16  30  54  80 105 143 178 215 267 319
#     4  12  24  36  53  79 108 139 178 225 272 321
#     4   9  16  31  58  82 108 140 178 219 264 315
#     4  10  19  34  55  78 107 142 180 220 267 320
#
# _framework density 20.072666000000002
#
# number of rings (size 3 to 8) (size 9 to 14) (size 15 to 20)
#    0.000    2.000    1.818    2.727    0.000    4.727 
#    0.000    4.091    0.000    2.727    0.000    1.909 
#    0.000    4.364    0.000    0.000    0.000    0.000 
#
# Total GULP energy -245732.398501 kJ/mol
# GULP energy per Si atom -5584.827239 kJ/mol
# Density = 2.002698 g / cm^3
# Si number density = 20.072666 Si / 1000 Ang^3
#
#
#
# Elastic Constant Matrix: (Units=GPa)
#
#
# Indices 1 2 3 4 5 6 
#
# 1 190.2325 -3.7608 81.6947 0.0000 0.0000 0.0000
# 2 -3.7608 35.1926 -5.0495 0.0000 0.0000 0.0000
# 3 81.6947 -5.0495 115.9073 0.0000 0.0000 0.0000
# 4 0.0000 0.0000 0.0000 178.8307 0.0000 0.0000
# 5 0.0000 0.0000 0.0000 0.0000 33.6116 0.0000
# 6 0.0000 0.0000 0.0000 0.0000 0.0000 18.1531
#
#
#
# Elastic Compliance Matrix: (Units=1/GPa)
#
#
# Indices 1 2 3 4 5 6 
#
# 1 0.007539 0.000043 -0.005312 0.000000 0.000000 0.000000
# 2 0.000043 0.028594 0.001215 0.000000 0.000000 0.000000
# 3 -0.005312 0.001215 0.012424 0.000000 0.000000 0.000000
# 4 0.000000 0.000000 0.000000 0.005592 0.000000 0.000000
# 5 0.000000 0.000000 0.000000 0.000000 0.029752 0.000000
# 6 0.000000 0.000000 0.000000 0.000000 0.000000 0.055087
#
#
# Mechanical properties :
#
#
# Convention : Reuss Voigt Hill
#
# Bulk Modulus (GPa) = 24.72131 54.12235 39.42183
# Shear Modulus (GPa) = 31.13770 64.01560 47.57665
#
# Velocity S-wave (km/s) = 3.94286 5.65342 4.87377
# Velocity P-wave (km/s) = 5.75073 8.34486 7.16615
#
# Compressibility (1/GPa) = 0.04045093
#
# Stress axis : x y z
#
# Youngs Moduli (GPa) = 132.65061 34.97230 80.48786
#
# Poissons Ratio (x) = -0.00152 0.42751
# Poissons Ratio (y) = -0.00577 -0.09780
# Poissons Ratio (z) = 0.70458 -0.04249
#
# Static dielectric constant tensor:
#      x y z
#    x 1.669550 0.000000 0.000000 
#    y 0.000000 1.763360 0.000000 
#    z 0.000000 0.000000 1.691980 
# 
# From -- ./inp_files/71075.got.cif
#   From: 2010.05.17/outbox.cif.g08.bks.cpg/sg65_36_cif.got.tgz:71075.got - 2010.06.03 17:01:31.
