data_PCOD9487280
_publ_section_title
;
Structure prediction by ZEFSAII (Michael W. Deem and Ramdas Pophale) SiO2 
 PCOD9487280
Probable space group: C M M M
;
_chemical_formula_sum "Si O2"
_cell_formula_units_Z 68
_cell_length_a 7.476467
_cell_length_b 24.874773
_cell_length_c 18.035403
_cell_angle_alpha 90.000000
_cell_angle_beta 90.000000
_cell_angle_gamma 90.000000
_cell_volume 3354.141638
_symmetry_space_group_name_H-M "C M M M"
_symmetry_group_IT_number 65
_symmetry_cell_setting 'orthorhombic'
loop_
_space_group_symop_operation_xyz
x,y,z
-x,-y,z
x,-y,-z
-x,y,-z
-x,-y,-z
x,y,-z
-x,y,z
x,-y,z
1/2+x,1/2+y,z
1/2-x,1/2-y,z
1/2+x,1/2-y,-z
1/2-x,1/2+y,-z
1/2-x,1/2-y,-z
1/2+x,1/2+y,-z
1/2-x,1/2+y,z
1/2+x,1/2-y,z
loop_
_atom_site_type_symbol
_atom_site_label
_atom_site_fract_x
_atom_site_fract_y
_atom_site_fract_z
Si Si1 0.218017 0.937270 0.917872
Si Si2 0.279558 0.378614 0.500000
Si Si3 0.213544 0.812996 0.354622
Si Si4 0.708601 0.000000 0.663513
Si Si5 0.784993 0.104699 0.236966
Si Si6 0.753303 0.000000 0.500000
O O1 0.282230 0.904854 0.846351
O O2 0.000000 0.936093 0.917667
O O3 0.268124 0.000000 0.908785
O O4 0.275787 0.919429 0.000000
O O5 0.500000 0.385886 0.500000
O O6 0.226207 0.344880 0.572308
O O7 0.194080 0.437448 0.500000
O O8 0.250000 0.750000 0.357488
O O9 0.282574 0.843592 0.281707
O O10 0.000000 0.818968 0.354450
O O11 0.746168 0.947694 0.713020
O O12 0.815987 0.000000 0.586573
O O13 0.500000 0.000000 0.641558
O O14 0.000000 0.108640 0.231498
#
# Coordination Sequence:
#
# PCOD9487280 Si02
#       6
#    16   8  16   8  16   4
#     4   8  13  23  46  80 108 129 160 206 254 301
#     4  10  20  34  56  80 100 129 170 214 259 304
#     4  10  21  36  53  75  98 134 179 218 257 297
#     4  12  24  35  49  76 110 139 170 208 260 310
#     4  10  19  34  56  77 102 137 176 213 253 306
#     4  12  22  38  52  74 109 138 167 202 257 320
#
# _framework density 20.273443
#
# number of rings (size 3 to 8) (size 9 to 14) (size 15 to 20)
#    0.000    2.118    3.529    1.765    0.000    1.882 
#    0.000    0.000    0.000    2.118    0.000    0.000 
#    0.000    0.000    0.000    0.000    0.000    0.000 
#
# Total GULP energy -189591.772241 kJ/mol
# GULP energy per Si atom -5576.228595 kJ/mol
# Density = 2.022730 g / cm^3
# Si number density = 20.273443 Si / 1000 Ang^3
#
#
#
# Elastic Constant Matrix: (Units=GPa)
#
#
# Indices 1 2 3 4 5 6 
#
# 1 68.8087 0.3437 17.0775 0.0000 0.0000 0.0000
# 2 0.3437 171.2288 102.4465 0.0000 0.0000 0.0000
# 3 17.0775 102.4465 231.6378 0.0000 0.0000 0.0000
# 4 0.0000 0.0000 0.0000 -15.5327 0.0000 0.0000
# 5 0.0000 0.0000 0.0000 0.0000 -4.2406 0.0000
# 6 0.0000 0.0000 0.0000 0.0000 0.0000 -3.0996
#
#
#
# Elastic Compliance Matrix: (Units=1/GPa)
#
#
# Indices 1 2 3 4 5 6 
#
# 1 0.014895 0.000853 -0.001475 0.000000 0.000000 0.000000
# 2 0.000853 0.007990 -0.003597 0.000000 0.000000 0.000000
# 3 -0.001475 -0.003597 0.006017 0.000000 0.000000 0.000000
# 4 0.000000 0.000000 0.000000 -0.064380 0.000000 0.000000
# 5 0.000000 0.000000 0.000000 0.000000 -0.235818 0.000000
# 6 0.000000 0.000000 0.000000 0.000000 0.000000 -0.322618
#
#
# Mechanical properties :
#
#
# Convention : Reuss Voigt Hill
#
# Bulk Modulus (GPa) = 48.86790 79.04562 63.95676
# Shear Modulus (GPa) = -8.64073 18.87925 5.11926
#
# Velocity S-wave (km/s) = -2.06672 3.05492 1.59078
# Velocity P-wave (km/s) = 4.29670 7.17759 5.91521
#
# Compressibility (1/GPa) = 0.02046333
#
# Stress axis : x y z
#
# Youngs Moduli (GPa) = 67.13694 125.15033 166.20682
#
# Poissons Ratio (x) = -0.10672 0.24520
# Poissons Ratio (y) = -0.05725 0.59781
# Poissons Ratio (z) = 0.09905 0.45014
#
# Static dielectric constant tensor:
#      x y z
#    x 1.828650 0.000000 0.000000 
#    y 0.000000 1.677980 0.000000 
#    z 0.000000 0.000000 1.737010 
# 
# From -- ./inp_files/49815.got.cif
#   From: 2010.05.17/outbox.cif.g08.bks.cpg/sg65_25_cif.got.tgz:49815.got - 2010.06.03 17:01:31.
