data_PCOD9487264
_publ_section_title
;
Structure prediction by ZEFSAII (Michael W. Deem and Ramdas Pophale) SiO2 
 PCOD9487264
Probable space group: C M M M
;
_chemical_formula_sum "Si O2"
_cell_formula_units_Z 76
_cell_length_a 31.567071
_cell_length_b 12.271007
_cell_length_c 11.223597
_cell_angle_alpha 90.000000
_cell_angle_beta 90.000000
_cell_angle_gamma 90.000000
_cell_volume 4347.569719
_symmetry_space_group_name_H-M "C M M M"
_symmetry_group_IT_number 65
_symmetry_cell_setting 'orthorhombic'
loop_
_space_group_symop_operation_xyz
x,y,z
-x,-y,z
x,-y,-z
-x,y,-z
-x,-y,-z
x,y,-z
-x,y,z
x,-y,z
1/2+x,1/2+y,z
1/2-x,1/2-y,z
1/2+x,1/2-y,-z
1/2-x,1/2+y,-z
1/2-x,1/2-y,-z
1/2+x,1/2+y,-z
1/2-x,1/2+y,z
1/2+x,1/2-y,z
loop_
_atom_site_type_symbol
_atom_site_label
_atom_site_fract_x
_atom_site_fract_y
_atom_site_fract_z
Si Si1 0.873713 0.376087 0.356936
Si Si2 0.118792 0.000000 0.000000
Si Si3 0.701765 0.283973 0.643073
Si Si4 0.430141 0.500000 0.640740
Si Si5 0.452692 0.316984 0.000000
Si Si6 0.952945 0.761105 0.266007
Si Si7 0.837282 0.000000 0.744621
O O1 0.872986 0.380955 0.500000
O O2 0.874514 0.500000 0.311086
O O3 0.831623 0.309847 0.321474
O O4 0.915026 0.307880 0.320798
O O5 0.086546 0.101243 0.000000
O O6 0.146533 0.000000 0.119513
O O7 0.697394 0.302483 0.500000
O O8 0.750000 0.250000 0.665716
O O9 0.688886 0.392994 0.711430
O O10 0.439417 0.500000 0.500000
O O11 0.447320 0.611007 0.699917
O O12 0.379817 0.500000 0.664053
O O13 0.450447 0.251971 0.123159
O O14 0.500000 0.369496 0.000000
O O15 0.000000 0.727085 0.305942
#
# Coordination Sequence:
#
# PCOD9487264 Si02
#       7
#    16   4  16   8   8  16   8
#     4  10  21  37  55  80 114 150 190 234 286 349
#     4  12  19  34  58  82 116 158 184 230 289 334
#     4  10  21  37  60  88 116 145 183 237 290 340
#     4  12  21  33  54  83 118 144 178 231 283 340
#     4  10  19  34  55  80 111 151 200 241 273 326
#     4  11  22  36  55  81 114 151 192 235 282 334
#     4  12  22  36  60  89 115 148 190 231 287 340
#
# _framework density 17.481031999999999
#
# number of rings (size 3 to 8) (size 9 to 14) (size 15 to 20)
#    0.000    1.263    4.211    2.053    1.474    4.211 
#    0.000    2.105    0.000    1.895    0.000    0.000 
#    0.000    0.000    0.000    0.000    0.000    0.000 
#
# Total GULP energy -212142.317562 kJ/mol
# GULP energy per Si atom -5582.692567 kJ/mol
# Density = 1.744124 g / cm^3
# Si number density = 17.481032 Si / 1000 Ang^3
#
#
#
# Elastic Constant Matrix: (Units=GPa)
#
#
# Indices 1 2 3 4 5 6 
#
# 1 162.0620 79.0325 28.3328 0.0000 0.0000 0.0000
# 2 79.0325 129.4118 27.2082 0.0000 0.0000 0.0000
# 3 28.3328 27.2082 54.9324 0.0000 0.0000 0.0000
# 4 0.0000 0.0000 0.0000 7.7805 0.0000 0.0000
# 5 0.0000 0.0000 0.0000 0.0000 29.0454 0.0000
# 6 0.0000 0.0000 0.0000 0.0000 0.0000 -135.4601
#
#
#
# Elastic Compliance Matrix: (Units=1/GPa)
#
#
# Indices 1 2 3 4 5 6 
#
# 1 0.009008 -0.005051 -0.002145 0.000000 0.000000 0.000000
# 2 -0.005051 0.011457 -0.003070 0.000000 0.000000 0.000000
# 3 -0.002145 -0.003070 0.020831 0.000000 0.000000 0.000000
# 4 0.000000 0.000000 0.000000 0.128527 0.000000 0.000000
# 5 0.000000 0.000000 0.000000 0.000000 0.034429 0.000000
# 6 0.000000 0.000000 0.000000 0.000000 0.000000 -0.007382
#
#
# Mechanical properties :
#
#
# Convention : Reuss Voigt Hill
#
# Bulk Modulus (GPa) = 48.15524 68.39478 58.27501
# Shear Modulus (GPa) = 22.28938 -5.60466 8.34236
#
# Velocity S-wave (km/s) = 3.57467 -1.79251 2.18691
# Velocity P-wave (km/s) = 6.68167 5.90982 6.30756
#
# Compressibility (1/GPa) = 0.02076617
#
# Stress axis : x y z
#
# Youngs Moduli (GPa) = 111.00697 87.28217 48.00571
#
# Poissons Ratio (x) = 0.44083 0.10296
# Poissons Ratio (y) = 0.56065 0.14737
# Poissons Ratio (z) = 0.23808 0.26794
#
# Static dielectric constant tensor:
#      x y z
#    x 1.588090 0.000000 0.000000 
#    y 0.000000 1.590430 0.000000 
#    z 0.000000 0.000000 1.585710 
# 
# From -- ./inp_files/33604.got.cif
#   From: 2010.05.17/outbox.cif.g08.bks.cpg/sg65_17_cif.got.tgz:33604.got - 2010.06.03 17:01:31.
