data_PCOD9487136
_publ_section_title
;
Structure prediction by ZEFSAII (Michael W. Deem and Ramdas Pophale) SiO2 
 PCOD9487136
Probable space group: C M M M
;
_chemical_formula_sum "Si O2"
_cell_formula_units_Z 88
_cell_length_a 18.494498
_cell_length_b 29.111509
_cell_length_c 9.717905
_cell_angle_alpha 90.000000
_cell_angle_beta 90.000000
_cell_angle_gamma 90.000000
_cell_volume 5232.146727
_symmetry_space_group_name_H-M "C M M M"
_symmetry_group_IT_number 65
_symmetry_cell_setting 'orthorhombic'
loop_
_space_group_symop_operation_xyz
x,y,z
-x,-y,z
x,-y,-z
-x,y,-z
-x,-y,-z
x,y,-z
-x,y,z
x,-y,z
1/2+x,1/2+y,z
1/2-x,1/2-y,z
1/2+x,1/2-y,-z
1/2-x,1/2+y,-z
1/2-x,1/2-y,-z
1/2+x,1/2+y,-z
1/2-x,1/2+y,z
1/2+x,1/2-y,z
loop_
_atom_site_type_symbol
_atom_site_label
_atom_site_fract_x
_atom_site_fract_y
_atom_site_fract_z
Si Si1 0.500000 0.946117 0.332829
Si Si2 0.584822 0.746163 0.659358
Si Si3 0.158376 0.444566 0.338521
Si Si4 0.805784 0.292201 0.844239
Si Si5 0.771370 0.890534 0.159936
Si Si6 0.916648 0.846203 0.837154
O O1 0.500000 0.944587 0.500000
O O2 0.578497 0.927460 0.289234
O O3 0.500000 0.000000 0.294415
O O4 0.605173 0.739572 0.500000
O O5 0.500000 0.757612 0.665213
O O6 0.632756 0.784608 0.732087
O O7 0.594707 0.699174 0.745752
O O8 0.165569 0.432895 0.500000
O O9 0.158319 0.500000 0.328574
O O10 0.223610 0.423496 0.253085
O O11 0.750000 0.250000 0.830028
O O12 0.763520 0.339733 0.828871
O O13 0.835710 0.290159 0.000000
O O14 0.855568 0.883515 0.197672
O O15 0.767272 0.904701 0.000000
O O16 0.000000 0.861090 0.818823
O O17 0.906628 0.834757 0.000000
#
# Coordination Sequence:
#
# PCOD9487136 Si02
#       6
#     8  16  16  16  16  16
#     4   7  12  28  53  75  95 125 165 199 231 287
#     4  10  20  32  47  70  98 129 169 212 249 288
#     4   9  18  34  56  78 100 130 165 201 247 300
#     4  10  19  34  51  69  98 135 170 204 245 296
#     4  10  20  33  51  77 102 127 165 209 251 294
#     4   9  17  32  53  72  95 132 172 206 245 296
#
# _framework density 16.819099999999999
#
# number of rings (size 3 to 8) (size 9 to 14) (size 15 to 20)
#    0.000    2.636    1.818    1.636    0.000    3.273 
#    1.636    0.455    0.000    2.182    0.000    3.818 
#    0.000    0.000    0.000    0.000    0.000    0.000 
#
# Total GULP energy -245138.590601 kJ/mol
# GULP energy per Si atom -5571.331605 kJ/mol
# Density = 1.678082 g / cm^3
# Si number density = 16.819100 Si / 1000 Ang^3
#
#
#
# Elastic Constant Matrix: (Units=GPa)
#
#
# Indices 1 2 3 4 5 6 
#
# 1 121.0718 23.9952 60.5156 0.0000 0.0000 0.0000
# 2 23.9952 18.6883 19.7022 0.0000 0.0000 0.0000
# 3 60.5156 19.7022 66.8376 0.0000 0.0000 0.0000
# 4 0.0000 0.0000 0.0000 15.8519 0.0000 0.0000
# 5 0.0000 0.0000 0.0000 0.0000 27.4930 0.0000
# 6 0.0000 0.0000 0.0000 0.0000 0.0000 28.3455
#
#
#
# Elastic Compliance Matrix: (Units=1/GPa)
#
#
# Indices 1 2 3 4 5 6 
#
# 1 0.015788 -0.007546 -0.012070 0.000000 0.000000 0.000000
# 2 -0.007546 0.081243 -0.017116 0.000000 0.000000 0.000000
# 3 -0.012070 -0.017116 0.030936 0.000000 0.000000 0.000000
# 4 0.000000 0.000000 0.000000 0.063084 0.000000 0.000000
# 5 0.000000 0.000000 0.000000 0.000000 0.036373 0.000000
# 6 0.000000 0.000000 0.000000 0.000000 0.000000 0.035279
#
#
# Mechanical properties :
#
#
# Convention : Reuss Voigt Hill
#
# Bulk Modulus (GPa) = 18.34810 46.11374 32.23092
# Shear Modulus (GPa) = 14.11088 21.16374 17.63731
#
# Velocity S-wave (km/s) = 2.89966 3.55112 3.24180
# Velocity P-wave (km/s) = 4.70568 6.65515 5.76344
#
# Compressibility (1/GPa) = 0.05450156
#
# Stress axis : x y z
#
# Youngs Moduli (GPa) = 63.33769 12.30871 32.32496
#
# Poissons Ratio (x) = 0.09289 0.39018
# Poissons Ratio (y) = 0.47797 0.55328
# Poissons Ratio (z) = 0.76452 0.21068
#
# Static dielectric constant tensor:
#      x y z
#    x 1.605760 0.000000 0.000000 
#    y 0.000000 1.546950 0.000000 
#    z 0.000000 0.000000 1.564960 
# 
# From -- ./inp_files/10004.got.cif
#   From: 2010.05.17/outbox.cif.g08.bks.cpg/sg65_6_cif.got.tgz:10004.got - 2010.06.03 17:01:31.
