data_PCOD9487680
_publ_section_title
;
Structure prediction by ZEFSAII (Michael W. Deem and Ramdas Pophale) SiO2 
 PCOD9487680
Probable space group: C M M M
;
_chemical_formula_sum "Si O2"
_cell_formula_units_Z 80
_cell_length_a 24.878291
_cell_length_b 9.870410
_cell_length_c 17.899142
_cell_angle_alpha 90.000000
_cell_angle_beta 90.000000
_cell_angle_gamma 90.000000
_cell_volume 4395.294198
_symmetry_space_group_name_H-M "C M M M"
_symmetry_group_IT_number 65
_symmetry_cell_setting 'orthorhombic'
loop_
_space_group_symop_operation_xyz
x,y,z
-x,-y,z
x,-y,-z
-x,y,-z
-x,-y,-z
x,y,-z
-x,y,z
x,-y,z
1/2+x,1/2+y,z
1/2-x,1/2-y,z
1/2+x,1/2-y,-z
1/2-x,1/2+y,-z
1/2-x,1/2-y,-z
1/2+x,1/2+y,-z
1/2-x,1/2+y,z
1/2+x,1/2-y,z
loop_
_atom_site_type_symbol
_atom_site_label
_atom_site_fract_x
_atom_site_fract_y
_atom_site_fract_z
Si Si1 0.797383 0.000000 0.587940
Si Si2 0.883267 0.161122 0.181298
Si Si3 0.326876 0.000000 0.591156
Si Si4 0.196512 0.340940 0.086405
Si Si5 0.880166 0.224436 0.358396
Si Si6 0.500000 0.663138 0.362704
Si Si7 0.000000 0.162647 0.808089
O O1 0.735955 0.000000 0.617049
O O2 0.834318 0.873760 0.609717
O O3 0.790872 0.000000 0.500000
O O4 0.843867 0.263428 0.140657
O O5 0.882814 0.186902 0.270448
O O6 0.943778 0.195011 0.154472
O O7 0.872071 0.000000 0.168489
O O8 0.358062 0.128405 0.623525
O O9 0.328575 0.000000 0.500000
O O10 0.205281 0.500000 0.105620
O O11 0.250000 0.250000 0.089800
O O12 0.177738 0.337087 0.000000
O O13 0.940707 0.205293 0.391604
O O14 0.500000 0.500000 0.364339
O O15 0.500000 0.715909 0.276873
O O16 0.000000 0.000000 0.799475
#
# Coordination Sequence:
#
# PCOD9487680 Si02
#       7
#     8  16   8  16  16   8   8
#     4  11  22  41  61  79 112 157 199 236 291 356
#     4  10  19  36  61  89 113 147 192 241 284 337
#     4  11  26  41  55  81 122 161 191 238 301 360
#     4  10  22  39  58  83 119 159 194 235 288 339
#     4  11  21  39  62  88 114 151 197 246 293 348
#     4   9  16  35  62  85 111 144 192 248 296 343
#     4   7  14  30  55  82 113 144 181 229 288 339
#
# _framework density 18.201284000000001
#
# number of rings (size 3 to 8) (size 9 to 14) (size 15 to 20)
#    0.000    2.000    2.000    3.000    1.400    4.800 
#    0.000    4.000    0.000    3.000    0.000    0.000 
#    0.000    0.000    0.000    0.000    0.000    0.000 
#
# Total GULP energy -222778.167182 kJ/mol
# GULP energy per Si atom -5569.454180 kJ/mol
# Density = 1.815986 g / cm^3
# Si number density = 18.201284 Si / 1000 Ang^3
#
#
#
# Elastic Constant Matrix: (Units=GPa)
#
#
# Indices 1 2 3 4 5 6 
#
# 1 147.5486 68.2016 27.7466 0.0000 0.0000 0.0000
# 2 68.2016 156.0117 24.1204 0.0000 0.0000 0.0000
# 3 27.7466 24.1204 29.8366 0.0000 0.0000 0.0000
# 4 0.0000 0.0000 0.0000 28.9184 0.0000 0.0000
# 5 0.0000 0.0000 0.0000 0.0000 45.6144 0.0000
# 6 0.0000 0.0000 0.0000 0.0000 0.0000 23.7267
#
#
#
# Elastic Compliance Matrix: (Units=1/GPa)
#
#
# Indices 1 2 3 4 5 6 
#
# 1 0.009399 -0.003151 -0.006193 0.000000 0.000000 0.000000
# 2 -0.003151 0.008382 -0.003846 0.000000 0.000000 0.000000
# 3 -0.006193 -0.003846 0.042384 0.000000 0.000000 0.000000
# 4 0.000000 0.000000 0.000000 0.034580 0.000000 0.000000
# 5 0.000000 0.000000 0.000000 0.000000 0.021923 0.000000
# 6 0.000000 0.000000 0.000000 0.000000 0.000000 0.042147
#
#
# Mechanical properties :
#
#
# Convention : Reuss Voigt Hill
#
# Bulk Modulus (GPa) = 29.59888 63.72599 46.66244
# Shear Modulus (GPa) = 25.45120 33.87378 29.66249
#
# Velocity S-wave (km/s) = 3.74347 4.31869 4.04132
# Velocity P-wave (km/s) = 5.91456 7.74312 6.88977
#
# Compressibility (1/GPa) = 0.03378506
#
# Stress axis : x y z
#
# Youngs Moduli (GPa) = 106.39929 119.30466 23.59403
#
# Poissons Ratio (x) = 0.37595 0.14611
# Poissons Ratio (y) = 0.33529 0.09073
# Poissons Ratio (z) = 0.65890 0.45880
#
# Static dielectric constant tensor:
#      x y z
#    x 1.674100 0.000000 0.000000 
#    y 0.000000 1.575090 0.000000 
#    z 0.000000 0.000000 1.629960 
# 
# From -- ./inp_files/65122.got.cif
#   From: 2010.05.17/outbox.cif.g08.bks.cpg/sg65_33_cif.got.tgz:65122.got - 2010.06.03 17:01:31.
