data_PCOD9487874
_publ_section_title
;
Structure prediction by ZEFSAII (Michael W. Deem and Ramdas Pophale) SiO2 
 PCOD9487874
Probable space group: C M M M
;
_chemical_formula_sum "Si O2"
_cell_formula_units_Z 104
_cell_length_a 20.462761
_cell_length_b 20.153777
_cell_length_c 14.496371
_cell_angle_alpha 90.000000
_cell_angle_beta 90.000000
_cell_angle_gamma 90.000000
_cell_volume 5978.331262
_symmetry_space_group_name_H-M "C M M M"
_symmetry_group_IT_number 65
_symmetry_cell_setting 'orthorhombic'
loop_
_space_group_symop_operation_xyz
x,y,z
-x,-y,z
x,-y,-z
-x,y,-z
-x,-y,-z
x,y,-z
-x,y,z
x,-y,z
1/2+x,1/2+y,z
1/2-x,1/2-y,z
1/2+x,1/2-y,-z
1/2-x,1/2+y,-z
1/2-x,1/2-y,-z
1/2+x,1/2+y,-z
1/2-x,1/2+y,z
1/2+x,1/2-y,z
loop_
_atom_site_type_symbol
_atom_site_label
_atom_site_fract_x
_atom_site_fract_y
_atom_site_fract_z
Si Si1 0.736609 0.328775 0.897436
Si Si2 0.142150 0.423558 0.887588
Si Si3 0.427946 0.737662 0.609278
Si Si4 0.299196 0.686733 0.706267
Si Si5 0.429083 0.896874 0.610361
Si Si6 0.500000 0.919537 0.107058
Si Si7 0.715206 0.926412 0.610757
O O1 0.750000 0.250000 0.904181
O O2 0.801028 0.370844 0.868975
O O3 0.688612 0.335223 0.811670
O O4 0.716573 0.351334 0.000000
O O5 0.155888 0.500000 0.858924
O O6 0.070524 0.400950 0.852046
O O7 0.136838 0.425743 0.000000
O O8 0.423004 0.724626 0.500000
O O9 0.500000 0.715327 0.641003
O O10 0.366618 0.706031 0.659117
O O11 0.425931 0.817388 0.620002
O O12 0.250000 0.750000 0.705770
O O13 0.260463 0.629069 0.654148
O O14 0.430131 0.911800 0.500000
O O15 0.500000 0.919874 0.647271
O O16 0.359905 0.922968 0.645969
O O17 0.500000 0.000000 0.104999
O O18 0.500000 0.896383 0.000000
O O19 0.712752 0.916390 0.500000
O O20 0.740656 0.000000 0.629296
#
# Coordination Sequence:
#
# PCOD9487874 Si02
#       7
#    16  16  16  16  16   8  16
#     4   9  19  33  48  67  95 131 173 220 265 298
#     4   8  13  24  45  70  94 124 162 203 248 301
#     4   9  17  30  52  81 105 127 165 212 251 298
#     4  11  20  32  54  74  96 136 176 213 253 302
#     4   8  14  26  45  70 101 137 171 199 235 290
#     4   7  10  18  38  68  94 118 154 194 236 293
#     4  10  20  31  46  75 111 138 164 204 251 301
#
# _framework density 17.396158
#
# number of rings (size 3 to 8) (size 9 to 14) (size 15 to 20)
#    0.000    3.000    1.538    2.308    0.000    1.538 
#    0.000    1.538    8.462    0.923    0.000    2.154 
#    0.000    0.000    0.000    5.231    3.692    0.154 
#
# Total GULP energy -289727.198872 kJ/mol
# GULP energy per Si atom -5571.676901 kJ/mol
# Density = 1.735656 g / cm^3
# Si number density = 17.396158 Si / 1000 Ang^3
#
#
#
# Elastic Constant Matrix: (Units=GPa)
#
#
# Indices 1 2 3 4 5 6 
#
# 1 111.8570 48.0926 46.0768 0.0000 0.0000 0.0000
# 2 48.0926 70.9297 31.7076 0.0000 0.0000 0.0000
# 3 46.0768 31.7076 59.3584 0.0000 0.0000 0.0000
# 4 0.0000 0.0000 0.0000 -37.5884 0.0000 0.0000
# 5 0.0000 0.0000 0.0000 0.0000 19.3198 0.0000
# 6 0.0000 0.0000 0.0000 0.0000 0.0000 24.0853
#
#
#
# Elastic Compliance Matrix: (Units=1/GPa)
#
#
# Indices 1 2 3 4 5 6 
#
# 1 0.015179 -0.006601 -0.008257 0.000000 0.000000 0.000000
# 2 -0.006601 0.021392 -0.006303 0.000000 0.000000 0.000000
# 3 -0.008257 -0.006303 0.026623 0.000000 0.000000 0.000000
# 4 0.000000 0.000000 0.000000 -0.026604 0.000000 0.000000
# 5 0.000000 0.000000 0.000000 0.000000 0.051760 0.000000
# 6 0.000000 0.000000 0.000000 0.000000 0.000000 0.041519
#
#
# Mechanical properties :
#
#
# Convention : Reuss Voigt Hill
#
# Bulk Modulus (GPa) = 47.90961 54.87765 51.39363
# Shear Modulus (GPa) = 27.90986 8.91454 18.41220
#
# Velocity S-wave (km/s) = 4.00980 2.26618 3.25684
# Velocity P-wave (km/s) = 7.00272 6.20175 6.61437
#
# Compressibility (1/GPa) = 0.02087264
#
# Stress axis : x y z
#
# Youngs Moduli (GPa) = 65.87944 46.74707 37.56161
#
# Poissons Ratio (x) = 0.30858 0.31014
# Poissons Ratio (y) = 0.43487 0.23675
# Poissons Ratio (z) = 0.54395 0.29464
#
# Static dielectric constant tensor:
#      x y z
#    x 1.589380 0.000000 0.000000 
#    y 0.000000 1.557490 0.000000 
#    z 0.000000 0.000000 1.668050 
# 
# From -- ./inp_files/54822.got.cif
#   From: 2010.05.17/outbox.cif.g08.bks.cpg/sg65_28_cif.got.tgz:54822.got - 2010.06.03 17:01:31.
