data_PCOD9487928
_publ_section_title
;
Structure prediction by ZEFSAII (Michael W. Deem and Ramdas Pophale) SiO2 
 PCOD9487928
Probable space group: C M M M
;
_chemical_formula_sum "Si O2"
_cell_formula_units_Z 88
_cell_length_a 8.822468
_cell_length_b 29.196020
_cell_length_c 24.412651
_cell_angle_alpha 90.000000
_cell_angle_beta 90.000000
_cell_angle_gamma 90.000000
_cell_volume 6288.233890
_symmetry_space_group_name_H-M "C M M M"
_symmetry_group_IT_number 65
_symmetry_cell_setting 'orthorhombic'
loop_
_space_group_symop_operation_xyz
x,y,z
-x,-y,z
x,-y,-z
-x,y,-z
-x,-y,-z
x,y,-z
-x,y,z
x,-y,z
1/2+x,1/2+y,z
1/2-x,1/2-y,z
1/2+x,1/2-y,-z
1/2-x,1/2+y,-z
1/2-x,1/2-y,-z
1/2+x,1/2+y,-z
1/2-x,1/2+y,z
1/2+x,1/2-y,z
loop_
_atom_site_type_symbol
_atom_site_label
_atom_site_fract_x
_atom_site_fract_y
_atom_site_fract_z
Si Si1 0.818667 0.301448 0.060010
Si Si2 0.181469 0.801165 0.291584
Si Si3 0.819059 0.198811 0.169474
Si Si4 0.317727 0.552248 0.564348
Si Si5 0.682619 0.199358 0.500000
Si Si6 0.818423 0.357082 0.608517
O O1 0.750000 0.250000 0.058540
O O2 0.750920 0.323684 0.114977
O O3 0.000000 0.298348 0.065030
O O4 0.783051 0.322136 0.000000
O O5 0.250000 0.750000 0.296778
O O6 0.215524 0.819776 0.230161
O O7 0.248255 0.833162 0.338459
O O8 0.000000 0.797771 0.296762
O O9 0.750000 0.250000 0.171108
O O10 0.000000 0.201471 0.163281
O O11 0.278321 0.558704 0.500000
O O12 0.500000 0.556398 0.568667
O O13 0.276740 0.500000 0.579218
O O14 0.238881 0.591418 0.599306
O O15 0.500000 0.202336 0.500000
O O16 0.750000 0.250000 0.500000
O O17 0.728670 0.171792 0.554469
O O18 0.000000 0.356083 0.611854
#
# Coordination Sequence:
#
# PCOD9487928 Si02
#       6
#    16  16  16  16   8  16
#     4   9  15  21  31  48  69  93 124 163 204 242
#     4  10  20  32  44  60  81 109 144 178 211 249
#     4   9  16  25  37  51  70  97 131 169 205 241
#     4   9  18  33  52  71  88 107 131 161 203 252
#     4  10  22  34  43  60  83 107 136 169 205 244
#     4  11  21  33  47  65  86 109 138 170 209 252
#
# _framework density 13.994391
#
# number of rings (size 3 to 8) (size 9 to 14) (size 15 to 20)
#    0.000    2.364    0.909    4.364    0.000    6.545 
#    0.000    0.909    0.000    0.000    0.000    0.000 
#    0.000    0.000    0.000    0.000    0.000    0.909 
#
# Total GULP energy -245091.487451 kJ/mol
# GULP energy per Si atom -5570.261078 kJ/mol
# Density = 1.396254 g / cm^3
# Si number density = 13.994391 Si / 1000 Ang^3
#
#
#
# Elastic Constant Matrix: (Units=GPa)
#
#
# Indices 1 2 3 4 5 6 
#
# 1 50.9889 26.6522 54.2469 0.0000 0.0000 0.0000
# 2 26.6522 64.4323 50.7029 0.0000 0.0000 0.0000
# 3 54.2469 50.7029 152.9126 0.0000 0.0000 0.0000
# 4 0.0000 0.0000 0.0000 1.5917 0.0000 0.0000
# 5 0.0000 0.0000 0.0000 0.0000 21.2433 0.0000
# 6 0.0000 0.0000 0.0000 0.0000 0.0000 17.9798
#
#
#
# Elastic Compliance Matrix: (Units=1/GPa)
#
#
# Indices 1 2 3 4 5 6 
#
# 1 0.033148 -0.006032 -0.009760 0.000000 0.000000 0.000000
# 2 -0.006032 0.022097 -0.005187 0.000000 0.000000 0.000000
# 3 -0.009760 -0.005187 0.011722 0.000000 0.000000 0.000000
# 4 0.000000 0.000000 0.000000 0.628263 0.000000 0.000000
# 5 0.000000 0.000000 0.000000 0.000000 0.047074 0.000000
# 6 0.000000 0.000000 0.000000 0.000000 0.000000 0.055618
#
#
# Mechanical properties :
#
#
# Convention : Reuss Voigt Hill
#
# Bulk Modulus (GPa) = 39.98358 59.05978 49.52168
# Shear Modulus (GPa) = 5.89473 17.27841 11.58657
#
# Velocity S-wave (km/s) = 2.05459 3.51759 2.88052
# Velocity P-wave (km/s) = 5.85334 7.66760 6.82106
#
# Compressibility (1/GPa) = 0.02501027
#
# Stress axis : x y z
#
# Youngs Moduli (GPa) = 30.16767 45.25503 85.31018
#
# Poissons Ratio (x) = 0.27296 0.83259
# Poissons Ratio (y) = 0.18196 0.44252
# Poissons Ratio (z) = 0.29442 0.23475
#
# Static dielectric constant tensor:
#      x y z
#    x 1.467750 0.000000 0.000000 
#    y 0.000000 1.417320 0.000000 
#    z 0.000000 0.000000 1.512920 
# 
# From -- ./inp_files/68418.got.cif
#   From: 2010.05.17/outbox.cif.g08.bks.cpg/sg65_35_cif.got.tgz:68418.got - 2010.06.03 17:01:31.
