data_PCOD9487193
_publ_section_title
;
Structure prediction by ZEFSAII (Michael W. Deem and Ramdas Pophale) SiO2 
 PCOD9487193
Probable space group: C M M M
;
_chemical_formula_sum "Si O2"
_cell_formula_units_Z 104
_cell_length_a 8.536367
_cell_length_b 29.638388
_cell_length_c 24.133967
_cell_angle_alpha 90.000000
_cell_angle_beta 90.000000
_cell_angle_gamma 90.000000
_cell_volume 6105.993982
_symmetry_space_group_name_H-M "C M M M"
_symmetry_group_IT_number 65
_symmetry_cell_setting 'orthorhombic'
loop_
_space_group_symop_operation_xyz
x,y,z
-x,-y,z
x,-y,-z
-x,y,-z
-x,-y,-z
x,y,-z
-x,y,z
x,-y,z
1/2+x,1/2+y,z
1/2-x,1/2-y,z
1/2+x,1/2-y,-z
1/2-x,1/2+y,-z
1/2-x,1/2-y,-z
1/2+x,1/2+y,-z
1/2-x,1/2+y,z
1/2+x,1/2-y,z
loop_
_atom_site_type_symbol
_atom_site_label
_atom_site_fract_x
_atom_site_fract_y
_atom_site_fract_z
Si Si1 0.191229 0.394258 0.938791
Si Si2 0.309816 0.947499 0.378693
Si Si3 0.312370 0.798551 0.235209
Si Si4 0.313822 0.391768 0.275117
Si Si5 0.311636 0.798165 0.894341
Si Si6 0.181013 0.445226 0.500000
Si Si7 0.189855 0.447721 0.170320
O O1 0.240141 0.342643 0.926924
O O2 0.241074 0.425451 0.887722
O O3 0.000000 0.394677 0.938391
O O4 0.242258 0.408771 0.000000
O O5 0.500000 0.946608 0.379631
O O6 0.249937 0.916266 0.329784
O O7 0.251424 0.932807 0.440010
O O8 0.264541 0.000000 0.369353
O O9 0.500000 0.799118 0.236942
O O10 0.250000 0.750000 0.254165
O O11 0.246993 0.840798 0.268645
O O12 0.264205 0.803548 0.170298
O O13 0.500000 0.392063 0.275681
O O14 0.253580 0.419358 0.221685
O O15 0.500000 0.796890 0.895971
O O16 0.250000 0.750000 0.914666
O O17 0.177911 0.500000 0.500000
O O18 0.000000 0.429824 0.500000
O O19 0.236094 0.500000 0.173943
O O20 0.000000 0.445556 0.172354
#
# Coordination Sequence:
#
# PCOD9487193 Si02
#       7
#    16  16  16  16  16   8  16
#     4   9  17  31  50  72  96 122 158 206 257 309
#     4   9  17  31  52  77 106 141 178 215 254 297
#     4  10  19  34  54  76 102 130 164 205 254 306
#     4  12  23  33  49  75 106 138 172 209 252 299
#     4   9  17  30  49  71  96 122 151 192 245 303
#     4   7  12  26  49  75 102 135 176 215 251 295
#     4  10  20  35  53  71  94 128 169 214 263 308
#
# _framework density 17.032443000000001
#
# number of rings (size 3 to 8) (size 9 to 14) (size 15 to 20)
#    0.000    2.385    1.538    3.231    0.000    3.692 
#    0.000    1.923    0.000    2.769    0.000    1.615 
#    0.000    0.000    0.000    0.000    0.000    0.000 
#
# Total GULP energy -290017.649827 kJ/mol
# GULP energy per Si atom -5577.262497 kJ/mol
# Density = 1.699368 g / cm^3
# Si number density = 17.032443 Si / 1000 Ang^3
#
#
#
# Elastic Constant Matrix: (Units=GPa)
#
#
# Indices 1 2 3 4 5 6 
#
# 1 20.8672 28.0132 24.2820 0.0000 0.0000 0.0000
# 2 28.0132 122.6597 76.9356 0.0000 0.0000 0.0000
# 3 24.2820 76.9356 144.6180 0.0000 0.0000 0.0000
# 4 0.0000 0.0000 0.0000 20.9390 0.0000 0.0000
# 5 0.0000 0.0000 0.0000 0.0000 0.3512 0.0000
# 6 0.0000 0.0000 0.0000 0.0000 0.0000 22.5474
#
#
#
# Elastic Compliance Matrix: (Units=1/GPa)
#
#
# Indices 1 2 3 4 5 6 
#
# 1 0.071418 -0.013191 -0.004974 0.000000 0.000000 0.000000
# 2 -0.013191 0.014672 -0.005590 0.000000 0.000000 0.000000
# 3 -0.004974 -0.005590 0.010724 0.000000 0.000000 0.000000
# 4 0.000000 0.000000 0.000000 0.047758 0.000000 0.000000
# 5 0.000000 0.000000 0.000000 0.000000 2.847744 0.000000
# 6 0.000000 0.000000 0.000000 0.000000 0.000000 0.044351
#
#
# Mechanical properties :
#
#
# Convention : Reuss Voigt Hill
#
# Bulk Modulus (GPa) = 20.28266 60.73406 40.50836
# Shear Modulus (GPa) = 1.61259 19.36178 10.48718
#
# Velocity S-wave (km/s) = 0.97408 3.37524 2.48406
# Velocity P-wave (km/s) = 3.63307 7.13617 5.66234
#
# Compressibility (1/GPa) = 0.04930319
#
# Stress axis : x y z
#
# Youngs Moduli (GPa) = 14.00211 68.15895 93.24894
#
# Poissons Ratio (x) = 0.89906 0.46383
# Poissons Ratio (y) = 0.18470 0.52130
# Poissons Ratio (z) = 0.06965 0.38104
#
# Static dielectric constant tensor:
#      x y z
#    x 1.582610 0.000000 0.000000 
#    y 0.000000 1.560860 0.000000 
#    z 0.000000 0.000000 1.586080 
# 
# From -- ./inp_files/68263.got.cif
#   From: 2010.05.17/outbox.cif.g08.bks.cpg/sg65_35_cif.got.tgz:68263.got - 2010.06.03 17:01:31.
