data_PCOD9487918
_publ_section_title
;
Structure prediction by ZEFSAII (Michael W. Deem and Ramdas Pophale) SiO2 
 PCOD9487918
Probable space group: C M M M
;
_chemical_formula_sum "Si O2"
_cell_formula_units_Z 88
_cell_length_a 9.186763
_cell_length_b 30.729161
_cell_length_c 23.445109
_cell_angle_alpha 90.000000
_cell_angle_beta 90.000000
_cell_angle_gamma 90.000000
_cell_volume 6618.589891
_symmetry_space_group_name_H-M "C M M M"
_symmetry_group_IT_number 65
_symmetry_cell_setting 'orthorhombic'
loop_
_space_group_symop_operation_xyz
x,y,z
-x,-y,z
x,-y,-z
-x,y,-z
-x,-y,-z
x,y,-z
-x,y,z
x,-y,z
1/2+x,1/2+y,z
1/2-x,1/2-y,z
1/2+x,1/2-y,-z
1/2-x,1/2+y,-z
1/2-x,1/2-y,-z
1/2+x,1/2+y,-z
1/2-x,1/2+y,z
1/2+x,1/2-y,z
loop_
_atom_site_type_symbol
_atom_site_label
_atom_site_fract_x
_atom_site_fract_y
_atom_site_fract_z
Si Si1 0.668213 0.446979 0.500000
Si Si2 0.827201 0.551922 0.152867
Si Si3 0.831670 0.446944 0.384767
Si Si4 0.332369 0.447098 0.729958
Si Si5 0.167868 0.706350 0.930634
Si Si6 0.172863 0.883228 0.931976
O O1 0.668965 0.500000 0.500000
O O2 0.500000 0.433316 0.500000
O O3 0.750911 0.433149 0.442610
O O4 0.804918 0.500000 0.145575
O O5 0.756255 0.564902 0.213408
O O6 0.749203 0.578667 0.103223
O O7 0.000000 0.560003 0.153193
O O8 0.830681 0.500000 0.384594
O O9 0.746888 0.432716 0.327983
O O10 0.000000 0.433408 0.384021
O O11 0.500000 0.432618 0.732527
O O12 0.333799 0.500000 0.728483
O O13 0.250000 0.750000 0.911351
O O14 0.254362 0.662714 0.915050
O O15 0.000000 0.705103 0.911745
O O16 0.166420 0.707614 0.000000
O O17 0.000000 0.882375 0.921487
O O18 0.195104 0.888981 0.000000
#
# Coordination Sequence:
#
# PCOD9487918 Si02
#       6
#     8  16  16  16  16  16
#     4   9  15  21  29  43  63  85 109 139 178 221
#     4  10  20  32  44  57  74  98 129 164 200 236
#     4   9  15  22  32  46  64  85 110 142 181 222
#     4   9  16  26  39  52  66  87 117 152 188 225
#     4   9  16  27  44  64  84 103 122 146 180 224
#     4  10  20  32  45  61  80 101 126 157 194 235
#
# _framework density 13.295883999999999
#
# number of rings (size 3 to 8) (size 9 to 14) (size 15 to 20)
#    0.000    2.636    0.000    3.000    0.000   10.182 
#    0.000    1.818    0.000    0.000    0.000    0.000 
#    0.000    0.000    0.000    0.000    0.000    0.000 
#
# Total GULP energy -245133.001317 kJ/mol
# GULP energy per Si atom -5571.204575 kJ/mol
# Density = 1.326562 g / cm^3
# Si number density = 13.295884 Si / 1000 Ang^3
#
#
#
# Elastic Constant Matrix: (Units=GPa)
#
#
# Indices 1 2 3 4 5 6 
#
# 1 146.7904 48.6144 73.9526 0.0000 0.0000 0.0000
# 2 48.6144 39.0514 38.7415 0.0000 0.0000 0.0000
# 3 73.9526 38.7415 81.3946 0.0000 0.0000 0.0000
# 4 0.0000 0.0000 0.0000 -0.6037 0.0000 0.0000
# 5 0.0000 0.0000 0.0000 0.0000 25.4591 0.0000
# 6 0.0000 0.0000 0.0000 0.0000 0.0000 17.1053
#
#
#
# Elastic Compliance Matrix: (Units=1/GPa)
#
#
# Indices 1 2 3 4 5 6 
#
# 1 0.014111 -0.009184 -0.008449 0.000000 0.000000 0.000000
# 2 -0.009184 0.054494 -0.017593 0.000000 0.000000 0.000000
# 3 -0.008449 -0.017593 0.028336 0.000000 0.000000 0.000000
# 4 0.000000 0.000000 0.000000 -1.656434 0.000000 0.000000
# 5 0.000000 0.000000 0.000000 0.000000 0.039279 0.000000
# 6 0.000000 0.000000 0.000000 0.000000 0.000000 0.058461
#
#
# Mechanical properties :
#
#
# Convention : Reuss Voigt Hill
#
# Bulk Modulus (GPa) = 37.75289 65.53929 51.64609
# Shear Modulus (GPa) = -3.61671 15.45400 5.91864
#
# Velocity S-wave (km/s) = -1.65108 3.41297 2.11214
# Velocity P-wave (km/s) = 4.98210 8.05798 6.69897
#
# Compressibility (1/GPa) = 0.02648804
#
# Stress axis : x y z
#
# Youngs Moduli (GPa) = 70.86823 18.35071 35.29023
#
# Poissons Ratio (x) = 0.16853 0.29818
# Poissons Ratio (y) = 0.65085 0.62087
# Poissons Ratio (z) = 0.59878 0.32285
#
# Static dielectric constant tensor:
#      x y z
#    x 1.445180 0.000000 0.000000 
#    y 0.000000 1.402960 0.000000 
#    z 0.000000 0.000000 1.426490 
# 
# From -- ./inp_files/60279.got.cif
#   From: 2010.05.17/outbox.cif.g08.bks.cpg/sg65_31_cif.got.tgz:60279.got - 2010.06.03 17:01:31.
