data_PCOD9487278
_publ_section_title
;
Structure prediction by ZEFSAII (Michael W. Deem and Ramdas Pophale) SiO2 
 PCOD9487278
Probable space group: C M M M
;
_chemical_formula_sum "Si O2"
_cell_formula_units_Z 104
_cell_length_a 21.823219
_cell_length_b 33.875480
_cell_length_c 7.546350
_cell_angle_alpha 90.000000
_cell_angle_beta 90.000000
_cell_angle_gamma 90.000000
_cell_volume 5578.805399
_symmetry_space_group_name_H-M "C M M M"
_symmetry_group_IT_number 65
_symmetry_cell_setting 'orthorhombic'
loop_
_space_group_symop_operation_xyz
x,y,z
-x,-y,z
x,-y,-z
-x,y,-z
-x,-y,-z
x,y,-z
-x,y,z
x,-y,z
1/2+x,1/2+y,z
1/2-x,1/2-y,z
1/2+x,1/2-y,-z
1/2-x,1/2+y,-z
1/2-x,1/2-y,-z
1/2+x,1/2+y,-z
1/2-x,1/2+y,z
1/2+x,1/2-y,z
loop_
_atom_site_type_symbol
_atom_site_label
_atom_site_fract_x
_atom_site_fract_y
_atom_site_fract_z
Si Si1 0.070800 0.767101 0.787623
Si Si2 0.882074 0.595597 0.202926
Si Si3 0.930008 0.320701 0.709023
Si Si4 0.756750 0.902942 0.212896
Si Si5 0.428251 0.601405 0.500000
Si Si6 0.000000 0.453545 0.217101
Si Si7 0.637923 0.653937 0.788173
Si Si8 0.175655 0.045918 0.500000
O O1 0.093834 0.723516 0.737681
O O2 0.116624 0.802136 0.734593
O O3 0.000000 0.772430 0.720729
O O4 0.067205 0.768229 0.000000
O O5 0.898521 0.641842 0.205018
O O6 0.813385 0.593805 0.276342
O O7 0.938826 0.570055 0.278658
O O8 0.877063 0.581958 0.000000
O O9 0.930217 0.328473 0.500000
O O10 0.000000 0.319615 0.774791
O O11 0.792471 0.861262 0.245063
O O12 0.793972 0.934512 0.326742
O O13 0.759184 0.909352 0.000000
O O14 0.500000 0.598874 0.500000
O O15 0.404194 0.625214 0.328343
O O16 0.394573 0.559567 0.500000
O O17 0.000000 0.500000 0.266012
O O18 0.000000 0.451786 0.000000
O O19 0.627326 0.649883 0.000000
O O20 0.184421 0.000000 0.500000
#
# Coordination Sequence:
#
# PCOD9487278 Si02
#       8
#    16  16  16  16   8   8  16   8
#     4   9  17  29  48  73 101 136 179 221 264 312
#     4  10  19  34  56  76 101 138 176 219 273 331
#     4  10  20  31  47  73 106 142 176 216 269 326
#     4   9  20  37  58  81 106 143 184 219 270 331
#     4  10  20  33  56  83 110 146 181 219 268 320
#     4   9  18  32  53  81 105 127 169 229 281 326
#     4   9  18  34  53  78 112 145 182 228 267 314
#     4  10  22  39  58  82 111 143 178 220 267 318
#
# _framework density 18.641984999999998
#
# number of rings (size 3 to 8) (size 9 to 14) (size 15 to 20)
#    0.000    2.538    0.769    0.923    2.154    2.615 
#    0.000    2.308    0.000    5.077    0.000    4.308 
#    0.000    0.000    0.000    0.000    0.000    0.000 
#
# Total GULP energy -289643.113826 kJ/mol
# GULP energy per Si atom -5570.059881 kJ/mol
# Density = 1.859955 g / cm^3
# Si number density = 18.641985 Si / 1000 Ang^3
#
#
#
# Elastic Constant Matrix: (Units=GPa)
#
#
# Indices 1 2 3 4 5 6 
#
# 1 140.5233 60.5563 20.2259 0.0000 0.0000 0.0000
# 2 60.5563 118.4893 10.0977 0.0000 0.0000 0.0000
# 3 20.2259 10.0977 46.1285 0.0000 0.0000 0.0000
# 4 0.0000 0.0000 0.0000 9.9935 0.0000 0.0000
# 5 0.0000 0.0000 0.0000 0.0000 8.3356 0.0000
# 6 0.0000 0.0000 0.0000 0.0000 0.0000 13.0155
#
#
#
# Elastic Compliance Matrix: (Units=1/GPa)
#
#
# Indices 1 2 3 4 5 6 
#
# 1 0.009564 -0.004617 -0.003183 0.000000 0.000000 0.000000
# 2 -0.004617 0.010828 -0.000346 0.000000 0.000000 0.000000
# 3 -0.003183 -0.000346 0.023150 0.000000 0.000000 0.000000
# 4 0.000000 0.000000 0.000000 0.100065 0.000000 0.000000
# 5 0.000000 0.000000 0.000000 0.000000 0.119967 0.000000
# 6 0.000000 0.000000 0.000000 0.000000 0.000000 0.076831
#
#
# Mechanical properties :
#
#
# Convention : Reuss Voigt Hill
#
# Bulk Modulus (GPa) = 36.69584 54.10013 45.39798
# Shear Modulus (GPa) = 13.66938 20.55299 17.11119
#
# Velocity S-wave (km/s) = 2.71081 3.32401 3.03295
# Velocity P-wave (km/s) = 5.43371 6.61934 6.05561
#
# Compressibility (1/GPa) = 0.02725105
#
# Stress axis : x y z
#
# Youngs Moduli (GPa) = 104.56100 92.34934 43.19667
#
# Poissons Ratio (x) = 0.42633 0.13749
# Poissons Ratio (y) = 0.48271 0.01495
# Poissons Ratio (z) = 0.33280 0.03197
#
# Static dielectric constant tensor:
#      x y z
#    x 1.658160 0.000000 0.000000 
#    y 0.000000 1.637800 0.000000 
#    z 0.000000 0.000000 1.664230 
# 
# From -- ./inp_files/12877.got.cif
#   From: 2010.05.17/outbox.cif.g08.bks.cpg/sg65_7_cif.got.tgz:12877.got - 2010.06.03 17:01:31.
