data_PCOD9487250
_publ_section_title
;
Structure prediction by ZEFSAII (Michael W. Deem and Ramdas Pophale) SiO2 
 PCOD9487250
Probable space group: C M M M
;
_chemical_formula_sum "Si O2"
_cell_formula_units_Z 104
_cell_length_a 28.093518
_cell_length_b 22.191681
_cell_length_c 7.647955
_cell_angle_alpha 90.000000
_cell_angle_beta 90.000000
_cell_angle_gamma 90.000000
_cell_volume 4768.059341
_symmetry_space_group_name_H-M "C M M M"
_symmetry_group_IT_number 65
_symmetry_cell_setting 'orthorhombic'
loop_
_space_group_symop_operation_xyz
x,y,z
-x,-y,z
x,-y,-z
-x,y,-z
-x,-y,-z
x,y,-z
-x,y,z
x,-y,z
1/2+x,1/2+y,z
1/2-x,1/2-y,z
1/2+x,1/2-y,-z
1/2-x,1/2+y,-z
1/2-x,1/2-y,-z
1/2+x,1/2+y,-z
1/2-x,1/2+y,z
1/2+x,1/2-y,z
loop_
_atom_site_type_symbol
_atom_site_label
_atom_site_fract_x
_atom_site_fract_y
_atom_site_fract_z
Si Si1 0.112656 0.820984 0.207208
Si Si2 0.120756 0.393393 0.290290
Si Si3 0.947266 0.931190 0.710698
Si Si4 0.780983 0.192422 0.210121
Si Si5 0.052700 0.286220 0.790480
Si Si6 0.774371 0.569370 0.711036
Si Si7 0.946274 0.500000 0.285858
O O1 0.095211 0.888633 0.232283
O O2 0.164886 0.806594 0.279208
O O3 0.070655 0.778246 0.276884
O O4 0.115473 0.809648 0.000000
O O5 0.123611 0.398195 0.500000
O O6 0.096533 0.330322 0.248714
O O7 0.173164 0.409893 0.224508
O O8 0.082870 0.442290 0.227179
O O9 0.947935 0.931261 0.500000
O O10 0.000000 0.910420 0.770890
O O11 0.941131 0.000000 0.768996
O O12 0.750000 0.250000 0.275198
O O13 0.759479 0.125894 0.245142
O O14 0.782486 0.198523 0.000000
O O15 0.000000 0.303534 0.721963
O O16 0.048460 0.284536 0.000000
O O17 0.775571 0.566212 0.500000
O O18 0.763817 0.500000 0.770719
O O19 0.947062 0.500000 0.500000
O O20 0.000000 0.500000 0.224491
#
# Coordination Sequence:
#
# PCOD9487250 Si02
#       7
#    16  16  16  16  16  16   8
#     4  10  21  37  57  80 107 142 184 228 273 327
#     4  10  19  34  55  79 107 142 185 225 266 319
#     4   9  19  36  57  82 113 146 178 216 267 328
#     4  10  22  40  60  82 110 146 191 238 285 338
#     4  10  21  36  54  79 112 146 180 223 275 326
#     4  10  21  38  59  84 114 147 187 235 284 336
#     4   9  16  28  49  75 103 135 173 217 260 303
#
# _framework density 21.811807999999999
#
# number of rings (size 3 to 8) (size 9 to 14) (size 15 to 20)
#    0.000    2.231    0.769    2.308    0.000    6.462 
#    0.000    4.231    0.000    1.385    0.000    0.000 
#    0.000    0.000    0.000    0.000    0.000    0.000 
#
# Total GULP energy -290139.409223 kJ/mol
# GULP energy per Si atom -5579.604024 kJ/mol
# Density = 2.176216 g / cm^3
# Si number density = 21.811808 Si / 1000 Ang^3
#
#
#
# Elastic Constant Matrix: (Units=GPa)
#
#
# Indices 1 2 3 4 5 6 
#
# 1 78.5146 38.3759 4.9660 0.0000 0.0000 0.0000
# 2 38.3759 112.2516 -3.9069 0.0000 0.0000 0.0000
# 3 4.9660 -3.9069 40.2445 0.0000 0.0000 0.0000
# 4 0.0000 0.0000 0.0000 24.7665 0.0000 0.0000
# 5 0.0000 0.0000 0.0000 0.0000 18.9407 0.0000
# 6 0.0000 0.0000 0.0000 0.0000 0.0000 26.3456
#
#
#
# Elastic Compliance Matrix: (Units=1/GPa)
#
#
# Indices 1 2 3 4 5 6 
#
# 1 0.015527 -0.005393 -0.002439 0.000000 0.000000 0.000000
# 2 -0.005393 0.010812 0.001715 0.000000 0.000000 0.000000
# 3 -0.002439 0.001715 0.025316 0.000000 0.000000 0.000000
# 4 0.000000 0.000000 0.000000 0.040377 0.000000 0.000000
# 5 0.000000 0.000000 0.000000 0.000000 0.052796 0.000000
# 6 0.000000 0.000000 0.000000 0.000000 0.000000 0.037957
#
#
# Mechanical properties :
#
#
# Convention : Reuss Voigt Hill
#
# Bulk Modulus (GPa) = 25.36818 34.43119 29.89968
# Shear Modulus (GPa) = 24.02000 26.78227 25.40114
#
# Velocity S-wave (km/s) = 3.32209 3.50791 3.41627
# Velocity P-wave (km/s) = 5.13525 5.67689 5.41285
#
# Compressibility (1/GPa) = 0.03941946
#
# Stress axis : x y z
#
# Youngs Moduli (GPa) = 64.40483 92.48974 39.50127
#
# Poissons Ratio (x) = 0.49881 0.09636
# Poissons Ratio (y) = 0.34734 -0.06775
# Poissons Ratio (z) = 0.15711 -0.15863
#
# Static dielectric constant tensor:
#      x y z
#    x 1.805220 0.000000 0.000000 
#    y 0.000000 1.921870 0.000000 
#    z 0.000000 0.000000 1.815970 
# 
# From -- ./inp_files/16448.got.cif
#   From: 2010.05.17/outbox.cif.g08.bks.cpg/sg65_9_cif.got.tgz:16448.got - 2010.06.03 17:01:31.
