data_PCOD9487845
_publ_section_title
;
Structure prediction by ZEFSAII (Michael W. Deem and Ramdas Pophale) SiO2 
 PCOD9487845
Probable space group: C M M M
;
_chemical_formula_sum "Si O2"
_cell_formula_units_Z 112
_cell_length_a 15.319764
_cell_length_b 28.627778
_cell_length_c 14.664397
_cell_angle_alpha 90.000000
_cell_angle_beta 90.000000
_cell_angle_gamma 90.000000
_cell_volume 6431.376365
_symmetry_space_group_name_H-M "C M M M"
_symmetry_group_IT_number 65
_symmetry_cell_setting 'orthorhombic'
loop_
_space_group_symop_operation_xyz
x,y,z
-x,-y,z
x,-y,-z
-x,y,-z
-x,-y,-z
x,y,-z
-x,y,z
x,-y,z
1/2+x,1/2+y,z
1/2-x,1/2-y,z
1/2+x,1/2-y,-z
1/2-x,1/2+y,-z
1/2-x,1/2-y,-z
1/2+x,1/2+y,-z
1/2-x,1/2+y,z
1/2+x,1/2-y,z
loop_
_atom_site_type_symbol
_atom_site_label
_atom_site_fract_x
_atom_site_fract_y
_atom_site_fract_z
Si Si1 0.212171 0.052955 0.108912
Si Si2 0.900063 0.829765 0.398575
Si Si3 0.399426 0.091995 0.108028
Si Si4 0.893546 0.136102 0.203399
Si Si5 0.850837 0.233378 0.894628
Si Si6 0.097783 0.682285 0.228377
Si Si7 0.155099 0.727488 0.400190
O O1 0.316616 0.058891 0.125460
O O2 0.155728 0.091517 0.161737
O O3 0.186340 0.000000 0.132043
O O4 0.199453 0.059857 0.000000
O O5 0.859273 0.836514 0.500000
O O6 0.864904 0.854731 0.308449
O O7 0.901375 0.773895 0.381012
O O8 0.000000 0.845392 0.405109
O O9 0.500000 0.076291 0.128218
O O10 0.380103 0.138534 0.165540
O O11 0.398238 0.102978 0.000000
O O12 0.865358 0.182246 0.147034
O O13 0.000000 0.132093 0.199167
O O14 0.750000 0.250000 0.890826
O O15 0.898926 0.271659 0.833680
O O16 0.878757 0.234157 0.000000
O O17 0.153686 0.691576 0.317950
O O18 0.000000 0.675213 0.262711
O O19 0.131413 0.708575 0.500000
O O20 0.250000 0.750000 0.404268
#
# Coordination Sequence:
#
# PCOD9487845 Si02
#       7
#    16  16  16  16  16  16  16
#     4  10  22  39  58  79 103 135 175 222 275 323
#     4   9  18  33  51  72 100 136 177 215 251 295
#     4   9  19  35  55  80 107 136 174 219 266 318
#     4  11  22  35  54  80 108 142 180 217 263 318
#     4  11  22  33  47  69 101 142 180 213 249 295
#     4  11  20  30  47  72 103 138 169 204 252 303
#     4  10  20  31  45  69 101 140 181 215 248 293
#
# _framework density 17.414624
#
# number of rings (size 3 to 8) (size 9 to 14) (size 15 to 20)
#    0.000    1.857    1.429    3.000    2.000    6.286 
#    0.000    2.143    0.000    0.429    0.000    2.000 
#    0.000    0.000    0.000    4.429    0.000    0.286 
#
# Total GULP energy -312177.278622 kJ/mol
# GULP energy per Si atom -5574.594261 kJ/mol
# Density = 1.737499 g / cm^3
# Si number density = 17.414624 Si / 1000 Ang^3
#
#
#
# Elastic Constant Matrix: (Units=GPa)
#
#
# Indices 1 2 3 4 5 6 
#
# 1 65.7282 31.7279 32.5882 0.0000 0.0000 0.0000
# 2 31.7279 72.3244 32.9333 0.0000 0.0000 0.0000
# 3 32.5882 32.9333 95.6643 0.0000 0.0000 0.0000
# 4 0.0000 0.0000 0.0000 7.7776 0.0000 0.0000
# 5 0.0000 0.0000 0.0000 0.0000 38.0662 0.0000
# 6 0.0000 0.0000 0.0000 0.0000 0.0000 17.6083
#
#
#
# Elastic Compliance Matrix: (Units=1/GPa)
#
#
# Indices 1 2 3 4 5 6 
#
# 1 0.020951 -0.007046 -0.004712 0.000000 0.000000 0.000000
# 2 -0.007046 0.018766 -0.004060 0.000000 0.000000 0.000000
# 3 -0.004712 -0.004060 0.013456 0.000000 0.000000 0.000000
# 4 0.000000 0.000000 0.000000 0.128575 0.000000 0.000000
# 5 0.000000 0.000000 0.000000 0.000000 0.026270 0.000000
# 6 0.000000 0.000000 0.000000 0.000000 0.000000 0.056791
#
#
# Mechanical properties :
#
#
# Convention : Reuss Voigt Hill
#
# Bulk Modulus (GPa) = 46.42855 47.57953 47.00404
# Shear Modulus (GPa) = 16.46770 21.78825 19.12798
#
# Velocity S-wave (km/s) = 3.07844 3.54099 3.31779
# Velocity P-wave (km/s) = 6.27330 6.64071 6.45962
#
# Compressibility (1/GPa) = 0.02153847
#
# Stress axis : x y z
#
# Youngs Moduli (GPa) = 47.73000 53.28691 74.31610
#
# Poissons Ratio (x) = 0.37544 0.35014
# Poissons Ratio (y) = 0.33629 0.30175
# Poissons Ratio (z) = 0.22488 0.21636
#
# Static dielectric constant tensor:
#      x y z
#    x 1.708470 0.000000 0.000000 
#    y 0.000000 1.560190 0.000000 
#    z 0.000000 0.000000 1.620170 
# 
# From -- ./inp_files/41052.got.cif
#   From: 2010.05.17/outbox.cif.g08.bks.cpg/sg65_21_cif.got.tgz:41052.got - 2010.06.03 17:01:31.
