data_PCOD9487114
_publ_section_title
;
Structure prediction by ZEFSAII (Michael W. Deem and Ramdas Pophale) SiO2 
 PCOD9487114
Probable space group: C M M M
;
_chemical_formula_sum "Si O2"
_cell_formula_units_Z 104
_cell_length_a 17.738382
_cell_length_b 22.107734
_cell_length_c 14.212043
_cell_angle_alpha 90.000000
_cell_angle_beta 90.000000
_cell_angle_gamma 90.000000
_cell_volume 5573.329846
_symmetry_space_group_name_H-M "C M M M"
_symmetry_group_IT_number 65
_symmetry_cell_setting 'orthorhombic'
loop_
_space_group_symop_operation_xyz
x,y,z
-x,-y,z
x,-y,-z
-x,y,-z
-x,-y,-z
x,y,-z
-x,y,z
x,-y,z
1/2+x,1/2+y,z
1/2-x,1/2-y,z
1/2+x,1/2-y,-z
1/2-x,1/2+y,-z
1/2-x,1/2-y,-z
1/2+x,1/2+y,-z
1/2-x,1/2+y,z
1/2+x,1/2-y,z
loop_
_atom_site_type_symbol
_atom_site_label
_atom_site_fract_x
_atom_site_fract_y
_atom_site_fract_z
Si Si1 0.409757 0.500000 0.611247
Si Si2 0.170583 0.430796 0.612706
Si Si3 0.915227 0.684312 0.388265
Si Si4 0.836896 0.238322 0.239372
Si Si5 0.286248 0.069191 0.890074
Si Si6 0.319014 0.399579 0.723329
Si Si7 0.913935 0.332909 0.112705
O O1 0.500000 0.500000 0.612212
O O2 0.385437 0.500000 0.500000
O O3 0.377007 0.442707 0.668670
O O4 0.178814 0.432531 0.500000
O O5 0.162579 0.500000 0.646003
O O6 0.102261 0.385696 0.634077
O O7 0.244758 0.401519 0.657570
O O8 0.908375 0.691643 0.500000
O O9 0.856441 0.725708 0.334300
O O10 0.000000 0.700542 0.360101
O O11 0.750000 0.250000 0.212949
O O12 0.848316 0.167654 0.257665
O O13 0.888789 0.270781 0.161925
O O14 0.214215 0.076660 0.822647
O O15 0.352008 0.116074 0.861381
O O16 0.313267 0.000000 0.882443
O O17 0.267916 0.080506 0.000000
O O18 0.000000 0.348779 0.138744
O O19 0.911240 0.326925 0.000000
#
# Coordination Sequence:
#
# PCOD9487114 Si02
#       7
#     8  16  16  16  16  16  16
#     4  11  26  46  67  91 118 151 199 263 325 370
#     4  10  19  33  58  87 114 151 197 245 297 362
#     4  10  22  38  55  83 123 157 192 245 307 368
#     4  12  23  37  59  88 117 160 207 252 295 358
#     4  10  20  36  63  96 128 162 201 245 296 358
#     4  12  22  39  63  87 117 154 205 253 304 357
#     4  10  22  40  62  93 132 166 200 248 303 359
#
# _framework density 18.660298000000001
#
# number of rings (size 3 to 8) (size 9 to 14) (size 15 to 20)
#    0.000    1.308    4.615    0.923    0.000    4.308 
#    0.000    4.615    0.000    4.615    0.000    0.000 
#    0.000    0.000    0.000    0.000    0.000    0.000 
#
# Total GULP energy -290238.046773 kJ/mol
# GULP energy per Si atom -5581.500899 kJ/mol
# Density = 1.861783 g / cm^3
# Si number density = 18.660298 Si / 1000 Ang^3
#
#
#
# Elastic Constant Matrix: (Units=GPa)
#
#
# Indices 1 2 3 4 5 6 
#
# 1 76.0077 31.0876 33.3722 0.0000 0.0000 0.0000
# 2 31.0876 141.3163 38.0272 0.0000 0.0000 0.0000
# 3 33.3722 38.0272 93.9431 0.0000 0.0000 0.0000
# 4 0.0000 0.0000 0.0000 28.6503 0.0000 0.0000
# 5 0.0000 0.0000 0.0000 0.0000 28.8257 0.0000
# 6 0.0000 0.0000 0.0000 0.0000 0.0000 107.8080
#
#
#
# Elastic Compliance Matrix: (Units=1/GPa)
#
#
# Indices 1 2 3 4 5 6 
#
# 1 0.016208 -0.002263 -0.004842 0.000000 0.000000 0.000000
# 2 -0.002263 0.008257 -0.002539 0.000000 0.000000 0.000000
# 3 -0.004842 -0.002539 0.013392 0.000000 0.000000 0.000000
# 4 0.000000 0.000000 0.000000 0.034904 0.000000 0.000000
# 5 0.000000 0.000000 0.000000 0.000000 0.034691 0.000000
# 6 0.000000 0.000000 0.000000 0.000000 0.000000 0.009276
#
#
# Mechanical properties :
#
#
# Convention : Reuss Voigt Hill
#
# Bulk Modulus (GPa) = 53.84652 57.36012 55.60332
# Shear Modulus (GPa) = 35.16060 46.97546 41.06803
#
# Velocity S-wave (km/s) = 4.34550 5.02281 4.69638
# Velocity P-wave (km/s) = 7.35504 8.02771 7.69873
#
# Compressibility (1/GPa) = 0.01857130
#
# Stress axis : x y z
#
# Youngs Moduli (GPa) = 61.69862 121.10636 74.66953
#
# Poissons Ratio (x) = 0.27402 0.36153
# Poissons Ratio (y) = 0.13960 0.18956
# Poissons Ratio (z) = 0.29873 0.30745
#
# Static dielectric constant tensor:
#      x y z
#    x 1.616020 0.000000 0.000000 
#    y 0.000000 1.644180 0.000000 
#    z 0.000000 0.000000 1.673580 
# 
# From -- ./inp_files/42882.got.cif
#   From: 2010.05.17/outbox.cif.g08.bks.cpg/sg65_22_cif.got.tgz:42882.got - 2010.06.03 17:01:31.
