data_PCOD9487647
_publ_section_title
;
Structure prediction by ZEFSAII (Michael W. Deem and Ramdas Pophale) SiO2 
 PCOD9487647
Probable space group: C M M M
;
_chemical_formula_sum "Si O2"
_cell_formula_units_Z 82
_cell_length_a 20.334804
_cell_length_b 26.030544
_cell_length_c 8.027683
_cell_angle_alpha 90.000000
_cell_angle_beta 90.000000
_cell_angle_gamma 90.000000
_cell_volume 4249.261414
_symmetry_space_group_name_H-M "C M M M"
_symmetry_group_IT_number 65
_symmetry_cell_setting 'orthorhombic'
loop_
_space_group_symop_operation_xyz
x,y,z
-x,-y,z
x,-y,-z
-x,y,-z
-x,-y,-z
x,y,-z
-x,y,z
x,-y,z
1/2+x,1/2+y,z
1/2-x,1/2-y,z
1/2+x,1/2-y,-z
1/2-x,1/2+y,-z
1/2-x,1/2-y,-z
1/2+x,1/2+y,-z
1/2-x,1/2+y,z
1/2+x,1/2-y,z
loop_
_atom_site_type_symbol
_atom_site_label
_atom_site_fract_x
_atom_site_fract_y
_atom_site_fract_z
Si Si1 0.200439 0.895997 0.296601
Si Si2 0.500000 0.500000 0.500000
Si Si3 0.646643 0.103905 0.303597
Si Si4 0.363403 0.500000 0.313873
Si Si5 0.813285 0.218636 0.302481
Si Si6 0.074737 0.705866 0.195631
Si Si7 0.576280 0.000000 0.200279
O O1 0.193870 0.895333 0.500000
O O2 0.277290 0.900317 0.252693
O O3 0.160873 0.946275 0.236237
O O4 0.179125 0.839360 0.236220
O O5 0.440693 0.500000 0.356983
O O6 0.646330 0.115219 0.500000
O O7 0.608188 0.150419 0.218522
O O8 0.611099 0.050621 0.267900
O O9 0.330445 0.500000 0.500000
O O10 0.801001 0.213301 0.500000
O O11 0.750000 0.250000 0.233245
O O12 0.877913 0.252375 0.277675
O O13 0.000000 0.705515 0.260971
O O14 0.072501 0.717333 0.000000
O O15 0.500000 0.000000 0.248906
O O16 0.580238 0.000000 0.000000
#
# Coordination Sequence:
#
# PCOD9487647 Si02
#       7
#    16   2  16   8  16  16   8
#     4   9  17  32  54  80 112 142 177 239 287 332
#     4   8  16  28  48  76 116 148 180 216 280 370
#     4  11  21  36  60  83 108 146 194 239 291 338
#     4   8  15  29  47  75 111 144 178 215 280 340
#     4  10  19  36  58  84 113 144 190 243 291 341
#     4  11  24  40  55  79 117 156 190 235 292 352
#     4  11  24  39  52  77 116 153 189 234 285 345
#
# _framework density 19.297471000000002
#
# number of rings (size 3 to 8) (size 9 to 14) (size 15 to 20)
#    0.293    1.659    1.951    2.634    0.000    6.634 
#    1.756    0.000    0.000    0.000    0.000    0.000 
#    0.000    1.561    0.000    0.000    0.000    0.000 
#
# Total GULP energy -228429.832018 kJ/mol
# GULP energy per Si atom -5571.459318 kJ/mol
# Density = 1.925355 g / cm^3
# Si number density = 19.297471 Si / 1000 Ang^3
#
#
#
# Elastic Constant Matrix: (Units=GPa)
#
#
# Indices 1 2 3 4 5 6 
#
# 1 131.9124 77.4395 -5.7869 0.0000 0.0000 0.0000
# 2 77.4395 181.2051 -5.0432 0.0000 0.0000 0.0000
# 3 -5.7869 -5.0432 8.5172 0.0000 0.0000 0.0000
# 4 0.0000 0.0000 0.0000 42.7634 0.0000 0.0000
# 5 0.0000 0.0000 0.0000 0.0000 32.4186 0.0000
# 6 0.0000 0.0000 0.0000 0.0000 0.0000 7.5518
#
#
#
# Elastic Compliance Matrix: (Units=1/GPa)
#
#
# Indices 1 2 3 4 5 6 
#
# 1 0.010283 -0.004271 0.004458 0.000000 0.000000 0.000000
# 2 -0.004271 0.007385 0.001471 0.000000 0.000000 0.000000
# 3 0.004458 0.001471 0.121309 0.000000 0.000000 0.000000
# 4 0.000000 0.000000 0.000000 0.023384 0.000000 0.000000
# 5 0.000000 0.000000 0.000000 0.000000 0.030847 0.000000
# 6 0.000000 0.000000 0.000000 0.000000 0.000000 0.132418
#
#
# Mechanical properties :
#
#
# Convention : Reuss Voigt Hill
#
# Bulk Modulus (GPa) = 7.02769 50.53928 28.78348
# Shear Modulus (GPa) = 13.52297 33.54844 23.53571
#
# Velocity S-wave (km/s) = 2.65007 4.17404 3.49610
# Velocity P-wave (km/s) = 3.60742 7.03396 5.58973
#
# Compressibility (1/GPa) = 0.14229435
#
# Stress axis : x y z
#
# Youngs Moduli (GPa) = 97.24361 135.41621 8.24340
#
# Poissons Ratio (x) = 0.57831 -0.03675
# Poissons Ratio (y) = 0.41529 -0.01213
# Poissons Ratio (z) = -0.43353 -0.19920
#
# Static dielectric constant tensor:
#      x y z
#    x 1.647740 0.000000 0.000000 
#    y 0.000000 1.678930 0.000000 
#    z 0.000000 0.000000 1.695220 
# 
# From -- ./inp_files/11646.got.cif
#   From: 2010.05.17/outbox.cif.g08.bks.cpg/sg65_6_cif.got.tgz:11646.got - 2010.06.03 17:01:31.
