data_PCOD9487819
_publ_section_title
;
Structure prediction by ZEFSAII (Michael W. Deem and Ramdas Pophale) SiO2 
 PCOD9487819
Probable space group: C M M M
;
_chemical_formula_sum "Si O2"
_cell_formula_units_Z 104
_cell_length_a 28.390840
_cell_length_b 8.208904
_cell_length_c 28.689925
_cell_angle_alpha 90.000000
_cell_angle_beta 90.000000
_cell_angle_gamma 90.000000
_cell_volume 6686.407361
_symmetry_space_group_name_H-M "C M M M"
_symmetry_group_IT_number 65
_symmetry_cell_setting 'orthorhombic'
loop_
_space_group_symop_operation_xyz
x,y,z
-x,-y,z
x,-y,-z
-x,y,-z
-x,-y,-z
x,y,-z
-x,y,z
x,-y,z
1/2+x,1/2+y,z
1/2-x,1/2-y,z
1/2+x,1/2-y,-z
1/2-x,1/2+y,-z
1/2-x,1/2-y,-z
1/2+x,1/2+y,-z
1/2-x,1/2+y,z
1/2+x,1/2-y,z
loop_
_atom_site_type_symbol
_atom_site_label
_atom_site_fract_x
_atom_site_fract_y
_atom_site_fract_z
Si Si1 0.056717 0.807760 0.382642
Si Si2 0.643462 0.805837 0.857021
Si Si3 0.606181 0.695432 0.285167
Si Si4 0.057037 0.500000 0.446767
Si Si5 0.803124 0.306051 0.764582
Si Si6 0.196629 0.194616 0.947697
Si Si7 0.553003 0.303450 0.807417
O O1 0.083555 0.764353 0.334783
O O2 0.069819 0.668134 0.420071
O O3 0.000000 0.799189 0.375354
O O4 0.066786 0.000000 0.394512
O O5 0.676481 0.742439 0.814361
O O6 0.663114 0.753097 0.906651
O O7 0.590930 0.747041 0.845816
O O8 0.644192 0.000000 0.854780
O O9 0.606692 0.500000 0.282602
O O10 0.658873 0.754480 0.274264
O O11 0.573628 0.755510 0.242330
O O12 0.074275 0.500000 0.500000
O O13 0.000000 0.500000 0.448022
O O14 0.802911 0.500000 0.766839
O O15 0.750000 0.250000 0.756538
O O16 0.250000 0.250000 0.937766
O O17 0.195890 0.000000 0.948330
O O18 0.184431 0.254317 0.000000
O O19 0.500000 0.244193 0.815083
O O20 0.551739 0.500000 0.805797
#
# Coordination Sequence:
#
# PCOD9487819 Si02
#       7
#    16  16  16   8  16  16  16
#     4   9  17  29  46  68  95 129 164 199 239 282
#     4  10  20  32  47  68  93 122 154 185 227 274
#     4   9  17  29  46  67  92 123 157 194 230 274
#     4   9  18  30  44  66  96 130 166 202 241 283
#     4  10  20  31  44  64  92 125 155 186 225 274
#     4  10  20  33  50  71  92 115 146 186 230 277
#     4   9  17  30  48  68  92 123 157 191 228 271
#
# _framework density 15.553944
#
# number of rings (size 3 to 8) (size 9 to 14) (size 15 to 20)
#    0.000    2.538    0.000    2.308    1.077    6.462 
#    0.000    1.538    0.000    0.462    0.000    3.231 
#    0.000    0.615    0.308    0.000    0.000    0.000 
#
# Total GULP energy -289770.512817 kJ/mol
# GULP energy per Si atom -5572.509862 kJ/mol
# Density = 1.551854 g / cm^3
# Si number density = 15.553944 Si / 1000 Ang^3
#
#
#
# Elastic Constant Matrix: (Units=GPa)
#
#
# Indices 1 2 3 4 5 6 
#
# 1 113.4638 34.1850 73.6514 0.0000 0.0000 0.0000
# 2 34.1850 45.6566 46.8990 0.0000 0.0000 0.0000
# 3 73.6514 46.8990 118.5380 0.0000 0.0000 0.0000
# 4 0.0000 0.0000 0.0000 24.0355 0.0000 0.0000
# 5 0.0000 0.0000 0.0000 0.0000 15.4224 0.0000
# 6 0.0000 0.0000 0.0000 0.0000 0.0000 21.8621
#
#
#
# Elastic Compliance Matrix: (Units=1/GPa)
#
#
# Indices 1 2 3 4 5 6 
#
# 1 0.014978 -0.002788 -0.008203 0.000000 0.000000 0.000000
# 2 -0.002788 0.037418 -0.013072 0.000000 0.000000 0.000000
# 3 -0.008203 -0.013072 0.018705 0.000000 0.000000 0.000000
# 4 0.000000 0.000000 0.000000 0.041605 0.000000 0.000000
# 5 0.000000 0.000000 0.000000 0.000000 0.064841 0.000000
# 6 0.000000 0.000000 0.000000 0.000000 0.000000 0.045741
#
#
# Mechanical properties :
#
#
# Convention : Reuss Voigt Hill
#
# Bulk Modulus (GPa) = 43.52697 65.23657 54.38177
# Shear Modulus (GPa) = 17.91646 20.45887 19.18767
#
# Velocity S-wave (km/s) = 3.39764 3.63071 3.51610
# Velocity P-wave (km/s) = 6.59069 7.72070 7.17797
#
# Compressibility (1/GPa) = 0.02297426
#
# Stress axis : x y z
#
# Youngs Moduli (GPa) = 66.76259 26.72531 53.46201
#
# Poissons Ratio (x) = 0.07452 0.43857
# Poissons Ratio (y) = 0.18616 0.69884
# Poissons Ratio (z) = 0.54768 0.34934
#
# Static dielectric constant tensor:
#      x y z
#    x 1.502520 0.000000 0.000000 
#    y 0.000000 1.544910 0.000000 
#    z 0.000000 0.000000 1.520360 
# 
# From -- ./inp_files/71812.got.cif
#   From: 2010.05.17/outbox.cif.g08.bks.cpg/sg65_36_cif.got.tgz:71812.got - 2010.06.03 17:01:31.
