data_PCOD9487530
_publ_section_title
;
Structure prediction by ZEFSAII (Michael W. Deem and Ramdas Pophale) SiO2 
 PCOD9487530
Probable space group: C M M M
;
_chemical_formula_sum "Si O2"
_cell_formula_units_Z 88
_cell_length_a 8.966035
_cell_length_b 29.717519
_cell_length_c 17.345907
_cell_angle_alpha 90.000000
_cell_angle_beta 90.000000
_cell_angle_gamma 90.000000
_cell_volume 4621.787700
_symmetry_space_group_name_H-M "C M M M"
_symmetry_group_IT_number 65
_symmetry_cell_setting 'orthorhombic'
loop_
_space_group_symop_operation_xyz
x,y,z
-x,-y,z
x,-y,-z
-x,y,-z
-x,-y,-z
x,y,-z
-x,y,z
x,-y,z
1/2+x,1/2+y,z
1/2-x,1/2-y,z
1/2+x,1/2-y,-z
1/2-x,1/2+y,-z
1/2-x,1/2-y,-z
1/2+x,1/2+y,-z
1/2-x,1/2+y,z
1/2+x,1/2-y,z
loop_
_atom_site_type_symbol
_atom_site_label
_atom_site_fract_x
_atom_site_fract_y
_atom_site_fract_z
Si Si1 0.819703 0.355748 0.153313
Si Si2 0.823310 0.201334 0.288948
Si Si3 0.821670 0.299115 0.000000
Si Si4 0.828182 0.358542 0.407336
Si Si5 0.326323 0.450023 0.406203
Si Si6 0.181368 0.450119 0.090003
O O1 0.741068 0.332026 0.224334
O O2 0.783042 0.327594 0.076047
O O3 0.771390 0.407313 0.139530
O O4 0.000000 0.354651 0.163006
O O5 0.750000 0.250000 0.278965
O O6 0.773289 0.179365 0.369468
O O7 0.000000 0.204951 0.283338
O O8 0.750000 0.250000 0.000000
O O9 0.000000 0.293793 0.000000
O O10 0.819127 0.357147 0.500000
O O11 0.771750 0.407839 0.381086
O O12 0.000000 0.351850 0.384494
O O13 0.321475 0.450476 0.500000
O O14 0.500000 0.443524 0.384912
O O15 0.278083 0.500000 0.380411
O O16 0.230713 0.500000 0.115026
O O17 0.000000 0.449949 0.090784
O O18 0.223944 0.443942 0.000000
#
# Coordination Sequence:
#
# PCOD9487530 Si02
#       6
#    16  16   8  16  16  16
#     4  10  19  35  57  84 117 150 189 234 281 335
#     4  12  26  43  61  81 109 148 190 238 297 353
#     4  10  20  32  51  79 109 145 186 232 281 330
#     4  10  21  38  61  88 115 146 189 240 292 350
#     4   8  14  27  50  81 116 151 184 221 271 330
#     4   8  13  25  51  86 119 151 188 230 276 326
#
# _framework density 19.040251999999999
#
# number of rings (size 3 to 8) (size 9 to 14) (size 15 to 20)
#    0.000    2.364    0.909    3.818    0.000    4.000 
#    0.000    2.727    0.000    3.818    0.000    1.273 
#    0.000    0.000    0.000    0.000    0.000    0.000 
#
# Total GULP energy -245542.994967 kJ/mol
# GULP energy per Si atom -5580.522613 kJ/mol
# Density = 1.899692 g / cm^3
# Si number density = 19.040252 Si / 1000 Ang^3
#
#
#
# Elastic Constant Matrix: (Units=GPa)
#
#
# Indices 1 2 3 4 5 6 
#
# 1 68.7111 54.1765 27.8082 0.0000 0.0000 0.0000
# 2 54.1765 169.5728 37.9315 0.0000 0.0000 0.0000
# 3 27.8082 37.9315 36.4771 0.0000 0.0000 0.0000
# 4 0.0000 0.0000 0.0000 26.0742 0.0000 0.0000
# 5 0.0000 0.0000 0.0000 0.0000 20.2460 0.0000
# 6 0.0000 0.0000 0.0000 0.0000 0.0000 -1.7961
#
#
#
# Elastic Compliance Matrix: (Units=1/GPa)
#
#
# Indices 1 2 3 4 5 6 
#
# 1 0.023470 -0.004556 -0.013155 0.000000 0.000000 0.000000
# 2 -0.004556 0.008569 -0.005438 0.000000 0.000000 0.000000
# 3 -0.013155 -0.005438 0.043097 0.000000 0.000000 0.000000
# 4 0.000000 0.000000 0.000000 0.038352 0.000000 0.000000
# 5 0.000000 0.000000 0.000000 0.000000 0.049393 0.000000
# 6 0.000000 0.000000 0.000000 0.000000 0.000000 -0.556763
#
#
# Mechanical properties :
#
#
# Convention : Reuss Voigt Hill
#
# Bulk Modulus (GPa) = 34.67414 57.17706 45.92560
# Shear Modulus (GPa) = -14.79408 19.22780 2.21686
#
# Velocity S-wave (km/s) = -2.79048 3.18126 1.08020
# Velocity P-wave (km/s) = 2.80502 6.60217 5.07232
#
# Compressibility (1/GPa) = 0.02883994
#
# Stress axis : x y z
#
# Youngs Moduli (GPa) = 42.60840 116.69973 23.20334
#
# Poissons Ratio (x) = 0.53165 0.30523
# Poissons Ratio (y) = 0.19411 0.12617
# Poissons Ratio (z) = 0.56050 0.63457
#
# Static dielectric constant tensor:
#      x y z
#    x 1.636650 0.000000 0.000000 
#    y 0.000000 1.665380 0.000000 
#    z 0.000000 0.000000 1.678590 
# 
# From -- ./inp_files/50287.got.cif
#   From: 2010.05.17/outbox.cif.g08.bks.cpg/sg65_26_cif.got.tgz:50287.got - 2010.06.03 17:01:31.
