data_PCOD9487929
_publ_section_title
;
Structure prediction by ZEFSAII (Michael W. Deem and Ramdas Pophale) SiO2 
 PCOD9487929
Probable space group: C M M M
;
_chemical_formula_sum "Si O2"
_cell_formula_units_Z 104
_cell_length_a 9.179839
_cell_length_b 28.815439
_cell_length_c 29.300904
_cell_angle_alpha 90.000000
_cell_angle_beta 90.000000
_cell_angle_gamma 90.000000
_cell_volume 7750.707086
_symmetry_space_group_name_H-M "C M M M"
_symmetry_group_IT_number 65
_symmetry_cell_setting 'orthorhombic'
loop_
_space_group_symop_operation_xyz
x,y,z
-x,-y,z
x,-y,-z
-x,y,-z
-x,-y,-z
x,y,-z
-x,y,z
x,-y,z
1/2+x,1/2+y,z
1/2-x,1/2-y,z
1/2+x,1/2-y,-z
1/2-x,1/2+y,-z
1/2-x,1/2-y,-z
1/2+x,1/2+y,-z
1/2-x,1/2+y,z
1/2+x,1/2-y,z
loop_
_atom_site_type_symbol
_atom_site_label
_atom_site_fract_x
_atom_site_fract_y
_atom_site_fract_z
Si Si1 0.170089 0.943624 0.449306
Si Si2 0.832183 0.556615 0.358254
Si Si3 0.672249 0.944190 0.826437
Si Si4 0.175370 0.898210 0.912785
Si Si5 0.171654 0.444313 0.000000
Si Si6 0.667295 0.556408 0.266853
Si Si7 0.326070 0.297210 0.053359
O O1 0.218807 0.928536 0.500000
O O2 0.262862 0.927675 0.406106
O O3 0.000000 0.931292 0.443678
O O4 0.176022 0.000000 0.449298
O O5 0.828809 0.500000 0.358504
O O6 0.740148 0.571737 0.314242
O O7 0.000000 0.570549 0.354157
O O8 0.500000 0.934334 0.828529
O O9 0.758219 0.918984 0.866759
O O10 0.738892 0.930679 0.777414
O O11 0.690122 0.000000 0.831562
O O12 0.248623 0.924315 0.955485
O O13 0.209592 0.843626 0.918995
O O14 0.000000 0.903762 0.914237
O O15 0.181055 0.500000 0.000000
O O16 0.000000 0.431643 0.000000
O O17 0.500000 0.571799 0.262979
O O18 0.666113 0.500000 0.267912
O O19 0.500000 0.291014 0.054706
O O20 0.250000 0.250000 0.068973
O O21 0.284989 0.304981 0.000000
#
# Coordination Sequence:
#
# PCOD9487929 Si02
#       7
#    16  16  16  16   8  16  16
#     4   8  13  20  28  38  54  77 105 138 178 225
#     4   9  15  21  30  44  61  81 107 143 185 226
#     4  10  20  32  44  60  82 105 131 162 194 230
#     4  11  21  34  49  66  86 107 132 159 190 230
#     4  11  23  35  46  63  86 111 138 163 188 223
#     4   9  16  26  39  52  66  89 121 153 187 226
#     4   9  18  33  50  69  88 105 128 157 188 225
#
# _framework density 13.41813
#
# number of rings (size 3 to 8) (size 9 to 14) (size 15 to 20)
#    0.000    2.538    0.769    3.000    0.000    8.615 
#    0.000    1.538    0.000    0.000    0.000    0.000 
#    0.000    0.000    0.000    0.000    0.000    0.000 
#
# Total GULP energy -289715.674320 kJ/mol
# GULP energy per Si atom -5571.455275 kJ/mol
# Density = 1.338759 g / cm^3
# Si number density = 13.418130 Si / 1000 Ang^3
#
#
#
# Elastic Constant Matrix: (Units=GPa)
#
#
# Indices 1 2 3 4 5 6 
#
# 1 93.2680 35.1282 66.3224 0.0000 0.0000 0.0000
# 2 35.1282 38.6228 31.4255 0.0000 0.0000 0.0000
# 3 66.3224 31.4255 122.7544 0.0000 0.0000 0.0000
# 4 0.0000 0.0000 0.0000 0.0564 0.0000 0.0000
# 5 0.0000 0.0000 0.0000 0.0000 22.2857 0.0000
# 6 0.0000 0.0000 0.0000 0.0000 0.0000 14.6475
#
#
#
# Elastic Compliance Matrix: (Units=1/GPa)
#
#
# Indices 1 2 3 4 5 6 
#
# 1 0.021431 -0.012720 -0.008322 0.000000 0.000000 0.000000
# 2 -0.012720 0.040254 -0.003433 0.000000 0.000000 0.000000
# 3 -0.008322 -0.003433 0.013521 0.000000 0.000000 0.000000
# 4 0.000000 0.000000 0.000000 17.735118 0.000000 0.000000
# 5 0.000000 0.000000 0.000000 0.000000 0.044872 0.000000
# 6 0.000000 0.000000 0.000000 0.000000 0.000000 0.068271
#
#
# Mechanical properties :
#
#
# Convention : Reuss Voigt Hill
#
# Bulk Modulus (GPa) = 38.08681 57.82192 47.95437
# Shear Modulus (GPa) = 0.27807 15.51586 7.89696
#
# Velocity S-wave (km/s) = 0.45572 3.40418 2.42859
# Velocity P-wave (km/s) = 5.35940 7.65749 6.60910
#
# Compressibility (1/GPa) = 0.02625581
#
# Stress axis : x y z
#
# Youngs Moduli (GPa) = 46.66241 24.84254 73.95655
#
# Poissons Ratio (x) = 0.31600 0.61548
# Poissons Ratio (y) = 0.59355 0.25386
# Poissons Ratio (z) = 0.38833 0.08527
#
# Static dielectric constant tensor:
#      x y z
#    x 1.448930 0.000000 0.000000 
#    y 0.000000 1.404460 0.000000 
#    z 0.000000 0.000000 1.442130 
# 
# From -- ./inp_files/73598.got.cif
#   From: 2010.05.17/outbox.cif.g08.bks.cpg/sg65_37_cif.got.tgz:73598.got - 2010.06.03 17:01:31.
