data_PCOD9487000
_publ_section_title
;
Structure prediction by ZEFSAII (Michael W. Deem and Ramdas Pophale) SiO2 
 PCOD9487000
Probable space group: C M M M
;
_chemical_formula_sum "Si O2"
_cell_formula_units_Z 104
_cell_length_a 22.418293
_cell_length_b 28.770438
_cell_length_c 7.716585
_cell_angle_alpha 90.000000
_cell_angle_beta 90.000000
_cell_angle_gamma 90.000000
_cell_volume 4977.074699
_symmetry_space_group_name_H-M "C M M M"
_symmetry_group_IT_number 65
_symmetry_cell_setting 'orthorhombic'
loop_
_space_group_symop_operation_xyz
x,y,z
-x,-y,z
x,-y,-z
-x,y,-z
-x,-y,-z
x,y,-z
-x,y,z
x,-y,z
1/2+x,1/2+y,z
1/2-x,1/2-y,z
1/2+x,1/2-y,-z
1/2-x,1/2+y,-z
1/2-x,1/2-y,-z
1/2+x,1/2+y,-z
1/2-x,1/2+y,z
1/2+x,1/2-y,z
loop_
_atom_site_type_symbol
_atom_site_label
_atom_site_fract_x
_atom_site_fract_y
_atom_site_fract_z
Si Si1 0.500000 0.554067 0.288612
Si Si2 0.844645 0.373593 0.808879
Si Si3 0.067953 0.297595 0.212257
Si Si4 0.929023 0.551437 0.703104
Si Si5 0.377641 0.401964 0.293824
Si Si6 0.067033 0.190340 0.791328
Si Si7 0.755883 0.947152 0.707117
O O1 0.500000 0.500000 0.247281
O O2 0.500000 0.558366 0.500000
O O3 0.560777 0.577012 0.222847
O O4 0.877157 0.329222 0.723037
O O5 0.900010 0.409008 0.813718
O O6 0.793143 0.406942 0.736337
O O7 0.824497 0.359210 0.000000
O O8 0.076538 0.243741 0.261505
O O9 0.000000 0.311635 0.265819
O O10 0.068328 0.300257 0.000000
O O11 0.913109 0.558282 0.500000
O O12 0.908134 0.500000 0.753273
O O13 0.000000 0.552292 0.714892
O O14 0.377228 0.410324 0.500000
O O15 0.384187 0.346814 0.266788
O O16 0.318815 0.427167 0.224198
O O17 0.000000 0.176768 0.729564
O O18 0.065955 0.189886 0.000000
O O19 0.760331 0.951403 0.500000
O O20 0.743184 0.000000 0.772361
#
# Coordination Sequence:
#
# PCOD9487000 Si02
#       7
#     8  16  16  16  16  16  16
#     4   9  16  28  51  81 107 129 161 209 260 309
#     4  11  21  33  52  76 101 134 179 227 265 297
#     4   8  16  32  53  77 105 137 173 213 259 314
#     4   9  18  32  49  70  99 134 169 209 264 326
#     4  10  19  33  55  81 105 132 172 219 259 303
#     4   9  17  32  55  80 107 138 167 202 261 325
#     4  10  22  39  55  72 102 145 182 210 255 320
#
# _framework density 20.895810000000001
#
# number of rings (size 3 to 8) (size 9 to 14) (size 15 to 20)
#    0.000    2.538    0.769    3.231    0.000    5.846 
#    0.000    3.077    0.000    8.308    0.000    0.000 
#    0.000    0.000    0.000    0.000    0.000    0.000 
#
# Total GULP energy -289843.508854 kJ/mol
# GULP energy per Si atom -5573.913632 kJ/mol
# Density = 2.084825 g / cm^3
# Si number density = 20.895810 Si / 1000 Ang^3
#
#
#
# Elastic Constant Matrix: (Units=GPa)
#
#
# Indices 1 2 3 4 5 6 
#
# 1 121.2139 77.4810 8.4353 0.0000 0.0000 0.0000
# 2 77.4810 118.3144 1.7884 0.0000 0.0000 0.0000
# 3 8.4353 1.7884 26.9665 0.0000 0.0000 0.0000
# 4 0.0000 0.0000 0.0000 18.8115 0.0000 0.0000
# 5 0.0000 0.0000 0.0000 0.0000 -5.9970 0.0000
# 6 0.0000 0.0000 0.0000 0.0000 0.0000 51.8000
#
#
#
# Elastic Compliance Matrix: (Units=1/GPa)
#
#
# Indices 1 2 3 4 5 6 
#
# 1 0.014595 -0.009499 -0.003936 0.000000 0.000000 0.000000
# 2 -0.009499 0.014642 0.002000 0.000000 0.000000 0.000000
# 3 -0.003936 0.002000 0.038182 0.000000 0.000000 0.000000
# 4 0.000000 0.000000 0.000000 0.053159 0.000000 0.000000
# 5 0.000000 0.000000 0.000000 0.000000 -0.166749 0.000000
# 6 0.000000 0.000000 0.000000 0.000000 0.000000 0.019305
#
#
# Mechanical properties :
#
#
# Convention : Reuss Voigt Hill
#
# Bulk Modulus (GPa) = 22.44617 49.10048 35.77332
# Shear Modulus (GPa) = 460.73577 24.84224 242.78900
#
# Velocity S-wave (km/s) = 14.86508 3.45173 10.79085
# Velocity P-wave (km/s) = 17.47549 6.27970 13.13064
#
# Compressibility (1/GPa) = 0.04455103
#
# Stress axis : x y z
#
# Youngs Moduli (GPa) = 68.51483 68.29555 26.19066
#
# Poissons Ratio (x) = 0.64872 0.10308
# Poissons Ratio (y) = 0.65080 -0.05239
# Poissons Ratio (z) = 0.26965 -0.13660
#
# Static dielectric constant tensor:
#      x y z
#    x 1.764690 0.000000 0.000000 
#    y 0.000000 1.776820 0.000000 
#    z 0.000000 0.000000 1.823840 
# 
# From -- ./inp_files/12814.got.cif
#   From: 2010.05.17/outbox.cif.g08.bks.cpg/sg65_7_cif.got.tgz:12814.got - 2010.06.03 17:01:31.
