data_PCOD9487905
_publ_section_title
;
Structure prediction by ZEFSAII (Michael W. Deem and Ramdas Pophale) SiO2 
 PCOD9487905
Probable space group: C M M M
;
_chemical_formula_sum "Si O2"
_cell_formula_units_Z 120
_cell_length_a 21.857336
_cell_length_b 13.968023
_cell_length_c 21.503391
_cell_angle_alpha 90.000000
_cell_angle_beta 90.000000
_cell_angle_gamma 90.000000
_cell_volume 6565.066382
_symmetry_space_group_name_H-M "C M M M"
_symmetry_group_IT_number 65
_symmetry_cell_setting 'orthorhombic'
loop_
_space_group_symop_operation_xyz
x,y,z
-x,-y,z
x,-y,-z
-x,y,-z
-x,-y,-z
x,y,-z
-x,y,z
x,-y,z
1/2+x,1/2+y,z
1/2-x,1/2-y,z
1/2+x,1/2-y,-z
1/2-x,1/2+y,-z
1/2-x,1/2-y,-z
1/2+x,1/2+y,-z
1/2-x,1/2+y,z
1/2+x,1/2-y,z
loop_
_atom_site_type_symbol
_atom_site_label
_atom_site_fract_x
_atom_site_fract_y
_atom_site_fract_z
Si Si1 0.774410 0.886333 0.885072
Si Si2 0.634706 0.886198 0.677297
Si Si3 0.145337 0.284005 0.105574
Si Si4 0.824134 0.747163 0.426305
Si Si5 0.570403 0.242360 0.765808
Si Si6 0.748776 0.608247 0.252336
Si Si7 0.572808 0.888844 0.000000
Si Si8 0.627240 0.391714 0.329930
O O1 0.826265 0.818984 0.914672
O O2 0.705242 0.853036 0.898873
O O3 0.777864 0.856956 0.812130
O O4 0.783082 0.000000 0.894332
O O5 0.646661 0.843374 0.609443
O O6 0.578986 0.845447 0.717213
O O7 0.692685 0.844252 0.717036
O O8 0.635169 0.000000 0.674883
O O9 0.112925 0.273983 0.173284
O O10 0.097438 0.331403 0.059331
O O11 0.832867 0.745275 0.500000
O O12 0.750000 0.750000 0.415356
O O13 0.860694 0.834484 0.393585
O O14 0.500000 0.251719 0.785301
O O15 0.589656 0.332454 0.721969
O O16 0.769406 0.500000 0.236880
O O17 0.695271 0.603646 0.301467
O O18 0.500000 0.890352 0.000000
O O19 0.594349 0.000000 0.000000
O O20 0.604347 0.500000 0.338094
#
# Coordination Sequence:
#
# PCOD9487905 Si02
#       8
#    16  16  16  16  16  16   8  16
#     4  10  20  34  60  95 124 149 182 233 297 358
#     4  10  20  34  54  78 111 149 183 229 289 347
#     4  11  22  38  63  87 120 157 191 235 289 344
#     4  10  20  31  49  81 118 148 179 223 279 349
#     4  11  23  36  56  85 112 143 192 244 284 328
#     4   9  15  28  52  83 112 144 177 216 282 352
#     4  11  26  47  65  83 117 165 209 240 274 331
#     4  10  20  35  56  80 114 153 187 229 286 344
#
# _framework density 18.278566999999999
#
# number of rings (size 3 to 8) (size 9 to 14) (size 15 to 20)
#    0.000    1.800    4.000    0.800    0.000    2.667 
#    0.000    2.333    0.000    8.000    0.000    7.467 
#    0.000    0.000    0.000    0.000    0.000    0.000 
#
# Total GULP energy -334141.444974 kJ/mol
# GULP energy per Si atom -5569.024083 kJ/mol
# Density = 1.823696 g / cm^3
# Si number density = 18.278567 Si / 1000 Ang^3
#
#
#
# Elastic Constant Matrix: (Units=GPa)
#
#
# Indices 1 2 3 4 5 6 
#
# 1 74.7755 37.4885 31.8327 0.0000 0.0000 0.0000
# 2 37.4885 151.6303 53.3557 0.0000 0.0000 0.0000
# 3 31.8327 53.3557 91.7945 0.0000 0.0000 0.0000
# 4 0.0000 0.0000 0.0000 12.3346 0.0000 0.0000
# 5 0.0000 0.0000 0.0000 0.0000 18.7194 0.0000
# 6 0.0000 0.0000 0.0000 0.0000 0.0000 14.4870
#
#
#
# Elastic Compliance Matrix: (Units=1/GPa)
#
#
# Indices 1 2 3 4 5 6 
#
# 1 0.016461 -0.002591 -0.004202 0.000000 0.000000 0.000000
# 2 -0.002591 0.008699 -0.004157 0.000000 0.000000 0.000000
# 3 -0.004202 -0.004157 0.014768 0.000000 0.000000 0.000000
# 4 0.000000 0.000000 0.000000 0.081073 0.000000 0.000000
# 5 0.000000 0.000000 0.000000 0.000000 0.053420 0.000000
# 6 0.000000 0.000000 0.000000 0.000000 0.000000 0.069027
#
#
# Mechanical properties :
#
#
# Convention : Reuss Voigt Hill
#
# Bulk Modulus (GPa) = 55.47646 62.61711 59.04679
# Shear Modulus (GPa) = 18.42578 22.14311 20.28445
#
# Velocity S-wave (km/s) = 3.17843 3.48433 3.33489
# Velocity P-wave (km/s) = 6.62468 7.10766 6.87042
#
# Compressibility (1/GPa) = 0.01802566
#
# Stress axis : x y z
#
# Youngs Moduli (GPa) = 60.74808 114.96187 67.71502
#
# Poissons Ratio (x) = 0.29788 0.28457
# Poissons Ratio (y) = 0.15740 0.28152
# Poissons Ratio (z) = 0.25529 0.47795
#
# Static dielectric constant tensor:
#      x y z
#    x 1.639040 0.000000 0.000000 
#    y 0.000000 1.675750 0.000000 
#    z 0.000000 0.000000 1.648550 
# 
# From -- ./inp_files/64777.got.cif
#   From: 2010.05.17/outbox.cif.g08.bks.cpg/sg65_33_cif.got.tgz:64777.got - 2010.06.03 17:01:31.
