data_PCOD9487315
_publ_section_title
;
Structure prediction by ZEFSAII (Michael W. Deem and Ramdas Pophale) SiO2 
 PCOD9487315
Probable space group: C M M M
;
_chemical_formula_sum "Si O2"
_cell_formula_units_Z 72
_cell_length_a 14.632896
_cell_length_b 18.705331
_cell_length_c 11.906085
_cell_angle_alpha 90.000000
_cell_angle_beta 90.000000
_cell_angle_gamma 90.000000
_cell_volume 3258.852186
_symmetry_space_group_name_H-M "C M M M"
_symmetry_group_IT_number 65
_symmetry_cell_setting 'orthorhombic'
loop_
_space_group_symop_operation_xyz
x,y,z
-x,-y,z
x,-y,-z
-x,y,-z
-x,-y,-z
x,y,-z
-x,y,z
x,-y,z
1/2+x,1/2+y,z
1/2-x,1/2-y,z
1/2+x,1/2-y,-z
1/2-x,1/2+y,-z
1/2-x,1/2-y,-z
1/2+x,1/2+y,-z
1/2-x,1/2+y,z
1/2+x,1/2-y,z
loop_
_atom_site_type_symbol
_atom_site_label
_atom_site_fract_x
_atom_site_fract_y
_atom_site_fract_z
Si Si1 0.112246 0.000000 0.630764
Si Si2 0.645877 0.841268 0.000000
Si Si3 0.388038 0.785174 0.629471
Si Si4 0.894036 0.857231 0.250977
Si Si5 0.637410 0.677624 0.000000
Si Si6 0.391288 0.919580 0.233450
O O1 0.145011 0.071455 0.693585
O O2 0.137739 0.000000 0.500000
O O3 0.000000 0.000000 0.635391
O O4 0.606314 0.760708 0.000000
O O5 0.753696 0.828462 0.000000
O O6 0.620377 0.885648 0.889843
O O7 0.362836 0.776031 0.500000
O O8 0.500000 0.786973 0.635058
O O9 0.355452 0.717687 0.703026
O O10 0.354952 0.860074 0.680603
O O11 0.000000 0.855930 0.286195
O O12 0.891827 0.857845 0.116508
O O13 0.500000 0.924849 0.253655
O O14 0.353660 0.000000 0.240858
#
# Coordination Sequence:
#
# PCOD9487315 Si02
#       6
#     8   8  16  16   8  16
#     4   9  18  33  55  83 111 138 175 226 274 319
#     4  11  22  38  54  77 110 143 180 226 270 329
#     4   9  17  30  53  84 112 140 176 222 276 328
#     4  10  19  34  56  81 110 142 183 227 269 325
#     4  11  23  36  56  80 106 148 183 222 278 322
#     4  10  20  35  58  85 111 143 182 227 276 328
#
# _framework density 22.093668999999998
#
# number of rings (size 3 to 8) (size 9 to 14) (size 15 to 20)
#    0.000    2.111    2.222    1.667    0.000    5.333 
#    4.000    3.889    0.000    4.000    0.000    0.000 
#    0.000    0.000    0.000    0.000    0.000    0.000 
#
# Total GULP energy -201172.634304 kJ/mol
# GULP energy per Si atom -5588.128731 kJ/mol
# Density = 2.204338 g / cm^3
# Si number density = 22.093669 Si / 1000 Ang^3
#
#
#
# Elastic Constant Matrix: (Units=GPa)
#
#
# Indices 1 2 3 4 5 6 
#
# 1 52.7855 19.9698 -14.3542 0.0000 0.0000 0.0000
# 2 19.9698 214.6575 105.1314 0.0000 0.0000 0.0000
# 3 -14.3542 105.1314 155.5389 0.0000 0.0000 0.0000
# 4 0.0000 0.0000 0.0000 45.8056 0.0000 0.0000
# 5 0.0000 0.0000 0.0000 0.0000 -240.3827 0.0000
# 6 0.0000 0.0000 0.0000 0.0000 0.0000 19.2837
#
#
#
# Elastic Compliance Matrix: (Units=1/GPa)
#
#
# Indices 1 2 3 4 5 6 
#
# 1 0.022061 -0.004558 0.005117 0.000000 0.000000 0.000000
# 2 -0.004558 0.007906 -0.005764 0.000000 0.000000 0.000000
# 3 0.005117 -0.005764 0.010798 0.000000 0.000000 0.000000
# 4 0.000000 0.000000 0.000000 0.021831 0.000000 0.000000
# 5 0.000000 0.000000 0.000000 0.000000 -0.004160 0.000000
# 6 0.000000 0.000000 0.000000 0.000000 0.000000 0.051857
#
#
# Mechanical properties :
#
#
# Convention : Reuss Voigt Hill
#
# Bulk Modulus (GPa) = 32.94605 71.60843 52.27724
# Shear Modulus (GPa) = 38.21985 -14.24301 11.98842
#
# Velocity S-wave (km/s) = 4.16372 -2.54178 2.33194
# Velocity P-wave (km/s) = 6.16926 4.88543 5.56450
#
# Compressibility (1/GPa) = 0.03035265
#
# Stress axis : x y z
#
# Youngs Moduli (GPa) = 45.32956 126.48868 92.61194
#
# Poissons Ratio (x) = 0.57660 -0.47390
# Poissons Ratio (y) = 0.20663 0.53385
# Poissons Ratio (z) = -0.23195 0.72913
#
# Static dielectric constant tensor:
#      x y z
#    x 1.864300 0.000000 0.000000 
#    y 0.000000 1.810860 0.000000 
#    z 0.000000 0.000000 1.748640 
# 
# From -- ./inp_files/26374.got.cif
#   From: 2010.05.17/outbox.cif.g08.bks.cpg/sg65_14_cif.got.tgz:26374.got - 2010.06.03 17:01:31.
