data_PCOD9487461
_publ_section_title
;
Structure prediction by ZEFSAII (Michael W. Deem and Ramdas Pophale) SiO2 
 PCOD9487461
Probable space group: C M M M
;
_chemical_formula_sum "Si O2"
_cell_formula_units_Z 104
_cell_length_a 22.052695
_cell_length_b 28.160553
_cell_length_c 8.946235
_cell_angle_alpha 90.000000
_cell_angle_beta 90.000000
_cell_angle_gamma 90.000000
_cell_volume 5555.755847
_symmetry_space_group_name_H-M "C M M M"
_symmetry_group_IT_number 65
_symmetry_cell_setting 'orthorhombic'
loop_
_space_group_symop_operation_xyz
x,y,z
-x,-y,z
x,-y,-z
-x,y,-z
-x,-y,-z
x,y,-z
-x,y,z
x,-y,z
1/2+x,1/2+y,z
1/2-x,1/2-y,z
1/2+x,1/2-y,-z
1/2-x,1/2+y,-z
1/2-x,1/2-y,-z
1/2+x,1/2+y,-z
1/2-x,1/2+y,z
1/2+x,1/2-y,z
loop_
_atom_site_type_symbol
_atom_site_label
_atom_site_fract_x
_atom_site_fract_y
_atom_site_fract_z
Si Si1 0.166928 0.169342 0.322046
Si Si2 0.500000 0.096368 0.679528
Si Si3 0.572187 0.599304 0.822170
Si Si4 0.926369 0.000000 0.672041
Si Si5 0.867536 0.266674 0.821444
Si Si6 0.369711 0.054596 0.680181
Si Si7 0.791674 0.362486 0.821887
Si Si8 0.000000 0.700740 0.820148
O O1 0.167006 0.167499 0.500000
O O2 0.110023 0.140411 0.256505
O O3 0.162446 0.223313 0.264825
O O4 0.227668 0.146096 0.256563
O O5 0.500000 0.101406 0.500000
O O6 0.438740 0.068730 0.720894
O O7 0.500000 0.148356 0.751197
O O8 0.500000 0.604799 0.795533
O O9 0.591632 0.548189 0.755997
O O10 0.582083 0.600349 0.000000
O O11 0.905671 0.000000 0.500000
O O12 0.000000 0.000000 0.671248
O O13 0.833804 0.316356 0.792301
O O14 0.938101 0.272602 0.778546
O O15 0.864017 0.257433 0.000000
O O16 0.364281 0.059135 0.500000
O O17 0.325100 0.091390 0.758619
O O18 0.357799 0.000000 0.720100
O O19 0.783615 0.366093 0.000000
O O20 0.000000 0.695927 0.000000
#
# Coordination Sequence:
#
# PCOD9487461 Si02
#       8
#    16   8  16   8  16  16  16   8
#     4  12  26  41  61  90 123 157 200 251 305 365
#     4  10  19  34  60  92 128 166 207 253 307 366
#     4  10  21  39  63  89 119 155 197 243 295 356
#     4   9  17  33  59  89 121 153 187 232 289 348
#     4  10  22  40  63  89 121 160 201 247 302 366
#     4  10  21  38  61  91 128 167 208 256 310 365
#     4  11  23  42  65  87 118 160 208 253 301 365
#     4  10  20  37  61  91 124 161 203 250 307 364
#
# _framework density 18.719325000000001
#
# number of rings (size 3 to 8) (size 9 to 14) (size 15 to 20)
#    0.000    1.615    1.538    3.231    1.077    6.769 
#    1.385    0.000    0.000    1.385    0.000    0.000 
#    0.000    0.000    0.000    0.000    0.000    0.000 
#
# Total GULP energy -290646.646927 kJ/mol
# GULP energy per Si atom -5589.358595 kJ/mol
# Density = 1.867672 g / cm^3
# Si number density = 18.719325 Si / 1000 Ang^3
#
#
#
# Elastic Constant Matrix: (Units=GPa)
#
#
# Indices 1 2 3 4 5 6 
#
# 1 101.5590 65.8344 66.4949 0.0000 0.0000 0.0000
# 2 65.8344 139.0772 70.4328 0.0000 0.0000 0.0000
# 3 66.4949 70.4328 82.3060 0.0000 0.0000 0.0000
# 4 0.0000 0.0000 0.0000 37.8171 0.0000 0.0000
# 5 0.0000 0.0000 0.0000 0.0000 20.6767 0.0000
# 6 0.0000 0.0000 0.0000 0.0000 0.0000 5.0253
#
#
#
# Elastic Compliance Matrix: (Units=1/GPa)
#
#
# Indices 1 2 3 4 5 6 
#
# 1 0.021356 -0.002421 -0.015182 0.000000 0.000000 0.000000
# 2 -0.002421 0.012964 -0.009138 0.000000 0.000000 0.000000
# 3 -0.015182 -0.009138 0.032235 0.000000 0.000000 0.000000
# 4 0.000000 0.000000 0.000000 0.026443 0.000000 0.000000
# 5 0.000000 0.000000 0.000000 0.000000 0.048364 0.000000
# 6 0.000000 0.000000 0.000000 0.000000 0.000000 0.198994
#
#
# Mechanical properties :
#
#
# Convention : Reuss Voigt Hill
#
# Bulk Modulus (GPa) = 76.49058 80.94070 78.71564
# Shear Modulus (GPa) = 12.55666 20.71581 16.63624
#
# Velocity S-wave (km/s) = 2.59276 3.33025 2.98437
# Velocity P-wave (km/s) = 7.06497 7.62367 7.34963
#
# Compressibility (1/GPa) = 0.01307351
#
# Stress axis : x y z
#
# Youngs Moduli (GPa) = 46.82557 77.13714 31.02187
#
# Poissons Ratio (x) = 0.18671 0.47097
# Poissons Ratio (y) = 0.11334 0.28349
# Poissons Ratio (z) = 0.71091 0.70490
#
# Static dielectric constant tensor:
#      x y z
#    x 1.640090 0.000000 0.000000 
#    y 0.000000 1.617640 0.000000 
#    z 0.000000 0.000000 1.624780 
# 
# From -- ./inp_files/12476.got.cif
#   From: 2010.05.17/outbox.cif.g08.bks.cpg/sg65_7_cif.got.tgz:12476.got - 2010.06.03 17:01:31.
