data_PCOD9487109
_publ_section_title
;
Structure prediction by ZEFSAII (Michael W. Deem and Ramdas Pophale) SiO2 
 PCOD9487109
Probable space group: C M M M
;
_chemical_formula_sum "Si O2"
_cell_formula_units_Z 82
_cell_length_a 21.638901
_cell_length_b 23.444763
_cell_length_c 9.029842
_cell_angle_alpha 90.000000
_cell_angle_beta 90.000000
_cell_angle_gamma 90.000000
_cell_volume 4581.009561
_symmetry_space_group_name_H-M "C M M M"
_symmetry_group_IT_number 65
_symmetry_cell_setting 'orthorhombic'
loop_
_space_group_symop_operation_xyz
x,y,z
-x,-y,z
x,-y,-z
-x,y,-z
-x,-y,-z
x,y,-z
-x,y,z
x,-y,z
1/2+x,1/2+y,z
1/2-x,1/2-y,z
1/2+x,1/2-y,-z
1/2-x,1/2+y,-z
1/2-x,1/2-y,-z
1/2+x,1/2+y,-z
1/2-x,1/2+y,z
1/2+x,1/2-y,z
loop_
_atom_site_type_symbol
_atom_site_label
_atom_site_fract_x
_atom_site_fract_y
_atom_site_fract_z
Si Si1 0.572946 0.000000 0.177555
Si Si2 0.632202 0.110268 0.674405
Si Si3 0.071990 0.726895 0.333647
Si Si4 0.500000 0.382847 0.664447
Si Si5 0.618610 0.668318 0.174214
Si Si6 0.000000 0.000000 0.500000
Si Si7 0.245439 0.182349 0.678351
O O1 0.609207 0.055455 0.237638
O O2 0.500000 0.000000 0.225099
O O3 0.573564 0.000000 0.000000
O O4 0.637940 0.095439 0.500000
O O5 0.581693 0.160247 0.689290
O O6 0.695271 0.143552 0.719032
O O7 0.097097 0.739828 0.500000
O O8 0.105465 0.765596 0.214358
O O9 0.000000 0.740262 0.329178
O O10 0.500000 0.354660 0.500000
O O11 0.561662 0.364724 0.750270
O O12 0.500000 0.449419 0.626727
O O13 0.684336 0.656082 0.248702
O O14 0.619664 0.658812 0.000000
O O15 0.240608 0.181065 0.500000
O O16 0.250000 0.250000 0.719811
#
# Coordination Sequence:
#
# PCOD9487109 Si02
#       7
#     8  16  16   8  16   2  16
#     4  11  25  43  62  87 127 176 212 258 324 379
#     4  10  21  39  64  89 117 160 222 268 303 359
#     4  10  19  33  57  89 121 159 202 254 310 369
#     4  10  21  43  67  89 115 153 213 256 301 367
#     4  12  23  34  57  95 131 160 192 247 323 380
#     4   8  24  44  74  88 100 156 206 246 306 356
#     4  10  20  38  62  90 124 165 209 255 307 370
#
# _framework density 17.899985000000001
#
# number of rings (size 3 to 8) (size 9 to 14) (size 15 to 20)
#    0.293    1.268    2.927    2.927    0.000    3.512 
#    0.000    1.951    0.000    0.000    0.000    0.000 
#    0.000    0.000    0.000    0.000    0.000    0.000 
#
# Total GULP energy -228427.207855 kJ/mol
# GULP energy per Si atom -5571.395314 kJ/mol
# Density = 1.785924 g / cm^3
# Si number density = 17.899985 Si / 1000 Ang^3
#
#
#
# Elastic Constant Matrix: (Units=GPa)
#
#
# Indices 1 2 3 4 5 6 
#
# 1 137.1053 57.1204 55.5924 0.0000 0.0000 0.0000
# 2 57.1204 121.4163 45.5247 0.0000 0.0000 0.0000
# 3 55.5924 45.5247 68.0184 0.0000 0.0000 0.0000
# 4 0.0000 0.0000 0.0000 8.6232 0.0000 0.0000
# 5 0.0000 0.0000 0.0000 0.0000 19.7572 0.0000
# 6 0.0000 0.0000 0.0000 0.0000 0.0000 20.4828
#
#
#
# Elastic Compliance Matrix: (Units=1/GPa)
#
#
# Indices 1 2 3 4 5 6 
#
# 1 0.011454 -0.002508 -0.007683 0.000000 0.000000 0.000000
# 2 -0.002508 0.011545 -0.005677 0.000000 0.000000 0.000000
# 3 -0.007683 -0.005677 0.024781 0.000000 0.000000 0.000000
# 4 0.000000 0.000000 0.000000 0.115967 0.000000 0.000000
# 5 0.000000 0.000000 0.000000 0.000000 0.050614 0.000000
# 6 0.000000 0.000000 0.000000 0.000000 0.000000 0.048821
#
#
# Mechanical properties :
#
#
# Convention : Reuss Voigt Hill
#
# Bulk Modulus (GPa) = 62.32979 71.44613 66.88796
# Shear Modulus (GPa) = 16.65198 20.99281 18.82239
#
# Velocity S-wave (km/s) = 3.05336 3.42831 3.24625
# Velocity P-wave (km/s) = 6.87949 7.46135 7.17632
#
# Compressibility (1/GPa) = 0.01604369
#
# Stress axis : x y z
#
# Youngs Moduli (GPa) = 87.30910 86.62119 40.35374
#
# Poissons Ratio (x) = 0.21722 0.31003
# Poissons Ratio (y) = 0.21895 0.22909
# Poissons Ratio (z) = 0.67077 0.49176
#
# Static dielectric constant tensor:
#      x y z
#    x 1.642280 0.000000 0.000000 
#    y 0.000000 1.601490 0.000000 
#    z 0.000000 0.000000 1.607250 
# 
# From -- ./inp_files/11648.got.cif
#   From: 2010.05.17/outbox.cif.g08.bks.cpg/sg65_6_cif.got.tgz:11648.got - 2010.06.03 17:01:31.
