data_PCOD9487815
_publ_section_title
;
Structure prediction by ZEFSAII (Michael W. Deem and Ramdas Pophale) SiO2 
 PCOD9487815
Probable space group: C M M M
;
_chemical_formula_sum "Si O2"
_cell_formula_units_Z 128
_cell_length_a 29.735618
_cell_length_b 28.819757
_cell_length_c 7.453052
_cell_angle_alpha 90.000000
_cell_angle_beta 90.000000
_cell_angle_gamma 90.000000
_cell_volume 6387.066456
_symmetry_space_group_name_H-M "C M M M"
_symmetry_group_IT_number 65
_symmetry_cell_setting 'orthorhombic'
loop_
_space_group_symop_operation_xyz
x,y,z
-x,-y,z
x,-y,-z
-x,y,-z
-x,-y,-z
x,y,-z
-x,y,z
x,-y,z
1/2+x,1/2+y,z
1/2-x,1/2-y,z
1/2+x,1/2-y,-z
1/2-x,1/2+y,-z
1/2-x,1/2-y,-z
1/2+x,1/2+y,-z
1/2-x,1/2+y,z
1/2+x,1/2-y,z
loop_
_atom_site_type_symbol
_atom_site_label
_atom_site_fract_x
_atom_site_fract_y
_atom_site_fract_z
Si Si1 0.808393 0.447786 0.781238
Si Si2 0.856640 0.354127 0.780567
Si Si3 0.445669 0.287670 0.704227
Si Si4 0.367773 0.448616 0.286209
Si Si5 0.232699 0.300342 0.780963
Si Si6 0.448464 0.611842 0.720173
Si Si7 0.449329 0.184350 0.205857
Si Si8 0.221163 0.106251 0.785599
O O1 0.818265 0.500000 0.720030
O O2 0.841310 0.405864 0.727861
O O3 0.758991 0.430348 0.723118
O O4 0.808821 0.448759 0.000000
O O5 0.817391 0.317657 0.727308
O O6 0.906321 0.341414 0.714039
O O7 0.857292 0.352807 0.000000
O O8 0.429414 0.283358 0.500000
O O9 0.500000 0.291857 0.700216
O O10 0.431047 0.337257 0.779416
O O11 0.436708 0.238949 0.795935
O O12 0.372597 0.452346 0.500000
O O13 0.357596 0.500000 0.214956
O O14 0.414481 0.427482 0.218809
O O15 0.327648 0.412830 0.255517
O O16 0.250000 0.250000 0.720428
O O17 0.265613 0.342288 0.722492
O O18 0.232555 0.299092 0.000000
O O19 0.448733 0.613494 0.500000
O O20 0.500000 0.604724 0.776053
O O21 0.500000 0.180119 0.284985
O O22 0.452886 0.168800 0.000000
O O23 0.225519 0.107957 0.000000
#
# Coordination Sequence:
#
# PCOD9487815 Si02
#       8
#    16  16  16  16  16  16  16  16
#     4   8  13  23  41  61  78 101 137 175 203 231
#     4   8  14  23  35  54  80 108 136 165 198 238
#     4   8  14  26  43  59  76 103 138 170 198 232
#     4  10  20  31  44  64  87 110 138 174 216 256
#     4   8  14  25  41  62  86 110 138 170 202 241
#     4   8  15  29  46  61  79 106 141 177 207 240
#     4   9  16  25  39  61  88 112 131 159 203 249
#     4   9  17  29  46  66  85 107 137 173 210 248
#
# _framework density 20.040500000000002
#
# number of rings (size 3 to 8) (size 9 to 14) (size 15 to 20)
#    0.000    3.500    0.000    2.625    0.000    2.000 
#    0.000    3.125    0.000    4.875    0.000    3.500 
#    0.000    0.000    0.000    3.125    0.000    3.250 
#
# Total GULP energy -356525.252151 kJ/mol
# GULP energy per Si atom -5570.707065 kJ/mol
# Density = 1.999489 g / cm^3
# Si number density = 20.040500 Si / 1000 Ang^3
#
#
#
# Elastic Constant Matrix: (Units=GPa)
#
#
# Indices 1 2 3 4 5 6 
#
# 1 139.7046 91.6898 4.4142 0.0000 0.0000 0.0000
# 2 91.6898 155.0083 6.4669 0.0000 0.0000 0.0000
# 3 4.4142 6.4669 56.4691 0.0000 0.0000 0.0000
# 4 0.0000 0.0000 0.0000 5.7263 0.0000 0.0000
# 5 0.0000 0.0000 0.0000 0.0000 5.4315 0.0000
# 6 0.0000 0.0000 0.0000 0.0000 0.0000 16.0605
#
#
#
# Elastic Compliance Matrix: (Units=1/GPa)
#
#
# Indices 1 2 3 4 5 6 
#
# 1 0.011701 -0.006916 -0.000123 0.000000 0.000000 0.000000
# 2 -0.006916 0.010570 -0.000670 0.000000 0.000000 0.000000
# 3 -0.000123 -0.000670 0.017795 0.000000 0.000000 0.000000
# 4 0.000000 0.000000 0.000000 0.174632 0.000000 0.000000
# 5 0.000000 0.000000 0.000000 0.000000 0.184112 0.000000
# 6 0.000000 0.000000 0.000000 0.000000 0.000000 0.062264
#
#
# Mechanical properties :
#
#
# Convention : Reuss Voigt Hill
#
# Bulk Modulus (GPa) = 40.56967 61.81377 51.19172
# Shear Modulus (GPa) = 10.31546 22.01773 16.16660
#
# Velocity S-wave (km/s) = 2.27123 3.31820 2.84332
# Velocity P-wave (km/s) = 5.21208 6.75219 6.03149
#
# Compressibility (1/GPa) = 0.02464896
#
# Stress axis : x y z
#
# Youngs Moduli (GPa) = 85.46249 94.60490 56.19524
#
# Poissons Ratio (x) = 0.65431 0.00689
# Poissons Ratio (y) = 0.59108 0.03764
# Poissons Ratio (z) = 0.01048 0.06337
#
# Static dielectric constant tensor:
#      x y z
#    x 1.700520 0.000000 0.000000 
#    y 0.000000 1.719300 0.000000 
#    z 0.000000 0.000000 1.778680 
# 
# From -- ./inp_files/31448.got.cif
#   From: 2010.05.17/outbox.cif.g08.bks.cpg/sg65_16_cif.got.tgz:31448.got - 2010.06.03 17:01:31.
