data_PCOD9487046
_publ_section_title
;
Structure prediction by ZEFSAII (Michael W. Deem and Ramdas Pophale) SiO2 
 PCOD9487046
Probable space group: C M M M
;
_chemical_formula_sum "Si O2"
_cell_formula_units_Z 44
_cell_length_a 8.368924
_cell_length_b 20.107011
_cell_length_c 11.243489
_cell_angle_alpha 90.000000
_cell_angle_beta 90.000000
_cell_angle_gamma 90.000000
_cell_volume 1891.987396
_symmetry_space_group_name_H-M "C M M M"
_symmetry_group_IT_number 65
_symmetry_cell_setting 'orthorhombic'
loop_
_space_group_symop_operation_xyz
x,y,z
-x,-y,z
x,-y,-z
-x,y,-z
-x,-y,-z
x,y,-z
-x,y,z
x,-y,z
1/2+x,1/2+y,z
1/2-x,1/2-y,z
1/2+x,1/2-y,-z
1/2-x,1/2+y,-z
1/2-x,1/2-y,-z
1/2+x,1/2+y,-z
1/2-x,1/2+y,z
1/2+x,1/2-y,z
loop_
_atom_site_type_symbol
_atom_site_label
_atom_site_fract_x
_atom_site_fract_y
_atom_site_fract_z
Si Si1 0.000000 0.500000 0.208184
Si Si2 0.194690 0.673604 0.000000
Si Si3 0.667175 0.500000 0.209381
Si Si4 0.500000 0.863340 0.361096
Si Si5 0.821858 0.854859 0.741388
O O1 0.833670 0.500000 0.139808
O O2 0.000000 0.432903 0.287301
O O3 0.250000 0.750000 0.000000
O O4 0.273740 0.645718 0.880449
O O5 0.000000 0.666891 0.000000
O O6 0.500000 0.500000 0.141165
O O7 0.667575 0.433383 0.288094
O O8 0.500000 0.876318 0.500000
O O9 0.334482 0.827234 0.324558
O O10 0.000000 0.826156 0.724080
#
# Coordination Sequence:
#
# PCOD9487046 Si02
#       5
#     4   8   8   8  16
#     4   8  15  28  48  77 114 155 196 232 265 318
#     4  12  24  41  62  88 110 145 190 242 295 346
#     4   8  16  30  52  79 117 154 184 227 280 335
#     4  10  19  33  55  84 119 157 195 233 277 331
#     4  10  20  37  57  86 119 153 193 234 283 339
#
# _framework density 23.255969
#
# number of rings (size 3 to 8) (size 9 to 14) (size 15 to 20)
#    0.000    2.182    1.818    1.909    0.000    1.455 
#    0.000    3.636    0.000   12.000    0.000    0.000 
#    0.000    0.000    0.000    0.000    0.000    0.000 
#
# Total GULP energy -122542.730832 kJ/mol
# GULP energy per Si atom -5570.124129 kJ/mol
# Density = 2.320304 g / cm^3
# Si number density = 23.255969 Si / 1000 Ang^3
#
#
#
# Elastic Constant Matrix: (Units=GPa)
#
#
# Indices 1 2 3 4 5 6 
#
# 1 332.2740 15.8440 39.9121 0.0000 0.0000 0.0000
# 2 15.8440 54.1103 0.9239 0.0000 0.0000 0.0000
# 3 39.9121 0.9239 75.7623 0.0000 0.0000 0.0000
# 4 0.0000 0.0000 0.0000 7.8083 0.0000 0.0000
# 5 0.0000 0.0000 0.0000 0.0000 -6.9861 0.0000
# 6 0.0000 0.0000 0.0000 0.0000 0.0000 26.2159
#
#
#
# Elastic Compliance Matrix: (Units=1/GPa)
#
#
# Indices 1 2 3 4 5 6 
#
# 1 0.003259 -0.000925 -0.001705 0.000000 0.000000 0.000000
# 2 -0.000925 0.018747 0.000259 0.000000 0.000000 0.000000
# 3 -0.001705 0.000259 0.014094 0.000000 0.000000 0.000000
# 4 0.000000 0.000000 0.000000 0.128068 0.000000 0.000000
# 5 0.000000 0.000000 0.000000 0.000000 -0.143140 0.000000
# 6 0.000000 0.000000 0.000000 0.000000 0.000000 0.038145
#
#
# Mechanical properties :
#
#
# Convention : Reuss Voigt Hill
#
# Bulk Modulus (GPa) = 31.89101 63.94520 47.91811
# Shear Modulus (GPa) = 67.23303 32.43873 49.83588
#
# Velocity S-wave (km/s) = 5.38264 3.73883 4.63420
# Velocity P-wave (km/s) = 7.23693 6.79665 7.02024
#
# Compressibility (1/GPa) = 0.03135680
#
# Stress axis : x y z
#
# Youngs Moduli (GPa) = 306.88850 53.34131 70.95016
#
# Poissons Ratio (x) = 0.04934 0.12099
# Poissons Ratio (y) = 0.28387 -0.01835
# Poissons Ratio (z) = 0.52335 -0.01380
#
# Static dielectric constant tensor:
#      x y z
#    x 2.012860 0.000000 0.000000 
#    y 0.000000 1.962590 0.000000 
#    z 0.000000 0.000000 1.818440 
# 
# From -- ./inp_files/20169.got.cif
#   From: 2010.05.17/outbox.cif.g08.bks.cpg/sg65_11_cif.got.tgz:20169.got - 2010.06.03 17:01:31.
