data_PCOD9487887
_publ_section_title
;
Structure prediction by ZEFSAII (Michael W. Deem and Ramdas Pophale) SiO2 
 PCOD9487887
Probable space group: C M M M
;
_chemical_formula_sum "Si O2"
_cell_formula_units_Z 72
_cell_length_a 7.973343
_cell_length_b 18.779589
_cell_length_c 25.939326
_cell_angle_alpha 90.000000
_cell_angle_beta 90.000000
_cell_angle_gamma 90.000000
_cell_volume 3884.053628
_symmetry_space_group_name_H-M "C M M M"
_symmetry_group_IT_number 65
_symmetry_cell_setting 'orthorhombic'
loop_
_space_group_symop_operation_xyz
x,y,z
-x,-y,z
x,-y,-z
-x,y,-z
-x,-y,-z
x,y,-z
-x,y,z
x,-y,z
1/2+x,1/2+y,z
1/2-x,1/2-y,z
1/2+x,1/2-y,-z
1/2-x,1/2+y,-z
1/2-x,1/2-y,-z
1/2+x,1/2+y,-z
1/2-x,1/2+y,z
1/2+x,1/2-y,z
loop_
_atom_site_type_symbol
_atom_site_label
_atom_site_fract_x
_atom_site_fract_y
_atom_site_fract_z
Si Si1 0.197851 0.420185 0.164705
Si Si2 0.701113 0.582978 0.055422
Si Si3 0.198553 0.831573 0.263348
Si Si4 0.296545 0.666353 0.618716
Si Si5 0.000000 0.583980 0.561688
O O1 0.274061 0.500000 0.167590
O O2 0.251775 0.384873 0.110543
O O3 0.236179 0.378351 0.216568
O O4 0.000000 0.426700 0.161244
O O5 0.500000 0.582088 0.053863
O O6 0.759018 0.500000 0.056950
O O7 0.760459 0.612982 0.000000
O O8 0.250000 0.750000 0.255825
O O9 0.247247 0.852439 0.321644
O O10 0.000000 0.835605 0.261989
O O11 0.500000 0.657203 0.610748
O O12 0.250000 0.750000 0.611994
O O13 0.168983 0.621021 0.583862
O O14 0.000000 0.500000 0.574717
O O15 0.000000 0.591338 0.500000
#
# Coordination Sequence:
#
# PCOD9487887 Si02
#       5
#    16  16  16  16   8
#     4  10  20  31  47  76 109 141 180 226 277 336
#     4   8  14  26  44  65  94 134 178 226 276 326
#     4  10  21  36  58  82 110 145 184 232 283 336
#     4  10  21  41  67  94 122 162 214 258 300 363
#     4  11  26  44  64  96 135 169 202 254 315 358
#
# _framework density 18.537334999999999
#
# number of rings (size 3 to 8) (size 9 to 14) (size 15 to 20)
#    0.000    2.333    1.111    2.000    3.111    4.000 
#    0.000    5.556    0.000    0.667    0.000    0.000 
#    0.000    0.000    0.000    0.000    0.000    0.000 
#
# Total GULP energy -200499.082470 kJ/mol
# GULP energy per Si atom -5569.418957 kJ/mol
# Density = 1.849514 g / cm^3
# Si number density = 18.537335 Si / 1000 Ang^3
#
#
#
# Elastic Constant Matrix: (Units=GPa)
#
#
# Indices 1 2 3 4 5 6 
#
# 1 76.9969 35.3320 64.9806 0.0000 0.0000 0.0000
# 2 35.3320 53.3422 71.8396 0.0000 0.0000 0.0000
# 3 64.9806 71.8396 154.0777 0.0000 0.0000 0.0000
# 4 0.0000 0.0000 0.0000 55.6052 0.0000 0.0000
# 5 0.0000 0.0000 0.0000 0.0000 17.3783 0.0000
# 6 0.0000 0.0000 0.0000 0.0000 0.0000 20.9565
#
#
#
# Elastic Compliance Matrix: (Units=1/GPa)
#
#
# Indices 1 2 3 4 5 6 
#
# 1 0.020698 -0.005250 -0.006281 0.000000 0.000000 0.000000
# 2 -0.005250 0.051718 -0.021900 0.000000 0.000000 0.000000
# 3 -0.006281 -0.021900 0.019350 0.000000 0.000000 0.000000
# 4 0.000000 0.000000 0.000000 0.017984 0.000000 0.000000
# 5 0.000000 0.000000 0.000000 0.000000 0.057543 0.000000
# 6 0.000000 0.000000 0.000000 0.000000 0.000000 0.047718
#
#
# Mechanical properties :
#
#
# Convention : Reuss Voigt Hill
#
# Bulk Modulus (GPa) = 40.15434 69.85791 55.00613
# Shear Modulus (GPa) = 17.23106 26.27230 21.75168
#
# Velocity S-wave (km/s) = 3.05213 3.76874 3.42921
# Velocity P-wave (km/s) = 5.84201 7.53025 6.73920
#
# Compressibility (1/GPa) = 0.02490391
#
# Stress axis : x y z
#
# Youngs Moduli (GPa) = 48.31496 19.33557 51.67958
#
# Poissons Ratio (x) = 0.10152 0.32460
# Poissons Ratio (y) = 0.25367 1.13176
# Poissons Ratio (z) = 0.30347 0.42344
#
# Static dielectric constant tensor:
#      x y z
#    x 1.636940 0.000000 0.000000 
#    y 0.000000 1.630210 0.000000 
#    z 0.000000 0.000000 1.708420 
# 
# From -- ./inp_files/67092.got.cif
#   From: 2010.05.17/outbox.cif.g08.bks.cpg/sg65_34_cif.got.tgz:67092.got - 2010.06.03 17:01:31.
