data_PCOD9487448
_publ_section_title
;
Structure prediction by ZEFSAII (Michael W. Deem and Ramdas Pophale) SiO2 
 PCOD9487448
Probable space group: C M M M
;
_chemical_formula_sum "Si O2"
_cell_formula_units_Z 72
_cell_length_a 24.022131
_cell_length_b 8.859288
_cell_length_c 18.105449
_cell_angle_alpha 90.000000
_cell_angle_beta 90.000000
_cell_angle_gamma 90.000000
_cell_volume 3853.183133
_symmetry_space_group_name_H-M "C M M M"
_symmetry_group_IT_number 65
_symmetry_cell_setting 'orthorhombic'
loop_
_space_group_symop_operation_xyz
x,y,z
-x,-y,z
x,-y,-z
-x,y,-z
-x,-y,-z
x,y,-z
-x,y,z
x,-y,z
1/2+x,1/2+y,z
1/2-x,1/2-y,z
1/2+x,1/2-y,-z
1/2-x,1/2+y,-z
1/2-x,1/2-y,-z
1/2+x,1/2+y,-z
1/2-x,1/2+y,z
1/2+x,1/2-y,z
loop_
_atom_site_type_symbol
_atom_site_label
_atom_site_fract_x
_atom_site_fract_y
_atom_site_fract_z
Si Si1 0.189393 0.180109 0.214945
Si Si2 0.378134 0.318695 0.364054
Si Si3 0.811551 0.679666 0.500000
Si Si4 0.881865 0.317716 0.084833
Si Si5 0.000000 0.318243 0.845295
Si Si6 0.500000 0.318030 0.681574
O O1 0.250000 0.250000 0.226832
O O2 0.150152 0.215099 0.285094
O O3 0.161484 0.246258 0.141492
O O4 0.193730 0.000000 0.209156
O O5 0.374823 0.500000 0.375735
O O6 0.344906 0.236509 0.428358
O O7 0.443005 0.274642 0.359248
O O8 0.807183 0.500000 0.500000
O O9 0.750000 0.750000 0.500000
O O10 0.877952 0.500000 0.088855
O O11 0.944028 0.274667 0.111326
O O12 0.872780 0.272640 0.000000
O O13 0.000000 0.248655 0.763850
O O14 0.000000 0.500000 0.838956
O O15 0.500000 0.500000 0.688120
#
# Coordination Sequence:
#
# PCOD9487448 Si02
#       6
#    16  16   8  16   8   8
#     4  11  23  39  61  86 116 156 203 251 301 358
#     4  10  22  41  65  92 124 159 198 242 296 356
#     4  12  26  43  66  93 125 160 202 248 293 348
#     4  10  21  37  58  86 120 158 200 247 301 358
#     4  10  19  34  59  89 121 156 196 245 298 355
#     4  10  20  38  64  93 124 158 195 240 295 356
#
# _framework density 18.685849000000001
#
# number of rings (size 3 to 8) (size 9 to 14) (size 15 to 20)
#    0.000    1.556    2.222    2.667    0.000    7.111 
#    0.000    2.222    0.000    2.000    0.000    0.000 
#    0.000    0.000    0.000    0.000    0.000    0.000 
#
# Total GULP energy -201221.157460 kJ/mol
# GULP energy per Si atom -5589.476596 kJ/mol
# Density = 1.864332 g / cm^3
# Si number density = 18.685849 Si / 1000 Ang^3
#
#
#
# Elastic Constant Matrix: (Units=GPa)
#
#
# Indices 1 2 3 4 5 6 
#
# 1 179.7796 59.1551 80.2646 0.0000 0.0000 0.0000
# 2 59.1551 42.5282 59.6662 0.0000 0.0000 0.0000
# 3 80.2646 59.6662 140.8245 0.0000 0.0000 0.0000
# 4 0.0000 0.0000 0.0000 34.9744 0.0000 0.0000
# 5 0.0000 0.0000 0.0000 0.0000 3.6796 0.0000
# 6 0.0000 0.0000 0.0000 0.0000 0.0000 15.2274
#
#
#
# Elastic Compliance Matrix: (Units=1/GPa)
#
#
# Indices 1 2 3 4 5 6 
#
# 1 0.010270 -0.014974 0.000491 0.000000 0.000000 0.000000
# 2 -0.014974 0.079810 -0.025280 0.000000 0.000000 0.000000
# 3 0.000491 -0.025280 0.017532 0.000000 0.000000 0.000000
# 4 0.000000 0.000000 0.000000 0.028592 0.000000 0.000000
# 5 0.000000 0.000000 0.000000 0.000000 0.271765 0.000000
# 6 0.000000 0.000000 0.000000 0.000000 0.000000 0.065671
#
#
# Mechanical properties :
#
#
# Convention : Reuss Voigt Hill
#
# Bulk Modulus (GPa) = 35.60572 84.58936 60.09754
# Shear Modulus (GPa) = 8.88841 21.71271 15.30056
#
# Velocity S-wave (km/s) = 2.18337 3.41249 2.86463
# Velocity P-wave (km/s) = 5.04504 7.80348 6.57064
#
# Compressibility (1/GPa) = 0.02808537
#
# Stress axis : x y z
#
# Youngs Moduli (GPa) = 97.36675 12.52981 57.03760
#
# Poissons Ratio (x) = 0.18762 -0.02799
# Poissons Ratio (y) = 1.45799 1.44191
# Poissons Ratio (z) = -0.04778 0.31675
#
# Static dielectric constant tensor:
#      x y z
#    x 1.633350 0.000000 0.000000 
#    y 0.000000 1.628440 0.000000 
#    z 0.000000 0.000000 1.608350 
# 
# From -- ./inp_files/46596.got.cif
#   From: 2010.05.17/outbox.cif.g08.bks.cpg/sg65_24_cif.got.tgz:46596.got - 2010.06.03 17:01:31.
