data_PCOD9487611
_publ_section_title
;
Structure prediction by ZEFSAII (Michael W. Deem and Ramdas Pophale) SiO2 
 PCOD9487611
Probable space group: C M M M
;
_chemical_formula_sum "Si O2"
_cell_formula_units_Z 72
_cell_length_a 27.315718
_cell_length_b 16.458190
_cell_length_c 7.850595
_cell_angle_alpha 90.000000
_cell_angle_beta 90.000000
_cell_angle_gamma 90.000000
_cell_volume 3529.370616
_symmetry_space_group_name_H-M "C M M M"
_symmetry_group_IT_number 65
_symmetry_cell_setting 'orthorhombic'
loop_
_space_group_symop_operation_xyz
x,y,z
-x,-y,z
x,-y,-z
-x,y,-z
-x,-y,-z
x,y,-z
-x,y,z
x,-y,z
1/2+x,1/2+y,z
1/2-x,1/2-y,z
1/2+x,1/2-y,-z
1/2-x,1/2+y,-z
1/2-x,1/2-y,-z
1/2+x,1/2+y,-z
1/2-x,1/2+y,z
1/2+x,1/2-y,z
loop_
_atom_site_type_symbol
_atom_site_label
_atom_site_fract_x
_atom_site_fract_y
_atom_site_fract_z
Si Si1 0.716567 0.000000 0.297669
Si Si2 0.113465 0.827966 0.196779
Si Si3 0.273089 0.665709 0.204498
Si Si4 0.943098 0.670044 0.293057
Si Si5 0.554119 0.404096 0.500000
Si Si6 0.604542 0.000000 0.707739
O O1 0.744986 0.917163 0.250373
O O2 0.712894 0.000000 0.500000
O O3 0.660746 0.000000 0.229858
O O4 0.169870 0.835579 0.251930
O O5 0.092781 0.736751 0.213803
O O6 0.081584 0.877607 0.330160
O O7 0.109091 0.854355 0.000000
O O8 0.250000 0.750000 0.272145
O O9 0.271718 0.670442 0.000000
O O10 0.939844 0.676697 0.500000
O O11 0.924238 0.581061 0.242413
O O12 0.000000 0.682268 0.245775
O O13 0.550622 0.500000 0.500000
O O14 0.500000 0.366356 0.500000
O O15 0.605656 0.000000 0.500000
#
# Coordination Sequence:
#
# PCOD9487611 Si02
#       6
#     8  16  16  16   8   8
#     4  11  23  36  61  92 124 165 205 259 315 367
#     4  11  24  41  66  94 126 164 209 261 313 373
#     4  10  23  42  62  89 125 167 211 256 313 375
#     4  10  19  35  61  90 126 170 210 256 310 367
#     4  11  26  46  67  91 123 161 204 260 321 381
#     4   9  19  35  56  92 130 165 213 254 304 371
#
# _framework density 20.400238999999999
#
# number of rings (size 3 to 8) (size 9 to 14) (size 15 to 20)
#    0.000    1.667    1.111    2.667    3.111    4.000 
#    0.000    2.778    0.000    1.333    0.000    0.000 
#    0.000    0.000    0.000    0.000    0.000    0.000 
#
# Total GULP energy -201176.877895 kJ/mol
# GULP energy per Si atom -5588.246608 kJ/mol
# Density = 2.035381 g / cm^3
# Si number density = 20.400239 Si / 1000 Ang^3
#
#
#
# Elastic Constant Matrix: (Units=GPa)
#
#
# Indices 1 2 3 4 5 6 
#
# 1 114.4757 23.2112 28.6703 0.0000 0.0000 0.0000
# 2 23.2112 102.2143 2.9978 0.0000 0.0000 0.0000
# 3 28.6703 2.9978 52.7659 0.0000 0.0000 0.0000
# 4 0.0000 0.0000 0.0000 24.0205 0.0000 0.0000
# 5 0.0000 0.0000 0.0000 0.0000 -7.5097 0.0000
# 6 0.0000 0.0000 0.0000 0.0000 0.0000 45.0831
#
#
#
# Elastic Compliance Matrix: (Units=1/GPa)
#
#
# Indices 1 2 3 4 5 6 
#
# 1 0.010601 -0.002242 -0.005633 0.000000 0.000000 0.000000
# 2 -0.002242 0.010274 0.000635 0.000000 0.000000 0.000000
# 3 -0.005633 0.000635 0.021976 0.000000 0.000000 0.000000
# 4 0.000000 0.000000 0.000000 0.041631 0.000000 0.000000
# 5 0.000000 0.000000 0.000000 0.000000 -0.133160 0.000000
# 6 0.000000 0.000000 0.000000 0.000000 0.000000 0.022181
#
#
# Mechanical properties :
#
#
# Convention : Reuss Voigt Hill
#
# Bulk Modulus (GPa) = 35.24783 42.13493 38.69138
# Shear Modulus (GPa) = -1952.86021 26.62387 -963.11817
#
# Velocity S-wave (km/s) = -30.97340 3.61650 -21.75169
# Velocity P-wave (km/s) = 35.52210 6.17558 24.73542
#
# Compressibility (1/GPa) = 0.02837054
#
# Stress axis : x y z
#
# Youngs Moduli (GPa) = 94.33305 97.33409 45.50420
#
# Poissons Ratio (x) = 0.21823 0.25630
# Poissons Ratio (y) = 0.21150 -0.02887
# Poissons Ratio (z) = 0.53133 -0.06176
#
# Static dielectric constant tensor:
#      x y z
#    x 1.735720 0.000000 0.000000 
#    y 0.000000 1.729460 0.000000 
#    z 0.000000 0.000000 1.728730 
# 
# From -- ./inp_files/15802.got.cif
#   From: 2010.05.17/outbox.cif.g08.bks.cpg/sg65_8_cif.got.tgz:15802.got - 2010.06.03 17:01:31.
