data_PCOD9487412
_publ_section_title
;
Structure prediction by ZEFSAII (Michael W. Deem and Ramdas Pophale) SiO2 
 PCOD9487412
Probable space group: C M M M
;
_chemical_formula_sum "Si O2"
_cell_formula_units_Z 72
_cell_length_a 18.420235
_cell_length_b 20.062540
_cell_length_c 10.639069
_cell_angle_alpha 90.000000
_cell_angle_beta 90.000000
_cell_angle_gamma 90.000000
_cell_volume 3931.739247
_symmetry_space_group_name_H-M "C M M M"
_symmetry_group_IT_number 65
_symmetry_cell_setting 'orthorhombic'
loop_
_space_group_symop_operation_xyz
x,y,z
-x,-y,z
x,-y,-z
-x,y,-z
-x,-y,-z
x,y,-z
-x,y,z
x,-y,z
1/2+x,1/2+y,z
1/2-x,1/2-y,z
1/2+x,1/2-y,-z
1/2-x,1/2+y,-z
1/2-x,1/2-y,-z
1/2+x,1/2+y,-z
1/2-x,1/2+y,z
1/2+x,1/2-y,z
loop_
_atom_site_type_symbol
_atom_site_label
_atom_site_fract_x
_atom_site_fract_y
_atom_site_fract_z
Si Si1 0.172022 0.786706 0.860607
Si Si2 0.585815 0.786679 0.645631
Si Si3 0.917566 0.080375 0.500000
Si Si4 0.683691 0.422765 0.262453
Si Si5 0.850503 0.427727 0.650555
O O1 0.250000 0.750000 0.850683
O O2 0.124507 0.759805 0.746063
O O3 0.178517 0.866190 0.842474
O O4 0.142770 0.771690 0.000000
O O5 0.610992 0.776627 0.500000
O O6 0.500000 0.776962 0.647104
O O7 0.605099 0.862402 0.685976
O O8 0.871144 0.096112 0.375859
O O9 0.000000 0.107736 0.500000
O O10 0.922828 0.000000 0.500000
O O11 0.669080 0.500000 0.225699
O O12 0.766207 0.420281 0.313079
O O13 0.854402 0.430236 0.500000
O O14 0.876155 0.500000 0.699467
#
# Coordination Sequence:
#
# PCOD9487412 Si02
#       5
#    16  16   8  16  16
#     4  11  24  40  58  83 116 155 195 238 291 347
#     4  10  22  38  59  88 118 153 195 238 287 345
#     4   9  18  32  53  86 121 147 183 240 295 341
#     4  10  19  34  58  84 113 151 191 235 288 344
#     4   9  16  30  55  87 119 150 187 233 286 342
#
# _framework density 18.312505999999999
#
# number of rings (size 3 to 8) (size 9 to 14) (size 15 to 20)
#    0.000    2.111    3.333    0.000    1.556    2.667 
#    0.000    2.222    0.000    0.667    0.000    6.222 
#    0.000    0.000    0.000    0.000    0.000    0.000 
#
# Total GULP energy -200682.943659 kJ/mol
# GULP energy per Si atom -5574.526213 kJ/mol
# Density = 1.827083 g / cm^3
# Si number density = 18.312506 Si / 1000 Ang^3
#
#
#
# Elastic Constant Matrix: (Units=GPa)
#
#
# Indices 1 2 3 4 5 6 
#
# 1 52.1816 26.8967 35.9080 0.0000 0.0000 0.0000
# 2 26.8967 118.2154 59.2681 0.0000 0.0000 0.0000
# 3 35.9080 59.2681 73.3256 0.0000 0.0000 0.0000
# 4 0.0000 0.0000 0.0000 14.4273 0.0000 0.0000
# 5 0.0000 0.0000 0.0000 0.0000 13.6843 0.0000
# 6 0.0000 0.0000 0.0000 0.0000 0.0000 20.5409
#
#
#
# Elastic Compliance Matrix: (Units=1/GPa)
#
#
# Indices 1 2 3 4 5 6 
#
# 1 0.028958 0.000876 -0.014889 0.000000 0.000000 0.000000
# 2 0.000876 0.014249 -0.011947 0.000000 0.000000 0.000000
# 3 -0.014889 -0.011947 0.030585 0.000000 0.000000 0.000000
# 4 0.000000 0.000000 0.000000 0.069313 0.000000 0.000000
# 5 0.000000 0.000000 0.000000 0.000000 0.073077 0.000000
# 6 0.000000 0.000000 0.000000 0.000000 0.000000 0.048683
#
#
# Mechanical properties :
#
#
# Convention : Reuss Voigt Hill
#
# Bulk Modulus (GPa) = 45.71725 54.20758 49.96241
# Shear Modulus (GPa) = 15.42851 17.84049 16.63450
#
# Velocity S-wave (km/s) = 2.90576 3.12464 3.01718
# Velocity P-wave (km/s) = 6.02305 6.53326 6.28334
#
# Compressibility (1/GPa) = 0.02187358
#
# Stress axis : x y z
#
# Youngs Moduli (GPa) = 34.53289 70.17901 32.69548
#
# Poissons Ratio (x) = -0.06149 0.48680
# Poissons Ratio (y) = -0.03026 0.39060
# Poissons Ratio (z) = 0.51416 0.83840
#
# Static dielectric constant tensor:
#      x y z
#    x 1.604770 0.000000 0.000000 
#    y 0.000000 1.681530 0.000000 
#    z 0.000000 0.000000 1.596440 
# 
# From -- ./inp_files/11263.got.cif
#   From: 2010.05.17/outbox.cif.g08.bks.cpg/sg65_6_cif.got.tgz:11263.got - 2010.06.03 17:01:31.
