data_PCOD9487142
_publ_section_title
;
Structure prediction by ZEFSAII (Michael W. Deem and Ramdas Pophale) SiO2 
 PCOD9487142
Probable space group: C M M M
;
_chemical_formula_sum "Si O2"
_cell_formula_units_Z 88
_cell_length_a 8.762972
_cell_length_b 32.760475
_cell_length_c 17.098002
_cell_angle_alpha 90.000000
_cell_angle_beta 90.000000
_cell_angle_gamma 90.000000
_cell_volume 4908.479456
_symmetry_space_group_name_H-M "C M M M"
_symmetry_group_IT_number 65
_symmetry_cell_setting 'orthorhombic'
loop_
_space_group_symop_operation_xyz
x,y,z
-x,-y,z
x,-y,-z
-x,y,-z
-x,-y,-z
x,y,-z
-x,y,z
x,-y,z
1/2+x,1/2+y,z
1/2-x,1/2-y,z
1/2+x,1/2-y,-z
1/2-x,1/2+y,-z
1/2-x,1/2-y,-z
1/2+x,1/2+y,-z
1/2-x,1/2+y,z
1/2+x,1/2-y,z
loop_
_atom_site_type_symbol
_atom_site_label
_atom_site_fract_x
_atom_site_fract_y
_atom_site_fract_z
Si Si1 0.317149 0.631013 0.200387
Si Si2 0.183946 0.206445 0.908634
Si Si3 0.822517 0.348115 0.633322
Si Si4 0.315298 0.045179 0.761095
Si Si5 0.680613 0.705681 0.500000
Si Si6 0.178629 0.558992 0.584960
O O1 0.500000 0.628184 0.198149
O O2 0.268261 0.665639 0.137996
O O3 0.260415 0.647125 0.284234
O O4 0.250529 0.584904 0.195358
O O5 0.250000 0.250000 0.879696
O O6 0.000000 0.208829 0.903826
O O7 0.227338 0.202541 0.000000
O O8 0.741377 0.316978 0.576589
O O9 0.817142 0.392156 0.591563
O O10 0.000000 0.337667 0.645193
O O11 0.500000 0.049694 0.758860
O O12 0.260342 0.045538 0.669823
O O13 0.279786 0.000000 0.793425
O O14 0.500000 0.706312 0.500000
O O15 0.750000 0.750000 0.500000
O O16 0.244805 0.546957 0.500000
O O17 0.000000 0.546808 0.583938
#
# Coordination Sequence:
#
# PCOD9487142 Si02
#       6
#    16  16  16  16   8  16
#     4  10  20  34  54  80 108 141 178 216 267 324
#     4   9  19  36  58  84 112 138 168 211 264 325
#     4  10  19  34  52  71  98 134 176 218 263 314
#     4   9  18  31  48  73 104 140 183 227 270 319
#     4  12  24  36  50  70  97 132 177 226 274 318
#     4   8  13  24  45  68  90 121 164 211 260 307
#
# _framework density 17.928159999999998
#
# number of rings (size 3 to 8) (size 9 to 14) (size 15 to 20)
#    0.000    2.545    0.909    3.000    0.000    2.909 
#    0.000    3.636    0.000    0.545    0.000    6.364 
#    0.000    0.000    0.000    0.000    0.000    0.000 
#
# Total GULP energy -245130.282496 kJ/mol
# GULP energy per Si atom -5571.142784 kJ/mol
# Density = 1.788735 g / cm^3
# Si number density = 17.928160 Si / 1000 Ang^3
#
#
#
# Elastic Constant Matrix: (Units=GPa)
#
#
# Indices 1 2 3 4 5 6 
#
# 1 41.0853 52.5839 16.8351 0.0000 0.0000 0.0000
# 2 52.5839 183.5222 63.4910 0.0000 0.0000 0.0000
# 3 16.8351 63.4910 66.0005 0.0000 0.0000 0.0000
# 4 0.0000 0.0000 0.0000 54.4816 0.0000 0.0000
# 5 0.0000 0.0000 0.0000 0.0000 18.2480 0.0000
# 6 0.0000 0.0000 0.0000 0.0000 0.0000 16.9176
#
#
#
# Elastic Compliance Matrix: (Units=1/GPa)
#
#
# Indices 1 2 3 4 5 6 
#
# 1 0.038496 -0.011440 0.001186 0.000000 0.000000 0.000000
# 2 -0.011440 0.011567 -0.008209 0.000000 0.000000 0.000000
# 3 0.001186 -0.008209 0.022746 0.000000 0.000000 0.000000
# 4 0.000000 0.000000 0.000000 0.018355 0.000000 0.000000
# 5 0.000000 0.000000 0.000000 0.000000 0.054800 0.000000
# 6 0.000000 0.000000 0.000000 0.000000 0.000000 0.059110
#
#
# Mechanical properties :
#
#
# Convention : Reuss Voigt Hill
#
# Bulk Modulus (GPa) = 27.86928 61.82535 44.84731
# Shear Modulus (GPa) = 19.68810 28.44264 24.06537
#
# Velocity S-wave (km/s) = 3.31745 3.98738 3.66775
# Velocity P-wave (km/s) = 5.50025 7.46719 6.55788
#
# Compressibility (1/GPa) = 0.03588181
#
# Stress axis : x y z
#
# Youngs Moduli (GPa) = 25.97686 86.45423 43.96458
#
# Poissons Ratio (x) = 0.98907 -0.05214
# Poissons Ratio (y) = 0.29718 0.36090
# Poissons Ratio (z) = -0.03081 0.70969
#
# Static dielectric constant tensor:
#      x y z
#    x 1.605470 0.000000 0.000000 
#    y 0.000000 1.631940 0.000000 
#    z 0.000000 0.000000 1.609280 
# 
# From -- ./inp_files/50317.got.cif
#   From: 2010.05.17/outbox.cif.g08.bks.cpg/sg65_26_cif.got.tgz:50317.got - 2010.06.03 17:01:31.
