data_PCOD9487544
_publ_section_title
;
Structure prediction by ZEFSAII (Michael W. Deem and Ramdas Pophale) SiO2 
 PCOD9487544
Probable space group: C M M M
;
_chemical_formula_sum "Si O2"
_cell_formula_units_Z 50
_cell_length_a 27.308221
_cell_length_b 7.691439
_cell_length_c 11.940658
_cell_angle_alpha 90.000000
_cell_angle_beta 90.000000
_cell_angle_gamma 90.000000
_cell_volume 2508.010027
_symmetry_space_group_name_H-M "C M M M"
_symmetry_group_IT_number 65
_symmetry_cell_setting 'orthorhombic'
loop_
_space_group_symop_operation_xyz
x,y,z
-x,-y,z
x,-y,-z
-x,y,-z
-x,-y,-z
x,y,-z
-x,y,z
x,-y,z
1/2+x,1/2+y,z
1/2-x,1/2-y,z
1/2+x,1/2-y,-z
1/2-x,1/2+y,-z
1/2-x,1/2-y,-z
1/2+x,1/2+y,-z
1/2-x,1/2+y,z
1/2+x,1/2-y,z
loop_
_atom_site_type_symbol
_atom_site_label
_atom_site_fract_x
_atom_site_fract_y
_atom_site_fract_z
Si Si1 0.100877 0.788107 0.257698
Si Si2 0.078938 0.307789 0.500000
Si Si3 0.000000 0.000000 0.500000
Si Si4 0.802990 0.791424 0.126863
Si Si5 0.000000 0.787923 0.131395
O O1 0.106249 0.715939 0.382489
O O2 0.148173 0.731156 0.188087
O O3 0.049394 0.735472 0.198229
O O4 0.099640 0.000000 0.262302
O O5 0.056998 0.500000 0.500000
O O6 0.041239 0.151411 0.500000
O O7 0.750000 0.750000 0.178631
O O8 0.806544 0.000000 0.121743
O O9 0.802661 0.721768 0.000000
O O10 0.000000 0.000000 0.130952
O O11 0.000000 0.733812 0.000000
#
# Coordination Sequence:
#
# PCOD9487544 Si02
#       5
#    16   8   2  16   8
#     4  10  19  35  58  83 121 156 197 250 304 360
#     4  12  25  39  62  89 118 162 211 248 299 360
#     4  12  22  44  60  82 122 160 202 252 288 350
#     4   9  18  33  56  86 119 159 203 248 304 365
#     4   9  17  29  53  85 111 144 188 236 296 361
#
# _framework density 19.936125000000001
#
# number of rings (size 3 to 8) (size 9 to 14) (size 15 to 20)
#    0.000    2.080    1.600    2.160    2.240    5.120 
#    0.000    0.800    0.000    3.840    0.000    0.000 
#    0.000    0.000    0.000    0.000    0.000    0.000 
#
# Total GULP energy -139189.332663 kJ/mol
# GULP energy per Si atom -5567.573307 kJ/mol
# Density = 1.989075 g / cm^3
# Si number density = 19.936125 Si / 1000 Ang^3
#
#
#
# Elastic Constant Matrix: (Units=GPa)
#
#
# Indices 1 2 3 4 5 6 
#
# 1 193.1982 15.2296 91.6507 0.0000 0.0000 0.0000
# 2 15.2296 77.6803 5.6178 0.0000 0.0000 0.0000
# 3 91.6507 5.6178 139.2286 0.0000 0.0000 0.0000
# 4 0.0000 0.0000 0.0000 -5.4067 0.0000 0.0000
# 5 0.0000 0.0000 0.0000 0.0000 42.0602 0.0000
# 6 0.0000 0.0000 0.0000 0.0000 0.0000 27.2443
#
#
#
# Elastic Compliance Matrix: (Units=1/GPa)
#
#
# Indices 1 2 3 4 5 6 
#
# 1 0.007625 -0.001135 -0.004973 0.000000 0.000000 0.000000
# 2 -0.001135 0.013080 0.000220 0.000000 0.000000 0.000000
# 3 -0.004973 0.000220 0.010447 0.000000 0.000000 0.000000
# 4 0.000000 0.000000 0.000000 -0.184956 0.000000 0.000000
# 5 0.000000 0.000000 0.000000 0.000000 0.023775 0.000000
# 6 0.000000 0.000000 0.000000 0.000000 0.000000 0.036705
#
#
# Mechanical properties :
#
#
# Convention : Reuss Voigt Hill
#
# Bulk Modulus (GPa) = 51.61558 70.56706 61.09132
# Shear Modulus (GPa) = -66.58911 32.62015 -16.98448
#
# Velocity S-wave (km/s) = -5.78565 4.04943 -2.92198
# Velocity P-wave (km/s) = 4.32261 7.57213 4.39615
#
# Compressibility (1/GPa) = 0.01937399
#
# Stress axis : x y z
#
# Youngs Moduli (GPa) = 131.14998 76.45277 95.71696
#
# Poissons Ratio (x) = 0.08679 0.47604
# Poissons Ratio (y) = 0.14888 -0.02101
# Poissons Ratio (z) = 0.65227 -0.01678
#
# Static dielectric constant tensor:
#      x y z
#    x 1.679780 0.000000 0.000000 
#    y 0.000000 1.733810 0.000000 
#    z 0.000000 0.000000 1.610960 
# 
# From -- ./inp_files/20362.got.cif
#   From: 2010.05.17/outbox.cif.g08.bks.cpg/sg65_11_cif.got.tgz:20362.got - 2010.06.03 17:01:31.
