data_PCOD9487612
_publ_section_title
;
Structure prediction by ZEFSAII (Michael W. Deem and Ramdas Pophale) SiO2 
 PCOD9487612
Probable space group: C M M M
;
_chemical_formula_sum "Si O2"
_cell_formula_units_Z 96
_cell_length_a 23.246587
_cell_length_b 14.531151
_cell_length_c 15.061627
_cell_angle_alpha 90.000000
_cell_angle_beta 90.000000
_cell_angle_gamma 90.000000
_cell_volume 5087.812569
_symmetry_space_group_name_H-M "C M M M"
_symmetry_group_IT_number 65
_symmetry_cell_setting 'orthorhombic'
loop_
_space_group_symop_operation_xyz
x,y,z
-x,-y,z
x,-y,-z
-x,y,-z
-x,-y,-z
x,y,-z
-x,y,z
x,-y,z
1/2+x,1/2+y,z
1/2-x,1/2-y,z
1/2+x,1/2-y,-z
1/2-x,1/2+y,-z
1/2-x,1/2-y,-z
1/2+x,1/2+y,-z
1/2-x,1/2+y,z
1/2+x,1/2-y,z
loop_
_atom_site_type_symbol
_atom_site_label
_atom_site_fract_x
_atom_site_fract_y
_atom_site_fract_z
Si Si1 0.933697 0.238598 0.253781
Si Si2 0.121635 0.896257 0.394379
Si Si3 0.252595 0.860418 0.398011
Si Si4 0.838703 0.393940 0.757629
Si Si5 0.254932 0.388492 0.100361
Si Si6 0.887787 0.890969 0.105458
O O1 0.911900 0.177519 0.336650
O O2 0.892774 0.327013 0.246045
O O3 0.925246 0.173665 0.167622
O O4 0.000000 0.263786 0.264099
O O5 0.118775 0.876848 0.500000
O O6 0.189320 0.893700 0.369388
O O7 0.100043 0.000000 0.378942
O O8 0.261817 0.888847 0.500000
O O9 0.250000 0.750000 0.395374
O O10 0.302896 0.892191 0.333833
O O11 0.854046 0.500000 0.778077
O O12 0.792907 0.357783 0.830625
O O13 0.253368 0.500000 0.100523
O O14 0.320774 0.366087 0.123246
O O15 0.242495 0.357865 0.000000
O O16 0.895567 0.000000 0.125131
O O17 0.897878 0.879007 0.000000
#
# Coordination Sequence:
#
# PCOD9487612 Si02
#       6
#    16  16  16  16  16  16
#     4  12  26  40  55  78 112 156 206 246 276 322
#     4  10  21  38  61  89 118 145 177 226 290 355
#     4  10  19  35  61  91 121 146 174 224 294 359
#     4  11  23  38  59  84 114 154 196 238 285 335
#     4   8  16  33  58  88 117 142 174 224 288 352
#     4   9  19  37  61  90 121 147 177 229 297 361
#
# _framework density 18.86862
#
# number of rings (size 3 to 8) (size 9 to 14) (size 15 to 20)
#    0.000    2.000    1.667    3.000    0.000    5.333 
#    0.000    3.333    0.000    0.000    0.000    5.833 
#    0.000    0.000    0.000    0.000    0.000    0.000 
#
# Total GULP energy -268230.781022 kJ/mol
# GULP energy per Si atom -5588.141271 kJ/mol
# Density = 1.882567 g / cm^3
# Si number density = 18.868620 Si / 1000 Ang^3
#
#
#
# Elastic Constant Matrix: (Units=GPa)
#
#
# Indices 1 2 3 4 5 6 
#
# 1 81.0266 5.1592 30.3359 0.0000 0.0000 0.0000
# 2 5.1592 65.7612 10.5082 0.0000 0.0000 0.0000
# 3 30.3359 10.5082 48.7529 0.0000 0.0000 0.0000
# 4 0.0000 0.0000 0.0000 22.9834 0.0000 0.0000
# 5 0.0000 0.0000 0.0000 0.0000 -8.0288 0.0000
# 6 0.0000 0.0000 0.0000 0.0000 0.0000 -6.6874
#
#
#
# Elastic Compliance Matrix: (Units=1/GPa)
#
#
# Indices 1 2 3 4 5 6 
#
# 1 0.016098 0.000350 -0.010092 0.000000 0.000000 0.000000
# 2 0.000350 0.015757 -0.003614 0.000000 0.000000 0.000000
# 3 -0.010092 -0.003614 0.027570 0.000000 0.000000 0.000000
# 4 0.000000 0.000000 0.000000 0.043510 0.000000 0.000000
# 5 0.000000 0.000000 0.000000 0.000000 -0.124552 0.000000
# 6 0.000000 0.000000 0.000000 0.000000 0.000000 -0.149534
#
#
# Mechanical properties :
#
#
# Convention : Reuss Voigt Hill
#
# Bulk Modulus (GPa) = 30.56953 31.94970 31.25962
# Shear Modulus (GPa) = -37.44317 11.62259 -12.91029
#
# Velocity S-wave (km/s) = -4.45951 2.48458 -2.61860
# Velocity P-wave (km/s) = 3.20623 5.01999 2.73134
#
# Compressibility (1/GPa) = 0.03271231
#
# Stress axis : x y z
#
# Youngs Moduli (GPa) = 62.12046 63.46562 36.27104
#
# Poissons Ratio (x) = -0.02220 0.36605
# Poissons Ratio (y) = -0.02173 0.13108
# Poissons Ratio (z) = 0.62692 0.22935
#
# Static dielectric constant tensor:
#      x y z
#    x 1.618230 0.000000 0.000000 
#    y 0.000000 1.678900 0.000000 
#    z 0.000000 0.000000 1.675420 
# 
# From -- ./inp_files/40310.got.cif
#   From: 2010.05.17/outbox.cif.g08.bks.cpg/sg65_21_cif.got.tgz:40310.got - 2010.06.03 17:01:31.
