data_PCOD9487127
_publ_section_title
;
Structure prediction by ZEFSAII (Michael W. Deem and Ramdas Pophale) SiO2 
 PCOD9487127
Probable space group: C M M M
;
_chemical_formula_sum "Si O2"
_cell_formula_units_Z 104
_cell_length_a 21.120137
_cell_length_b 19.727514
_cell_length_c 14.291892
_cell_angle_alpha 90.000000
_cell_angle_beta 90.000000
_cell_angle_gamma 90.000000
_cell_volume 5954.685336
_symmetry_space_group_name_H-M "C M M M"
_symmetry_group_IT_number 65
_symmetry_cell_setting 'orthorhombic'
loop_
_space_group_symop_operation_xyz
x,y,z
-x,-y,z
x,-y,-z
-x,y,-z
-x,-y,-z
x,y,-z
-x,y,z
x,-y,z
1/2+x,1/2+y,z
1/2-x,1/2-y,z
1/2+x,1/2-y,-z
1/2-x,1/2+y,-z
1/2-x,1/2-y,-z
1/2+x,1/2+y,-z
1/2-x,1/2+y,z
1/2+x,1/2-y,z
loop_
_atom_site_type_symbol
_atom_site_label
_atom_site_fract_x
_atom_site_fract_y
_atom_site_fract_z
Si Si1 0.864433 0.370188 0.212502
Si Si2 0.500000 0.421536 0.696201
Si Si3 0.575851 0.000000 0.887977
Si Si4 0.880688 0.843312 0.389844
Si Si5 0.500000 0.639793 0.105887
Si Si6 0.127204 0.227997 0.891360
Si Si7 0.575790 0.187742 0.392672
Si Si8 0.272784 0.325648 0.253107
O O1 0.892372 0.434141 0.158659
O O2 0.880209 0.301551 0.155207
O O3 0.895243 0.360882 0.314751
O O4 0.788613 0.368585 0.226006
O O5 0.500000 0.500000 0.671281
O O6 0.561670 0.385055 0.654084
O O7 0.500000 0.411709 0.808222
O O8 0.500000 0.000000 0.871201
O O9 0.585648 0.000000 0.000000
O O10 0.875744 0.856583 0.500000
O O11 0.897160 0.763495 0.377111
O O12 0.816077 0.856465 0.334269
O O13 0.438072 0.686838 0.115829
O O14 0.500000 0.611201 0.000000
O O15 0.181602 0.188440 0.835100
O O16 0.144009 0.235216 0.000000
O O17 0.590423 0.168316 0.500000
O O18 0.500000 0.190999 0.382805
O O19 0.250000 0.250000 0.283144
#
# Coordination Sequence:
#
# PCOD9487127 Si02
#       8
#    16   8   8  16   8  16  16  16
#     4  11  22  38  58  84 121 153 195 237 294 356
#     4  12  23  39  60  83 122 162 202 240 285 344
#     4  11  26  44  63  87 117 158 200 241 294 355
#     4  11  21  36  58  87 122 153 193 246 293 344
#     4  10  20  36  61  89 114 148 197 253 304 340
#     4  10  20  34  59  88 114 144 191 251 303 347
#     4  10  19  33  60  89 113 147 191 246 302 340
#     4  10  20  35  57  87 115 151 187 236 301 351
#
# _framework density 17.465239
#
# number of rings (size 3 to 8) (size 9 to 14) (size 15 to 20)
#    0.000    1.462    5.385    1.154    2.154    5.077 
#    1.385    0.385    0.000    1.385    0.000    0.000 
#    0.000    0.000    0.000    0.000    0.000    0.000 
#
# Total GULP energy -290376.338119 kJ/mol
# GULP energy per Si atom -5584.160348 kJ/mol
# Density = 1.742549 g / cm^3
# Si number density = 17.465239 Si / 1000 Ang^3
#
#
#
# Elastic Constant Matrix: (Units=GPa)
#
#
# Indices 1 2 3 4 5 6 
#
# 1 115.9659 43.1820 60.0820 0.0000 0.0000 0.0000
# 2 43.1820 60.4662 54.0555 0.0000 0.0000 0.0000
# 3 60.0820 54.0555 133.5158 0.0000 0.0000 0.0000
# 4 0.0000 0.0000 0.0000 19.6239 0.0000 0.0000
# 5 0.0000 0.0000 0.0000 0.0000 -10.6216 0.0000
# 6 0.0000 0.0000 0.0000 0.0000 0.0000 12.2450
#
#
#
# Elastic Compliance Matrix: (Units=1/GPa)
#
#
# Indices 1 2 3 4 5 6 
#
# 1 0.012545 -0.006132 -0.003163 0.000000 0.000000 0.000000
# 2 -0.006132 0.028916 -0.008948 0.000000 0.000000 0.000000
# 3 -0.003163 -0.008948 0.012536 0.000000 0.000000 0.000000
# 4 0.000000 0.000000 0.000000 0.050958 0.000000 0.000000
# 5 0.000000 0.000000 0.000000 0.000000 -0.094148 0.000000
# 6 0.000000 0.000000 0.000000 0.000000 0.000000 0.081666
#
#
# Mechanical properties :
#
#
# Convention : Reuss Voigt Hill
#
# Bulk Modulus (GPa) = 57.10232 69.39854 63.25043
# Shear Modulus (GPa) = 37.09320 14.42469 25.75895
#
# Velocity S-wave (km/s) = 4.61350 2.87698 3.84457
# Velocity P-wave (km/s) = 7.81953 7.13145 7.48340
#
# Compressibility (1/GPa) = 0.01751242
#
# Stress axis : x y z
#
# Youngs Moduli (GPa) = 79.71245 34.58264 79.77229
#
# Poissons Ratio (x) = 0.21205 0.25231
# Poissons Ratio (y) = 0.48876 0.71379
# Poissons Ratio (z) = 0.25212 0.30944
#
# Static dielectric constant tensor:
#      x y z
#    x 1.589440 0.000000 0.000000 
#    y 0.000000 1.560540 0.000000 
#    z 0.000000 0.000000 1.604980 
# 
# From -- ./inp_files/44457.got.cif
#   From: 2010.05.17/outbox.cif.g08.bks.cpg/sg65_23_cif.got.tgz:44457.got - 2010.06.03 17:01:31.
