data_PCOD9487172
_publ_section_title
;
Structure prediction by ZEFSAII (Michael W. Deem and Ramdas Pophale) SiO2 
 PCOD9487172
Probable space group: C M M M
;
_chemical_formula_sum "Si O2"
_cell_formula_units_Z 88
_cell_length_a 13.709489
_cell_length_b 30.941985
_cell_length_c 12.811538
_cell_angle_alpha 90.000000
_cell_angle_beta 90.000000
_cell_angle_gamma 90.000000
_cell_volume 5434.639084
_symmetry_space_group_name_H-M "C M M M"
_symmetry_group_IT_number 65
_symmetry_cell_setting 'orthorhombic'
loop_
_space_group_symop_operation_xyz
x,y,z
-x,-y,z
x,-y,-z
-x,y,-z
-x,-y,-z
x,y,-z
-x,y,z
x,-y,z
1/2+x,1/2+y,z
1/2-x,1/2-y,z
1/2+x,1/2-y,-z
1/2-x,1/2+y,-z
1/2-x,1/2-y,-z
1/2+x,1/2+y,-z
1/2-x,1/2+y,z
1/2+x,1/2-y,z
loop_
_atom_site_type_symbol
_atom_site_label
_atom_site_fract_x
_atom_site_fract_y
_atom_site_fract_z
Si Si1 0.886929 0.595620 0.291040
Si Si2 0.750000 0.750000 0.763722
Si Si3 0.220055 0.088836 0.874472
Si Si4 0.613243 0.679356 0.874455
Si Si5 0.610961 0.500000 0.126492
Si Si6 0.114145 0.551234 0.500000
Si Si7 0.388007 0.807383 0.621305
O O1 0.819895 0.590592 0.190227
O O2 0.846537 0.569052 0.390706
O O3 0.885780 0.644959 0.329586
O O4 0.000000 0.582997 0.270854
O O5 0.683505 0.716602 0.829502
O O6 0.679379 0.777317 0.689861
O O7 0.156690 0.131766 0.849048
O O8 0.165073 0.044421 0.845001
O O9 0.235732 0.088746 0.000000
O O10 0.500000 0.683312 0.839584
O O11 0.613525 0.682773 0.000000
O O12 0.500000 0.500000 0.165278
O O13 0.607434 0.500000 0.000000
O O14 0.117779 0.500000 0.500000
O O15 0.000000 0.565768 0.500000
O O16 0.358122 0.809384 0.500000
O O17 0.500000 0.792179 0.624819
#
# Coordination Sequence:
#
# PCOD9487172 Si02
#       7
#    16   8  16  16   8   8  16
#     4  10  19  34  53  76 108 141 174 214 258 311
#     4  12  20  34  54  80 104 134 180 220 266 324
#     4  10  20  35  54  80 109 139 176 216 265 319
#     4  10  21  36  53  75 107 142 176 220 266 313
#     4   9  18  34  57  80 101 132 177 220 257 309
#     4   9  18  32  54  79 100 132 178 218 252 303
#     4  10  20  35  53  75 104 137 175 220 265 311
#
# _framework density 16.192428
#
# number of rings (size 3 to 8) (size 9 to 14) (size 15 to 20)
#    0.000    2.000    2.727    1.636    1.273    2.545 
#    0.000    0.000    0.000    1.636    0.000    2.545 
#    0.000    0.000    0.000    0.000    0.000    0.000 
#
# Total GULP energy -245253.041065 kJ/mol
# GULP energy per Si atom -5573.932751 kJ/mol
# Density = 1.615557 g / cm^3
# Si number density = 16.192428 Si / 1000 Ang^3
#
#
#
# Elastic Constant Matrix: (Units=GPa)
#
#
# Indices 1 2 3 4 5 6 
#
# 1 108.9830 63.8448 57.6806 0.0000 0.0000 0.0000
# 2 63.8448 99.9546 40.0373 0.0000 0.0000 0.0000
# 3 57.6806 40.0373 64.3108 0.0000 0.0000 0.0000
# 4 0.0000 0.0000 0.0000 15.6363 0.0000 0.0000
# 5 0.0000 0.0000 0.0000 0.0000 21.0488 0.0000
# 6 0.0000 0.0000 0.0000 0.0000 0.0000 18.8136
#
#
#
# Elastic Compliance Matrix: (Units=1/GPa)
#
#
# Indices 1 2 3 4 5 6 
#
# 1 0.021346 -0.007948 -0.014197 0.000000 0.000000 0.000000
# 2 -0.007948 0.016287 -0.003012 0.000000 0.000000 0.000000
# 3 -0.014197 -0.003012 0.030158 0.000000 0.000000 0.000000
# 4 0.000000 0.000000 0.000000 0.063954 0.000000 0.000000
# 5 0.000000 0.000000 0.000000 0.000000 0.047509 0.000000
# 6 0.000000 0.000000 0.000000 0.000000 0.000000 0.053153
#
#
# Mechanical properties :
#
#
# Convention : Reuss Voigt Hill
#
# Bulk Modulus (GPa) = 57.21429 66.26374 61.73901
# Shear Modulus (GPa) = 17.32833 18.54544 17.93688
#
# Velocity S-wave (km/s) = 3.27486 3.38792 3.33187
# Velocity P-wave (km/s) = 7.05056 7.50437 7.28100
#
# Compressibility (1/GPa) = 0.01747815
#
# Stress axis : x y z
#
# Youngs Moduli (GPa) = 46.84809 61.39773 33.15888
#
# Poissons Ratio (x) = 0.48796 0.47076
# Poissons Ratio (y) = 0.37233 0.09986
# Poissons Ratio (z) = 0.66511 0.18491
#
# Static dielectric constant tensor:
#      x y z
#    x 1.560620 0.000000 0.000000 
#    y 0.000000 1.508080 0.000000 
#    z 0.000000 0.000000 1.525120 
# 
# From -- ./inp_files/25191.got.cif
#   From: 2010.05.17/outbox.cif.g08.bks.cpg/sg65_13_cif.got.tgz:25191.got - 2010.06.03 17:01:31.
