data_PCOD9487215
_publ_section_title
;
Structure prediction by ZEFSAII (Michael W. Deem and Ramdas Pophale) SiO2 
 PCOD9487215
Probable space group: C M M M
;
_chemical_formula_sum "Si O2"
_cell_formula_units_Z 80
_cell_length_a 18.761242
_cell_length_b 19.679144
_cell_length_c 12.673470
_cell_angle_alpha 90.000000
_cell_angle_beta 90.000000
_cell_angle_gamma 90.000000
_cell_volume 4679.110810
_symmetry_space_group_name_H-M "C M M M"
_symmetry_group_IT_number 65
_symmetry_cell_setting 'orthorhombic'
loop_
_space_group_symop_operation_xyz
x,y,z
-x,-y,z
x,-y,-z
-x,y,-z
-x,-y,-z
x,y,-z
-x,y,z
x,-y,z
1/2+x,1/2+y,z
1/2-x,1/2-y,z
1/2+x,1/2-y,-z
1/2-x,1/2+y,-z
1/2-x,1/2-y,-z
1/2+x,1/2+y,-z
1/2-x,1/2+y,z
1/2+x,1/2-y,z
loop_
_atom_site_type_symbol
_atom_site_label
_atom_site_fract_x
_atom_site_fract_y
_atom_site_fract_z
Si Si1 0.234594 0.923137 0.192625
Si Si2 0.170555 0.781567 0.806654
Si Si3 0.345854 0.076231 0.624102
Si Si4 0.082297 0.717006 0.625103
Si Si5 0.916372 0.282032 0.000000
Si Si6 0.154237 0.576489 0.000000
O O1 0.179346 0.862291 0.180817
O O2 0.276918 0.914815 0.302642
O O3 0.205692 0.000000 0.186570
O O4 0.294307 0.916589 0.101460
O O5 0.250000 0.750000 0.813380
O O6 0.134963 0.761005 0.696192
O O7 0.122519 0.749500 0.898253
O O8 0.327853 0.079656 0.500000
O O9 0.399488 0.137714 0.646334
O O10 0.374388 0.000000 0.645436
O O11 0.092541 0.728479 0.500000
O O12 0.000000 0.730621 0.651279
O O13 0.901466 0.362744 0.000000
O O14 0.000000 0.267982 0.000000
O O15 0.124163 0.500000 0.000000
#
# Coordination Sequence:
#
# PCOD9487215 Si02
#       6
#    16  16  16  16   8   8
#     4  10  20  34  54  80 107 136 175 225 271 311
#     4  12  21  36  59  81 106 143 184 225 266 314
#     4   9  17  30  49  76 110 144 176 210 258 322
#     4  10  21  35  52  79 113 146 180 220 268 320
#     4  12  24  37  56  83 114 145 177 218 269 321
#     4  10  19  34  54  79 112 144 173 205 257 326
#
# _framework density 17.097265
#
# number of rings (size 3 to 8) (size 9 to 14) (size 15 to 20)
#    0.000    1.600    4.000    1.500    0.000    1.800 
#    0.000    2.000    0.000    9.000    0.000    1.400 
#    0.000    0.000    0.000    0.000    0.000    0.000 
#
# Total GULP energy -223233.140743 kJ/mol
# GULP energy per Si atom -5580.828519 kJ/mol
# Density = 1.705835 g / cm^3
# Si number density = 17.097265 Si / 1000 Ang^3
#
#
#
# Elastic Constant Matrix: (Units=GPa)
#
#
# Indices 1 2 3 4 5 6 
#
# 1 100.9652 58.4870 41.5847 0.0000 0.0000 0.0000
# 2 58.4870 115.8610 31.8560 0.0000 0.0000 0.0000
# 3 41.5847 31.8560 48.1272 0.0000 0.0000 0.0000
# 4 0.0000 0.0000 0.0000 10.1493 0.0000 0.0000
# 5 0.0000 0.0000 0.0000 0.0000 21.1158 0.0000
# 6 0.0000 0.0000 0.0000 0.0000 0.0000 18.9977
#
#
#
# Elastic Compliance Matrix: (Units=1/GPa)
#
#
# Indices 1 2 3 4 5 6 
#
# 1 0.018209 -0.005948 -0.011796 0.000000 0.000000 0.000000
# 2 -0.005948 0.012495 -0.003130 0.000000 0.000000 0.000000
# 3 -0.011796 -0.003130 0.033043 0.000000 0.000000 0.000000
# 4 0.000000 0.000000 0.000000 0.098529 0.000000 0.000000
# 5 0.000000 0.000000 0.000000 0.000000 0.047358 0.000000
# 6 0.000000 0.000000 0.000000 0.000000 0.000000 0.052638
#
#
# Mechanical properties :
#
#
# Convention : Reuss Voigt Hill
#
# Bulk Modulus (GPa) = 45.46247 58.75654 52.10951
# Shear Modulus (GPa) = 16.05894 18.92092 17.48993
#
# Velocity S-wave (km/s) = 3.06807 3.33026 3.20185
# Velocity P-wave (km/s) = 6.26091 7.01628 6.64933
#
# Compressibility (1/GPa) = 0.02199616
#
# Stress axis : x y z
#
# Youngs Moduli (GPa) = 54.91892 80.03475 30.26378
#
# Poissons Ratio (x) = 0.47609 0.35699
# Poissons Ratio (y) = 0.32668 0.09474
# Poissons Ratio (z) = 0.64782 0.25055
#
# Static dielectric constant tensor:
#      x y z
#    x 1.534090 0.000000 0.000000 
#    y 0.000000 1.602250 0.000000 
#    z 0.000000 0.000000 1.595280 
# 
# From -- ./inp_files/26694.got.cif
#   From: 2010.05.17/outbox.cif.g08.bks.cpg/sg65_14_cif.got.tgz:26694.got - 2010.06.03 17:01:31.
