data_PCOD9487710
_publ_section_title
;
Structure prediction by ZEFSAII (Michael W. Deem and Ramdas Pophale) SiO2 
 PCOD9487710
Probable space group: C M M M
;
_chemical_formula_sum "Si O2"
_cell_formula_units_Z 80
_cell_length_a 14.510419
_cell_length_b 10.899593
_cell_length_c 26.912089
_cell_angle_alpha 90.000000
_cell_angle_beta 90.000000
_cell_angle_gamma 90.000000
_cell_volume 4256.353059
_symmetry_space_group_name_H-M "C M M M"
_symmetry_group_IT_number 65
_symmetry_cell_setting 'orthorhombic'
loop_
_space_group_symop_operation_xyz
x,y,z
-x,-y,z
x,-y,-z
-x,y,-z
-x,-y,-z
x,y,-z
-x,y,z
x,-y,z
1/2+x,1/2+y,z
1/2-x,1/2-y,z
1/2+x,1/2-y,-z
1/2-x,1/2+y,-z
1/2-x,1/2-y,-z
1/2+x,1/2+y,-z
1/2-x,1/2+y,z
1/2+x,1/2-y,z
loop_
_atom_site_type_symbol
_atom_site_label
_atom_site_fract_x
_atom_site_fract_y
_atom_site_fract_z
Si Si1 0.598542 0.144973 0.890785
Si Si2 0.750000 0.750000 0.818289
Si Si3 0.112159 0.141268 0.628745
Si Si4 0.604388 0.646475 0.258883
Si Si5 0.671441 0.146758 0.000000
Si Si6 0.612364 0.861938 0.557543
O O1 0.500000 0.202131 0.876123
O O2 0.682371 0.179953 0.855687
O O3 0.616976 0.168940 0.948912
O O4 0.591283 0.000000 0.886447
O O5 0.679376 0.680852 0.781901
O O6 0.134492 0.180852 0.685173
O O7 0.142577 0.246648 0.590658
O O8 0.000000 0.136975 0.626801
O O9 0.143117 0.000000 0.619335
O O10 0.500000 0.695378 0.249595
O O11 0.597291 0.500000 0.259899
O O12 0.750000 0.250000 0.000000
O O13 0.699113 0.000000 0.000000
O O14 0.640233 0.847192 0.500000
O O15 0.500000 0.861177 0.558432
O O16 0.640181 0.000000 0.574171
#
# Coordination Sequence:
#
# PCOD9487710 Si02
#       6
#    16   8  16  16   8  16
#     4  10  21  36  56  82 113 149 186 224 272 329
#     4  12  20  33  56  80 107 136 182 236 276 320
#     4   8  14  26  43  62  89 129 175 214 254 318
#     4   9  19  35  52  72 102 141 180 223 279 330
#     4  10  19  37  61  86 116 152 189 227 271 326
#     4   8  13  21  35  60  95 129 161 206 266 322
#
# _framework density 18.795434
#
# number of rings (size 3 to 8) (size 9 to 14) (size 15 to 20)
#    0.000    2.800    1.000    3.300    0.000    1.600 
#    0.000    4.000    0.000    7.200    0.000    0.700 
#    0.000    0.000    0.000    0.000    0.000    0.200 
#
# Total GULP energy -222697.922915 kJ/mol
# GULP energy per Si atom -5567.448073 kJ/mol
# Density = 1.875265 g / cm^3
# Si number density = 18.795434 Si / 1000 Ang^3
#
#
#
# Elastic Constant Matrix: (Units=GPa)
#
#
# Indices 1 2 3 4 5 6 
#
# 1 100.5719 35.7752 54.1334 0.0000 0.0000 0.0000
# 2 35.7752 73.4843 70.1095 0.0000 0.0000 0.0000
# 3 54.1334 70.1095 140.3206 0.0000 0.0000 0.0000
# 4 0.0000 0.0000 0.0000 30.9478 0.0000 0.0000
# 5 0.0000 0.0000 0.0000 0.0000 -5.3285 0.0000
# 6 0.0000 0.0000 0.0000 0.0000 0.0000 5.8873
#
#
#
# Elastic Compliance Matrix: (Units=1/GPa)
#
#
# Indices 1 2 3 4 5 6 
#
# 1 0.012869 -0.002921 -0.003505 0.000000 0.000000 0.000000
# 2 -0.002921 0.026667 -0.012197 0.000000 0.000000 0.000000
# 3 -0.003505 -0.012197 0.014573 0.000000 0.000000 0.000000
# 4 0.000000 0.000000 0.000000 0.032312 0.000000 0.000000
# 5 0.000000 0.000000 0.000000 0.000000 -0.187672 0.000000
# 6 0.000000 0.000000 0.000000 0.000000 0.000000 0.169858
#
#
# Mechanical properties :
#
#
# Convention : Reuss Voigt Hill
#
# Bulk Modulus (GPa) = 59.30267 70.49033 64.89650
# Shear Modulus (GPa) = 44.85263 16.59190 30.72226
#
# Velocity S-wave (km/s) = 4.89034 2.97435 4.04736
# Velocity P-wave (km/s) = 7.96915 7.02717 7.51294
#
# Compressibility (1/GPa) = 0.01686265
#
# Stress axis : x y z
#
# Youngs Moduli (GPa) = 77.70717 37.49890 68.62002
#
# Poissons Ratio (x) = 0.10953 0.24053
# Poissons Ratio (y) = 0.22697 0.83698
# Poissons Ratio (z) = 0.27238 0.45738
#
# Static dielectric constant tensor:
#      x y z
#    x 1.737490 0.000000 0.000000 
#    y 0.000000 1.635110 0.000000 
#    z 0.000000 0.000000 1.664130 
# 
# From -- ./inp_files/69712.got.cif
#   From: 2010.05.17/outbox.cif.g08.bks.cpg/sg65_35_cif.got.tgz:69712.got - 2010.06.03 17:01:31.
